# Generated by pormake.
# Topology eea, (3,6)-cn, num edge types: 1
# Building blocks:
#     Node 0, Type 0, BuildingBlock: ESEHIV_clean_linker_0, # of connection points: 3
#     Node 1, Type 0, BuildingBlock: ESEHIV_clean_linker_0, # of connection points: 3
#     Node 2, Type 0, BuildingBlock: ESEHIV_clean_linker_0, # of connection points: 3
#     Node 3, Type 0, BuildingBlock: ESEHIV_clean_linker_0, # of connection points: 3
#     Node 4, Type 0, BuildingBlock: ESEHIV_clean_linker_0, # of connection points: 3
#     Node 5, Type 0, BuildingBlock: ESEHIV_clean_linker_0, # of connection points: 3
#     Node 6, Type 0, BuildingBlock: ESEHIV_clean_linker_0, # of connection points: 3
#     Node 7, Type 0, BuildingBlock: ESEHIV_clean_linker_0, # of connection points: 3
#     Node 8, Type 0, BuildingBlock: ESEHIV_clean_linker_0, # of connection points: 3
#     Node 9, Type 0, BuildingBlock: ESEHIV_clean_linker_0, # of connection points: 3
#     Node 10, Type 0, BuildingBlock: ESEHIV_clean_linker_0, # of connection points: 3
#     Node 11, Type 0, BuildingBlock: ESEHIV_clean_linker_0, # of connection points: 3
#     Node 12, Type 0, BuildingBlock: ESEHIV_clean_linker_0, # of connection points: 3
#     Node 13, Type 0, BuildingBlock: ESEHIV_clean_linker_0, # of connection points: 3
#     Node 14, Type 0, BuildingBlock: ESEHIV_clean_linker_0, # of connection points: 3
#     Node 15, Type 0, BuildingBlock: ESEHIV_clean_linker_0, # of connection points: 3
#     Node 16, Type 0, BuildingBlock: ESEHIV_clean_linker_0, # of connection points: 3
#     Node 17, Type 0, BuildingBlock: ESEHIV_clean_linker_0, # of connection points: 3
#     Node 18, Type 1, BuildingBlock: CUKXOW_clean_sbu_0, # of connection points: 6
#     Node 19, Type 1, BuildingBlock: CUKXOW_clean_sbu_0, # of connection points: 6
#     Node 20, Type 1, BuildingBlock: CUKXOW_clean_sbu_0, # of connection points: 6
#     Node 21, Type 1, BuildingBlock: CUKXOW_clean_sbu_0, # of connection points: 6
#     Node 22, Type 1, BuildingBlock: CUKXOW_clean_sbu_0, # of connection points: 6
#     Node 23, Type 1, BuildingBlock: CUKXOW_clean_sbu_0, # of connection points: 6
#     Node 24, Type 1, BuildingBlock: CUKXOW_clean_sbu_0, # of connection points: 6
#     Node 25, Type 1, BuildingBlock: CUKXOW_clean_sbu_0, # of connection points: 6
#     Node 26, Type 1, BuildingBlock: CUKXOW_clean_sbu_0, # of connection points: 6
#     Edge 27, Type (0, 1), BuildingBlock: CIFDUS_clean_linker_0, # of connection points: 2
#     Edge 28, Type (0, 1), BuildingBlock: CIFDUS_clean_linker_0, # of connection points: 2
#     Edge 29, Type (0, 1), BuildingBlock: CIFDUS_clean_linker_0, # of connection points: 2
#     Edge 30, Type (0, 1), BuildingBlock: CIFDUS_clean_linker_0, # of connection points: 2
#     Edge 31, Type (0, 1), BuildingBlock: CIFDUS_clean_linker_0, # of connection points: 2
#     Edge 32, Type (0, 1), BuildingBlock: CIFDUS_clean_linker_0, # of connection points: 2
#     Edge 33, Type (0, 1), BuildingBlock: CIFDUS_clean_linker_0, # of connection points: 2
#     Edge 34, Type (0, 1), BuildingBlock: CIFDUS_clean_linker_0, # of connection points: 2
#     Edge 35, Type (0, 1), BuildingBlock: CIFDUS_clean_linker_0, # of connection points: 2
#     Edge 36, Type (0, 1), BuildingBlock: CIFDUS_clean_linker_0, # of connection points: 2
#     Edge 37, Type (0, 1), BuildingBlock: CIFDUS_clean_linker_0, # of connection points: 2
#     Edge 38, Type (0, 1), BuildingBlock: CIFDUS_clean_linker_0, # of connection points: 2
#     Edge 39, Type (0, 1), BuildingBlock: CIFDUS_clean_linker_0, # of connection points: 2
#     Edge 40, Type (0, 1), BuildingBlock: CIFDUS_clean_linker_0, # of connection points: 2
#     Edge 41, Type (0, 1), BuildingBlock: CIFDUS_clean_linker_0, # of connection points: 2
#     Edge 42, Type (0, 1), BuildingBlock: CIFDUS_clean_linker_0, # of connection points: 2
#     Edge 43, Type (0, 1), BuildingBlock: CIFDUS_clean_linker_0, # of connection points: 2
#     Edge 44, Type (0, 1), BuildingBlock: CIFDUS_clean_linker_0, # of connection points: 2
#     Edge 45, Type (0, 1), BuildingBlock: CIFDUS_clean_linker_0, # of connection points: 2
#     Edge 46, Type (0, 1), BuildingBlock: CIFDUS_clean_linker_0, # of connection points: 2
#     Edge 47, Type (0, 1), BuildingBlock: CIFDUS_clean_linker_0, # of connection points: 2
#     Edge 48, Type (0, 1), BuildingBlock: CIFDUS_clean_linker_0, # of connection points: 2
#     Edge 49, Type (0, 1), BuildingBlock: CIFDUS_clean_linker_0, # of connection points: 2
#     Edge 50, Type (0, 1), BuildingBlock: CIFDUS_clean_linker_0, # of connection points: 2
#     Edge 51, Type (0, 1), BuildingBlock: CIFDUS_clean_linker_0, # of connection points: 2
#     Edge 52, Type (0, 1), BuildingBlock: CIFDUS_clean_linker_0, # of connection points: 2
#     Edge 53, Type (0, 1), BuildingBlock: CIFDUS_clean_linker_0, # of connection points: 2
#     Edge 54, Type (0, 1), BuildingBlock: CIFDUS_clean_linker_0, # of connection points: 2
#     Edge 55, Type (0, 1), BuildingBlock: CIFDUS_clean_linker_0, # of connection points: 2
#     Edge 56, Type (0, 1), BuildingBlock: CIFDUS_clean_linker_0, # of connection points: 2
#     Edge 57, Type (0, 1), BuildingBlock: CIFDUS_clean_linker_0, # of connection points: 2
#     Edge 58, Type (0, 1), BuildingBlock: CIFDUS_clean_linker_0, # of connection points: 2
#     Edge 59, Type (0, 1), BuildingBlock: CIFDUS_clean_linker_0, # of connection points: 2
#     Edge 60, Type (0, 1), BuildingBlock: CIFDUS_clean_linker_0, # of connection points: 2
#     Edge 61, Type (0, 1), BuildingBlock: CIFDUS_clean_linker_0, # of connection points: 2
#     Edge 62, Type (0, 1), BuildingBlock: CIFDUS_clean_linker_0, # of connection points: 2
#     Edge 63, Type (0, 1), BuildingBlock: CIFDUS_clean_linker_0, # of connection points: 2
#     Edge 64, Type (0, 1), BuildingBlock: CIFDUS_clean_linker_0, # of connection points: 2
#     Edge 65, Type (0, 1), BuildingBlock: CIFDUS_clean_linker_0, # of connection points: 2
#     Edge 66, Type (0, 1), BuildingBlock: CIFDUS_clean_linker_0, # of connection points: 2
#     Edge 67, Type (0, 1), BuildingBlock: CIFDUS_clean_linker_0, # of connection points: 2
#     Edge 68, Type (0, 1), BuildingBlock: CIFDUS_clean_linker_0, # of connection points: 2
#     Edge 69, Type (0, 1), BuildingBlock: CIFDUS_clean_linker_0, # of connection points: 2
#     Edge 70, Type (0, 1), BuildingBlock: CIFDUS_clean_linker_0, # of connection points: 2
#     Edge 71, Type (0, 1), BuildingBlock: CIFDUS_clean_linker_0, # of connection points: 2
#     Edge 72, Type (0, 1), BuildingBlock: CIFDUS_clean_linker_0, # of connection points: 2
#     Edge 73, Type (0, 1), BuildingBlock: CIFDUS_clean_linker_0, # of connection points: 2
#     Edge 74, Type (0, 1), BuildingBlock: CIFDUS_clean_linker_0, # of connection points: 2
#     Edge 75, Type (0, 1), BuildingBlock: CIFDUS_clean_linker_0, # of connection points: 2
#     Edge 76, Type (0, 1), BuildingBlock: CIFDUS_clean_linker_0, # of connection points: 2
#     Edge 77, Type (0, 1), BuildingBlock: CIFDUS_clean_linker_0, # of connection points: 2
#     Edge 78, Type (0, 1), BuildingBlock: CIFDUS_clean_linker_0, # of connection points: 2
#     Edge 79, Type (0, 1), BuildingBlock: CIFDUS_clean_linker_0, # of connection points: 2
#     Edge 80, Type (0, 1), BuildingBlock: CIFDUS_clean_linker_0, # of connection points: 2
# Relax obj value: 0.018
# Max RMSD: 0.124
# Mean RMSD: 0.062
data_MOF--net-eea--node1-CUKXOW_clean_sbu_0--node2-ESEHIV_clean_linker_0--edge1-CIFDUS_clean_linker_0
_symmetry_space_group_name_H-M    P1
_symmetry_Int_Tables_number       1
_symmetry_cell_setting            triclinic
loop_
_symmetry_equiv_pos_as_xyz
'x, y, z'
_cell_length_a     45.991401
_cell_length_b     42.550805
_cell_length_c     48.051437
_cell_angle_alpha  93.621887
_cell_angle_beta   92.901671
_cell_angle_gamma 119.93135
loop_
_atom_site_label
_atom_site_type_symbol
_atom_site_fract_x
_atom_site_fract_y
_atom_site_fract_z
_atom_type_partial_charge
H0 H 0.24886 0.19165 0.48521 0.0
H1 H 0.25685 0.09482 0.47185 0.0
H2 H 0.20815 0.12263 0.40766 0.0
C3 C 0.24457 0.16774 0.47219 0.0
C4 C 0.2285 0.16062 0.44492 0.0
C5 C 0.25512 0.14425 0.48248 0.0
C6 C 0.24871 0.11314 0.46485 0.0
C7 C 0.23117 0.10489 0.43819 0.0
C8 C 0.22149 0.12889 0.42835 0.0
H9 H 0.80596 0.09905 0.46345 0.0
H10 H 0.90257 0.19741 0.46779 0.0
H11 H 0.86713 0.11923 0.39484 0.0
C12 C 0.82897 0.11653 0.45418 0.0
C13 C 0.83384 0.10548 0.42757 0.0
C14 C 0.85339 0.15001 0.4687 0.0
C15 C 0.88304 0.17224 0.45628 0.0
C16 C 0.88841 0.16122 0.42973 0.0
C17 C 0.86338 0.128 0.41536 0.0
H18 H 0.83849 0.73589 0.47748 0.0
H19 H 0.93591 0.74607 0.4931 0.0
H20 H 0.90747 0.77313 0.41483 0.0
C21 C 0.86294 0.74277 0.47075 0.0
C22 C 0.87028 0.75416 0.44408 0.0
C23 C 0.88671 0.74098 0.48909 0.0
C24 C 0.91786 0.74849 0.47941 0.0
C25 C 0.92563 0.75948 0.45216 0.0
C26 C 0.90177 0.76322 0.4352 0.0
H27 H 0.09415 0.28303 0.53433 0.0
H28 H 0.18446 0.27585 0.53403 0.0
H29 H 0.11394 0.22233 0.59341 0.0
C30 C 0.11018 0.27339 0.54284 0.0
C31 C 0.09978 0.25075 0.5649 0.0
C32 C 0.14114 0.28312 0.53166 0.0
C33 C 0.16113 0.26957 0.54276 0.0
C34 C 0.15167 0.24802 0.56507 0.0
C35 C 0.12118 0.23897 0.57607 0.0
H36 H 0.75836 0.92681 0.5505 0.0
H37 H 0.7359 0.8156 0.55037 0.0
H38 H 0.79574 0.89484 0.62028 0.0
C39 C 0.76021 0.9057 0.56058 0.0
C40 C 0.77842 0.91468 0.58693 0.0
C41 C 0.74422 0.8699 0.54729 0.0
C42 C 0.74778 0.84321 0.56047 0.0
C43 C 0.7667 0.85207 0.58669 0.0
C44 C 0.78151 0.88781 0.59994 0.0
H45 H 0.09091 0.82027 0.53826 0.0
H46 H 0.19232 0.9103 0.55201 0.0
H47 H 0.12997 0.87969 0.62025 0.0
C48 C 0.11133 0.84145 0.55251 0.0
C49 C 0.10652 0.84659 0.58073 0.0
C50 C 0.14238 0.86397 0.54238 0.0
C51 C 0.1687 0.89222 0.56024 0.0
C52 C 0.16395 0.8985 0.58817 0.0
C53 C 0.13308 0.8753 0.5984 0.0
H54 H 0.95183 0.54064 0.80523 0.0
H55 H 0.95996 0.44455 0.79301 0.0
H56 H 0.90974 0.47024 0.72791 0.0
C57 C 0.94694 0.51652 0.7921 0.0
C58 C 0.92982 0.50858 0.76514 0.0
C59 C 0.95784 0.49348 0.80216 0.0
C60 C 0.95183 0.4625 0.78508 0.0
C61 C 0.93409 0.45361 0.75842 0.0
C62 C 0.92286 0.47659 0.74868 0.0
H63 H 0.50096 0.41855 0.81154 0.0
H64 H 0.58686 0.52491 0.80772 0.0
H65 H 0.55367 0.44248 0.73754 0.0
C66 C 0.52087 0.43771 0.79996 0.0
C67 C 0.52441 0.42671 0.77283 0.0
C68 C 0.54314 0.4731 0.81247 0.0
C69 C 0.56945 0.49774 0.79777 0.0
C70 C 0.57335 0.48715 0.77041 0.0
C71 C 0.55042 0.45157 0.75813 0.0
H72 H 0.49303 0.04201 0.80231 0.0
H73 H 0.58473 0.03861 0.81596 0.0
H74 H 0.5703 0.09097 0.74716 0.0
C75 C 0.51751 0.04825 0.79626 0.0
C76 C 0.5292 0.06752 0.77281 0.0
C77 C 0.53693 0.03724 0.81208 0.0
C78 C 0.56923 0.04653 0.80408 0.0
C79 C 0.58171 0.06642 0.7808 0.0
C80 C 0.56117 0.07617 0.76525 0.0
H81 H 0.76123 0.62386 0.87415 0.0
H82 H 0.84952 0.61381 0.87292 0.0
H83 H 0.79235 0.58522 0.94406 0.0
C84 C 0.77865 0.61707 0.88431 0.0
C85 C 0.77474 0.60654 0.9118 0.0
C86 C 0.80486 0.61813 0.86975 0.0
C87 C 0.82803 0.6106 0.88342 0.0
C88 C 0.82361 0.59832 0.91001 0.0
C89 C 0.79679 0.59617 0.92397 0.0
H90 H 0.39256 0.24795 0.89997 0.0
H91 H 0.39384 0.14788 0.88582 0.0
H92 H 0.44062 0.21726 0.96307 0.0
C93 C 0.39926 0.22858 0.90728 0.0
C94 C 0.41743 0.23621 0.93357 0.0
C95 C 0.39114 0.19712 0.88978 0.0
C96 C 0.4003 0.17238 0.8992 0.0
C97 C 0.4179 0.17923 0.92576 0.0
C98 C 0.42699 0.21164 0.9426 0.0
H99 H 0.75511 0.15304 0.86825 0.0
H100 H 0.85719 0.24229 0.88275 0.0
H101 H 0.7904 0.21884 0.94767 0.0
C102 C 0.77509 0.17539 0.88205 0.0
C103 C 0.769 0.18294 0.90934 0.0
C104 C 0.80699 0.19642 0.87247 0.0
C105 C 0.83294 0.22521 0.89044 0.0
C106 C 0.827 0.23369 0.91752 0.0
C107 C 0.7951 0.21221 0.92684 0.0
H108 H 0.59486 0.86081 0.14862 0.0
H109 H 0.5839 0.75409 0.13317 0.0
H110 H 0.53418 0.78883 0.07575 0.0
C111 C 0.58422 0.83466 0.13629 0.0
C112 C 0.56315 0.82772 0.11155 0.0
C113 C 0.59269 0.80858 0.14425 0.0
C114 C 0.57896 0.77523 0.12721 0.0
C115 C 0.55825 0.7682 0.10253 0.0
C116 C 0.55022 0.79433 0.09489 0.0
H117 H 0.14589 0.77342 0.12811 0.0
H118 H 0.24867 0.86181 0.13814 0.0
H119 H 0.21363 0.78093 0.06703 0.0
C120 C 0.17044 0.78789 0.12024 0.0
C121 C 0.17668 0.77332 0.09572 0.0
C122 C 0.19625 0.81969 0.13575 0.0
C123 C 0.22856 0.83752 0.1261 0.0
C124 C 0.23506 0.82365 0.10126 0.0
C125 C 0.20894 0.79157 0.08632 0.0
H126 H 0.16597 0.39437 0.14151 0.0
H127 H 0.26521 0.40656 0.15305 0.0
H128 H 0.23884 0.44882 0.08374 0.0
C129 C 0.19102 0.40404 0.13515 0.0
C130 C 0.20024 0.42394 0.1117 0.0
C131 C 0.21405 0.39712 0.15048 0.0
C132 C 0.24652 0.41015 0.14133 0.0
C133 C 0.25553 0.42917 0.11747 0.0
C134 C 0.23209 0.43518 0.10267 0.0
H135 H 0.44064 0.96582 0.20831 0.0
H136 H 0.51804 0.93722 0.20407 0.0
H137 H 0.45287 0.90271 0.26969 0.0
C138 C 0.4535 0.95248 0.21656 0.0
C139 C 0.44225 0.93277 0.24006 0.0
C140 C 0.48146 0.95508 0.20376 0.0
C141 C 0.49723 0.93657 0.21416 0.0
C142 C 0.48708 0.91787 0.23793 0.0
C143 C 0.46005 0.91661 0.25096 0.0
H144 H 0.09294 0.58986 0.21114 0.0
H145 H 0.09008 0.48792 0.2166 0.0
H146 H 0.13478 0.57134 0.28625 0.0
C147 C 0.09812 0.57212 0.22308 0.0
C148 C 0.11453 0.58451 0.25026 0.0
C149 C 0.08909 0.53722 0.21101 0.0
C150 C 0.09644 0.51461 0.22619 0.0
C151 C 0.11281 0.52675 0.2534 0.0
C152 C 0.12165 0.56165 0.2654 0.0
H153 H 0.41412 0.47487 0.20475 0.0
H154 H 0.50937 0.57519 0.21042 0.0
H155 H 0.44765 0.55081 0.27899 0.0
C156 C 0.43287 0.50031 0.21648 0.0
C157 C 0.42773 0.50948 0.24375 0.0
C158 C 0.46266 0.52368 0.2046 0.0
C159 C 0.48691 0.55661 0.21987 0.0
C160 C 0.48127 0.56679 0.24647 0.0
C161 C 0.4519 0.54297 0.25835 0.0
Tb162 Tb 0.54436 0.03816 0.009 0.0
C163 C 0.52347 0.96457 0.03347 0.0
Tb164 Tb 0.46848 0.98464 0.01507 0.0
O165 O 0.55637 0.05392 0.05419 0.0
O166 O 0.50797 0.03419 0.03591 0.0
O167 O 0.54316 0.98744 0.01604 0.0
C168 C 0.40864 0.94835 0.03598 0.0
O169 O 0.49492 0.96293 0.03976 0.0
C170 C 0.48854 0.98014 0.96525 0.0
C171 C 0.48989 0.06003 0.9904 0.0
O172 O 0.42538 0.93361 0.0261 0.0
O173 O 0.4253 0.98293 0.03347 0.0
O174 O 0.4573 0.96915 0.96945 0.0
O175 O 0.50523 0.98819 0.98869 0.0
O176 O 0.4656 0.03069 1.00031 0.0
O177 O 0.52163 0.0675 0.99088 0.0
C178 C 0.60443 0.07746 0.98978 0.0
O179 O 0.57572 0.06885 0.97661 0.0
O180 O 0.59933 0.06441 0.01386 0.0
C181 C 0.52533 0.04235 0.05911 0.0
Tb182 Tb 0.97563 0.51223 0.01293 0.0
C183 C 0.05397 0.57017 0.02512 0.0
Tb184 Tb 0.02642 0.48553 0.0137 0.0
O185 O 0.96074 0.49398 0.05402 0.0
O186 O 0.00907 0.50971 0.04323 0.0
O187 O 0.02344 0.5643 0.01702 0.0
C188 C 0.0611 0.45509 0.03257 0.0
O189 O 0.05986 0.54301 0.02848 0.0
C190 C 0.01076 0.49937 0.96416 0.0
C191 C 0.9475 0.42756 1.00225 0.0
O192 O 0.07148 0.48031 0.01552 0.0
O193 O 0.03104 0.44661 0.03855 0.0
O194 O 0.03859 0.49929 0.97052 0.0
O195 O 0.99263 0.48744 0.98388 0.0
O196 O 0.97843 0.43349 0.00894 0.0
O197 O 0.94099 0.45453 1.00013 0.0
C198 C 0.94047 0.54274 0.99616 0.0
O199 O 0.9397 0.53078 0.02046 0.0
O200 O 0.96104 0.53775 0.98163 0.0
C201 C 0.98902 0.49549 0.06156 0.0
Tb202 Tb 0.47309 0.49787 0.01366 0.0
C203 C 0.49758 0.43973 1.00307 0.0
Tb204 Tb 0.54821 0.52446 1.00624 0.0
O205 O 0.46322 0.50656 0.97008 0.0
O206 O 0.50166 0.49675 0.98144 0.0
O207 O 0.47394 0.44653 0.01164 0.0
C208 C 0.6037 0.5531 0.97942 0.0
O209 O 0.52764 0.46591 0.99721 0.0
C210 C 0.53073 0.51303 0.05739 0.0
C211 C 0.52563 0.58301 0.02102 0.0
O212 O 0.60187 0.54252 1.00445 0.0
O213 O 0.57463 0.5479 0.96992 0.0
O214 O 0.55717 0.5128 0.04895 0.0
O215 O 0.5192 0.52415 0.03863 0.0
O216 O 0.54856 0.57639 0.01061 0.0
O217 O 0.49589 0.55627 0.02696 0.0
C218 C 0.41537 0.46855 0.03755 0.0
O219 O 0.42545 0.49506 0.02171 0.0
O220 O 0.43736 0.45804 0.03938 0.0
C221 C 0.48962 0.50617 0.96187 0.0
Tb222 Tb 0.19456 0.35294 0.3299 0.0
C223 C 0.17833 0.28131 0.35532 0.0
Tb224 Tb 0.12017 0.29742 0.33885 0.0
O225 O 0.20925 0.36762 0.37531 0.0
O226 O 0.15979 0.34719 0.35904 0.0
O227 O 0.19688 0.30431 0.3375 0.0
C228 C 0.06107 0.25417 0.3583 0.0
O229 O 0.14937 0.27808 0.36212 0.0
C230 C 0.13634 0.29773 0.28687 0.0
C231 C 0.13775 0.37423 0.31956 0.0
O232 O 0.07999 0.24314 0.34712 0.0
O233 O 0.0753 0.28916 0.35824 0.0
O234 O 0.1059 0.28582 0.29369 0.0
O235 O 0.15474 0.30363 0.30918 0.0
O236 O 0.11508 0.34411 0.32979 0.0
O237 O 0.16945 0.38255 0.31725 0.0
C238 C 0.24922 0.39225 0.30321 0.0
O239 O 0.21827 0.37677 0.29239 0.0
O240 O 0.24951 0.38611 0.32935 0.0
C241 C 0.17843 0.35543 0.38152 0.0
Tb242 Tb 0.64334 0.8374 0.34144 0.0
C243 C 0.71379 0.89782 0.36767 0.0
Tb244 Tb 0.70133 0.82106 0.34482 0.0
O245 O 0.63939 0.83861 0.38645 0.0
O246 O 0.65913 0.80907 0.36744 0.0
O247 O 0.68752 0.89171 0.35055 0.0
C248 C 0.75099 0.80905 0.36112 0.0
O249 O 0.72093 0.87183 0.37194 0.0
C250 C 0.68817 0.83857 0.29598 0.0
C251 C 0.62911 0.75783 0.32069 0.0
O252 O 0.75502 0.83776 0.34986 0.0
O253 O 0.71917 0.78727 0.36296 0.0
O254 O 0.70188 0.81856 0.29901 0.0
O255 O 0.68617 0.85076 0.31989 0.0
O256 O 0.66004 0.76653 0.33043 0.0
O257 O 0.61795 0.78123 0.32212 0.0
C258 C 0.59555 0.85116 0.32305 0.0
O259 O 0.60601 0.83253 0.30873 0.0
O260 O 0.61168 0.86166 0.34781 0.0
C261 C 0.65544 0.82127 0.39086 0.0
Tb262 Tb 0.14611 0.83751 0.3457 0.0
C263 C 0.16405 0.77558 0.33224 0.0
Tb264 Tb 0.22122 0.85867 0.34271 0.0
O265 O 0.14344 0.85255 0.30247 0.0
O266 O 0.17731 0.83697 0.31546 0.0
O267 O 0.14228 0.78374 0.34303 0.0
C268 C 0.28156 0.88005 0.32471 0.0
O269 O 0.19426 0.80116 0.32618 0.0
C270 C 0.1988 0.84446 0.39196 0.0
C271 C 0.2027 0.92113 0.35619 0.0
O272 O 0.26683 0.85517 0.34156 0.0
O273 O 0.26267 0.89379 0.31847 0.0
O274 O 0.22453 0.8422 0.38453 0.0
O275 O 0.19044 0.85875 0.37344 0.0
O276 O 0.22574 0.91276 0.34855 0.0
O277 O 0.17067 0.89599 0.35819 0.0
C278 C 0.08608 0.81208 0.36622 0.0
O279 O 0.09248 0.82168 0.34106 0.0
O280 O 0.11326 0.8165 0.3795 0.0
C281 C 0.16938 0.84997 0.29582 0.0
Tb282 Tb 0.87949 0.70216 0.6765 0.0
C283 C 0.85679 0.62472 0.69582 0.0
Tb284 Tb 0.80363 0.65161 0.68172 0.0
O285 O 0.88983 0.70882 0.722 0.0
O286 O 0.84383 0.69957 0.70351 0.0
O287 O 0.88187 0.65468 0.68736 0.0
C288 C 0.74807 0.61471 0.70793 0.0
O289 O 0.82524 0.61835 0.69551 0.0
C290 C 0.82331 0.65177 0.63135 0.0
C291 C 0.82654 0.7274 0.65978 0.0
O292 O 0.74945 0.61151 0.68096 0.0
O293 O 0.77769 0.63848 0.71973 0.0
O294 O 0.793 0.64461 0.63595 0.0
O295 O 0.83924 0.65486 0.65439 0.0
O296 O 0.80266 0.70058 0.67226 0.0
O297 O 0.85651 0.73065 0.65692 0.0
C298 C 0.93842 0.74412 0.657 0.0
O299 O 0.92692 0.75372 0.67802 0.0
O300 O 0.91694 0.71074 0.64716 0.0
C301 C 0.86003 0.70313 0.72654 0.0
Tb302 Tb 0.3149 0.17948 0.67506 0.0
C303 C 0.3912 0.23513 0.68993 0.0
Tb304 Tb 0.3633 0.14925 0.68424 0.0
O305 O 0.32301 0.20043 0.71937 0.0
O306 O 0.32837 0.15578 0.70696 0.0
O307 O 0.36281 0.22991 0.67678 0.0
C308 C 0.40279 0.12766 0.70856 0.0
O309 O 0.39564 0.20792 0.69693 0.0
C310 C 0.34506 0.15037 0.63189 0.0
C311 C 0.28617 0.09362 0.66899 0.0
O312 O 0.4092 0.14522 0.68637 0.0
O313 O 0.37429 0.12208 0.71663 0.0
O314 O 0.35429 0.12784 0.64012 0.0
O315 O 0.3501 0.17316 0.65233 0.0
O316 O 0.31559 0.09825 0.67911 0.0
O317 O 0.28086 0.12098 0.66479 0.0
C318 C 0.2713 0.19708 0.65299 0.0
O319 O 0.27474 0.19235 0.67909 0.0
O320 O 0.29248 0.19205 0.63933 0.0
C321 C 0.33294 0.17842 0.72738 0.0
Tb322 Tb 0.809 0.16724 0.6811 0.0
C323 C 0.83034 0.10809 0.66649 0.0
Tb324 Tb 0.88364 0.19293 0.67058 0.0
O325 O 0.79724 0.17511 0.63783 0.0
O326 O 0.83609 0.16621 0.64742 0.0
O327 O 0.80876 0.11524 0.679 0.0
C328 C 0.93985 0.21848 0.64435 0.0
O329 O 0.85868 0.13426 0.65783 0.0
C330 C 0.86911 0.18318 0.72271 0.0
C331 C 0.86211 0.25215 0.68583 0.0
O332 O 0.93107 0.19495 0.66273 0.0
O333 O 0.91725 0.22805 0.64105 0.0
O334 O 0.89532 0.18337 0.7134 0.0
O335 O 0.85649 0.19341 0.70423 0.0
O336 O 0.88477 0.24542 0.67493 0.0
O337 O 0.833 0.22583 0.69314 0.0
C338 C 0.7513 0.14404 0.70493 0.0
O339 O 0.77212 0.13215 0.70899 0.0
O340 O 0.76262 0.16811 0.68704 0.0
C341 C 0.8235 0.17572 0.62841 0.0
H342 H 0.27497 0.89594 0.09572 0.0
H343 H 0.27093 0.79263 0.08238 0.0
H344 H 0.32421 0.82171 0.06105 0.0
H345 H 0.37142 0.87648 0.04477 0.0
H346 H 0.37488 0.97954 0.05789 0.0
H347 H 0.32272 0.95078 0.08066 0.0
C348 C 0.28601 0.87993 0.08848 0.0
C349 C 0.26892 0.84218 0.09056 0.0
C350 C 0.31651 0.89677 0.07594 0.0
C351 C 0.28339 0.82169 0.08076 0.0
C352 C 0.31389 0.8383 0.06858 0.0
C353 C 0.36066 0.89253 0.0526 0.0
C354 C 0.37683 0.92999 0.04946 0.0
C355 C 0.33051 0.87577 0.06572 0.0
C356 C 0.36278 0.95057 0.05987 0.0
C357 C 0.33298 0.93418 0.07298 0.0
H358 H 0.13128 0.38405 0.09965 0.0
H359 H 0.21848 0.48869 0.09082 0.0
H360 H 0.18365 0.50579 0.06354 0.0
H361 H 0.12858 0.4918 0.04233 0.0
H362 H 0.04004 0.39086 0.05518 0.0
H363 H 0.07506 0.37163 0.08084 0.0
C364 C 0.14262 0.41074 0.09206 0.0
C365 C 0.17769 0.4346 0.09684 0.0
C366 C 0.1222 0.42104 0.07693 0.0
C367 C 0.19179 0.46915 0.08676 0.0
C368 C 0.17186 0.47917 0.07127 0.0
C369 C 0.11706 0.46543 0.05051 0.0
C370 C 0.08202 0.44245 0.04655 0.0
C371 C 0.13713 0.45528 0.06605 0.0
C372 C 0.06713 0.40878 0.05782 0.0
C373 C 0.08711 0.39788 0.07255 0.0
H374 H 0.59577 0.74543 0.07605 0.0
H375 H 0.49317 0.71383 0.08908 0.0
H376 H 0.47333 0.654 0.06315 0.0
H377 H 0.48596 0.60941 0.03972 0.0
H378 H 0.58894 0.64262 0.02556 0.0
H379 H 0.60775 0.70318 0.04852 0.0
C380 C 0.56905 0.72547 0.0729 0.0
C381 C 0.5459 0.73362 0.08453 0.0
C382 C 0.55794 0.69147 0.0578 0.0
C383 C 0.51134 0.70792 0.08023 0.0
C384 C 0.50007 0.67377 0.06552 0.0
C385 C 0.51246 0.63002 0.04133 0.0
C386 C 0.53597 0.62118 0.03113 0.0
C387 C 0.52323 0.66502 0.0546 0.0
C388 C 0.5702 0.64844 0.03321 0.0
C389 C 0.58108 0.68314 0.04649 0.0
H390 H 0.81888 0.28487 0.94685 0.0
H391 H 0.894 0.25638 0.92776 0.0
H392 H 0.93765 0.31243 0.95502 0.0
H393 H 0.95477 0.37117 0.98168 0.0
H394 H 0.87969 0.40055 0.99886 0.0
H395 H 0.83549 0.34194 0.97553 0.0
C396 C 0.84471 0.29061 0.94906 0.0
C397 C 0.85322 0.26652 0.93535 0.0
C398 C 0.86961 0.32295 0.96447 0.0
C399 C 0.88691 0.27468 0.93794 0.0
C400 C 0.91181 0.30661 0.9536 0.0
C401 C 0.92867 0.36447 0.98081 0.0
C402 C 0.92051 0.39016 0.99201 0.0
C403 C 0.90351 0.33118 0.96664 0.0
C404 C 0.88662 0.38126 0.99035 0.0
C405 C 0.86136 0.34783 0.97693 0.0
H406 H 0.70963 0.5838 0.892 0.0
H407 H 0.77731 0.62421 0.96789 0.0
H408 H 0.73045 0.61111 0.99564 0.0
H409 H 0.66952 0.58427 0.99878 0.0
H410 H 0.60269 0.54963 0.92294 0.0
H411 H 0.64989 0.56474 0.89476 0.0
C412 C 0.71434 0.59056 0.91452 0.0
C413 C 0.74691 0.60411 0.9278 0.0
C414 C 0.68733 0.58366 0.93044 0.0
C415 C 0.75234 0.61265 0.9571 0.0
C416 C 0.72558 0.60534 0.97306 0.0
C417 C 0.66548 0.58034 0.97609 0.0
C418 C 0.63282 0.56533 0.96288 0.0
C419 C 0.69285 0.59002 0.96003 0.0
C420 C 0.62773 0.56087 0.9335 0.0
C421 C 0.65468 0.56952 0.91738 0.0
H422 H 0.47866 0.19164 0.94805 0.0
H423 H 0.37555 0.10631 0.92669 0.0
H424 H 0.38837 0.06184 0.94521 0.0
H425 H 0.42889 0.04737 0.96802 0.0
H426 H 0.53267 0.1324 0.98722 0.0
H427 H 0.51963 0.17673 0.96914 0.0
C428 C 0.45905 0.1633 0.94753 0.0
C429 C 0.42621 0.15225 0.93616 0.0
C430 C 0.46671 0.13783 0.95788 0.0
C431 C 0.40107 0.11538 0.93522 0.0
C432 C 0.40836 0.09 0.9459 0.0
C433 C 0.4486 0.07562 0.96831 0.0
C434 C 0.48165 0.08657 0.97912 0.0
C435 C 0.44106 0.10093 0.95739 0.0
C436 C 0.50703 0.12319 0.97897 0.0
C437 C 0.49959 0.14862 0.96868 0.0
H438 H 0.75493 0.15828 0.96045 0.0
H439 H 0.70718 0.15905 0.88104 0.0
H440 H 0.65185 0.12615 0.89883 0.0
H441 H 0.61719 0.09882 0.93759 0.0
H442 H 0.66551 0.09926 0.01705 0.0
H443 H 0.72058 0.13076 0.99879 0.0
C444 C 0.73244 0.15147 0.94708 0.0
C445 C 0.73522 0.16126 0.91952 0.0
C446 C 0.70086 0.1331 0.95754 0.0
C447 C 0.70575 0.15153 0.90226 0.0
C448 C 0.67413 0.13299 0.91248 0.0
C449 C 0.63984 0.10597 0.95087 0.0
C450 C 0.63747 0.09703 0.97864 0.0
C451 C 0.67141 0.12393 0.94018 0.0
C452 C 0.66684 0.10606 0.99563 0.0
C453 C 0.69828 0.12398 0.9852 0.0
H454 H 0.84622 0.60556 0.96522 0.0
H455 H 0.85124 0.56268 0.88268 0.0
H456 H 0.88965 0.54449 0.90212 0.0
H457 H 0.921 0.53949 0.9423 0.0
H458 H 0.91121 0.57486 0.02556 0.0
H459 H 0.87477 0.59662 1.00614 0.0
C460 C 0.85531 0.59181 0.95149 0.0
C461 C 0.8462 0.58621 0.92241 0.0
C462 C 0.87643 0.57998 0.96292 0.0
C463 C 0.85858 0.56855 0.905 0.0
C464 C 0.88032 0.55772 0.91611 0.0
C465 C 0.91098 0.55214 0.95616 0.0
C466 C 0.91883 0.55608 0.98516 0.0
C467 C 0.88942 0.56336 0.94496 0.0
C468 C 0.90538 0.57179 1.00308 0.0
C469 C 0.88464 0.58417 0.992 0.0
H470 H 0.48009 0.2892 0.955 0.0
H471 H 0.37561 0.25987 0.95052 0.0
H472 H 0.39108 0.31912 0.97488 0.0
H473 H 0.43449 0.38091 0.99346 0.0
H474 H 0.5395 0.41236 0.99483 0.0
H475 H 0.52373 0.3506 0.97604 0.0
C476 C 0.46078 0.29569 0.95984 0.0
C477 C 0.42681 0.2704 0.95106 0.0
C478 C 0.46999 0.33022 0.97313 0.0
C479 C 0.40193 0.27911 0.95704 0.0
C480 C 0.41077 0.31292 0.97093 0.0
C481 C 0.45397 0.37416 0.99015 0.0
C482 C 0.48815 0.40129 0.99553 0.0
C483 C 0.44476 0.33897 0.97851 0.0
C484 C 0.51301 0.39205 0.99078 0.0
C485 C 0.50401 0.35675 0.97997 0.0
H486 H 0.18343 0.71649 0.07549 0.0
H487 H 0.1101 0.75089 0.08248 0.0
H488 H 0.06598 0.69188 0.05939 0.0
H489 H 0.04792 0.62966 0.03898 0.0
H490 H 0.12134 0.59507 0.03336 0.0
H491 H 0.16585 0.65529 0.05361 0.0
C492 C 0.15789 0.71128 0.07159 0.0
C493 C 0.15007 0.73807 0.08066 0.0
C494 C 0.13268 0.67728 0.0585 0.0
C495 C 0.11671 0.73061 0.07593 0.0
C496 C 0.09152 0.69694 0.06262 0.0
C497 C 0.07373 0.63542 0.04181 0.0
C498 C 0.08125 0.60784 0.03463 0.0
C499 C 0.09916 0.66994 0.05404 0.0
C500 C 0.1148 0.61573 0.03876 0.0
C501 C 0.14029 0.65016 0.0504 0.0
H502 H 0.28962 0.39298 0.10744 0.0
H503 H 0.2968 0.49768 0.10425 0.0
H504 H 0.34673 0.51892 0.07878 0.0
H505 H 0.38568 0.50629 0.05422 0.0
H506 H 0.38124 0.40326 0.05895 0.0
H507 H 0.33284 0.38259 0.08684 0.0
C508 C 0.30263 0.42066 0.10169 0.0
C509 C 0.28935 0.44357 0.10732 0.0
C510 C 0.33133 0.43269 0.08683 0.0
C511 C 0.30636 0.47941 0.09975 0.0
C512 C 0.3348 0.49153 0.0851 0.0
C513 C 0.37395 0.47927 0.06128 0.0
C514 C 0.38624 0.45592 0.0541 0.0
C515 C 0.3469 0.46808 0.07783 0.0
C516 C 0.37167 0.4214 0.06398 0.0
C517 C 0.34417 0.40968 0.07999 0.0
H518 H 0.57276 0.85483 0.06138 0.0
H519 H 0.53613 0.86284 0.14074 0.0
H520 H 0.51953 0.90533 0.12353 0.0
H521 H 0.51425 0.9391 0.08502 0.0
H522 H 0.55449 0.9332 1.00695 0.0
H523 H 0.57061 0.89085 0.02435 0.0
C524 C 0.56119 0.86597 0.07489 0.0
C525 C 0.55539 0.85557 0.10216 0.0
C526 C 0.55213 0.89054 0.06496 0.0
C527 C 0.54087 0.87056 0.11966 0.0
C528 C 0.53123 0.89466 0.10977 0.0
C529 C 0.52641 0.92833 0.07187 0.0
C530 C 0.53286 0.9389 0.04463 0.0
C531 C 0.53645 0.9046 0.08232 0.0
C532 C 0.54923 0.92541 0.02796 0.0
C533 C 0.55844 0.90119 0.03788 0.0
H534 H 0.9265 0.1379 0.40382 0.0
H535 H 0.92275 0.23506 0.42836 0.0
H536 H 0.976 0.27224 0.40852 0.0
H537 H 0.02328 0.27707 0.38398 0.0
H538 H 0.02725 0.18023 0.35909 0.0
H539 H 0.97388 0.14275 0.37903 0.0
C540 C 0.93716 0.16717 0.40455 0.0
C541 C 0.92061 0.1837 0.41745 0.0
C542 C 0.9677 0.18833 0.39303 0.0
C543 C 0.93511 0.22173 0.41875 0.0
C544 C 0.96545 0.24297 0.4073 0.0
C545 C 0.0124 0.24773 0.38287 0.0
C546 C 0.02895 0.2313 0.37004 0.0
C547 C 0.98192 0.22655 0.39439 0.0
C548 C 0.0148 0.19337 0.36884 0.0
C549 C 0.98436 0.17201 0.38023 0.0
H550 H 0.87984 0.81104 0.41498 0.0
H551 H 0.80362 0.70411 0.43291 0.0
H552 H 0.76022 0.71113 0.40755 0.0
H553 H 0.74345 0.74899 0.38291 0.0
H554 H 0.81897 0.85599 0.36473 0.0
H555 H 0.86328 0.84751 0.38723 0.0
C556 C 0.85381 0.78908 0.41288 0.0
C557 C 0.84488 0.75724 0.42599 0.0
C558 C 0.8289 0.79339 0.39838 0.0
C559 C 0.81101 0.72909 0.42334 0.0
C560 C 0.78621 0.73304 0.4088 0.0
C561 C 0.76965 0.77031 0.38365 0.0
C562 C 0.77804 0.8031 0.37237 0.0
C563 C 0.79478 0.76531 0.39671 0.0
C564 C 0.81201 0.83051 0.37335 0.0
C565 C 0.83729 0.82569 0.38625 0.0
H566 H 0.27168 0.07926 0.42057 0.0
H567 H 0.16811 0.05323 0.41712 0.0
H568 H 0.15028 0.99523 0.38955 0.0
H569 H 0.16378 0.9508 0.36828 0.0
H570 H 0.26749 0.97696 0.3705 0.0
H571 H 0.28564 0.03617 0.39609 0.0
C572 C 0.24526 0.06079 0.41371 0.0
C573 C 0.22118 0.07024 0.42098 0.0
C574 C 0.23524 0.02766 0.39747 0.0
C575 C 0.18705 0.04644 0.41171 0.0
C576 C 0.17686 0.01331 0.39597 0.0
C577 C 0.19041 0.96957 0.37405 0.0
C578 C 0.21414 0.95919 0.36756 0.0
C579 C 0.20069 1.00351 0.38891 0.0
C580 C 0.24858 0.98412 0.37508 0.0
C581 C 0.25901 0.01796 0.38994 0.0
H582 H 0.5492 0.59839 0.25795 0.0
H583 H 0.46596 0.61661 0.26799 0.0
H584 H 0.50426 0.67712 0.29212 0.0
H585 H 0.56124 0.72492 0.3099 0.0
H586 H 0.64481 0.70669 0.30137 0.0
H587 H 0.60657 0.64606 0.27729 0.0
C588 C 0.53961 0.61575 0.26542 0.0
C589 C 0.50491 0.60321 0.26126 0.0
C590 C 0.56175 0.65037 0.2796 0.0
C591 C 0.49258 0.62567 0.2712 0.0
C592 C 0.51445 0.66025 0.2849 0.0
C593 C 0.57116 0.70772 0.30283 0.0
C594 C 0.60586 0.72041 0.30738 0.0
C595 C 0.54906 0.67288 0.28919 0.0
C596 C 0.61817 0.69757 0.29826 0.0
C597 C 0.59635 0.66293 0.28438 0.0
H598 H 0.39653 0.87414 0.2645 0.0
H599 H 0.41928 0.98169 0.24587 0.0
H600 H 0.37084 0.97454 0.26951 0.0
H601 H 0.32283 0.93816 0.29715 0.0
H602 H 0.30636 0.83464 0.3205 0.0
H603 H 0.35264 0.84064 0.29444 0.0
C604 C 0.39169 0.89661 0.26608 0.0
C605 C 0.4121 0.92861 0.25354 0.0
C606 C 0.36506 0.8932 0.28095 0.0
C607 C 0.404 0.9565 0.25493 0.0
C608 C 0.37646 0.95263 0.26877 0.0
C609 C 0.32969 0.91718 0.29664 0.0
C610 C 0.31137 0.88606 0.31071 0.0
C611 C 0.35698 0.9212 0.2821 0.0
C612 C 0.32033 0.85898 0.31001 0.0
C613 C 0.34663 0.86227 0.29498 0.0
H614 H 0.07185 0.45728 0.26459 0.0
H615 H 0.17515 0.54493 0.27598 0.0
H616 H 0.192 0.50574 0.29854 0.0
H617 H 0.17761 0.44583 0.31303 0.0
H618 H 0.07393 0.35856 0.30313 0.0
H619 H 0.05684 0.39839 0.28218 0.0
C620 C 0.09798 0.46768 0.27217 0.0
C621 C 0.12232 0.50368 0.26861 0.0
C622 C 0.10736 0.44515 0.28534 0.0
C623 C 0.15606 0.51725 0.27868 0.0
C624 C 0.16568 0.49486 0.29145 0.0
C625 C 0.15124 0.4356 0.30645 0.0
C626 C 0.1271 0.3993 0.30949 0.0
C627 C 0.14159 0.45867 0.29461 0.0
C628 C 0.09299 0.3865 0.30115 0.0
C629 C 0.08321 0.40917 0.28903 0.0
H630 H 0.36182 0.47538 0.22218 0.0
H631 H 0.42554 0.4889 0.29629 0.0
H632 H 0.37606 0.45381 0.32121 0.0
H633 H 0.31471 0.42124 0.32268 0.0
H634 H 0.25047 0.40762 0.24897 0.0
H635 H 0.29985 0.44049 0.22314 0.0
C636 C 0.36476 0.47013 0.24363 0.0
C637 C 0.39727 0.48486 0.25742 0.0
C638 C 0.3361 0.45018 0.25799 0.0
C639 C 0.40076 0.47816 0.28533 0.0
C640 C 0.3725 0.4581 0.2996 0.0
C641 C 0.31159 0.42552 0.30097 0.0
C642 C 0.27912 0.41225 0.28778 0.0
C643 C 0.34007 0.44444 0.2863 0.0
C644 C 0.27531 0.41771 0.25959 0.0
C645 C 0.30353 0.43648 0.2448 0.0
H646 H 0.50823 0.92197 0.29237 0.0
H647 H 0.50726 0.87526 0.20973 0.0
H648 H 0.53941 0.84873 0.22907 0.0
H649 H 0.56914 0.8404 0.2694 0.0
H650 H 0.57073 0.88811 0.35178 0.0
H651 H 0.53613 0.91192 0.33273 0.0
C652 C 0.51461 0.90552 0.27866 0.0
C653 C 0.5054 0.90056 0.2497 0.0
C654 C 0.53302 0.89042 0.28989 0.0
C655 C 0.51439 0.87976 0.23208 0.0
C656 C 0.53259 0.86444 0.24313 0.0
C657 C 0.56159 0.85572 0.28316 0.0
C658 C 0.57234 0.86257 0.31188 0.0
C659 C 0.54223 0.86982 0.27198 0.0
C660 C 0.56265 0.88254 0.32957 0.0
C661 C 0.54299 0.89623 0.31869 0.0
H662 H 0.09886 0.60635 0.29873 0.0
H663 H 0.15669 0.64662 0.22824 0.0
H664 H 0.17847 0.70946 0.24828 0.0
H665 H 0.18085 0.75268 0.28558 0.0
H666 H 0.11989 0.71345 0.35453 0.0
H667 H 0.09946 0.65027 0.33549 0.0
C668 C 0.11621 0.62903 0.28788 0.0
C669 C 0.12631 0.62219 0.26216 0.0
C670 C 0.12807 0.66503 0.29928 0.0
C671 C 0.14853 0.65149 0.248 0.0
C672 C 0.16104 0.6873 0.25949 0.0
C673 C 0.16334 0.73028 0.2966 0.0
C674 C 0.15223 0.73751 0.32162 0.0
C675 C 0.15104 0.69435 0.28511 0.0
C676 C 0.12889 0.70836 0.33531 0.0
C677 C 0.11722 0.67235 0.32442 0.0
H678 H 0.81265 0.04012 0.44684 0.0
H679 H 0.80014 0.09063 0.37584 0.0
H680 H 0.76014 0.03053 0.3513 0.0
H681 H 0.73002 0.96341 0.34974 0.0
H682 H 0.74632 0.91335 0.41958 0.0
H683 H 0.78344 0.97333 0.44501 0.0
C684 C 0.80087 0.0378 0.42609 0.0
C685 C 0.8089 0.06943 0.41314 0.0
C686 C 0.77875 1.0033 0.41194 0.0
C687 C 0.79411 0.06642 0.3861 0.0
C688 C 0.77132 0.03216 0.37213 0.0
C689 C 0.74161 0.96578 0.37058 0.0
C690 C 0.73559 0.93421 0.38282 0.0
C691 C 0.76362 1.00039 0.38478 0.0
C692 C 0.75092 0.93741 0.40969 0.0
C693 C 0.77203 0.97164 0.42426 0.0
H694 H 0.93718 0.74882 0.39791 0.0
H695 H 0.98876 0.78915 0.48116 0.0
H696 H 0.0424 0.80654 0.46209 0.0
H697 H 0.07529 0.81373 0.42125 0.0
H698 H 0.02386 0.78079 0.33799 0.0
H699 H 0.96962 0.75835 0.35755 0.0
C700 C 0.96006 0.76206 0.41205 0.0
C701 C 0.95849 0.76795 0.44108 0.0
C702 C 0.99103 0.77373 0.40082 0.0
C703 C 0.9887 0.78376 0.45884 0.0
C704 C 0.01958 0.79414 0.44788 0.0
C705 C 0.05214 0.80157 0.40745 0.0
C706 C 0.05344 0.79877 0.37821 0.0
C707 C 0.02111 0.78974 0.41886 0.0
C708 C 0.02342 0.7833 0.36052 0.0
C709 C 0.99245 0.77039 0.37171 0.0
H710 H 0.24196 0.18828 0.39497 0.0
H711 H 0.19284 0.18933 0.46878 0.0
H712 H 0.17252 0.22656 0.44744 0.0
H713 H 0.16711 0.25688 0.40686 0.0
H714 H 0.2184 0.2575 0.33397 0.0
H715 H 0.23926 0.22124 0.35574 0.0
C716 C 0.22684 0.19673 0.40638 0.0
C717 C 0.21864 0.18586 0.43329 0.0
C718 C 0.2154 0.2181 0.39401 0.0
C719 C 0.19954 0.19748 0.44807 0.0
C720 C 0.18775 0.21853 0.4358 0.0
C721 C 0.18269 0.24885 0.39572 0.0
C722 C 0.19082 0.25937 0.36867 0.0
C723 C 0.19517 0.2286 0.40862 0.0
C724 C 0.21169 0.24958 0.35473 0.0
C725 C 0.22362 0.22887 0.36717 0.0
H726 H 0.63872 0.53342 0.79137 0.0
H727 H 0.57303 0.49661 0.71453 0.0
H728 H 0.62107 0.53224 0.68828 0.0
H729 H 0.68233 0.57252 0.68681 0.0
H730 H 0.74738 0.61125 0.76398 0.0
H731 H 0.69912 0.57664 0.79036 0.0
C732 C 0.63475 0.53369 0.76897 0.0
C733 C 0.60222 0.51203 0.755 0.0
C734 C 0.6625 0.55447 0.75396 0.0
C735 C 0.59781 0.51246 0.72584 0.0
C736 C 0.62528 0.53295 0.71077 0.0
C737 C 0.68581 0.57336 0.70939 0.0
C738 C 0.7183 0.59415 0.7234 0.0
C739 C 0.65783 0.55368 0.72453 0.0
C740 C 0.72255 0.59535 0.7527 0.0
C741 C 0.69498 0.57557 0.76783 0.0
H742 H 0.48696 0.08973 0.79263 0.0
H743 H 0.52389 0.07149 0.71587 0.0
H744 H 0.49032 0.09131 0.68952 0.0
H745 H 0.4487 0.11203 0.68793 0.0
H746 H 0.40642 0.12155 0.76389 0.0
H747 H 0.44315 0.10602 0.79074 0.0
C748 C 0.48731 0.08926 0.77008 0.0
C749 C 0.5082 0.07907 0.75648 0.0
C750 C 0.46678 0.09908 0.75481 0.0
C751 C 0.50874 0.07986 0.72721 0.0
C752 C 0.48924 0.09088 0.71198 0.0
C753 C 0.44772 0.11074 0.71036 0.0
C754 C 0.42523 0.11814 0.72404 0.0
C755 C 0.46805 0.10042 0.72554 0.0
C756 C 0.42367 0.11597 0.753 0.0
C757 C 0.44464 0.10712 0.76835 0.0
H758 H 0.8736 0.39984 0.73341 0.0
H759 H 0.97849 0.43137 0.74559 0.0
H760 H 0.96611 0.3731 0.72134 0.0
H761 H 0.92469 0.31119 0.70001 0.0
H762 H 0.81925 0.27828 0.69088 0.0
H763 H 0.83254 0.33898 0.71014 0.0
C764 C 0.89376 0.39411 0.73031 0.0
C765 C 0.92688 0.41978 0.74127 0.0
C766 C 0.8863 0.36018 0.71696 0.0
C767 C 0.95276 0.41187 0.73748 0.0
C768 C 0.94569 0.37859 0.7236 0.0
C769 C 0.90473 0.31755 0.70176 0.0
C770 C 0.87105 0.29029 0.69399 0.0
C771 C 0.91246 0.35223 0.71371 0.0
C772 C 0.84538 0.29878 0.69679 0.0
C773 C 0.85295 0.33347 0.70786 0.0
H774 H 0.15611 0.94957 0.6174 0.0
H775 H 0.23064 0.92044 0.59794 0.0
H776 H 0.2749 0.97706 0.6242 0.0
H777 H 0.29265 0.03663 0.64959 0.0
H778 H 0.21854 0.06775 0.66573 0.0
H779 H 0.17362 0.00827 0.6442 0.0
C780 C 0.18199 0.95542 0.61936 0.0
C781 C 0.19025 0.931 0.60596 0.0
C782 C 0.20725 0.98833 0.63381 0.0
C783 C 0.22387 0.93903 0.6081 0.0
C784 C 0.24907 0.9713 0.62309 0.0
C785 C 0.26659 0.03008 0.6489 0.0
C786 C 0.25881 0.05634 0.65937 0.0
C787 C 0.24111 0.9964 0.63564 0.0
C788 C 0.22507 0.04788 0.65781 0.0
C789 C 0.19943 0.01396 0.64545 0.0
H790 H 0.06841 0.29031 0.57651 0.0
H791 H 0.05626 0.18322 0.57959 0.0
H792 H 0.00706 0.16464 0.60535 0.0
H793 H 0.9687 0.17919 0.62907 0.0
H794 H 0.97611 0.28334 0.62245 0.0
H795 H 0.02564 0.30263 0.59602 0.0
C796 C 0.05467 0.26274 0.58239 0.0
C797 C 0.06678 0.23862 0.57673 0.0
C798 C 0.02568 0.25179 0.59688 0.0
C799 C 0.04834 0.20286 0.58442 0.0
C800 C 0.02002 0.19206 0.5991 0.0
C801 C 0.98126 0.20614 0.62186 0.0
C802 C 0.96933 0.2301 0.62807 0.0
C803 C 0.00888 0.21648 0.60597 0.0
C804 C 0.98517 0.26459 0.61808 0.0
C805 C 0.01341 0.27556 0.60294 0.0
H806 H 0.8256 0.8597 0.60834 0.0
H807 H 0.7191 0.78227 0.59473 0.0
H808 H 0.72775 0.73708 0.61727 0.0
H809 H 0.76602 0.71956 0.64067 0.0
H810 H 0.87282 0.79688 0.65196 0.0
H811 H 0.86362 0.84214 0.63081 0.0
C812 C 0.80426 0.833 0.6105 0.0
C813 C 0.77175 0.82439 0.60007 0.0
C814 C 0.80949 0.80716 0.62316 0.0
C815 C 0.7444 0.78947 0.60251 0.0
C816 C 0.74932 0.76371 0.6155 0.0
C817 C 0.78717 0.74644 0.63873 0.0
C818 C 0.82002 0.75491 0.64809 0.0
C819 C 0.78179 0.77225 0.62593 0.0
C820 C 0.84728 0.78964 0.64495 0.0
C821 C 0.84207 0.81558 0.63285 0.0
H822 H 0.07427 0.86579 0.61826 0.0
H823 H 0.0649 0.77296 0.56776 0.0
H824 H 0.01138 0.73331 0.58614 0.0
H825 H 0.96796 0.72471 0.61757 0.0
H826 H 0.97969 0.81683 0.67045 0.0
H827 H 0.03216 0.85699 0.65062 0.0
C828 C 0.06087 0.83681 0.61154 0.0
C829 C 0.07375 0.82246 0.59169 0.0
C830 C 0.03065 0.81401 0.62277 0.0
C831 C 0.05542 0.78492 0.58271 0.0
C832 C 0.02493 0.76213 0.59339 0.0
C833 C 0.98212 0.75358 0.62473 0.0
C834 C 0.97022 0.76793 0.64539 0.0
C835 C 0.01242 0.77636 0.61353 0.0
C836 C 0.98859 0.80527 0.65461 0.0
C837 C 0.01848 0.82821 0.64325 0.0
H838 H 0.1671 0.24633 0.6201 0.0
H839 H 0.18669 0.22159 0.537 0.0
H840 H 0.22597 0.2043 0.55691 0.0
H841 H 0.25525 0.19684 0.59802 0.0
H842 H 0.2334 0.21867 0.68091 0.0
H843 H 0.19402 0.23592 0.66097 0.0
C844 C 0.17953 0.23661 0.60631 0.0
C845 C 0.17408 0.23549 0.57712 0.0
C846 C 0.20169 0.22623 0.61786 0.0
C847 C 0.19086 0.22335 0.55958 0.0
C848 C 0.21319 0.21326 0.57092 0.0
C849 C 0.2418 0.20536 0.61165 0.0
C850 C 0.24721 0.20674 0.64083 0.0
C851 C 0.21896 0.21483 0.60003 0.0
C852 C 0.22956 0.21749 0.65836 0.0
C853 C 0.2071 0.22736 0.64698 0.0
H854 H 0.76393 0.93786 0.63547 0.0
H855 H 0.82759 0.97578 0.56811 0.0
H856 H 0.85132 0.039 0.58821 0.0
H857 H 0.85161 0.08337 0.62328 0.0
H858 H 0.78483 0.04645 0.68883 0.0
H859 H 0.76472 0.98294 0.67128 0.0
C860 C 0.78331 0.96008 0.62551 0.0
C861 C 0.79428 0.95244 0.60053 0.0
C862 C 0.7961 0.9964 0.63679 0.0
C863 C 0.81895 0.98123 0.58742 0.0
C864 C 0.83244 0.01728 0.59887 0.0
C865 C 0.83301 0.06149 0.63403 0.0
C866 C 0.81991 0.06966 0.65748 0.0
C867 C 0.82091 0.0252 0.62334 0.0
C868 C 0.79534 0.04089 0.67077 0.0
C869 C 0.78382 0.00459 0.66072 0.0
H870 H 0.48824 0.40399 0.72191 0.0
H871 H 0.51033 0.36449 0.79588 0.0
H872 H 0.47315 0.3015 0.7756 0.0
H873 H 0.43295 0.25778 0.73755 0.0
H874 H 0.40737 0.29695 0.66499 0.0
H875 H 0.44761 0.35997 0.68374 0.0
C876 C 0.48497 0.38149 0.73343 0.0
C877 C 0.50186 0.3887 0.76031 0.0
C878 C 0.4631 0.3454 0.72184 0.0
C879 C 0.49728 0.35948 0.77525 0.0
C880 C 0.47619 0.32353 0.76362 0.0
C881 C 0.43662 0.28012 0.72565 0.0
C882 C 0.41761 0.27284 0.69979 0.0
C883 C 0.45885 0.31618 0.737 0.0
C884 C 0.42191 0.30199 0.68489 0.0
C885 C 0.44481 0.33796 0.69563 0.0
H886 H 0.62604 0.13049 0.76175 0.0
H887 H 0.6149 0.02729 0.78015 0.0
H888 H 0.66794 0.04318 0.76014 0.0
H889 H 0.71523 0.08462 0.73352 0.0
H890 H 0.721 0.18396 0.71087 0.0
H891 H 0.67181 0.17084 0.73559 0.0
C892 C 0.63486 0.11113 0.76116 0.0
C893 C 0.61596 0.07738 0.77202 0.0
C894 C 0.6643 0.1196 0.74841 0.0
C895 C 0.6288 0.05349 0.77205 0.0
C896 C 0.659 0.06241 0.76031 0.0
C897 C 0.70561 0.10329 0.73409 0.0
C898 C 0.7215 0.13507 0.72022 0.0
C899 C 0.67657 0.09505 0.74781 0.0
C900 C 0.70895 0.15913 0.7211 0.0
C901 C 0.68093 0.15174 0.73535 0.0
H902 H 0.86888 0.49407 0.74042 0.0
H903 H 0.97063 0.58152 0.76413 0.0
H904 H 0.9573 0.62475 0.74413 0.0
H905 H 0.91699 0.6378 0.71969 0.0
H906 H 0.8142 0.55158 0.69816 0.0
H907 H 0.82758 0.50782 0.71741 0.0
C908 C 0.88806 0.5226 0.74115 0.0
C909 C 0.92073 0.53459 0.7537 0.0
C910 C 0.88006 0.54749 0.72991 0.0
C911 C 0.94526 0.57169 0.75479 0.0
C912 C 0.9377 0.59638 0.74324 0.0
C913 C 0.89755 0.60937 0.71899 0.0
C914 C 0.86475 0.59789 0.70711 0.0
C915 C 0.90524 0.58459 0.73067 0.0
C916 C 0.83969 0.56111 0.70703 0.0
C917 C 0.84734 0.53608 0.71805 0.0
H918 H 0.44634 0.965 0.16036 0.0
H919 H 0.54738 0.9962 0.19333 0.0
H920 H 0.56964 0.02637 0.15188 0.0
H921 H 0.56044 0.04102 0.10515 0.0
H922 H 0.46173 0.0184 0.0746 0.0
H923 H 0.43844 0.98811 0.11637 0.0
C924 C 0.47329 0.97895 0.15883 0.0
C925 C 0.49488 0.97714 0.17973 0.0
C926 C 0.48631 0.99751 0.13522 0.0
C927 C 0.52982 0.99565 0.17716 0.0
C928 C 0.54275 0.01335 0.15355 0.0
C929 C 0.53388 0.02982 0.10775 0.0
C930 C 0.51229 0.03004 0.08617 0.0
C931 C 0.52118 0.01387 0.13225 0.0
C932 C 0.47822 0.01633 0.09015 0.0
C933 C 0.46512 0.9996 0.11425 0.0
H934 H 0.02595 0.51918 0.19191 0.0
H935 H 0.11787 0.52869 0.16556 0.0
H936 H 0.094 0.51374 0.1165 0.0
H937 H 0.04843 0.50261 0.08116 0.0
H938 H 0.95554 0.49073 0.10768 0.0
H939 H 0.97803 0.50145 0.15671 0.0
C940 C 0.04046 0.5176 0.17533 0.0
C941 C 0.07354 0.52523 0.18195 0.0
C942 C 0.02644 0.50863 0.14736 0.0
C943 C 0.09232 0.52292 0.16063 0.0
C944 C 0.07872 0.51446 0.1327 0.0
C945 C 0.03294 0.50175 0.0977 0.0
C946 C 1.00054 0.49622 0.0909 0.0
C947 C 0.04601 0.50787 0.1258 0.0
C948 C 0.98062 0.49504 0.11246 0.0
C949 C 0.99351 0.50135 0.14048 0.0
H950 H 0.51402 0.5157 0.18707 0.0
H951 H 0.42344 0.5144 0.15719 0.0
H952 H 0.43626 0.51021 0.1087 0.0
H953 H 0.47596 0.5127 0.07545 0.0
H954 H 0.5641 0.50859 0.10439 0.0
H955 H 0.55 0.50981 0.15285 0.0
C956 C 0.49692 0.5139 0.16983 0.0
C957 C 0.46794 0.51549 0.17551 0.0
C958 C 0.50429 0.51108 0.14205 0.0
C959 C 0.44578 0.51302 0.15319 0.0
C960 C 0.45323 0.5109 0.12554 0.0
C961 C 0.49155 0.51098 0.09223 0.0
C962 C 0.52089 0.51031 0.08634 0.0
C963 C 0.48275 0.51066 0.11979 0.0
C964 C 0.54134 0.50903 0.10842 0.0
C965 C 0.53329 0.50977 0.13609 0.0
H966 H 0.92913 0.48837 0.8505 0.0
H967 H 0.02276 0.51258 0.81789 0.0
H968 H 0.04858 0.51902 0.86547 0.0
H969 H 0.04339 0.51474 0.9164 0.0
H970 H 0.9472 0.48346 0.9474 0.0
H971 H 0.92373 0.48336 0.90089 0.0
C972 C 0.95532 0.49556 0.85399 0.0
C973 C 0.97425 0.50049 0.83098 0.0
C974 C 0.96952 0.49796 0.88121 0.0
C975 C 0.00792 0.50901 0.83547 0.0
C976 C 0.02258 0.51254 0.86261 0.0
C977 C 0.0174 0.5082 0.91294 0.0
C978 C 0.99743 0.50021 0.9356 0.0
C979 C 1.0035 0.50662 0.88567 0.0
C980 C 0.96357 0.49104 0.93065 0.0
C981 C 0.94992 0.49052 0.90391 0.0
H982 H 0.50398 0.49955 0.83139 0.0
H983 H 0.57428 0.46634 0.85879 0.0
H984 H 0.56406 0.47392 0.90762 0.0
H985 H 0.53256 0.48616 0.94191 0.0
H986 H 0.46365 0.52185 0.91569 0.0
H987 H 0.47536 0.51666 0.86684 0.0
C988 C 0.5174 0.49468 0.84822 0.0
C989 C 0.54003 0.48272 0.8418 0.0
C990 C 0.51131 0.49909 0.87625 0.0
C991 C 0.55705 0.47592 0.86348 0.0
C992 C 0.55102 0.48 0.89129 0.0
C993 C 0.52064 0.49364 0.92565 0.0
C994 C 0.49759 0.50485 0.93247 0.0
C995 C 0.5279 0.4911 0.89786 0.0
C996 C 0.48161 0.51333 0.91097 0.0
C997 C 0.48834 0.51039 0.88308 0.0
H998 H 0.57161 0.03983 0.8618 0.0
H999 H 0.47095 0.98824 0.8196 0.0
H1000 H 0.4472 0.9664 0.86302 0.0
H1001 H 0.45453 0.96634 0.91405 0.0
H1002 H 0.55394 0.00579 0.9544 0.0
H1003 H 0.57865 0.02749 0.91062 0.0
C1004 C 0.54452 0.0231 0.86173 0.0
C1005 C 0.5233 0.01755 0.8374 0.0
C1006 C 0.53071 0.00883 0.88667 0.0
C1007 C 0.48817 0.99509 0.83814 0.0
C1008 C 0.47438 0.98206 0.86299 0.0
C1009 C 0.48157 0.97934 0.91318 0.0
C1010 C 0.50266 0.98675 0.93779 0.0
C1011 C 0.49536 0.98972 0.88758 0.0
C1012 C 0.53746 1.0021 0.93609 0.0
C1013 C 0.55152 0.01399 0.91096 0.0
H1014 H 0.10327 0.28516 0.48623 0.0
H1015 H 0.20597 0.33403 0.5232 0.0
H1016 H 0.22676 0.36076 0.48018 0.0
H1017 H 0.21605 0.36554 0.43033 0.0
H1018 H 0.11453 0.32729 0.3963 0.0
H1019 H 0.09288 0.3013 0.43972 0.0
C1020 C 0.13016 0.30236 0.48526 0.0
C1021 C 0.15288 0.30597 0.5077 0.0
C1022 C 0.14219 0.31902 0.46067 0.0
C1023 C 0.18771 0.32902 0.50587 0.0
C1024 C 0.19977 0.34469 0.48129 0.0
C1025 C 0.18923 0.35187 0.43256 0.0
C1026 C 0.16653 0.34613 0.40952 0.0
C1027 C 0.17728 0.3389 0.45822 0.0
C1028 C 0.13206 0.32961 0.41306 0.0
C1029 C 0.11982 0.31539 0.43812 0.0
H1030 H 0.74087 0.82665 0.50068 0.0
H1031 H 0.70037 0.89263 0.53254 0.0
H1032 H 0.6693 0.88264 0.48731 0.0
H1033 H 0.65501 0.85733 0.4385 0.0
H1034 H 0.69211 0.78876 0.40599 0.0
H1035 H 0.723 0.79735 0.45164 0.0
C1036 C 0.72491 0.83844 0.4978 0.0
C1037 C 0.72347 0.86089 0.51997 0.0
C1038 C 0.70669 0.83232 0.47158 0.0
C1039 C 0.70268 0.876 0.51576 0.0
C1040 C 0.68469 0.87013 0.48991 0.0
C1041 C 0.66968 0.84402 0.44137 0.0
C1042 C 0.67194 0.82308 0.41868 0.0
C1043 C 0.68681 0.84874 0.46764 0.0
C1044 C 0.69079 0.80581 0.42289 0.0
C1045 C 0.70821 0.81054 0.44907 0.0
H1046 H 0.17907 0.83675 0.52067 0.0
H1047 H 0.11611 0.88129 0.49832 0.0
H1048 H 0.1276 0.87867 0.4492 0.0
H1049 H 0.15866 0.8675 0.41365 0.0
H1050 H 0.21846 0.81875 0.43507 0.0
H1051 H 0.20571 0.81978 0.48385 0.0
C1052 C 0.16773 0.84549 0.50486 0.0
C1053 C 0.14703 0.85935 0.5127 0.0
C1054 C 0.17412 0.84345 0.47677 0.0
C1055 C 0.13215 0.87055 0.4924 0.0
C1056 C 0.13879 0.86916 0.46448 0.0
C1057 C 0.16807 0.85608 0.42878 0.0
C1058 C 0.18906 0.8426 0.42078 0.0
C1059 C 0.16007 0.85608 0.45652 0.0
C1060 C 0.20212 0.82915 0.44082 0.0
C1061 C 0.19485 0.82973 0.46865 0.0
H1062 H 0.6017 0.84923 0.19461 0.0
H1063 H 0.63792 0.78487 0.15173 0.0
H1064 H 0.67015 0.78846 0.19448 0.0
H1065 H 0.68581 0.80661 0.24482 0.0
H1066 H 0.65779 0.87881 0.28647 0.0
H1067 H 0.62531 0.87608 0.24337 0.0
C1068 C 0.61706 0.83652 0.19432 0.0
C1069 C 0.61597 0.81552 0.16988 0.0
C1070 C 0.63696 0.83989 0.21893 0.0
C1071 C 0.63658 0.79967 0.17031 0.0
C1072 C 0.65553 0.80205 0.19478 0.0
C1073 C 0.67283 0.82201 0.24441 0.0
C1074 C 0.67281 0.84147 0.26911 0.0
C1075 C 0.65536 0.8214 0.21934 0.0
C1076 C 0.65682 0.86223 0.26801 0.0
C1077 C 0.63849 0.86091 0.24331 0.0
H1078 H 0.23063 0.83055 0.18601 0.0
H1079 H 0.14642 0.83469 0.147 0.0
H1080 H 0.13212 0.84818 0.19307 0.0
H1081 H 0.14135 0.85429 0.2451 0.0
H1082 H 0.22205 0.84252 0.28274 0.0
H1083 H 0.24027 0.83738 0.23709 0.0
C1084 C 0.20956 0.83513 0.18762 0.0
C1085 C 0.18981 0.832 0.16322 0.0
C1086 C 0.20084 0.84155 0.21413 0.0
C1087 C 0.16206 0.83712 0.16558 0.0
C1088 C 0.15384 0.84473 0.1919 0.0
C1089 C 0.16321 0.85119 0.24323 0.0
C1090 C 0.18087 0.84986 0.26751 0.0
C1091 C 0.17269 0.84637 0.21645 0.0
C1092 C 0.20865 0.84491 0.26464 0.0
C1093 C 0.2189 0.84147 0.2384 0.0
H1094 H 0.17012 0.39584 0.1876 0.0
H1095 H 0.23621 0.35303 0.17214 0.0
H1096 H 0.22 0.32059 0.21376 0.0
H1097 H 0.18499 0.3021 0.25404 0.0
H1098 H 0.11293 0.33779 0.26369 0.0
H1099 H 0.13267 0.37407 0.2244 0.0
C1100 C 0.18053 0.37877 0.1926 0.0
C1101 C 0.20434 0.37709 0.17616 0.0
C1102 C 0.16978 0.35851 0.21568 0.0
C1103 C 0.21827 0.3557 0.18432 0.0
C1104 C 0.2087 0.33663 0.20806 0.0
C1105 C 0.17365 0.31774 0.24734 0.0
C1106 C 0.14799 0.31782 0.26202 0.0
C1107 C 0.18422 0.33755 0.22381 0.0
C1108 C 0.13306 0.33771 0.25298 0.0
C1109 C 0.1443 0.35847 0.23047 0.0
H1110 H 0.8003 0.67145 0.84349 0.0
H1111 H 0.81711 0.58082 0.82882 0.0
H1112 H 0.83606 0.59961 0.78333 0.0
H1113 H 0.85408 0.64545 0.75037 0.0
H1114 H 0.83115 0.73171 0.76024 0.0
H1115 H 0.80871 0.71143 0.80528 0.0
C1116 C 0.80735 0.65541 0.83003 0.0
C1117 C 0.80854 0.62562 0.83998 0.0
C1118 C 0.81776 0.66601 0.80342 0.0
C1119 C 0.81717 0.60467 0.82207 0.0
C1120 C 0.828 0.61532 0.79603 0.0
C1121 C 0.84361 0.65937 0.76211 0.0
C1122 C 0.8445 0.6901 0.75244 0.0
C1123 C 0.82957 0.64665 0.787 0.0
C1124 C 0.83086 0.70805 0.76768 0.0
C1125 C 0.818 0.69641 0.79329 0.0
H1126 H 0.41284 0.18618 0.84081 0.0
H1127 H 0.3328 0.19643 0.87496 0.0
H1128 H 0.3072 0.19091 0.82758 0.0
H1129 H 0.3085 0.18461 0.77618 0.0
H1130 H 0.39149 0.18005 0.74281 0.0
H1131 H 0.41498 0.18167 0.78978 0.0
C1132 C 0.38955 0.1867 0.83779 0.0
C1133 C 0.37447 0.1913 0.8612 0.0
C1134 C 0.37549 0.18439 0.81057 0.0
C1135 C 0.34472 0.19277 0.85714 0.0
C1136 C 0.33015 0.18969 0.83011 0.0
C1137 C 0.33157 0.18366 0.77932 0.0
C1138 C 0.34732 0.18015 0.75598 0.0
C1139 C 0.34545 0.18576 0.80663 0.0
C1140 C 0.37766 0.18005 0.76023 0.0
C1141 C 0.39146 0.18174 0.7872 0.0
H1142 H 0.85752 0.18773 0.85322 0.0
H1143 H 0.76886 0.19192 0.8258 0.0
H1144 H 0.77991 0.18712 0.77696 0.0
H1145 H 0.81685 0.18619 0.74256 0.0
H1146 H 0.9036 0.17796 0.76872 0.0
H1147 H 0.8917 0.18056 0.81778 0.0
C1148 C 0.8406 0.18735 0.83646 0.0
C1149 C 0.81253 0.19035 0.84299 0.0
C1150 C 0.84696 0.18425 0.80839 0.0
C1151 C 0.79051 0.18947 0.82121 0.0
C1152 C 0.79692 0.18694 0.79334 0.0
C1153 C 0.83269 0.18405 0.75889 0.0
C1154 C 0.86089 0.18163 0.75207 0.0
C1155 C 0.82529 0.18484 0.78675 0.0
C1156 C 0.88167 0.17973 0.77351 0.0
C1157 C 0.87489 0.18127 0.80151 0.0
H1158 H 0.25174 0.09509 0.51839 0.0
H1159 H 0.29827 0.21096 0.51252 0.0
H1160 H 0.32763 0.22311 0.55903 0.0
H1161 H 0.34316 0.20091 0.60062 0.0
H1162 H 0.30126 0.08529 0.60332 0.0
H1163 H 0.26796 0.07312 0.55865 0.0
C1164 C 0.26872 0.1231 0.52685 0.0
C1165 C 0.27267 0.15192 0.51143 0.0
C1166 C 0.28674 0.13003 0.55318 0.0
C1167 C 0.29406 0.18798 0.5237 0.0
C1168 C 0.31126 0.19506 0.55033 0.0
C1169 C 0.32658 0.17312 0.59138 0.0
C1170 C 0.32459 0.14403 0.60519 0.0
C1171 C 0.30815 0.16632 0.56515 0.0
C1172 C 0.30331 0.10813 0.59299 0.0
C1173 C 0.28421 0.10115 0.56746 0.0
H1174 H 0.82991 0.1073 0.51106 0.0
H1175 H 0.8664 0.21733 0.49066 0.0
H1176 H 0.859 0.23509 0.53808 0.0
H1177 H 0.84288 0.21925 0.58596 0.0
H1178 H 0.80713 0.10913 0.60553 0.0
H1179 H 0.81288 0.09125 0.55776 0.0
C1180 C 0.8358 0.13506 0.51683 0.0
C1181 C 0.84851 0.16089 0.49731 0.0
C1182 C 0.83147 0.145 0.544 0.0
C1183 C 0.85679 0.19697 0.50537 0.0
C1184 C 0.8524 0.2071 0.53243 0.0
C1185 C 0.836 0.19133 0.57947 0.0
C1186 C 0.82445 0.16541 0.5989 0.0
C1187 C 0.83982 0.18135 0.55197 0.0
C1188 C 0.81603 0.1294 0.5907 0.0
C1189 C 0.81935 0.1192 0.56346 0.0
H1190 H 0.89876 0.69618 0.5213 0.0
H1191 H 0.85525 0.76571 0.52303 0.0
H1192 H 0.83035 0.74269 0.56591 0.0
H1193 H 0.81714 0.69967 0.60115 0.0
H1194 H 0.86663 0.63663 0.60481 0.0
H1195 H 0.89276 0.65989 0.56164 0.0
C1196 C 0.8844 0.70679 0.53133 0.0
C1197 C 0.87786 0.73164 0.51817 0.0
C1198 C 0.87066 0.69408 0.55672 0.0
C1199 C 0.85959 0.74546 0.53191 0.0
C1200 C 0.84535 0.73242 0.55656 0.0
C1201 C 0.83376 0.69116 0.59254 0.0
C1202 C 0.83948 0.66599 0.60566 0.0
C1203 C 0.84988 0.70598 0.56869 0.0
C1204 C 0.86156 0.65567 0.5947 0.0
C1205 C 0.87657 0.66908 0.57012 0.0
loop_
_geom_bond_atom_site_label_1
_geom_bond_atom_site_label_2
_geom_bond_distance
_geom_bond_site_symmetry_2
_ccdc_geom_bond_type
H0 C3 0.931 . S
H1 C6 0.928 . S
H2 C8 0.930 . S
C3 H0 0.931 . S
C3 C4 1.413 . S
C3 C5 1.360 . S
C4 C3 1.413 . S
C4 C8 1.429 . S
C5 C3 1.360 . S
C5 C6 1.372 . S
C6 H1 0.928 . S
C6 C5 1.372 . S
C6 C7 1.404 . S
C7 C6 1.404 . S
C7 C8 1.391 . S
C8 H2 0.930 . S
C8 C4 1.429 . S
C8 C7 1.391 . S
H9 C12 0.931 . S
H10 C15 0.928 . S
H11 C17 0.930 . S
C12 H9 0.931 . S
C12 C13 1.413 . S
C12 C14 1.360 . S
C13 C12 1.413 . S
C13 C17 1.429 . S
C14 C12 1.360 . S
C14 C15 1.372 . S
C15 H10 0.928 . S
C15 C14 1.372 . S
C15 C16 1.404 . S
C16 C15 1.404 . S
C16 C17 1.391 . S
C17 H11 0.930 . S
C17 C13 1.429 . S
C17 C16 1.391 . S
H18 C21 0.931 . S
H19 C24 0.928 . S
H20 C26 0.930 . S
C21 H18 0.931 . S
C21 C22 1.413 . S
C21 C23 1.360 . S
C22 C21 1.413 . S
C22 C26 1.429 . S
C23 C21 1.360 . S
C23 C24 1.372 . S
C24 H19 0.928 . S
C24 C23 1.372 . S
C24 C25 1.404 . S
C25 C24 1.404 . S
C25 C26 1.391 . S
C26 H20 0.930 . S
C26 C22 1.429 . S
C26 C25 1.391 . S
H27 C30 0.931 . S
H28 C33 0.928 . S
H29 C35 0.930 . S
C30 H27 0.931 . S
C30 C31 1.413 . S
C30 C32 1.360 . S
C31 C30 1.413 . S
C31 C35 1.429 . S
C32 C30 1.360 . S
C32 C33 1.372 . S
C33 H28 0.928 . S
C33 C32 1.372 . S
C33 C34 1.404 . S
C34 C33 1.404 . S
C34 C35 1.391 . S
C35 H29 0.930 . S
C35 C31 1.429 . S
C35 C34 1.391 . S
H36 C39 0.931 . S
H37 C42 0.928 . S
H38 C44 0.930 . S
C39 H36 0.931 . S
C39 C40 1.413 . S
C39 C41 1.360 . S
C40 C39 1.413 . S
C40 C44 1.429 . S
C41 C39 1.360 . S
C41 C42 1.372 . S
C42 H37 0.928 . S
C42 C41 1.372 . S
C42 C43 1.404 . S
C43 C42 1.404 . S
C43 C44 1.391 . S
C44 H38 0.930 . S
C44 C40 1.429 . S
C44 C43 1.391 . S
H45 C48 0.931 . S
H46 C51 0.928 . S
H47 C53 0.930 . S
C48 H45 0.931 . S
C48 C49 1.413 . S
C48 C50 1.360 . S
C49 C48 1.413 . S
C49 C53 1.429 . S
C50 C48 1.360 . S
C50 C51 1.372 . S
C51 H46 0.928 . S
C51 C50 1.372 . S
C51 C52 1.404 . S
C52 C51 1.404 . S
C52 C53 1.391 . S
C53 H47 0.930 . S
C53 C49 1.429 . S
C53 C52 1.391 . S
H54 C57 0.931 . S
H55 C60 0.928 . S
H56 C62 0.930 . S
C57 H54 0.931 . S
C57 C58 1.413 . S
C57 C59 1.360 . S
C58 C57 1.413 . S
C58 C62 1.429 . S
C59 C57 1.360 . S
C59 C60 1.372 . S
C60 H55 0.928 . S
C60 C59 1.372 . S
C60 C61 1.404 . S
C61 C60 1.404 . S
C61 C62 1.391 . S
C62 H56 0.930 . S
C62 C58 1.429 . S
C62 C61 1.391 . S
H63 C66 0.931 . S
H64 C69 0.928 . S
H65 C71 0.930 . S
C66 H63 0.931 . S
C66 C67 1.413 . S
C66 C68 1.360 . S
C67 C66 1.413 . S
C67 C71 1.429 . S
C68 C66 1.360 . S
C68 C69 1.372 . S
C69 H64 0.928 . S
C69 C68 1.372 . S
C69 C70 1.404 . S
C70 C69 1.404 . S
C70 C71 1.391 . S
C71 H65 0.930 . S
C71 C67 1.429 . S
C71 C70 1.391 . S
H72 C75 0.931 . S
H73 C78 0.928 . S
H74 C80 0.930 . S
C75 H72 0.931 . S
C75 C76 1.413 . S
C75 C77 1.360 . S
C76 C75 1.413 . S
C76 C80 1.429 . S
C77 C75 1.360 . S
C77 C78 1.372 . S
C78 H73 0.928 . S
C78 C77 1.372 . S
C78 C79 1.404 . S
C79 C78 1.404 . S
C79 C80 1.391 . S
C80 H74 0.930 . S
C80 C76 1.429 . S
C80 C79 1.391 . S
H81 C84 0.931 . S
H82 C87 0.928 . S
H83 C89 0.930 . S
C84 H81 0.931 . S
C84 C85 1.413 . S
C84 C86 1.360 . S
C85 C84 1.413 . S
C85 C89 1.429 . S
C86 C84 1.360 . S
C86 C87 1.372 . S
C87 H82 0.928 . S
C87 C86 1.372 . S
C87 C88 1.404 . S
C88 C87 1.404 . S
C88 C89 1.391 . S
C89 H83 0.930 . S
C89 C85 1.429 . S
C89 C88 1.391 . S
H90 C93 0.931 . S
H91 C96 0.928 . S
H92 C98 0.930 . S
C93 H90 0.931 . S
C93 C94 1.413 . S
C93 C95 1.360 . S
C94 C93 1.413 . S
C94 C98 1.429 . S
C95 C93 1.360 . S
C95 C96 1.372 . S
C96 H91 0.928 . S
C96 C95 1.372 . S
C96 C97 1.404 . S
C97 C96 1.404 . S
C97 C98 1.391 . S
C98 H92 0.930 . S
C98 C94 1.429 . S
C98 C97 1.391 . S
H99 C102 0.931 . S
H100 C105 0.928 . S
H101 C107 0.930 . S
C102 H99 0.931 . S
C102 C103 1.413 . S
C102 C104 1.360 . S
C103 C102 1.413 . S
C103 C107 1.429 . S
C104 C102 1.360 . S
C104 C105 1.372 . S
C105 H100 0.928 . S
C105 C104 1.372 . S
C105 C106 1.404 . S
C106 C105 1.404 . S
C106 C107 1.391 . S
C107 H101 0.930 . S
C107 C103 1.429 . S
C107 C106 1.391 . S
H108 C111 0.931 . S
H109 C114 0.928 . S
H110 C116 0.930 . S
C111 H108 0.931 . S
C111 C112 1.413 . S
C111 C113 1.360 . S
C112 C111 1.413 . S
C112 C116 1.429 . S
C113 C111 1.360 . S
C113 C114 1.372 . S
C114 H109 0.928 . S
C114 C113 1.372 . S
C114 C115 1.404 . S
C115 C114 1.404 . S
C115 C116 1.391 . S
C116 H110 0.930 . S
C116 C112 1.429 . S
C116 C115 1.391 . S
H117 C120 0.931 . S
H118 C123 0.928 . S
H119 C125 0.930 . S
C120 H117 0.931 . S
C120 C121 1.413 . S
C120 C122 1.360 . S
C121 C120 1.413 . S
C121 C125 1.429 . S
C122 C120 1.360 . S
C122 C123 1.372 . S
C123 H118 0.928 . S
C123 C122 1.372 . S
C123 C124 1.404 . S
C124 C123 1.404 . S
C124 C125 1.391 . S
C125 H119 0.930 . S
C125 C121 1.429 . S
C125 C124 1.391 . S
H126 C129 0.931 . S
H127 C132 0.928 . S
H128 C134 0.930 . S
C129 H126 0.931 . S
C129 C130 1.413 . S
C129 C131 1.360 . S
C130 C129 1.413 . S
C130 C134 1.429 . S
C131 C129 1.360 . S
C131 C132 1.372 . S
C132 H127 0.928 . S
C132 C131 1.372 . S
C132 C133 1.404 . S
C133 C132 1.404 . S
C133 C134 1.391 . S
C134 H128 0.930 . S
C134 C130 1.429 . S
C134 C133 1.391 . S
H135 C138 0.931 . S
H136 C141 0.928 . S
H137 C143 0.930 . S
C138 H135 0.931 . S
C138 C139 1.413 . S
C138 C140 1.360 . S
C139 C138 1.413 . S
C139 C143 1.429 . S
C140 C138 1.360 . S
C140 C141 1.372 . S
C141 H136 0.928 . S
C141 C140 1.372 . S
C141 C142 1.404 . S
C142 C141 1.404 . S
C142 C143 1.391 . S
C143 H137 0.930 . S
C143 C139 1.429 . S
C143 C142 1.391 . S
H144 C147 0.931 . S
H145 C150 0.928 . S
H146 C152 0.930 . S
C147 H144 0.931 . S
C147 C148 1.413 . S
C147 C149 1.360 . S
C148 C147 1.413 . S
C148 C152 1.429 . S
C149 C147 1.360 . S
C149 C150 1.372 . S
C150 H145 0.928 . S
C150 C149 1.372 . S
C150 C151 1.404 . S
C151 C150 1.404 . S
C151 C152 1.391 . S
C152 H146 0.930 . S
C152 C148 1.429 . S
C152 C151 1.391 . S
H153 C156 0.931 . S
H154 C159 0.928 . S
H155 C161 0.930 . S
C156 H153 0.931 . S
C156 C157 1.413 . S
C156 C158 1.360 . S
C157 C156 1.413 . S
C157 C161 1.429 . S
C158 C156 1.360 . S
C158 C159 1.372 . S
C159 H154 0.928 . S
C159 C158 1.372 . S
C159 C160 1.404 . S
C160 C159 1.404 . S
C160 C161 1.391 . S
C161 H155 0.930 . S
C161 C157 1.429 . S
C161 C160 1.391 . S
Tb162 O165 2.453 . S
Tb162 O166 2.596 1_545 S
Tb162 O167 2.374 1_545 S
Tb162 O175 2.343 1_554 S
Tb162 O177 2.353 . S
Tb162 O179 2.427 1_554 S
Tb162 O180 2.513 1_554 S
C163 O167 1.251 . S
C163 O169 1.263 1_554 S
Tb164 O166 2.343 1_556 S
Tb164 O169 2.353 . S
Tb164 O172 2.427 1_556 S
Tb164 O173 2.513 1_556 S
Tb164 O174 2.453 . S
Tb164 O175 2.596 1_565 S
Tb164 O176 2.374 1_565 S
O165 Tb162 2.453 . S
O165 C181 1.245 . S
O166 Tb162 2.596 1_565 S
O166 Tb164 2.343 1_554 S
O166 C181 1.259 1_565 S
O167 Tb162 2.374 1_565 S
O167 C163 1.251 . S
C168 O172 1.275 . S
C168 O173 1.246 . S
O169 C163 1.263 1_556 S
O169 Tb164 2.353 . S
C170 O174 1.245 . S
C170 O175 1.259 1_565 S
C171 O176 1.250 . S
C171 O177 1.263 1_556 S
O172 Tb164 2.427 1_554 S
O172 C168 1.275 . S
O173 Tb164 2.513 1_554 S
O173 C168 1.246 . S
O174 Tb164 2.453 . S
O174 C170 1.245 . S
O175 Tb162 2.343 1_556 S
O175 Tb164 2.596 1_545 S
O175 C170 1.259 1_545 S
O176 Tb164 2.374 1_545 S
O176 C171 1.250 . S
O177 Tb162 2.353 . S
O177 C171 1.263 1_554 S
C178 O179 1.275 . S
C178 O180 1.246 . S
O179 Tb162 2.427 1_556 S
O179 C178 1.275 . S
O180 Tb162 2.513 1_556 S
O180 C178 1.246 . S
C181 O165 1.245 . S
C181 O166 1.259 1_545 S
Tb182 O185 2.453 . S
Tb182 O186 2.596 1_655 S
Tb182 O187 2.374 1_655 S
Tb182 O195 2.343 1_554 S
Tb182 O197 2.356 . S
Tb182 O199 2.427 1_554 S
Tb182 O200 2.513 1_554 S
C183 O187 1.251 . S
C183 O189 1.263 . S
Tb184 O186 2.343 1_556 S
Tb184 O189 2.353 1_556 S
Tb184 O192 2.427 1_556 S
Tb184 O193 2.513 1_556 S
Tb184 O194 2.453 . S
Tb184 O195 2.596 1_455 S
Tb184 O196 2.374 1_455 S
O185 Tb182 2.453 . S
O185 C201 1.245 1_655 S
O186 Tb182 2.596 1_455 S
O186 Tb184 2.343 1_554 S
O186 C201 1.259 . S
O187 Tb182 2.374 1_455 S
O187 C183 1.251 . S
C188 O192 1.275 . S
C188 O193 1.246 . S
O189 C183 1.263 . S
O189 Tb184 2.353 1_554 S
C190 O194 1.245 1_655 S
C190 O195 1.259 . S
C191 O196 1.250 . S
C191 O197 1.255 1_556 S
O192 Tb184 2.427 1_554 S
O192 C188 1.275 . S
O193 Tb184 2.513 1_554 S
O193 C188 1.246 . S
O194 Tb184 2.453 . S
O194 C190 1.245 1_455 S
O195 Tb182 2.343 1_556 S
O195 Tb184 2.596 1_655 S
O195 C190 1.259 . S
O196 Tb184 2.374 1_655 S
O196 C191 1.250 . S
O197 Tb182 2.356 . S
O197 C191 1.255 1_554 S
C198 O199 1.275 . S
C198 O200 1.246 . S
O199 Tb182 2.427 1_556 S
O199 C198 1.275 . S
O200 Tb182 2.513 1_556 S
O200 C198 1.246 . S
C201 O185 1.245 1_455 S
C201 O186 1.259 . S
Tb202 O205 2.453 . S
Tb202 O206 2.596 . S
Tb202 O207 2.374 . S
Tb202 O215 2.343 1_556 S
Tb202 O217 2.353 1_556 S
Tb202 O219 2.427 1_556 S
Tb202 O220 2.513 1_556 S
C203 O207 1.251 . S
C203 O209 1.263 1_556 S
Tb204 O206 2.343 1_554 S
Tb204 O209 2.353 . S
Tb204 O212 2.427 1_554 S
Tb204 O213 2.513 1_554 S
Tb204 O214 2.453 . S
Tb204 O215 2.596 . S
Tb204 O216 2.374 . S
O205 Tb202 2.453 . S
O205 C221 1.245 . S
O206 Tb202 2.596 . S
O206 Tb204 2.343 1_556 S
O206 C221 1.259 . S
O207 Tb202 2.374 . S
O207 C203 1.251 . S
C208 O212 1.275 . S
C208 O213 1.246 . S
O209 C203 1.263 1_554 S
O209 Tb204 2.353 . S
C210 O214 1.245 . S
C210 O215 1.259 . S
C211 O216 1.250 . S
C211 O217 1.263 . S
O212 Tb204 2.427 1_556 S
O212 C208 1.275 . S
O213 Tb204 2.513 1_556 S
O213 C208 1.246 . S
O214 Tb204 2.453 . S
O214 C210 1.245 . S
O215 Tb202 2.343 1_554 S
O215 Tb204 2.596 . S
O215 C210 1.259 . S
O216 Tb204 2.374 . S
O216 C211 1.250 . S
O217 Tb202 2.353 1_554 S
O217 C211 1.263 . S
C218 O219 1.275 . S
C218 O220 1.246 . S
O219 Tb202 2.427 1_554 S
O219 C218 1.275 . S
O220 Tb202 2.513 1_554 S
O220 C218 1.246 . S
C221 O205 1.245 . S
C221 O206 1.259 . S
Tb222 O225 2.453 . S
Tb222 O226 2.596 . S
Tb222 O227 2.374 . S
Tb222 O235 2.343 . S
Tb222 O237 2.353 . S
Tb222 O239 2.427 . S
Tb222 O240 2.513 . S
C223 O227 1.251 . S
C223 O229 1.263 . S
Tb224 O226 2.343 . S
Tb224 O229 2.353 . S
Tb224 O232 2.427 . S
Tb224 O233 2.513 . S
Tb224 O234 2.453 . S
Tb224 O235 2.596 . S
Tb224 O236 2.374 . S
O225 Tb222 2.453 . S
O225 C241 1.245 . S
O226 Tb222 2.596 . S
O226 Tb224 2.343 . S
O226 C241 1.259 . S
O227 Tb222 2.374 . S
O227 C223 1.251 . S
C228 O232 1.275 . S
C228 O233 1.246 . S
O229 C223 1.263 . S
O229 Tb224 2.353 . S
C230 O234 1.245 . S
C230 O235 1.259 . S
C231 O236 1.250 . S
C231 O237 1.263 . S
O232 Tb224 2.427 . S
O232 C228 1.275 . S
O233 Tb224 2.513 . S
O233 C228 1.246 . S
O234 Tb224 2.453 . S
O234 C230 1.245 . S
O235 Tb222 2.343 . S
O235 Tb224 2.596 . S
O235 C230 1.259 . S
O236 Tb224 2.374 . S
O236 C231 1.250 . S
O237 Tb222 2.353 . S
O237 C231 1.263 . S
C238 O239 1.275 . S
C238 O240 1.246 . S
O239 Tb222 2.427 . S
O239 C238 1.275 . S
O240 Tb222 2.513 . S
O240 C238 1.246 . S
C241 O225 1.245 . S
C241 O226 1.259 . S
Tb242 O245 2.453 . S
Tb242 O246 2.596 . S
Tb242 O247 2.374 . S
Tb242 O255 2.343 . S
Tb242 O257 2.353 . S
Tb242 O259 2.427 . S
Tb242 O260 2.513 . S
C243 O247 1.251 . S
C243 O249 1.263 . S
Tb244 O246 2.343 . S
Tb244 O249 2.353 . S
Tb244 O252 2.427 . S
Tb244 O253 2.513 . S
Tb244 O254 2.453 . S
Tb244 O255 2.596 . S
Tb244 O256 2.374 . S
O245 Tb242 2.453 . S
O245 C261 1.245 . S
O246 Tb242 2.596 . S
O246 Tb244 2.343 . S
O246 C261 1.259 . S
O247 Tb242 2.374 . S
O247 C243 1.251 . S
C248 O252 1.275 . S
C248 O253 1.246 . S
O249 C243 1.263 . S
O249 Tb244 2.353 . S
C250 O254 1.245 . S
C250 O255 1.259 . S
C251 O256 1.250 . S
C251 O257 1.263 . S
O252 Tb244 2.427 . S
O252 C248 1.275 . S
O253 Tb244 2.513 . S
O253 C248 1.246 . S
O254 Tb244 2.453 . S
O254 C250 1.245 . S
O255 Tb242 2.343 . S
O255 Tb244 2.596 . S
O255 C250 1.259 . S
O256 Tb244 2.374 . S
O256 C251 1.250 . S
O257 Tb242 2.353 . S
O257 C251 1.263 . S
C258 O259 1.275 . S
C258 O260 1.246 . S
O259 Tb242 2.427 . S
O259 C258 1.275 . S
O260 Tb242 2.513 . S
O260 C258 1.246 . S
C261 O245 1.245 . S
C261 O246 1.259 . S
Tb262 O265 2.453 . S
Tb262 O266 2.596 . S
Tb262 O267 2.374 . S
Tb262 O275 2.343 . S
Tb262 O277 2.353 . S
Tb262 O279 2.427 . S
Tb262 O280 2.513 . S
C263 O267 1.251 . S
C263 O269 1.263 . S
Tb264 O266 2.343 . S
Tb264 O269 2.353 . S
Tb264 O272 2.427 . S
Tb264 O273 2.513 . S
Tb264 O274 2.453 . S
Tb264 O275 2.596 . S
Tb264 O276 2.374 . S
O265 Tb262 2.453 . S
O265 C281 1.245 . S
O266 Tb262 2.596 . S
O266 Tb264 2.343 . S
O266 C281 1.259 . S
O267 Tb262 2.374 . S
O267 C263 1.251 . S
C268 O272 1.275 . S
C268 O273 1.246 . S
O269 C263 1.263 . S
O269 Tb264 2.353 . S
C270 O274 1.245 . S
C270 O275 1.259 . S
C271 O276 1.250 . S
C271 O277 1.263 . S
O272 Tb264 2.427 . S
O272 C268 1.275 . S
O273 Tb264 2.513 . S
O273 C268 1.246 . S
O274 Tb264 2.453 . S
O274 C270 1.245 . S
O275 Tb262 2.343 . S
O275 Tb264 2.596 . S
O275 C270 1.259 . S
O276 Tb264 2.374 . S
O276 C271 1.250 . S
O277 Tb262 2.353 . S
O277 C271 1.263 . S
C278 O279 1.275 . S
C278 O280 1.246 . S
O279 Tb262 2.427 . S
O279 C278 1.275 . S
O280 Tb262 2.513 . S
O280 C278 1.246 . S
C281 O265 1.245 . S
C281 O266 1.259 . S
Tb282 O285 2.453 . S
Tb282 O286 2.596 . S
Tb282 O287 2.374 . S
Tb282 O295 2.343 . S
Tb282 O297 2.353 . S
Tb282 O299 2.427 . S
Tb282 O300 2.513 . S
C283 O287 1.251 . S
C283 O289 1.263 . S
Tb284 O286 2.343 . S
Tb284 O289 2.353 . S
Tb284 O292 2.427 . S
Tb284 O293 2.513 . S
Tb284 O294 2.453 . S
Tb284 O295 2.596 . S
Tb284 O296 2.374 . S
O285 Tb282 2.453 . S
O285 C301 1.245 . S
O286 Tb282 2.596 . S
O286 Tb284 2.343 . S
O286 C301 1.259 . S
O287 Tb282 2.374 . S
O287 C283 1.251 . S
C288 O292 1.275 . S
C288 O293 1.246 . S
O289 C283 1.263 . S
O289 Tb284 2.353 . S
C290 O294 1.245 . S
C290 O295 1.259 . S
C291 O296 1.250 . S
C291 O297 1.263 . S
O292 Tb284 2.427 . S
O292 C288 1.275 . S
O293 Tb284 2.513 . S
O293 C288 1.246 . S
O294 Tb284 2.453 . S
O294 C290 1.245 . S
O295 Tb282 2.343 . S
O295 Tb284 2.596 . S
O295 C290 1.259 . S
O296 Tb284 2.374 . S
O296 C291 1.250 . S
O297 Tb282 2.353 . S
O297 C291 1.263 . S
C298 O299 1.275 . S
C298 O300 1.246 . S
O299 Tb282 2.427 . S
O299 C298 1.275 . S
O300 Tb282 2.513 . S
O300 C298 1.246 . S
C301 O285 1.245 . S
C301 O286 1.259 . S
Tb302 O305 2.453 . S
Tb302 O306 2.596 . S
Tb302 O307 2.374 . S
Tb302 O315 2.343 . S
Tb302 O317 2.353 . S
Tb302 O319 2.427 . S
Tb302 O320 2.513 . S
C303 O307 1.251 . S
C303 O309 1.263 . S
Tb304 O306 2.343 . S
Tb304 O309 2.353 . S
Tb304 O312 2.427 . S
Tb304 O313 2.513 . S
Tb304 O314 2.453 . S
Tb304 O315 2.596 . S
Tb304 O316 2.374 . S
O305 Tb302 2.453 . S
O305 C321 1.245 . S
O306 Tb302 2.596 . S
O306 Tb304 2.343 . S
O306 C321 1.259 . S
O307 Tb302 2.374 . S
O307 C303 1.251 . S
C308 O312 1.275 . S
C308 O313 1.246 . S
O309 C303 1.263 . S
O309 Tb304 2.353 . S
C310 O314 1.245 . S
C310 O315 1.259 . S
C311 O316 1.250 . S
C311 O317 1.263 . S
O312 Tb304 2.427 . S
O312 C308 1.275 . S
O313 Tb304 2.513 . S
O313 C308 1.246 . S
O314 Tb304 2.453 . S
O314 C310 1.245 . S
O315 Tb302 2.343 . S
O315 Tb304 2.596 . S
O315 C310 1.259 . S
O316 Tb304 2.374 . S
O316 C311 1.250 . S
O317 Tb302 2.353 . S
O317 C311 1.263 . S
C318 O319 1.275 . S
C318 O320 1.246 . S
O319 Tb302 2.427 . S
O319 C318 1.275 . S
O320 Tb302 2.513 . S
O320 C318 1.246 . S
C321 O305 1.245 . S
C321 O306 1.259 . S
Tb322 O325 2.453 . S
Tb322 O326 2.596 . S
Tb322 O327 2.374 . S
Tb322 O335 2.343 . S
Tb322 O337 2.353 . S
Tb322 O339 2.427 . S
Tb322 O340 2.513 . S
C323 O327 1.251 . S
C323 O329 1.263 . S
Tb324 O326 2.343 . S
Tb324 O329 2.353 . S
Tb324 O332 2.427 . S
Tb324 O333 2.513 . S
Tb324 O334 2.453 . S
Tb324 O335 2.596 . S
Tb324 O336 2.374 . S
O325 Tb322 2.453 . S
O325 C341 1.245 . S
O326 Tb322 2.596 . S
O326 Tb324 2.343 . S
O326 C341 1.259 . S
O327 Tb322 2.374 . S
O327 C323 1.251 . S
C328 O332 1.275 . S
C328 O333 1.246 . S
O329 C323 1.263 . S
O329 Tb324 2.353 . S
C330 O334 1.245 . S
C330 O335 1.259 . S
C331 O336 1.250 . S
C331 O337 1.263 . S
O332 Tb324 2.427 . S
O332 C328 1.275 . S
O333 Tb324 2.513 . S
O333 C328 1.246 . S
O334 Tb324 2.453 . S
O334 C330 1.245 . S
O335 Tb322 2.343 . S
O335 Tb324 2.596 . S
O335 C330 1.259 . S
O336 Tb324 2.374 . S
O336 C331 1.250 . S
O337 Tb322 2.353 . S
O337 C331 1.263 . S
C338 O339 1.275 . S
C338 O340 1.246 . S
O339 Tb322 2.427 . S
O339 C338 1.275 . S
O340 Tb322 2.513 . S
O340 C338 1.246 . S
C341 O325 1.245 . S
C341 O326 1.259 . S
H342 C348 0.930 . S
H343 C351 0.930 . S
H344 C352 0.930 . S
H345 C353 0.930 . S
H346 C356 0.930 . S
H347 C357 0.930 . S
C348 H342 0.930 . S
C348 C349 1.355 . S
C348 C350 1.415 . S
C349 C348 1.355 . S
C349 C351 1.419 . S
C350 C348 1.415 . S
C350 C355 1.425 . S
C350 C357 1.409 . S
C351 H343 0.930 . S
C351 C349 1.419 . S
C351 C352 1.362 . S
C352 H344 0.930 . S
C352 C351 1.362 . S
C352 C355 1.409 . S
C353 H345 0.930 . S
C353 C354 1.355 . S
C353 C355 1.415 . S
C354 C353 1.355 . S
C354 C356 1.419 . S
C355 C350 1.425 . S
C355 C352 1.409 . S
C355 C353 1.415 . S
C356 H346 0.930 . S
C356 C354 1.419 . S
C356 C357 1.362 . S
C357 H347 0.930 . S
C357 C350 1.409 . S
C357 C356 1.362 . S
H358 C364 0.930 . S
H359 C367 0.930 . S
H360 C368 0.930 . S
H361 C369 0.930 . S
H362 C372 0.930 . S
H363 C373 0.930 . S
C364 H358 0.930 . S
C364 C365 1.355 . S
C364 C366 1.415 . S
C365 C364 1.355 . S
C365 C367 1.419 . S
C366 C364 1.415 . S
C366 C371 1.425 . S
C366 C373 1.409 . S
C367 H359 0.930 . S
C367 C365 1.419 . S
C367 C368 1.362 . S
C368 H360 0.930 . S
C368 C367 1.362 . S
C368 C371 1.409 . S
C369 H361 0.930 . S
C369 C370 1.355 . S
C369 C371 1.415 . S
C370 C369 1.355 . S
C370 C372 1.419 . S
C371 C366 1.425 . S
C371 C368 1.409 . S
C371 C369 1.415 . S
C372 H362 0.930 . S
C372 C370 1.419 . S
C372 C373 1.362 . S
C373 H363 0.930 . S
C373 C366 1.409 . S
C373 C372 1.362 . S
H374 C380 0.930 . S
H375 C383 0.930 . S
H376 C384 0.930 . S
H377 C385 0.930 . S
H378 C388 0.930 . S
H379 C389 0.930 . S
C380 H374 0.930 . S
C380 C381 1.355 . S
C380 C382 1.415 . S
C381 C380 1.355 . S
C381 C383 1.419 . S
C382 C380 1.415 . S
C382 C387 1.425 . S
C382 C389 1.409 . S
C383 H375 0.930 . S
C383 C381 1.419 . S
C383 C384 1.362 . S
C384 H376 0.930 . S
C384 C383 1.362 . S
C384 C387 1.409 . S
C385 H377 0.930 . S
C385 C386 1.355 . S
C385 C387 1.415 . S
C386 C385 1.355 . S
C386 C388 1.419 . S
C387 C382 1.425 . S
C387 C384 1.409 . S
C387 C385 1.415 . S
C388 H378 0.930 . S
C388 C386 1.419 . S
C388 C389 1.362 . S
C389 H379 0.930 . S
C389 C382 1.409 . S
C389 C388 1.362 . S
H390 C396 0.930 . S
H391 C399 0.930 . S
H392 C400 0.930 . S
H393 C401 0.930 . S
H394 C404 0.930 . S
H395 C405 0.930 . S
C396 H390 0.930 . S
C396 C397 1.355 . S
C396 C398 1.415 . S
C397 C396 1.355 . S
C397 C399 1.419 . S
C398 C396 1.415 . S
C398 C403 1.425 . S
C398 C405 1.409 . S
C399 H391 0.930 . S
C399 C397 1.419 . S
C399 C400 1.362 . S
C400 H392 0.930 . S
C400 C399 1.362 . S
C400 C403 1.409 . S
C401 H393 0.930 . S
C401 C402 1.355 . S
C401 C403 1.415 . S
C402 C401 1.355 . S
C402 C404 1.419 . S
C403 C398 1.425 . S
C403 C400 1.409 . S
C403 C401 1.415 . S
C404 H394 0.930 . S
C404 C402 1.419 . S
C404 C405 1.362 . S
C405 H395 0.930 . S
C405 C398 1.409 . S
C405 C404 1.362 . S
H406 C412 0.930 . S
H407 C415 0.930 . S
H408 C416 0.930 . S
H409 C417 0.930 . S
H410 C420 0.930 . S
H411 C421 0.930 . S
C412 H406 0.930 . S
C412 C413 1.355 . S
C412 C414 1.415 . S
C413 C412 1.355 . S
C413 C415 1.419 . S
C414 C412 1.415 . S
C414 C419 1.425 . S
C414 C421 1.409 . S
C415 H407 0.930 . S
C415 C413 1.419 . S
C415 C416 1.362 . S
C416 H408 0.930 . S
C416 C415 1.362 . S
C416 C419 1.409 . S
C417 H409 0.930 . S
C417 C418 1.355 . S
C417 C419 1.415 . S
C418 C417 1.355 . S
C418 C420 1.419 . S
C419 C414 1.425 . S
C419 C416 1.409 . S
C419 C417 1.415 . S
C420 H410 0.930 . S
C420 C418 1.419 . S
C420 C421 1.362 . S
C421 H411 0.930 . S
C421 C414 1.409 . S
C421 C420 1.362 . S
H422 C428 0.930 . S
H423 C431 0.930 . S
H424 C432 0.930 . S
H425 C433 0.930 . S
H426 C436 0.930 . S
H427 C437 0.930 . S
C428 H422 0.930 . S
C428 C429 1.355 . S
C428 C430 1.415 . S
C429 C428 1.355 . S
C429 C431 1.419 . S
C430 C428 1.415 . S
C430 C435 1.425 . S
C430 C437 1.409 . S
C431 H423 0.930 . S
C431 C429 1.419 . S
C431 C432 1.362 . S
C432 H424 0.930 . S
C432 C431 1.362 . S
C432 C435 1.409 . S
C433 H425 0.930 . S
C433 C434 1.355 . S
C433 C435 1.415 . S
C434 C433 1.355 . S
C434 C436 1.419 . S
C435 C430 1.425 . S
C435 C432 1.409 . S
C435 C433 1.415 . S
C436 H426 0.930 . S
C436 C434 1.419 . S
C436 C437 1.362 . S
C437 H427 0.930 . S
C437 C430 1.409 . S
C437 C436 1.362 . S
H438 C444 0.930 . S
H439 C447 0.930 . S
H440 C448 0.930 . S
H441 C449 0.930 . S
H442 C452 0.930 . S
H443 C453 0.930 . S
C444 H438 0.930 . S
C444 C445 1.355 . S
C444 C446 1.415 . S
C445 C444 1.355 . S
C445 C447 1.419 . S
C446 C444 1.415 . S
C446 C451 1.425 . S
C446 C453 1.409 . S
C447 H439 0.930 . S
C447 C445 1.419 . S
C447 C448 1.362 . S
C448 H440 0.930 . S
C448 C447 1.362 . S
C448 C451 1.409 . S
C449 H441 0.930 . S
C449 C450 1.355 . S
C449 C451 1.415 . S
C450 C449 1.355 . S
C450 C452 1.419 . S
C451 C446 1.425 . S
C451 C448 1.409 . S
C451 C449 1.415 . S
C452 H442 0.930 . S
C452 C450 1.419 . S
C452 C453 1.362 . S
C453 H443 0.930 . S
C453 C446 1.409 . S
C453 C452 1.362 . S
H454 C460 0.930 . S
H455 C463 0.930 . S
H456 C464 0.930 . S
H457 C465 0.930 . S
H458 C468 0.930 . S
H459 C469 0.930 . S
C460 H454 0.930 . S
C460 C461 1.355 . S
C460 C462 1.415 . S
C461 C460 1.355 . S
C461 C463 1.419 . S
C462 C460 1.415 . S
C462 C467 1.425 . S
C462 C469 1.409 . S
C463 H455 0.930 . S
C463 C461 1.419 . S
C463 C464 1.362 . S
C464 H456 0.930 . S
C464 C463 1.362 . S
C464 C467 1.409 . S
C465 H457 0.930 . S
C465 C466 1.355 . S
C465 C467 1.415 . S
C466 C465 1.355 . S
C466 C468 1.419 . S
C467 C462 1.425 . S
C467 C464 1.409 . S
C467 C465 1.415 . S
C468 H458 0.930 . S
C468 C466 1.419 . S
C468 C469 1.362 . S
C469 H459 0.930 . S
C469 C462 1.409 . S
C469 C468 1.362 . S
H470 C476 0.930 . S
H471 C479 0.930 . S
H472 C480 0.930 . S
H473 C481 0.930 . S
H474 C484 0.930 . S
H475 C485 0.930 . S
C476 H470 0.930 . S
C476 C477 1.355 . S
C476 C478 1.415 . S
C477 C476 1.355 . S
C477 C479 1.419 . S
C478 C476 1.415 . S
C478 C483 1.425 . S
C478 C485 1.409 . S
C479 H471 0.930 . S
C479 C477 1.419 . S
C479 C480 1.362 . S
C480 H472 0.930 . S
C480 C479 1.362 . S
C480 C483 1.409 . S
C481 H473 0.930 . S
C481 C482 1.355 . S
C481 C483 1.415 . S
C482 C481 1.355 . S
C482 C484 1.419 . S
C483 C478 1.425 . S
C483 C480 1.409 . S
C483 C481 1.415 . S
C484 H474 0.930 . S
C484 C482 1.419 . S
C484 C485 1.362 . S
C485 H475 0.930 . S
C485 C478 1.409 . S
C485 C484 1.362 . S
H486 C492 0.930 . S
H487 C495 0.930 . S
H488 C496 0.930 . S
H489 C497 0.930 . S
H490 C500 0.930 . S
H491 C501 0.930 . S
C492 H486 0.930 . S
C492 C493 1.355 . S
C492 C494 1.415 . S
C493 C492 1.355 . S
C493 C495 1.419 . S
C494 C492 1.415 . S
C494 C499 1.425 . S
C494 C501 1.409 . S
C495 H487 0.930 . S
C495 C493 1.419 . S
C495 C496 1.362 . S
C496 H488 0.930 . S
C496 C495 1.362 . S
C496 C499 1.409 . S
C497 H489 0.930 . S
C497 C498 1.355 . S
C497 C499 1.415 . S
C498 C497 1.355 . S
C498 C500 1.419 . S
C499 C494 1.425 . S
C499 C496 1.409 . S
C499 C497 1.415 . S
C500 H490 0.930 . S
C500 C498 1.419 . S
C500 C501 1.362 . S
C501 H491 0.930 . S
C501 C494 1.409 . S
C501 C500 1.362 . S
H502 C508 0.930 . S
H503 C511 0.930 . S
H504 C512 0.930 . S
H505 C513 0.930 . S
H506 C516 0.930 . S
H507 C517 0.930 . S
C508 H502 0.930 . S
C508 C509 1.355 . S
C508 C510 1.415 . S
C509 C508 1.355 . S
C509 C511 1.419 . S
C510 C508 1.415 . S
C510 C515 1.425 . S
C510 C517 1.409 . S
C511 H503 0.930 . S
C511 C509 1.419 . S
C511 C512 1.362 . S
C512 H504 0.930 . S
C512 C511 1.362 . S
C512 C515 1.409 . S
C513 H505 0.930 . S
C513 C514 1.355 . S
C513 C515 1.415 . S
C514 C513 1.355 . S
C514 C516 1.419 . S
C515 C510 1.425 . S
C515 C512 1.409 . S
C515 C513 1.415 . S
C516 H506 0.930 . S
C516 C514 1.419 . S
C516 C517 1.362 . S
C517 H507 0.930 . S
C517 C510 1.409 . S
C517 C516 1.362 . S
H518 C524 0.930 . S
H519 C527 0.930 . S
H520 C528 0.930 . S
H521 C529 0.930 . S
H522 C532 0.930 . S
H523 C533 0.930 . S
C524 H518 0.930 . S
C524 C525 1.355 . S
C524 C526 1.415 . S
C525 C524 1.355 . S
C525 C527 1.419 . S
C526 C524 1.415 . S
C526 C531 1.425 . S
C526 C533 1.409 . S
C527 H519 0.930 . S
C527 C525 1.419 . S
C527 C528 1.362 . S
C528 H520 0.930 . S
C528 C527 1.362 . S
C528 C531 1.409 . S
C529 H521 0.930 . S
C529 C530 1.355 . S
C529 C531 1.415 . S
C530 C529 1.355 . S
C530 C532 1.419 . S
C531 C526 1.425 . S
C531 C528 1.409 . S
C531 C529 1.415 . S
C532 H522 0.930 . S
C532 C530 1.419 . S
C532 C533 1.362 . S
C533 H523 0.930 . S
C533 C526 1.409 . S
C533 C532 1.362 . S
H534 C540 0.930 . S
H535 C543 0.930 . S
H536 C544 0.930 . S
H537 C545 0.930 . S
H538 C548 0.930 . S
H539 C549 0.930 . S
C540 H534 0.930 . S
C540 C541 1.355 . S
C540 C542 1.415 . S
C541 C540 1.355 . S
C541 C543 1.419 . S
C542 C540 1.415 . S
C542 C547 1.425 . S
C542 C549 1.409 1_655 S
C543 H535 0.930 . S
C543 C541 1.419 . S
C543 C544 1.362 . S
C544 H536 0.930 . S
C544 C543 1.362 . S
C544 C547 1.409 . S
C545 H537 0.930 . S
C545 C546 1.355 . S
C545 C547 1.415 1_455 S
C546 C545 1.355 . S
C546 C548 1.419 . S
C547 C542 1.425 . S
C547 C544 1.409 . S
C547 C545 1.415 1_655 S
C548 H538 0.930 . S
C548 C546 1.419 . S
C548 C549 1.362 . S
C549 H539 0.930 . S
C549 C542 1.409 1_455 S
C549 C548 1.362 . S
H550 C556 0.930 . S
H551 C559 0.930 . S
H552 C560 0.930 . S
H553 C561 0.930 . S
H554 C564 0.930 . S
H555 C565 0.930 . S
C556 H550 0.930 . S
C556 C557 1.355 . S
C556 C558 1.415 . S
C557 C556 1.355 . S
C557 C559 1.419 . S
C558 C556 1.415 . S
C558 C563 1.425 . S
C558 C565 1.409 . S
C559 H551 0.930 . S
C559 C557 1.419 . S
C559 C560 1.362 . S
C560 H552 0.930 . S
C560 C559 1.362 . S
C560 C563 1.409 . S
C561 H553 0.930 . S
C561 C562 1.355 . S
C561 C563 1.415 . S
C562 C561 1.355 . S
C562 C564 1.419 . S
C563 C558 1.425 . S
C563 C560 1.409 . S
C563 C561 1.415 . S
C564 H554 0.930 . S
C564 C562 1.419 . S
C564 C565 1.362 . S
C565 H555 0.930 . S
C565 C558 1.409 . S
C565 C564 1.362 . S
H566 C572 0.930 . S
H567 C575 0.930 . S
H568 C576 0.930 . S
H569 C577 0.930 . S
H570 C580 0.930 . S
H571 C581 0.930 . S
C572 H566 0.930 . S
C572 C573 1.355 . S
C572 C574 1.415 . S
C573 C572 1.355 . S
C573 C575 1.419 . S
C574 C572 1.415 . S
C574 C579 1.425 . S
C574 C581 1.409 1_545 S
C575 H567 0.930 . S
C575 C573 1.419 . S
C575 C576 1.362 . S
C576 H568 0.930 . S
C576 C575 1.362 . S
C576 C579 1.409 . S
C577 H569 0.930 . S
C577 C578 1.355 . S
C577 C579 1.415 1_565 S
C578 C577 1.355 . S
C578 C580 1.419 . S
C579 C574 1.425 . S
C579 C576 1.409 . S
C579 C577 1.415 1_545 S
C580 H570 0.930 . S
C580 C578 1.419 . S
C580 C581 1.362 . S
C581 H571 0.930 . S
C581 C574 1.409 1_565 S
C581 C580 1.362 . S
H582 C588 0.930 . S
H583 C591 0.930 . S
H584 C592 0.930 . S
H585 C593 0.930 . S
H586 C596 0.930 . S
H587 C597 0.930 . S
C588 H582 0.930 . S
C588 C589 1.355 . S
C588 C590 1.415 . S
C589 C588 1.355 . S
C589 C591 1.419 . S
C590 C588 1.415 . S
C590 C595 1.425 . S
C590 C597 1.409 . S
C591 H583 0.930 . S
C591 C589 1.419 . S
C591 C592 1.362 . S
C592 H584 0.930 . S
C592 C591 1.362 . S
C592 C595 1.409 . S
C593 H585 0.930 . S
C593 C594 1.355 . S
C593 C595 1.415 . S
C594 C593 1.355 . S
C594 C596 1.419 . S
C595 C590 1.425 . S
C595 C592 1.409 . S
C595 C593 1.415 . S
C596 H586 0.930 . S
C596 C594 1.419 . S
C596 C597 1.362 . S
C597 H587 0.930 . S
C597 C590 1.409 . S
C597 C596 1.362 . S
H598 C604 0.930 . S
H599 C607 0.930 . S
H600 C608 0.930 . S
H601 C609 0.930 . S
H602 C612 0.930 . S
H603 C613 0.930 . S
C604 H598 0.930 . S
C604 C605 1.355 . S
C604 C606 1.415 . S
C605 C604 1.355 . S
C605 C607 1.419 . S
C606 C604 1.415 . S
C606 C611 1.425 . S
C606 C613 1.409 . S
C607 H599 0.930 . S
C607 C605 1.419 . S
C607 C608 1.362 . S
C608 H600 0.930 . S
C608 C607 1.362 . S
C608 C611 1.409 . S
C609 H601 0.930 . S
C609 C610 1.355 . S
C609 C611 1.415 . S
C610 C609 1.355 . S
C610 C612 1.419 . S
C611 C606 1.425 . S
C611 C608 1.409 . S
C611 C609 1.415 . S
C612 H602 0.930 . S
C612 C610 1.419 . S
C612 C613 1.362 . S
C613 H603 0.930 . S
C613 C606 1.409 . S
C613 C612 1.362 . S
H614 C620 0.930 . S
H615 C623 0.930 . S
H616 C624 0.930 . S
H617 C625 0.930 . S
H618 C628 0.930 . S
H619 C629 0.930 . S
C620 H614 0.930 . S
C620 C621 1.355 . S
C620 C622 1.415 . S
C621 C620 1.355 . S
C621 C623 1.419 . S
C622 C620 1.415 . S
C622 C627 1.425 . S
C622 C629 1.409 . S
C623 H615 0.930 . S
C623 C621 1.419 . S
C623 C624 1.362 . S
C624 H616 0.930 . S
C624 C623 1.362 . S
C624 C627 1.409 . S
C625 H617 0.930 . S
C625 C626 1.355 . S
C625 C627 1.415 . S
C626 C625 1.355 . S
C626 C628 1.419 . S
C627 C622 1.425 . S
C627 C624 1.409 . S
C627 C625 1.415 . S
C628 H618 0.930 . S
C628 C626 1.419 . S
C628 C629 1.362 . S
C629 H619 0.930 . S
C629 C622 1.409 . S
C629 C628 1.362 . S
H630 C636 0.930 . S
H631 C639 0.930 . S
H632 C640 0.930 . S
H633 C641 0.930 . S
H634 C644 0.930 . S
H635 C645 0.930 . S
C636 H630 0.930 . S
C636 C637 1.355 . S
C636 C638 1.415 . S
C637 C636 1.355 . S
C637 C639 1.419 . S
C638 C636 1.415 . S
C638 C643 1.425 . S
C638 C645 1.409 . S
C639 H631 0.930 . S
C639 C637 1.419 . S
C639 C640 1.362 . S
C640 H632 0.930 . S
C640 C639 1.362 . S
C640 C643 1.409 . S
C641 H633 0.930 . S
C641 C642 1.355 . S
C641 C643 1.415 . S
C642 C641 1.355 . S
C642 C644 1.419 . S
C643 C638 1.425 . S
C643 C640 1.409 . S
C643 C641 1.415 . S
C644 H634 0.930 . S
C644 C642 1.419 . S
C644 C645 1.362 . S
C645 H635 0.930 . S
C645 C638 1.409 . S
C645 C644 1.362 . S
H646 C652 0.930 . S
H647 C655 0.930 . S
H648 C656 0.930 . S
H649 C657 0.930 . S
H650 C660 0.930 . S
H651 C661 0.930 . S
C652 H646 0.930 . S
C652 C653 1.355 . S
C652 C654 1.415 . S
C653 C652 1.355 . S
C653 C655 1.419 . S
C654 C652 1.415 . S
C654 C659 1.425 . S
C654 C661 1.409 . S
C655 H647 0.930 . S
C655 C653 1.419 . S
C655 C656 1.362 . S
C656 H648 0.930 . S
C656 C655 1.362 . S
C656 C659 1.409 . S
C657 H649 0.930 . S
C657 C658 1.355 . S
C657 C659 1.415 . S
C658 C657 1.355 . S
C658 C660 1.419 . S
C659 C654 1.425 . S
C659 C656 1.409 . S
C659 C657 1.415 . S
C660 H650 0.930 . S
C660 C658 1.419 . S
C660 C661 1.362 . S
C661 H651 0.930 . S
C661 C654 1.409 . S
C661 C660 1.362 . S
H662 C668 0.930 . S
H663 C671 0.930 . S
H664 C672 0.930 . S
H665 C673 0.930 . S
H666 C676 0.930 . S
H667 C677 0.930 . S
C668 H662 0.930 . S
C668 C669 1.355 . S
C668 C670 1.415 . S
C669 C668 1.355 . S
C669 C671 1.419 . S
C670 C668 1.415 . S
C670 C675 1.425 . S
C670 C677 1.409 . S
C671 H663 0.930 . S
C671 C669 1.419 . S
C671 C672 1.362 . S
C672 H664 0.930 . S
C672 C671 1.362 . S
C672 C675 1.409 . S
C673 H665 0.930 . S
C673 C674 1.355 . S
C673 C675 1.415 . S
C674 C673 1.355 . S
C674 C676 1.419 . S
C675 C670 1.425 . S
C675 C672 1.409 . S
C675 C673 1.415 . S
C676 H666 0.930 . S
C676 C674 1.419 . S
C676 C677 1.362 . S
C677 H667 0.930 . S
C677 C670 1.409 . S
C677 C676 1.362 . S
H678 C684 0.930 . S
H679 C687 0.930 . S
H680 C688 0.930 . S
H681 C689 0.930 . S
H682 C692 0.930 . S
H683 C693 0.930 . S
C684 H678 0.930 . S
C684 C685 1.355 . S
C684 C686 1.415 . S
C685 C684 1.355 . S
C685 C687 1.419 . S
C686 C684 1.415 . S
C686 C691 1.425 . S
C686 C693 1.409 1_545 S
C687 H679 0.930 . S
C687 C685 1.419 . S
C687 C688 1.362 . S
C688 H680 0.930 . S
C688 C687 1.362 . S
C688 C691 1.409 . S
C689 H681 0.930 . S
C689 C690 1.355 . S
C689 C691 1.415 1_565 S
C690 C689 1.355 . S
C690 C692 1.419 . S
C691 C686 1.425 . S
C691 C688 1.409 . S
C691 C689 1.415 1_545 S
C692 H682 0.930 . S
C692 C690 1.419 . S
C692 C693 1.362 . S
C693 H683 0.930 . S
C693 C686 1.409 1_565 S
C693 C692 1.362 . S
H694 C700 0.930 . S
H695 C703 0.930 . S
H696 C704 0.930 . S
H697 C705 0.930 . S
H698 C708 0.930 . S
H699 C709 0.930 . S
C700 H694 0.930 . S
C700 C701 1.355 . S
C700 C702 1.415 . S
C701 C700 1.355 . S
C701 C703 1.419 . S
C702 C700 1.415 . S
C702 C707 1.425 1_655 S
C702 C709 1.409 . S
C703 H695 0.930 . S
C703 C701 1.419 . S
C703 C704 1.362 1_655 S
C704 H696 0.930 . S
C704 C703 1.362 1_455 S
C704 C707 1.409 . S
C705 H697 0.930 . S
C705 C706 1.355 . S
C705 C707 1.415 . S
C706 C705 1.355 . S
C706 C708 1.419 . S
C707 C702 1.425 1_455 S
C707 C704 1.409 . S
C707 C705 1.415 . S
C708 H698 0.930 . S
C708 C706 1.419 . S
C708 C709 1.362 1_455 S
C709 H699 0.930 . S
C709 C702 1.409 . S
C709 C708 1.362 1_655 S
H710 C716 0.930 . S
H711 C719 0.930 . S
H712 C720 0.930 . S
H713 C721 0.930 . S
H714 C724 0.930 . S
H715 C725 0.930 . S
C716 H710 0.930 . S
C716 C717 1.355 . S
C716 C718 1.415 . S
C717 C716 1.355 . S
C717 C719 1.419 . S
C718 C716 1.415 . S
C718 C723 1.425 . S
C718 C725 1.409 . S
C719 H711 0.930 . S
C719 C717 1.419 . S
C719 C720 1.362 . S
C720 H712 0.930 . S
C720 C719 1.362 . S
C720 C723 1.409 . S
C721 H713 0.930 . S
C721 C722 1.355 . S
C721 C723 1.415 . S
C722 C721 1.355 . S
C722 C724 1.419 . S
C723 C718 1.425 . S
C723 C720 1.409 . S
C723 C721 1.415 . S
C724 H714 0.930 . S
C724 C722 1.419 . S
C724 C725 1.362 . S
C725 H715 0.930 . S
C725 C718 1.409 . S
C725 C724 1.362 . S
H726 C732 0.930 . S
H727 C735 0.930 . S
H728 C736 0.930 . S
H729 C737 0.930 . S
H730 C740 0.930 . S
H731 C741 0.930 . S
C732 H726 0.930 . S
C732 C733 1.355 . S
C732 C734 1.415 . S
C733 C732 1.355 . S
C733 C735 1.419 . S
C734 C732 1.415 . S
C734 C739 1.425 . S
C734 C741 1.409 . S
C735 H727 0.930 . S
C735 C733 1.419 . S
C735 C736 1.362 . S
C736 H728 0.930 . S
C736 C735 1.362 . S
C736 C739 1.409 . S
C737 H729 0.930 . S
C737 C738 1.355 . S
C737 C739 1.415 . S
C738 C737 1.355 . S
C738 C740 1.419 . S
C739 C734 1.425 . S
C739 C736 1.409 . S
C739 C737 1.415 . S
C740 H730 0.930 . S
C740 C738 1.419 . S
C740 C741 1.362 . S
C741 H731 0.930 . S
C741 C734 1.409 . S
C741 C740 1.362 . S
H742 C748 0.930 . S
H743 C751 0.930 . S
H744 C752 0.930 . S
H745 C753 0.930 . S
H746 C756 0.930 . S
H747 C757 0.930 . S
C748 H742 0.930 . S
C748 C749 1.355 . S
C748 C750 1.415 . S
C749 C748 1.355 . S
C749 C751 1.419 . S
C750 C748 1.415 . S
C750 C755 1.425 . S
C750 C757 1.409 . S
C751 H743 0.930 . S
C751 C749 1.419 . S
C751 C752 1.362 . S
C752 H744 0.930 . S
C752 C751 1.362 . S
C752 C755 1.409 . S
C753 H745 0.930 . S
C753 C754 1.355 . S
C753 C755 1.415 . S
C754 C753 1.355 . S
C754 C756 1.419 . S
C755 C750 1.425 . S
C755 C752 1.409 . S
C755 C753 1.415 . S
C756 H746 0.930 . S
C756 C754 1.419 . S
C756 C757 1.362 . S
C757 H747 0.930 . S
C757 C750 1.409 . S
C757 C756 1.362 . S
H758 C764 0.930 . S
H759 C767 0.930 . S
H760 C768 0.930 . S
H761 C769 0.930 . S
H762 C772 0.930 . S
H763 C773 0.930 . S
C764 H758 0.930 . S
C764 C765 1.355 . S
C764 C766 1.415 . S
C765 C764 1.355 . S
C765 C767 1.419 . S
C766 C764 1.415 . S
C766 C771 1.425 . S
C766 C773 1.409 . S
C767 H759 0.930 . S
C767 C765 1.419 . S
C767 C768 1.362 . S
C768 H760 0.930 . S
C768 C767 1.362 . S
C768 C771 1.409 . S
C769 H761 0.930 . S
C769 C770 1.355 . S
C769 C771 1.415 . S
C770 C769 1.355 . S
C770 C772 1.419 . S
C771 C766 1.425 . S
C771 C768 1.409 . S
C771 C769 1.415 . S
C772 H762 0.930 . S
C772 C770 1.419 . S
C772 C773 1.362 . S
C773 H763 0.930 . S
C773 C766 1.409 . S
C773 C772 1.362 . S
H774 C780 0.930 . S
H775 C783 0.930 . S
H776 C784 0.930 . S
H777 C785 0.930 . S
H778 C788 0.930 . S
H779 C789 0.930 . S
C780 H774 0.930 . S
C780 C781 1.355 . S
C780 C782 1.415 . S
C781 C780 1.355 . S
C781 C783 1.419 . S
C782 C780 1.415 . S
C782 C787 1.425 . S
C782 C789 1.409 1_565 S
C783 H775 0.930 . S
C783 C781 1.419 . S
C783 C784 1.362 . S
C784 H776 0.930 . S
C784 C783 1.362 . S
C784 C787 1.409 . S
C785 H777 0.930 . S
C785 C786 1.355 . S
C785 C787 1.415 1_545 S
C786 C785 1.355 . S
C786 C788 1.419 . S
C787 C782 1.425 . S
C787 C784 1.409 . S
C787 C785 1.415 1_565 S
C788 H778 0.930 . S
C788 C786 1.419 . S
C788 C789 1.362 . S
C789 H779 0.930 . S
C789 C782 1.409 1_545 S
C789 C788 1.362 . S
H790 C796 0.930 . S
H791 C799 0.930 . S
H792 C800 0.930 . S
H793 C801 0.930 . S
H794 C804 0.930 . S
H795 C805 0.930 . S
C796 H790 0.930 . S
C796 C797 1.355 . S
C796 C798 1.415 . S
C797 C796 1.355 . S
C797 C799 1.419 . S
C798 C796 1.415 . S
C798 C803 1.425 . S
C798 C805 1.409 1_455 S
C799 H791 0.930 . S
C799 C797 1.419 . S
C799 C800 1.362 . S
C800 H792 0.930 . S
C800 C799 1.362 . S
C800 C803 1.409 . S
C801 H793 0.930 . S
C801 C802 1.355 . S
C801 C803 1.415 1_655 S
C802 C801 1.355 . S
C802 C804 1.419 . S
C803 C798 1.425 . S
C803 C800 1.409 . S
C803 C801 1.415 1_455 S
C804 H794 0.930 . S
C804 C802 1.419 . S
C804 C805 1.362 . S
C805 H795 0.930 . S
C805 C798 1.409 1_655 S
C805 C804 1.362 . S
H806 C812 0.930 . S
H807 C815 0.930 . S
H808 C816 0.930 . S
H809 C817 0.930 . S
H810 C820 0.930 . S
H811 C821 0.930 . S
C812 H806 0.930 . S
C812 C813 1.355 . S
C812 C814 1.415 . S
C813 C812 1.355 . S
C813 C815 1.419 . S
C814 C812 1.415 . S
C814 C819 1.425 . S
C814 C821 1.409 . S
C815 H807 0.930 . S
C815 C813 1.419 . S
C815 C816 1.362 . S
C816 H808 0.930 . S
C816 C815 1.362 . S
C816 C819 1.409 . S
C817 H809 0.930 . S
C817 C818 1.355 . S
C817 C819 1.415 . S
C818 C817 1.355 . S
C818 C820 1.419 . S
C819 C814 1.425 . S
C819 C816 1.409 . S
C819 C817 1.415 . S
C820 H810 0.930 . S
C820 C818 1.419 . S
C820 C821 1.362 . S
C821 H811 0.930 . S
C821 C814 1.409 . S
C821 C820 1.362 . S
H822 C828 0.930 . S
H823 C831 0.930 . S
H824 C832 0.930 . S
H825 C833 0.930 . S
H826 C836 0.930 . S
H827 C837 0.930 . S
C828 H822 0.930 . S
C828 C829 1.355 . S
C828 C830 1.415 . S
C829 C828 1.355 . S
C829 C831 1.419 . S
C830 C828 1.415 . S
C830 C835 1.425 . S
C830 C837 1.409 . S
C831 H823 0.930 . S
C831 C829 1.419 . S
C831 C832 1.362 . S
C832 H824 0.930 . S
C832 C831 1.362 . S
C832 C835 1.409 . S
C833 H825 0.930 . S
C833 C834 1.355 . S
C833 C835 1.415 1_655 S
C834 C833 1.355 . S
C834 C836 1.419 . S
C835 C830 1.425 . S
C835 C832 1.409 . S
C835 C833 1.415 1_455 S
C836 H826 0.930 . S
C836 C834 1.419 . S
C836 C837 1.362 1_655 S
C837 H827 0.930 . S
C837 C830 1.409 . S
C837 C836 1.362 1_455 S
H838 C844 0.930 . S
H839 C847 0.930 . S
H840 C848 0.930 . S
H841 C849 0.930 . S
H842 C852 0.930 . S
H843 C853 0.930 . S
C844 H838 0.930 . S
C844 C845 1.355 . S
C844 C846 1.415 . S
C845 C844 1.355 . S
C845 C847 1.419 . S
C846 C844 1.415 . S
C846 C851 1.425 . S
C846 C853 1.409 . S
C847 H839 0.930 . S
C847 C845 1.419 . S
C847 C848 1.362 . S
C848 H840 0.930 . S
C848 C847 1.362 . S
C848 C851 1.409 . S
C849 H841 0.930 . S
C849 C850 1.355 . S
C849 C851 1.415 . S
C850 C849 1.355 . S
C850 C852 1.419 . S
C851 C846 1.425 . S
C851 C848 1.409 . S
C851 C849 1.415 . S
C852 H842 0.930 . S
C852 C850 1.419 . S
C852 C853 1.362 . S
C853 H843 0.930 . S
C853 C846 1.409 . S
C853 C852 1.362 . S
H854 C860 0.930 . S
H855 C863 0.930 . S
H856 C864 0.930 1_545 S
H857 C865 0.930 . S
H858 C868 0.930 . S
H859 C869 0.930 . S
C860 H854 0.930 . S
C860 C861 1.355 . S
C860 C862 1.415 . S
C861 C860 1.355 . S
C861 C863 1.419 . S
C862 C860 1.415 . S
C862 C867 1.425 1_565 S
C862 C869 1.409 . S
C863 H855 0.930 . S
C863 C861 1.419 . S
C863 C864 1.362 . S
C864 H856 0.930 1_565 S
C864 C863 1.362 . S
C864 C867 1.409 1_565 S
C865 H857 0.930 . S
C865 C866 1.355 . S
C865 C867 1.415 . S
C866 C865 1.355 . S
C866 C868 1.419 . S
C867 C862 1.425 1_545 S
C867 C864 1.409 1_545 S
C867 C865 1.415 . S
C868 H858 0.930 . S
C868 C866 1.419 . S
C868 C869 1.362 1_545 S
C869 H859 0.930 . S
C869 C862 1.409 . S
C869 C868 1.362 1_565 S
H870 C876 0.930 . S
H871 C879 0.930 . S
H872 C880 0.930 . S
H873 C881 0.930 . S
H874 C884 0.930 . S
H875 C885 0.930 . S
C876 H870 0.930 . S
C876 C877 1.355 . S
C876 C878 1.415 . S
C877 C876 1.355 . S
C877 C879 1.419 . S
C878 C876 1.415 . S
C878 C883 1.425 . S
C878 C885 1.409 . S
C879 H871 0.930 . S
C879 C877 1.419 . S
C879 C880 1.362 . S
C880 H872 0.930 . S
C880 C879 1.362 . S
C880 C883 1.409 . S
C881 H873 0.930 . S
C881 C882 1.355 . S
C881 C883 1.415 . S
C882 C881 1.355 . S
C882 C884 1.419 . S
C883 C878 1.425 . S
C883 C880 1.409 . S
C883 C881 1.415 . S
C884 H874 0.930 . S
C884 C882 1.419 . S
C884 C885 1.362 . S
C885 H875 0.930 . S
C885 C878 1.409 . S
C885 C884 1.362 . S
H886 C892 0.930 . S
H887 C895 0.930 . S
H888 C896 0.930 . S
H889 C897 0.930 . S
H890 C900 0.930 . S
H891 C901 0.930 . S
C892 H886 0.930 . S
C892 C893 1.355 . S
C892 C894 1.415 . S
C893 C892 1.355 . S
C893 C895 1.419 . S
C894 C892 1.415 . S
C894 C899 1.425 . S
C894 C901 1.409 . S
C895 H887 0.930 . S
C895 C893 1.419 . S
C895 C896 1.362 . S
C896 H888 0.930 . S
C896 C895 1.362 . S
C896 C899 1.409 . S
C897 H889 0.930 . S
C897 C898 1.355 . S
C897 C899 1.415 . S
C898 C897 1.355 . S
C898 C900 1.419 . S
C899 C894 1.425 . S
C899 C896 1.409 . S
C899 C897 1.415 . S
C900 H890 0.930 . S
C900 C898 1.419 . S
C900 C901 1.362 . S
C901 H891 0.930 . S
C901 C894 1.409 . S
C901 C900 1.362 . S
H902 C908 0.930 . S
H903 C911 0.930 . S
H904 C912 0.930 . S
H905 C913 0.930 . S
H906 C916 0.930 . S
H907 C917 0.930 . S
C908 H902 0.930 . S
C908 C909 1.355 . S
C908 C910 1.415 . S
C909 C908 1.355 . S
C909 C911 1.419 . S
C910 C908 1.415 . S
C910 C915 1.425 . S
C910 C917 1.409 . S
C911 H903 0.930 . S
C911 C909 1.419 . S
C911 C912 1.362 . S
C912 H904 0.930 . S
C912 C911 1.362 . S
C912 C915 1.409 . S
C913 H905 0.930 . S
C913 C914 1.355 . S
C913 C915 1.415 . S
C914 C913 1.355 . S
C914 C916 1.419 . S
C915 C910 1.425 . S
C915 C912 1.409 . S
C915 C913 1.415 . S
C916 H906 0.930 . S
C916 C914 1.419 . S
C916 C917 1.362 . S
C917 H907 0.930 . S
C917 C910 1.409 . S
C917 C916 1.362 . S
H918 C924 0.930 . S
H919 C927 0.930 . S
H920 C928 0.930 . S
H921 C929 0.930 . S
H922 C932 0.930 . S
H923 C933 0.930 . S
C924 H918 0.930 . S
C924 C925 1.355 . S
C924 C926 1.415 . S
C925 C924 1.355 . S
C925 C927 1.419 . S
C926 C924 1.415 . S
C926 C931 1.425 . S
C926 C933 1.409 . S
C927 H919 0.930 . S
C927 C925 1.419 . S
C927 C928 1.362 . S
C928 H920 0.930 . S
C928 C927 1.362 . S
C928 C931 1.409 . S
C929 H921 0.930 . S
C929 C930 1.355 . S
C929 C931 1.415 . S
C930 C929 1.355 . S
C930 C932 1.419 . S
C931 C926 1.425 . S
C931 C928 1.409 . S
C931 C929 1.415 . S
C932 H922 0.930 . S
C932 C930 1.419 . S
C932 C933 1.362 . S
C933 H923 0.930 . S
C933 C926 1.409 . S
C933 C932 1.362 . S
H934 C940 0.930 . S
H935 C943 0.930 . S
H936 C944 0.930 . S
H937 C945 0.930 . S
H938 C948 0.930 . S
H939 C949 0.930 . S
C940 H934 0.930 . S
C940 C941 1.355 . S
C940 C942 1.415 . S
C941 C940 1.355 . S
C941 C943 1.419 . S
C942 C940 1.415 . S
C942 C947 1.425 . S
C942 C949 1.409 1_455 S
C943 H935 0.930 . S
C943 C941 1.419 . S
C943 C944 1.362 . S
C944 H936 0.930 . S
C944 C943 1.362 . S
C944 C947 1.409 . S
C945 H937 0.930 . S
C945 C946 1.355 . S
C945 C947 1.415 . S
C946 C945 1.355 . S
C946 C948 1.419 1_455 S
C947 C942 1.425 . S
C947 C944 1.409 . S
C947 C945 1.415 . S
C948 H938 0.930 . S
C948 C946 1.419 1_655 S
C948 C949 1.362 . S
C949 H939 0.930 . S
C949 C942 1.409 1_655 S
C949 C948 1.362 . S
H950 C956 0.930 . S
H951 C959 0.930 . S
H952 C960 0.930 . S
H953 C961 0.930 . S
H954 C964 0.930 . S
H955 C965 0.930 . S
C956 H950 0.930 . S
C956 C957 1.355 . S
C956 C958 1.415 . S
C957 C956 1.355 . S
C957 C959 1.419 . S
C958 C956 1.415 . S
C958 C963 1.425 . S
C958 C965 1.409 . S
C959 H951 0.930 . S
C959 C957 1.419 . S
C959 C960 1.362 . S
C960 H952 0.930 . S
C960 C959 1.362 . S
C960 C963 1.409 . S
C961 H953 0.930 . S
C961 C962 1.355 . S
C961 C963 1.415 . S
C962 C961 1.355 . S
C962 C964 1.419 . S
C963 C958 1.425 . S
C963 C960 1.409 . S
C963 C961 1.415 . S
C964 H954 0.930 . S
C964 C962 1.419 . S
C964 C965 1.362 . S
C965 H955 0.930 . S
C965 C958 1.409 . S
C965 C964 1.362 . S
H966 C972 0.930 . S
H967 C975 0.930 1_455 S
H968 C976 0.930 . S
H969 C977 0.930 1_455 S
H970 C980 0.930 . S
H971 C981 0.930 . S
C972 H966 0.930 . S
C972 C973 1.355 . S
C972 C974 1.415 . S
C973 C972 1.355 . S
C973 C975 1.419 . S
C974 C972 1.415 . S
C974 C979 1.425 . S
C974 C981 1.409 . S
C975 H967 0.930 1_655 S
C975 C973 1.419 . S
C975 C976 1.362 1_655 S
C976 H968 0.930 . S
C976 C975 1.362 1_455 S
C976 C979 1.409 1_455 S
C977 H969 0.930 1_655 S
C977 C978 1.355 . S
C977 C979 1.415 . S
C978 C977 1.355 . S
C978 C980 1.419 . S
C979 C974 1.425 . S
C979 C976 1.409 1_655 S
C979 C977 1.415 . S
C980 H970 0.930 . S
C980 C978 1.419 . S
C980 C981 1.362 . S
C981 H971 0.930 . S
C981 C974 1.409 . S
C981 C980 1.362 . S
H982 C988 0.930 . S
H983 C991 0.930 . S
H984 C992 0.930 . S
H985 C993 0.930 . S
H986 C996 0.930 . S
H987 C997 0.930 . S
C988 H982 0.930 . S
C988 C989 1.355 . S
C988 C990 1.415 . S
C989 C988 1.355 . S
C989 C991 1.419 . S
C990 C988 1.415 . S
C990 C995 1.425 . S
C990 C997 1.409 . S
C991 H983 0.930 . S
C991 C989 1.419 . S
C991 C992 1.362 . S
C992 H984 0.930 . S
C992 C991 1.362 . S
C992 C995 1.409 . S
C993 H985 0.930 . S
C993 C994 1.355 . S
C993 C995 1.415 . S
C994 C993 1.355 . S
C994 C996 1.419 . S
C995 C990 1.425 . S
C995 C992 1.409 . S
C995 C993 1.415 . S
C996 H986 0.930 . S
C996 C994 1.419 . S
C996 C997 1.362 . S
C997 H987 0.930 . S
C997 C990 1.409 . S
C997 C996 1.362 . S
H998 C1004 0.930 . S
H999 C1007 0.930 1_565 S
H1000 C1008 0.930 . S
H1001 C1009 0.930 . S
H1002 C1012 0.930 . S
H1003 C1013 0.930 . S
C1004 H998 0.930 . S
C1004 C1005 1.355 . S
C1004 C1006 1.415 . S
C1005 C1004 1.355 . S
C1005 C1007 1.419 . S
C1006 C1004 1.415 . S
C1006 C1011 1.425 . S
C1006 C1013 1.409 . S
C1007 H999 0.930 1_545 S
C1007 C1005 1.419 . S
C1007 C1008 1.362 1_545 S
C1008 H1000 0.930 . S
C1008 C1007 1.362 1_565 S
C1008 C1011 1.409 1_565 S
C1009 H1001 0.930 . S
C1009 C1010 1.355 1_565 S
C1009 C1011 1.415 1_565 S
C1010 C1009 1.355 1_545 S
C1010 C1012 1.419 . S
C1011 C1006 1.425 . S
C1011 C1008 1.409 1_545 S
C1011 C1009 1.415 1_545 S
C1012 H1002 0.930 . S
C1012 C1010 1.419 . S
C1012 C1013 1.362 . S
C1013 H1003 0.930 . S
C1013 C1006 1.409 . S
C1013 C1012 1.362 . S
H1014 C1020 0.930 . S
H1015 C1023 0.930 . S
H1016 C1024 0.930 . S
H1017 C1025 0.930 . S
H1018 C1028 0.930 . S
H1019 C1029 0.930 . S
C1020 H1014 0.930 . S
C1020 C1021 1.355 . S
C1020 C1022 1.415 . S
C1021 C1020 1.355 . S
C1021 C1023 1.419 . S
C1022 C1020 1.415 . S
C1022 C1027 1.425 . S
C1022 C1029 1.409 . S
C1023 H1015 0.930 . S
C1023 C1021 1.419 . S
C1023 C1024 1.362 . S
C1024 H1016 0.930 . S
C1024 C1023 1.362 . S
C1024 C1027 1.409 . S
C1025 H1017 0.930 . S
C1025 C1026 1.355 . S
C1025 C1027 1.415 . S
C1026 C1025 1.355 . S
C1026 C1028 1.419 . S
C1027 C1022 1.425 . S
C1027 C1024 1.409 . S
C1027 C1025 1.415 . S
C1028 H1018 0.930 . S
C1028 C1026 1.419 . S
C1028 C1029 1.362 . S
C1029 H1019 0.930 . S
C1029 C1022 1.409 . S
C1029 C1028 1.362 . S
H1030 C1036 0.930 . S
H1031 C1039 0.930 . S
H1032 C1040 0.930 . S
H1033 C1041 0.930 . S
H1034 C1044 0.930 . S
H1035 C1045 0.930 . S
C1036 H1030 0.930 . S
C1036 C1037 1.355 . S
C1036 C1038 1.415 . S
C1037 C1036 1.355 . S
C1037 C1039 1.419 . S
C1038 C1036 1.415 . S
C1038 C1043 1.425 . S
C1038 C1045 1.409 . S
C1039 H1031 0.930 . S
C1039 C1037 1.419 . S
C1039 C1040 1.362 . S
C1040 H1032 0.930 . S
C1040 C1039 1.362 . S
C1040 C1043 1.409 . S
C1041 H1033 0.930 . S
C1041 C1042 1.355 . S
C1041 C1043 1.415 . S
C1042 C1041 1.355 . S
C1042 C1044 1.419 . S
C1043 C1038 1.425 . S
C1043 C1040 1.409 . S
C1043 C1041 1.415 . S
C1044 H1034 0.930 . S
C1044 C1042 1.419 . S
C1044 C1045 1.362 . S
C1045 H1035 0.930 . S
C1045 C1038 1.409 . S
C1045 C1044 1.362 . S
H1046 C1052 0.930 . S
H1047 C1055 0.930 . S
H1048 C1056 0.930 . S
H1049 C1057 0.930 . S
H1050 C1060 0.930 . S
H1051 C1061 0.930 . S
C1052 H1046 0.930 . S
C1052 C1053 1.355 . S
C1052 C1054 1.415 . S
C1053 C1052 1.355 . S
C1053 C1055 1.419 . S
C1054 C1052 1.415 . S
C1054 C1059 1.425 . S
C1054 C1061 1.409 . S
C1055 H1047 0.930 . S
C1055 C1053 1.419 . S
C1055 C1056 1.362 . S
C1056 H1048 0.930 . S
C1056 C1055 1.362 . S
C1056 C1059 1.409 . S
C1057 H1049 0.930 . S
C1057 C1058 1.355 . S
C1057 C1059 1.415 . S
C1058 C1057 1.355 . S
C1058 C1060 1.419 . S
C1059 C1054 1.425 . S
C1059 C1056 1.409 . S
C1059 C1057 1.415 . S
C1060 H1050 0.930 . S
C1060 C1058 1.419 . S
C1060 C1061 1.362 . S
C1061 H1051 0.930 . S
C1061 C1054 1.409 . S
C1061 C1060 1.362 . S
H1062 C1068 0.930 . S
H1063 C1071 0.930 . S
H1064 C1072 0.930 . S
H1065 C1073 0.930 . S
H1066 C1076 0.930 . S
H1067 C1077 0.930 . S
C1068 H1062 0.930 . S
C1068 C1069 1.355 . S
C1068 C1070 1.415 . S
C1069 C1068 1.355 . S
C1069 C1071 1.419 . S
C1070 C1068 1.415 . S
C1070 C1075 1.425 . S
C1070 C1077 1.409 . S
C1071 H1063 0.930 . S
C1071 C1069 1.419 . S
C1071 C1072 1.362 . S
C1072 H1064 0.930 . S
C1072 C1071 1.362 . S
C1072 C1075 1.409 . S
C1073 H1065 0.930 . S
C1073 C1074 1.355 . S
C1073 C1075 1.415 . S
C1074 C1073 1.355 . S
C1074 C1076 1.419 . S
C1075 C1070 1.425 . S
C1075 C1072 1.409 . S
C1075 C1073 1.415 . S
C1076 H1066 0.930 . S
C1076 C1074 1.419 . S
C1076 C1077 1.362 . S
C1077 H1067 0.930 . S
C1077 C1070 1.409 . S
C1077 C1076 1.362 . S
H1078 C1084 0.930 . S
H1079 C1087 0.930 . S
H1080 C1088 0.930 . S
H1081 C1089 0.930 . S
H1082 C1092 0.930 . S
H1083 C1093 0.930 . S
C1084 H1078 0.930 . S
C1084 C1085 1.355 . S
C1084 C1086 1.415 . S
C1085 C1084 1.355 . S
C1085 C1087 1.419 . S
C1086 C1084 1.415 . S
C1086 C1091 1.425 . S
C1086 C1093 1.409 . S
C1087 H1079 0.930 . S
C1087 C1085 1.419 . S
C1087 C1088 1.362 . S
C1088 H1080 0.930 . S
C1088 C1087 1.362 . S
C1088 C1091 1.409 . S
C1089 H1081 0.930 . S
C1089 C1090 1.355 . S
C1089 C1091 1.415 . S
C1090 C1089 1.355 . S
C1090 C1092 1.419 . S
C1091 C1086 1.425 . S
C1091 C1088 1.409 . S
C1091 C1089 1.415 . S
C1092 H1082 0.930 . S
C1092 C1090 1.419 . S
C1092 C1093 1.362 . S
C1093 H1083 0.930 . S
C1093 C1086 1.409 . S
C1093 C1092 1.362 . S
H1094 C1100 0.930 . S
H1095 C1103 0.930 . S
H1096 C1104 0.930 . S
H1097 C1105 0.930 . S
H1098 C1108 0.930 . S
H1099 C1109 0.930 . S
C1100 H1094 0.930 . S
C1100 C1101 1.355 . S
C1100 C1102 1.415 . S
C1101 C1100 1.355 . S
C1101 C1103 1.419 . S
C1102 C1100 1.415 . S
C1102 C1107 1.425 . S
C1102 C1109 1.409 . S
C1103 H1095 0.930 . S
C1103 C1101 1.419 . S
C1103 C1104 1.362 . S
C1104 H1096 0.930 . S
C1104 C1103 1.362 . S
C1104 C1107 1.409 . S
C1105 H1097 0.930 . S
C1105 C1106 1.355 . S
C1105 C1107 1.415 . S
C1106 C1105 1.355 . S
C1106 C1108 1.419 . S
C1107 C1102 1.425 . S
C1107 C1104 1.409 . S
C1107 C1105 1.415 . S
C1108 H1098 0.930 . S
C1108 C1106 1.419 . S
C1108 C1109 1.362 . S
C1109 H1099 0.930 . S
C1109 C1102 1.409 . S
C1109 C1108 1.362 . S
H1110 C1116 0.930 . S
H1111 C1119 0.930 . S
H1112 C1120 0.930 . S
H1113 C1121 0.930 . S
H1114 C1124 0.930 . S
H1115 C1125 0.930 . S
C1116 H1110 0.930 . S
C1116 C1117 1.355 . S
C1116 C1118 1.415 . S
C1117 C1116 1.355 . S
C1117 C1119 1.419 . S
C1118 C1116 1.415 . S
C1118 C1123 1.425 . S
C1118 C1125 1.409 . S
C1119 H1111 0.930 . S
C1119 C1117 1.419 . S
C1119 C1120 1.362 . S
C1120 H1112 0.930 . S
C1120 C1119 1.362 . S
C1120 C1123 1.409 . S
C1121 H1113 0.930 . S
C1121 C1122 1.355 . S
C1121 C1123 1.415 . S
C1122 C1121 1.355 . S
C1122 C1124 1.419 . S
C1123 C1118 1.425 . S
C1123 C1120 1.409 . S
C1123 C1121 1.415 . S
C1124 H1114 0.930 . S
C1124 C1122 1.419 . S
C1124 C1125 1.362 . S
C1125 H1115 0.930 . S
C1125 C1118 1.409 . S
C1125 C1124 1.362 . S
H1126 C1132 0.930 . S
H1127 C1135 0.930 . S
H1128 C1136 0.930 . S
H1129 C1137 0.930 . S
H1130 C1140 0.930 . S
H1131 C1141 0.930 . S
C1132 H1126 0.930 . S
C1132 C1133 1.355 . S
C1132 C1134 1.415 . S
C1133 C1132 1.355 . S
C1133 C1135 1.419 . S
C1134 C1132 1.415 . S
C1134 C1139 1.425 . S
C1134 C1141 1.409 . S
C1135 H1127 0.930 . S
C1135 C1133 1.419 . S
C1135 C1136 1.362 . S
C1136 H1128 0.930 . S
C1136 C1135 1.362 . S
C1136 C1139 1.409 . S
C1137 H1129 0.930 . S
C1137 C1138 1.355 . S
C1137 C1139 1.415 . S
C1138 C1137 1.355 . S
C1138 C1140 1.419 . S
C1139 C1134 1.425 . S
C1139 C1136 1.409 . S
C1139 C1137 1.415 . S
C1140 H1130 0.930 . S
C1140 C1138 1.419 . S
C1140 C1141 1.362 . S
C1141 H1131 0.930 . S
C1141 C1134 1.409 . S
C1141 C1140 1.362 . S
H1142 C1148 0.930 . S
H1143 C1151 0.930 . S
H1144 C1152 0.930 . S
H1145 C1153 0.930 . S
H1146 C1156 0.930 . S
H1147 C1157 0.930 . S
C1148 H1142 0.930 . S
C1148 C1149 1.355 . S
C1148 C1150 1.415 . S
C1149 C1148 1.355 . S
C1149 C1151 1.419 . S
C1150 C1148 1.415 . S
C1150 C1155 1.425 . S
C1150 C1157 1.409 . S
C1151 H1143 0.930 . S
C1151 C1149 1.419 . S
C1151 C1152 1.362 . S
C1152 H1144 0.930 . S
C1152 C1151 1.362 . S
C1152 C1155 1.409 . S
C1153 H1145 0.930 . S
C1153 C1154 1.355 . S
C1153 C1155 1.415 . S
C1154 C1153 1.355 . S
C1154 C1156 1.419 . S
C1155 C1150 1.425 . S
C1155 C1152 1.409 . S
C1155 C1153 1.415 . S
C1156 H1146 0.930 . S
C1156 C1154 1.419 . S
C1156 C1157 1.362 . S
C1157 H1147 0.930 . S
C1157 C1150 1.409 . S
C1157 C1156 1.362 . S
H1158 C1164 0.930 . S
H1159 C1167 0.930 . S
H1160 C1168 0.930 . S
H1161 C1169 0.930 . S
H1162 C1172 0.930 . S
H1163 C1173 0.930 . S
C1164 H1158 0.930 . S
C1164 C1165 1.355 . S
C1164 C1166 1.415 . S
C1165 C1164 1.355 . S
C1165 C1167 1.419 . S
C1166 C1164 1.415 . S
C1166 C1171 1.425 . S
C1166 C1173 1.409 . S
C1167 H1159 0.930 . S
C1167 C1165 1.419 . S
C1167 C1168 1.362 . S
C1168 H1160 0.930 . S
C1168 C1167 1.362 . S
C1168 C1171 1.409 . S
C1169 H1161 0.930 . S
C1169 C1170 1.355 . S
C1169 C1171 1.415 . S
C1170 C1169 1.355 . S
C1170 C1172 1.419 . S
C1171 C1166 1.425 . S
C1171 C1168 1.409 . S
C1171 C1169 1.415 . S
C1172 H1162 0.930 . S
C1172 C1170 1.419 . S
C1172 C1173 1.362 . S
C1173 H1163 0.930 . S
C1173 C1166 1.409 . S
C1173 C1172 1.362 . S
H1174 C1180 0.930 . S
H1175 C1183 0.930 . S
H1176 C1184 0.930 . S
H1177 C1185 0.930 . S
H1178 C1188 0.930 . S
H1179 C1189 0.930 . S
C1180 H1174 0.930 . S
C1180 C1181 1.355 . S
C1180 C1182 1.415 . S
C1181 C1180 1.355 . S
C1181 C1183 1.419 . S
C1182 C1180 1.415 . S
C1182 C1187 1.425 . S
C1182 C1189 1.409 . S
C1183 H1175 0.930 . S
C1183 C1181 1.419 . S
C1183 C1184 1.362 . S
C1184 H1176 0.930 . S
C1184 C1183 1.362 . S
C1184 C1187 1.409 . S
C1185 H1177 0.930 . S
C1185 C1186 1.355 . S
C1185 C1187 1.415 . S
C1186 C1185 1.355 . S
C1186 C1188 1.419 . S
C1187 C1182 1.425 . S
C1187 C1184 1.409 . S
C1187 C1185 1.415 . S
C1188 H1178 0.930 . S
C1188 C1186 1.419 . S
C1188 C1189 1.362 . S
C1189 H1179 0.930 . S
C1189 C1182 1.409 . S
C1189 C1188 1.362 . S
H1190 C1196 0.930 . S
H1191 C1199 0.930 . S
H1192 C1200 0.930 . S
H1193 C1201 0.930 . S
H1194 C1204 0.930 . S
H1195 C1205 0.930 . S
C1196 H1190 0.930 . S
C1196 C1197 1.355 . S
C1196 C1198 1.415 . S
C1197 C1196 1.355 . S
C1197 C1199 1.419 . S
C1198 C1196 1.415 . S
C1198 C1203 1.425 . S
C1198 C1205 1.409 . S
C1199 H1191 0.930 . S
C1199 C1197 1.419 . S
C1199 C1200 1.362 . S
C1200 H1192 0.930 . S
C1200 C1199 1.362 . S
C1200 C1203 1.409 . S
C1201 H1193 0.930 . S
C1201 C1202 1.355 . S
C1201 C1203 1.415 . S
C1202 C1201 1.355 . S
C1202 C1204 1.419 . S
C1203 C1198 1.425 . S
C1203 C1200 1.409 . S
C1203 C1201 1.415 . S
C1204 H1194 0.930 . S
C1204 C1202 1.419 . S
C1204 C1205 1.362 . S
C1205 H1195 0.930 . S
C1205 C1198 1.409 . S
C1205 C1204 1.362 . S
C349 C124 1.513 . S
C354 C168 1.509 . S
C365 C130 1.477 . S
C370 C188 1.472 . S
C381 C115 1.484 . S
C386 C211 1.477 . S
C397 C106 1.456 . S
C402 C191 1.454 . S
C418 C208 1.462 . S
C413 C85 1.453 . S
C429 C97 1.477 . S
C434 C171 1.475 . S
C450 C178 1.490 . S
C445 C103 1.520 . S
C466 C198 1.416 . S
C461 C88 1.457 . S
C477 C94 1.508 . S
C482 C203 1.507 . S
C493 C121 1.458 . S
C498 C183 1.457 . S
C509 C133 1.431 . S
C514 C218 1.435 . S
C530 C163 1.464 . S
C525 C112 1.473 . S
C546 C228 1.517 . S
C541 C16 1.532 . S
C557 C22 1.478 . S
C562 C248 1.434 . S
C573 C7 1.505 . S
C578 C271 1.501 . S
C589 C160 1.447 . S
C594 C251 1.443 . S
C605 C139 1.458 . S
C610 C268 1.421 . S
C621 C151 1.477 . S
C626 C231 1.474 . S
C637 C157 1.535 . S
C642 C238 1.537 . S
C653 C142 1.454 . S
C658 C258 1.414 . S
C674 C263 1.473 . S
C669 C148 1.481 . S
C685 C13 1.447 . S
C690 C243 1.446 . S
C706 C278 1.406 . S
C701 C25 1.440 . S
C717 C4 1.480 . S
C722 C223 1.471 . S
C738 C288 1.520 . S
C733 C70 1.522 . S
C749 C76 1.486 . S
C754 C308 1.482 . S
C770 C331 1.500 . S
C765 C61 1.500 . S
C786 C311 1.459 . S
C781 C52 1.459 . S
C802 C328 1.459 . S
C797 C31 1.450 . S
C813 C43 1.476 . S
C818 C291 1.472 . S
C829 C49 1.543 . S
C834 C298 1.513 . S
C845 C34 1.455 . S
C850 C318 1.415 . S
C866 C323 1.475 . S
C861 C40 1.482 . S
C877 C67 1.435 . S
C882 C303 1.430 . S
C893 C79 1.436 . S
C898 C338 1.442 . S
C909 C58 1.497 . S
C914 C283 1.497 . S
C925 C140 1.328 . S
C930 C181 1.323 1_565 S
C946 C201 1.498 . S
C941 C149 1.567 . S
C957 C158 1.476 . S
C962 C210 1.411 . S
C973 C59 1.605 . S
C978 C190 1.555 . S
C989 C68 1.456 . S
C994 C221 1.392 . S
C1010 C170 1.330 1_545 S
C1005 C77 1.343 . S
C1021 C32 1.327 . S
C1026 C241 1.319 . S
C1037 C41 1.584 . S
C1042 C261 1.560 . S
C1053 C50 1.471 . S
C1058 C270 1.430 . S
C1069 C113 1.601 . S
C1074 C250 1.577 . S
C1090 C281 1.455 . S
C1085 C122 1.472 . S
C1101 C131 1.338 . S
C1106 C230 1.287 . S
C1117 C86 1.324 . S
C1122 C301 1.298 . S
C1133 C95 1.586 . S
C1138 C321 1.558 . S
C1154 C330 1.413 . S
C1149 C104 1.481 . S
C1165 C5 1.605 . S
C1170 C310 1.547 . S
C1181 C14 1.474 . S
C1186 C341 1.443 . S
C1197 C23 1.327 . S
C1202 C290 1.315 . S
