# Generated by pormake.
# Topology eea, (3,6)-cn, num edge types: 1
# Building blocks:
#     Node 0, Type 0, BuildingBlock: KAKCAD_clean_linker_0, # of connection points: 3
#     Node 1, Type 0, BuildingBlock: KAKCAD_clean_linker_0, # of connection points: 3
#     Node 2, Type 0, BuildingBlock: KAKCAD_clean_linker_0, # of connection points: 3
#     Node 3, Type 0, BuildingBlock: KAKCAD_clean_linker_0, # of connection points: 3
#     Node 4, Type 0, BuildingBlock: KAKCAD_clean_linker_0, # of connection points: 3
#     Node 5, Type 0, BuildingBlock: KAKCAD_clean_linker_0, # of connection points: 3
#     Node 6, Type 0, BuildingBlock: KAKCAD_clean_linker_0, # of connection points: 3
#     Node 7, Type 0, BuildingBlock: KAKCAD_clean_linker_0, # of connection points: 3
#     Node 8, Type 0, BuildingBlock: KAKCAD_clean_linker_0, # of connection points: 3
#     Node 9, Type 0, BuildingBlock: KAKCAD_clean_linker_0, # of connection points: 3
#     Node 10, Type 0, BuildingBlock: KAKCAD_clean_linker_0, # of connection points: 3
#     Node 11, Type 0, BuildingBlock: KAKCAD_clean_linker_0, # of connection points: 3
#     Node 12, Type 0, BuildingBlock: KAKCAD_clean_linker_0, # of connection points: 3
#     Node 13, Type 0, BuildingBlock: KAKCAD_clean_linker_0, # of connection points: 3
#     Node 14, Type 0, BuildingBlock: KAKCAD_clean_linker_0, # of connection points: 3
#     Node 15, Type 0, BuildingBlock: KAKCAD_clean_linker_0, # of connection points: 3
#     Node 16, Type 0, BuildingBlock: KAKCAD_clean_linker_0, # of connection points: 3
#     Node 17, Type 0, BuildingBlock: KAKCAD_clean_linker_0, # of connection points: 3
#     Node 18, Type 1, BuildingBlock: LEVNOQ01_clean_sbu_1, # of connection points: 6
#     Node 19, Type 1, BuildingBlock: LEVNOQ01_clean_sbu_1, # of connection points: 6
#     Node 20, Type 1, BuildingBlock: LEVNOQ01_clean_sbu_1, # of connection points: 6
#     Node 21, Type 1, BuildingBlock: LEVNOQ01_clean_sbu_1, # of connection points: 6
#     Node 22, Type 1, BuildingBlock: LEVNOQ01_clean_sbu_1, # of connection points: 6
#     Node 23, Type 1, BuildingBlock: LEVNOQ01_clean_sbu_1, # of connection points: 6
#     Node 24, Type 1, BuildingBlock: LEVNOQ01_clean_sbu_1, # of connection points: 6
#     Node 25, Type 1, BuildingBlock: LEVNOQ01_clean_sbu_1, # of connection points: 6
#     Node 26, Type 1, BuildingBlock: LEVNOQ01_clean_sbu_1, # of connection points: 6
#     Edge 27, Type (0, 1), BuildingBlock: UVAHIK_clean_linker_0, # of connection points: 2
#     Edge 28, Type (0, 1), BuildingBlock: UVAHIK_clean_linker_0, # of connection points: 2
#     Edge 29, Type (0, 1), BuildingBlock: UVAHIK_clean_linker_0, # of connection points: 2
#     Edge 30, Type (0, 1), BuildingBlock: UVAHIK_clean_linker_0, # of connection points: 2
#     Edge 31, Type (0, 1), BuildingBlock: UVAHIK_clean_linker_0, # of connection points: 2
#     Edge 32, Type (0, 1), BuildingBlock: UVAHIK_clean_linker_0, # of connection points: 2
#     Edge 33, Type (0, 1), BuildingBlock: UVAHIK_clean_linker_0, # of connection points: 2
#     Edge 34, Type (0, 1), BuildingBlock: UVAHIK_clean_linker_0, # of connection points: 2
#     Edge 35, Type (0, 1), BuildingBlock: UVAHIK_clean_linker_0, # of connection points: 2
#     Edge 36, Type (0, 1), BuildingBlock: UVAHIK_clean_linker_0, # of connection points: 2
#     Edge 37, Type (0, 1), BuildingBlock: UVAHIK_clean_linker_0, # of connection points: 2
#     Edge 38, Type (0, 1), BuildingBlock: UVAHIK_clean_linker_0, # of connection points: 2
#     Edge 39, Type (0, 1), BuildingBlock: UVAHIK_clean_linker_0, # of connection points: 2
#     Edge 40, Type (0, 1), BuildingBlock: UVAHIK_clean_linker_0, # of connection points: 2
#     Edge 41, Type (0, 1), BuildingBlock: UVAHIK_clean_linker_0, # of connection points: 2
#     Edge 42, Type (0, 1), BuildingBlock: UVAHIK_clean_linker_0, # of connection points: 2
#     Edge 43, Type (0, 1), BuildingBlock: UVAHIK_clean_linker_0, # of connection points: 2
#     Edge 44, Type (0, 1), BuildingBlock: UVAHIK_clean_linker_0, # of connection points: 2
#     Edge 45, Type (0, 1), BuildingBlock: UVAHIK_clean_linker_0, # of connection points: 2
#     Edge 46, Type (0, 1), BuildingBlock: UVAHIK_clean_linker_0, # of connection points: 2
#     Edge 47, Type (0, 1), BuildingBlock: UVAHIK_clean_linker_0, # of connection points: 2
#     Edge 48, Type (0, 1), BuildingBlock: UVAHIK_clean_linker_0, # of connection points: 2
#     Edge 49, Type (0, 1), BuildingBlock: UVAHIK_clean_linker_0, # of connection points: 2
#     Edge 50, Type (0, 1), BuildingBlock: UVAHIK_clean_linker_0, # of connection points: 2
#     Edge 51, Type (0, 1), BuildingBlock: UVAHIK_clean_linker_0, # of connection points: 2
#     Edge 52, Type (0, 1), BuildingBlock: UVAHIK_clean_linker_0, # of connection points: 2
#     Edge 53, Type (0, 1), BuildingBlock: UVAHIK_clean_linker_0, # of connection points: 2
#     Edge 54, Type (0, 1), BuildingBlock: UVAHIK_clean_linker_0, # of connection points: 2
#     Edge 55, Type (0, 1), BuildingBlock: UVAHIK_clean_linker_0, # of connection points: 2
#     Edge 56, Type (0, 1), BuildingBlock: UVAHIK_clean_linker_0, # of connection points: 2
#     Edge 57, Type (0, 1), BuildingBlock: UVAHIK_clean_linker_0, # of connection points: 2
#     Edge 58, Type (0, 1), BuildingBlock: UVAHIK_clean_linker_0, # of connection points: 2
#     Edge 59, Type (0, 1), BuildingBlock: UVAHIK_clean_linker_0, # of connection points: 2
#     Edge 60, Type (0, 1), BuildingBlock: UVAHIK_clean_linker_0, # of connection points: 2
#     Edge 61, Type (0, 1), BuildingBlock: UVAHIK_clean_linker_0, # of connection points: 2
#     Edge 62, Type (0, 1), BuildingBlock: UVAHIK_clean_linker_0, # of connection points: 2
#     Edge 63, Type (0, 1), BuildingBlock: UVAHIK_clean_linker_0, # of connection points: 2
#     Edge 64, Type (0, 1), BuildingBlock: UVAHIK_clean_linker_0, # of connection points: 2
#     Edge 65, Type (0, 1), BuildingBlock: UVAHIK_clean_linker_0, # of connection points: 2
#     Edge 66, Type (0, 1), BuildingBlock: UVAHIK_clean_linker_0, # of connection points: 2
#     Edge 67, Type (0, 1), BuildingBlock: UVAHIK_clean_linker_0, # of connection points: 2
#     Edge 68, Type (0, 1), BuildingBlock: UVAHIK_clean_linker_0, # of connection points: 2
#     Edge 69, Type (0, 1), BuildingBlock: UVAHIK_clean_linker_0, # of connection points: 2
#     Edge 70, Type (0, 1), BuildingBlock: UVAHIK_clean_linker_0, # of connection points: 2
#     Edge 71, Type (0, 1), BuildingBlock: UVAHIK_clean_linker_0, # of connection points: 2
#     Edge 72, Type (0, 1), BuildingBlock: UVAHIK_clean_linker_0, # of connection points: 2
#     Edge 73, Type (0, 1), BuildingBlock: UVAHIK_clean_linker_0, # of connection points: 2
#     Edge 74, Type (0, 1), BuildingBlock: UVAHIK_clean_linker_0, # of connection points: 2
#     Edge 75, Type (0, 1), BuildingBlock: UVAHIK_clean_linker_0, # of connection points: 2
#     Edge 76, Type (0, 1), BuildingBlock: UVAHIK_clean_linker_0, # of connection points: 2
#     Edge 77, Type (0, 1), BuildingBlock: UVAHIK_clean_linker_0, # of connection points: 2
#     Edge 78, Type (0, 1), BuildingBlock: UVAHIK_clean_linker_0, # of connection points: 2
#     Edge 79, Type (0, 1), BuildingBlock: UVAHIK_clean_linker_0, # of connection points: 2
#     Edge 80, Type (0, 1), BuildingBlock: UVAHIK_clean_linker_0, # of connection points: 2
# Relax obj value: 0.095
# Max RMSD: 0.183
# Mean RMSD: 0.091
data_MOF--net-eea--node1-LEVNOQ01_clean_sbu_1--node2-KAKCAD_clean_linker_0--edge1-UVAHIK_clean_linker_0
_symmetry_space_group_name_H-M    P1
_symmetry_Int_Tables_number       1
_symmetry_cell_setting            triclinic
loop_
_symmetry_equiv_pos_as_xyz
'x, y, z'
_cell_length_a     82.38462
_cell_length_b     81.517746
_cell_length_c     83.750982
_cell_angle_alpha  90.488038
_cell_angle_beta   90.202126
_cell_angle_gamma 120.05441
loop_
_atom_site_label
_atom_site_type_symbol
_atom_site_fract_x
_atom_site_fract_y
_atom_site_fract_z
_atom_type_partial_charge
C0 C 0.28666 0.1497 0.46146 0.0
C1 C 0.29873 0.14285 0.4656 0.0
C2 C 0.28232 0.15063 0.44552 0.0
C3 C 0.28983 0.14464 0.43327 0.0
C4 C 0.30234 0.13831 0.4373 0.0
C5 C 0.3068 0.13748 0.45331 0.0
C6 C 0.28299 0.14329 0.41663 0.0
C7 C 0.28 0.15756 0.41056 0.0
C8 C 0.2697 0.1547 0.39639 0.0
C9 C 0.26362 0.13777 0.38762 0.0
C10 C 0.26682 0.12342 0.39332 0.0
C11 C 0.27665 0.12642 0.40781 0.0
C12 C 0.25791 0.10441 0.38535 0.0
C13 C 0.23968 0.0963 0.37884 0.0
C14 C 0.26693 0.09361 0.38528 0.0
C15 C 0.25766 0.07495 0.37947 0.0
C16 C 0.23931 0.06679 0.37336 0.0
C17 C 0.26288 0.16794 0.39208 0.0
C18 C 0.25702 0.1759 0.40416 0.0
C19 C 0.26045 0.17131 0.37603 0.0
C20 C 0.25154 0.18158 0.3722 0.0
C21 C 0.24513 0.18889 0.38434 0.0
C22 C 0.24838 0.18634 0.40033 0.0
C23 C 0.23056 0.07776 0.3728 0.0
H24 H 0.27989 0.15362 0.47056 0.0
H25 H 0.27232 0.15519 0.44286 0.0
H26 H 0.30842 0.1337 0.42809 0.0
H27 H 0.31638 0.13243 0.45607 0.0
H28 H 0.28493 0.17059 0.41737 0.0
H29 H 0.27806 0.11503 0.41292 0.0
H30 H 0.25549 0.13531 0.37678 0.0
H31 H 0.23207 0.10394 0.37898 0.0
H32 H 0.28106 0.09947 0.38994 0.0
H33 H 0.26481 0.06684 0.37982 0.0
H34 H 0.25821 0.17331 0.41664 0.0
H35 H 0.26504 0.16567 0.36642 0.0
H36 H 0.21635 0.07173 0.36827 0.0
H37 H 0.24338 0.19161 0.40992 0.0
H38 H 0.24941 0.18356 0.35976 0.0
C39 C 0.855 0.15779 0.45702 0.0
C40 C 0.85205 0.1433 0.46769 0.0
C41 C 0.85742 0.15585 0.44068 0.0
C42 C 0.8566 0.13928 0.4348 0.0
C43 C 0.85415 0.12509 0.44554 0.0
C44 C 0.85192 0.12708 0.46177 0.0
C45 C 0.85782 0.1361 0.41753 0.0
C46 C 0.87325 0.14894 0.40856 0.0
C47 C 0.87614 0.14397 0.3931 0.0
C48 C 0.86329 0.12598 0.38671 0.0
C49 C 0.8477 0.11308 0.3956 0.0
C50 C 0.84473 0.11869 0.41067 0.0
C51 C 0.83592 0.09297 0.39035 0.0
C52 C 0.83102 0.08792 0.3742 0.0
C53 C 0.83012 0.07848 0.40168 0.0
C54 C 0.8196 0.05952 0.3971 0.0
C55 C 0.81488 0.05447 0.38103 0.0
C56 C 0.89377 0.15671 0.3846 0.0
C57 C 0.90083 0.17637 0.38456 0.0
C58 C 0.90447 0.14949 0.37765 0.0
C59 C 0.92228 0.16174 0.37157 0.0
C60 C 0.92975 0.18146 0.37233 0.0
C61 C 0.9186 0.1886 0.37846 0.0
C62 C 0.82067 0.06879 0.36956 0.0
H63 H 0.85529 0.17051 0.4613 0.0
H64 H 0.85939 0.16701 0.43261 0.0
H65 H 0.85375 0.11229 0.44134 0.0
H66 H 0.84949 0.11559 0.46962 0.0
H67 H 0.88368 0.16218 0.41405 0.0
H68 H 0.83264 0.10899 0.41759 0.0
H69 H 0.86593 0.12175 0.37516 0.0
H70 H 0.83518 0.09871 0.36518 0.0
H71 H 0.83412 0.08169 0.41414 0.0
H72 H 0.81564 0.04875 0.40612 0.0
H73 H 0.89279 0.18232 0.38961 0.0
H74 H 0.89952 0.13442 0.37766 0.0
H75 H 0.81714 0.06518 0.35707 0.0
H76 H 0.92381 0.20372 0.37891 0.0
H77 H 0.93056 0.1558 0.36704 0.0
C78 C 0.85647 0.71197 0.46214 0.0
C79 C 0.83765 0.70019 0.46648 0.0
C80 C 0.86138 0.71604 0.44612 0.0
C81 C 0.84759 0.70838 0.43401 0.0
C82 C 0.82886 0.69608 0.4383 0.0
C83 C 0.82394 0.69203 0.45434 0.0
C84 C 0.85259 0.7145 0.41717 0.0
C85 C 0.86965 0.71757 0.41074 0.0
C86 C 0.87557 0.72584 0.39566 0.0
C87 C 0.86409 0.73071 0.38689 0.0
C88 C 0.8471 0.72778 0.39311 0.0
C89 C 0.84124 0.71937 0.40809 0.0
C90 C 0.83698 0.73612 0.38504 0.0
C91 C 0.84669 0.75546 0.38124 0.0
C92 C 0.81766 0.7253 0.3818 0.0
C93 C 0.80818 0.73378 0.37496 0.0
C94 C 0.81786 0.75325 0.37162 0.0
C95 C 0.89472 0.73186 0.38982 0.0
C96 C 0.91027 0.74161 0.4001 0.0
C97 C 0.8978 0.73001 0.37357 0.0
C98 C 0.91601 0.73861 0.36756 0.0
C99 C 0.93151 0.7493 0.3777 0.0
C100 C 0.92846 0.75026 0.3941 0.0
C101 C 0.83718 0.76397 0.37471 0.0
H102 H 0.86743 0.71823 0.47116 0.0
H103 H 0.87591 0.72576 0.44329 0.0
H104 H 0.81793 0.68981 0.42926 0.0
H105 H 0.8093 0.68296 0.45725 0.0
H106 H 0.87856 0.71397 0.41763 0.0
H107 H 0.82855 0.71801 0.41318 0.0
H108 H 0.86887 0.73785 0.37557 0.0
H109 H 0.86155 0.76413 0.38379 0.0
H110 H 0.80992 0.71037 0.38467 0.0
H111 H 0.79322 0.72531 0.37276 0.0
H112 H 0.90838 0.74342 0.41266 0.0
H113 H 0.88608 0.72243 0.36539 0.0
H114 H 0.84488 0.77901 0.37224 0.0
H115 H 0.94016 0.75809 0.40225 0.0
H116 H 0.9179 0.7376 0.35487 0.0
C117 C 0.15145 0.28182 0.54429 0.0
C118 C 0.14974 0.29638 0.53711 0.0
C119 C 0.14862 0.27863 0.56061 0.0
C120 C 0.14395 0.28986 0.57018 0.0
C121 C 0.14181 0.3042 0.56303 0.0
C122 C 0.14486 0.30756 0.54661 0.0
C123 C 0.14148 0.28634 0.58756 0.0
C124 C 0.1548 0.28391 0.59611 0.0
C125 C 0.15137 0.27726 0.6118 0.0
C126 C 0.1348 0.27389 0.61923 0.0
C127 C 0.12117 0.27598 0.61085 0.0
C128 C 0.12478 0.28269 0.59509 0.0
C129 C 0.10222 0.26832 0.61777 0.0
C130 C 0.09356 0.25044 0.62501 0.0
C131 C 0.09244 0.27829 0.61684 0.0
C132 C 0.07434 0.27048 0.62307 0.0
C133 C 0.06566 0.25249 0.63017 0.0
C134 C 0.16313 0.27043 0.61936 0.0
C135 C 0.1676 0.25845 0.61065 0.0
C136 C 0.16796 0.27381 0.63566 0.0
C137 C 0.17656 0.26485 0.64319 0.0
C138 C 0.18018 0.25217 0.63459 0.0
C139 C 0.17598 0.24937 0.61819 0.0
C140 C 0.07554 0.24264 0.63115 0.0
H141 H 0.15539 0.27311 0.53734 0.0
H142 H 0.1501 0.26729 0.56578 0.0
H143 H 0.13815 0.313 0.57017 0.0
H144 H 0.14335 0.31881 0.54134 0.0
H145 H 0.1675 0.28627 0.59023 0.0
H146 H 0.11401 0.28352 0.58827 0.0
H147 H 0.13184 0.26821 0.6312 0.0
H148 H 0.10059 0.24223 0.62564 0.0
H149 H 0.09878 0.29208 0.61131 0.0
H150 H 0.06697 0.27831 0.62199 0.0
H151 H 0.16381 0.25536 0.59813 0.0
H152 H 0.16466 0.283 0.64263 0.0
H153 H 0.06929 0.22882 0.63663 0.0
H154 H 0.17891 0.23989 0.61124 0.0
H155 H 0.17973 0.26727 0.65584 0.0
C156 C 0.68573 0.83373 0.54814 0.0
C157 C 0.69561 0.84959 0.53829 0.0
C158 C 0.68984 0.83504 0.56454 0.0
C159 C 0.70358 0.85233 0.5713 0.0
C160 C 0.71339 0.86808 0.56138 0.0
C161 C 0.70946 0.86673 0.54512 0.0
C162 C 0.70865 0.85436 0.58848 0.0
C163 C 0.71433 0.84248 0.59552 0.0
C164 C 0.72414 0.84759 0.61017 0.0
C165 C 0.72802 0.86467 0.61781 0.0
C166 C 0.72224 0.87658 0.6109 0.0
C167 C 0.7116 0.87065 0.59674 0.0
C168 C 0.7301 0.89653 0.61657 0.0
C169 C 0.73288 0.90146 0.6329 0.0
C170 C 0.7362 0.91111 0.60528 0.0
C171 C 0.74481 0.93001 0.6101 0.0
C172 C 0.74787 0.93499 0.62634 0.0
C173 C 0.73307 0.83679 0.61593 0.0
C174 C 0.72305 0.81689 0.6162 0.0
C175 C 0.75225 0.84641 0.61987 0.0
C176 C 0.76135 0.83637 0.62359 0.0
C177 C 0.75148 0.81644 0.62359 0.0
C178 C 0.73214 0.8068 0.62007 0.0
C179 C 0.74178 0.92056 0.63775 0.0
H180 H 0.67501 0.82032 0.54313 0.0
H181 H 0.6822 0.82267 0.57193 0.0
H182 H 0.72434 0.8815 0.5662 0.0
H183 H 0.71715 0.87924 0.53789 0.0
H184 H 0.71272 0.83026 0.58889 0.0
H185 H 0.70698 0.87965 0.59129 0.0
H186 H 0.73662 0.86924 0.62854 0.0
H187 H 0.72834 0.89061 0.6419 0.0
H188 H 0.73498 0.90804 0.59259 0.0
H189 H 0.74974 0.94081 0.60102 0.0
H190 H 0.70823 0.80913 0.61326 0.0
H191 H 0.76046 0.86173 0.61943 0.0
H192 H 0.74394 0.92405 0.65037 0.0
H193 H 0.72402 0.79147 0.62022 0.0
H194 H 0.77631 0.84431 0.62593 0.0
C195 C 0.13723 0.84241 0.54416 0.0
C196 C 0.15545 0.84725 0.53942 0.0
C197 C 0.13298 0.84213 0.56032 0.0
C198 C 0.14688 0.84683 0.57205 0.0
C199 C 0.16479 0.85064 0.5674 0.0
C200 C 0.169 0.85075 0.55125 0.0
C201 C 0.1434 0.85034 0.58872 0.0
C202 C 0.12669 0.83773 0.59641 0.0
C203 C 0.12198 0.84265 0.61114 0.0
C204 C 0.1345 0.86024 0.61827 0.0
C205 C 0.15129 0.87299 0.61068 0.0
C206 C 0.15572 0.86777 0.59605 0.0
C207 C 0.16317 0.89264 0.61683 0.0
C208 C 0.15487 0.90313 0.62219 0.0
C209 C 0.18284 0.90165 0.61595 0.0
C210 C 0.19391 0.92087 0.61982 0.0
C211 C 0.1855 0.93131 0.62472 0.0
C212 C 0.10315 0.83041 0.61811 0.0
C213 C 0.08727 0.82191 0.60807 0.0
C214 C 0.10069 0.82794 0.63472 0.0
C215 C 0.08269 0.81727 0.64111 0.0
C216 C 0.06687 0.80879 0.63099 0.0
C217 C 0.0694 0.81123 0.61442 0.0
C218 C 0.16598 0.92232 0.62615 0.0
H219 H 0.12648 0.83982 0.53541 0.0
H220 H 0.11912 0.83939 0.56356 0.0
H221 H 0.1757 0.85416 0.57626 0.0
H222 H 0.18303 0.85406 0.54803 0.0
H223 H 0.11712 0.82431 0.59066 0.0
H224 H 0.16812 0.87793 0.58969 0.0
H225 H 0.13077 0.86442 0.62936 0.0
H226 H 0.13977 0.89672 0.62273 0.0
H227 H 0.18963 0.8939 0.612 0.0
H228 H 0.20902 0.92764 0.61882 0.0
H229 H 0.08855 0.82393 0.59528 0.0
H230 H 0.11266 0.83424 0.64276 0.0
H231 H 0.15933 0.93026 0.62996 0.0
H232 H 0.05747 0.80525 0.60632 0.0
H233 H 0.08115 0.81554 0.65392 0.0
C234 C 0.95609 0.48477 0.79545 0.0
C235 C 0.9687 0.47863 0.79967 0.0
C236 C 0.95212 0.48599 0.77947 0.0
C237 C 0.96062 0.48109 0.76726 0.0
C238 C 0.97379 0.47564 0.77141 0.0
C239 C 0.97781 0.47445 0.78747 0.0
C240 C 0.95394 0.47957 0.75053 0.0
C241 C 0.94936 0.49282 0.74466 0.0
C242 C 0.93872 0.48918 0.73058 0.0
C243 C 0.93393 0.47263 0.72165 0.0
C244 C 0.93896 0.45945 0.72709 0.0
C245 C 0.94907 0.46317 0.74149 0.0
C246 C 0.93132 0.44049 0.71931 0.0
C247 C 0.91248 0.43032 0.71425 0.0
C248 C 0.94208 0.43148 0.71867 0.0
C249 C 0.93388 0.41241 0.71412 0.0
C250 C 0.91474 0.40194 0.70998 0.0
C251 C 0.93046 0.50125 0.72656 0.0
C252 C 0.92346 0.50786 0.7388 0.0
C253 C 0.92851 0.50541 0.71065 0.0
C254 C 0.91953 0.5157 0.7071 0.0
C255 C 0.91231 0.52205 0.71939 0.0
C256 C 0.91463 0.5182 0.73528 0.0
C257 C 0.90431 0.41131 0.70959 0.0
H258 H 0.94856 0.48779 0.80449 0.0
H259 H 0.9416 0.48983 0.77673 0.0
H260 H 0.98065 0.47189 0.76225 0.0
H261 H 0.98781 0.46996 0.79034 0.0
H262 H 0.95323 0.50556 0.7516 0.0
H263 H 0.95171 0.45246 0.74641 0.0
H264 H 0.92541 0.46947 0.71095 0.0
H265 H 0.9037 0.43671 0.7147 0.0
H266 H 0.9567 0.43899 0.7223 0.0
H267 H 0.94235 0.40569 0.71458 0.0
H268 H 0.92433 0.50464 0.75119 0.0
H269 H 0.9338 0.5006 0.70094 0.0
H270 H 0.88965 0.40379 0.70611 0.0
H271 H 0.90952 0.52309 0.74506 0.0
H272 H 0.91786 0.51829 0.69471 0.0
C273 C 0.52193 0.49511 0.79026 0.0
C274 C 0.5189 0.48053 0.80086 0.0
C275 C 0.52383 0.49305 0.77384 0.0
C276 C 0.52238 0.47623 0.76783 0.0
C277 C 0.51992 0.46198 0.77849 0.0
C278 C 0.51822 0.4641 0.79479 0.0
C279 C 0.5227 0.47271 0.75053 0.0
C280 C 0.5386 0.48411 0.74139 0.0
C281 C 0.54064 0.47792 0.72618 0.0
C282 C 0.52648 0.46033 0.72016 0.0
C283 C 0.51042 0.44888 0.72918 0.0
C284 C 0.50832 0.4557 0.744 0.0
C285 C 0.49759 0.4287 0.72455 0.0
C286 C 0.49331 0.42302 0.70845 0.0
C287 C 0.49089 0.41466 0.73637 0.0
C288 C 0.48063 0.39554 0.73223 0.0
C289 C 0.47706 0.38987 0.71616 0.0
C290 C 0.55873 0.48836 0.71771 0.0
C291 C 0.56757 0.50809 0.71584 0.0
C292 C 0.56784 0.47869 0.71234 0.0
C293 C 0.58573 0.48862 0.70577 0.0
C294 C 0.59478 0.50838 0.70429 0.0
C295 C 0.5854 0.518 0.70906 0.0
C296 C 0.48325 0.40375 0.70428 0.0
H297 H 0.52264 0.50799 0.79466 0.0
H298 H 0.52583 0.50425 0.76581 0.0
H299 H 0.51898 0.44897 0.77414 0.0
H300 H 0.51569 0.45252 0.80257 0.0
H301 H 0.55003 0.49692 0.74665 0.0
H302 H 0.49602 0.44709 0.75113 0.0
H303 H 0.52859 0.45509 0.70888 0.0
H304 H 0.49805 0.43342 0.69905 0.0
H305 H 0.49431 0.41831 0.74887 0.0
H306 H 0.47628 0.38512 0.7416 0.0
H307 H 0.56082 0.51585 0.71987 0.0
H308 H 0.56147 0.46352 0.7138 0.0
H309 H 0.48052 0.39968 0.69178 0.0
H310 H 0.59218 0.53328 0.70819 0.0
H311 H 0.59267 0.48089 0.70217 0.0
C312 C 0.52347 0.04477 0.79236 0.0
C313 C 0.50486 0.03296 0.7972 0.0
C314 C 0.52773 0.04854 0.77621 0.0
C315 C 0.51347 0.04064 0.76452 0.0
C316 C 0.49491 0.02848 0.76932 0.0
C317 C 0.49065 0.02462 0.78549 0.0
C318 C 0.51785 0.04634 0.74757 0.0
C319 C 0.53421 0.04829 0.74056 0.0
C320 C 0.53989 0.05635 0.72538 0.0
C321 C 0.52879 0.06213 0.7171 0.0
C322 C 0.51233 0.06004 0.72384 0.0
C323 C 0.50677 0.05188 0.73895 0.0
C324 C 0.5023 0.06867 0.71612 0.0
C325 C 0.5121 0.08801 0.71236 0.0
C326 C 0.48286 0.0581 0.71344 0.0
C327 C 0.47332 0.06685 0.7073 0.0
C328 C 0.48305 0.08635 0.70411 0.0
C329 C 0.55842 0.06083 0.71891 0.0
C330 C 0.57426 0.06853 0.729 0.0
C331 C 0.56075 0.05906 0.70247 0.0
C332 C 0.57864 0.06555 0.69619 0.0
C333 C 0.59452 0.07385 0.70625 0.0
C334 C 0.59207 0.07493 0.72275 0.0
C335 C 0.50252 0.09682 0.70655 0.0
H336 H 0.53476 0.05119 0.80108 0.0
H337 H 0.54214 0.05816 0.77293 0.0
H338 H 0.48364 0.02213 0.76057 0.0
H339 H 0.47617 0.01552 0.78885 0.0
H340 H 0.54275 0.04393 0.74712 0.0
H341 H 0.49455 0.05117 0.74446 0.0
H342 H 0.53338 0.06912 0.7057 0.0
H343 H 0.52708 0.09647 0.71449 0.0
H344 H 0.47505 0.04317 0.7163 0.0
H345 H 0.45825 0.05857 0.70561 0.0
H346 H 0.57304 0.07045 0.74166 0.0
H347 H 0.54879 0.05296 0.69441 0.0
H348 H 0.51027 0.11188 0.70418 0.0
H349 H 0.60404 0.08151 0.73079 0.0
H350 H 0.58006 0.06428 0.68346 0.0
C351 C 0.82051 0.61588 0.87786 0.0
C352 C 0.81816 0.63 0.87056 0.0
C353 C 0.81755 0.61259 0.89416 0.0
C354 C 0.81213 0.62332 0.90364 0.0
C355 C 0.80958 0.63736 0.89638 0.0
C356 C 0.81273 0.64079 0.87998 0.0
C357 C 0.80881 0.61925 0.92093 0.0
C358 C 0.82139 0.61602 0.92988 0.0
C359 C 0.81695 0.60872 0.94535 0.0
C360 C 0.80005 0.60534 0.95214 0.0
C361 C 0.78731 0.60846 0.9434 0.0
C362 C 0.79191 0.61585 0.92792 0.0
C363 C 0.76799 0.60057 0.94934 0.0
C364 C 0.75763 0.58121 0.95298 0.0
C365 C 0.75966 0.61185 0.95116 0.0
C366 C 0.74121 0.60382 0.95668 0.0
C367 C 0.73082 0.58437 0.96004 0.0
C368 C 0.82813 0.60147 0.95333 0.0
C369 C 0.8327 0.58942 0.94485 0.0
C370 C 0.83255 0.6048 0.96969 0.0
C371 C 0.84102 0.59586 0.9775 0.0
C372 C 0.84485 0.5832 0.9691 0.0
C373 C 0.84089 0.58031 0.95267 0.0
C374 C 0.73919 0.57317 0.95816 0.0
H375 H 0.82487 0.60747 0.87097 0.0
H376 H 0.81932 0.60144 0.89935 0.0
H377 H 0.80535 0.64578 0.90341 0.0
H378 H 0.81072 0.65171 0.87464 0.0
H379 H 0.8343 0.61831 0.92449 0.0
H380 H 0.78166 0.6173 0.92086 0.0
H381 H 0.7961 0.59884 0.96379 0.0
H382 H 0.76373 0.57221 0.95152 0.0
H383 H 0.76743 0.6268 0.94839 0.0
H384 H 0.73491 0.61266 0.95797 0.0
H385 H 0.82922 0.58638 0.93228 0.0
H386 H 0.82914 0.61402 0.97648 0.0
H387 H 0.73143 0.55815 0.9607 0.0
H388 H 0.84397 0.57082 0.94589 0.0
H389 H 0.84401 0.59835 0.99017 0.0
C390 C 0.35473 0.16787 0.88014 0.0
C391 C 0.36583 0.18315 0.87005 0.0
C392 C 0.35851 0.16931 0.89661 0.0
C393 C 0.37316 0.1862 0.90318 0.0
C394 C 0.38426 0.20131 0.89302 0.0
C395 C 0.38067 0.1998 0.87668 0.0
C396 C 0.37756 0.18854 0.92048 0.0
C397 C 0.38241 0.17645 0.92831 0.0
C398 C 0.39167 0.18173 0.94322 0.0
C399 C 0.39577 0.19913 0.95031 0.0
C400 C 0.39073 0.21122 0.94264 0.0
C401 C 0.38074 0.20524 0.92814 0.0
C402 C 0.39859 0.23125 0.94807 0.0
C403 C 0.40065 0.23629 0.96438 0.0
C404 C 0.40538 0.24576 0.93668 0.0
C405 C 0.41398 0.26471 0.94138 0.0
C406 C 0.41636 0.26977 0.9576 0.0
C407 C 0.3999 0.17069 0.94984 0.0
C408 C 0.38916 0.1509 0.95109 0.0
C409 C 0.41912 0.17982 0.95358 0.0
C410 C 0.4276 0.16935 0.95786 0.0
C411 C 0.41704 0.14946 0.95868 0.0
C412 C 0.3976 0.1404 0.9556 0.0
C413 C 0.40955 0.25541 0.96911 0.0
H414 H 0.34323 0.15484 0.87528 0.0
H415 H 0.34987 0.15744 0.90422 0.0
H416 H 0.39586 0.21438 0.89774 0.0
H417 H 0.38932 0.21187 0.86926 0.0
H418 H 0.38062 0.16389 0.92215 0.0
H419 H 0.37676 0.2144 0.92205 0.0
H420 H 0.40398 0.20375 0.96126 0.0
H421 H 0.39554 0.22549 0.97346 0.0
H422 H 0.4047 0.24261 0.92403 0.0
H423 H 0.41944 0.27547 0.93226 0.0
H424 H 0.37428 0.14354 0.94834 0.0
H425 H 0.42781 0.19504 0.95245 0.0
H426 H 0.41118 0.25898 0.98172 0.0
H427 H 0.38891 0.12516 0.95645 0.0
H428 H 0.44262 0.17687 0.95984 0.0
C429 C 0.80352 0.17834 0.87528 0.0
C430 C 0.82182 0.18369 0.87039 0.0
C431 C 0.79926 0.1775 0.89149 0.0
C432 C 0.81322 0.18202 0.90316 0.0
C433 C 0.8312 0.18623 0.8983 0.0
C434 C 0.83545 0.18703 0.8821 0.0
C435 C 0.80971 0.18481 0.92005 0.0
C436 C 0.79271 0.17223 0.92743 0.0
C437 C 0.78841 0.17645 0.94261 0.0
C438 C 0.80142 0.19329 0.95048 0.0
C439 C 0.81829 0.20621 0.94311 0.0
C440 C 0.82247 0.20162 0.92806 0.0
C441 C 0.83012 0.22569 0.94971 0.0
C442 C 0.82164 0.23578 0.95556 0.0
C443 C 0.84977 0.23512 0.94846 0.0
C444 C 0.86059 0.25445 0.95217 0.0
C445 C 0.85197 0.26473 0.95718 0.0
C446 C 0.76942 0.1647 0.94935 0.0
C447 C 0.75355 0.15969 0.93979 0.0
C448 C 0.76699 0.1598 0.96556 0.0
C449 C 0.74902 0.15029 0.97212 0.0
C450 C 0.73312 0.14569 0.96264 0.0
C451 C 0.73564 0.1504 0.94636 0.0
C452 C 0.83244 0.25505 0.95928 0.0
H453 H 0.79272 0.17581 0.86659 0.0
H454 H 0.78534 0.17443 0.89484 0.0
H455 H 0.84216 0.18955 0.90706 0.0
H456 H 0.84955 0.19075 0.87873 0.0
H457 H 0.78259 0.15943 0.92117 0.0
H458 H 0.83498 0.21193 0.92194 0.0
H459 H 0.79788 0.19689 0.96194 0.0
H460 H 0.80654 0.22906 0.9565 0.0
H461 H 0.85673 0.22768 0.94412 0.0
H462 H 0.87561 0.26149 0.95044 0.0
H463 H 0.75501 0.16362 0.92733 0.0
H464 H 0.77902 0.16345 0.97317 0.0
H465 H 0.82541 0.26248 0.96344 0.0
H466 H 0.72384 0.14747 0.93873 0.0
H467 H 0.74761 0.1466 0.98463 0.0
C468 C 0.62255 0.82022 0.12951 0.0
C469 C 0.63509 0.81385 0.13333 0.0
C470 C 0.61807 0.82135 0.11365 0.0
C471 C 0.62597 0.81612 0.10116 0.0
C472 C 0.63921 0.81063 0.1049 0.0
C473 C 0.64374 0.80952 0.12083 0.0
C474 C 0.61847 0.81412 0.08465 0.0
C475 C 0.61351 0.82713 0.07883 0.0
C476 C 0.60231 0.82305 0.06501 0.0
C477 C 0.59701 0.80612 0.0565 0.0
C478 C 0.60247 0.7933 0.06184 0.0
C479 C 0.61334 0.7975 0.07582 0.0
C480 C 0.59475 0.7743 0.05429 0.0
C481 C 0.57535 0.76299 0.05152 0.0
C482 C 0.60639 0.76663 0.05131 0.0
C483 C 0.59872 0.74783 0.04615 0.0
C484 C 0.57924 0.73627 0.04406 0.0
C485 C 0.59412 0.83511 0.06072 0.0
C486 C 0.58796 0.84277 0.07281 0.0
C487 C 0.59103 0.83787 0.04468 0.0
C488 C 0.58139 0.84742 0.04087 0.0
C489 C 0.57483 0.85457 0.05302 0.0
C490 C 0.57854 0.85247 0.069 0.0
C491 C 0.56766 0.74412 0.04654 0.0
H492 H 0.6154 0.82341 0.13879 0.0
H493 H 0.60754 0.82528 0.11124 0.0
H494 H 0.64567 0.80668 0.09552 0.0
H495 H 0.65372 0.8049 0.12336 0.0
H496 H 0.61768 0.84009 0.08553 0.0
H497 H 0.6164 0.78698 0.08055 0.0
H498 H 0.58785 0.8024 0.04615 0.0
H499 H 0.56603 0.76848 0.05389 0.0
H500 H 0.62139 0.77507 0.05335 0.0
H501 H 0.60797 0.74212 0.0444 0.0
H502 H 0.58966 0.8406 0.0853 0.0
H503 H 0.59581 0.83241 0.03507 0.0
H504 H 0.55262 0.73558 0.04485 0.0
H505 H 0.57345 0.85762 0.07861 0.0
H506 H 0.57891 0.84906 0.02843 0.0
C507 C 0.18719 0.83217 0.11869 0.0
C508 C 0.18461 0.81832 0.12991 0.0
C509 C 0.18899 0.82923 0.1024 0.0
C510 C 0.18778 0.81223 0.09717 0.0
C511 C 0.18533 0.79855 0.10845 0.0
C512 C 0.18381 0.80157 0.1246 0.0
C513 C 0.18884 0.8081 0.08009 0.0
C514 C 0.2051 0.81938 0.07128 0.0
C515 C 0.208 0.81273 0.05659 0.0
C516 C 0.19423 0.79486 0.0507 0.0
C517 C 0.17791 0.78348 0.05942 0.0
C518 C 0.17501 0.79065 0.07374 0.0
C519 C 0.16566 0.76309 0.05515 0.0
C520 C 0.16171 0.75692 0.03913 0.0
C521 C 0.15922 0.74941 0.06726 0.0
C522 C 0.14946 0.73014 0.06348 0.0
C523 C 0.14609 0.72399 0.04751 0.0
C524 C 0.22657 0.82292 0.04876 0.0
C525 C 0.2358 0.84264 0.04665 0.0
C526 C 0.23569 0.81296 0.04422 0.0
C527 C 0.25384 0.82253 0.03816 0.0
C528 C 0.26326 0.84228 0.03641 0.0
C529 C 0.25395 0.85223 0.04041 0.0
C530 C 0.15209 0.73754 0.03535 0.0
H531 H 0.18792 0.84525 0.12254 0.0
H532 H 0.19095 0.84 0.09389 0.0
H533 H 0.18456 0.78541 0.10473 0.0
H534 H 0.18164 0.79057 0.13293 0.0
H535 H 0.21617 0.83246 0.07651 0.0
H536 H 0.16253 0.782 0.08066 0.0
H537 H 0.19689 0.78932 0.03983 0.0
H538 H 0.16631 0.76706 0.02953 0.0
H539 H 0.16241 0.75351 0.07971 0.0
H540 H 0.14527 0.72003 0.07309 0.0
H541 H 0.22908 0.85065 0.05004 0.0
H542 H 0.22908 0.7978 0.04591 0.0
H543 H 0.14949 0.73313 0.02292 0.0
H544 H 0.26098 0.8675 0.0393 0.0
H545 H 0.26068 0.81453 0.03512 0.0
C546 C 0.19103 0.37987 0.12843 0.0
C547 C 0.17228 0.36808 0.13295 0.0
C548 C 0.19566 0.38412 0.11238 0.0
C549 C 0.18163 0.37671 0.10047 0.0
C550 C 0.16294 0.36454 0.10494 0.0
C551 C 0.15832 0.36023 0.121 0.0
C552 C 0.18637 0.38272 0.08361 0.0
C553 C 0.20267 0.38446 0.07668 0.0
C554 C 0.20819 0.392 0.06131 0.0
C555 C 0.19703 0.39752 0.0528 0.0
C556 C 0.18073 0.39589 0.05953 0.0
C557 C 0.17538 0.38828 0.07486 0.0
C558 C 0.17017 0.40362 0.05114 0.0
C559 C 0.17976 0.4216 0.04409 0.0
C560 C 0.15049 0.39353 0.05072 0.0
C561 C 0.14058 0.40138 0.04367 0.0
C562 C 0.15016 0.41956 0.03696 0.0
C563 C 0.22654 0.39604 0.05473 0.0
C564 C 0.24262 0.40425 0.06454 0.0
C565 C 0.22848 0.39345 0.03836 0.0
C566 C 0.24621 0.39978 0.03184 0.0
C567 C 0.26235 0.40875 0.04156 0.0
C568 C 0.2603 0.41052 0.05804 0.0
C569 C 0.16986 0.4295 0.03711 0.0
H570 H 0.20214 0.38593 0.13733 0.0
H571 H 0.21017 0.39369 0.10935 0.0
H572 H 0.15185 0.3585 0.09603 0.0
H573 H 0.14374 0.35116 0.1241 0.0
H574 H 0.21121 0.38017 0.08334 0.0
H575 H 0.16324 0.38774 0.08036 0.0
H576 H 0.2014 0.4038 0.04112 0.0
H577 H 0.19494 0.42982 0.0444 0.0
H578 H 0.14274 0.37961 0.05599 0.0
H579 H 0.1254 0.39346 0.04392 0.0
H580 H 0.24168 0.40674 0.07714 0.0
H581 H 0.21631 0.3869 0.03053 0.0
H582 H 0.17763 0.44347 0.03196 0.0
H583 H 0.27246 0.41758 0.06584 0.0
H584 H 0.24732 0.39792 0.01914 0.0
C585 C 0.48627 0.94926 0.2125 0.0
C586 C 0.48351 0.96333 0.20564 0.0
C587 C 0.48346 0.94553 0.22876 0.0
C588 C 0.47775 0.95573 0.23858 0.0
C589 C 0.47481 0.96974 0.23177 0.0
C590 C 0.47783 0.97363 0.21543 0.0
C591 C 0.47457 0.95119 0.25579 0.0
C592 C 0.48765 0.94855 0.26452 0.0
C593 C 0.48354 0.94098 0.27991 0.0
C594 C 0.46649 0.93685 0.28687 0.0
C595 C 0.45307 0.93908 0.27825 0.0
C596 C 0.4574 0.94674 0.26283 0.0
C597 C 0.43367 0.93061 0.28441 0.0
C598 C 0.42505 0.91242 0.29108 0.0
C599 C 0.42338 0.94002 0.28311 0.0
C600 C 0.40485 0.93141 0.28849 0.0
C601 C 0.39627 0.91319 0.29517 0.0
C602 C 0.49519 0.93401 0.28749 0.0
C603 C 0.50016 0.92255 0.27855 0.0
C604 C 0.49948 0.93673 0.3039 0.0
C605 C 0.50806 0.92765 0.31131 0.0
C606 C 0.51213 0.91546 0.30245 0.0
C607 C 0.50846 0.91332 0.28596 0.0
C608 C 0.40662 0.90384 0.2964 0.0
H609 H 0.49084 0.94123 0.20532 0.0
H610 H 0.48555 0.93444 0.23363 0.0
H611 H 0.47036 0.97776 0.2391 0.0
H612 H 0.47552 0.98451 0.21041 0.0
H613 H 0.50072 0.95149 0.25901 0.0
H614 H 0.44683 0.9477 0.2558 0.0
H615 H 0.46304 0.93047 0.29858 0.0
H616 H 0.43241 0.90455 0.29185 0.0
H617 H 0.42967 0.95405 0.27804 0.0
H618 H 0.3973 0.93907 0.28752 0.0
H619 H 0.4968 0.91997 0.26593 0.0
H620 H 0.49579 0.9455 0.31105 0.0
H621 H 0.40034 0.88965 0.30114 0.0
H622 H 0.51173 0.9042 0.27884 0.0
H623 H 0.51082 0.92956 0.32404 0.0
C624 C 0.02336 0.50206 0.21274 0.0
C625 C 0.03459 0.51761 0.20296 0.0
C626 C 0.02715 0.50291 0.22916 0.0
C627 C 0.04197 0.51945 0.23601 0.0
C628 C 0.05325 0.53484 0.22616 0.0
C629 C 0.04963 0.53392 0.20984 0.0
C630 C 0.04621 0.52107 0.25333 0.0
C631 C 0.0499 0.50802 0.26087 0.0
C632 C 0.05782 0.51167 0.27637 0.0
C633 C 0.06213 0.52889 0.28412 0.0
C634 C 0.05879 0.54224 0.27645 0.0
C635 C 0.04974 0.53755 0.26152 0.0
C636 C 0.06732 0.56216 0.28243 0.0
C637 C 0.06823 0.5667 0.29879 0.0
C638 C 0.07545 0.57704 0.2714 0.0
C639 C 0.08375 0.59583 0.27643 0.0
C640 C 0.08458 0.6004 0.29266 0.0
C641 C 0.06395 0.49874 0.2832 0.0
C642 C 0.05399 0.4792 0.2796 0.0
C643 C 0.08084 0.50602 0.29192 0.0
C644 C 0.0881 0.49436 0.29603 0.0
C645 C 0.07897 0.47519 0.29116 0.0
C646 C 0.0615 0.46765 0.28331 0.0
C647 C 0.07692 0.58573 0.30388 0.0
H648 H 0.01173 0.48928 0.20769 0.0
H649 H 0.01836 0.49083 0.23652 0.0
H650 H 0.06497 0.54766 0.2311 0.0
H651 H 0.05838 0.54619 0.20265 0.0
H652 H 0.04798 0.49579 0.2541 0.0
H653 H 0.04669 0.54749 0.2556 0.0
H654 H 0.06902 0.5324 0.29569 0.0
H655 H 0.06218 0.55561 0.3076 0.0
H656 H 0.07579 0.57427 0.25877 0.0
H657 H 0.08996 0.60687 0.26758 0.0
H658 H 0.04067 0.47289 0.27331 0.0
H659 H 0.08907 0.52094 0.29493 0.0
H660 H 0.0775 0.58898 0.31651 0.0
H661 H 0.05393 0.45303 0.27931 0.0
H662 H 0.10123 0.50062 0.3026 0.0
C663 C 0.46882 0.51374 0.20903 0.0
C664 C 0.48695 0.51856 0.20407 0.0
C665 C 0.46469 0.51295 0.22526 0.0
C666 C 0.47864 0.51709 0.23683 0.0
C667 C 0.49642 0.52073 0.23188 0.0
C668 C 0.50052 0.5214 0.21565 0.0
C669 C 0.47551 0.52027 0.25371 0.0
C670 C 0.45876 0.50788 0.26148 0.0
C671 C 0.45508 0.51236 0.27679 0.0
C672 C 0.46839 0.52929 0.28436 0.0
C673 C 0.48493 0.54213 0.27652 0.0
C674 C 0.48849 0.53726 0.26134 0.0
C675 C 0.49719 0.56166 0.28295 0.0
C676 C 0.48927 0.57167 0.29017 0.0
C677 C 0.51664 0.57122 0.28024 0.0
C678 C 0.52763 0.59057 0.28361 0.0
C679 C 0.51949 0.60065 0.29008 0.0
C680 C 0.4364 0.50083 0.28406 0.0
C681 C 0.4202 0.49636 0.27516 0.0
C682 C 0.43468 0.49583 0.30024 0.0
C683 C 0.41708 0.48687 0.30747 0.0
C684 C 0.40099 0.48309 0.29869 0.0
C685 C 0.40268 0.48768 0.28243 0.0
C686 C 0.50036 0.59096 0.29382 0.0
H687 H 0.45801 0.51119 0.20034 0.0
H688 H 0.4509 0.51023 0.22873 0.0
H689 H 0.50739 0.52386 0.24057 0.0
H690 H 0.51461 0.52515 0.21219 0.0
H691 H 0.44838 0.49501 0.25546 0.0
H692 H 0.50072 0.54741 0.25482 0.0
H693 H 0.46532 0.53297 0.29599 0.0
H694 H 0.47433 0.56492 0.29222 0.0
H695 H 0.52327 0.56388 0.27501 0.0
H696 H 0.54245 0.59776 0.28088 0.0
H697 H 0.42116 0.50024 0.26271 0.0
H698 H 0.44699 0.49914 0.30734 0.0
H699 H 0.49381 0.59851 0.2988 0.0
H700 H 0.39043 0.48466 0.27536 0.0
H701 H 0.4161 0.48341 0.32002 0.0
O702 O 0.50365 0.98988 0.9598 0.0
Mg703 Mg 0.51988 0.98604 0.97721 0.0
O704 O 0.49297 0.00436 0.9757 0.0
Mg705 Mg 0.49918 0.00058 0.00249 0.0
O706 O 0.50374 0.97599 0.99681 0.0
O707 O 0.51366 0.95899 0.98383 0.0
O708 O 0.5058 0.99689 0.02961 0.0
O709 O 0.46786 0.97803 0.00448 0.0
Mg710 Mg 0.48199 0.01297 0.02931 0.0
O711 O 0.4945 0.02526 0.00813 0.0
O712 O 0.50541 0.01991 0.04353 0.0
O713 O 0.4613 0.98346 0.02883 0.0
O714 O 0.47148 0.02837 0.01824 0.0
C715 C 0.54567 0.02365 0.99434 0.0
C716 C 0.49474 -0.00133 0.96188 0.0
C717 C 0.50488 0.96081 0.9958 0.0
C718 C 0.50986 0.00715 0.04234 0.0
C719 C 0.45706 0.97299 0.01647 0.0
C720 C 0.48205 0.03028 0.0063 0.0
O721 O 0.54473 0.01038 0.98557 0.0
O722 O 0.53104 0.02289 0.00029 0.0
O723 O 0.00378 0.51464 0.95918 0.0
Mg724 Mg 0.00796 0.53549 0.9764 0.0
O725 O 0.9915 0.48998 0.97554 0.0
Mg726 Mg -0.0043 0.50103 0.00197 0.0
O727 O 0.01934 0.53017 0.99578 0.0
O728 O 0.03496 0.55688 0.98248 0.0
O729 O 0.00227 0.51451 0.02813 0.0
O730 O 0.01786 0.49225 0.0054 0.0
Mg731 Mg 0.9824 0.47834 0.02792 0.0
O732 O 0.97104 0.46975 0.00584 0.0
O733 O 0.97553 0.49699 0.03955 0.0
O734 O 0.00959 0.48071 0.02967 0.0
O735 O 0.96052 0.45145 0.02753 0.0
C736 C 0.97132 0.52336 0.99376 0.0
C737 C -0.0039 0.49696 0.96158 0.0
C738 C 0.03417 0.54654 0.99434 0.0
C739 C 0.9911 0.51209 0.0395 0.0
C740 C 0.02095 0.48563 0.01805 0.0
C741 C 0.9594 0.45371 0.01241 0.0
O742 O 0.98393 0.53596 0.98504 0.0
O743 O 0.97298 0.50984 -0.00044 0.0
O744 O 0.49149 0.48431 0.04475 0.0
Mg745 Mg 0.4739 0.46423 0.02754 0.0
O746 O 0.50344 0.50904 0.0285 0.0
Mg747 Mg 0.49679 0.49807 0.00195 0.0
O748 O 0.48971 0.46817 0.00797 0.0
O749 O 0.47743 0.44146 0.02153 0.0
O750 O 0.48968 0.48404 0.97567 0.0
O751 O 0.52731 0.50518 4e-05 0.0
Mg752 Mg 0.50686 0.51827 0.97749 0.0
O753 O 0.50532 0.53052 0.99825 0.0
O754 O 0.48154 0.50276 0.96462 0.0
O755 O 0.5301 0.51333 0.97484 0.0
O756 O 0.51625 0.5461 0.97522 0.0
C757 C 0.45056 0.47807 0.00993 0.0
C758 C 0.50143 0.50199 0.04242 0.0
C759 C 0.48695 0.45123 0.00949 0.0
C760 C 0.48142 0.48729 0.96428 0.0
C761 C 0.53661 0.5096 0.98717 0.0
C762 C 0.51227 0.54611 0.99009 0.0
O763 O 0.45026 0.46559 0.01912 0.0
O764 O 0.46569 0.49088 0.00366 0.0
O765 O 0.1662 0.32146 0.29376 0.0
Mg766 Mg 0.18354 0.31809 0.3102 0.0
O767 O 0.15809 0.33751 0.31039 0.0
Mg768 Mg 0.1672 0.33509 0.33661 0.0
O769 O 0.16955 0.30886 0.33112 0.0
O770 O 0.17744 0.29117 0.31642 0.0
O771 O 0.1762 0.33217 0.3628 0.0
O772 O 0.13609 0.31527 0.34285 0.0
Mg773 Mg 0.15693 0.35563 0.36477 0.0
O774 O 0.16438 0.36084 0.34173 0.0
O775 O 0.1791 0.35612 0.37757 0.0
O776 O 0.13071 0.32928 0.36353 0.0
O777 O 0.15943 0.38073 0.35609 0.0
C778 C 0.21238 0.35595 0.3244 0.0
C779 C 0.15807 0.33089 0.29648 0.0
C780 C 0.17027 0.29347 0.32932 0.0
C781 C 0.18168 0.34219 0.37563 0.0
C782 C 0.12524 0.31547 0.35364 0.0
C783 C 0.16293 0.37586 0.34242 0.0
O784 O 0.21017 0.34202 0.31584 0.0
O785 O 0.19864 0.3558 0.3315 0.0
O786 O 0.66866 0.84396 0.29253 0.0
Mg787 Mg 0.6719 0.86523 0.30898 0.0
O788 O 0.6581 0.81971 0.30934 0.0
Mg789 Mg 0.6617 0.83133 0.33558 0.0
O790 O 0.68338 0.86065 0.3285 0.0
O791 O 0.69855 0.88751 0.31553 0.0
O792 O 0.66549 0.84352 0.36196 0.0
O793 O 0.68561 0.82492 0.33942 0.0
Mg794 Mg 0.6493 0.7999 0.36415 0.0
O795 O 0.64097 0.80157 0.342 0.0
O796 O 0.64579 0.81986 0.37734 0.0
O797 O 0.67778 0.80611 0.36067 0.0
O798 O 0.62607 0.7749 0.35511 0.0
C799 C 0.63482 0.85077 0.32672 0.0
C800 C 0.66216 0.82647 0.29526 0.0
C801 C 0.69791 0.87722 0.32736 0.0
C802 C 0.6566 0.83741 0.37507 0.0
C803 C 0.68932 0.81583 0.34976 0.0
C804 C 0.62816 0.78403 0.34211 0.0
O805 O 0.64709 0.86367 0.31796 0.0
O806 O 0.63718 0.83771 0.33267 0.0
O807 O 0.15669 0.81311 0.37703 0.0
Mg808 Mg 0.1395 0.79607 0.35813 0.0
O809 O 0.16969 0.83934 0.36267 0.0
Mg810 Mg 0.16364 0.83148 0.33546 0.0
O811 O 0.15551 0.80044 0.3385 0.0
O812 O 0.14114 0.77277 0.35094 0.0
O813 O 0.1578 0.82411 0.30838 0.0
O814 O 0.19431 0.83474 0.33467 0.0
Mg815 Mg 0.19026 0.85989 0.32209 0.0
O816 O 0.16982 0.86326 0.33257 0.0
O817 O 0.18665 0.84358 0.30104 0.0
O818 O 0.21193 0.86523 0.33798 0.0
O819 O 0.1912 0.88404 0.31556 0.0
C820 C 0.11729 0.81239 0.34292 0.0
C821 C 0.16711 0.83091 0.37599 0.0
C822 C 0.15148 0.78297 0.33939 0.0
C823 C 0.17042 0.83004 0.29778 0.0
C824 C 0.21013 0.849 0.33855 0.0
C825 C 0.17772 0.87959 0.32546 0.0
O826 O 0.11633 0.79884 0.351 0.0
O827 O 0.13277 0.82536 0.33725 0.0
O828 O 0.81999 0.64866 0.62703 0.0
Mg829 Mg 0.84106 0.64891 0.64111 0.0
O830 O 0.82042 0.67064 0.64292 0.0
Mg831 Mg 0.83001 0.66728 0.6689 0.0
O832 O 0.8322 0.64068 0.66372 0.0
O833 O 0.8382 0.62319 0.6468 0.0
O834 O 0.83949 0.66427 0.69503 0.0
O835 O 0.79888 0.64722 0.67476 0.0
Mg836 Mg 0.81786 0.6857 0.69689 0.0
O837 O 0.82755 0.69335 0.67436 0.0
O838 O 0.83887 0.68578 0.71094 0.0
O839 O 0.79154 0.65975 0.6953 0.0
O840 O 0.82108 0.71142 0.68997 0.0
C841 C 0.87273 0.68763 0.65265 0.0
C842 C 0.8159 0.66143 0.62968 0.0
C843 C 0.83342 0.62568 0.66087 0.0
C844 C 0.84342 0.6733 0.70837 0.0
C845 C 0.7872 0.64656 0.68505 0.0
C846 C 0.82648 0.70852 0.67634 0.0
O847 O 0.86778 0.67417 0.64255 0.0
O848 O 0.86126 0.6874 0.66297 0.0
O849 O 0.33831 0.18343 0.62539 0.0
Mg850 Mg 0.34241 0.20441 0.64253 0.0
O851 O 0.3254 0.1585 0.6415 0.0
Mg852 Mg 0.32999 0.16913 0.66808 0.0
O853 O 0.35296 0.19818 0.66181 0.0
O854 O 0.36948 0.22542 0.64966 0.0
O855 O 0.33741 0.18298 0.69438 0.0
O856 O 0.35237 0.16069 0.67029 0.0
Mg857 Mg 0.31882 0.14859 0.69289 0.0
O858 O 0.30558 0.13727 0.67179 0.0
O859 O 0.31022 0.16567 0.705 0.0
O860 O 0.34651 0.15204 0.69539 0.0
O861 O 0.29882 0.12124 0.69478 0.0
C862 C 0.30546 0.19127 0.66033 0.0
C863 C 0.33028 0.16568 0.62762 0.0
C864 C 0.36801 0.21441 0.66119 0.0
C865 C 0.32599 0.18049 0.70556 0.0
C866 C 0.35679 0.15566 0.68315 0.0
C867 C 0.29572 0.12173 0.67974 0.0
O868 O 0.31796 0.20388 0.65151 0.0
O869 O 0.30718 0.17779 0.66617 0.0
O870 O 0.82763 0.15253 0.71099 0.0
Mg871 Mg 0.80992 0.13215 0.69411 0.0
O872 O 0.83801 0.17672 0.69431 0.0
Mg873 Mg 0.83017 0.16496 0.66797 0.0
O874 O 0.82476 0.13537 0.6739 0.0
O875 O 0.81371 0.10957 0.68874 0.0
O876 O 0.82248 0.15109 0.64188 0.0
O877 O 0.86091 0.17349 0.66413 0.0
Mg878 Mg 0.83872 0.18702 0.64208 0.0
O879 O 0.83643 0.19631 0.66402 0.0
O880 O 0.81334 0.16874 0.63023 0.0
O881 O 0.86345 0.18465 0.6398 0.0
O882 O 0.84386 0.21398 0.64192 0.0
C883 C 0.78434 0.14377 0.67786 0.0
C884 C 0.83692 0.17016 0.70831 0.0
C885 C 0.82234 0.11862 0.67611 0.0
C886 C 0.81379 0.15357 0.6304 0.0
C887 C 0.87024 0.17992 0.65136 0.0
C888 C 0.84068 0.21216 0.65705 0.0
O889 O 0.78492 0.13176 0.68705 0.0
O890 O 0.79894 0.15658 0.67099 0.0
C891 C 0.29611 0.84879 0.0395 0.0
C892 C 0.28323 0.85256 0.03169 0.0
C893 C 0.3152 0.85934 0.0361 0.0
C894 C 0.35035 0.88891 0.00734 0.0
H895 H 0.38065 0.9159 0.04438 0.0
C896 C 0.42678 0.95123 0.00265 0.0
C897 C 0.43878 0.95541 0.01586 0.0
C898 C 0.4082 0.93633 0.0033 0.0
C899 C 0.37263 0.90816 0.03392 0.0
H900 H 0.28005 0.86973 0.01372 0.0
H901 H 0.31365 0.8881 0.00754 0.0
H902 H 0.34739 0.89404 0.04747 0.0
H903 H 0.44162 0.94651 0.03945 0.0
H904 H 0.40976 0.91972 0.04023 0.0
H905 H 0.37564 0.90266 0.99379 0.0
C906 C 0.30885 0.877 0.01635 0.0
C907 C 0.35348 0.89575 0.03572 0.0
C908 C 0.28973 0.86664 0.01996 0.0
C909 C 0.43247 0.94367 0.02922 0.0
C910 C 0.41413 0.92846 0.02969 0.0
C911 C 0.36968 0.90108 0.00556 0.0
C912 C 0.32175 0.87367 0.02464 0.0
C913 C 0.34215 0.88615 0.02246 0.0
C914 C 0.40145 0.92508 0.01705 0.0
C915 C 0.38108 0.91102 0.01883 0.0
H916 H 0.29151 0.83812 0.04868 0.0
H917 H 0.32492 0.85654 0.04263 0.0
H918 H 0.34183 0.88154 0.99696 0.0
H919 H 0.43139 0.96021 0.99225 0.0
H920 H 0.39895 0.93435 0.99335 0.0
C921 C 0.14519 0.44739 0.03468 0.0
C922 C 0.13957 0.42847 0.03072 0.0
C923 C 0.13401 0.45512 0.03045 0.0
C924 C 0.08469 0.43937 0.02374 0.0
H925 H 0.10251 0.49136 0.01131 0.0
C926 C 0.04947 0.48697 0.00597 0.0
C927 C 0.03709 0.4824 0.01887 0.0
C928 C 0.06349 0.48204 0.00618 0.0
C929 C 0.09737 0.47679 0.01469 0.0
H930 H 0.11858 0.4033 0.01819 0.0
H931 H 0.09902 0.41678 0.01085 0.0
H932 H 0.12446 0.47929 0.01236 0.0
H933 H 0.03045 0.47008 0.0425 0.0
H934 H 0.05476 0.46146 0.04279 0.0
H935 H 0.05774 0.43687 0.02634 0.0
C936 C 0.11191 0.42552 0.01746 0.0
C937 C 0.1099 0.46992 0.01536 0.0
C938 C 0.12307 0.41779 0.02169 0.0
C939 C 0.03958 0.47362 0.03228 0.0
C940 C 0.05346 0.4686 0.03244 0.0
C941 C 0.07227 0.44626 0.02323 0.0
C942 C 0.11699 0.44408 0.0222 0.0
C943 C 0.10369 0.45116 0.02004 0.0
C944 C 0.06525 0.47235 0.01925 0.0
C945 C 0.07852 0.46509 0.01893 0.0
H946 H 0.15775 0.45594 0.04175 0.0
H947 H 0.13821 0.4694 0.03441 0.0
H948 H 0.0795 0.42494 0.02758 0.0
H949 H 0.04801 0.49386 0.9955 0.0
H950 H 0.07242 0.4851 0.99588 0.0
C951 C 0.57888 0.71004 0.02799 0.0
C952 C 0.571 0.71588 0.04001 0.0
C953 C 0.57164 0.69079 0.02466 0.0
C954 C 0.52972 0.64334 0.02991 0.0
H955 H 0.5646 0.62679 0.01749 0.0
C956 C 0.51131 0.56521 0.01356 0.0
C957 C 0.51694 0.56433 0.99788 0.0
C958 C 0.51688 0.5828 0.0209 0.0
C959 C 0.55473 0.63122 0.02108 0.0
H960 H 0.54938 0.70618 0.05801 0.0
H961 H 0.53686 0.6725 0.05236 0.0
H962 H 0.57657 0.65947 0.02628 0.0
H963 H 0.53265 0.58123 0.9776 0.0
H964 H 0.54254 0.6116 0.9905 0.0
H965 H 0.5079 0.61484 0.02457 0.0
C966 C 0.54843 0.68278 0.0453 0.0
C967 C 0.56155 0.64995 0.02595 0.0
C968 C 0.55559 0.70207 0.04854 0.0
C969 C 0.52802 0.58132 0.98967 0.0
C970 C 0.53379 0.59875 0.99706 0.0
C971 C 0.5229 0.62446 0.02519 0.0
C972 C 0.55646 0.6769 0.03339 0.0
C973 C 0.54912 0.65643 0.02994 0.0
C974 C 0.52842 0.59967 0.01274 0.0
C975 C 0.53538 0.61845 0.02033 0.0
H976 H 0.5906 0.72038 0.02109 0.0
H977 H 0.57788 0.68682 0.01512 0.0
H978 H 0.51974 0.64785 0.03283 0.0
H979 H 0.50278 0.55236 0.02018 0.0
H980 H 0.51259 0.58326 0.03303 0.0
C981 C 0.88073 0.29428 0.96703 0.0
C982 C 0.86306 0.28562 0.95947 0.0
C983 C 0.89087 0.31394 0.96939 0.0
C984 C 0.88369 0.35448 0.97411 0.0
H985 H 0.93779 0.38398 0.97016 0.0
C986 C 0.94956 0.43554 0.98652 0.0
C987 C 0.94593 0.43734 0.00264 0.0
C988 C 0.9384 0.41849 0.97819 0.0
C989 C 0.92265 0.37601 0.97105 0.0
H990 H 0.8426 0.29092 0.94778 0.0
H991 H 0.86016 0.32512 0.95211 0.0
H992 H 0.921 0.35085 0.96121 0.0
H993 H 0.92715 0.42332 0.02234 0.0
H994 H 0.9076 0.39384 0.00779 0.0
H995 H 0.88539 0.37943 0.98442 0.0
C996 C 0.86605 0.3167 0.9564 0.0
C997 C 0.91308 0.357 0.96612 0.0
C998 C 0.85597 0.29709 0.954 0.0
C999 C 0.93032 0.42231 0.00994 0.0
C1000 C 0.91905 0.40545 0.00159 0.0
C1001 C 0.89327 0.37341 0.97916 0.0
C1002 C 0.88352 0.32532 0.96426 0.0
C1003 C 0.89354 0.34594 0.96792 0.0
C1004 C 0.92327 0.40317 0.98579 0.0
C1005 C 0.91287 0.38423 0.97801 0.0
H1006 H 0.88653 0.28584 0.97147 0.0
H1007 H 0.90419 0.32015 0.97568 0.0
H1008 H 0.86865 0.34631 0.97573 0.0
H1009 H 0.96156 0.4469 0.98062 0.0
H1010 H 0.94188 0.4171 0.96598 0.0
C1011 C 0.70586 0.58148 0.9787 0.0
C1012 C 0.71102 0.57538 0.96492 0.0
C1013 C 0.68713 0.57223 0.98356 0.0
C1014 C 0.64089 0.52808 0.97587 0.0
H1015 H 0.62085 0.55817 0.99389 0.0
C1016 C 0.56382 0.51141 0.97251 0.0
C1017 C 0.5557 0.5123 0.98697 0.0
C1018 C 0.58267 0.51629 0.97206 0.0
C1019 C 0.62635 0.54957 0.98907 0.0
H1020 H 0.70093 0.55526 0.94523 0.0
H1021 H 0.66822 0.53978 0.9531 0.0
H1022 H 0.65431 0.57303 0.98865 0.0
H1023 H 0.56065 0.51829 0.01237 0.0
H1024 H 0.59386 0.52754 0.0114 0.0
H1025 H 0.61248 0.50497 0.97533 0.0
C1026 C 0.67851 0.55111 0.96063 0.0
C1027 C 0.64554 0.55803 0.98612 0.0
C1028 C 0.69723 0.5601 0.95597 0.0
C1029 C 0.56655 0.51744 0.00107 0.0
C1030 C 0.58551 0.52277 0.00053 0.0
C1031 C 0.62163 0.51975 0.9785 0.0
C1032 C 0.67317 0.55694 0.97455 0.0
C1033 C 0.65305 0.5475 0.97918 0.0
C1034 C 0.59376 0.52252 0.98598 0.0
C1035 C 0.61422 0.53051 0.98491 0.0
H1036 H 0.71636 0.59313 0.98586 0.0
H1037 H 0.68367 0.57698 0.99447 0.0
H1038 H 0.64616 0.51933 0.97097 0.0
H1039 H 0.55574 0.5074 0.9615 0.0
H1040 H 0.58882 0.5161 0.96069 0.0
C1041 C 0.44217 0.14535 0.97214 0.0
C1042 C 0.42651 0.13828 0.96185 0.0
C1043 C 0.45185 0.1355 0.97421 0.0
C1044 C 0.45715 0.09614 0.95634 0.0
H1045 H 0.4775 0.09647 0.9982 0.0
C1046 C 0.46782 0.03759 0.98354 0.0
C1047 C 0.48334 0.04312 0.99364 0.0
C1048 C 0.46536 0.05124 0.97568 0.0
C1049 C 0.47225 0.09656 0.98634 0.0
H1050 H 0.4087 0.115 0.94579 0.0
H1051 H 0.42471 0.09728 0.9502 0.0
H1052 H 0.46311 0.11572 0.99362 0.0
H1053 H 0.50914 0.06681 0.0027 0.0
H1054 H 0.50472 0.09084 0.98914 0.0
H1055 H 0.4652 0.07576 0.94957 0.0
C1056 C 0.43001 0.11082 0.95626 0.0
C1057 C 0.46396 0.10761 0.98368 0.0
C1058 C 0.42053 0.12083 0.95398 0.0
C1059 C 0.49724 0.06228 0.99471 0.0
C1060 C 0.49462 0.07599 0.98709 0.0
C1061 C 0.46514 0.08478 0.95911 0.0
C1062 C 0.44593 0.11809 0.96627 0.0
C1063 C 0.456 0.10734 0.96872 0.0
C1064 C 0.47817 0.0706 0.97818 0.0
C1065 C 0.47254 0.08472 0.9742 0.0
H1066 H 0.44706 0.15858 0.97861 0.0
H1067 H 0.46412 0.14171 0.98191 0.0
H1068 H 0.45161 0.09589 0.94454 0.0
H1069 H 0.4568 0.02287 0.98281 0.0
H1070 H 0.45251 0.04672 0.96897 0.0
C1071 C 0.69843 0.12308 0.9606 0.0
C1072 C 0.71398 0.13639 0.96964 0.0
C1073 C 0.68036 0.11501 0.96674 0.0
C1074 C 0.65387 0.1006 0.00292 0.0
H1075 H 0.61381 0.09712 0.97598 0.0
C1076 C 0.56735 0.05866 0.99769 0.0
C1077 C 0.56435 0.04011 0.9977 0.0
C1078 C 0.58566 0.07418 -0.00153 0.0
C1079 C 0.62484 0.09831 0.98383 0.0
H1080 H 0.72256 0.15145 0.9924 0.0
H1081 H 0.69086 0.13659 0.00335 0.0
H1082 H 0.64644 0.11759 0.96826 0.0
H1083 H 0.57771 0.02312 -0.00012 0.0
H1084 H 0.60948 0.05008 0.00165 0.0
H1085 H 0.63218 0.08025 0.01791 0.0
C1086 C 0.69284 0.13273 0.99141 0.0
C1087 C 0.64348 0.10988 0.97934 0.0
C1088 C 0.71097 0.14108 0.98516 0.0
C1089 C 0.5797 0.03731 -0.0003 0.0
C1090 C 0.59786 0.05273 0.00087 0.0
C1091 C 0.63518 0.08878 0.0073 0.0
C1092 C 0.67738 0.1198 0.98215 0.0
C1093 C 0.65811 0.11058 0.98854 0.0
C1094 C 0.60108 0.0713 -0.00028 0.0
C1095 C 0.62051 0.08703 0.99748 0.0
H1096 H 0.70019 0.11874 0.94878 0.0
H1097 H 0.66869 0.10473 0.9595 0.0
H1098 H 0.66492 0.10092 0.01021 0.0
H1099 H 0.5557 0.06114 0.99616 0.0
H1100 H 0.58781 0.08838 0.99753 0.0
C1101 C 0.84472 0.55313 0.97499 0.0
C1102 C 0.85277 0.57277 0.97735 0.0
C1103 C 0.85309 0.54346 0.98156 0.0
C1104 C 0.89152 0.54925 0.00923 0.0
H1105 H 0.89539 0.51517 0.97891 0.0
C1106 C 0.95651 0.54276 -0.00024 0.0
C1107 C 0.95463 0.52483 0.99744 0.0
C1108 C 0.94072 0.54457 0.00199 0.0
C1109 C 0.89409 0.52427 0.98769 0.0
H1110 H 0.8754 0.59762 0.98887 0.0
H1111 H 0.89049 0.58099 -0.00013 0.0
H1112 H 0.87336 0.52613 0.97379 0.0
H1113 H 0.93496 0.49464 0.9962 0.0
H1114 H 0.90702 0.49791 -0.00068 0.0
H1115 H 0.91354 0.54852 0.02237 0.0
C1116 C 0.87744 0.57284 0.99333 0.0
C1117 C 0.88143 0.53058 0.98479 0.0
C1118 C 0.8689 0.58245 0.98694 0.0
C1119 C 0.93671 0.50862 0.99795 0.0
C1120 C 0.9208 0.51048 -0.00025 0.0
C1121 C 0.90439 0.54315 0.01199 0.0
C1122 C 0.86987 0.55328 0.99043 0.0
C1123 C 0.88052 0.54375 0.9952 0.0
C1124 C 0.92271 0.52852 0.00157 0.0
C1125 C 0.90624 0.53117 0.00093 0.0
H1126 H 0.83207 0.5453 0.96785 0.0
H1127 H 0.84663 0.52836 0.97935 0.0
H1128 H 0.89083 0.55896 0.01773 0.0
H1129 H 0.9702 0.55545 -0.00042 0.0
H1130 H 0.94255 0.55865 0.00319 0.0
C1131 C 0.4417 0.29683 0.97331 0.0
C1132 C 0.42687 0.2901 0.96221 0.0
C1133 C 0.45302 0.31629 0.97622 0.0
C1134 C 0.46649 0.36318 0.95872 0.0
H1135 H 0.48084 0.38105 0.0023 0.0
C1136 C 0.48232 0.43565 0.98321 0.0
C1137 C 0.49265 0.44201 0.99749 0.0
C1138 C 0.48045 0.41954 0.9754 0.0
C1139 C 0.47745 0.37639 0.98997 0.0
H1140 H 0.41173 0.29829 0.94593 0.0
H1141 H 0.43114 0.33219 0.9513 0.0
H1142 H 0.46386 0.34733 0.99672 0.0
H1143 H 0.5114 0.43875 0.01355 0.0
H1144 H 0.50905 0.41132 -0.00052 0.0
H1145 H 0.47945 0.39243 0.95216 0.0
C1146 C 0.43444 0.32255 0.9574 0.0
C1147 C 0.46758 0.35696 0.9868 0.0
C1148 C 0.42321 0.30313 0.95443 0.0
C1149 C 0.50338 0.43402 0.00252 0.0
C1150 C 0.5018 0.41817 0.99458 0.0
C1151 C 0.47636 0.3827 0.96192 0.0
C1152 C 0.44965 0.32939 0.96815 0.0
C1153 C 0.46162 0.35009 0.9712 0.0
C1154 C 0.48905 0.40981 0.9818 0.0
C1155 C 0.48165 0.38952 0.97764 0.0
H1156 H 0.44498 0.28711 0.97931 0.0
H1157 H 0.46469 0.32109 0.9845 0.0
H1158 H 0.46242 0.35834 0.94651 0.0
H1159 H 0.47377 0.44154 0.97926 0.0
H1160 H 0.47059 0.41357 0.96553 0.0
C1161 C 0.12148 0.69023 0.05216 0.0
C1162 C 0.13729 0.7035 0.04373 0.0
C1163 C 0.11388 0.67083 0.04933 0.0
C1164 C 0.11187 0.63726 0.01873 0.0
H1165 H 0.08887 0.60073 0.05265 0.0
C1166 C 0.06779 0.56154 0.00077 0.0
C1167 C 0.04941 0.55447 0.00614 0.0
C1168 C 0.08276 0.57631 0.00905 0.0
C1169 C 0.09539 0.61076 0.04309 0.0
H1170 H 0.15772 0.70692 0.02591 0.0
H1171 H 0.14455 0.67303 0.02101 0.0
H1172 H 0.10667 0.63462 0.05915 0.0
H1173 H 0.03224 0.5553 0.02523 0.0
H1174 H 0.05825 0.58147 0.03954 0.0
H1175 H 0.10013 0.61375 0.00259 0.0
C1176 C 0.13782 0.67759 0.02964 0.0
C1177 C 0.10546 0.63016 0.04678 0.0
C1178 C 0.14533 0.697 0.03238 0.0
C1179 C 0.04638 0.56049 0.02098 0.0
C1180 C 0.06133 0.57555 0.02915 0.0
C1181 C 0.10193 0.61796 0.01506 0.0
C1182 C 0.122 0.66426 0.03808 0.0
C1183 C 0.11336 0.64365 0.03457 0.0
C1184 C 0.07942 0.58457 0.02252 0.0
C1185 C 0.09312 0.60448 0.02713 0.0
H1186 H 0.11492 0.69488 0.06089 0.0
H1187 H 0.10143 0.66101 0.05577 0.0
H1188 H 0.11751 0.64719 0.009 0.0
H1189 H 0.07037 0.55702 0.98932 0.0
H1190 H 0.09664 0.5826 0.00393 0.0
C1191 C 0.29578 0.41624 0.0426 0.0
C1192 C 0.28137 0.41734 0.03456 0.0
C1193 C 0.31414 0.42607 0.03703 0.0
C1194 C 0.34314 0.44739 0.00212 0.0
H1195 H 0.38188 0.47492 0.03409 0.0
C1196 C 0.41798 0.46046 -0.00032 0.0
C1197 C 0.43268 0.47713 0.00639 0.0
C1198 C 0.3998 0.45755 -0.00071 0.0
C1199 C 0.37126 0.46767 0.02493 0.0
H1200 H 0.27486 0.42916 0.01403 0.0
H1201 H 0.30703 0.44607 0.00411 0.0
H1202 H 0.349 0.46016 0.04152 0.0
H1203 H 0.44045 0.50433 0.01716 0.0
H1204 H 0.40834 0.49903 0.01694 0.0
H1205 H 0.36553 0.4542 0.9857 0.0
C1206 C 0.30402 0.43764 0.01477 0.0
C1207 C 0.35244 0.45901 0.02924 0.0
C1208 C 0.28561 0.42787 0.02041 0.0
C1209 C 0.42925 0.49142 0.01183 0.0
C1210 C 0.41094 0.48836 0.01175 0.0
C1211 C 0.36203 0.4559 0.99783 0.0
C1212 C 0.3185 0.43715 0.02325 0.0
C1213 C 0.33823 0.44829 0.01801 0.0
C1214 C 0.39596 0.47109 0.00598 0.0
C1215 C 0.37626 0.46567 0.00932 0.0
H1216 H 0.29291 0.40795 0.05334 0.0
H1217 H 0.32498 0.42509 0.04358 0.0
H1218 H 0.33243 0.43926 0.99323 0.0
H1219 H 0.42041 0.44928 0.99546 0.0
H1220 H 0.38855 0.44405 0.99492 0.0
C1221 C 0.5482 0.8543 0.03829 0.0
C1222 C 0.56322 0.86325 0.04918 0.0
C1223 C 0.53657 0.86186 0.03531 0.0
C1224 C 0.52321 0.89636 0.05108 0.0
H1225 H 0.50937 0.89692 0.00694 0.0
C1226 C 0.50873 0.95168 0.02289 0.0
C1227 C 0.49866 0.94671 0.00844 0.0
C1228 C 0.51014 0.93788 0.03163 0.0
C1229 C 0.5126 0.89648 0.01942 0.0
H1230 H 0.57803 0.88724 0.06532 0.0
H1231 H 0.55809 0.9008 0.05977 0.0
H1232 H 0.52597 0.88054 0.0139 0.0
H1233 H 0.47982 0.92345 0.99301 0.0
H1234 H 0.48136 0.89919 0.00868 0.0
H1235 H 0.51054 0.91324 0.05635 0.0
C1236 C 0.55493 0.88764 0.05387 0.0
C1237 C 0.52225 0.88711 0.02341 0.0
C1238 C 0.56646 0.87998 0.05695 0.0
C1239 C 0.48767 0.92753 0.00415 0.0
C1240 C 0.48878 0.91372 0.01302 0.0
C1241 C 0.51357 0.90586 0.04706 0.0
C1242 C 0.53981 0.87865 0.04303 0.0
C1243 C 0.52802 0.88722 0.03922 0.0
C1244 C 0.50134 0.919 0.02601 0.0
C1245 C 0.50845 0.90631 0.03111 0.0
H1246 H 0.54518 0.84121 0.03234 0.0
H1247 H 0.52492 0.85441 0.02706 0.0
H1248 H 0.52716 0.89644 0.06344 0.0
H1249 H 0.51749 0.96645 0.02629 0.0
H1250 H 0.51985 0.94246 0.04164 0.0
C1251 C 0.9578 0.19135 0.3546 0.0
C1252 C 0.94962 0.1946 0.36809 0.0
C1253 C 0.97674 0.20364 0.35113 0.0
C1254 C 0.01518 0.25227 0.35983 0.0
H1255 H 0.04859 0.2333 0.34898 0.0
C1256 C 0.09415 0.299 0.36712 0.0
C1257 C 0.10558 0.2997 0.35443 0.0
C1258 C 0.07523 0.28519 0.36739 0.0
C1259 C 0.03936 0.23878 0.35181 0.0
H1260 H 0.95509 0.21285 0.38881 0.0
H1261 H 0.98784 0.23414 0.38278 0.0
H1262 H 0.01484 0.21107 0.35152 0.0
H1263 H 0.10621 0.2858 0.3324 0.0
H1264 H 0.0729 0.26157 0.3329 0.0
H1265 H 0.03954 0.27983 0.36047 0.0
C1266 C 0.9796 0.22243 0.37464 0.0
C1267 C 0.02007 0.22609 0.35323 0.0
C1268 C 0.96079 0.21023 0.37808 0.0
C1269 C 0.09777 0.28571 0.34232 0.0
C1270 C 0.07873 0.27181 0.34261 0.0
C1271 C 0.03434 0.26486 0.35847 0.0
C1272 C 0.9878 0.21937 0.36109 0.0
C1273 C 0.00787 0.2327 0.35767 0.0
C1274 C 0.0672 0.27172 0.35498 0.0
C1275 C 0.04671 0.25823 0.35485 0.0
H1276 H 0.94953 0.17944 0.34666 0.0
H1277 H 0.98267 0.20097 0.34057 0.0
H1278 H 0.00609 0.25786 0.36286 0.0
H1279 H 0.09971 0.30934 0.37678 0.0
H1280 H 0.06678 0.28519 0.37728 0.0
C1281 C 0.80871 0.7779 0.37472 0.0
C1282 C 0.80771 0.76274 0.3659 0.0
C1283 C 0.79881 0.78671 0.36975 0.0
C1284 C 0.75853 0.77824 0.34398 0.0
H1285 H 0.77478 0.83014 0.35662 0.0
C1286 C 0.71374 0.81376 0.33376 0.0
C1287 C 0.70708 0.81569 0.34867 0.0
C1288 C 0.72904 0.81081 0.33291 0.0
C1289 C 0.77024 0.81573 0.35283 0.0
H1290 H 0.79621 0.74517 0.34473 0.0
H1291 H 0.77945 0.76107 0.33553 0.0
H1292 H 0.79616 0.81778 0.35985 0.0
H1293 H 0.71185 0.81757 0.37424 0.0
H1294 H 0.73912 0.81317 0.37269 0.0
H1295 H 0.73265 0.77641 0.33689 0.0
C1296 C 0.78737 0.76584 0.34659 0.0
C1297 C 0.78234 0.80852 0.35485 0.0
C1298 C 0.797 0.75675 0.35179 0.0
C1299 C 0.71669 0.81597 0.36263 0.0
C1300 C 0.7323 0.81359 0.36174 0.0
C1301 C 0.74664 0.78561 0.34163 0.0
C1302 C 0.78794 0.7808 0.35562 0.0
C1303 C 0.77637 0.78944 0.35103 0.0
C1304 C 0.7382 0.81039 0.34693 0.0
C1305 C 0.75219 0.80418 0.34651 0.0
H1306 H 0.81678 0.78262 0.38573 0.0
H1307 H 0.79928 0.79778 0.3773 0.0
H1308 H 0.75324 0.76345 0.34107 0.0
H1309 H 0.70649 0.81346 0.32285 0.0
H1310 H 0.73336 0.80826 0.32139 0.0
C1311 C 0.21973 0.04142 0.35329 0.0
C1312 C 0.22902 0.04666 0.36814 0.0
C1313 C 0.21 0.0224 0.34844 0.0
C1314 C 0.1868 0.97363 0.36295 0.0
H1315 H 0.20089 0.96154 0.32234 0.0
C1316 C 0.17364 0.89906 0.34631 0.0
C1317 C 0.17351 0.89447 0.33012 0.0
C1318 C 0.17571 0.9166 0.35076 0.0
C1319 C 0.1963 0.96454 0.33351 0.0
H1320 H 0.23503 0.03619 0.38976 0.0
H1321 H 0.2178 0.00284 0.38134 0.0
H1322 H 0.21398 0.99443 0.33045 0.0
H1323 H 0.17326 0.90334 0.3059 0.0
H1324 H 0.17547 0.93329 0.31357 0.0
H1325 H 0.16905 0.94375 0.36604 0.0
C1326 C 0.21813 0.01347 0.37345 0.0
C1327 C 0.20397 0.98348 0.3382 0.0
C1328 C 0.22814 0.03252 0.37818 0.0
C1329 C 0.17344 0.90668 0.31848 0.0
C1330 C 0.175 0.92396 0.3229 0.0
C1331 C 0.17884 0.95463 0.35815 0.0
C1332 C 0.2091 0.00825 0.35848 0.0
C1333 C 0.19958 0.98819 0.35307 0.0
C1334 C 0.17732 0.92967 0.33906 0.0
C1335 C 0.18375 0.9498 0.34347 0.0
H1336 H 0.22023 0.05208 0.34534 0.0
H1337 H 0.20314 0.01872 0.33684 0.0
H1338 H 0.18306 0.97695 0.37443 0.0
H1339 H 0.17392 0.88992 0.35549 0.0
H1340 H 0.17749 0.92042 0.36331 0.0
C1341 C 0.54028 0.63279 0.27897 0.0
C1342 C 0.53073 0.62143 0.29207 0.0
C1343 C 0.55101 0.65247 0.28074 0.0
C1344 C 0.57975 0.68823 0.30923 0.0
H1345 H 0.57127 0.72406 0.28555 0.0
C1346 C 0.59966 0.76518 0.32562 0.0
C1347 C 0.6191 0.77334 0.32751 0.0
C1348 C 0.5897 0.74915 0.31585 0.0
C1349 C 0.57391 0.71416 0.29201 0.0
H1350 H 0.52459 0.6215 0.31717 0.0
H1351 H 0.54403 0.65603 0.32045 0.0
H1352 H 0.5513 0.68977 0.28033 0.0
H1353 H 0.64372 0.77248 0.31988 0.0
H1354 H 0.62624 0.74405 0.30319 0.0
H1355 H 0.60224 0.71238 0.32094 0.0
C1356 C 0.54297 0.64966 0.3088 0.0
C1357 C 0.56252 0.69466 0.28909 0.0
C1358 C 0.53191 0.63002 0.30694 0.0
C1359 C 0.62873 0.76654 0.31833 0.0
C1360 C 0.61875 0.75026 0.30887 0.0
C1361 C 0.59137 0.70763 0.31185 0.0
C1362 C 0.55265 0.661 0.29572 0.0
C1363 C 0.56516 0.6816 0.29794 0.0
C1364 C 0.59908 0.74088 0.3083 0.0
C1365 C 0.58838 0.72073 0.30344 0.0
H1366 H 0.53937 0.62642 0.26735 0.0
H1367 H 0.55842 0.66097 0.27054 0.0
H1368 H 0.58208 0.67839 0.31611 0.0
H1369 H 0.592 0.7701 0.33282 0.0
H1370 H 0.57452 0.74205 0.31565 0.0
C1371 C 0.36273 0.90494 0.29163 0.0
C1372 C 0.37651 0.9037 0.30061 0.0
C1373 C 0.34412 0.89583 0.29668 0.0
C1374 C 0.30966 0.85798 0.32229 0.0
H1375 H 0.28615 0.88896 0.32317 0.0
C1376 C 0.24248 0.86178 0.34881 0.0
C1377 C 0.22728 0.84772 0.34 0.0
C1378 C 0.26053 0.86498 0.3463 0.0
C1379 C 0.29258 0.88016 0.32304 0.0
H1380 H 0.38149 0.89191 0.32198 0.0
H1381 H 0.34892 0.87591 0.33071 0.0
H1382 H 0.31782 0.90214 0.31292 0.0
H1383 H 0.21854 0.82444 0.32312 0.0
H1384 H 0.2504 0.83015 0.31865 0.0
H1385 H 0.28403 0.83591 0.33236 0.0
C1386 C 0.35254 0.88375 0.31966 0.0
C1387 C 0.31061 0.88764 0.31703 0.0
C1388 C 0.37118 0.89295 0.31467 0.0
C1389 C 0.23006 0.83537 0.33007 0.0
C1390 C 0.24826 0.83864 0.32749 0.0
C1391 C 0.29137 0.85035 0.32812 0.0
C1392 C 0.33887 0.88522 0.31078 0.0
C1393 C 0.3194 0.87671 0.31668 0.0
C1394 C 0.26368 0.8542 0.3349 0.0
C1395 C 0.28283 0.86153 0.32872 0.0
H1396 H 0.36628 0.91279 0.2806 0.0
H1397 H 0.3338 0.89704 0.28952 0.0
H1398 H 0.31613 0.84923 0.32205 0.0
H1399 H 0.24064 0.87134 0.35668 0.0
H1400 H 0.27222 0.87688 0.35231 0.0
C1401 C 0.10788 0.47207 0.29255 0.0
C1402 C 0.08822 0.46355 0.29323 0.0
C1403 C 0.11662 0.46124 0.2938 0.0
C1404 C 0.10771 0.41365 0.30643 0.0
H1405 H 0.15659 0.43148 0.28753 0.0
C1406 C 0.14738 0.37424 0.31667 0.0
C1407 C 0.16124 0.38515 0.3281 0.0
C1408 C 0.1399 0.38276 0.30697 0.0
C1409 C 0.14281 0.42621 0.29261 0.0
H1410 H 0.06247 0.4366 0.29594 0.0
H1411 H 0.07756 0.41765 0.29696 0.0
H1412 H 0.13923 0.44784 0.28181 0.0
H1413 H 0.17977 0.41353 0.33711 0.0
H1414 H 0.16737 0.42856 0.31958 0.0
H1415 H 0.11136 0.39191 0.31705 0.0
C1416 C 0.08634 0.43286 0.29596 0.0
C1417 C 0.13294 0.43572 0.2896 0.0
C1418 C 0.0776 0.44377 0.29511 0.0
C1419 C 0.16922 0.40491 0.32825 0.0
C1420 C 0.1621 0.41348 0.31827 0.0
C1421 C 0.11735 0.40389 0.30907 0.0
C1422 C 0.10601 0.44143 0.29536 0.0
C1423 C 0.1155 0.42996 0.29691 0.0
C1424 C 0.1466 0.40231 0.30832 0.0
C1425 C 0.13516 0.41037 0.30253 0.0
H1426 H 0.11666 0.48716 0.29078 0.0
H1427 H 0.13179 0.46855 0.29368 0.0
H1428 H 0.09456 0.40886 0.31254 0.0
H1429 H 0.14079 0.35893 0.31656 0.0
H1430 H 0.1279 0.3739 0.2994 0.0
C1431 C 0.37097 0.48258 0.30437 0.0
C1432 C 0.38244 0.47454 0.30639 0.0
C1433 C 0.35287 0.47376 0.31059 0.0
C1434 C 0.31997 0.43397 0.33686 0.0
H1435 H 0.28241 0.43151 0.30734 0.0
C1436 C 0.24691 0.36965 0.32677 0.0
C1437 C 0.23139 0.37237 0.32653 0.0
C1438 C 0.26503 0.38511 0.32829 0.0
C1439 C 0.29274 0.43239 0.31587 0.0
H1440 H 0.38433 0.45138 0.31689 0.0
H1441 H 0.35253 0.43549 0.32722 0.0
H1442 H 0.31541 0.45359 0.30249 0.0
H1443 H 0.22249 0.39326 0.32797 0.0
H1444 H 0.25451 0.42057 0.32983 0.0
H1445 H 0.29709 0.4115 0.34942 0.0
C1446 C 0.35756 0.44889 0.32125 0.0
C1447 C 0.3117 0.44508 0.31315 0.0
C1448 C 0.37576 0.45789 0.31523 0.0
C1449 C 0.23427 0.39083 0.32812 0.0
C1450 C 0.25249 0.40639 0.32921 0.0
C1451 C 0.30102 0.42104 0.3394 0.0
C1452 C 0.34573 0.45652 0.31876 0.0
C1453 C 0.32561 0.44557 0.3233 0.0
C1454 C 0.26799 0.4036 0.32924 0.0
C1455 C 0.28733 0.41977 0.32864 0.0
H1456 H 0.37596 0.49562 0.29781 0.0
H1457 H 0.34436 0.48027 0.30873 0.0
H1458 H 0.33023 0.43432 0.34518 0.0
H1459 H 0.24505 0.35555 0.32572 0.0
H1460 H 0.2768 0.38266 0.32812 0.0
C1461 C 0.51147 0.88492 0.30721 0.0
C1462 C 0.51969 0.90446 0.3103 0.0
C1463 C 0.51939 0.87468 0.31347 0.0
C1464 C 0.55607 0.87796 0.3419 0.0
H1465 H 0.56053 0.84508 0.31064 0.0
C1466 C 0.62014 0.86963 0.33465 0.0
C1467 C 0.61805 0.85192 0.33071 0.0
C1468 C 0.60446 0.87165 0.33671 0.0
C1469 C 0.55903 0.8538 0.31969 0.0
H1470 H 0.54216 0.92851 0.32279 0.0
H1471 H 0.55647 0.91085 0.33332 0.0
H1472 H 0.53963 0.85737 0.30531 0.0
H1473 H 0.5981 0.8222 0.32652 0.0
H1474 H 0.57034 0.8259 0.32944 0.0
H1475 H 0.5767 0.87544 0.35565 0.0
C1476 C 0.54363 0.90325 0.3264 0.0
C1477 C 0.54704 0.8609 0.31664 0.0
C1478 C 0.53554 0.91344 0.32029 0.0
C1479 C 0.59998 0.836 0.32955 0.0
C1480 C 0.58419 0.83812 0.33122 0.0
C1481 C 0.56824 0.87102 0.34484 0.0
C1482 C 0.53587 0.88381 0.3228 0.0
C1483 C 0.54593 0.87364 0.32744 0.0
C1484 C 0.58635 0.85607 0.33451 0.0
C1485 C 0.57032 0.85944 0.33349 0.0
H1486 H 0.49901 0.87761 0.29977 0.0
H1487 H 0.51279 0.85968 0.31072 0.0
H1488 H 0.55521 0.88734 0.35066 0.0
H1489 H 0.63396 0.88207 0.33573 0.0
H1490 H 0.60657 0.88568 0.33906 0.0
C1491 C 0.08956 0.633 0.28971 0.0
C1492 C 0.09411 0.62062 0.29749 0.0
C1493 C 0.10029 0.65253 0.29229 0.0
C1494 C 0.13445 0.6889 0.32003 0.0
H1495 H 0.14345 0.72202 0.28405 0.0
C1496 C 0.16895 0.76691 0.33226 0.0
C1497 C 0.15722 0.77381 0.32738 0.0
C1498 C 0.16751 0.75078 0.32493 0.0
C1499 C 0.14118 0.71296 0.29418 0.0
H1500 H 0.11305 0.61879 0.31439 0.0
H1501 H 0.13199 0.65305 0.31892 0.0
H1502 H 0.12698 0.68769 0.27987 0.0
H1503 H 0.13656 0.77104 0.30996 0.0
H1504 H 0.1338 0.74276 0.29721 0.0
H1505 H 0.14806 0.71397 0.33444 0.0
C1506 C 0.12002 0.64766 0.3109 0.0
C1507 C 0.13162 0.6933 0.29183 0.0
C1508 C 0.10916 0.62805 0.30839 0.0
C1509 C 0.14592 0.76605 0.31374 0.0
C1510 C 0.14429 0.74976 0.30651 0.0
C1511 C 0.14405 0.70851 0.32237 0.0
C1512 C 0.11592 0.66015 0.30263 0.0
C1513 C 0.12771 0.68103 0.30481 0.0
C1514 C 0.154 0.74115 0.31287 0.0
C1515 C 0.14715 0.72077 0.30955 0.0
H1516 H 0.0779 0.62757 0.28134 0.0
H1517 H 0.09638 0.66166 0.28609 0.0
H1518 H 0.13154 0.67992 0.33032 0.0
H1519 H 0.17767 0.77267 0.34285 0.0
H1520 H 0.17555 0.74476 0.32981 0.0
C1521 C 0.78866 0.02138 0.38492 0.0
C1522 C 0.80465 0.03419 0.37644 0.0
C1523 C 0.78006 0.00195 0.38179 0.0
C1524 C 0.77611 0.9676 0.351 0.0
H1525 H 0.75333 0.93162 0.38535 0.0
C1526 C 0.73143 0.89179 0.3339 0.0
C1527 C 0.7131 0.88513 0.33918 0.0
C1528 C 0.74651 0.90651 0.34211 0.0
C1529 C 0.75979 0.9415 0.37567 0.0
H1530 H 0.82416 0.03688 0.35801 0.0
H1531 H 0.80928 0.00288 0.35259 0.0
H1532 H 0.77178 0.96555 0.39152 0.0
H1533 H 0.69602 0.88652 0.35809 0.0
H1534 H 0.72226 0.91266 0.37228 0.0
H1535 H 0.76375 0.94385 0.33511 0.0
C1536 C 0.8032 0.00782 0.36151 0.0
C1537 C 0.77021 0.96093 0.37916 0.0
C1538 C 0.8117 0.02729 0.36455 0.0
C1539 C 0.71014 0.89145 0.35391 0.0
C1540 C 0.72521 0.90646 0.362 0.0
C1541 C 0.76585 0.94827 0.34754 0.0
C1542 C 0.78736 0.9949 0.37019 0.0
C1543 C 0.77806 0.97422 0.36681 0.0
C1544 C 0.7433 0.9151 0.35541 0.0
C1545 C 0.75718 0.935 0.35977 0.0
H1546 H 0.78289 0.02641 0.39407 0.0
H1547 H 0.7676 0.99248 0.38839 0.0
H1548 H 0.78169 0.97738 0.34116 0.0
H1549 H 0.73393 0.88701 0.32253 0.0
H1550 H 0.76038 0.91254 0.33702 0.0
C1551 C 0.95691 0.75202 0.35951 0.0
C1552 C 0.95072 0.76014 0.37111 0.0
C1553 C 0.97509 0.76224 0.35351 0.0
C1554 C 0.02194 0.80145 0.36449 0.0
H1555 H 0.03352 0.79403 0.32112 0.0
C1556 C 0.09794 0.82801 0.3455 0.0
C1557 C 0.09982 0.81268 0.34018 0.0
C1558 C 0.08016 0.82629 0.34608 0.0
C1559 C 0.03047 0.79641 0.33321 0.0
H1560 H 0.95847 0.78564 0.38499 0.0
H1561 H 0.99018 0.80346 0.37452 0.0
H1562 H 0.00086 0.78168 0.32878 0.0
H1563 H 0.08525 0.78427 0.3302 0.0
H1564 H 0.05437 0.78144 0.33073 0.0
H1565 H 0.05149 0.81562 0.36905 0.0
C1566 C 0.98112 0.78908 0.37027 0.0
C1567 C 0.0118 0.78922 0.33764 0.0
C1568 C 0.96297 0.77884 0.37631 0.0
C1569 C 0.08405 0.79626 0.33431 0.0
C1570 C 0.06642 0.7947 0.33455 0.0
C1571 C 0.04061 0.80875 0.36003 0.0
C1572 C 0.98748 0.78084 0.35892 0.0
C1573 C 0.00728 0.79105 0.3535 0.0
C1574 C 0.06417 0.80939 0.34101 0.0
C1575 C 0.04501 0.80569 0.3445 0.0
H1576 H 0.94784 0.7376 0.35534 0.0
H1577 H 0.97962 0.75531 0.34499 0.0
H1578 H 0.019 0.803 0.37683 0.0
H1579 H 0.10997 0.84073 0.3502 0.0
H1580 H 0.07878 0.83782 0.35111 0.0
C1581 C 0.23737 0.21472 0.38837 0.0
C1582 C 0.23389 0.19797 0.3805 0.0
C1583 C 0.22596 0.22257 0.38546 0.0
C1584 C 0.19262 0.22212 0.35561 0.0
H1585 H 0.18151 0.24811 0.38912 0.0
C1586 C 0.15499 0.26039 0.33823 0.0
C1587 C 0.16571 0.27972 0.3421 0.0
C1588 C 0.15734 0.24714 0.34683 0.0
C1589 C 0.18439 0.24077 0.37968 0.0
H1590 H 0.21559 0.1761 0.36365 0.0
H1591 H 0.19552 0.18958 0.35871 0.0
H1592 H 0.19864 0.23164 0.3956 0.0
H1593 H 0.18554 0.30029 0.35896 0.0
H1594 H 0.18993 0.27724 0.37392 0.0
H1595 H 0.17892 0.23154 0.33962 0.0
C1596 C 0.20729 0.19694 0.36687 0.0
C1597 C 0.19433 0.23147 0.38335 0.0
C1598 C 0.2188 0.18922 0.36966 0.0
C1599 C 0.17692 0.28538 0.35594 0.0
C1600 C 0.17951 0.27215 0.36444 0.0
C1601 C 0.18264 0.23126 0.35199 0.0
C1602 C 0.21071 0.21373 0.37473 0.0
C1603 C 0.19887 0.22234 0.37127 0.0
C1604 C 0.17081 0.25315 0.35916 0.0
C1605 C 0.17866 0.24097 0.3639 0.0
H1606 H 0.24898 0.22181 0.39672 0.0
H1607 H 0.22927 0.23572 0.39146 0.0
H1608 H 0.19613 0.21558 0.34594 0.0
H1609 H 0.1463 0.25578 0.32755 0.0
H1610 H 0.15006 0.23251 0.34277 0.0
C1611 C 0.62045 0.53342 0.68774 0.0
C1612 C 0.61459 0.51912 0.69922 0.0
C1613 C 0.6395 0.54473 0.68425 0.0
C1614 C 0.68338 0.5663 0.70423 0.0
H1615 H 0.70756 0.57494 0.66308 0.0
C1616 C 0.76198 0.61905 0.69918 0.0
C1617 C 0.76833 0.6299 0.68534 0.0
C1618 C 0.74382 0.60354 0.69977 0.0
C1619 C 0.70101 0.57293 0.67463 0.0
H1620 H 0.62386 0.5051 0.71575 0.0
H1621 H 0.6572 0.52526 0.70995 0.0
H1622 H 0.67423 0.5514 0.66544 0.0
H1623 H 0.76116 0.63327 0.66121 0.0
H1624 H 0.72889 0.607 0.66251 0.0
H1625 H 0.70936 0.58839 0.71344 0.0
C1626 C 0.64703 0.52745 0.7035 0.0
C1627 C 0.68198 0.55934 0.67595 0.0
C1628 C 0.628 0.51593 0.70677 0.0
C1629 C 0.75643 0.62497 0.672 0.0
C1630 C 0.73802 0.6098 0.67274 0.0
C1631 C 0.7022 0.58015 0.70288 0.0
C1632 C 0.65293 0.54213 0.69243 0.0
C1633 C 0.67309 0.55593 0.69079 0.0
C1634 C 0.73137 0.59898 0.68673 0.0
C1635 C 0.71136 0.58369 0.68807 0.0
H1636 H 0.61034 0.53606 0.68173 0.0
H1637 H 0.64382 0.55609 0.67574 0.0
H1638 H 0.67669 0.56406 0.71576 0.0
H1639 H 0.77114 0.62251 0.70951 0.0
H1640 H 0.73956 0.59525 0.71056 0.0
C1641 C 0.47404 0.11086 0.70898 0.0
C1642 C 0.47276 0.09606 0.69942 0.0
C1643 C 0.46351 0.11942 0.70525 0.0
C1644 C 0.42146 0.11069 0.6818 0.0
H1645 H 0.43799 0.16259 0.69466 0.0
C1646 C 0.37935 0.14859 0.66922 0.0
C1647 C 0.37304 0.15269 0.68347 0.0
C1648 C 0.39343 0.14382 0.66958 0.0
C1649 C 0.43331 0.14812 0.69096 0.0
H1650 H 0.46018 0.07896 0.67819 0.0
H1651 H 0.4424 0.09451 0.6711 0.0
H1652 H 0.45945 0.15024 0.69725 0.0
H1653 H 0.37717 0.15606 0.70912 0.0
H1654 H 0.40232 0.14827 0.70965 0.0
H1655 H 0.39546 0.10889 0.67518 0.0
C1656 C 0.45097 0.09913 0.68183 0.0
C1657 C 0.44548 0.14094 0.69255 0.0
C1658 C 0.46122 0.09028 0.68579 0.0
C1659 C 0.3817 0.15285 0.69799 0.0
C1660 C 0.3961 0.14851 0.69829 0.0
C1661 C 0.40948 0.11802 0.67988 0.0
C1662 C 0.45172 0.11362 0.69167 0.0
C1663 C 0.43957 0.12197 0.68835 0.0
C1664 C 0.40175 0.14355 0.68413 0.0
C1665 C 0.41519 0.13664 0.68475 0.0
H1666 H 0.48274 0.11539 0.71965 0.0
H1667 H 0.46421 0.13018 0.71335 0.0
H1668 H 0.41619 0.09595 0.67869 0.0
H1669 H 0.3729 0.14832 0.65785 0.0
H1670 H 0.39762 0.14002 0.65854 0.0
C1671 C 0.88726 0.36902 0.71286 0.0
C1672 C 0.90541 0.38112 0.70704 0.0
C1673 C 0.87852 0.34944 0.71039 0.0
C1674 C 0.88772 0.31065 0.70089 0.0
H1675 H 0.83721 0.28527 0.6833 0.0
C1676 C 0.84181 0.24318 0.65862 0.0
C1677 C 0.84325 0.22875 0.66637 0.0
C1678 C 0.84671 0.26014 0.66656 0.0
C1679 C 0.85123 0.29213 0.68839 0.0
H1680 H 0.92855 0.38197 0.69403 0.0
H1681 H 0.9133 0.34773 0.68986 0.0
H1682 H 0.85198 0.31861 0.69131 0.0
H1683 H 0.85022 0.22038 0.6887 0.0
H1684 H 0.85922 0.25044 0.70259 0.0
H1685 H 0.88714 0.28427 0.69745 0.0
C1686 C 0.90595 0.35347 0.69647 0.0
C1687 C 0.85966 0.31117 0.69302 0.0
C1688 C 0.91466 0.37309 0.69883 0.0
C1689 C 0.84893 0.23127 0.68247 0.0
C1690 C 0.85417 0.24846 0.69037 0.0
C1691 C 0.87919 0.29152 0.69642 0.0
C1692 C 0.88776 0.34146 0.70216 0.0
C1693 C 0.87817 0.32076 0.69892 0.0
C1694 C 0.8534 0.26316 0.68236 0.0
C1695 C 0.86106 0.28224 0.68972 0.0
H1696 H 0.87988 0.37464 0.71957 0.0
H1697 H 0.86456 0.34051 0.71505 0.0
H1698 H 0.90192 0.31764 0.70559 0.0
H1699 H 0.83741 0.24159 0.64622 0.0
H1700 H 0.84615 0.27127 0.66004 0.0
C1701 C 0.2031 0.96486 0.61587 0.0
C1702 C 0.1971 0.95166 0.62825 0.0
C1703 C 0.21415 0.98424 0.61928 0.0
C1704 C 0.24599 0.01692 0.65021 0.0
H1705 H 0.23427 0.0537 0.63258 0.0
C1706 C 0.27106 0.08773 0.68058 0.0
C1707 C 0.28213 0.10395 0.6715 0.0
C1708 C 0.26054 0.07011 0.67319 0.0
C1709 C 0.23781 0.04358 0.63738 0.0
H1710 H 0.19754 0.94786 0.65371 0.0
H1711 H 0.21689 0.98172 0.65979 0.0
H1712 H 0.21651 0.02046 0.62356 0.0
H1713 H 0.28973 0.11462 0.64741 0.0
H1714 H 0.27091 0.08345 0.63439 0.0
H1715 H 0.2668 0.03977 0.66438 0.0
C1716 C 0.21328 0.97723 0.64745 0.0
C1717 C 0.22771 0.02462 0.63224 0.0
C1718 C 0.20216 0.95792 0.64404 0.0
C1719 C 0.28138 0.10235 0.65472 0.0
C1720 C 0.27066 0.08458 0.64728 0.0
C1721 C 0.25595 0.03573 0.65536 0.0
C1722 C 0.21946 0.99059 0.63511 0.0
C1723 C 0.23139 0.01103 0.63897 0.0
C1724 C 0.26071 0.06827 0.65655 0.0
C1725 C 0.25161 0.0491 0.64933 0.0
H1726 H 0.19922 0.96015 0.60359 0.0
H1727 H 0.21876 0.99421 0.60955 0.0
H1728 H 0.24946 0.00687 0.6553 0.0
H1729 H 0.27109 0.08847 0.6935 0.0
H1730 H 0.25268 0.05774 0.68055 0.0
C1731 C 0.03992 0.25429 0.64456 0.0
C1732 C 0.0461 0.24362 0.63595 0.0
C1733 C 0.02118 0.24612 0.64915 0.0
C1734 C 0.97655 0.20049 0.65323 0.0
H1735 H 0.95409 0.23084 0.64202 0.0
C1736 C 0.9003 0.1917 0.63663 0.0
C1737 C 0.88966 0.18343 0.65036 0.0
C1738 C 0.91932 0.19745 0.63635 0.0
C1739 C 0.96017 0.2222 0.64522 0.0
H1740 H 0.03761 0.21589 0.62575 0.0
H1741 H 0.00493 0.20171 0.63364 0.0
H1742 H 0.98786 0.24445 0.64009 0.0
H1743 H 0.89039 0.17348 0.67418 0.0
H1744 H 0.92382 0.18351 0.67357 0.0
H1745 H 0.94854 0.17807 0.658 0.0
C1746 C 0.0146 0.21628 0.63708 0.0
C1747 C 0.97954 0.23007 0.6443 0.0
C1748 C 0.03332 0.22444 0.63251 0.0
C1749 C 0.89823 0.17995 0.66346 0.0
C1750 C 0.91733 0.18563 0.66312 0.0
C1751 C 0.95709 0.19264 0.65429 0.0
C1752 C 0.00825 0.22714 0.64517 0.0
C1753 C 0.98793 0.21922 0.64801 0.0
C1754 C 0.92813 0.19497 0.64974 0.0
C1755 C 0.94873 0.20334 0.64993 0.0
H1756 H 0.04953 0.26899 0.64764 0.0
H1757 H 0.01674 0.25476 0.65558 0.0
H1758 H 0.98266 0.19185 0.65627 0.0
H1759 H 0.89411 0.19436 0.62625 0.0
H1760 H 0.92729 0.20428 0.62576 0.0
C1761 C 0.77626 0.81284 0.63805 0.0
C1762 C 0.76158 0.8059 0.62676 0.0
C1763 C 0.7864 0.80357 0.64053 0.0
C1764 C 0.7967 0.76766 0.62286 0.0
H1765 H 0.81141 0.76567 0.66647 0.0
C1766 C 0.81644 0.71445 0.65014 0.0
C1767 C 0.82885 0.72132 0.66324 0.0
C1768 C 0.81241 0.72675 0.64167 0.0
C1769 C 0.80776 0.7664 0.65416 0.0
H1770 H 0.74607 0.78359 0.60922 0.0
H1771 H 0.76319 0.76688 0.61411 0.0
H1772 H 0.79455 0.78216 0.66075 0.0
H1773 H 0.84886 0.74643 0.6763 0.0
H1774 H 0.84245 0.76799 0.66115 0.0
H1775 H 0.80929 0.75089 0.61658 0.0
C1776 C 0.76717 0.77981 0.62076 0.0
C1777 C 0.79804 0.77587 0.65087 0.0
C1778 C 0.75713 0.78923 0.61816 0.0
C1779 C 0.83921 0.74088 0.66625 0.0
C1780 C 0.8354 0.75316 0.65767 0.0
C1781 C 0.80631 0.75791 0.62621 0.0
C1782 C 0.78196 0.78689 0.63198 0.0
C1783 C 0.79241 0.77672 0.63519 0.0
C1784 C 0.82088 0.74597 0.64622 0.0
C1785 C 0.81202 0.75731 0.64191 0.0
H1786 H 0.77995 0.82548 0.64506 0.0
H1787 H 0.79784 0.80961 0.64911 0.0
H1788 H 0.79272 0.76816 0.61062 0.0
H1789 H 0.8082 0.69935 0.64773 0.0
H1790 H 0.80122 0.72084 0.63283 0.0
C1791 C 0.0345 0.78088 0.62962 0.0
C1792 C 0.04762 0.79773 0.63739 0.0
C1793 C 0.01569 0.77181 0.63386 0.0
C1794 C 0.98137 0.76276 0.66365 0.0
H1795 H 0.94928 0.75521 0.62701 0.0
C1796 C 0.89957 0.71715 0.66493 0.0
C1797 C 0.89228 0.70364 0.65243 0.0
C1798 C 0.91835 0.73174 0.6648 0.0
C1799 C 0.95804 0.75728 0.63738 0.0
H1800 H 0.05152 0.8176 0.65645 0.0
H1801 H 0.01829 0.80129 0.66411 0.0
H1802 H 0.98321 0.77455 0.62446 0.0
H1803 H 0.89892 0.69508 0.6299 0.0
H1804 H 0.93136 0.72032 0.62968 0.0
H1805 H 0.9561 0.74454 0.67632 0.0
C1806 C 0.02276 0.79537 0.65462 0.0
C1807 C 0.9774 0.76836 0.63592 0.0
C1808 C 0.04171 0.80461 0.65028 0.0
C1809 C 0.90403 0.70521 0.63972 0.0
C1810 C 0.92262 0.71979 0.63953 0.0
C1811 C 0.96186 0.75149 0.66509 0.0
C1812 C 0.00957 0.77926 0.64606 0.0
C1813 C 0.98924 0.77059 0.64884 0.0
C1814 C 0.93003 0.73319 0.65205 0.0
C1815 C 0.9501 0.74805 0.65175 0.0
H1816 H 0.03871 0.77499 0.61991 0.0
H1817 H 0.00578 0.75916 0.6273 0.0
H1818 H 0.9903 0.76436 0.67376 0.0
H1819 H 0.89088 0.71629 0.67492 0.0
H1820 H 0.92372 0.7419 0.67459 0.0
C1821 C 0.20389 0.25084 0.65245 0.0
C1822 C 0.18794 0.24148 0.64262 0.0
C1823 C 0.21216 0.24097 0.65881 0.0
C1824 C 0.21613 0.19886 0.64989 0.0
H1825 H 0.24666 0.21532 0.68843 0.0
C1826 C 0.27078 0.17635 0.66392 0.0
C1827 C 0.28869 0.19258 0.66394 0.0
C1828 C 0.25481 0.17813 0.66546 0.0
C1829 C 0.23794 0.21035 0.67778 0.0
H1830 H 0.1673 0.21427 0.6326 0.0
H1831 H 0.18147 0.19689 0.64396 0.0
H1832 H 0.22424 0.22605 0.68342 0.0
H1833 H 0.30418 0.22314 0.66671 0.0
H1834 H 0.27639 0.2262 0.66988 0.0
H1835 H 0.23027 0.18361 0.64408 0.0
C1836 C 0.18795 0.21195 0.64642 0.0
C1837 C 0.22525 0.21662 0.67482 0.0
C1838 C 0.17982 0.22188 0.63992 0.0
C1839 C 0.29049 0.21044 0.66652 0.0
C1840 C 0.27462 0.21217 0.66849 0.0
C1841 C 0.22862 0.19238 0.65298 0.0
C1842 C 0.2045 0.22146 0.65562 0.0
C1843 C 0.21485 0.21167 0.66047 0.0
C1844 C 0.25664 0.19611 0.66753 0.0
C1845 C 0.24021 0.19876 0.66659 0.0
H1846 H 0.21044 0.26597 0.65465 0.0
H1847 H 0.22506 0.24886 0.6656 0.0
H1848 H 0.20851 0.19485 0.63865 0.0
H1849 H 0.26911 0.16243 0.66193 0.0
H1850 H 0.24105 0.16557 0.6646 0.0
C1851 C 0.77358 0.9622 0.64168 0.0
C1852 C 0.75835 0.95532 0.63098 0.0
C1853 C 0.78491 0.98169 0.64445 0.0
C1854 C 0.79779 0.02824 0.62671 0.0
H1855 H 0.81389 0.04701 0.66985 0.0
C1856 C 0.81623 0.10202 0.65016 0.0
C1857 C 0.82713 0.1086 0.66414 0.0
C1858 C 0.81352 0.08542 0.64264 0.0
C1859 C 0.81 0.04208 0.65763 0.0
H1860 H 0.74246 0.9633 0.61539 0.0
H1861 H 0.76195 0.99725 0.62047 0.0
H1862 H 0.79643 0.01315 0.66481 0.0
H1863 H 0.84602 0.10512 0.67987 0.0
H1864 H 0.84222 0.07684 0.66625 0.0
H1865 H 0.81082 0.05735 0.6197 0.0
C1866 C 0.76553 0.98769 0.62635 0.0
C1867 C 0.79985 0.02259 0.65477 0.0
C1868 C 0.75427 0.96824 0.62355 0.0
C1869 C 0.83755 0.10023 0.66907 0.0
C1870 C 0.83514 0.08389 0.6614 0.0
C1871 C 0.80796 0.04782 0.62958 0.0
C1872 C 0.78117 0.99467 0.63662 0.0
C1873 C 0.79329 0.01542 0.63935 0.0
C1874 C 0.82186 0.07543 0.64899 0.0
C1875 C 0.8139 0.05497 0.64514 0.0
H1876 H 0.77719 0.95257 0.64742 0.0
H1877 H 0.79691 0.98661 0.65239 0.0
H1878 H 0.79324 0.02315 0.61462 0.0
H1879 H 0.80792 0.1082 0.64628 0.0
H1880 H 0.80328 0.07938 0.63304 0.0
C1881 C 0.45205 0.35616 0.72006 0.0
C1882 C 0.46815 0.36951 0.71201 0.0
C1883 C 0.44466 0.33679 0.71725 0.0
C1884 C 0.44443 0.30332 0.68738 0.0
H1885 H 0.42028 0.26692 0.72121 0.0
C1886 C 0.40112 0.22808 0.66903 0.0
C1887 C 0.38254 0.22148 0.6736 0.0
C1888 C 0.41584 0.24241 0.67788 0.0
C1889 C 0.42716 0.27692 0.71169 0.0
H1890 H 0.48925 0.37318 0.69482 0.0
H1891 H 0.4765 0.33935 0.68997 0.0
H1892 H 0.43749 0.30085 0.7276 0.0
H1893 H 0.36462 0.22251 0.6919 0.0
H1894 H 0.3902 0.24789 0.70717 0.0
H1895 H 0.43365 0.27973 0.67137 0.0
C1896 C 0.46937 0.34379 0.69827 0.0
C1897 C 0.43687 0.29634 0.7153 0.0
C1898 C 0.47663 0.36317 0.70097 0.0
C1899 C 0.37892 0.22735 0.68827 0.0
C1900 C 0.39363 0.24195 0.69699 0.0
C1901 C 0.43487 0.28401 0.6838 0.0
C1902 C 0.45333 0.33036 0.70642 0.0
C1903 C 0.44511 0.30976 0.70309 0.0
C1904 C 0.41204 0.25069 0.69108 0.0
C1905 C 0.42564 0.27057 0.69581 0.0
H1906 H 0.44521 0.36073 0.72858 0.0
H1907 H 0.43203 0.32688 0.72343 0.0
H1908 H 0.45036 0.31319 0.67763 0.0
H1909 H 0.40414 0.22366 0.65772 0.0
H1910 H 0.42996 0.24848 0.67332 0.0
C1911 C 0.62758 0.08036 0.70768 0.0
C1912 C 0.61371 0.08238 0.69964 0.0
C1913 C 0.64614 0.09015 0.70263 0.0
C1914 C 0.67677 0.11318 0.66897 0.0
H1915 H 0.71419 0.13836 0.7024 0.0
C1916 C 0.75169 0.12597 0.66772 0.0
C1917 C 0.76616 0.14239 0.67494 0.0
C1918 C 0.73346 0.12294 0.66726 0.0
C1919 C 0.70394 0.13176 0.69286 0.0
H1920 H 0.60832 0.09572 0.67958 0.0
H1921 H 0.64089 0.1126 0.67054 0.0
H1922 H 0.68102 0.12362 0.70883 0.0
H1923 H 0.77351 0.169 0.68665 0.0
H1924 H 0.74131 0.16345 0.68636 0.0
H1925 H 0.69982 0.12063 0.65315 0.0
C1926 C 0.63729 0.10348 0.68082 0.0
C1927 C 0.68496 0.12312 0.69658 0.0
C1928 C 0.61867 0.09374 0.68595 0.0
C1929 C 0.76247 0.15627 0.68097 0.0
C1930 C 0.74412 0.15308 0.68082 0.0
C1931 C 0.69583 0.12166 0.66527 0.0
C1932 C 0.65125 0.1021 0.68936 0.0
C1933 C 0.67121 0.11326 0.68479 0.0
C1934 C 0.72936 0.1361 0.67438 0.0
C1935 C 0.70956 0.13058 0.67729 0.0
H1936 H 0.62413 0.07141 0.71806 0.0
H1937 H 0.65657 0.08847 0.70918 0.0
H1938 H 0.66642 0.10573 0.65966 0.0
H1939 H 0.75436 0.11513 0.66301 0.0
H1940 H 0.72237 0.10966 0.66237 0.0
C1941 C 0.90796 0.54564 0.70348 0.0
C1942 C 0.902 0.53224 0.71575 0.0
C1943 C 0.89806 0.55498 0.69999 0.0
C1944 C 0.865 0.56858 0.71621 0.0
H1945 H 0.85358 0.5705 0.67157 0.0
C1946 C 0.82322 0.59322 0.66973 0.0
C1947 C 0.83194 0.61261 0.67347 0.0
C1948 C 0.82771 0.58144 0.6783 0.0
C1949 C 0.85641 0.56987 0.68412 0.0
H1950 H 0.88081 0.51812 0.73391 0.0
H1951 H 0.86377 0.53469 0.72793 0.0
H1952 H 0.87085 0.55477 0.67912 0.0
H1953 H 0.85047 0.63459 0.69008 0.0
H1954 H 0.85854 0.61396 0.7051 0.0
H1955 H 0.85078 0.58413 0.72107 0.0
C1956 C 0.87621 0.53805 0.72115 0.0
C1957 C 0.86654 0.56109 0.68841 0.0
C1958 C 0.88601 0.52859 0.72456 0.0
C1959 C 0.84344 0.61961 0.68711 0.0
C1960 C 0.84812 0.60781 0.69564 0.0
C1961 C 0.855 0.57764 0.71187 0.0
C1962 C 0.88205 0.55121 0.70874 0.0
C1963 C 0.87105 0.56043 0.70446 0.0
C1964 C 0.84124 0.58894 0.69058 0.0
C1965 C 0.85058 0.57832 0.69577 0.0
H1966 H 0.92036 0.54903 0.69664 0.0
H1967 H 0.90299 0.56523 0.69046 0.0
H1968 H 0.86837 0.56831 0.72868 0.0
H1969 H 0.81425 0.58754 0.65926 0.0
H1970 H 0.82185 0.56683 0.6744 0.0
C1971 C 0.49758 0.98581 0.1828 0.0
C1972 C 0.48684 0.96718 0.18832 0.0
C1973 C 0.50218 0.98919 0.16663 0.0
C1974 C 0.488 0.96731 0.12652 0.0
H1975 H 0.53863 0.00524 0.11505 0.0
C1976 C 0.50777 0.9823 0.06082 0.0
C1977 C 0.51529 0.00155 0.05724 0.0
C1978 C 0.50761 0.97675 0.07663 0.0
C1979 C 0.52445 0.99457 0.11807 0.0
H1980 H 0.47175 0.93755 0.18118 0.0
H1981 H 0.47977 0.94342 0.15303 0.0
H1982 H 0.5303 -0.00122 0.14319 0.0
H1983 H 0.53043 0.03015 0.06689 0.0
H1984 H 0.53034 0.02057 0.0943 0.0
H1985 H 0.48196 0.96341 0.10149 0.0
C1986 C 0.48473 0.95543 0.16115 0.0
C1987 C 0.51965 0.99097 0.13417 0.0
C1988 C 0.48024 0.95205 0.17729 0.0
C1989 C 0.52447 0.0152 0.06936 0.0
C1990 C 0.52444 0.00969 0.08508 0.0
C1991 C 0.49279 0.97092 0.11044 0.0
C1992 C 0.49599 0.97401 0.15566 0.0
C1993 C 0.50129 0.97747 0.13857 0.0
C1994 C 0.51512 0.99039 0.08902 0.0
C1995 C 0.511 0.98477 0.10601 0.0
H1996 H 0.50291 -0.00226 0.19105 0.0
H1997 H 0.51063 0.00369 0.16272 0.0
H1998 H 0.47369 0.95697 0.12951 0.0
H1999 H 0.50052 0.97146 0.05173 0.0
H2000 H 0.50062 0.96177 0.07928 0.0
C2001 C 0.04494 0.52448 0.17452 0.0
C2002 C 0.03039 0.51742 0.18572 0.0
C2003 C 0.04134 0.52622 0.1585 0.0
C2004 C 0.00284 0.50991 0.12874 0.0
H2005 H 0.03864 0.55442 0.10557 0.0
C2006 C 0.98489 0.52119 0.06616 0.0
C2007 C -0.00203 0.52254 0.05478 0.0
C2008 C 0.98994 0.52481 0.08226 0.0
C2009 C 0.02854 0.54196 0.11192 0.0
H2010 H 0.00063 0.50638 0.18894 0.0
H2011 H 0.99431 0.50953 0.16101 0.0
H2012 H 0.04495 0.5506 0.13347 0.0
H2013 H 0.02718 0.53113 0.05097 0.0
H2014 H 0.03601 0.53746 0.07918 0.0
H2015 H 0.98646 0.50124 0.10729 0.0
C2016 C 0.00848 0.51348 0.16451 0.0
C2017 C 0.03219 0.53967 0.12784 0.0
C2018 C 0.01207 0.51163 0.18052 0.0
C2019 C 0.01678 0.52993 0.05949 0.0
C2020 C 0.02183 0.53349 0.07567 0.0
C2021 C -0.00085 0.51228 0.11294 0.0
C2022 C 0.02312 0.52102 0.15334 0.0
C2023 C 0.01938 0.52357 0.13643 0.0
C2024 C 0.00815 0.52981 0.08726 0.0
C2025 C 0.01193 0.52831 0.10435 0.0
H2026 H 0.05917 0.52884 0.17819 0.0
H2027 H 0.05286 0.53166 0.15016 0.0
H2028 H 0.99287 0.49717 0.13484 0.0
H2029 H 0.97035 0.51579 0.06281 0.0
H2030 H 0.97924 0.52237 0.09092 0.0
C2031 C 0.50305 0.51527 0.17987 0.0
C2032 C 0.4921 0.52205 0.18699 0.0
C2033 C 0.50831 0.51913 0.16389 0.0
C2034 C 0.4943 0.53198 0.1263 0.0
H2035 H 0.54173 0.53838 0.11166 0.0
C2036 C 0.50671 0.52935 0.0597 0.0
C2037 C 0.50983 0.51422 0.05655 0.0
C2038 C 0.50974 0.5372 0.07512 0.0
C2039 C 0.52853 0.53685 0.1156 0.0
H2040 H 0.47859 0.53868 0.18312 0.0
H2041 H 0.48783 0.54551 0.15528 0.0
H2042 H 0.53584 0.53783 0.14028 0.0
H2043 H 0.5204 0.49681 0.06621 0.0
H2044 H 0.52612 0.5107 0.09288 0.0
H2045 H 0.48673 0.53031 0.10166 0.0
C2046 C 0.49206 0.5369 0.16192 0.0
C2047 C 0.52508 0.53635 0.13197 0.0
C2048 C 0.4867 0.53293 0.17785 0.0
C2049 C 0.51787 0.50845 0.06843 0.0
C2050 C 0.52122 0.51649 0.08368 0.0
C2051 C 0.4978 0.53259 0.10996 0.0
C2052 C 0.50287 0.52999 0.15471 0.0
C2053 C 0.50766 0.53324 0.13749 0.0
C2054 C 0.51624 0.53021 0.08742 0.0
C2055 C 0.51468 0.53436 0.10443 0.0
H2056 H 0.50732 0.50675 0.1866 0.0
H2057 H 0.51631 0.51325 0.15864 0.0
H2058 H 0.48067 0.52939 0.13009 0.0
H2059 H 0.50042 0.53394 0.05069 0.0
H2060 H 0.50593 0.54787 0.07768 0.0
C2061 C 0.97213 0.45951 0.82148 0.0
C2062 C 0.97132 0.47562 0.81674 0.0
C2063 C 0.97283 0.45583 0.83768 0.0
C2064 C 0.96075 0.46623 0.87717 0.0
H2065 H -8e-05 0.45781 0.89385 0.0
C2066 C 0.97392 0.46967 0.9443 0.0
C2067 C 0.99215 0.48459 0.94753 0.0
C2068 C 0.96923 0.46144 0.929 0.0
C2069 C 0.98868 0.45978 0.88932 0.0
H2070 H 0.97153 0.50092 0.82532 0.0
H2071 H 0.97251 0.49435 0.8535 0.0
H2072 H -0.00413 0.45857 0.86493 0.0
H2073 H 0.02016 0.50135 0.93816 0.0
H2074 H 0.0122 0.48675 0.91171 0.0
H2075 H 0.95417 0.46847 0.90146 0.0
C2076 C 0.97226 0.48441 0.84468 0.0
C2077 C 0.98636 0.4602 0.87281 0.0
C2078 C 0.97174 0.48819 0.82855 0.0
C2079 C 0.006 0.48986 0.93587 0.0
C2080 C 0.00145 0.48141 0.92077 0.0
C2081 C 0.96294 0.46562 0.89364 0.0
C2082 C 0.97255 0.46808 0.84942 0.0
C2083 C 0.97289 0.46423 0.86663 0.0
C2084 C 0.98284 0.46779 0.91693 0.0
C2085 C 0.97743 0.46317 0.89989 0.0
H2086 H 0.97159 0.44942 0.8127 0.0
H2087 H 0.97309 0.44316 0.84104 0.0
H2088 H 0.95007 0.46908 0.87268 0.0
H2089 H 0.963 0.4655 0.95313 0.0
H2090 H 0.95479 0.45092 0.92634 0.0
C2091 C 0.52292 0.47508 0.82967 0.0
C2092 C 0.51516 0.48156 0.81805 0.0
C2093 C 0.51745 0.47358 0.8456 0.0
C2094 C 0.49449 0.48972 0.87454 0.0
H2095 H 0.48586 0.44526 0.89805 0.0
C2096 C 0.46634 0.4795 0.93744 0.0
C2097 C 0.47757 0.47717 0.9488 0.0
C2098 C 0.46759 0.476 0.92129 0.0
C2099 C 0.48823 0.45773 0.89163 0.0
H2100 H 0.49594 0.49201 0.8141 0.0
H2101 H 0.4864 0.48946 0.84192 0.0
H2102 H 0.49617 0.44896 0.87029 0.0
H2103 H 0.49715 0.46708 0.95248 0.0
H2104 H 0.49943 0.46106 0.9242 0.0
H2105 H 0.48677 0.49863 0.89581 0.0
C2106 C 0.49684 0.48567 0.83875 0.0
C2107 C 0.49423 0.45993 0.87577 0.0
C2108 C 0.50235 0.48721 0.82281 0.0
C2109 C 0.48835 0.46905 0.94397 0.0
C2110 C 0.4897 0.46566 0.92775 0.0
C2111 C 0.48843 0.48749 0.89031 0.0
C2112 C 0.50407 0.47852 0.85028 0.0
C2113 C 0.49752 0.47601 0.86708 0.0
C2114 C 0.48017 0.47019 0.91619 0.0
C2115 C 0.48526 0.47151 0.89907 0.0
H2116 H 0.53303 0.47086 0.82638 0.0
H2117 H 0.52363 0.46845 0.85423 0.0
H2118 H 0.4972 0.50242 0.86831 0.0
H2119 H 0.4577 0.4855 0.94088 0.0
H2120 H 0.45964 0.47908 0.9127 0.0
C2121 C 0.50863 0.04469 0.82555 0.0
C2122 C 0.50028 0.02962 0.81443 0.0
C2123 C 0.50459 0.04152 0.84181 0.0
C2124 C 0.48881 0.00379 0.87135 0.0
H2125 H 0.48183 0.03838 0.8987 0.0
C2126 C 0.47572 0.98771 0.93717 0.0
C2127 C 0.4872 0.00275 0.94752 0.0
C2128 C 0.47323 0.99118 0.92134 0.0
C2129 C 0.4838 0.02863 0.89122 0.0
H2130 H 0.48104 -0.00055 0.81165 0.0
H2131 H 0.4739 0.99392 0.84001 0.0
H2132 H 0.48611 0.04412 0.86994 0.0
H2133 H 0.50399 0.03323 0.95 0.0
H2134 H 0.50006 0.03942 0.92209 0.0
H2135 H 0.48715 0.9886 0.89243 0.0
C2136 C 0.48364 0.00818 0.83616 0.0
C2137 C 0.48627 0.03192 0.87477 0.0
C2138 C 0.48762 0.01136 0.8199 0.0
C2139 C 0.49487 0.02144 0.94222 0.0
C2140 C 0.49265 0.02494 0.92623 0.0
C2141 C 0.48642 0.00054 0.88771 0.0
C2142 C 0.49219 0.02319 0.84731 0.0
C2143 C 0.48886 0.01954 0.86468 0.0
C2144 C 0.48259 0.00975 0.91543 0.0
C2145 C 0.48388 0.01289 0.89788 0.0
H2146 H 0.51827 0.05896 0.82168 0.0
H2147 H 0.51152 0.05334 0.85011 0.0
H2148 H 0.49118 0.99421 0.86397 0.0
H2149 H 0.46971 0.97318 0.94105 0.0
H2150 H 0.46493 0.97919 0.91347 0.0
C2151 C 0.16551 0.31847 0.51435 0.0
C2152 C 0.15365 0.30001 0.51984 0.0
C2153 C 0.17077 0.32155 0.4983 0.0
C2154 C 0.15702 0.29998 0.45814 0.0
H2155 H 0.20884 0.33554 0.44785 0.0
C2156 C 0.17808 0.31587 0.39302 0.0
C2157 C 0.18689 0.33537 0.38995 0.0
C2158 C 0.17755 0.30956 0.40861 0.0
C2159 C 0.19433 0.32553 0.45053 0.0
H2160 H 0.13733 0.27042 0.51274 0.0
H2161 H 0.1465 0.27579 0.48478 0.0
H2162 H 0.19942 0.32916 0.47577 0.0
H2163 H 0.20408 0.36345 0.40021 0.0
H2164 H 0.2032 0.35254 0.42724 0.0
H2165 H 0.15171 0.29678 0.43301 0.0
C2166 C 0.15181 0.28787 0.49284 0.0
C2167 C 0.18891 0.32198 0.46651 0.0
C2168 C 0.14664 0.28479 0.50887 0.0
C2169 C 0.19708 0.34832 0.40228 0.0
C2170 C 0.19659 0.34204 0.4178 0.0
C2171 C 0.16241 0.30358 0.44218 0.0
C2172 C 0.16416 0.30625 0.48742 0.0
C2173 C 0.17013 0.3094 0.47048 0.0
C2174 C 0.18588 0.32265 0.42131 0.0
C2175 C 0.18106 0.31664 0.43817 0.0
H2176 H 0.1712 0.33045 0.52255 0.0
H2177 H 0.18006 0.33591 0.49442 0.0
H2178 H 0.14241 0.29034 0.4608 0.0
H2179 H 0.17004 0.30556 0.38378 0.0
H2180 H 0.16953 0.29449 0.41088 0.0
C2181 C 0.67284 0.8411 0.51554 0.0
C2182 C 0.69139 0.8488 0.521 0.0
C2183 C 0.66911 0.84253 0.49946 0.0
C2184 C 0.69171 0.87061 0.46328 0.0
H2185 H 0.64918 0.8291 0.44158 0.0
C2186 C 0.68009 0.85982 0.39466 0.0
C2187 C 0.66139 0.84968 0.38931 0.0
C2188 C 0.68407 0.86425 0.41093 0.0
C2189 C 0.66092 0.841 0.44754 0.0
H2190 H 0.72053 0.86305 0.51383 0.0
H2191 H 0.71402 0.8652 0.48575 0.0
H2192 H 0.65542 0.82581 0.46937 0.0
H2193 H 0.63246 0.83873 0.39602 0.0
H2194 H 0.6394 0.84708 0.42421 0.0
H2195 H 0.69746 0.88551 0.44111 0.0
C2196 C 0.70237 0.85859 0.49392 0.0
C2197 C 0.66452 0.83907 0.46349 0.0
C2198 C 0.70609 0.85724 0.50997 0.0
C2199 C 0.64699 0.84649 0.39992 0.0
C2200 C 0.65095 0.85105 0.41608 0.0
C2201 C 0.68815 0.8725 0.44723 0.0
C2202 C 0.68386 0.85158 0.48851 0.0
C2203 C 0.67998 0.85381 0.47156 0.0
C2204 C 0.66937 0.85868 0.4219 0.0
C2205 C 0.67269 0.8577 0.43921 0.0
H2206 H 0.66126 0.83469 0.5238 0.0
H2207 H 0.65469 0.83708 0.49573 0.0
H2208 H 0.7036 0.88236 0.46921 0.0
H2209 H 0.69142 0.86229 0.3867 0.0
H2210 H 0.69843 0.87025 0.41506 0.0
C2211 C 0.1477 0.83806 0.51047 0.0
C2212 C 0.16056 0.8499 0.52224 0.0
C2213 C 0.15211 0.84134 0.49431 0.0
C2214 C 0.19112 0.86165 0.46672 0.0
H2215 H 0.15348 0.85828 0.43681 0.0
C2216 C 0.1816 0.83414 0.40264 0.0
C2217 C 0.17519 0.84173 0.39087 0.0
C2218 C 0.18509 0.84151 0.41814 0.0
C2219 C 0.16432 0.85969 0.44501 0.0
H2220 H 0.18817 0.87454 0.52612 0.0
H2221 H 0.19603 0.87979 0.49786 0.0
H2222 H 0.14794 0.85777 0.46546 0.0
H2223 H 0.16869 0.86377 0.38558 0.0
H2224 H 0.17431 0.87644 0.41302 0.0
H2225 H 0.20704 0.86254 0.44621 0.0
C2226 C 0.18254 0.86804 0.50124 0.0
C2227 C 0.16103 0.85914 0.46139 0.0
C2228 C 0.17806 0.8649 0.51742 0.0
C2229 C 0.1737 0.85776 0.39449 0.0
C2230 C 0.17682 0.86492 0.41016 0.0
C2231 C 0.19431 0.86196 0.45032 0.0
C2232 C 0.16953 0.8564 0.48954 0.0
C2233 C 0.17415 0.85955 0.47237 0.0
C2234 C 0.18186 0.85636 0.42223 0.0
C2235 C 0.18069 0.86044 0.43931 0.0
H2236 H 0.13424 0.82621 0.51374 0.0
H2237 H 0.14196 0.83192 0.48551 0.0
H2238 H 0.20146 0.86198 0.47495 0.0
H2239 H 0.18288 0.82179 0.40006 0.0
H2240 H 0.18882 0.83454 0.4272 0.0
C2241 C 0.63873 0.79432 0.15464 0.0
C2242 C 0.63801 0.81059 0.15028 0.0
C2243 C 0.63968 0.79036 0.17073 0.0
C2244 C 0.62833 0.8002 0.21073 0.0
H2245 H 0.66651 0.78964 0.22631 0.0
C2246 C 0.64025 0.79959 0.27763 0.0
C2247 C 0.65856 0.81402 0.28134 0.0
C2248 C 0.63575 0.79212 0.26207 0.0
C2249 C 0.65555 0.79223 0.22209 0.0
H2250 H 0.63861 0.83587 0.15944 0.0
H2251 H 0.64004 0.82883 0.18744 0.0
H2252 H 0.66269 0.79189 0.19753 0.0
H2253 H 0.68686 0.83055 0.27255 0.0
H2254 H 0.67923 0.81721 0.24564 0.0
H2255 H 0.62175 0.80147 0.23521 0.0
C2256 C 0.63954 0.81899 0.17841 0.0
C2257 C 0.65337 0.79351 0.20565 0.0
C2258 C 0.63876 0.82304 0.16237 0.0
C2259 C 0.67266 0.81937 0.26991 0.0
C2260 C 0.66828 0.81168 0.25452 0.0
C2261 C 0.63037 0.79872 0.22712 0.0
C2262 C 0.63976 0.80249 0.18277 0.0
C2263 C 0.64022 0.79823 0.19988 0.0
C2264 C 0.6496 0.79878 0.25019 0.0
C2265 C 0.64446 0.79542 0.233 0.0
H2266 H 0.63791 0.78429 0.14566 0.0
H2267 H 0.63983 0.77755 0.17378 0.0
H2268 H 0.61788 0.80357 0.20657 0.0
H2269 H 0.62914 0.79538 0.28628 0.0
H2270 H 0.62126 0.7821 0.25906 0.0
C2271 C 0.19219 0.81643 0.15846 0.0
C2272 C 0.18228 0.82071 0.14716 0.0
C2273 C 0.18821 0.81587 0.17467 0.0
C2274 C 0.16519 0.83033 0.20504 0.0
H2275 H 0.16635 0.79048 0.22916 0.0
C2276 C 0.1507 0.82089 0.273 0.0
C2277 C 0.1663 0.82258 0.28132 0.0
C2278 C 0.1491 0.81777 0.25645 0.0
C2279 C 0.16584 0.80158 0.22254 0.0
H2280 H 0.16097 0.82856 0.14397 0.0
H2281 H 0.15385 0.82751 0.17246 0.0
H2282 H 0.17115 0.79207 0.20037 0.0
H2283 H 0.19173 0.82112 0.2793 0.0
H2284 H 0.18855 0.81485 0.25057 0.0
H2285 H 0.16 0.83985 0.2274 0.0
C2286 C 0.16479 0.82466 0.16876 0.0
C2287 C 0.16877 0.80263 0.20609 0.0
C2288 C 0.16889 0.82533 0.15247 0.0
C2289 C 0.17956 0.81981 0.27311 0.0
C2290 C 0.17772 0.81621 0.2567 0.0
C2291 C 0.16206 0.82915 0.22152 0.0
C2292 C 0.17409 0.81945 0.18 0.0
C2293 C 0.16905 0.81735 0.19721 0.0
C2294 C 0.16283 0.81579 0.24813 0.0
C2295 C 0.16286 0.81506 0.23046 0.0
H2296 H 0.20279 0.81308 0.1547 0.0
H2297 H 0.19607 0.8124 0.18302 0.0
H2298 H 0.16538 0.84189 0.1986 0.0
H2299 H 0.14042 0.8232 0.27911 0.0
H2300 H 0.13748 0.81745 0.25008 0.0
C2301 C 0.17554 0.37908 0.1615 0.0
C2302 C 0.16727 0.36433 0.15009 0.0
C2303 C 0.17087 0.37558 0.17763 0.0
C2304 C 0.15276 0.33706 0.20664 0.0
H2305 H 0.14639 0.37219 0.23381 0.0
C2306 C 0.13825 0.32052 0.27219 0.0
C2307 C 0.15011 0.33533 0.28258 0.0
C2308 C 0.13586 0.32425 0.2564 0.0
C2309 C 0.14816 0.36227 0.22638 0.0
H2310 H 0.14758 0.33435 0.14669 0.0
H2311 H 0.13934 0.32826 0.17482 0.0
H2312 H 0.1518 0.37834 0.20519 0.0
H2313 H 0.16749 0.36574 0.28523 0.0
H2314 H 0.16374 0.37237 0.25745 0.0
H2315 H 0.14979 0.3213 0.22767 0.0
C2316 C 0.1495 0.34252 0.17129 0.0
C2317 C 0.1513 0.3658 0.21001 0.0
C2318 C 0.15411 0.34604 0.15516 0.0
C2319 C 0.1581 0.35412 0.27743 0.0
C2320 C 0.15598 0.35787 0.26149 0.0
C2321 C 0.1497 0.33357 0.22293 0.0
C2322 C 0.15789 0.35724 0.18273 0.0
C2323 C 0.15373 0.35327 0.19998 0.0
C2324 C 0.14571 0.34285 0.25059 0.0
C2325 C 0.14741 0.34613 0.23305 0.0
H2326 H 0.18555 0.39339 0.15795 0.0
H2327 H 0.17773 0.38718 0.18616 0.0
H2328 H 0.15497 0.32733 0.19934 0.0
H2329 H 0.13198 0.30591 0.27594 0.0
H2330 H 0.12736 0.31241 0.24847 0.0
C2331 C 0.83271 0.65187 0.84741 0.0
C2332 C 0.82169 0.6334 0.85321 0.0
C2333 C 0.83741 0.65483 0.83123 0.0
C2334 C 0.82298 0.63235 0.79139 0.0
H2335 H 0.87388 0.66936 0.77978 0.0
C2336 C 0.84165 0.64768 0.72564 0.0
C2337 C 0.84972 0.66707 0.72238 0.0
C2338 C 0.8418 0.64175 0.74127 0.0
C2339 C 0.85962 0.65894 0.78282 0.0
H2340 H 0.80625 0.60363 0.84652 0.0
H2341 H 0.81442 0.60878 0.81834 0.0
H2342 H 0.86554 0.66327 0.80793 0.0
H2343 H 0.86628 0.69542 0.73226 0.0
H2344 H 0.86669 0.6852 0.75931 0.0
H2345 H 0.81682 0.62844 0.76639 0.0
C2346 C 0.81953 0.62097 0.82626 0.0
C2347 C 0.85481 0.65555 0.79894 0.0
C2348 C 0.81495 0.61802 0.84242 0.0
C2349 C 0.8599 0.68037 0.73449 0.0
C2350 C 0.86013 0.67448 0.75003 0.0
C2351 C 0.82775 0.63579 0.77529 0.0
C2352 C 0.83103 0.63939 0.82051 0.0
C2353 C 0.83636 0.64243 0.80341 0.0
C2354 C 0.85012 0.65512 0.75379 0.0
C2355 C 0.84605 0.64936 0.77079 0.0
H2356 H 0.83817 0.66399 0.85545 0.0
H2357 H 0.84604 0.66921 0.8271 0.0
H2358 H 0.8086 0.62227 0.79443 0.0
H2359 H 0.83361 0.63713 0.71655 0.0
H2360 H 0.83431 0.62671 0.74373 0.0
C2361 C 0.37647 0.18926 0.84167 0.0
C2362 C 0.36177 0.18238 0.85272 0.0
C2363 C 0.37314 0.19093 0.82557 0.0
C2364 C 0.33526 0.1753 0.79522 0.0
H2365 H 0.37187 0.22008 0.77282 0.0
C2366 C 0.31915 0.18853 0.73242 0.0
C2367 C 0.3325 0.19023 0.72118 0.0
C2368 C 0.32372 0.19142 0.74864 0.0
C2369 C 0.36156 0.20753 0.77894 0.0
H2370 H 0.33197 0.17137 0.85555 0.0
H2371 H 0.32609 0.17438 0.82745 0.0
H2372 H 0.37745 0.21566 0.80075 0.0
H2373 H 0.36173 0.19862 0.71784 0.0
H2374 H 0.36976 0.20376 0.74627 0.0
H2375 H 0.31936 0.16716 0.77348 0.0
C2376 C 0.34019 0.17829 0.83116 0.0
C2377 C 0.36478 0.2049 0.79489 0.0
C2378 C 0.34352 0.17652 0.84726 0.0
C2379 C 0.35113 0.19718 0.72624 0.0
C2380 C 0.35571 0.20004 0.74254 0.0
C2381 C 0.33198 0.178 0.77937 0.0
C2382 C 0.35503 0.18584 0.82016 0.0
C2383 C 0.35168 0.1887 0.80321 0.0
C2384 C 0.34174 0.19607 0.75392 0.0
C2385 C 0.34507 0.19413 0.77105 0.0
H2386 H 0.39065 0.19366 0.84554 0.0
H2387 H 0.3848 0.19634 0.81738 0.0
H2388 H 0.32504 0.1625 0.80111 0.0
H2389 H 0.30474 0.18344 0.72882 0.0
H2390 H 0.3128 0.18876 0.75713 0.0
C2391 C 0.81454 0.17508 0.84132 0.0
C2392 C 0.82695 0.18706 0.85326 0.0
C2393 C 0.81899 0.17894 0.8252 0.0
C2394 C 0.85861 0.20348 0.798 0.0
H2395 H 0.81935 0.1949 0.7677 0.0
C2396 C 0.85439 0.17816 0.73388 0.0
C2397 C 0.84517 0.18283 0.72223 0.0
C2398 C 0.85711 0.18581 0.74925 0.0
C2399 C 0.83062 0.19782 0.77599 0.0
H2400 H 0.85372 0.21262 0.85755 0.0
H2401 H 0.86158 0.21913 0.8294 0.0
H2402 H 0.81307 0.19311 0.79622 0.0
H2403 H 0.83303 0.20037 0.71688 0.0
H2404 H 0.83754 0.21368 0.74401 0.0
H2405 H 0.87594 0.20748 0.7777 0.0
C2406 C 0.84847 0.2067 0.83255 0.0
C2407 C 0.82692 0.19648 0.79233 0.0
C2408 C 0.84399 0.20289 0.84868 0.0
C2409 C 0.84029 0.19668 0.72569 0.0
C2410 C 0.84273 0.20414 0.74122 0.0
C2411 C 0.86229 0.20471 0.78163 0.0
C2412 C 0.83595 0.19485 0.82063 0.0
C2413 C 0.84067 0.19869 0.80348 0.0
C2414 C 0.85033 0.19803 0.75333 0.0
C2415 C 0.84814 0.2013 0.77045 0.0
H2416 H 0.80142 0.16265 0.84444 0.0
H2417 H 0.80922 0.1693 0.81629 0.0
H2418 H 0.8695 0.20527 0.8063 0.0
H2419 H 0.85822 0.16747 0.73143 0.0
H2420 H 0.86291 0.18073 0.75828 0.0
C2421 C 0.30258 0.12438 0.4878 0.0
C2422 C 0.30195 0.14048 0.4827 0.0
C2423 C 0.30398 0.12142 0.50406 0.0
C2424 C 0.29356 0.13345 0.54342 0.0
H2425 H 0.33355 0.12618 0.55985 0.0
C2426 C 0.3081 0.13821 0.61047 0.0
C2427 C 0.32623 0.15344 0.61345 0.0
C2428 C 0.30328 0.12983 0.59523 0.0
C2429 C 0.32209 0.12783 0.5554 0.0
H2430 H 0.30325 0.16651 0.49073 0.0
H2431 H 0.30528 0.16109 0.51902 0.0
H2432 H 0.32864 0.12586 0.53094 0.0
H2433 H 0.35397 0.17065 0.60367 0.0
H2434 H 0.34576 0.15578 0.57731 0.0
H2435 H 0.28753 0.13634 0.56775 0.0
C2436 C 0.30441 0.15066 0.51043 0.0
C2437 C 0.31929 0.12764 0.5389 0.0
C2438 C 0.30325 0.15375 0.49422 0.0
C2439 C 0.33989 0.15894 0.60157 0.0
C2440 C 0.3352 0.15034 0.58652 0.0
C2441 C 0.2962 0.1334 0.55988 0.0
C2442 C 0.30454 0.13436 0.51552 0.0
C2443 C 0.30549 0.13123 0.53279 0.0
C2444 C 0.31665 0.13634 0.58296 0.0
C2445 C 0.31096 0.13133 0.56602 0.0
H2446 H 0.30138 0.11376 0.47928 0.0
H2447 H 0.30411 0.10877 0.50771 0.0
H2448 H 0.28267 0.13601 0.53897 0.0
H2449 H 0.29734 0.13382 0.61947 0.0
H2450 H 0.28888 0.11902 0.59277 0.0
C2451 C 0.85593 0.13826 0.49663 0.0
C2452 C 0.848 0.14431 0.4848 0.0
C2453 C 0.85043 0.13703 0.51254 0.0
C2454 C 0.82707 0.15344 0.54082 0.0
H2455 H 0.81942 0.11009 0.56551 0.0
C2456 C 0.79874 0.14457 0.60355 0.0
C2457 C 0.8102 0.14299 0.61517 0.0
C2458 C 0.80013 0.14064 0.58754 0.0
C2459 C 0.82151 0.12225 0.55875 0.0
H2460 H 0.82838 0.15416 0.48042 0.0
H2461 H 0.81876 0.15203 0.50818 0.0
H2462 H 0.82966 0.11307 0.53777 0.0
H2463 H 0.83033 0.13375 0.61947 0.0
H2464 H 0.83285 0.12697 0.59142 0.0
H2465 H 0.81913 0.16275 0.56173 0.0
C2466 C 0.82937 0.14841 0.50521 0.0
C2467 C 0.82748 0.12405 0.54291 0.0
C2468 C 0.83492 0.1497 0.4893 0.0
C2469 C 0.82136 0.13516 0.61076 0.0
C2470 C 0.82284 0.13132 0.59467 0.0
C2471 C 0.82105 0.15161 0.55658 0.0
C2472 C 0.83686 0.14179 0.51698 0.0
C2473 C 0.8304 0.13972 0.53378 0.0
C2474 C 0.81306 0.13513 0.58282 0.0
C2475 C 0.81821 0.13602 0.56575 0.0
H2476 H 0.86624 0.13425 0.49354 0.0
H2477 H 0.85679 0.13229 0.52135 0.0
H2478 H 0.82952 0.16586 0.53426 0.0
H2479 H 0.7898 0.15032 0.60665 0.0
H2480 H 0.79199 0.14316 0.57871 0.0
C2481 C 0.84082 0.71168 0.49491 0.0
C2482 C 0.8323 0.69682 0.48361 0.0
C2483 C 0.83585 0.70856 0.51101 0.0
C2484 C 0.81489 0.67007 0.54032 0.0
H2485 H 0.81151 0.70749 0.56685 0.0
C2486 C 0.79636 0.65374 0.60527 0.0
C2487 C 0.80926 0.66759 0.61588 0.0
C2488 C 0.79515 0.65829 0.58947 0.0
C2489 C 0.8124 0.69693 0.55958 0.0
H2490 H 0.8118 0.66702 0.48043 0.0
H2491 H 0.80286 0.66165 0.50841 0.0
H2492 H 0.81801 0.71331 0.5383 0.0
H2493 H 0.82955 0.69741 0.6189 0.0
H2494 H 0.82768 0.7054 0.59111 0.0
H2495 H 0.8097 0.65385 0.56146 0.0
C2496 C 0.81355 0.6757 0.50486 0.0
C2497 C 0.8162 0.70027 0.54325 0.0
C2498 C 0.81855 0.67881 0.48878 0.0
C2499 C 0.81937 0.68652 0.61095 0.0
C2500 C 0.81836 0.69105 0.595 0.0
C2501 C 0.81106 0.66672 0.55655 0.0
C2502 C 0.82222 0.6905 0.51621 0.0
C2503 C 0.81756 0.68689 0.53345 0.0
C2504 C 0.80708 0.6767 0.58389 0.0
C2505 C 0.80978 0.68009 0.56641 0.0
H2506 H 0.85127 0.72581 0.49132 0.0
H2507 H 0.84296 0.72023 0.51943 0.0
H2508 H 0.81627 0.65966 0.53325 0.0
H2509 H 0.78837 0.63905 0.60884 0.0
H2510 H 0.78589 0.64703 0.58132 0.0
loop_
_geom_bond_atom_site_label_1
_geom_bond_atom_site_label_2
_geom_bond_distance
_geom_bond_site_symmetry_2
_ccdc_geom_bond_type
C0 C1 1.386 . S
C0 C2 1.397 . S
C0 H24 0.931 . S
C1 C0 1.386 . S
C1 C5 1.397 . S
C2 C0 1.397 . S
C2 C3 1.384 . S
C2 H25 0.930 . S
C3 C2 1.384 . S
C3 C4 1.377 . S
C3 C6 1.481 . S
C4 C3 1.377 . S
C4 C5 1.389 . S
C4 H26 0.929 . S
C5 C1 1.397 . S
C5 C4 1.389 . S
C5 H27 0.931 . S
C6 C3 1.481 . S
C6 C7 1.387 . S
C6 C11 1.390 . S
C7 C6 1.387 . S
C7 C8 1.401 . S
C7 H28 0.930 . S
C8 C7 1.401 . S
C8 C9 1.376 . S
C8 C17 1.511 . S
C9 C8 1.376 . S
C9 C10 1.392 . S
C9 H30 0.931 . S
C10 C9 1.392 . S
C10 C11 1.361 . S
C10 C12 1.500 . S
C11 C6 1.390 . S
C11 C10 1.361 . S
C11 H29 0.931 . S
C12 C10 1.500 . S
C12 C13 1.371 . S
C12 C14 1.365 . S
C13 C12 1.371 . S
C13 C23 1.386 . S
C13 H31 0.931 . S
C14 C12 1.365 . S
C14 C15 1.409 . S
C14 H32 0.929 . S
C15 C14 1.409 . S
C15 C16 1.380 . S
C15 H33 0.930 . S
C16 C15 1.380 . S
C16 C23 1.357 . S
C17 C8 1.511 . S
C17 C18 1.341 . S
C17 C19 1.371 . S
C18 C17 1.341 . S
C18 C22 1.394 . S
C18 H34 0.930 . S
C19 C17 1.371 . S
C19 C20 1.392 . S
C19 H35 0.931 . S
C20 C19 1.392 . S
C20 C21 1.331 . S
C20 H38 0.932 . S
C21 C20 1.331 . S
C21 C22 1.336 . S
C22 C18 1.394 . S
C22 C21 1.336 . S
C22 H37 0.929 . S
C23 C13 1.386 . S
C23 C16 1.357 . S
C23 H36 0.928 . S
H24 C0 0.931 . S
H25 C2 0.930 . S
H26 C4 0.929 . S
H27 C5 0.931 . S
H28 C7 0.930 . S
H29 C11 0.931 . S
H30 C9 0.931 . S
H31 C13 0.931 . S
H32 C14 0.929 . S
H33 C15 0.930 . S
H34 C18 0.930 . S
H35 C19 0.931 . S
H36 C23 0.928 . S
H37 C22 0.929 . S
H38 C20 0.932 . S
C39 C40 1.386 . S
C39 C41 1.397 . S
C39 H63 0.931 . S
C40 C39 1.386 . S
C40 C44 1.397 . S
C41 C39 1.397 . S
C41 C42 1.384 . S
C41 H64 0.930 . S
C42 C41 1.384 . S
C42 C43 1.377 . S
C42 C45 1.481 . S
C43 C42 1.377 . S
C43 C44 1.389 . S
C43 H65 0.929 . S
C44 C40 1.397 . S
C44 C43 1.389 . S
C44 H66 0.931 . S
C45 C42 1.481 . S
C45 C46 1.387 . S
C45 C50 1.390 . S
C46 C45 1.387 . S
C46 C47 1.401 . S
C46 H67 0.930 . S
C47 C46 1.401 . S
C47 C48 1.376 . S
C47 C56 1.511 . S
C48 C47 1.376 . S
C48 C49 1.392 . S
C48 H69 0.931 . S
C49 C48 1.392 . S
C49 C50 1.361 . S
C49 C51 1.500 . S
C50 C45 1.390 . S
C50 C49 1.361 . S
C50 H68 0.931 . S
C51 C49 1.500 . S
C51 C52 1.371 . S
C51 C53 1.365 . S
C52 C51 1.371 . S
C52 C62 1.386 . S
C52 H70 0.931 . S
C53 C51 1.365 . S
C53 C54 1.409 . S
C53 H71 0.929 . S
C54 C53 1.409 . S
C54 C55 1.380 . S
C54 H72 0.930 . S
C55 C54 1.380 . S
C55 C62 1.357 . S
C56 C47 1.511 . S
C56 C57 1.341 . S
C56 C58 1.371 . S
C57 C56 1.341 . S
C57 C61 1.394 . S
C57 H73 0.930 . S
C58 C56 1.371 . S
C58 C59 1.392 . S
C58 H74 0.931 . S
C59 C58 1.392 . S
C59 C60 1.331 . S
C59 H77 0.932 . S
C60 C59 1.331 . S
C60 C61 1.336 . S
C61 C57 1.394 . S
C61 C60 1.336 . S
C61 H76 0.929 . S
C62 C52 1.386 . S
C62 C55 1.357 . S
C62 H75 0.928 . S
H63 C39 0.931 . S
H64 C41 0.930 . S
H65 C43 0.929 . S
H66 C44 0.931 . S
H67 C46 0.930 . S
H68 C50 0.931 . S
H69 C48 0.931 . S
H70 C52 0.931 . S
H71 C53 0.929 . S
H72 C54 0.930 . S
H73 C57 0.930 . S
H74 C58 0.931 . S
H75 C62 0.928 . S
H76 C61 0.929 . S
H77 C59 0.932 . S
C78 C79 1.386 . S
C78 C80 1.397 . S
C78 H102 0.931 . S
C79 C78 1.386 . S
C79 C83 1.397 . S
C80 C78 1.397 . S
C80 C81 1.384 . S
C80 H103 0.930 . S
C81 C80 1.384 . S
C81 C82 1.377 . S
C81 C84 1.481 . S
C82 C81 1.377 . S
C82 C83 1.389 . S
C82 H104 0.929 . S
C83 C79 1.397 . S
C83 C82 1.389 . S
C83 H105 0.931 . S
C84 C81 1.481 . S
C84 C85 1.387 . S
C84 C89 1.390 . S
C85 C84 1.387 . S
C85 C86 1.401 . S
C85 H106 0.930 . S
C86 C85 1.401 . S
C86 C87 1.376 . S
C86 C95 1.511 . S
C87 C86 1.376 . S
C87 C88 1.392 . S
C87 H108 0.931 . S
C88 C87 1.392 . S
C88 C89 1.361 . S
C88 C90 1.500 . S
C89 C84 1.390 . S
C89 C88 1.361 . S
C89 H107 0.931 . S
C90 C88 1.500 . S
C90 C91 1.371 . S
C90 C92 1.365 . S
C91 C90 1.371 . S
C91 C101 1.386 . S
C91 H109 0.931 . S
C92 C90 1.365 . S
C92 C93 1.409 . S
C92 H110 0.929 . S
C93 C92 1.409 . S
C93 C94 1.380 . S
C93 H111 0.930 . S
C94 C93 1.380 . S
C94 C101 1.357 . S
C95 C86 1.511 . S
C95 C96 1.341 . S
C95 C97 1.371 . S
C96 C95 1.341 . S
C96 C100 1.394 . S
C96 H112 0.930 . S
C97 C95 1.371 . S
C97 C98 1.392 . S
C97 H113 0.931 . S
C98 C97 1.392 . S
C98 C99 1.331 . S
C98 H116 0.932 . S
C99 C98 1.331 . S
C99 C100 1.336 . S
C100 C96 1.394 . S
C100 C99 1.336 . S
C100 H115 0.929 . S
C101 C91 1.386 . S
C101 C94 1.357 . S
C101 H114 0.928 . S
H102 C78 0.931 . S
H103 C80 0.930 . S
H104 C82 0.929 . S
H105 C83 0.931 . S
H106 C85 0.930 . S
H107 C89 0.931 . S
H108 C87 0.931 . S
H109 C91 0.931 . S
H110 C92 0.929 . S
H111 C93 0.930 . S
H112 C96 0.930 . S
H113 C97 0.931 . S
H114 C101 0.928 . S
H115 C100 0.929 . S
H116 C98 0.932 . S
C117 C118 1.386 . S
C117 C119 1.397 . S
C117 H141 0.931 . S
C118 C117 1.386 . S
C118 C122 1.397 . S
C119 C117 1.397 . S
C119 C120 1.384 . S
C119 H142 0.930 . S
C120 C119 1.384 . S
C120 C121 1.377 . S
C120 C123 1.481 . S
C121 C120 1.377 . S
C121 C122 1.389 . S
C121 H143 0.929 . S
C122 C118 1.397 . S
C122 C121 1.389 . S
C122 H144 0.931 . S
C123 C120 1.481 . S
C123 C124 1.387 . S
C123 C128 1.390 . S
C124 C123 1.387 . S
C124 C125 1.401 . S
C124 H145 0.930 . S
C125 C124 1.401 . S
C125 C126 1.376 . S
C125 C134 1.511 . S
C126 C125 1.376 . S
C126 C127 1.392 . S
C126 H147 0.931 . S
C127 C126 1.392 . S
C127 C128 1.361 . S
C127 C129 1.500 . S
C128 C123 1.390 . S
C128 C127 1.361 . S
C128 H146 0.931 . S
C129 C127 1.500 . S
C129 C130 1.371 . S
C129 C131 1.365 . S
C130 C129 1.371 . S
C130 C140 1.386 . S
C130 H148 0.931 . S
C131 C129 1.365 . S
C131 C132 1.409 . S
C131 H149 0.929 . S
C132 C131 1.409 . S
C132 C133 1.380 . S
C132 H150 0.930 . S
C133 C132 1.380 . S
C133 C140 1.357 . S
C134 C125 1.511 . S
C134 C135 1.341 . S
C134 C136 1.371 . S
C135 C134 1.341 . S
C135 C139 1.394 . S
C135 H151 0.930 . S
C136 C134 1.371 . S
C136 C137 1.392 . S
C136 H152 0.931 . S
C137 C136 1.392 . S
C137 C138 1.331 . S
C137 H155 0.932 . S
C138 C137 1.331 . S
C138 C139 1.336 . S
C139 C135 1.394 . S
C139 C138 1.336 . S
C139 H154 0.929 . S
C140 C130 1.386 . S
C140 C133 1.357 . S
C140 H153 0.928 . S
H141 C117 0.931 . S
H142 C119 0.930 . S
H143 C121 0.929 . S
H144 C122 0.931 . S
H145 C124 0.930 . S
H146 C128 0.931 . S
H147 C126 0.931 . S
H148 C130 0.931 . S
H149 C131 0.929 . S
H150 C132 0.930 . S
H151 C135 0.930 . S
H152 C136 0.931 . S
H153 C140 0.928 . S
H154 C139 0.929 . S
H155 C137 0.932 . S
C156 C157 1.386 . S
C156 C158 1.397 . S
C156 H180 0.931 . S
C157 C156 1.386 . S
C157 C161 1.397 . S
C158 C156 1.397 . S
C158 C159 1.384 . S
C158 H181 0.930 . S
C159 C158 1.384 . S
C159 C160 1.377 . S
C159 C162 1.481 . S
C160 C159 1.377 . S
C160 C161 1.389 . S
C160 H182 0.929 . S
C161 C157 1.397 . S
C161 C160 1.389 . S
C161 H183 0.931 . S
C162 C159 1.481 . S
C162 C163 1.387 . S
C162 C167 1.390 . S
C163 C162 1.387 . S
C163 C164 1.401 . S
C163 H184 0.930 . S
C164 C163 1.401 . S
C164 C165 1.376 . S
C164 C173 1.511 . S
C165 C164 1.376 . S
C165 C166 1.392 . S
C165 H186 0.931 . S
C166 C165 1.392 . S
C166 C167 1.361 . S
C166 C168 1.500 . S
C167 C162 1.390 . S
C167 C166 1.361 . S
C167 H185 0.931 . S
C168 C166 1.500 . S
C168 C169 1.371 . S
C168 C170 1.365 . S
C169 C168 1.371 . S
C169 C179 1.386 . S
C169 H187 0.931 . S
C170 C168 1.365 . S
C170 C171 1.409 . S
C170 H188 0.929 . S
C171 C170 1.409 . S
C171 C172 1.380 . S
C171 H189 0.930 . S
C172 C171 1.380 . S
C172 C179 1.357 . S
C173 C164 1.511 . S
C173 C174 1.341 . S
C173 C175 1.371 . S
C174 C173 1.341 . S
C174 C178 1.394 . S
C174 H190 0.930 . S
C175 C173 1.371 . S
C175 C176 1.392 . S
C175 H191 0.931 . S
C176 C175 1.392 . S
C176 C177 1.331 . S
C176 H194 0.932 . S
C177 C176 1.331 . S
C177 C178 1.336 . S
C178 C174 1.394 . S
C178 C177 1.336 . S
C178 H193 0.929 . S
C179 C169 1.386 . S
C179 C172 1.357 . S
C179 H192 0.928 . S
H180 C156 0.931 . S
H181 C158 0.930 . S
H182 C160 0.929 . S
H183 C161 0.931 . S
H184 C163 0.930 . S
H185 C167 0.931 . S
H186 C165 0.931 . S
H187 C169 0.931 . S
H188 C170 0.929 . S
H189 C171 0.930 . S
H190 C174 0.930 . S
H191 C175 0.931 . S
H192 C179 0.928 . S
H193 C178 0.929 . S
H194 C176 0.932 . S
C195 C196 1.386 . S
C195 C197 1.397 . S
C195 H219 0.931 . S
C196 C195 1.386 . S
C196 C200 1.397 . S
C197 C195 1.397 . S
C197 C198 1.384 . S
C197 H220 0.930 . S
C198 C197 1.384 . S
C198 C199 1.377 . S
C198 C201 1.481 . S
C199 C198 1.377 . S
C199 C200 1.389 . S
C199 H221 0.929 . S
C200 C196 1.397 . S
C200 C199 1.389 . S
C200 H222 0.931 . S
C201 C198 1.481 . S
C201 C202 1.387 . S
C201 C206 1.390 . S
C202 C201 1.387 . S
C202 C203 1.401 . S
C202 H223 0.930 . S
C203 C202 1.401 . S
C203 C204 1.376 . S
C203 C212 1.511 . S
C204 C203 1.376 . S
C204 C205 1.392 . S
C204 H225 0.931 . S
C205 C204 1.392 . S
C205 C206 1.361 . S
C205 C207 1.500 . S
C206 C201 1.390 . S
C206 C205 1.361 . S
C206 H224 0.931 . S
C207 C205 1.500 . S
C207 C208 1.371 . S
C207 C209 1.365 . S
C208 C207 1.371 . S
C208 C218 1.386 . S
C208 H226 0.931 . S
C209 C207 1.365 . S
C209 C210 1.409 . S
C209 H227 0.929 . S
C210 C209 1.409 . S
C210 C211 1.380 . S
C210 H228 0.930 . S
C211 C210 1.380 . S
C211 C218 1.357 . S
C212 C203 1.511 . S
C212 C213 1.341 . S
C212 C214 1.371 . S
C213 C212 1.341 . S
C213 C217 1.394 . S
C213 H229 0.930 . S
C214 C212 1.371 . S
C214 C215 1.392 . S
C214 H230 0.931 . S
C215 C214 1.392 . S
C215 C216 1.331 . S
C215 H233 0.932 . S
C216 C215 1.331 . S
C216 C217 1.336 . S
C217 C213 1.394 . S
C217 C216 1.336 . S
C217 H232 0.929 . S
C218 C208 1.386 . S
C218 C211 1.357 . S
C218 H231 0.928 . S
H219 C195 0.931 . S
H220 C197 0.930 . S
H221 C199 0.929 . S
H222 C200 0.931 . S
H223 C202 0.930 . S
H224 C206 0.931 . S
H225 C204 0.931 . S
H226 C208 0.931 . S
H227 C209 0.929 . S
H228 C210 0.930 . S
H229 C213 0.930 . S
H230 C214 0.931 . S
H231 C218 0.928 . S
H232 C217 0.929 . S
H233 C215 0.932 . S
C234 C235 1.386 . S
C234 C236 1.397 . S
C234 H258 0.931 . S
C235 C234 1.386 . S
C235 C239 1.397 . S
C236 C234 1.397 . S
C236 C237 1.384 . S
C236 H259 0.930 . S
C237 C236 1.384 . S
C237 C238 1.377 . S
C237 C240 1.481 . S
C238 C237 1.377 . S
C238 C239 1.389 . S
C238 H260 0.929 . S
C239 C235 1.397 . S
C239 C238 1.389 . S
C239 H261 0.931 . S
C240 C237 1.481 . S
C240 C241 1.387 . S
C240 C245 1.390 . S
C241 C240 1.387 . S
C241 C242 1.401 . S
C241 H262 0.930 . S
C242 C241 1.401 . S
C242 C243 1.376 . S
C242 C251 1.511 . S
C243 C242 1.376 . S
C243 C244 1.392 . S
C243 H264 0.931 . S
C244 C243 1.392 . S
C244 C245 1.361 . S
C244 C246 1.500 . S
C245 C240 1.390 . S
C245 C244 1.361 . S
C245 H263 0.931 . S
C246 C244 1.500 . S
C246 C247 1.371 . S
C246 C248 1.365 . S
C247 C246 1.371 . S
C247 C257 1.386 . S
C247 H265 0.931 . S
C248 C246 1.365 . S
C248 C249 1.409 . S
C248 H266 0.929 . S
C249 C248 1.409 . S
C249 C250 1.380 . S
C249 H267 0.930 . S
C250 C249 1.380 . S
C250 C257 1.357 . S
C251 C242 1.511 . S
C251 C252 1.341 . S
C251 C253 1.371 . S
C252 C251 1.341 . S
C252 C256 1.394 . S
C252 H268 0.930 . S
C253 C251 1.371 . S
C253 C254 1.392 . S
C253 H269 0.931 . S
C254 C253 1.392 . S
C254 C255 1.331 . S
C254 H272 0.932 . S
C255 C254 1.331 . S
C255 C256 1.336 . S
C256 C252 1.394 . S
C256 C255 1.336 . S
C256 H271 0.929 . S
C257 C247 1.386 . S
C257 C250 1.357 . S
C257 H270 0.928 . S
H258 C234 0.931 . S
H259 C236 0.930 . S
H260 C238 0.929 . S
H261 C239 0.931 . S
H262 C241 0.930 . S
H263 C245 0.931 . S
H264 C243 0.931 . S
H265 C247 0.931 . S
H266 C248 0.929 . S
H267 C249 0.930 . S
H268 C252 0.930 . S
H269 C253 0.931 . S
H270 C257 0.928 . S
H271 C256 0.929 . S
H272 C254 0.932 . S
C273 C274 1.386 . S
C273 C275 1.397 . S
C273 H297 0.931 . S
C274 C273 1.386 . S
C274 C278 1.397 . S
C275 C273 1.397 . S
C275 C276 1.384 . S
C275 H298 0.930 . S
C276 C275 1.384 . S
C276 C277 1.377 . S
C276 C279 1.481 . S
C277 C276 1.377 . S
C277 C278 1.389 . S
C277 H299 0.929 . S
C278 C274 1.397 . S
C278 C277 1.389 . S
C278 H300 0.931 . S
C279 C276 1.481 . S
C279 C280 1.387 . S
C279 C284 1.390 . S
C280 C279 1.387 . S
C280 C281 1.401 . S
C280 H301 0.930 . S
C281 C280 1.401 . S
C281 C282 1.376 . S
C281 C290 1.511 . S
C282 C281 1.376 . S
C282 C283 1.392 . S
C282 H303 0.931 . S
C283 C282 1.392 . S
C283 C284 1.361 . S
C283 C285 1.500 . S
C284 C279 1.390 . S
C284 C283 1.361 . S
C284 H302 0.931 . S
C285 C283 1.500 . S
C285 C286 1.371 . S
C285 C287 1.365 . S
C286 C285 1.371 . S
C286 C296 1.386 . S
C286 H304 0.931 . S
C287 C285 1.365 . S
C287 C288 1.409 . S
C287 H305 0.929 . S
C288 C287 1.409 . S
C288 C289 1.380 . S
C288 H306 0.930 . S
C289 C288 1.380 . S
C289 C296 1.357 . S
C290 C281 1.511 . S
C290 C291 1.341 . S
C290 C292 1.371 . S
C291 C290 1.341 . S
C291 C295 1.394 . S
C291 H307 0.930 . S
C292 C290 1.371 . S
C292 C293 1.392 . S
C292 H308 0.931 . S
C293 C292 1.392 . S
C293 C294 1.331 . S
C293 H311 0.932 . S
C294 C293 1.331 . S
C294 C295 1.336 . S
C295 C291 1.394 . S
C295 C294 1.336 . S
C295 H310 0.929 . S
C296 C286 1.386 . S
C296 C289 1.357 . S
C296 H309 0.928 . S
H297 C273 0.931 . S
H298 C275 0.930 . S
H299 C277 0.929 . S
H300 C278 0.931 . S
H301 C280 0.930 . S
H302 C284 0.931 . S
H303 C282 0.931 . S
H304 C286 0.931 . S
H305 C287 0.929 . S
H306 C288 0.930 . S
H307 C291 0.930 . S
H308 C292 0.931 . S
H309 C296 0.928 . S
H310 C295 0.929 . S
H311 C293 0.932 . S
C312 C313 1.386 . S
C312 C314 1.397 . S
C312 H336 0.931 . S
C313 C312 1.386 . S
C313 C317 1.397 . S
C314 C312 1.397 . S
C314 C315 1.384 . S
C314 H337 0.930 . S
C315 C314 1.384 . S
C315 C316 1.377 . S
C315 C318 1.481 . S
C316 C315 1.377 . S
C316 C317 1.389 . S
C316 H338 0.929 . S
C317 C313 1.397 . S
C317 C316 1.389 . S
C317 H339 0.931 . S
C318 C315 1.481 . S
C318 C319 1.387 . S
C318 C323 1.390 . S
C319 C318 1.387 . S
C319 C320 1.401 . S
C319 H340 0.930 . S
C320 C319 1.401 . S
C320 C321 1.376 . S
C320 C329 1.511 . S
C321 C320 1.376 . S
C321 C322 1.392 . S
C321 H342 0.931 . S
C322 C321 1.392 . S
C322 C323 1.361 . S
C322 C324 1.500 . S
C323 C318 1.390 . S
C323 C322 1.361 . S
C323 H341 0.931 . S
C324 C322 1.500 . S
C324 C325 1.371 . S
C324 C326 1.365 . S
C325 C324 1.371 . S
C325 C335 1.386 . S
C325 H343 0.931 . S
C326 C324 1.365 . S
C326 C327 1.409 . S
C326 H344 0.929 . S
C327 C326 1.409 . S
C327 C328 1.380 . S
C327 H345 0.930 . S
C328 C327 1.380 . S
C328 C335 1.357 . S
C329 C320 1.511 . S
C329 C330 1.341 . S
C329 C331 1.371 . S
C330 C329 1.341 . S
C330 C334 1.394 . S
C330 H346 0.930 . S
C331 C329 1.371 . S
C331 C332 1.392 . S
C331 H347 0.931 . S
C332 C331 1.392 . S
C332 C333 1.331 . S
C332 H350 0.932 . S
C333 C332 1.331 . S
C333 C334 1.336 . S
C334 C330 1.394 . S
C334 C333 1.336 . S
C334 H349 0.929 . S
C335 C325 1.386 . S
C335 C328 1.357 . S
C335 H348 0.928 . S
H336 C312 0.931 . S
H337 C314 0.930 . S
H338 C316 0.929 . S
H339 C317 0.931 . S
H340 C319 0.930 . S
H341 C323 0.931 . S
H342 C321 0.931 . S
H343 C325 0.931 . S
H344 C326 0.929 . S
H345 C327 0.930 . S
H346 C330 0.930 . S
H347 C331 0.931 . S
H348 C335 0.928 . S
H349 C334 0.929 . S
H350 C332 0.932 . S
C351 C352 1.386 . S
C351 C353 1.397 . S
C351 H375 0.931 . S
C352 C351 1.386 . S
C352 C356 1.397 . S
C353 C351 1.397 . S
C353 C354 1.384 . S
C353 H376 0.930 . S
C354 C353 1.384 . S
C354 C355 1.377 . S
C354 C357 1.481 . S
C355 C354 1.377 . S
C355 C356 1.389 . S
C355 H377 0.929 . S
C356 C352 1.397 . S
C356 C355 1.389 . S
C356 H378 0.931 . S
C357 C354 1.481 . S
C357 C358 1.387 . S
C357 C362 1.390 . S
C358 C357 1.387 . S
C358 C359 1.401 . S
C358 H379 0.930 . S
C359 C358 1.401 . S
C359 C360 1.376 . S
C359 C368 1.511 . S
C360 C359 1.376 . S
C360 C361 1.392 . S
C360 H381 0.931 . S
C361 C360 1.392 . S
C361 C362 1.361 . S
C361 C363 1.500 . S
C362 C357 1.390 . S
C362 C361 1.361 . S
C362 H380 0.931 . S
C363 C361 1.500 . S
C363 C364 1.371 . S
C363 C365 1.365 . S
C364 C363 1.371 . S
C364 C374 1.386 . S
C364 H382 0.931 . S
C365 C363 1.365 . S
C365 C366 1.409 . S
C365 H383 0.929 . S
C366 C365 1.409 . S
C366 C367 1.380 . S
C366 H384 0.930 . S
C367 C366 1.380 . S
C367 C374 1.357 . S
C368 C359 1.511 . S
C368 C369 1.341 . S
C368 C370 1.371 . S
C369 C368 1.341 . S
C369 C373 1.394 . S
C369 H385 0.930 . S
C370 C368 1.371 . S
C370 C371 1.392 . S
C370 H386 0.931 . S
C371 C370 1.392 . S
C371 C372 1.331 . S
C371 H389 0.932 . S
C372 C371 1.331 . S
C372 C373 1.336 . S
C373 C369 1.394 . S
C373 C372 1.336 . S
C373 H388 0.929 . S
C374 C364 1.386 . S
C374 C367 1.357 . S
C374 H387 0.928 . S
H375 C351 0.931 . S
H376 C353 0.930 . S
H377 C355 0.929 . S
H378 C356 0.931 . S
H379 C358 0.930 . S
H380 C362 0.931 . S
H381 C360 0.931 . S
H382 C364 0.931 . S
H383 C365 0.929 . S
H384 C366 0.930 . S
H385 C369 0.930 . S
H386 C370 0.931 . S
H387 C374 0.928 . S
H388 C373 0.929 . S
H389 C371 0.932 . S
C390 C391 1.386 . S
C390 C392 1.397 . S
C390 H414 0.931 . S
C391 C390 1.386 . S
C391 C395 1.397 . S
C392 C390 1.397 . S
C392 C393 1.384 . S
C392 H415 0.930 . S
C393 C392 1.384 . S
C393 C394 1.377 . S
C393 C396 1.481 . S
C394 C393 1.377 . S
C394 C395 1.389 . S
C394 H416 0.929 . S
C395 C391 1.397 . S
C395 C394 1.389 . S
C395 H417 0.931 . S
C396 C393 1.481 . S
C396 C397 1.387 . S
C396 C401 1.390 . S
C397 C396 1.387 . S
C397 C398 1.401 . S
C397 H418 0.930 . S
C398 C397 1.401 . S
C398 C399 1.376 . S
C398 C407 1.511 . S
C399 C398 1.376 . S
C399 C400 1.392 . S
C399 H420 0.931 . S
C400 C399 1.392 . S
C400 C401 1.361 . S
C400 C402 1.500 . S
C401 C396 1.390 . S
C401 C400 1.361 . S
C401 H419 0.931 . S
C402 C400 1.500 . S
C402 C403 1.371 . S
C402 C404 1.365 . S
C403 C402 1.371 . S
C403 C413 1.386 . S
C403 H421 0.931 . S
C404 C402 1.365 . S
C404 C405 1.409 . S
C404 H422 0.929 . S
C405 C404 1.409 . S
C405 C406 1.380 . S
C405 H423 0.930 . S
C406 C405 1.380 . S
C406 C413 1.357 . S
C407 C398 1.511 . S
C407 C408 1.341 . S
C407 C409 1.371 . S
C408 C407 1.341 . S
C408 C412 1.394 . S
C408 H424 0.930 . S
C409 C407 1.371 . S
C409 C410 1.392 . S
C409 H425 0.931 . S
C410 C409 1.392 . S
C410 C411 1.331 . S
C410 H428 0.932 . S
C411 C410 1.331 . S
C411 C412 1.336 . S
C412 C408 1.394 . S
C412 C411 1.336 . S
C412 H427 0.929 . S
C413 C403 1.386 . S
C413 C406 1.357 . S
C413 H426 0.928 . S
H414 C390 0.931 . S
H415 C392 0.930 . S
H416 C394 0.929 . S
H417 C395 0.931 . S
H418 C397 0.930 . S
H419 C401 0.931 . S
H420 C399 0.931 . S
H421 C403 0.931 . S
H422 C404 0.929 . S
H423 C405 0.930 . S
H424 C408 0.930 . S
H425 C409 0.931 . S
H426 C413 0.928 . S
H427 C412 0.929 . S
H428 C410 0.932 . S
C429 C430 1.386 . S
C429 C431 1.397 . S
C429 H453 0.931 . S
C430 C429 1.386 . S
C430 C434 1.397 . S
C431 C429 1.397 . S
C431 C432 1.384 . S
C431 H454 0.930 . S
C432 C431 1.384 . S
C432 C433 1.377 . S
C432 C435 1.481 . S
C433 C432 1.377 . S
C433 C434 1.389 . S
C433 H455 0.929 . S
C434 C430 1.397 . S
C434 C433 1.389 . S
C434 H456 0.931 . S
C435 C432 1.481 . S
C435 C436 1.387 . S
C435 C440 1.390 . S
C436 C435 1.387 . S
C436 C437 1.401 . S
C436 H457 0.930 . S
C437 C436 1.401 . S
C437 C438 1.376 . S
C437 C446 1.511 . S
C438 C437 1.376 . S
C438 C439 1.392 . S
C438 H459 0.931 . S
C439 C438 1.392 . S
C439 C440 1.361 . S
C439 C441 1.500 . S
C440 C435 1.390 . S
C440 C439 1.361 . S
C440 H458 0.931 . S
C441 C439 1.500 . S
C441 C442 1.371 . S
C441 C443 1.365 . S
C442 C441 1.371 . S
C442 C452 1.386 . S
C442 H460 0.931 . S
C443 C441 1.365 . S
C443 C444 1.409 . S
C443 H461 0.929 . S
C444 C443 1.409 . S
C444 C445 1.380 . S
C444 H462 0.930 . S
C445 C444 1.380 . S
C445 C452 1.357 . S
C446 C437 1.511 . S
C446 C447 1.341 . S
C446 C448 1.371 . S
C447 C446 1.341 . S
C447 C451 1.394 . S
C447 H463 0.930 . S
C448 C446 1.371 . S
C448 C449 1.392 . S
C448 H464 0.931 . S
C449 C448 1.392 . S
C449 C450 1.331 . S
C449 H467 0.932 . S
C450 C449 1.331 . S
C450 C451 1.336 . S
C451 C447 1.394 . S
C451 C450 1.336 . S
C451 H466 0.929 . S
C452 C442 1.386 . S
C452 C445 1.357 . S
C452 H465 0.928 . S
H453 C429 0.931 . S
H454 C431 0.930 . S
H455 C433 0.929 . S
H456 C434 0.931 . S
H457 C436 0.930 . S
H458 C440 0.931 . S
H459 C438 0.931 . S
H460 C442 0.931 . S
H461 C443 0.929 . S
H462 C444 0.930 . S
H463 C447 0.930 . S
H464 C448 0.931 . S
H465 C452 0.928 . S
H466 C451 0.929 . S
H467 C449 0.932 . S
C468 C469 1.386 . S
C468 C470 1.397 . S
C468 H492 0.931 . S
C469 C468 1.386 . S
C469 C473 1.397 . S
C470 C468 1.397 . S
C470 C471 1.384 . S
C470 H493 0.930 . S
C471 C470 1.384 . S
C471 C472 1.377 . S
C471 C474 1.481 . S
C472 C471 1.377 . S
C472 C473 1.389 . S
C472 H494 0.929 . S
C473 C469 1.397 . S
C473 C472 1.389 . S
C473 H495 0.931 . S
C474 C471 1.481 . S
C474 C475 1.387 . S
C474 C479 1.390 . S
C475 C474 1.387 . S
C475 C476 1.401 . S
C475 H496 0.930 . S
C476 C475 1.401 . S
C476 C477 1.376 . S
C476 C485 1.511 . S
C477 C476 1.376 . S
C477 C478 1.392 . S
C477 H498 0.931 . S
C478 C477 1.392 . S
C478 C479 1.361 . S
C478 C480 1.500 . S
C479 C474 1.390 . S
C479 C478 1.361 . S
C479 H497 0.931 . S
C480 C478 1.500 . S
C480 C481 1.371 . S
C480 C482 1.365 . S
C481 C480 1.371 . S
C481 C491 1.386 . S
C481 H499 0.931 . S
C482 C480 1.365 . S
C482 C483 1.409 . S
C482 H500 0.929 . S
C483 C482 1.409 . S
C483 C484 1.380 . S
C483 H501 0.930 . S
C484 C483 1.380 . S
C484 C491 1.357 . S
C485 C476 1.511 . S
C485 C486 1.341 . S
C485 C487 1.371 . S
C486 C485 1.341 . S
C486 C490 1.394 . S
C486 H502 0.930 . S
C487 C485 1.371 . S
C487 C488 1.392 . S
C487 H503 0.931 . S
C488 C487 1.392 . S
C488 C489 1.331 . S
C488 H506 0.932 . S
C489 C488 1.331 . S
C489 C490 1.336 . S
C490 C486 1.394 . S
C490 C489 1.336 . S
C490 H505 0.929 . S
C491 C481 1.386 . S
C491 C484 1.357 . S
C491 H504 0.928 . S
H492 C468 0.931 . S
H493 C470 0.930 . S
H494 C472 0.929 . S
H495 C473 0.931 . S
H496 C475 0.930 . S
H497 C479 0.931 . S
H498 C477 0.931 . S
H499 C481 0.931 . S
H500 C482 0.929 . S
H501 C483 0.930 . S
H502 C486 0.930 . S
H503 C487 0.931 . S
H504 C491 0.928 . S
H505 C490 0.929 . S
H506 C488 0.932 . S
C507 C508 1.386 . S
C507 C509 1.397 . S
C507 H531 0.931 . S
C508 C507 1.386 . S
C508 C512 1.397 . S
C509 C507 1.397 . S
C509 C510 1.384 . S
C509 H532 0.930 . S
C510 C509 1.384 . S
C510 C511 1.377 . S
C510 C513 1.481 . S
C511 C510 1.377 . S
C511 C512 1.389 . S
C511 H533 0.929 . S
C512 C508 1.397 . S
C512 C511 1.389 . S
C512 H534 0.931 . S
C513 C510 1.481 . S
C513 C514 1.387 . S
C513 C518 1.390 . S
C514 C513 1.387 . S
C514 C515 1.401 . S
C514 H535 0.930 . S
C515 C514 1.401 . S
C515 C516 1.376 . S
C515 C524 1.511 . S
C516 C515 1.376 . S
C516 C517 1.392 . S
C516 H537 0.931 . S
C517 C516 1.392 . S
C517 C518 1.361 . S
C517 C519 1.500 . S
C518 C513 1.390 . S
C518 C517 1.361 . S
C518 H536 0.931 . S
C519 C517 1.500 . S
C519 C520 1.371 . S
C519 C521 1.365 . S
C520 C519 1.371 . S
C520 C530 1.386 . S
C520 H538 0.931 . S
C521 C519 1.365 . S
C521 C522 1.409 . S
C521 H539 0.929 . S
C522 C521 1.409 . S
C522 C523 1.380 . S
C522 H540 0.930 . S
C523 C522 1.380 . S
C523 C530 1.357 . S
C524 C515 1.511 . S
C524 C525 1.341 . S
C524 C526 1.371 . S
C525 C524 1.341 . S
C525 C529 1.394 . S
C525 H541 0.930 . S
C526 C524 1.371 . S
C526 C527 1.392 . S
C526 H542 0.931 . S
C527 C526 1.392 . S
C527 C528 1.331 . S
C527 H545 0.932 . S
C528 C527 1.331 . S
C528 C529 1.336 . S
C529 C525 1.394 . S
C529 C528 1.336 . S
C529 H544 0.929 . S
C530 C520 1.386 . S
C530 C523 1.357 . S
C530 H543 0.928 . S
H531 C507 0.931 . S
H532 C509 0.930 . S
H533 C511 0.929 . S
H534 C512 0.931 . S
H535 C514 0.930 . S
H536 C518 0.931 . S
H537 C516 0.931 . S
H538 C520 0.931 . S
H539 C521 0.929 . S
H540 C522 0.930 . S
H541 C525 0.930 . S
H542 C526 0.931 . S
H543 C530 0.928 . S
H544 C529 0.929 . S
H545 C527 0.932 . S
C546 C547 1.386 . S
C546 C548 1.397 . S
C546 H570 0.931 . S
C547 C546 1.386 . S
C547 C551 1.397 . S
C548 C546 1.397 . S
C548 C549 1.384 . S
C548 H571 0.930 . S
C549 C548 1.384 . S
C549 C550 1.377 . S
C549 C552 1.481 . S
C550 C549 1.377 . S
C550 C551 1.389 . S
C550 H572 0.929 . S
C551 C547 1.397 . S
C551 C550 1.389 . S
C551 H573 0.931 . S
C552 C549 1.481 . S
C552 C553 1.387 . S
C552 C557 1.390 . S
C553 C552 1.387 . S
C553 C554 1.401 . S
C553 H574 0.930 . S
C554 C553 1.401 . S
C554 C555 1.376 . S
C554 C563 1.511 . S
C555 C554 1.376 . S
C555 C556 1.392 . S
C555 H576 0.931 . S
C556 C555 1.392 . S
C556 C557 1.361 . S
C556 C558 1.500 . S
C557 C552 1.390 . S
C557 C556 1.361 . S
C557 H575 0.931 . S
C558 C556 1.500 . S
C558 C559 1.371 . S
C558 C560 1.365 . S
C559 C558 1.371 . S
C559 C569 1.386 . S
C559 H577 0.931 . S
C560 C558 1.365 . S
C560 C561 1.409 . S
C560 H578 0.929 . S
C561 C560 1.409 . S
C561 C562 1.380 . S
C561 H579 0.930 . S
C562 C561 1.380 . S
C562 C569 1.357 . S
C563 C554 1.511 . S
C563 C564 1.341 . S
C563 C565 1.371 . S
C564 C563 1.341 . S
C564 C568 1.394 . S
C564 H580 0.930 . S
C565 C563 1.371 . S
C565 C566 1.392 . S
C565 H581 0.931 . S
C566 C565 1.392 . S
C566 C567 1.331 . S
C566 H584 0.932 . S
C567 C566 1.331 . S
C567 C568 1.336 . S
C568 C564 1.394 . S
C568 C567 1.336 . S
C568 H583 0.929 . S
C569 C559 1.386 . S
C569 C562 1.357 . S
C569 H582 0.928 . S
H570 C546 0.931 . S
H571 C548 0.930 . S
H572 C550 0.929 . S
H573 C551 0.931 . S
H574 C553 0.930 . S
H575 C557 0.931 . S
H576 C555 0.931 . S
H577 C559 0.931 . S
H578 C560 0.929 . S
H579 C561 0.930 . S
H580 C564 0.930 . S
H581 C565 0.931 . S
H582 C569 0.928 . S
H583 C568 0.929 . S
H584 C566 0.932 . S
C585 C586 1.386 . S
C585 C587 1.397 . S
C585 H609 0.931 . S
C586 C585 1.386 . S
C586 C590 1.397 . S
C587 C585 1.397 . S
C587 C588 1.384 . S
C587 H610 0.930 . S
C588 C587 1.384 . S
C588 C589 1.377 . S
C588 C591 1.481 . S
C589 C588 1.377 . S
C589 C590 1.389 . S
C589 H611 0.929 . S
C590 C586 1.397 . S
C590 C589 1.389 . S
C590 H612 0.931 . S
C591 C588 1.481 . S
C591 C592 1.387 . S
C591 C596 1.390 . S
C592 C591 1.387 . S
C592 C593 1.401 . S
C592 H613 0.930 . S
C593 C592 1.401 . S
C593 C594 1.376 . S
C593 C602 1.511 . S
C594 C593 1.376 . S
C594 C595 1.392 . S
C594 H615 0.931 . S
C595 C594 1.392 . S
C595 C596 1.361 . S
C595 C597 1.500 . S
C596 C591 1.390 . S
C596 C595 1.361 . S
C596 H614 0.931 . S
C597 C595 1.500 . S
C597 C598 1.371 . S
C597 C599 1.365 . S
C598 C597 1.371 . S
C598 C608 1.386 . S
C598 H616 0.931 . S
C599 C597 1.365 . S
C599 C600 1.409 . S
C599 H617 0.929 . S
C600 C599 1.409 . S
C600 C601 1.380 . S
C600 H618 0.930 . S
C601 C600 1.380 . S
C601 C608 1.357 . S
C602 C593 1.511 . S
C602 C603 1.341 . S
C602 C604 1.371 . S
C603 C602 1.341 . S
C603 C607 1.394 . S
C603 H619 0.930 . S
C604 C602 1.371 . S
C604 C605 1.392 . S
C604 H620 0.931 . S
C605 C604 1.392 . S
C605 C606 1.331 . S
C605 H623 0.932 . S
C606 C605 1.331 . S
C606 C607 1.336 . S
C607 C603 1.394 . S
C607 C606 1.336 . S
C607 H622 0.929 . S
C608 C598 1.386 . S
C608 C601 1.357 . S
C608 H621 0.928 . S
H609 C585 0.931 . S
H610 C587 0.930 . S
H611 C589 0.929 . S
H612 C590 0.931 . S
H613 C592 0.930 . S
H614 C596 0.931 . S
H615 C594 0.931 . S
H616 C598 0.931 . S
H617 C599 0.929 . S
H618 C600 0.930 . S
H619 C603 0.930 . S
H620 C604 0.931 . S
H621 C608 0.928 . S
H622 C607 0.929 . S
H623 C605 0.932 . S
C624 C625 1.386 . S
C624 C626 1.397 . S
C624 H648 0.931 . S
C625 C624 1.386 . S
C625 C629 1.397 . S
C626 C624 1.397 . S
C626 C627 1.384 . S
C626 H649 0.930 . S
C627 C626 1.384 . S
C627 C628 1.377 . S
C627 C630 1.481 . S
C628 C627 1.377 . S
C628 C629 1.389 . S
C628 H650 0.929 . S
C629 C625 1.397 . S
C629 C628 1.389 . S
C629 H651 0.931 . S
C630 C627 1.481 . S
C630 C631 1.387 . S
C630 C635 1.390 . S
C631 C630 1.387 . S
C631 C632 1.401 . S
C631 H652 0.930 . S
C632 C631 1.401 . S
C632 C633 1.376 . S
C632 C641 1.511 . S
C633 C632 1.376 . S
C633 C634 1.392 . S
C633 H654 0.931 . S
C634 C633 1.392 . S
C634 C635 1.361 . S
C634 C636 1.500 . S
C635 C630 1.390 . S
C635 C634 1.361 . S
C635 H653 0.931 . S
C636 C634 1.500 . S
C636 C637 1.371 . S
C636 C638 1.365 . S
C637 C636 1.371 . S
C637 C647 1.386 . S
C637 H655 0.931 . S
C638 C636 1.365 . S
C638 C639 1.409 . S
C638 H656 0.929 . S
C639 C638 1.409 . S
C639 C640 1.380 . S
C639 H657 0.930 . S
C640 C639 1.380 . S
C640 C647 1.357 . S
C641 C632 1.511 . S
C641 C642 1.341 . S
C641 C643 1.371 . S
C642 C641 1.341 . S
C642 C646 1.394 . S
C642 H658 0.930 . S
C643 C641 1.371 . S
C643 C644 1.392 . S
C643 H659 0.931 . S
C644 C643 1.392 . S
C644 C645 1.331 . S
C644 H662 0.932 . S
C645 C644 1.331 . S
C645 C646 1.336 . S
C646 C642 1.394 . S
C646 C645 1.336 . S
C646 H661 0.929 . S
C647 C637 1.386 . S
C647 C640 1.357 . S
C647 H660 0.928 . S
H648 C624 0.931 . S
H649 C626 0.930 . S
H650 C628 0.929 . S
H651 C629 0.931 . S
H652 C631 0.930 . S
H653 C635 0.931 . S
H654 C633 0.931 . S
H655 C637 0.931 . S
H656 C638 0.929 . S
H657 C639 0.930 . S
H658 C642 0.930 . S
H659 C643 0.931 . S
H660 C647 0.928 . S
H661 C646 0.929 . S
H662 C644 0.932 . S
C663 C664 1.386 . S
C663 C665 1.397 . S
C663 H687 0.931 . S
C664 C663 1.386 . S
C664 C668 1.397 . S
C665 C663 1.397 . S
C665 C666 1.384 . S
C665 H688 0.930 . S
C666 C665 1.384 . S
C666 C667 1.377 . S
C666 C669 1.481 . S
C667 C666 1.377 . S
C667 C668 1.389 . S
C667 H689 0.929 . S
C668 C664 1.397 . S
C668 C667 1.389 . S
C668 H690 0.931 . S
C669 C666 1.481 . S
C669 C670 1.387 . S
C669 C674 1.390 . S
C670 C669 1.387 . S
C670 C671 1.401 . S
C670 H691 0.930 . S
C671 C670 1.401 . S
C671 C672 1.376 . S
C671 C680 1.511 . S
C672 C671 1.376 . S
C672 C673 1.392 . S
C672 H693 0.931 . S
C673 C672 1.392 . S
C673 C674 1.361 . S
C673 C675 1.500 . S
C674 C669 1.390 . S
C674 C673 1.361 . S
C674 H692 0.931 . S
C675 C673 1.500 . S
C675 C676 1.371 . S
C675 C677 1.365 . S
C676 C675 1.371 . S
C676 C686 1.386 . S
C676 H694 0.931 . S
C677 C675 1.365 . S
C677 C678 1.409 . S
C677 H695 0.929 . S
C678 C677 1.409 . S
C678 C679 1.380 . S
C678 H696 0.930 . S
C679 C678 1.380 . S
C679 C686 1.357 . S
C680 C671 1.511 . S
C680 C681 1.341 . S
C680 C682 1.371 . S
C681 C680 1.341 . S
C681 C685 1.394 . S
C681 H697 0.930 . S
C682 C680 1.371 . S
C682 C683 1.392 . S
C682 H698 0.931 . S
C683 C682 1.392 . S
C683 C684 1.331 . S
C683 H701 0.932 . S
C684 C683 1.331 . S
C684 C685 1.336 . S
C685 C681 1.394 . S
C685 C684 1.336 . S
C685 H700 0.929 . S
C686 C676 1.386 . S
C686 C679 1.357 . S
C686 H699 0.928 . S
H687 C663 0.931 . S
H688 C665 0.930 . S
H689 C667 0.929 . S
H690 C668 0.931 . S
H691 C670 0.930 . S
H692 C674 0.931 . S
H693 C672 0.931 . S
H694 C676 0.931 . S
H695 C677 0.929 . S
H696 C678 0.930 . S
H697 C681 0.930 . S
H698 C682 0.931 . S
H699 C686 0.928 . S
H700 C685 0.929 . S
H701 C683 0.932 . S
O702 Mg703 1.990 . S
O702 C716 1.253 1_565 S
Mg703 O702 1.990 . S
Mg703 O706 2.180 1_556 S
Mg703 O707 2.117 . S
Mg703 O721 2.030 1_565 S
O704 Mg705 2.072 1_556 S
O704 C716 1.260 . S
Mg705 O704 2.072 1_554 S
Mg705 O706 2.099 1_545 S
Mg705 O708 2.079 . S
Mg705 O709 2.072 1_545 S
Mg705 O711 2.099 . S
Mg705 O722 2.079 . S
O706 Mg703 2.180 1_554 S
O706 Mg705 2.099 1_565 S
O706 C717 1.279 . S
O707 Mg703 2.117 . S
O707 C717 1.250 1_556 S
O708 Mg705 2.079 . S
O708 C718 1.264 . S
O709 Mg705 2.072 1_565 S
O709 C719 1.260 . S
Mg710 O711 2.180 . S
Mg710 O712 2.030 . S
Mg710 O713 1.990 1_545 S
Mg710 O714 2.117 . S
O711 Mg705 2.099 . S
O711 Mg710 2.180 . S
O711 C720 1.279 . S
O712 Mg710 2.030 . S
O712 C718 1.248 . S
O713 Mg710 1.990 1_565 S
O713 C719 1.253 . S
O714 Mg710 2.117 . S
O714 C720 1.250 . S
C715 O721 1.248 . S
C715 O722 1.264 1_556 S
C716 O702 1.253 1_545 S
C716 O704 1.260 . S
C717 O706 1.279 . S
C717 O707 1.250 1_554 S
C718 O708 1.264 . S
C718 O712 1.248 . S
C719 O709 1.260 . S
C719 O713 1.253 . S
C720 O711 1.279 . S
C720 O714 1.250 . S
O721 Mg703 2.030 1_545 S
O721 C715 1.248 . S
O722 Mg705 2.079 . S
O722 C715 1.264 1_554 S
O723 Mg724 1.990 . S
O723 C737 1.253 . S
Mg724 O723 1.990 . S
Mg724 O727 2.180 1_556 S
Mg724 O728 2.117 . S
Mg724 O742 2.030 1_455 S
O725 Mg726 2.071 1_556 S
O725 C737 1.260 1_655 S
Mg726 O725 2.071 1_554 S
Mg726 O727 2.096 1_655 S
Mg726 O729 2.082 . S
Mg726 O730 2.035 1_655 S
Mg726 O732 2.103 . S
Mg726 O743 2.116 . S
O727 Mg724 2.180 1_554 S
O727 Mg726 2.096 1_455 S
O727 C738 1.279 . S
O728 Mg724 2.117 . S
O728 C738 1.250 1_556 S
O729 Mg726 2.082 . S
O729 C739 1.264 1_655 S
O730 Mg726 2.035 1_455 S
O730 C740 1.260 . S
Mg731 O732 2.180 . S
Mg731 O733 2.030 1_655 S
Mg731 O734 1.990 1_655 S
Mg731 O735 2.117 . S
O732 Mg726 2.103 . S
O732 Mg731 2.180 . S
O732 C741 1.279 . S
O733 Mg731 2.030 1_455 S
O733 C739 1.248 . S
O734 Mg731 1.990 1_455 S
O734 C740 1.253 . S
O735 Mg731 2.117 . S
O735 C741 1.250 . S
C736 O742 1.248 . S
C736 O743 1.264 1_556 S
C737 O723 1.253 . S
C737 O725 1.260 1_455 S
C738 O727 1.279 . S
C738 O728 1.250 1_554 S
C739 O729 1.264 1_455 S
C739 O733 1.248 . S
C740 O730 1.260 . S
C740 O734 1.253 . S
C741 O732 1.279 . S
C741 O735 1.250 . S
O742 Mg724 2.030 1_655 S
O742 C736 1.248 . S
O743 Mg726 2.116 . S
O743 C736 1.264 1_554 S
O744 Mg745 1.990 . S
O744 C758 1.253 . S
Mg745 O744 1.990 . S
Mg745 O748 2.180 . S
Mg745 O749 2.117 . S
Mg745 O763 2.030 . S
O746 Mg747 2.081 . S
O746 C758 1.260 . S
Mg747 O746 2.081 . S
Mg747 O748 2.100 . S
Mg747 O750 2.069 1_554 S
Mg747 O751 2.072 1_554 S
Mg747 O753 2.097 1_554 S
Mg747 O764 2.079 . S
O748 Mg745 2.180 . S
O748 Mg747 2.100 . S
O748 C759 1.279 . S
O749 Mg745 2.117 . S
O749 C759 1.250 . S
O750 Mg747 2.069 1_556 S
O750 C760 1.264 . S
O751 Mg747 2.072 1_556 S
O751 C761 1.260 . S
Mg752 O753 2.180 . S
Mg752 O754 2.030 . S
Mg752 O755 1.990 . S
Mg752 O756 2.113 1_556 S
O753 Mg747 2.097 1_556 S
O753 Mg752 2.180 . S
O753 C762 1.279 1_556 S
O754 Mg752 2.030 . S
O754 C760 1.248 . S
O755 Mg752 1.990 . S
O755 C761 1.253 . S
O756 Mg752 2.113 1_554 S
O756 C762 1.252 . S
C757 O763 1.248 . S
C757 O764 1.264 . S
C758 O744 1.253 . S
C758 O746 1.260 . S
C759 O748 1.279 . S
C759 O749 1.250 . S
C760 O750 1.264 . S
C760 O754 1.248 . S
C761 O751 1.260 . S
C761 O755 1.253 . S
C762 O753 1.279 1_554 S
C762 O756 1.252 . S
O763 Mg745 2.030 . S
O763 C757 1.248 . S
O764 Mg747 2.079 . S
O764 C757 1.264 . S
O765 Mg766 1.990 . S
O765 C779 1.253 . S
Mg766 O765 1.990 . S
Mg766 O769 2.180 . S
Mg766 O770 2.117 . S
Mg766 O784 2.030 . S
O767 Mg768 2.072 . S
O767 C779 1.260 . S
Mg768 O767 2.072 . S
Mg768 O769 2.099 . S
Mg768 O771 2.079 . S
Mg768 O772 2.072 . S
Mg768 O774 2.099 . S
Mg768 O785 2.079 . S
O769 Mg766 2.180 . S
O769 Mg768 2.099 . S
O769 C780 1.279 . S
O770 Mg766 2.117 . S
O770 C780 1.250 . S
O771 Mg768 2.079 . S
O771 C781 1.264 . S
O772 Mg768 2.072 . S
O772 C782 1.260 . S
Mg773 O774 2.180 . S
Mg773 O775 2.030 . S
Mg773 O776 1.990 . S
Mg773 O777 2.117 . S
O774 Mg768 2.099 . S
O774 Mg773 2.180 . S
O774 C783 1.279 . S
O775 Mg773 2.030 . S
O775 C781 1.248 . S
O776 Mg773 1.990 . S
O776 C782 1.253 . S
O777 Mg773 2.117 . S
O777 C783 1.250 . S
C778 O784 1.248 . S
C778 O785 1.264 . S
C779 O765 1.253 . S
C779 O767 1.260 . S
C780 O769 1.279 . S
C780 O770 1.250 . S
C781 O771 1.264 . S
C781 O775 1.248 . S
C782 O772 1.260 . S
C782 O776 1.253 . S
C783 O774 1.279 . S
C783 O777 1.250 . S
O784 Mg766 2.030 . S
O784 C778 1.248 . S
O785 Mg768 2.079 . S
O785 C778 1.264 . S
O786 Mg787 1.990 . S
O786 C800 1.253 . S
Mg787 O786 1.990 . S
Mg787 O790 2.180 . S
Mg787 O791 2.117 . S
Mg787 O805 2.030 . S
O788 Mg789 2.072 . S
O788 C800 1.260 . S
Mg789 O788 2.072 . S
Mg789 O790 2.099 . S
Mg789 O792 2.079 . S
Mg789 O793 2.072 . S
Mg789 O795 2.099 . S
Mg789 O806 2.079 . S
O790 Mg787 2.180 . S
O790 Mg789 2.099 . S
O790 C801 1.279 . S
O791 Mg787 2.117 . S
O791 C801 1.250 . S
O792 Mg789 2.079 . S
O792 C802 1.264 . S
O793 Mg789 2.072 . S
O793 C803 1.260 . S
Mg794 O795 2.180 . S
Mg794 O796 2.030 . S
Mg794 O797 1.990 . S
Mg794 O798 2.117 . S
O795 Mg789 2.099 . S
O795 Mg794 2.180 . S
O795 C804 1.279 . S
O796 Mg794 2.030 . S
O796 C802 1.248 . S
O797 Mg794 1.990 . S
O797 C803 1.253 . S
O798 Mg794 2.117 . S
O798 C804 1.250 . S
C799 O805 1.248 . S
C799 O806 1.264 . S
C800 O786 1.253 . S
C800 O788 1.260 . S
C801 O790 1.279 . S
C801 O791 1.250 . S
C802 O792 1.264 . S
C802 O796 1.248 . S
C803 O793 1.260 . S
C803 O797 1.253 . S
C804 O795 1.279 . S
C804 O798 1.250 . S
O805 Mg787 2.030 . S
O805 C799 1.248 . S
O806 Mg789 2.079 . S
O806 C799 1.264 . S
O807 Mg808 1.990 . S
O807 C821 1.253 . S
Mg808 O807 1.990 . S
Mg808 O811 2.180 . S
Mg808 O812 2.117 . S
Mg808 O826 2.030 . S
O809 Mg810 2.072 . S
O809 C821 1.260 . S
Mg810 O809 2.072 . S
Mg810 O811 2.099 . S
Mg810 O813 2.079 . S
Mg810 O814 2.072 . S
Mg810 O816 2.099 . S
Mg810 O827 2.079 . S
O811 Mg808 2.180 . S
O811 Mg810 2.099 . S
O811 C822 1.279 . S
O812 Mg808 2.117 . S
O812 C822 1.250 . S
O813 Mg810 2.079 . S
O813 C823 1.264 . S
O814 Mg810 2.072 . S
O814 C824 1.260 . S
Mg815 O816 2.180 . S
Mg815 O817 2.030 . S
Mg815 O818 1.990 . S
Mg815 O819 2.117 . S
O816 Mg810 2.099 . S
O816 Mg815 2.180 . S
O816 C825 1.279 . S
O817 Mg815 2.030 . S
O817 C823 1.248 . S
O818 Mg815 1.990 . S
O818 C824 1.253 . S
O819 Mg815 2.117 . S
O819 C825 1.250 . S
C820 O826 1.248 . S
C820 O827 1.264 . S
C821 O807 1.253 . S
C821 O809 1.260 . S
C822 O811 1.279 . S
C822 O812 1.250 . S
C823 O813 1.264 . S
C823 O817 1.248 . S
C824 O814 1.260 . S
C824 O818 1.253 . S
C825 O816 1.279 . S
C825 O819 1.250 . S
O826 Mg808 2.030 . S
O826 C820 1.248 . S
O827 Mg810 2.079 . S
O827 C820 1.264 . S
O828 Mg829 1.990 . S
O828 C842 1.253 . S
Mg829 O828 1.990 . S
Mg829 O832 2.180 . S
Mg829 O833 2.117 . S
Mg829 O847 2.030 . S
O830 Mg831 2.072 . S
O830 C842 1.260 . S
Mg831 O830 2.072 . S
Mg831 O832 2.099 . S
Mg831 O834 2.079 . S
Mg831 O835 2.072 . S
Mg831 O837 2.099 . S
Mg831 O848 2.079 . S
O832 Mg829 2.180 . S
O832 Mg831 2.099 . S
O832 C843 1.279 . S
O833 Mg829 2.117 . S
O833 C843 1.250 . S
O834 Mg831 2.079 . S
O834 C844 1.264 . S
O835 Mg831 2.072 . S
O835 C845 1.260 . S
Mg836 O837 2.180 . S
Mg836 O838 2.030 . S
Mg836 O839 1.990 . S
Mg836 O840 2.117 . S
O837 Mg831 2.099 . S
O837 Mg836 2.180 . S
O837 C846 1.279 . S
O838 Mg836 2.030 . S
O838 C844 1.248 . S
O839 Mg836 1.990 . S
O839 C845 1.253 . S
O840 Mg836 2.117 . S
O840 C846 1.250 . S
C841 O847 1.248 . S
C841 O848 1.264 . S
C842 O828 1.253 . S
C842 O830 1.260 . S
C843 O832 1.279 . S
C843 O833 1.250 . S
C844 O834 1.264 . S
C844 O838 1.248 . S
C845 O835 1.260 . S
C845 O839 1.253 . S
C846 O837 1.279 . S
C846 O840 1.250 . S
O847 Mg829 2.030 . S
O847 C841 1.248 . S
O848 Mg831 2.079 . S
O848 C841 1.264 . S
O849 Mg850 1.990 . S
O849 C863 1.253 . S
Mg850 O849 1.990 . S
Mg850 O853 2.180 . S
Mg850 O854 2.117 . S
Mg850 O868 2.030 . S
O851 Mg852 2.072 . S
O851 C863 1.260 . S
Mg852 O851 2.072 . S
Mg852 O853 2.099 . S
Mg852 O855 2.079 . S
Mg852 O856 2.072 . S
Mg852 O858 2.099 . S
Mg852 O869 2.079 . S
O853 Mg850 2.180 . S
O853 Mg852 2.099 . S
O853 C864 1.279 . S
O854 Mg850 2.117 . S
O854 C864 1.250 . S
O855 Mg852 2.079 . S
O855 C865 1.264 . S
O856 Mg852 2.072 . S
O856 C866 1.260 . S
Mg857 O858 2.180 . S
Mg857 O859 2.030 . S
Mg857 O860 1.990 . S
Mg857 O861 2.117 . S
O858 Mg852 2.099 . S
O858 Mg857 2.180 . S
O858 C867 1.279 . S
O859 Mg857 2.030 . S
O859 C865 1.248 . S
O860 Mg857 1.990 . S
O860 C866 1.253 . S
O861 Mg857 2.117 . S
O861 C867 1.250 . S
C862 O868 1.248 . S
C862 O869 1.264 . S
C863 O849 1.253 . S
C863 O851 1.260 . S
C864 O853 1.279 . S
C864 O854 1.250 . S
C865 O855 1.264 . S
C865 O859 1.248 . S
C866 O856 1.260 . S
C866 O860 1.253 . S
C867 O858 1.279 . S
C867 O861 1.250 . S
O868 Mg850 2.030 . S
O868 C862 1.248 . S
O869 Mg852 2.079 . S
O869 C862 1.264 . S
O870 Mg871 1.990 . S
O870 C884 1.253 . S
Mg871 O870 1.990 . S
Mg871 O874 2.180 . S
Mg871 O875 2.117 . S
Mg871 O889 2.030 . S
O872 Mg873 2.072 . S
O872 C884 1.260 . S
Mg873 O872 2.072 . S
Mg873 O874 2.099 . S
Mg873 O876 2.079 . S
Mg873 O877 2.072 . S
Mg873 O879 2.099 . S
Mg873 O890 2.079 . S
O874 Mg871 2.180 . S
O874 Mg873 2.099 . S
O874 C885 1.279 . S
O875 Mg871 2.117 . S
O875 C885 1.250 . S
O876 Mg873 2.079 . S
O876 C886 1.264 . S
O877 Mg873 2.072 . S
O877 C887 1.260 . S
Mg878 O879 2.180 . S
Mg878 O880 2.030 . S
Mg878 O881 1.990 . S
Mg878 O882 2.117 . S
O879 Mg873 2.099 . S
O879 Mg878 2.180 . S
O879 C888 1.279 . S
O880 Mg878 2.030 . S
O880 C886 1.248 . S
O881 Mg878 1.990 . S
O881 C887 1.253 . S
O882 Mg878 2.117 . S
O882 C888 1.250 . S
C883 O889 1.248 . S
C883 O890 1.264 . S
C884 O870 1.253 . S
C884 O872 1.260 . S
C885 O874 1.279 . S
C885 O875 1.250 . S
C886 O876 1.264 . S
C886 O880 1.248 . S
C887 O877 1.260 . S
C887 O881 1.253 . S
C888 O879 1.279 . S
C888 O882 1.250 . S
O889 Mg871 2.030 . S
O889 C883 1.248 . S
O890 Mg873 2.079 . S
O890 C883 1.264 . S
C891 C892 1.349 . S
C891 C893 1.327 . S
C891 H916 0.950 . S
C892 C891 1.349 . S
C892 C908 1.349 . S
C893 C891 1.327 . S
C893 C912 1.429 . S
C893 H917 0.950 . S
C894 C911 1.574 . S
C894 C913 1.368 . S
C894 H918 0.949 . S
H895 C899 0.949 . S
C896 C897 1.349 . S
C896 C898 1.327 . S
C896 H919 0.950 1_554 S
C897 C896 1.349 . S
C897 C909 1.349 . S
C898 C896 1.327 . S
C898 C914 1.429 . S
C898 H920 0.950 1_554 S
C899 H895 0.949 . S
C899 C907 1.574 . S
C899 C915 1.368 . S
H900 C908 0.950 . S
H901 C906 0.950 . S
H902 C907 0.949 . S
H903 C909 0.950 . S
H904 C910 0.950 . S
H905 C911 0.928 1_556 S
C906 H901 0.950 . S
C906 C908 1.327 . S
C906 C912 1.429 . S
C907 C899 1.574 . S
C907 H902 0.949 . S
C907 C913 1.368 . S
C908 C892 1.349 . S
C908 H900 0.950 . S
C908 C906 1.327 . S
C909 C897 1.349 . S
C909 H903 0.950 . S
C909 C910 1.327 . S
C910 H904 0.950 . S
C910 C909 1.327 . S
C910 C914 1.429 . S
C911 C894 1.574 . S
C911 H905 0.928 1_554 S
C911 C915 1.368 . S
C912 C893 1.429 . S
C912 C906 1.429 . S
C912 C913 1.523 . S
C913 C894 1.368 . S
C913 C907 1.368 . S
C913 C912 1.523 . S
C914 C898 1.429 . S
C914 C910 1.429 . S
C914 C915 1.523 . S
C915 C899 1.368 . S
C915 C911 1.368 . S
C915 C914 1.523 . S
H916 C891 0.950 . S
H917 C893 0.950 . S
H918 C894 0.949 . S
H919 C896 0.950 1_556 S
H920 C898 0.950 1_556 S
C921 C922 1.349 . S
C921 C923 1.327 . S
C921 H946 0.950 . S
C922 C921 1.349 . S
C922 C938 1.349 . S
C923 C921 1.327 . S
C923 C942 1.429 . S
C923 H947 0.950 . S
C924 C941 1.574 . S
C924 C943 1.368 . S
C924 H948 0.949 . S
H925 C929 0.949 . S
C926 C927 1.349 . S
C926 C928 1.327 . S
C926 H949 0.950 . S
C927 C926 1.349 . S
C927 C939 1.349 . S
C928 C926 1.327 . S
C928 C944 1.429 . S
C928 H950 0.950 . S
C929 H925 0.949 . S
C929 C937 1.574 . S
C929 C945 1.368 . S
H930 C938 0.950 . S
H931 C936 0.950 . S
H932 C937 0.949 . S
H933 C939 0.950 . S
H934 C940 0.950 . S
H935 C941 0.949 . S
C936 H931 0.950 . S
C936 C938 1.327 . S
C936 C942 1.429 . S
C937 C929 1.574 . S
C937 H932 0.949 . S
C937 C943 1.368 . S
C938 C922 1.349 . S
C938 H930 0.950 . S
C938 C936 1.327 . S
C939 C927 1.349 . S
C939 H933 0.950 . S
C939 C940 1.327 . S
C940 H934 0.950 . S
C940 C939 1.327 . S
C940 C944 1.429 . S
C941 C924 1.574 . S
C941 H935 0.949 . S
C941 C945 1.368 . S
C942 C923 1.429 . S
C942 C936 1.429 . S
C942 C943 1.523 . S
C943 C924 1.368 . S
C943 C937 1.368 . S
C943 C942 1.523 . S
C944 C928 1.429 . S
C944 C940 1.429 . S
C944 C945 1.523 . S
C945 C929 1.368 . S
C945 C941 1.368 . S
C945 C944 1.523 . S
H946 C921 0.950 . S
H947 C923 0.950 . S
H948 C924 0.949 . S
H949 C926 0.950 . S
H950 C928 0.950 . S
C951 C952 1.349 . S
C951 C953 1.327 . S
C951 H976 0.950 . S
C952 C951 1.349 . S
C952 C968 1.349 . S
C953 C951 1.327 . S
C953 C972 1.429 . S
C953 H977 0.950 . S
C954 C971 1.574 . S
C954 C973 1.368 . S
C954 H978 0.949 . S
H955 C959 0.949 . S
C956 C957 1.349 . S
C956 C958 1.327 . S
C956 H979 0.950 . S
C957 C956 1.349 . S
C957 C969 1.349 . S
C958 C956 1.327 . S
C958 C974 1.429 . S
C958 H980 0.950 . S
C959 H955 0.949 . S
C959 C967 1.574 . S
C959 C975 1.368 . S
H960 C968 0.950 . S
H961 C966 0.950 . S
H962 C967 0.949 . S
H963 C969 0.950 1_556 S
H964 C970 0.950 1_556 S
H965 C971 0.949 . S
C966 H961 0.950 . S
C966 C968 1.327 . S
C966 C972 1.429 . S
C967 C959 1.574 . S
C967 H962 0.949 . S
C967 C973 1.368 . S
C968 C952 1.349 . S
C968 H960 0.950 . S
C968 C966 1.327 . S
C969 C957 1.349 . S
C969 H963 0.950 1_554 S
C969 C970 1.327 . S
C970 H964 0.950 1_554 S
C970 C969 1.327 . S
C970 C974 1.429 . S
C971 C954 1.574 . S
C971 H965 0.949 . S
C971 C975 1.368 . S
C972 C953 1.429 . S
C972 C966 1.429 . S
C972 C973 1.523 . S
C973 C954 1.368 . S
C973 C967 1.368 . S
C973 C972 1.523 . S
C974 C958 1.429 . S
C974 C970 1.429 . S
C974 C975 1.523 . S
C975 C959 1.368 . S
C975 C971 1.368 . S
C975 C974 1.523 . S
H976 C951 0.950 . S
H977 C953 0.950 . S
H978 C954 0.949 . S
H979 C956 0.950 . S
H980 C958 0.950 . S
C981 C982 1.349 . S
C981 C983 1.327 . S
C981 H1006 0.950 . S
C982 C981 1.349 . S
C982 C998 1.349 . S
C983 C981 1.327 . S
C983 C1002 1.429 . S
C983 H1007 0.950 . S
C984 C1001 1.574 . S
C984 C1003 1.368 . S
C984 H1008 0.949 . S
H985 C989 0.949 1_554 S
C986 C987 1.349 . S
C986 C988 1.327 . S
C986 H1009 0.950 . S
C987 C986 1.349 . S
C987 C999 1.349 1_556 S
C988 C986 1.327 . S
C988 C1004 1.429 . S
C988 H1010 0.950 . S
C989 H985 0.949 1_556 S
C989 C997 1.574 . S
C989 C1005 1.368 . S
H990 C998 0.950 . S
H991 C996 0.950 . S
H992 C997 0.949 . S
H993 C999 0.950 . S
H994 C1000 0.950 . S
H995 C1001 0.949 . S
C996 H991 0.950 . S
C996 C998 1.327 . S
C996 C1002 1.429 . S
C997 C989 1.574 . S
C997 H992 0.949 . S
C997 C1003 1.368 . S
C998 C982 1.349 . S
C998 H990 0.950 . S
C998 C996 1.327 . S
C999 C987 1.349 1_554 S
C999 H993 0.950 . S
C999 C1000 1.327 . S
C1000 H994 0.950 . S
C1000 C999 1.327 . S
C1000 C1004 1.429 1_554 S
C1001 C984 1.574 . S
C1001 H995 0.949 . S
C1001 C1005 1.368 . S
C1002 C983 1.429 . S
C1002 C996 1.429 . S
C1002 C1003 1.523 . S
C1003 C984 1.368 . S
C1003 C997 1.368 . S
C1003 C1002 1.523 . S
C1004 C988 1.429 . S
C1004 C1000 1.429 1_556 S
C1004 C1005 1.523 . S
C1005 C989 1.368 . S
C1005 C1001 1.368 . S
C1005 C1004 1.523 . S
H1006 C981 0.950 . S
H1007 C983 0.950 . S
H1008 C984 0.949 . S
H1009 C986 0.950 . S
H1010 C988 0.950 . S
C1011 C1012 1.349 . S
C1011 C1013 1.327 . S
C1011 H1036 0.950 . S
C1012 C1011 1.349 . S
C1012 C1028 1.349 . S
C1013 C1011 1.327 . S
C1013 C1032 1.429 . S
C1013 H1037 0.950 . S
C1014 C1031 1.574 . S
C1014 C1033 1.368 . S
C1014 H1038 0.949 . S
H1015 C1019 0.949 . S
C1016 C1017 1.349 . S
C1016 C1018 1.327 . S
C1016 H1039 0.950 . S
C1017 C1016 1.349 . S
C1017 C1029 1.349 . S
C1018 C1016 1.327 . S
C1018 C1034 1.429 . S
C1018 H1040 0.950 . S
C1019 H1015 0.949 . S
C1019 C1027 1.574 . S
C1019 C1035 1.368 . S
H1020 C1028 0.950 . S
H1021 C1026 0.950 . S
H1022 C1027 0.949 . S
H1023 C1029 0.950 1_554 S
H1024 C1030 0.947 . S
H1025 C1031 0.949 . S
C1026 H1021 0.950 . S
C1026 C1028 1.327 . S
C1026 C1032 1.429 . S
C1027 C1019 1.574 . S
C1027 H1022 0.949 . S
C1027 C1033 1.368 . S
C1028 C1012 1.349 . S
C1028 H1020 0.950 . S
C1028 C1026 1.327 . S
C1029 C1017 1.349 . S
C1029 H1023 0.950 1_556 S
C1029 C1030 1.327 . S
C1030 H1024 0.947 . S
C1030 C1029 1.327 . S
C1030 C1034 1.429 . S
C1031 C1014 1.574 . S
C1031 H1025 0.949 . S
C1031 C1035 1.368 . S
C1032 C1013 1.429 . S
C1032 C1026 1.429 . S
C1032 C1033 1.523 . S
C1033 C1014 1.368 . S
C1033 C1027 1.368 . S
C1033 C1032 1.523 . S
C1034 C1018 1.429 . S
C1034 C1030 1.429 . S
C1034 C1035 1.523 . S
C1035 C1019 1.368 . S
C1035 C1031 1.368 . S
C1035 C1034 1.523 . S
H1036 C1011 0.950 . S
H1037 C1013 0.950 . S
H1038 C1014 0.949 . S
H1039 C1016 0.950 . S
H1040 C1018 0.950 . S
C1041 C1042 1.349 . S
C1041 C1043 1.327 . S
C1041 H1066 0.950 . S
C1042 C1041 1.349 . S
C1042 C1058 1.349 . S
C1043 C1041 1.327 . S
C1043 C1062 1.429 . S
C1043 H1067 0.950 1_556 S
C1044 C1061 1.574 . S
C1044 C1063 1.368 . S
C1044 H1068 0.949 . S
H1045 C1049 0.963 . S
C1046 C1047 1.349 . S
C1046 C1048 1.327 . S
C1046 H1069 0.950 . S
C1047 C1046 1.349 . S
C1047 C1059 1.349 1_556 S
C1048 C1046 1.327 . S
C1048 C1064 1.429 . S
C1048 H1070 0.950 . S
C1049 H1045 0.963 . S
C1049 C1057 1.571 1_554 S
C1049 C1065 1.355 1_554 S
H1050 C1058 0.950 . S
H1051 C1056 0.950 . S
H1052 C1057 0.949 1_554 S
H1053 C1059 0.950 . S
H1054 C1060 0.950 . S
H1055 C1061 0.949 . S
C1056 H1051 0.950 . S
C1056 C1058 1.327 . S
C1056 C1062 1.429 . S
C1057 C1049 1.571 1_556 S
C1057 H1052 0.949 1_556 S
C1057 C1063 1.368 . S
C1058 C1042 1.349 . S
C1058 H1050 0.950 . S
C1058 C1056 1.327 . S
C1059 C1047 1.349 1_554 S
C1059 H1053 0.950 . S
C1059 C1060 1.327 . S
C1060 H1054 0.950 . S
C1060 C1059 1.327 . S
C1060 C1064 1.429 1_554 S
C1061 C1044 1.574 . S
C1061 H1055 0.949 . S
C1061 C1065 1.368 . S
C1062 C1043 1.429 . S
C1062 C1056 1.429 . S
C1062 C1063 1.523 . S
C1063 C1044 1.368 . S
C1063 C1057 1.368 . S
C1063 C1062 1.523 . S
C1064 C1048 1.429 . S
C1064 C1060 1.429 1_556 S
C1064 C1065 1.523 . S
C1065 C1049 1.355 1_556 S
C1065 C1061 1.368 . S
C1065 C1064 1.523 . S
H1066 C1041 0.950 . S
H1067 C1043 0.950 1_554 S
H1068 C1044 0.949 . S
H1069 C1046 0.950 . S
H1070 C1048 0.950 . S
C1071 C1072 1.349 . S
C1071 C1073 1.327 . S
C1071 H1096 0.950 . S
C1072 C1071 1.349 . S
C1072 C1088 1.349 . S
C1073 C1071 1.327 . S
C1073 C1092 1.429 . S
C1073 H1097 0.950 . S
C1074 C1091 1.574 . S
C1074 C1093 1.368 . S
C1074 H1098 0.949 . S
H1075 C1079 0.949 . S
C1076 C1077 1.349 1_554 S
C1076 C1078 1.327 1_554 S
C1076 H1099 0.950 . S
C1077 C1076 1.349 1_556 S
C1077 C1089 1.349 . S
C1078 C1076 1.327 1_556 S
C1078 C1094 1.429 . S
C1078 H1100 0.950 1_556 S
C1079 H1075 0.949 . S
C1079 C1087 1.574 . S
C1079 C1095 1.368 . S
H1080 C1088 0.950 . S
H1081 C1086 0.950 . S
H1082 C1087 0.949 . S
H1083 C1089 0.950 . S
H1084 C1090 0.950 . S
H1085 C1091 0.949 . S
C1086 H1081 0.950 . S
C1086 C1088 1.327 . S
C1086 C1092 1.429 . S
C1087 C1079 1.574 . S
C1087 H1082 0.949 . S
C1087 C1093 1.368 . S
C1088 C1072 1.349 . S
C1088 H1080 0.950 . S
C1088 C1086 1.327 . S
C1089 C1077 1.349 . S
C1089 H1083 0.950 . S
C1089 C1090 1.327 . S
C1090 H1084 0.950 . S
C1090 C1089 1.327 . S
C1090 C1094 1.429 . S
C1091 C1074 1.574 . S
C1091 H1085 0.949 . S
C1091 C1095 1.368 . S
C1092 C1073 1.429 . S
C1092 C1086 1.429 . S
C1092 C1093 1.523 . S
C1093 C1074 1.368 . S
C1093 C1087 1.368 . S
C1093 C1092 1.523 . S
C1094 C1078 1.429 . S
C1094 C1090 1.429 . S
C1094 C1095 1.523 . S
C1095 C1079 1.368 . S
C1095 C1091 1.368 . S
C1095 C1094 1.523 . S
H1096 C1071 0.950 . S
H1097 C1073 0.950 . S
H1098 C1074 0.949 . S
H1099 C1076 0.950 . S
H1100 C1078 0.950 1_554 S
C1101 C1102 1.349 . S
C1101 C1103 1.327 . S
C1101 H1126 0.950 . S
C1102 C1101 1.349 . S
C1102 C1118 1.349 . S
C1103 C1101 1.327 . S
C1103 C1122 1.429 . S
C1103 H1127 0.950 . S
C1104 C1121 1.578 . S
C1104 C1123 1.368 . S
C1104 H1128 0.949 1_556 S
H1105 C1109 0.949 . S
C1106 C1107 1.349 1_554 S
C1106 C1108 1.327 . S
C1106 H1129 0.950 . S
C1107 C1106 1.349 1_556 S
C1107 C1119 1.349 . S
C1108 C1106 1.327 . S
C1108 C1124 1.429 1_554 S
C1108 H1130 0.950 . S
C1109 H1105 0.949 . S
C1109 C1117 1.574 . S
C1109 C1125 1.368 . S
H1110 C1118 0.950 . S
H1111 C1116 0.986 . S
H1112 C1117 0.949 . S
H1113 C1119 0.950 . S
H1114 C1120 0.950 . S
H1115 C1121 0.930 1_554 S
C1116 H1111 0.986 . S
C1116 C1118 1.327 . S
C1116 C1122 1.429 . S
C1117 C1109 1.574 . S
C1117 H1112 0.949 . S
C1117 C1123 1.368 . S
C1118 C1102 1.349 . S
C1118 H1110 0.950 . S
C1118 C1116 1.327 . S
C1119 C1107 1.349 . S
C1119 H1113 0.950 . S
C1119 C1120 1.327 . S
C1120 H1114 0.950 . S
C1120 C1119 1.327 . S
C1120 C1124 1.429 . S
C1121 C1104 1.578 . S
C1121 H1115 0.930 1_556 S
C1121 C1125 1.385 . S
C1122 C1103 1.429 . S
C1122 C1116 1.429 . S
C1122 C1123 1.523 . S
C1123 C1104 1.368 . S
C1123 C1117 1.368 . S
C1123 C1122 1.523 . S
C1124 C1108 1.429 1_556 S
C1124 C1120 1.429 . S
C1124 C1125 1.523 . S
C1125 C1109 1.368 . S
C1125 C1121 1.385 . S
C1125 C1124 1.523 . S
H1126 C1101 0.950 . S
H1127 C1103 0.950 . S
H1128 C1104 0.949 1_554 S
H1129 C1106 0.950 . S
H1130 C1108 0.950 . S
C1131 C1132 1.349 . S
C1131 C1133 1.327 . S
C1131 H1156 0.950 . S
C1132 C1131 1.349 . S
C1132 C1148 1.349 . S
C1133 C1131 1.327 . S
C1133 C1152 1.429 . S
C1133 H1157 0.950 . S
C1134 C1151 1.574 . S
C1134 C1153 1.368 . S
C1134 H1158 0.949 . S
H1135 C1139 0.913 1_554 S
C1136 C1137 1.349 . S
C1136 C1138 1.327 . S
C1136 H1159 0.950 . S
C1137 C1136 1.349 . S
C1137 C1149 1.349 1_556 S
C1138 C1136 1.327 . S
C1138 C1154 1.429 . S
C1138 H1160 0.950 . S
C1139 H1135 0.913 1_556 S
C1139 C1147 1.582 . S
C1139 C1155 1.402 . S
H1140 C1148 0.950 . S
H1141 C1146 0.950 . S
H1142 C1147 0.949 1_554 S
H1143 C1149 0.950 . S
H1144 C1150 0.950 . S
H1145 C1151 0.949 . S
C1146 H1141 0.950 . S
C1146 C1148 1.327 . S
C1146 C1152 1.429 . S
C1147 C1139 1.582 . S
C1147 H1142 0.949 1_556 S
C1147 C1153 1.368 . S
C1148 C1132 1.349 . S
C1148 H1140 0.950 . S
C1148 C1146 1.327 . S
C1149 C1137 1.349 1_554 S
C1149 H1143 0.950 . S
C1149 C1150 1.327 . S
C1150 H1144 0.950 . S
C1150 C1149 1.327 . S
C1150 C1154 1.429 1_554 S
C1151 C1134 1.574 . S
C1151 H1145 0.949 . S
C1151 C1155 1.368 . S
C1152 C1133 1.429 . S
C1152 C1146 1.429 . S
C1152 C1153 1.523 . S
C1153 C1134 1.368 . S
C1153 C1147 1.368 . S
C1153 C1152 1.523 . S
C1154 C1138 1.429 . S
C1154 C1150 1.429 1_556 S
C1154 C1155 1.523 . S
C1155 C1139 1.402 . S
C1155 C1151 1.368 . S
C1155 C1154 1.523 . S
H1156 C1131 0.950 . S
H1157 C1133 0.950 . S
H1158 C1134 0.949 . S
H1159 C1136 0.950 . S
H1160 C1138 0.950 . S
C1161 C1162 1.349 . S
C1161 C1163 1.327 . S
C1161 H1186 0.950 . S
C1162 C1161 1.349 . S
C1162 C1178 1.349 . S
C1163 C1161 1.327 . S
C1163 C1182 1.429 . S
C1163 H1187 0.950 . S
C1164 C1181 1.574 . S
C1164 C1183 1.368 . S
C1164 H1188 0.949 . S
H1165 C1169 0.949 . S
C1166 C1167 1.349 1_556 S
C1166 C1168 1.320 1_556 S
C1166 H1189 0.950 . S
C1167 C1166 1.349 1_554 S
C1167 C1179 1.349 . S
C1168 C1166 1.320 1_554 S
C1168 C1184 1.486 . S
C1168 H1190 0.901 1_554 S
C1169 H1165 0.949 . S
C1169 C1177 1.574 . S
C1169 C1185 1.368 . S
H1170 C1178 0.950 . S
H1171 C1176 0.950 . S
H1172 C1177 0.949 . S
H1173 C1179 0.950 . S
H1174 C1180 0.950 . S
H1175 C1181 0.949 1_556 S
C1176 H1171 0.950 . S
C1176 C1178 1.327 . S
C1176 C1182 1.429 . S
C1177 C1169 1.574 . S
C1177 H1172 0.949 . S
C1177 C1183 1.368 . S
C1178 C1162 1.349 . S
C1178 H1170 0.950 . S
C1178 C1176 1.327 . S
C1179 C1167 1.349 . S
C1179 H1173 0.950 . S
C1179 C1180 1.327 . S
C1180 H1174 0.950 . S
C1180 C1179 1.327 . S
C1180 C1184 1.429 . S
C1181 C1164 1.574 . S
C1181 H1175 0.949 1_554 S
C1181 C1185 1.368 . S
C1182 C1163 1.429 . S
C1182 C1176 1.429 . S
C1182 C1183 1.523 . S
C1183 C1164 1.368 . S
C1183 C1177 1.368 . S
C1183 C1182 1.523 . S
C1184 C1168 1.486 . S
C1184 C1180 1.429 . S
C1184 C1185 1.523 . S
C1185 C1169 1.368 . S
C1185 C1181 1.368 . S
C1185 C1184 1.523 . S
H1186 C1161 0.950 . S
H1187 C1163 0.950 . S
H1188 C1164 0.949 . S
H1189 C1166 0.950 . S
H1190 C1168 0.901 1_556 S
C1191 C1192 1.349 . S
C1191 C1193 1.327 . S
C1191 H1216 0.950 . S
C1192 C1191 1.349 . S
C1192 C1208 1.349 . S
C1193 C1191 1.327 . S
C1193 C1212 1.429 . S
C1193 H1217 0.950 . S
C1194 C1211 1.574 . S
C1194 C1213 1.368 . S
C1194 H1218 0.949 . S
H1195 C1199 0.949 . S
C1196 C1197 1.349 1_556 S
C1196 C1198 1.327 1_556 S
C1196 H1219 0.950 . S
C1197 C1196 1.349 1_554 S
C1197 C1209 1.349 . S
C1198 C1196 1.327 1_554 S
C1198 C1214 1.429 . S
C1198 H1220 0.950 1_554 S
C1199 H1195 0.949 . S
C1199 C1207 1.574 . S
C1199 C1215 1.368 . S
H1200 C1208 0.950 . S
H1201 C1206 0.950 . S
H1202 C1207 0.949 . S
H1203 C1209 0.950 . S
H1204 C1210 0.950 . S
H1205 C1211 0.941 1_556 S
C1206 H1201 0.950 . S
C1206 C1208 1.327 . S
C1206 C1212 1.429 . S
C1207 C1199 1.574 . S
C1207 H1202 0.949 . S
C1207 C1213 1.368 . S
C1208 C1192 1.349 . S
C1208 H1200 0.950 . S
C1208 C1206 1.327 . S
C1209 C1197 1.349 . S
C1209 H1203 0.950 . S
C1209 C1210 1.327 . S
C1210 H1204 0.950 . S
C1210 C1209 1.327 . S
C1210 C1214 1.429 . S
C1211 C1194 1.574 . S
C1211 H1205 0.941 1_554 S
C1211 C1215 1.368 . S
C1212 C1193 1.429 . S
C1212 C1206 1.429 . S
C1212 C1213 1.523 . S
C1213 C1194 1.368 . S
C1213 C1207 1.368 . S
C1213 C1212 1.523 . S
C1214 C1198 1.429 . S
C1214 C1210 1.429 . S
C1214 C1215 1.523 . S
C1215 C1199 1.368 . S
C1215 C1211 1.368 . S
C1215 C1214 1.523 . S
H1216 C1191 0.950 . S
H1217 C1193 0.950 . S
H1218 C1194 0.949 . S
H1219 C1196 0.950 . S
H1220 C1198 0.950 1_556 S
C1221 C1222 1.349 . S
C1221 C1223 1.327 . S
C1221 H1246 0.950 . S
C1222 C1221 1.349 . S
C1222 C1238 1.349 . S
C1223 C1221 1.327 . S
C1223 C1242 1.429 . S
C1223 H1247 0.950 . S
C1224 C1241 1.574 . S
C1224 C1243 1.368 . S
C1224 H1248 0.949 . S
H1225 C1229 0.983 . S
C1226 C1227 1.349 . S
C1226 C1228 1.327 . S
C1226 H1249 0.950 . S
C1227 C1226 1.349 . S
C1227 C1239 1.368 . S
C1228 C1226 1.327 . S
C1228 C1244 1.429 . S
C1228 H1250 0.950 . S
C1229 H1225 0.983 . S
C1229 C1237 1.574 . S
C1229 C1245 1.368 . S
H1230 C1238 0.950 . S
H1231 C1236 0.950 . S
H1232 C1237 0.949 . S
H1233 C1239 0.925 1_556 S
H1234 C1240 0.950 1_556 S
H1235 C1241 0.949 . S
C1236 H1231 0.950 . S
C1236 C1238 1.327 . S
C1236 C1242 1.429 . S
C1237 C1229 1.574 . S
C1237 H1232 0.949 . S
C1237 C1243 1.368 . S
C1238 C1222 1.349 . S
C1238 H1230 0.950 . S
C1238 C1236 1.327 . S
C1239 C1227 1.368 . S
C1239 H1233 0.925 1_554 S
C1239 C1240 1.333 . S
C1240 H1234 0.950 1_554 S
C1240 C1239 1.333 . S
C1240 C1244 1.429 . S
C1241 C1224 1.574 . S
C1241 H1235 0.949 . S
C1241 C1245 1.368 . S
C1242 C1223 1.429 . S
C1242 C1236 1.429 . S
C1242 C1243 1.523 . S
C1243 C1224 1.368 . S
C1243 C1237 1.368 . S
C1243 C1242 1.523 . S
C1244 C1228 1.429 . S
C1244 C1240 1.429 . S
C1244 C1245 1.523 . S
C1245 C1229 1.368 . S
C1245 C1241 1.368 . S
C1245 C1244 1.523 . S
H1246 C1221 0.950 . S
H1247 C1223 0.950 . S
H1248 C1224 0.949 . S
H1249 C1226 0.950 . S
H1250 C1228 0.950 . S
C1251 C1252 1.349 . S
C1251 C1253 1.327 . S
C1251 H1276 0.950 . S
C1252 C1251 1.349 . S
C1252 C1268 1.349 . S
C1253 C1251 1.327 . S
C1253 C1272 1.429 . S
C1253 H1277 0.950 . S
C1254 C1271 1.574 . S
C1254 C1273 1.368 . S
C1254 H1278 0.949 . S
H1255 C1259 0.949 . S
C1256 C1257 1.349 . S
C1256 C1258 1.327 . S
C1256 H1279 0.950 . S
C1257 C1256 1.349 . S
C1257 C1269 1.349 . S
C1258 C1256 1.327 . S
C1258 C1274 1.429 . S
C1258 H1280 0.950 . S
C1259 H1255 0.949 . S
C1259 C1267 1.574 . S
C1259 C1275 1.368 . S
H1260 C1268 0.950 . S
H1261 C1266 0.950 . S
H1262 C1267 0.949 . S
H1263 C1269 0.950 . S
H1264 C1270 0.950 . S
H1265 C1271 0.949 . S
C1266 H1261 0.950 . S
C1266 C1268 1.327 . S
C1266 C1272 1.429 . S
C1267 C1259 1.574 . S
C1267 H1262 0.949 . S
C1267 C1273 1.368 . S
C1268 C1252 1.349 . S
C1268 H1260 0.950 . S
C1268 C1266 1.327 . S
C1269 C1257 1.349 . S
C1269 H1263 0.950 . S
C1269 C1270 1.327 . S
C1270 H1264 0.950 . S
C1270 C1269 1.327 . S
C1270 C1274 1.429 . S
C1271 C1254 1.574 . S
C1271 H1265 0.949 . S
C1271 C1275 1.368 . S
C1272 C1253 1.429 . S
C1272 C1266 1.429 . S
C1272 C1273 1.523 1_655 S
C1273 C1254 1.368 . S
C1273 C1267 1.368 . S
C1273 C1272 1.523 1_455 S
C1274 C1258 1.429 . S
C1274 C1270 1.429 . S
C1274 C1275 1.523 . S
C1275 C1259 1.368 . S
C1275 C1271 1.368 . S
C1275 C1274 1.523 . S
H1276 C1251 0.950 . S
H1277 C1253 0.950 . S
H1278 C1254 0.949 . S
H1279 C1256 0.950 . S
H1280 C1258 0.950 . S
C1281 C1282 1.349 . S
C1281 C1283 1.327 . S
C1281 H1306 0.950 . S
C1282 C1281 1.349 . S
C1282 C1298 1.349 . S
C1283 C1281 1.327 . S
C1283 C1302 1.429 . S
C1283 H1307 0.950 . S
C1284 C1301 1.574 . S
C1284 C1303 1.368 . S
C1284 H1308 0.949 . S
H1285 C1289 0.949 . S
C1286 C1287 1.349 . S
C1286 C1288 1.327 . S
C1286 H1309 0.950 . S
C1287 C1286 1.349 . S
C1287 C1299 1.349 . S
C1288 C1286 1.327 . S
C1288 C1304 1.429 . S
C1288 H1310 0.950 . S
C1289 H1285 0.949 . S
C1289 C1297 1.574 . S
C1289 C1305 1.368 . S
H1290 C1298 0.950 . S
H1291 C1296 0.950 . S
H1292 C1297 0.949 . S
H1293 C1299 0.950 . S
H1294 C1300 0.950 . S
H1295 C1301 0.949 . S
C1296 H1291 0.950 . S
C1296 C1298 1.327 . S
C1296 C1302 1.429 . S
C1297 C1289 1.574 . S
C1297 H1292 0.949 . S
C1297 C1303 1.368 . S
C1298 C1282 1.349 . S
C1298 H1290 0.950 . S
C1298 C1296 1.327 . S
C1299 C1287 1.349 . S
C1299 H1293 0.950 . S
C1299 C1300 1.327 . S
C1300 H1294 0.950 . S
C1300 C1299 1.327 . S
C1300 C1304 1.429 . S
C1301 C1284 1.574 . S
C1301 H1295 0.949 . S
C1301 C1305 1.368 . S
C1302 C1283 1.429 . S
C1302 C1296 1.429 . S
C1302 C1303 1.523 . S
C1303 C1284 1.368 . S
C1303 C1297 1.368 . S
C1303 C1302 1.523 . S
C1304 C1288 1.429 . S
C1304 C1300 1.429 . S
C1304 C1305 1.523 . S
C1305 C1289 1.368 . S
C1305 C1301 1.368 . S
C1305 C1304 1.523 . S
H1306 C1281 0.950 . S
H1307 C1283 0.950 . S
H1308 C1284 0.949 . S
H1309 C1286 0.950 . S
H1310 C1288 0.950 . S
C1311 C1312 1.349 . S
C1311 C1313 1.327 . S
C1311 H1336 0.950 . S
C1312 C1311 1.349 . S
C1312 C1328 1.349 . S
C1313 C1311 1.327 . S
C1313 C1332 1.429 . S
C1313 H1337 0.950 . S
C1314 C1331 1.574 . S
C1314 C1333 1.368 . S
C1314 H1338 0.949 . S
H1315 C1319 0.949 . S
C1316 C1317 1.349 . S
C1316 C1318 1.327 . S
C1316 H1339 0.950 . S
C1317 C1316 1.349 . S
C1317 C1329 1.349 . S
C1318 C1316 1.327 . S
C1318 C1334 1.429 . S
C1318 H1340 0.950 . S
C1319 H1315 0.949 . S
C1319 C1327 1.574 . S
C1319 C1335 1.368 . S
H1320 C1328 0.950 . S
H1321 C1326 0.950 . S
H1322 C1327 0.949 . S
H1323 C1329 0.950 . S
H1324 C1330 0.950 . S
H1325 C1331 0.949 . S
C1326 H1321 0.950 . S
C1326 C1328 1.327 . S
C1326 C1332 1.429 . S
C1327 C1319 1.574 . S
C1327 H1322 0.949 . S
C1327 C1333 1.368 . S
C1328 C1312 1.349 . S
C1328 H1320 0.950 . S
C1328 C1326 1.327 . S
C1329 C1317 1.349 . S
C1329 H1323 0.950 . S
C1329 C1330 1.327 . S
C1330 H1324 0.950 . S
C1330 C1329 1.327 . S
C1330 C1334 1.429 . S
C1331 C1314 1.574 . S
C1331 H1325 0.949 . S
C1331 C1335 1.368 . S
C1332 C1313 1.429 . S
C1332 C1326 1.429 . S
C1332 C1333 1.523 1_545 S
C1333 C1314 1.368 . S
C1333 C1327 1.368 . S
C1333 C1332 1.523 1_565 S
C1334 C1318 1.429 . S
C1334 C1330 1.429 . S
C1334 C1335 1.523 . S
C1335 C1319 1.368 . S
C1335 C1331 1.368 . S
C1335 C1334 1.523 . S
H1336 C1311 0.950 . S
H1337 C1313 0.950 . S
H1338 C1314 0.949 . S
H1339 C1316 0.950 . S
H1340 C1318 0.950 . S
C1341 C1342 1.349 . S
C1341 C1343 1.327 . S
C1341 H1366 0.950 . S
C1342 C1341 1.349 . S
C1342 C1358 1.349 . S
C1343 C1341 1.327 . S
C1343 C1362 1.429 . S
C1343 H1367 0.950 . S
C1344 C1361 1.574 . S
C1344 C1363 1.368 . S
C1344 H1368 0.949 . S
H1345 C1349 0.949 . S
C1346 C1347 1.349 . S
C1346 C1348 1.327 . S
C1346 H1369 0.950 . S
C1347 C1346 1.349 . S
C1347 C1359 1.349 . S
C1348 C1346 1.327 . S
C1348 C1364 1.429 . S
C1348 H1370 0.950 . S
C1349 H1345 0.949 . S
C1349 C1357 1.574 . S
C1349 C1365 1.368 . S
H1350 C1358 0.950 . S
H1351 C1356 0.950 . S
H1352 C1357 0.949 . S
H1353 C1359 0.950 . S
H1354 C1360 0.950 . S
H1355 C1361 0.949 . S
C1356 H1351 0.950 . S
C1356 C1358 1.327 . S
C1356 C1362 1.429 . S
C1357 C1349 1.574 . S
C1357 H1352 0.949 . S
C1357 C1363 1.368 . S
C1358 C1342 1.349 . S
C1358 H1350 0.950 . S
C1358 C1356 1.327 . S
C1359 C1347 1.349 . S
C1359 H1353 0.950 . S
C1359 C1360 1.327 . S
C1360 H1354 0.950 . S
C1360 C1359 1.327 . S
C1360 C1364 1.429 . S
C1361 C1344 1.574 . S
C1361 H1355 0.949 . S
C1361 C1365 1.368 . S
C1362 C1343 1.429 . S
C1362 C1356 1.429 . S
C1362 C1363 1.523 . S
C1363 C1344 1.368 . S
C1363 C1357 1.368 . S
C1363 C1362 1.523 . S
C1364 C1348 1.429 . S
C1364 C1360 1.429 . S
C1364 C1365 1.523 . S
C1365 C1349 1.368 . S
C1365 C1361 1.368 . S
C1365 C1364 1.523 . S
H1366 C1341 0.950 . S
H1367 C1343 0.950 . S
H1368 C1344 0.949 . S
H1369 C1346 0.950 . S
H1370 C1348 0.950 . S
C1371 C1372 1.349 . S
C1371 C1373 1.327 . S
C1371 H1396 0.950 . S
C1372 C1371 1.349 . S
C1372 C1388 1.349 . S
C1373 C1371 1.327 . S
C1373 C1392 1.429 . S
C1373 H1397 0.950 . S
C1374 C1391 1.574 . S
C1374 C1393 1.368 . S
C1374 H1398 0.949 . S
H1375 C1379 0.949 . S
C1376 C1377 1.349 . S
C1376 C1378 1.327 . S
C1376 H1399 0.950 . S
C1377 C1376 1.349 . S
C1377 C1389 1.349 . S
C1378 C1376 1.327 . S
C1378 C1394 1.429 . S
C1378 H1400 0.950 . S
C1379 H1375 0.949 . S
C1379 C1387 1.574 . S
C1379 C1395 1.368 . S
H1380 C1388 0.950 . S
H1381 C1386 0.950 . S
H1382 C1387 0.949 . S
H1383 C1389 0.950 . S
H1384 C1390 0.950 . S
H1385 C1391 0.949 . S
C1386 H1381 0.950 . S
C1386 C1388 1.327 . S
C1386 C1392 1.429 . S
C1387 C1379 1.574 . S
C1387 H1382 0.949 . S
C1387 C1393 1.368 . S
C1388 C1372 1.349 . S
C1388 H1380 0.950 . S
C1388 C1386 1.327 . S
C1389 C1377 1.349 . S
C1389 H1383 0.950 . S
C1389 C1390 1.327 . S
C1390 H1384 0.950 . S
C1390 C1389 1.327 . S
C1390 C1394 1.429 . S
C1391 C1374 1.574 . S
C1391 H1385 0.949 . S
C1391 C1395 1.368 . S
C1392 C1373 1.429 . S
C1392 C1386 1.429 . S
C1392 C1393 1.523 . S
C1393 C1374 1.368 . S
C1393 C1387 1.368 . S
C1393 C1392 1.523 . S
C1394 C1378 1.429 . S
C1394 C1390 1.429 . S
C1394 C1395 1.523 . S
C1395 C1379 1.368 . S
C1395 C1391 1.368 . S
C1395 C1394 1.523 . S
H1396 C1371 0.950 . S
H1397 C1373 0.950 . S
H1398 C1374 0.949 . S
H1399 C1376 0.950 . S
H1400 C1378 0.950 . S
C1401 C1402 1.349 . S
C1401 C1403 1.327 . S
C1401 H1426 0.950 . S
C1402 C1401 1.349 . S
C1402 C1418 1.349 . S
C1403 C1401 1.327 . S
C1403 C1422 1.429 . S
C1403 H1427 0.950 . S
C1404 C1421 1.574 . S
C1404 C1423 1.368 . S
C1404 H1428 0.949 . S
H1405 C1409 0.949 . S
C1406 C1407 1.349 . S
C1406 C1408 1.327 . S
C1406 H1429 0.950 . S
C1407 C1406 1.349 . S
C1407 C1419 1.349 . S
C1408 C1406 1.327 . S
C1408 C1424 1.429 . S
C1408 H1430 0.950 . S
C1409 H1405 0.949 . S
C1409 C1417 1.574 . S
C1409 C1425 1.368 . S
H1410 C1418 0.950 . S
H1411 C1416 0.950 . S
H1412 C1417 0.949 . S
H1413 C1419 0.950 . S
H1414 C1420 0.950 . S
H1415 C1421 0.949 . S
C1416 H1411 0.950 . S
C1416 C1418 1.327 . S
C1416 C1422 1.429 . S
C1417 C1409 1.574 . S
C1417 H1412 0.949 . S
C1417 C1423 1.368 . S
C1418 C1402 1.349 . S
C1418 H1410 0.950 . S
C1418 C1416 1.327 . S
C1419 C1407 1.349 . S
C1419 H1413 0.950 . S
C1419 C1420 1.327 . S
C1420 H1414 0.950 . S
C1420 C1419 1.327 . S
C1420 C1424 1.429 . S
C1421 C1404 1.574 . S
C1421 H1415 0.949 . S
C1421 C1425 1.368 . S
C1422 C1403 1.429 . S
C1422 C1416 1.429 . S
C1422 C1423 1.523 . S
C1423 C1404 1.368 . S
C1423 C1417 1.368 . S
C1423 C1422 1.523 . S
C1424 C1408 1.429 . S
C1424 C1420 1.429 . S
C1424 C1425 1.523 . S
C1425 C1409 1.368 . S
C1425 C1421 1.368 . S
C1425 C1424 1.523 . S
H1426 C1401 0.950 . S
H1427 C1403 0.950 . S
H1428 C1404 0.949 . S
H1429 C1406 0.950 . S
H1430 C1408 0.950 . S
C1431 C1432 1.349 . S
C1431 C1433 1.327 . S
C1431 H1456 0.950 . S
C1432 C1431 1.349 . S
C1432 C1448 1.349 . S
C1433 C1431 1.327 . S
C1433 C1452 1.429 . S
C1433 H1457 0.950 . S
C1434 C1451 1.574 . S
C1434 C1453 1.368 . S
C1434 H1458 0.949 . S
H1435 C1439 0.949 . S
C1436 C1437 1.349 . S
C1436 C1438 1.327 . S
C1436 H1459 0.950 . S
C1437 C1436 1.349 . S
C1437 C1449 1.349 . S
C1438 C1436 1.327 . S
C1438 C1454 1.429 . S
C1438 H1460 0.950 . S
C1439 H1435 0.949 . S
C1439 C1447 1.574 . S
C1439 C1455 1.368 . S
H1440 C1448 0.950 . S
H1441 C1446 0.950 . S
H1442 C1447 0.949 . S
H1443 C1449 0.950 . S
H1444 C1450 0.950 . S
H1445 C1451 0.949 . S
C1446 H1441 0.950 . S
C1446 C1448 1.327 . S
C1446 C1452 1.429 . S
C1447 C1439 1.574 . S
C1447 H1442 0.949 . S
C1447 C1453 1.368 . S
C1448 C1432 1.349 . S
C1448 H1440 0.950 . S
C1448 C1446 1.327 . S
C1449 C1437 1.349 . S
C1449 H1443 0.950 . S
C1449 C1450 1.327 . S
C1450 H1444 0.950 . S
C1450 C1449 1.327 . S
C1450 C1454 1.429 . S
C1451 C1434 1.574 . S
C1451 H1445 0.949 . S
C1451 C1455 1.368 . S
C1452 C1433 1.429 . S
C1452 C1446 1.429 . S
C1452 C1453 1.523 . S
C1453 C1434 1.368 . S
C1453 C1447 1.368 . S
C1453 C1452 1.523 . S
C1454 C1438 1.429 . S
C1454 C1450 1.429 . S
C1454 C1455 1.523 . S
C1455 C1439 1.368 . S
C1455 C1451 1.368 . S
C1455 C1454 1.523 . S
H1456 C1431 0.950 . S
H1457 C1433 0.950 . S
H1458 C1434 0.949 . S
H1459 C1436 0.950 . S
H1460 C1438 0.950 . S
C1461 C1462 1.349 . S
C1461 C1463 1.327 . S
C1461 H1486 0.950 . S
C1462 C1461 1.349 . S
C1462 C1478 1.349 . S
C1463 C1461 1.327 . S
C1463 C1482 1.429 . S
C1463 H1487 0.950 . S
C1464 C1481 1.574 . S
C1464 C1483 1.368 . S
C1464 H1488 0.949 . S
H1465 C1469 0.949 . S
C1466 C1467 1.349 . S
C1466 C1468 1.327 . S
C1466 H1489 0.950 . S
C1467 C1466 1.349 . S
C1467 C1479 1.349 . S
C1468 C1466 1.327 . S
C1468 C1484 1.429 . S
C1468 H1490 0.950 . S
C1469 H1465 0.949 . S
C1469 C1477 1.574 . S
C1469 C1485 1.368 . S
H1470 C1478 0.950 . S
H1471 C1476 0.950 . S
H1472 C1477 0.949 . S
H1473 C1479 0.950 . S
H1474 C1480 0.950 . S
H1475 C1481 0.949 . S
C1476 H1471 0.950 . S
C1476 C1478 1.327 . S
C1476 C1482 1.429 . S
C1477 C1469 1.574 . S
C1477 H1472 0.949 . S
C1477 C1483 1.368 . S
C1478 C1462 1.349 . S
C1478 H1470 0.950 . S
C1478 C1476 1.327 . S
C1479 C1467 1.349 . S
C1479 H1473 0.950 . S
C1479 C1480 1.327 . S
C1480 H1474 0.950 . S
C1480 C1479 1.327 . S
C1480 C1484 1.429 . S
C1481 C1464 1.574 . S
C1481 H1475 0.949 . S
C1481 C1485 1.368 . S
C1482 C1463 1.429 . S
C1482 C1476 1.429 . S
C1482 C1483 1.523 . S
C1483 C1464 1.368 . S
C1483 C1477 1.368 . S
C1483 C1482 1.523 . S
C1484 C1468 1.429 . S
C1484 C1480 1.429 . S
C1484 C1485 1.523 . S
C1485 C1469 1.368 . S
C1485 C1481 1.368 . S
C1485 C1484 1.523 . S
H1486 C1461 0.950 . S
H1487 C1463 0.950 . S
H1488 C1464 0.949 . S
H1489 C1466 0.950 . S
H1490 C1468 0.950 . S
C1491 C1492 1.349 . S
C1491 C1493 1.327 . S
C1491 H1516 0.950 . S
C1492 C1491 1.349 . S
C1492 C1508 1.349 . S
C1493 C1491 1.327 . S
C1493 C1512 1.429 . S
C1493 H1517 0.950 . S
C1494 C1511 1.574 . S
C1494 C1513 1.368 . S
C1494 H1518 0.949 . S
H1495 C1499 0.949 . S
C1496 C1497 1.349 . S
C1496 C1498 1.327 . S
C1496 H1519 0.950 . S
C1497 C1496 1.349 . S
C1497 C1509 1.349 . S
C1498 C1496 1.327 . S
C1498 C1514 1.429 . S
C1498 H1520 0.950 . S
C1499 H1495 0.949 . S
C1499 C1507 1.574 . S
C1499 C1515 1.368 . S
H1500 C1508 0.950 . S
H1501 C1506 0.950 . S
H1502 C1507 0.949 . S
H1503 C1509 0.950 . S
H1504 C1510 0.950 . S
H1505 C1511 0.949 . S
C1506 H1501 0.950 . S
C1506 C1508 1.327 . S
C1506 C1512 1.429 . S
C1507 C1499 1.574 . S
C1507 H1502 0.949 . S
C1507 C1513 1.368 . S
C1508 C1492 1.349 . S
C1508 H1500 0.950 . S
C1508 C1506 1.327 . S
C1509 C1497 1.349 . S
C1509 H1503 0.950 . S
C1509 C1510 1.327 . S
C1510 H1504 0.950 . S
C1510 C1509 1.327 . S
C1510 C1514 1.429 . S
C1511 C1494 1.574 . S
C1511 H1505 0.949 . S
C1511 C1515 1.368 . S
C1512 C1493 1.429 . S
C1512 C1506 1.429 . S
C1512 C1513 1.523 . S
C1513 C1494 1.368 . S
C1513 C1507 1.368 . S
C1513 C1512 1.523 . S
C1514 C1498 1.429 . S
C1514 C1510 1.429 . S
C1514 C1515 1.523 . S
C1515 C1499 1.368 . S
C1515 C1511 1.368 . S
C1515 C1514 1.523 . S
H1516 C1491 0.950 . S
H1517 C1493 0.950 . S
H1518 C1494 0.949 . S
H1519 C1496 0.950 . S
H1520 C1498 0.950 . S
C1521 C1522 1.349 . S
C1521 C1523 1.327 . S
C1521 H1546 0.950 . S
C1522 C1521 1.349 . S
C1522 C1538 1.349 . S
C1523 C1521 1.327 . S
C1523 C1542 1.429 . S
C1523 H1547 0.950 . S
C1524 C1541 1.574 . S
C1524 C1543 1.368 . S
C1524 H1548 0.949 . S
H1525 C1529 0.949 . S
C1526 C1527 1.349 . S
C1526 C1528 1.327 . S
C1526 H1549 0.950 . S
C1527 C1526 1.349 . S
C1527 C1539 1.349 . S
C1528 C1526 1.327 . S
C1528 C1544 1.429 . S
C1528 H1550 0.950 . S
C1529 H1525 0.949 . S
C1529 C1537 1.574 . S
C1529 C1545 1.368 . S
H1530 C1538 0.950 . S
H1531 C1536 0.950 . S
H1532 C1537 0.949 . S
H1533 C1539 0.950 . S
H1534 C1540 0.950 . S
H1535 C1541 0.949 . S
C1536 H1531 0.950 . S
C1536 C1538 1.327 . S
C1536 C1542 1.429 . S
C1537 C1529 1.574 . S
C1537 H1532 0.949 . S
C1537 C1543 1.368 . S
C1538 C1522 1.349 . S
C1538 H1530 0.950 . S
C1538 C1536 1.327 . S
C1539 C1527 1.349 . S
C1539 H1533 0.950 . S
C1539 C1540 1.327 . S
C1540 H1534 0.950 . S
C1540 C1539 1.327 . S
C1540 C1544 1.429 . S
C1541 C1524 1.574 . S
C1541 H1535 0.949 . S
C1541 C1545 1.368 . S
C1542 C1523 1.429 . S
C1542 C1536 1.429 . S
C1542 C1543 1.523 1_545 S
C1543 C1524 1.368 . S
C1543 C1537 1.368 . S
C1543 C1542 1.523 1_565 S
C1544 C1528 1.429 . S
C1544 C1540 1.429 . S
C1544 C1545 1.523 . S
C1545 C1529 1.368 . S
C1545 C1541 1.368 . S
C1545 C1544 1.523 . S
H1546 C1521 0.950 . S
H1547 C1523 0.950 . S
H1548 C1524 0.949 . S
H1549 C1526 0.950 . S
H1550 C1528 0.950 . S
C1551 C1552 1.349 . S
C1551 C1553 1.327 . S
C1551 H1576 0.950 . S
C1552 C1551 1.349 . S
C1552 C1568 1.349 . S
C1553 C1551 1.327 . S
C1553 C1572 1.429 . S
C1553 H1577 0.950 . S
C1554 C1571 1.574 . S
C1554 C1573 1.368 . S
C1554 H1578 0.949 . S
H1555 C1559 0.949 . S
C1556 C1557 1.349 . S
C1556 C1558 1.327 . S
C1556 H1579 0.950 . S
C1557 C1556 1.349 . S
C1557 C1569 1.349 . S
C1558 C1556 1.327 . S
C1558 C1574 1.429 . S
C1558 H1580 0.950 . S
C1559 H1555 0.949 . S
C1559 C1567 1.574 . S
C1559 C1575 1.368 . S
H1560 C1568 0.950 . S
H1561 C1566 0.950 . S
H1562 C1567 0.949 . S
H1563 C1569 0.950 . S
H1564 C1570 0.950 . S
H1565 C1571 0.949 . S
C1566 H1561 0.950 . S
C1566 C1568 1.327 . S
C1566 C1572 1.429 . S
C1567 C1559 1.574 . S
C1567 H1562 0.949 . S
C1567 C1573 1.368 . S
C1568 C1552 1.349 . S
C1568 H1560 0.950 . S
C1568 C1566 1.327 . S
C1569 C1557 1.349 . S
C1569 H1563 0.950 . S
C1569 C1570 1.327 . S
C1570 H1564 0.950 . S
C1570 C1569 1.327 . S
C1570 C1574 1.429 . S
C1571 C1554 1.574 . S
C1571 H1565 0.949 . S
C1571 C1575 1.368 . S
C1572 C1553 1.429 . S
C1572 C1566 1.429 . S
C1572 C1573 1.523 1_655 S
C1573 C1554 1.368 . S
C1573 C1567 1.368 . S
C1573 C1572 1.523 1_455 S
C1574 C1558 1.429 . S
C1574 C1570 1.429 . S
C1574 C1575 1.523 . S
C1575 C1559 1.368 . S
C1575 C1571 1.368 . S
C1575 C1574 1.523 . S
H1576 C1551 0.950 . S
H1577 C1553 0.950 . S
H1578 C1554 0.949 . S
H1579 C1556 0.950 . S
H1580 C1558 0.950 . S
C1581 C1582 1.349 . S
C1581 C1583 1.327 . S
C1581 H1606 0.950 . S
C1582 C1581 1.349 . S
C1582 C1598 1.349 . S
C1583 C1581 1.327 . S
C1583 C1602 1.429 . S
C1583 H1607 0.950 . S
C1584 C1601 1.574 . S
C1584 C1603 1.368 . S
C1584 H1608 0.949 . S
H1585 C1589 0.949 . S
C1586 C1587 1.349 . S
C1586 C1588 1.327 . S
C1586 H1609 0.950 . S
C1587 C1586 1.349 . S
C1587 C1599 1.349 . S
C1588 C1586 1.327 . S
C1588 C1604 1.429 . S
C1588 H1610 0.950 . S
C1589 H1585 0.949 . S
C1589 C1597 1.574 . S
C1589 C1605 1.368 . S
H1590 C1598 0.950 . S
H1591 C1596 0.950 . S
H1592 C1597 0.949 . S
H1593 C1599 0.950 . S
H1594 C1600 0.950 . S
H1595 C1601 0.949 . S
C1596 H1591 0.950 . S
C1596 C1598 1.327 . S
C1596 C1602 1.429 . S
C1597 C1589 1.574 . S
C1597 H1592 0.949 . S
C1597 C1603 1.368 . S
C1598 C1582 1.349 . S
C1598 H1590 0.950 . S
C1598 C1596 1.327 . S
C1599 C1587 1.349 . S
C1599 H1593 0.950 . S
C1599 C1600 1.327 . S
C1600 H1594 0.950 . S
C1600 C1599 1.327 . S
C1600 C1604 1.429 . S
C1601 C1584 1.574 . S
C1601 H1595 0.949 . S
C1601 C1605 1.368 . S
C1602 C1583 1.429 . S
C1602 C1596 1.429 . S
C1602 C1603 1.523 . S
C1603 C1584 1.368 . S
C1603 C1597 1.368 . S
C1603 C1602 1.523 . S
C1604 C1588 1.429 . S
C1604 C1600 1.429 . S
C1604 C1605 1.523 . S
C1605 C1589 1.368 . S
C1605 C1601 1.368 . S
C1605 C1604 1.523 . S
H1606 C1581 0.950 . S
H1607 C1583 0.950 . S
H1608 C1584 0.949 . S
H1609 C1586 0.950 . S
H1610 C1588 0.950 . S
C1611 C1612 1.349 . S
C1611 C1613 1.327 . S
C1611 H1636 0.950 . S
C1612 C1611 1.349 . S
C1612 C1628 1.349 . S
C1613 C1611 1.327 . S
C1613 C1632 1.429 . S
C1613 H1637 0.950 . S
C1614 C1631 1.574 . S
C1614 C1633 1.368 . S
C1614 H1638 0.949 . S
H1615 C1619 0.949 . S
C1616 C1617 1.349 . S
C1616 C1618 1.327 . S
C1616 H1639 0.950 . S
C1617 C1616 1.349 . S
C1617 C1629 1.349 . S
C1618 C1616 1.327 . S
C1618 C1634 1.429 . S
C1618 H1640 0.950 . S
C1619 H1615 0.949 . S
C1619 C1627 1.574 . S
C1619 C1635 1.368 . S
H1620 C1628 0.950 . S
H1621 C1626 0.950 . S
H1622 C1627 0.949 . S
H1623 C1629 0.950 . S
H1624 C1630 0.950 . S
H1625 C1631 0.949 . S
C1626 H1621 0.950 . S
C1626 C1628 1.327 . S
C1626 C1632 1.429 . S
C1627 C1619 1.574 . S
C1627 H1622 0.949 . S
C1627 C1633 1.368 . S
C1628 C1612 1.349 . S
C1628 H1620 0.950 . S
C1628 C1626 1.327 . S
C1629 C1617 1.349 . S
C1629 H1623 0.950 . S
C1629 C1630 1.327 . S
C1630 H1624 0.950 . S
C1630 C1629 1.327 . S
C1630 C1634 1.429 . S
C1631 C1614 1.574 . S
C1631 H1625 0.949 . S
C1631 C1635 1.368 . S
C1632 C1613 1.429 . S
C1632 C1626 1.429 . S
C1632 C1633 1.523 . S
C1633 C1614 1.368 . S
C1633 C1627 1.368 . S
C1633 C1632 1.523 . S
C1634 C1618 1.429 . S
C1634 C1630 1.429 . S
C1634 C1635 1.523 . S
C1635 C1619 1.368 . S
C1635 C1631 1.368 . S
C1635 C1634 1.523 . S
H1636 C1611 0.950 . S
H1637 C1613 0.950 . S
H1638 C1614 0.949 . S
H1639 C1616 0.950 . S
H1640 C1618 0.950 . S
C1641 C1642 1.349 . S
C1641 C1643 1.327 . S
C1641 H1666 0.950 . S
C1642 C1641 1.349 . S
C1642 C1658 1.349 . S
C1643 C1641 1.327 . S
C1643 C1662 1.429 . S
C1643 H1667 0.950 . S
C1644 C1661 1.574 . S
C1644 C1663 1.368 . S
C1644 H1668 0.949 . S
H1645 C1649 0.949 . S
C1646 C1647 1.349 . S
C1646 C1648 1.327 . S
C1646 H1669 0.950 . S
C1647 C1646 1.349 . S
C1647 C1659 1.349 . S
C1648 C1646 1.327 . S
C1648 C1664 1.429 . S
C1648 H1670 0.950 . S
C1649 H1645 0.949 . S
C1649 C1657 1.574 . S
C1649 C1665 1.368 . S
H1650 C1658 0.950 . S
H1651 C1656 0.950 . S
H1652 C1657 0.949 . S
H1653 C1659 0.950 . S
H1654 C1660 0.950 . S
H1655 C1661 0.949 . S
C1656 H1651 0.950 . S
C1656 C1658 1.327 . S
C1656 C1662 1.429 . S
C1657 C1649 1.574 . S
C1657 H1652 0.949 . S
C1657 C1663 1.368 . S
C1658 C1642 1.349 . S
C1658 H1650 0.950 . S
C1658 C1656 1.327 . S
C1659 C1647 1.349 . S
C1659 H1653 0.950 . S
C1659 C1660 1.327 . S
C1660 H1654 0.950 . S
C1660 C1659 1.327 . S
C1660 C1664 1.429 . S
C1661 C1644 1.574 . S
C1661 H1655 0.949 . S
C1661 C1665 1.368 . S
C1662 C1643 1.429 . S
C1662 C1656 1.429 . S
C1662 C1663 1.523 . S
C1663 C1644 1.368 . S
C1663 C1657 1.368 . S
C1663 C1662 1.523 . S
C1664 C1648 1.429 . S
C1664 C1660 1.429 . S
C1664 C1665 1.523 . S
C1665 C1649 1.368 . S
C1665 C1661 1.368 . S
C1665 C1664 1.523 . S
H1666 C1641 0.950 . S
H1667 C1643 0.950 . S
H1668 C1644 0.949 . S
H1669 C1646 0.950 . S
H1670 C1648 0.950 . S
C1671 C1672 1.349 . S
C1671 C1673 1.327 . S
C1671 H1696 0.950 . S
C1672 C1671 1.349 . S
C1672 C1688 1.349 . S
C1673 C1671 1.327 . S
C1673 C1692 1.429 . S
C1673 H1697 0.950 . S
C1674 C1691 1.574 . S
C1674 C1693 1.368 . S
C1674 H1698 0.949 . S
H1675 C1679 0.949 . S
C1676 C1677 1.349 . S
C1676 C1678 1.327 . S
C1676 H1699 0.950 . S
C1677 C1676 1.349 . S
C1677 C1689 1.349 . S
C1678 C1676 1.327 . S
C1678 C1694 1.429 . S
C1678 H1700 0.950 . S
C1679 H1675 0.949 . S
C1679 C1687 1.574 . S
C1679 C1695 1.368 . S
H1680 C1688 0.950 . S
H1681 C1686 0.950 . S
H1682 C1687 0.949 . S
H1683 C1689 0.950 . S
H1684 C1690 0.950 . S
H1685 C1691 0.949 . S
C1686 H1681 0.950 . S
C1686 C1688 1.327 . S
C1686 C1692 1.429 . S
C1687 C1679 1.574 . S
C1687 H1682 0.949 . S
C1687 C1693 1.368 . S
C1688 C1672 1.349 . S
C1688 H1680 0.950 . S
C1688 C1686 1.327 . S
C1689 C1677 1.349 . S
C1689 H1683 0.950 . S
C1689 C1690 1.327 . S
C1690 H1684 0.950 . S
C1690 C1689 1.327 . S
C1690 C1694 1.429 . S
C1691 C1674 1.574 . S
C1691 H1685 0.949 . S
C1691 C1695 1.368 . S
C1692 C1673 1.429 . S
C1692 C1686 1.429 . S
C1692 C1693 1.523 . S
C1693 C1674 1.368 . S
C1693 C1687 1.368 . S
C1693 C1692 1.523 . S
C1694 C1678 1.429 . S
C1694 C1690 1.429 . S
C1694 C1695 1.523 . S
C1695 C1679 1.368 . S
C1695 C1691 1.368 . S
C1695 C1694 1.523 . S
H1696 C1671 0.950 . S
H1697 C1673 0.950 . S
H1698 C1674 0.949 . S
H1699 C1676 0.950 . S
H1700 C1678 0.950 . S
C1701 C1702 1.349 . S
C1701 C1703 1.327 . S
C1701 H1726 0.950 . S
C1702 C1701 1.349 . S
C1702 C1718 1.349 . S
C1703 C1701 1.327 . S
C1703 C1722 1.429 . S
C1703 H1727 0.950 . S
C1704 C1721 1.574 . S
C1704 C1723 1.368 . S
C1704 H1728 0.949 . S
H1705 C1709 0.949 . S
C1706 C1707 1.349 . S
C1706 C1708 1.327 . S
C1706 H1729 0.950 . S
C1707 C1706 1.349 . S
C1707 C1719 1.349 . S
C1708 C1706 1.327 . S
C1708 C1724 1.429 . S
C1708 H1730 0.950 . S
C1709 H1705 0.949 . S
C1709 C1717 1.574 . S
C1709 C1725 1.368 . S
H1710 C1718 0.950 . S
H1711 C1716 0.950 . S
H1712 C1717 0.949 . S
H1713 C1719 0.950 . S
H1714 C1720 0.950 . S
H1715 C1721 0.949 . S
C1716 H1711 0.950 . S
C1716 C1718 1.327 . S
C1716 C1722 1.429 . S
C1717 C1709 1.574 . S
C1717 H1712 0.949 . S
C1717 C1723 1.368 . S
C1718 C1702 1.349 . S
C1718 H1710 0.950 . S
C1718 C1716 1.327 . S
C1719 C1707 1.349 . S
C1719 H1713 0.950 . S
C1719 C1720 1.327 . S
C1720 H1714 0.950 . S
C1720 C1719 1.327 . S
C1720 C1724 1.429 . S
C1721 C1704 1.574 . S
C1721 H1715 0.949 . S
C1721 C1725 1.368 . S
C1722 C1703 1.429 . S
C1722 C1716 1.429 . S
C1722 C1723 1.523 1_565 S
C1723 C1704 1.368 . S
C1723 C1717 1.368 . S
C1723 C1722 1.523 1_545 S
C1724 C1708 1.429 . S
C1724 C1720 1.429 . S
C1724 C1725 1.523 . S
C1725 C1709 1.368 . S
C1725 C1721 1.368 . S
C1725 C1724 1.523 . S
H1726 C1701 0.950 . S
H1727 C1703 0.950 . S
H1728 C1704 0.949 . S
H1729 C1706 0.950 . S
H1730 C1708 0.950 . S
C1731 C1732 1.349 . S
C1731 C1733 1.327 . S
C1731 H1756 0.950 . S
C1732 C1731 1.349 . S
C1732 C1748 1.349 . S
C1733 C1731 1.327 . S
C1733 C1752 1.429 . S
C1733 H1757 0.950 . S
C1734 C1751 1.574 . S
C1734 C1753 1.368 . S
C1734 H1758 0.949 . S
H1735 C1739 0.949 . S
C1736 C1737 1.349 . S
C1736 C1738 1.327 . S
C1736 H1759 0.950 . S
C1737 C1736 1.349 . S
C1737 C1749 1.349 . S
C1738 C1736 1.327 . S
C1738 C1754 1.429 . S
C1738 H1760 0.950 . S
C1739 H1735 0.949 . S
C1739 C1747 1.574 . S
C1739 C1755 1.368 . S
H1740 C1748 0.950 . S
H1741 C1746 0.950 . S
H1742 C1747 0.949 . S
H1743 C1749 0.950 . S
H1744 C1750 0.950 . S
H1745 C1751 0.949 . S
C1746 H1741 0.950 . S
C1746 C1748 1.327 . S
C1746 C1752 1.429 . S
C1747 C1739 1.574 . S
C1747 H1742 0.949 . S
C1747 C1753 1.368 . S
C1748 C1732 1.349 . S
C1748 H1740 0.950 . S
C1748 C1746 1.327 . S
C1749 C1737 1.349 . S
C1749 H1743 0.950 . S
C1749 C1750 1.327 . S
C1750 H1744 0.950 . S
C1750 C1749 1.327 . S
C1750 C1754 1.429 . S
C1751 C1734 1.574 . S
C1751 H1745 0.949 . S
C1751 C1755 1.368 . S
C1752 C1733 1.429 . S
C1752 C1746 1.429 . S
C1752 C1753 1.523 1_455 S
C1753 C1734 1.368 . S
C1753 C1747 1.368 . S
C1753 C1752 1.523 1_655 S
C1754 C1738 1.429 . S
C1754 C1750 1.429 . S
C1754 C1755 1.523 . S
C1755 C1739 1.368 . S
C1755 C1751 1.368 . S
C1755 C1754 1.523 . S
H1756 C1731 0.950 . S
H1757 C1733 0.950 . S
H1758 C1734 0.949 . S
H1759 C1736 0.950 . S
H1760 C1738 0.950 . S
C1761 C1762 1.349 . S
C1761 C1763 1.327 . S
C1761 H1786 0.950 . S
C1762 C1761 1.349 . S
C1762 C1778 1.349 . S
C1763 C1761 1.327 . S
C1763 C1782 1.429 . S
C1763 H1787 0.950 . S
C1764 C1781 1.574 . S
C1764 C1783 1.368 . S
C1764 H1788 0.949 . S
H1765 C1769 0.949 . S
C1766 C1767 1.349 . S
C1766 C1768 1.327 . S
C1766 H1789 0.950 . S
C1767 C1766 1.349 . S
C1767 C1779 1.349 . S
C1768 C1766 1.327 . S
C1768 C1784 1.429 . S
C1768 H1790 0.950 . S
C1769 H1765 0.949 . S
C1769 C1777 1.574 . S
C1769 C1785 1.368 . S
H1770 C1778 0.950 . S
H1771 C1776 0.950 . S
H1772 C1777 0.949 . S
H1773 C1779 0.950 . S
H1774 C1780 0.950 . S
H1775 C1781 0.949 . S
C1776 H1771 0.950 . S
C1776 C1778 1.327 . S
C1776 C1782 1.429 . S
C1777 C1769 1.574 . S
C1777 H1772 0.949 . S
C1777 C1783 1.368 . S
C1778 C1762 1.349 . S
C1778 H1770 0.950 . S
C1778 C1776 1.327 . S
C1779 C1767 1.349 . S
C1779 H1773 0.950 . S
C1779 C1780 1.327 . S
C1780 H1774 0.950 . S
C1780 C1779 1.327 . S
C1780 C1784 1.429 . S
C1781 C1764 1.574 . S
C1781 H1775 0.949 . S
C1781 C1785 1.368 . S
C1782 C1763 1.429 . S
C1782 C1776 1.429 . S
C1782 C1783 1.523 . S
C1783 C1764 1.368 . S
C1783 C1777 1.368 . S
C1783 C1782 1.523 . S
C1784 C1768 1.429 . S
C1784 C1780 1.429 . S
C1784 C1785 1.523 . S
C1785 C1769 1.368 . S
C1785 C1781 1.368 . S
C1785 C1784 1.523 . S
H1786 C1761 0.950 . S
H1787 C1763 0.950 . S
H1788 C1764 0.949 . S
H1789 C1766 0.950 . S
H1790 C1768 0.950 . S
C1791 C1792 1.349 . S
C1791 C1793 1.327 . S
C1791 H1816 0.950 . S
C1792 C1791 1.349 . S
C1792 C1808 1.349 . S
C1793 C1791 1.327 . S
C1793 C1812 1.429 . S
C1793 H1817 0.950 . S
C1794 C1811 1.574 . S
C1794 C1813 1.368 . S
C1794 H1818 0.949 . S
H1795 C1799 0.949 . S
C1796 C1797 1.349 . S
C1796 C1798 1.327 . S
C1796 H1819 0.950 . S
C1797 C1796 1.349 . S
C1797 C1809 1.349 . S
C1798 C1796 1.327 . S
C1798 C1814 1.429 . S
C1798 H1820 0.950 . S
C1799 H1795 0.949 . S
C1799 C1807 1.574 . S
C1799 C1815 1.368 . S
H1800 C1808 0.950 . S
H1801 C1806 0.950 . S
H1802 C1807 0.949 . S
H1803 C1809 0.950 . S
H1804 C1810 0.950 . S
H1805 C1811 0.949 . S
C1806 H1801 0.950 . S
C1806 C1808 1.327 . S
C1806 C1812 1.429 . S
C1807 C1799 1.574 . S
C1807 H1802 0.949 . S
C1807 C1813 1.368 . S
C1808 C1792 1.349 . S
C1808 H1800 0.950 . S
C1808 C1806 1.327 . S
C1809 C1797 1.349 . S
C1809 H1803 0.950 . S
C1809 C1810 1.327 . S
C1810 H1804 0.950 . S
C1810 C1809 1.327 . S
C1810 C1814 1.429 . S
C1811 C1794 1.574 . S
C1811 H1805 0.949 . S
C1811 C1815 1.368 . S
C1812 C1793 1.429 . S
C1812 C1806 1.429 . S
C1812 C1813 1.523 1_455 S
C1813 C1794 1.368 . S
C1813 C1807 1.368 . S
C1813 C1812 1.523 1_655 S
C1814 C1798 1.429 . S
C1814 C1810 1.429 . S
C1814 C1815 1.523 . S
C1815 C1799 1.368 . S
C1815 C1811 1.368 . S
C1815 C1814 1.523 . S
H1816 C1791 0.950 . S
H1817 C1793 0.950 . S
H1818 C1794 0.949 . S
H1819 C1796 0.950 . S
H1820 C1798 0.950 . S
C1821 C1822 1.349 . S
C1821 C1823 1.327 . S
C1821 H1846 0.950 . S
C1822 C1821 1.349 . S
C1822 C1838 1.349 . S
C1823 C1821 1.327 . S
C1823 C1842 1.429 . S
C1823 H1847 0.950 . S
C1824 C1841 1.574 . S
C1824 C1843 1.368 . S
C1824 H1848 0.949 . S
H1825 C1829 0.949 . S
C1826 C1827 1.349 . S
C1826 C1828 1.327 . S
C1826 H1849 0.950 . S
C1827 C1826 1.349 . S
C1827 C1839 1.349 . S
C1828 C1826 1.327 . S
C1828 C1844 1.429 . S
C1828 H1850 0.950 . S
C1829 H1825 0.949 . S
C1829 C1837 1.574 . S
C1829 C1845 1.368 . S
H1830 C1838 0.950 . S
H1831 C1836 0.950 . S
H1832 C1837 0.949 . S
H1833 C1839 0.950 . S
H1834 C1840 0.950 . S
H1835 C1841 0.949 . S
C1836 H1831 0.950 . S
C1836 C1838 1.327 . S
C1836 C1842 1.429 . S
C1837 C1829 1.574 . S
C1837 H1832 0.949 . S
C1837 C1843 1.368 . S
C1838 C1822 1.349 . S
C1838 H1830 0.950 . S
C1838 C1836 1.327 . S
C1839 C1827 1.349 . S
C1839 H1833 0.950 . S
C1839 C1840 1.327 . S
C1840 H1834 0.950 . S
C1840 C1839 1.327 . S
C1840 C1844 1.429 . S
C1841 C1824 1.574 . S
C1841 H1835 0.949 . S
C1841 C1845 1.368 . S
C1842 C1823 1.429 . S
C1842 C1836 1.429 . S
C1842 C1843 1.523 . S
C1843 C1824 1.368 . S
C1843 C1837 1.368 . S
C1843 C1842 1.523 . S
C1844 C1828 1.429 . S
C1844 C1840 1.429 . S
C1844 C1845 1.523 . S
C1845 C1829 1.368 . S
C1845 C1841 1.368 . S
C1845 C1844 1.523 . S
H1846 C1821 0.950 . S
H1847 C1823 0.950 . S
H1848 C1824 0.949 . S
H1849 C1826 0.950 . S
H1850 C1828 0.950 . S
C1851 C1852 1.349 . S
C1851 C1853 1.327 . S
C1851 H1876 0.950 . S
C1852 C1851 1.349 . S
C1852 C1868 1.349 . S
C1853 C1851 1.327 . S
C1853 C1872 1.429 . S
C1853 H1877 0.950 . S
C1854 C1871 1.574 . S
C1854 C1873 1.368 . S
C1854 H1878 0.949 . S
H1855 C1859 0.949 . S
C1856 C1857 1.349 . S
C1856 C1858 1.327 . S
C1856 H1879 0.950 . S
C1857 C1856 1.349 . S
C1857 C1869 1.349 . S
C1858 C1856 1.327 . S
C1858 C1874 1.429 . S
C1858 H1880 0.950 . S
C1859 H1855 0.949 . S
C1859 C1867 1.574 . S
C1859 C1875 1.368 . S
H1860 C1868 0.950 . S
H1861 C1866 0.950 . S
H1862 C1867 0.949 . S
H1863 C1869 0.950 . S
H1864 C1870 0.950 . S
H1865 C1871 0.949 . S
C1866 H1861 0.950 . S
C1866 C1868 1.327 . S
C1866 C1872 1.429 . S
C1867 C1859 1.574 . S
C1867 H1862 0.949 . S
C1867 C1873 1.368 . S
C1868 C1852 1.349 . S
C1868 H1860 0.950 . S
C1868 C1866 1.327 . S
C1869 C1857 1.349 . S
C1869 H1863 0.950 . S
C1869 C1870 1.327 . S
C1870 H1864 0.950 . S
C1870 C1869 1.327 . S
C1870 C1874 1.429 . S
C1871 C1854 1.574 . S
C1871 H1865 0.949 . S
C1871 C1875 1.368 . S
C1872 C1853 1.429 . S
C1872 C1866 1.429 . S
C1872 C1873 1.523 1_565 S
C1873 C1854 1.368 . S
C1873 C1867 1.368 . S
C1873 C1872 1.523 1_545 S
C1874 C1858 1.429 . S
C1874 C1870 1.429 . S
C1874 C1875 1.523 . S
C1875 C1859 1.368 . S
C1875 C1871 1.368 . S
C1875 C1874 1.523 . S
H1876 C1851 0.950 . S
H1877 C1853 0.950 . S
H1878 C1854 0.949 . S
H1879 C1856 0.950 . S
H1880 C1858 0.950 . S
C1881 C1882 1.349 . S
C1881 C1883 1.327 . S
C1881 H1906 0.950 . S
C1882 C1881 1.349 . S
C1882 C1898 1.349 . S
C1883 C1881 1.327 . S
C1883 C1902 1.429 . S
C1883 H1907 0.950 . S
C1884 C1901 1.574 . S
C1884 C1903 1.368 . S
C1884 H1908 0.949 . S
H1885 C1889 0.949 . S
C1886 C1887 1.349 . S
C1886 C1888 1.327 . S
C1886 H1909 0.950 . S
C1887 C1886 1.349 . S
C1887 C1899 1.349 . S
C1888 C1886 1.327 . S
C1888 C1904 1.429 . S
C1888 H1910 0.950 . S
C1889 H1885 0.949 . S
C1889 C1897 1.574 . S
C1889 C1905 1.368 . S
H1890 C1898 0.950 . S
H1891 C1896 0.950 . S
H1892 C1897 0.949 . S
H1893 C1899 0.950 . S
H1894 C1900 0.950 . S
H1895 C1901 0.949 . S
C1896 H1891 0.950 . S
C1896 C1898 1.327 . S
C1896 C1902 1.429 . S
C1897 C1889 1.574 . S
C1897 H1892 0.949 . S
C1897 C1903 1.368 . S
C1898 C1882 1.349 . S
C1898 H1890 0.950 . S
C1898 C1896 1.327 . S
C1899 C1887 1.349 . S
C1899 H1893 0.950 . S
C1899 C1900 1.327 . S
C1900 H1894 0.950 . S
C1900 C1899 1.327 . S
C1900 C1904 1.429 . S
C1901 C1884 1.574 . S
C1901 H1895 0.949 . S
C1901 C1905 1.368 . S
C1902 C1883 1.429 . S
C1902 C1896 1.429 . S
C1902 C1903 1.523 . S
C1903 C1884 1.368 . S
C1903 C1897 1.368 . S
C1903 C1902 1.523 . S
C1904 C1888 1.429 . S
C1904 C1900 1.429 . S
C1904 C1905 1.523 . S
C1905 C1889 1.368 . S
C1905 C1901 1.368 . S
C1905 C1904 1.523 . S
H1906 C1881 0.950 . S
H1907 C1883 0.950 . S
H1908 C1884 0.949 . S
H1909 C1886 0.950 . S
H1910 C1888 0.950 . S
C1911 C1912 1.349 . S
C1911 C1913 1.327 . S
C1911 H1936 0.950 . S
C1912 C1911 1.349 . S
C1912 C1928 1.349 . S
C1913 C1911 1.327 . S
C1913 C1932 1.429 . S
C1913 H1937 0.950 . S
C1914 C1931 1.574 . S
C1914 C1933 1.368 . S
C1914 H1938 0.949 . S
H1915 C1919 0.949 . S
C1916 C1917 1.349 . S
C1916 C1918 1.327 . S
C1916 H1939 0.950 . S
C1917 C1916 1.349 . S
C1917 C1929 1.349 . S
C1918 C1916 1.327 . S
C1918 C1934 1.429 . S
C1918 H1940 0.950 . S
C1919 H1915 0.949 . S
C1919 C1927 1.574 . S
C1919 C1935 1.368 . S
H1920 C1928 0.950 . S
H1921 C1926 0.950 . S
H1922 C1927 0.949 . S
H1923 C1929 0.950 . S
H1924 C1930 0.950 . S
H1925 C1931 0.949 . S
C1926 H1921 0.950 . S
C1926 C1928 1.327 . S
C1926 C1932 1.429 . S
C1927 C1919 1.574 . S
C1927 H1922 0.949 . S
C1927 C1933 1.368 . S
C1928 C1912 1.349 . S
C1928 H1920 0.950 . S
C1928 C1926 1.327 . S
C1929 C1917 1.349 . S
C1929 H1923 0.950 . S
C1929 C1930 1.327 . S
C1930 H1924 0.950 . S
C1930 C1929 1.327 . S
C1930 C1934 1.429 . S
C1931 C1914 1.574 . S
C1931 H1925 0.949 . S
C1931 C1935 1.368 . S
C1932 C1913 1.429 . S
C1932 C1926 1.429 . S
C1932 C1933 1.523 . S
C1933 C1914 1.368 . S
C1933 C1927 1.368 . S
C1933 C1932 1.523 . S
C1934 C1918 1.429 . S
C1934 C1930 1.429 . S
C1934 C1935 1.523 . S
C1935 C1919 1.368 . S
C1935 C1931 1.368 . S
C1935 C1934 1.523 . S
H1936 C1911 0.950 . S
H1937 C1913 0.950 . S
H1938 C1914 0.949 . S
H1939 C1916 0.950 . S
H1940 C1918 0.950 . S
C1941 C1942 1.349 . S
C1941 C1943 1.327 . S
C1941 H1966 0.950 . S
C1942 C1941 1.349 . S
C1942 C1958 1.349 . S
C1943 C1941 1.327 . S
C1943 C1962 1.429 . S
C1943 H1967 0.950 . S
C1944 C1961 1.574 . S
C1944 C1963 1.368 . S
C1944 H1968 0.949 . S
H1945 C1949 0.949 . S
C1946 C1947 1.349 . S
C1946 C1948 1.327 . S
C1946 H1969 0.950 . S
C1947 C1946 1.349 . S
C1947 C1959 1.349 . S
C1948 C1946 1.327 . S
C1948 C1964 1.429 . S
C1948 H1970 0.950 . S
C1949 H1945 0.949 . S
C1949 C1957 1.574 . S
C1949 C1965 1.368 . S
H1950 C1958 0.950 . S
H1951 C1956 0.950 . S
H1952 C1957 0.949 . S
H1953 C1959 0.950 . S
H1954 C1960 0.950 . S
H1955 C1961 0.949 . S
C1956 H1951 0.950 . S
C1956 C1958 1.327 . S
C1956 C1962 1.429 . S
C1957 C1949 1.574 . S
C1957 H1952 0.949 . S
C1957 C1963 1.368 . S
C1958 C1942 1.349 . S
C1958 H1950 0.950 . S
C1958 C1956 1.327 . S
C1959 C1947 1.349 . S
C1959 H1953 0.950 . S
C1959 C1960 1.327 . S
C1960 H1954 0.950 . S
C1960 C1959 1.327 . S
C1960 C1964 1.429 . S
C1961 C1944 1.574 . S
C1961 H1955 0.949 . S
C1961 C1965 1.368 . S
C1962 C1943 1.429 . S
C1962 C1956 1.429 . S
C1962 C1963 1.523 . S
C1963 C1944 1.368 . S
C1963 C1957 1.368 . S
C1963 C1962 1.523 . S
C1964 C1948 1.429 . S
C1964 C1960 1.429 . S
C1964 C1965 1.523 . S
C1965 C1949 1.368 . S
C1965 C1961 1.368 . S
C1965 C1964 1.523 . S
H1966 C1941 0.950 . S
H1967 C1943 0.950 . S
H1968 C1944 0.949 . S
H1969 C1946 0.950 . S
H1970 C1948 0.950 . S
C1971 C1972 1.349 . S
C1971 C1973 1.327 . S
C1971 H1996 0.950 . S
C1972 C1971 1.349 . S
C1972 C1988 1.349 . S
C1973 C1971 1.327 . S
C1973 C1992 1.429 . S
C1973 H1997 0.950 . S
C1974 C1991 1.574 . S
C1974 C1993 1.368 . S
C1974 H1998 0.949 . S
H1975 C1979 0.949 1_545 S
C1976 C1977 1.347 1_565 S
C1976 C1978 1.327 . S
C1976 H1999 0.950 . S
C1977 C1976 1.347 1_545 S
C1977 C1989 1.347 . S
C1978 C1976 1.327 . S
C1978 C1994 1.429 . S
C1978 H2000 0.950 . S
C1979 H1975 0.949 1_565 S
C1979 C1987 1.574 . S
C1979 C1995 1.368 . S
H1980 C1988 0.950 . S
H1981 C1986 0.950 . S
H1982 C1987 0.949 . S
H1983 C1989 0.950 . S
H1984 C1990 0.950 . S
H1985 C1991 0.949 . S
C1986 H1981 0.950 . S
C1986 C1988 1.327 . S
C1986 C1992 1.429 . S
C1987 C1979 1.574 . S
C1987 H1982 0.949 . S
C1987 C1993 1.368 . S
C1988 C1972 1.349 . S
C1988 H1980 0.950 . S
C1988 C1986 1.327 . S
C1989 C1977 1.347 . S
C1989 H1983 0.950 . S
C1989 C1990 1.327 . S
C1990 H1984 0.950 . S
C1990 C1989 1.327 . S
C1990 C1994 1.429 1_545 S
C1991 C1974 1.574 . S
C1991 H1985 0.949 . S
C1991 C1995 1.368 . S
C1992 C1973 1.429 . S
C1992 C1986 1.429 . S
C1992 C1993 1.523 . S
C1993 C1974 1.368 . S
C1993 C1987 1.368 . S
C1993 C1992 1.523 . S
C1994 C1978 1.429 . S
C1994 C1990 1.429 1_565 S
C1994 C1995 1.523 . S
C1995 C1979 1.368 . S
C1995 C1991 1.368 . S
C1995 C1994 1.523 . S
H1996 C1971 0.950 . S
H1997 C1973 0.950 . S
H1998 C1974 0.949 . S
H1999 C1976 0.950 . S
H2000 C1978 0.950 . S
C2001 C2002 1.349 . S
C2001 C2003 1.327 . S
C2001 H2026 0.950 . S
C2002 C2001 1.349 . S
C2002 C2018 1.349 . S
C2003 C2001 1.327 . S
C2003 C2022 1.429 . S
C2003 H2027 0.950 . S
C2004 C2021 1.579 . S
C2004 C2023 1.368 . S
C2004 H2028 0.949 1_455 S
H2005 C2009 0.949 . S
C2006 C2007 1.349 1_655 S
C2006 C2008 1.327 . S
C2006 H2029 0.950 . S
C2007 C2006 1.349 1_455 S
C2007 C2019 1.349 . S
C2008 C2006 1.327 . S
C2008 C2024 1.429 1_655 S
C2008 H2030 0.950 . S
C2009 H2005 0.949 . S
C2009 C2017 1.574 . S
C2009 C2025 1.368 . S
H2010 C2018 0.950 . S
H2011 C2016 0.990 . S
H2012 C2017 0.949 . S
H2013 C2019 0.950 . S
H2014 C2020 0.950 . S
H2015 C2021 0.927 1_655 S
C2016 H2011 0.990 . S
C2016 C2018 1.327 . S
C2016 C2022 1.429 . S
C2017 C2009 1.574 . S
C2017 H2012 0.949 . S
C2017 C2023 1.368 . S
C2018 C2002 1.349 . S
C2018 H2010 0.950 . S
C2018 C2016 1.327 . S
C2019 C2007 1.349 . S
C2019 H2013 0.950 . S
C2019 C2020 1.327 . S
C2020 H2014 0.950 . S
C2020 C2019 1.327 . S
C2020 C2024 1.429 . S
C2021 C2004 1.579 . S
C2021 H2015 0.927 1_455 S
C2021 C2025 1.388 . S
C2022 C2003 1.429 . S
C2022 C2016 1.429 . S
C2022 C2023 1.523 . S
C2023 C2004 1.368 . S
C2023 C2017 1.368 . S
C2023 C2022 1.523 . S
C2024 C2008 1.429 1_455 S
C2024 C2020 1.429 . S
C2024 C2025 1.523 . S
C2025 C2009 1.368 . S
C2025 C2021 1.388 . S
C2025 C2024 1.523 . S
H2026 C2001 0.950 . S
H2027 C2003 0.950 . S
H2028 C2004 0.949 1_655 S
H2029 C2006 0.950 . S
H2030 C2008 0.950 . S
C2031 C2032 1.349 . S
C2031 C2033 1.327 . S
C2031 H2056 0.950 . S
C2032 C2031 1.349 . S
C2032 C2048 1.349 . S
C2033 C2031 1.327 . S
C2033 C2052 1.429 . S
C2033 H2057 0.950 . S
C2034 C2051 1.574 . S
C2034 C2053 1.368 . S
C2034 H2058 0.949 . S
H2035 C2039 0.949 . S
C2036 C2037 1.349 . S
C2036 C2038 1.327 . S
C2036 H2059 0.950 . S
C2037 C2036 1.349 . S
C2037 C2049 1.349 . S
C2038 C2036 1.327 . S
C2038 C2054 1.429 . S
C2038 H2060 0.950 . S
C2039 H2035 0.949 . S
C2039 C2047 1.574 . S
C2039 C2055 1.368 . S
H2040 C2048 0.950 . S
H2041 C2046 0.950 . S
H2042 C2047 0.949 . S
H2043 C2049 0.950 . S
H2044 C2050 0.950 . S
H2045 C2051 0.949 . S
C2046 H2041 0.950 . S
C2046 C2048 1.327 . S
C2046 C2052 1.429 . S
C2047 C2039 1.574 . S
C2047 H2042 0.949 . S
C2047 C2053 1.368 . S
C2048 C2032 1.349 . S
C2048 H2040 0.950 . S
C2048 C2046 1.327 . S
C2049 C2037 1.349 . S
C2049 H2043 0.950 . S
C2049 C2050 1.327 . S
C2050 H2044 0.950 . S
C2050 C2049 1.327 . S
C2050 C2054 1.429 . S
C2051 C2034 1.574 . S
C2051 H2045 0.949 . S
C2051 C2055 1.368 . S
C2052 C2033 1.429 . S
C2052 C2046 1.429 . S
C2052 C2053 1.523 . S
C2053 C2034 1.368 . S
C2053 C2047 1.368 . S
C2053 C2052 1.523 . S
C2054 C2038 1.429 . S
C2054 C2050 1.429 . S
C2054 C2055 1.523 . S
C2055 C2039 1.368 . S
C2055 C2051 1.368 . S
C2055 C2054 1.523 . S
H2056 C2031 0.950 . S
H2057 C2033 0.950 . S
H2058 C2034 0.949 . S
H2059 C2036 0.950 . S
H2060 C2038 0.950 . S
C2061 C2062 1.349 . S
C2061 C2063 1.327 . S
C2061 H2086 0.950 . S
C2062 C2061 1.349 . S
C2062 C2078 1.349 . S
C2063 C2061 1.327 . S
C2063 C2082 1.429 . S
C2063 H2087 0.950 . S
C2064 C2081 1.574 . S
C2064 C2083 1.368 . S
C2064 H2088 0.949 . S
H2065 C2069 0.949 . S
C2066 C2067 1.349 . S
C2066 C2068 1.327 . S
C2066 H2089 0.950 . S
C2067 C2066 1.349 . S
C2067 C2079 1.349 . S
C2068 C2066 1.327 . S
C2068 C2084 1.429 . S
C2068 H2090 0.950 . S
C2069 H2065 0.949 . S
C2069 C2077 1.574 . S
C2069 C2085 1.368 . S
H2070 C2078 0.950 . S
H2071 C2076 0.950 . S
H2072 C2077 0.949 . S
H2073 C2079 0.950 . S
H2074 C2080 0.950 . S
H2075 C2081 0.949 . S
C2076 H2071 0.950 . S
C2076 C2078 1.327 . S
C2076 C2082 1.429 . S
C2077 C2069 1.574 . S
C2077 H2072 0.949 . S
C2077 C2083 1.368 . S
C2078 C2062 1.349 . S
C2078 H2070 0.950 . S
C2078 C2076 1.327 . S
C2079 C2067 1.349 . S
C2079 H2073 0.950 . S
C2079 C2080 1.327 . S
C2080 H2074 0.950 . S
C2080 C2079 1.327 . S
C2080 C2084 1.429 . S
C2081 C2064 1.574 . S
C2081 H2075 0.949 . S
C2081 C2085 1.368 . S
C2082 C2063 1.429 . S
C2082 C2076 1.429 . S
C2082 C2083 1.523 . S
C2083 C2064 1.368 . S
C2083 C2077 1.368 . S
C2083 C2082 1.523 . S
C2084 C2068 1.429 . S
C2084 C2080 1.429 . S
C2084 C2085 1.523 . S
C2085 C2069 1.368 . S
C2085 C2081 1.368 . S
C2085 C2084 1.523 . S
H2086 C2061 0.950 . S
H2087 C2063 0.950 . S
H2088 C2064 0.949 . S
H2089 C2066 0.950 . S
H2090 C2068 0.950 . S
C2091 C2092 1.349 . S
C2091 C2093 1.327 . S
C2091 H2116 0.950 . S
C2092 C2091 1.349 . S
C2092 C2108 1.349 . S
C2093 C2091 1.327 . S
C2093 C2112 1.429 . S
C2093 H2117 0.950 . S
C2094 C2111 1.574 . S
C2094 C2113 1.368 . S
C2094 H2118 0.949 . S
H2095 C2099 0.949 . S
C2096 C2097 1.349 . S
C2096 C2098 1.327 . S
C2096 H2119 0.950 . S
C2097 C2096 1.349 . S
C2097 C2109 1.349 . S
C2098 C2096 1.327 . S
C2098 C2114 1.429 . S
C2098 H2120 0.950 . S
C2099 H2095 0.949 . S
C2099 C2107 1.574 . S
C2099 C2115 1.368 . S
H2100 C2108 0.950 . S
H2101 C2106 0.950 . S
H2102 C2107 0.949 . S
H2103 C2109 0.950 . S
H2104 C2110 0.950 . S
H2105 C2111 0.949 . S
C2106 H2101 0.950 . S
C2106 C2108 1.327 . S
C2106 C2112 1.429 . S
C2107 C2099 1.574 . S
C2107 H2102 0.949 . S
C2107 C2113 1.368 . S
C2108 C2092 1.349 . S
C2108 H2100 0.950 . S
C2108 C2106 1.327 . S
C2109 C2097 1.349 . S
C2109 H2103 0.950 . S
C2109 C2110 1.327 . S
C2110 H2104 0.950 . S
C2110 C2109 1.327 . S
C2110 C2114 1.429 . S
C2111 C2094 1.574 . S
C2111 H2105 0.949 . S
C2111 C2115 1.368 . S
C2112 C2093 1.429 . S
C2112 C2106 1.429 . S
C2112 C2113 1.523 . S
C2113 C2094 1.368 . S
C2113 C2107 1.368 . S
C2113 C2112 1.523 . S
C2114 C2098 1.429 . S
C2114 C2110 1.429 . S
C2114 C2115 1.523 . S
C2115 C2099 1.368 . S
C2115 C2111 1.368 . S
C2115 C2114 1.523 . S
H2116 C2091 0.950 . S
H2117 C2093 0.950 . S
H2118 C2094 0.949 . S
H2119 C2096 0.950 . S
H2120 C2098 0.950 . S
C2121 C2122 1.349 . S
C2121 C2123 1.327 . S
C2121 H2146 0.950 . S
C2122 C2121 1.349 . S
C2122 C2138 1.349 . S
C2123 C2121 1.327 . S
C2123 C2142 1.429 . S
C2123 H2147 0.950 . S
C2124 C2141 1.574 . S
C2124 C2143 1.368 . S
C2124 H2148 0.949 . S
H2125 C2129 0.949 . S
C2126 C2127 1.349 1_565 S
C2126 C2128 1.329 . S
C2126 H2149 0.950 . S
C2127 C2126 1.349 1_545 S
C2127 C2139 1.349 . S
C2128 C2126 1.329 . S
C2128 C2144 1.419 1_565 S
C2128 H2150 0.958 . S
C2129 H2125 0.949 . S
C2129 C2137 1.574 . S
C2129 C2145 1.368 . S
H2130 C2138 0.950 . S
H2131 C2136 0.950 . S
H2132 C2137 0.949 . S
H2133 C2139 0.950 . S
H2134 C2140 0.950 . S
H2135 C2141 0.949 1_565 S
C2136 H2131 0.950 . S
C2136 C2138 1.327 . S
C2136 C2142 1.429 . S
C2137 C2129 1.574 . S
C2137 H2132 0.949 . S
C2137 C2143 1.368 . S
C2138 C2122 1.349 . S
C2138 H2130 0.950 . S
C2138 C2136 1.327 . S
C2139 C2127 1.349 . S
C2139 H2133 0.950 . S
C2139 C2140 1.327 . S
C2140 H2134 0.950 . S
C2140 C2139 1.327 . S
C2140 C2144 1.429 . S
C2141 C2124 1.574 . S
C2141 H2135 0.949 1_545 S
C2141 C2145 1.368 . S
C2142 C2123 1.429 . S
C2142 C2136 1.429 . S
C2142 C2143 1.523 . S
C2143 C2124 1.368 . S
C2143 C2137 1.368 . S
C2143 C2142 1.523 . S
C2144 C2128 1.419 1_545 S
C2144 C2140 1.429 . S
C2144 C2145 1.523 . S
C2145 C2129 1.368 . S
C2145 C2141 1.368 . S
C2145 C2144 1.523 . S
H2146 C2121 0.950 . S
H2147 C2123 0.950 . S
H2148 C2124 0.949 . S
H2149 C2126 0.950 . S
H2150 C2128 0.958 . S
C2151 C2152 1.349 . S
C2151 C2153 1.327 . S
C2151 H2176 0.950 . S
C2152 C2151 1.349 . S
C2152 C2168 1.349 . S
C2153 C2151 1.327 . S
C2153 C2172 1.429 . S
C2153 H2177 0.950 . S
C2154 C2171 1.574 . S
C2154 C2173 1.368 . S
C2154 H2178 0.949 . S
H2155 C2159 0.949 . S
C2156 C2157 1.349 . S
C2156 C2158 1.327 . S
C2156 H2179 0.950 . S
C2157 C2156 1.349 . S
C2157 C2169 1.349 . S
C2158 C2156 1.327 . S
C2158 C2174 1.429 . S
C2158 H2180 0.950 . S
C2159 H2155 0.949 . S
C2159 C2167 1.574 . S
C2159 C2175 1.368 . S
H2160 C2168 0.950 . S
H2161 C2166 0.950 . S
H2162 C2167 0.949 . S
H2163 C2169 0.950 . S
H2164 C2170 0.950 . S
H2165 C2171 0.949 . S
C2166 H2161 0.950 . S
C2166 C2168 1.327 . S
C2166 C2172 1.429 . S
C2167 C2159 1.574 . S
C2167 H2162 0.949 . S
C2167 C2173 1.368 . S
C2168 C2152 1.349 . S
C2168 H2160 0.950 . S
C2168 C2166 1.327 . S
C2169 C2157 1.349 . S
C2169 H2163 0.950 . S
C2169 C2170 1.327 . S
C2170 H2164 0.950 . S
C2170 C2169 1.327 . S
C2170 C2174 1.429 . S
C2171 C2154 1.574 . S
C2171 H2165 0.949 . S
C2171 C2175 1.368 . S
C2172 C2153 1.429 . S
C2172 C2166 1.429 . S
C2172 C2173 1.523 . S
C2173 C2154 1.368 . S
C2173 C2167 1.368 . S
C2173 C2172 1.523 . S
C2174 C2158 1.429 . S
C2174 C2170 1.429 . S
C2174 C2175 1.523 . S
C2175 C2159 1.368 . S
C2175 C2171 1.368 . S
C2175 C2174 1.523 . S
H2176 C2151 0.950 . S
H2177 C2153 0.950 . S
H2178 C2154 0.949 . S
H2179 C2156 0.950 . S
H2180 C2158 0.950 . S
C2181 C2182 1.349 . S
C2181 C2183 1.327 . S
C2181 H2206 0.950 . S
C2182 C2181 1.349 . S
C2182 C2198 1.349 . S
C2183 C2181 1.327 . S
C2183 C2202 1.429 . S
C2183 H2207 0.950 . S
C2184 C2201 1.574 . S
C2184 C2203 1.368 . S
C2184 H2208 0.949 . S
H2185 C2189 0.949 . S
C2186 C2187 1.349 . S
C2186 C2188 1.327 . S
C2186 H2209 0.950 . S
C2187 C2186 1.349 . S
C2187 C2199 1.349 . S
C2188 C2186 1.327 . S
C2188 C2204 1.429 . S
C2188 H2210 0.950 . S
C2189 H2185 0.949 . S
C2189 C2197 1.574 . S
C2189 C2205 1.368 . S
H2190 C2198 0.950 . S
H2191 C2196 0.950 . S
H2192 C2197 0.949 . S
H2193 C2199 0.950 . S
H2194 C2200 0.950 . S
H2195 C2201 0.949 . S
C2196 H2191 0.950 . S
C2196 C2198 1.327 . S
C2196 C2202 1.429 . S
C2197 C2189 1.574 . S
C2197 H2192 0.949 . S
C2197 C2203 1.368 . S
C2198 C2182 1.349 . S
C2198 H2190 0.950 . S
C2198 C2196 1.327 . S
C2199 C2187 1.349 . S
C2199 H2193 0.950 . S
C2199 C2200 1.327 . S
C2200 H2194 0.950 . S
C2200 C2199 1.327 . S
C2200 C2204 1.429 . S
C2201 C2184 1.574 . S
C2201 H2195 0.949 . S
C2201 C2205 1.368 . S
C2202 C2183 1.429 . S
C2202 C2196 1.429 . S
C2202 C2203 1.523 . S
C2203 C2184 1.368 . S
C2203 C2197 1.368 . S
C2203 C2202 1.523 . S
C2204 C2188 1.429 . S
C2204 C2200 1.429 . S
C2204 C2205 1.523 . S
C2205 C2189 1.368 . S
C2205 C2201 1.368 . S
C2205 C2204 1.523 . S
H2206 C2181 0.950 . S
H2207 C2183 0.950 . S
H2208 C2184 0.949 . S
H2209 C2186 0.950 . S
H2210 C2188 0.950 . S
C2211 C2212 1.349 . S
C2211 C2213 1.327 . S
C2211 H2236 0.950 . S
C2212 C2211 1.349 . S
C2212 C2228 1.349 . S
C2213 C2211 1.327 . S
C2213 C2232 1.429 . S
C2213 H2237 0.950 . S
C2214 C2231 1.574 . S
C2214 C2233 1.368 . S
C2214 H2238 0.949 . S
H2215 C2219 0.949 . S
C2216 C2217 1.349 . S
C2216 C2218 1.327 . S
C2216 H2239 0.950 . S
C2217 C2216 1.349 . S
C2217 C2229 1.349 . S
C2218 C2216 1.327 . S
C2218 C2234 1.429 . S
C2218 H2240 0.950 . S
C2219 H2215 0.949 . S
C2219 C2227 1.574 . S
C2219 C2235 1.368 . S
H2220 C2228 0.950 . S
H2221 C2226 0.950 . S
H2222 C2227 0.949 . S
H2223 C2229 0.950 . S
H2224 C2230 0.950 . S
H2225 C2231 0.949 . S
C2226 H2221 0.950 . S
C2226 C2228 1.327 . S
C2226 C2232 1.429 . S
C2227 C2219 1.574 . S
C2227 H2222 0.949 . S
C2227 C2233 1.368 . S
C2228 C2212 1.349 . S
C2228 H2220 0.950 . S
C2228 C2226 1.327 . S
C2229 C2217 1.349 . S
C2229 H2223 0.950 . S
C2229 C2230 1.327 . S
C2230 H2224 0.950 . S
C2230 C2229 1.327 . S
C2230 C2234 1.429 . S
C2231 C2214 1.574 . S
C2231 H2225 0.949 . S
C2231 C2235 1.368 . S
C2232 C2213 1.429 . S
C2232 C2226 1.429 . S
C2232 C2233 1.523 . S
C2233 C2214 1.368 . S
C2233 C2227 1.368 . S
C2233 C2232 1.523 . S
C2234 C2218 1.429 . S
C2234 C2230 1.429 . S
C2234 C2235 1.523 . S
C2235 C2219 1.368 . S
C2235 C2231 1.368 . S
C2235 C2234 1.523 . S
H2236 C2211 0.950 . S
H2237 C2213 0.950 . S
H2238 C2214 0.949 . S
H2239 C2216 0.950 . S
H2240 C2218 0.950 . S
C2241 C2242 1.349 . S
C2241 C2243 1.327 . S
C2241 H2266 0.950 . S
C2242 C2241 1.349 . S
C2242 C2258 1.349 . S
C2243 C2241 1.327 . S
C2243 C2262 1.429 . S
C2243 H2267 0.950 . S
C2244 C2261 1.574 . S
C2244 C2263 1.368 . S
C2244 H2268 0.949 . S
H2245 C2249 0.949 . S
C2246 C2247 1.349 . S
C2246 C2248 1.327 . S
C2246 H2269 0.950 . S
C2247 C2246 1.349 . S
C2247 C2259 1.349 . S
C2248 C2246 1.327 . S
C2248 C2264 1.429 . S
C2248 H2270 0.950 . S
C2249 H2245 0.949 . S
C2249 C2257 1.574 . S
C2249 C2265 1.368 . S
H2250 C2258 0.950 . S
H2251 C2256 0.950 . S
H2252 C2257 0.949 . S
H2253 C2259 0.950 . S
H2254 C2260 0.950 . S
H2255 C2261 0.949 . S
C2256 H2251 0.950 . S
C2256 C2258 1.327 . S
C2256 C2262 1.429 . S
C2257 C2249 1.574 . S
C2257 H2252 0.949 . S
C2257 C2263 1.368 . S
C2258 C2242 1.349 . S
C2258 H2250 0.950 . S
C2258 C2256 1.327 . S
C2259 C2247 1.349 . S
C2259 H2253 0.950 . S
C2259 C2260 1.327 . S
C2260 H2254 0.950 . S
C2260 C2259 1.327 . S
C2260 C2264 1.429 . S
C2261 C2244 1.574 . S
C2261 H2255 0.949 . S
C2261 C2265 1.368 . S
C2262 C2243 1.429 . S
C2262 C2256 1.429 . S
C2262 C2263 1.523 . S
C2263 C2244 1.368 . S
C2263 C2257 1.368 . S
C2263 C2262 1.523 . S
C2264 C2248 1.429 . S
C2264 C2260 1.429 . S
C2264 C2265 1.523 . S
C2265 C2249 1.368 . S
C2265 C2261 1.368 . S
C2265 C2264 1.523 . S
H2266 C2241 0.950 . S
H2267 C2243 0.950 . S
H2268 C2244 0.949 . S
H2269 C2246 0.950 . S
H2270 C2248 0.950 . S
C2271 C2272 1.349 . S
C2271 C2273 1.327 . S
C2271 H2296 0.950 . S
C2272 C2271 1.349 . S
C2272 C2288 1.349 . S
C2273 C2271 1.327 . S
C2273 C2292 1.429 . S
C2273 H2297 0.950 . S
C2274 C2291 1.574 . S
C2274 C2293 1.368 . S
C2274 H2298 0.949 . S
H2275 C2279 0.949 . S
C2276 C2277 1.349 . S
C2276 C2278 1.327 . S
C2276 H2299 0.950 . S
C2277 C2276 1.349 . S
C2277 C2289 1.349 . S
C2278 C2276 1.327 . S
C2278 C2294 1.429 . S
C2278 H2300 0.950 . S
C2279 H2275 0.949 . S
C2279 C2287 1.574 . S
C2279 C2295 1.368 . S
H2280 C2288 0.950 . S
H2281 C2286 0.950 . S
H2282 C2287 0.949 . S
H2283 C2289 0.950 . S
H2284 C2290 0.950 . S
H2285 C2291 0.949 . S
C2286 H2281 0.950 . S
C2286 C2288 1.327 . S
C2286 C2292 1.429 . S
C2287 C2279 1.574 . S
C2287 H2282 0.949 . S
C2287 C2293 1.368 . S
C2288 C2272 1.349 . S
C2288 H2280 0.950 . S
C2288 C2286 1.327 . S
C2289 C2277 1.349 . S
C2289 H2283 0.950 . S
C2289 C2290 1.327 . S
C2290 H2284 0.950 . S
C2290 C2289 1.327 . S
C2290 C2294 1.429 . S
C2291 C2274 1.574 . S
C2291 H2285 0.949 . S
C2291 C2295 1.368 . S
C2292 C2273 1.429 . S
C2292 C2286 1.429 . S
C2292 C2293 1.523 . S
C2293 C2274 1.368 . S
C2293 C2287 1.368 . S
C2293 C2292 1.523 . S
C2294 C2278 1.429 . S
C2294 C2290 1.429 . S
C2294 C2295 1.523 . S
C2295 C2279 1.368 . S
C2295 C2291 1.368 . S
C2295 C2294 1.523 . S
H2296 C2271 0.950 . S
H2297 C2273 0.950 . S
H2298 C2274 0.949 . S
H2299 C2276 0.950 . S
H2300 C2278 0.950 . S
C2301 C2302 1.349 . S
C2301 C2303 1.327 . S
C2301 H2326 0.950 . S
C2302 C2301 1.349 . S
C2302 C2318 1.349 . S
C2303 C2301 1.327 . S
C2303 C2322 1.429 . S
C2303 H2327 0.950 . S
C2304 C2321 1.574 . S
C2304 C2323 1.368 . S
C2304 H2328 0.949 . S
H2305 C2309 0.949 . S
C2306 C2307 1.349 . S
C2306 C2308 1.327 . S
C2306 H2329 0.950 . S
C2307 C2306 1.349 . S
C2307 C2319 1.349 . S
C2308 C2306 1.327 . S
C2308 C2324 1.429 . S
C2308 H2330 0.950 . S
C2309 H2305 0.949 . S
C2309 C2317 1.574 . S
C2309 C2325 1.368 . S
H2310 C2318 0.950 . S
H2311 C2316 0.950 . S
H2312 C2317 0.949 . S
H2313 C2319 0.950 . S
H2314 C2320 0.950 . S
H2315 C2321 0.949 . S
C2316 H2311 0.950 . S
C2316 C2318 1.327 . S
C2316 C2322 1.429 . S
C2317 C2309 1.574 . S
C2317 H2312 0.949 . S
C2317 C2323 1.368 . S
C2318 C2302 1.349 . S
C2318 H2310 0.950 . S
C2318 C2316 1.327 . S
C2319 C2307 1.349 . S
C2319 H2313 0.950 . S
C2319 C2320 1.327 . S
C2320 H2314 0.950 . S
C2320 C2319 1.327 . S
C2320 C2324 1.429 . S
C2321 C2304 1.574 . S
C2321 H2315 0.949 . S
C2321 C2325 1.368 . S
C2322 C2303 1.429 . S
C2322 C2316 1.429 . S
C2322 C2323 1.523 . S
C2323 C2304 1.368 . S
C2323 C2317 1.368 . S
C2323 C2322 1.523 . S
C2324 C2308 1.429 . S
C2324 C2320 1.429 . S
C2324 C2325 1.523 . S
C2325 C2309 1.368 . S
C2325 C2321 1.368 . S
C2325 C2324 1.523 . S
H2326 C2301 0.950 . S
H2327 C2303 0.950 . S
H2328 C2304 0.949 . S
H2329 C2306 0.950 . S
H2330 C2308 0.950 . S
C2331 C2332 1.349 . S
C2331 C2333 1.327 . S
C2331 H2356 0.950 . S
C2332 C2331 1.349 . S
C2332 C2348 1.349 . S
C2333 C2331 1.327 . S
C2333 C2352 1.429 . S
C2333 H2357 0.950 . S
C2334 C2351 1.574 . S
C2334 C2353 1.368 . S
C2334 H2358 0.949 . S
H2335 C2339 0.949 . S
C2336 C2337 1.349 . S
C2336 C2338 1.327 . S
C2336 H2359 0.950 . S
C2337 C2336 1.349 . S
C2337 C2349 1.349 . S
C2338 C2336 1.327 . S
C2338 C2354 1.429 . S
C2338 H2360 0.950 . S
C2339 H2335 0.949 . S
C2339 C2347 1.574 . S
C2339 C2355 1.368 . S
H2340 C2348 0.950 . S
H2341 C2346 0.950 . S
H2342 C2347 0.949 . S
H2343 C2349 0.950 . S
H2344 C2350 0.950 . S
H2345 C2351 0.949 . S
C2346 H2341 0.950 . S
C2346 C2348 1.327 . S
C2346 C2352 1.429 . S
C2347 C2339 1.574 . S
C2347 H2342 0.949 . S
C2347 C2353 1.368 . S
C2348 C2332 1.349 . S
C2348 H2340 0.950 . S
C2348 C2346 1.327 . S
C2349 C2337 1.349 . S
C2349 H2343 0.950 . S
C2349 C2350 1.327 . S
C2350 H2344 0.950 . S
C2350 C2349 1.327 . S
C2350 C2354 1.429 . S
C2351 C2334 1.574 . S
C2351 H2345 0.949 . S
C2351 C2355 1.368 . S
C2352 C2333 1.429 . S
C2352 C2346 1.429 . S
C2352 C2353 1.523 . S
C2353 C2334 1.368 . S
C2353 C2347 1.368 . S
C2353 C2352 1.523 . S
C2354 C2338 1.429 . S
C2354 C2350 1.429 . S
C2354 C2355 1.523 . S
C2355 C2339 1.368 . S
C2355 C2351 1.368 . S
C2355 C2354 1.523 . S
H2356 C2331 0.950 . S
H2357 C2333 0.950 . S
H2358 C2334 0.949 . S
H2359 C2336 0.950 . S
H2360 C2338 0.950 . S
C2361 C2362 1.349 . S
C2361 C2363 1.327 . S
C2361 H2386 0.950 . S
C2362 C2361 1.349 . S
C2362 C2378 1.349 . S
C2363 C2361 1.327 . S
C2363 C2382 1.429 . S
C2363 H2387 0.950 . S
C2364 C2381 1.574 . S
C2364 C2383 1.368 . S
C2364 H2388 0.949 . S
H2365 C2369 0.949 . S
C2366 C2367 1.349 . S
C2366 C2368 1.327 . S
C2366 H2389 0.950 . S
C2367 C2366 1.349 . S
C2367 C2379 1.349 . S
C2368 C2366 1.327 . S
C2368 C2384 1.429 . S
C2368 H2390 0.950 . S
C2369 H2365 0.949 . S
C2369 C2377 1.574 . S
C2369 C2385 1.368 . S
H2370 C2378 0.950 . S
H2371 C2376 0.950 . S
H2372 C2377 0.949 . S
H2373 C2379 0.950 . S
H2374 C2380 0.950 . S
H2375 C2381 0.949 . S
C2376 H2371 0.950 . S
C2376 C2378 1.327 . S
C2376 C2382 1.429 . S
C2377 C2369 1.574 . S
C2377 H2372 0.949 . S
C2377 C2383 1.368 . S
C2378 C2362 1.349 . S
C2378 H2370 0.950 . S
C2378 C2376 1.327 . S
C2379 C2367 1.349 . S
C2379 H2373 0.950 . S
C2379 C2380 1.327 . S
C2380 H2374 0.950 . S
C2380 C2379 1.327 . S
C2380 C2384 1.429 . S
C2381 C2364 1.574 . S
C2381 H2375 0.949 . S
C2381 C2385 1.368 . S
C2382 C2363 1.429 . S
C2382 C2376 1.429 . S
C2382 C2383 1.523 . S
C2383 C2364 1.368 . S
C2383 C2377 1.368 . S
C2383 C2382 1.523 . S
C2384 C2368 1.429 . S
C2384 C2380 1.429 . S
C2384 C2385 1.523 . S
C2385 C2369 1.368 . S
C2385 C2381 1.368 . S
C2385 C2384 1.523 . S
H2386 C2361 0.950 . S
H2387 C2363 0.950 . S
H2388 C2364 0.949 . S
H2389 C2366 0.950 . S
H2390 C2368 0.950 . S
C2391 C2392 1.349 . S
C2391 C2393 1.327 . S
C2391 H2416 0.950 . S
C2392 C2391 1.349 . S
C2392 C2408 1.349 . S
C2393 C2391 1.327 . S
C2393 C2412 1.429 . S
C2393 H2417 0.950 . S
C2394 C2411 1.574 . S
C2394 C2413 1.368 . S
C2394 H2418 0.949 . S
H2395 C2399 0.949 . S
C2396 C2397 1.349 . S
C2396 C2398 1.327 . S
C2396 H2419 0.950 . S
C2397 C2396 1.349 . S
C2397 C2409 1.349 . S
C2398 C2396 1.327 . S
C2398 C2414 1.429 . S
C2398 H2420 0.950 . S
C2399 H2395 0.949 . S
C2399 C2407 1.574 . S
C2399 C2415 1.368 . S
H2400 C2408 0.950 . S
H2401 C2406 0.950 . S
H2402 C2407 0.949 . S
H2403 C2409 0.950 . S
H2404 C2410 0.950 . S
H2405 C2411 0.949 . S
C2406 H2401 0.950 . S
C2406 C2408 1.327 . S
C2406 C2412 1.429 . S
C2407 C2399 1.574 . S
C2407 H2402 0.949 . S
C2407 C2413 1.368 . S
C2408 C2392 1.349 . S
C2408 H2400 0.950 . S
C2408 C2406 1.327 . S
C2409 C2397 1.349 . S
C2409 H2403 0.950 . S
C2409 C2410 1.327 . S
C2410 H2404 0.950 . S
C2410 C2409 1.327 . S
C2410 C2414 1.429 . S
C2411 C2394 1.574 . S
C2411 H2405 0.949 . S
C2411 C2415 1.368 . S
C2412 C2393 1.429 . S
C2412 C2406 1.429 . S
C2412 C2413 1.523 . S
C2413 C2394 1.368 . S
C2413 C2407 1.368 . S
C2413 C2412 1.523 . S
C2414 C2398 1.429 . S
C2414 C2410 1.429 . S
C2414 C2415 1.523 . S
C2415 C2399 1.368 . S
C2415 C2411 1.368 . S
C2415 C2414 1.523 . S
H2416 C2391 0.950 . S
H2417 C2393 0.950 . S
H2418 C2394 0.949 . S
H2419 C2396 0.950 . S
H2420 C2398 0.950 . S
C2421 C2422 1.349 . S
C2421 C2423 1.327 . S
C2421 H2446 0.950 . S
C2422 C2421 1.349 . S
C2422 C2438 1.349 . S
C2423 C2421 1.327 . S
C2423 C2442 1.429 . S
C2423 H2447 0.950 . S
C2424 C2441 1.574 . S
C2424 C2443 1.368 . S
C2424 H2448 0.949 . S
H2425 C2429 0.949 . S
C2426 C2427 1.349 . S
C2426 C2428 1.327 . S
C2426 H2449 0.950 . S
C2427 C2426 1.349 . S
C2427 C2439 1.349 . S
C2428 C2426 1.327 . S
C2428 C2444 1.429 . S
C2428 H2450 0.950 . S
C2429 H2425 0.949 . S
C2429 C2437 1.574 . S
C2429 C2445 1.368 . S
H2430 C2438 0.950 . S
H2431 C2436 0.950 . S
H2432 C2437 0.949 . S
H2433 C2439 0.950 . S
H2434 C2440 0.950 . S
H2435 C2441 0.949 . S
C2436 H2431 0.950 . S
C2436 C2438 1.327 . S
C2436 C2442 1.429 . S
C2437 C2429 1.574 . S
C2437 H2432 0.949 . S
C2437 C2443 1.368 . S
C2438 C2422 1.349 . S
C2438 H2430 0.950 . S
C2438 C2436 1.327 . S
C2439 C2427 1.349 . S
C2439 H2433 0.950 . S
C2439 C2440 1.327 . S
C2440 H2434 0.950 . S
C2440 C2439 1.327 . S
C2440 C2444 1.429 . S
C2441 C2424 1.574 . S
C2441 H2435 0.949 . S
C2441 C2445 1.368 . S
C2442 C2423 1.429 . S
C2442 C2436 1.429 . S
C2442 C2443 1.523 . S
C2443 C2424 1.368 . S
C2443 C2437 1.368 . S
C2443 C2442 1.523 . S
C2444 C2428 1.429 . S
C2444 C2440 1.429 . S
C2444 C2445 1.523 . S
C2445 C2429 1.368 . S
C2445 C2441 1.368 . S
C2445 C2444 1.523 . S
H2446 C2421 0.950 . S
H2447 C2423 0.950 . S
H2448 C2424 0.949 . S
H2449 C2426 0.950 . S
H2450 C2428 0.950 . S
C2451 C2452 1.349 . S
C2451 C2453 1.327 . S
C2451 H2476 0.950 . S
C2452 C2451 1.349 . S
C2452 C2468 1.349 . S
C2453 C2451 1.327 . S
C2453 C2472 1.429 . S
C2453 H2477 0.950 . S
C2454 C2471 1.574 . S
C2454 C2473 1.368 . S
C2454 H2478 0.949 . S
H2455 C2459 0.949 . S
C2456 C2457 1.349 . S
C2456 C2458 1.327 . S
C2456 H2479 0.950 . S
C2457 C2456 1.349 . S
C2457 C2469 1.349 . S
C2458 C2456 1.327 . S
C2458 C2474 1.429 . S
C2458 H2480 0.950 . S
C2459 H2455 0.949 . S
C2459 C2467 1.574 . S
C2459 C2475 1.368 . S
H2460 C2468 0.950 . S
H2461 C2466 0.950 . S
H2462 C2467 0.949 . S
H2463 C2469 0.950 . S
H2464 C2470 0.950 . S
H2465 C2471 0.949 . S
C2466 H2461 0.950 . S
C2466 C2468 1.327 . S
C2466 C2472 1.429 . S
C2467 C2459 1.574 . S
C2467 H2462 0.949 . S
C2467 C2473 1.368 . S
C2468 C2452 1.349 . S
C2468 H2460 0.950 . S
C2468 C2466 1.327 . S
C2469 C2457 1.349 . S
C2469 H2463 0.950 . S
C2469 C2470 1.327 . S
C2470 H2464 0.950 . S
C2470 C2469 1.327 . S
C2470 C2474 1.429 . S
C2471 C2454 1.574 . S
C2471 H2465 0.949 . S
C2471 C2475 1.368 . S
C2472 C2453 1.429 . S
C2472 C2466 1.429 . S
C2472 C2473 1.523 . S
C2473 C2454 1.368 . S
C2473 C2467 1.368 . S
C2473 C2472 1.523 . S
C2474 C2458 1.429 . S
C2474 C2470 1.429 . S
C2474 C2475 1.523 . S
C2475 C2459 1.368 . S
C2475 C2471 1.368 . S
C2475 C2474 1.523 . S
H2476 C2451 0.950 . S
H2477 C2453 0.950 . S
H2478 C2454 0.949 . S
H2479 C2456 0.950 . S
H2480 C2458 0.950 . S
C2481 C2482 1.349 . S
C2481 C2483 1.327 . S
C2481 H2506 0.950 . S
C2482 C2481 1.349 . S
C2482 C2498 1.349 . S
C2483 C2481 1.327 . S
C2483 C2502 1.429 . S
C2483 H2507 0.950 . S
C2484 C2501 1.574 . S
C2484 C2503 1.368 . S
C2484 H2508 0.949 . S
H2485 C2489 0.949 . S
C2486 C2487 1.349 . S
C2486 C2488 1.327 . S
C2486 H2509 0.950 . S
C2487 C2486 1.349 . S
C2487 C2499 1.349 . S
C2488 C2486 1.327 . S
C2488 C2504 1.429 . S
C2488 H2510 0.950 . S
C2489 H2485 0.949 . S
C2489 C2497 1.574 . S
C2489 C2505 1.368 . S
H2490 C2498 0.950 . S
H2491 C2496 0.950 . S
H2492 C2497 0.949 . S
H2493 C2499 0.950 . S
H2494 C2500 0.950 . S
H2495 C2501 0.949 . S
C2496 H2491 0.950 . S
C2496 C2498 1.327 . S
C2496 C2502 1.429 . S
C2497 C2489 1.574 . S
C2497 H2492 0.949 . S
C2497 C2503 1.368 . S
C2498 C2482 1.349 . S
C2498 H2490 0.950 . S
C2498 C2496 1.327 . S
C2499 C2487 1.349 . S
C2499 H2493 0.950 . S
C2499 C2500 1.327 . S
C2500 H2494 0.950 . S
C2500 C2499 1.327 . S
C2500 C2504 1.429 . S
C2501 C2484 1.574 . S
C2501 H2495 0.949 . S
C2501 C2505 1.368 . S
C2502 C2483 1.429 . S
C2502 C2496 1.429 . S
C2502 C2503 1.523 . S
C2503 C2484 1.368 . S
C2503 C2497 1.368 . S
C2503 C2502 1.523 . S
C2504 C2488 1.429 . S
C2504 C2500 1.429 . S
C2504 C2505 1.523 . S
C2505 C2489 1.368 . S
C2505 C2501 1.368 . S
C2505 C2504 1.523 . S
H2506 C2481 0.950 . S
H2507 C2483 0.950 . S
H2508 C2484 0.949 . S
H2509 C2486 0.950 . S
H2510 C2488 0.950 . S
C892 C528 1.365 . S
C897 C719 1.289 . S
C922 C562 1.405 . S
C927 C740 1.325 . S
C952 C484 1.320 . S
C957 C762 1.129 . S
C982 C445 1.335 . S
C987 C741 1.135 1_556 S
C1017 C761 1.332 . S
C1012 C367 1.416 . S
C1042 C411 1.324 . S
C1047 C720 1.124 1_556 S
C1077 C715 1.262 . S
C1072 C450 1.331 . S
C1107 C736 1.264 . S
C1102 C372 1.325 . S
C1132 C406 1.380 . S
C1137 C759 1.170 1_556 S
C1162 C523 1.320 . S
C1167 C738 1.129 . S
C1192 C567 1.280 . S
C1197 C757 1.218 . S
C1227 C717 1.147 . S
C1222 C489 1.340 . S
C1257 C782 1.289 . S
C1252 C60 1.365 . S
C1282 C94 1.405 . S
C1287 C803 1.326 . S
C1312 C16 1.321 . S
C1317 C825 1.129 . S
C1342 C679 1.335 . S
C1347 C804 1.135 . S
C1372 C601 1.416 . S
C1377 C824 1.332 . S
C1402 C645 1.324 . S
C1407 C783 1.124 . S
C1432 C684 1.331 . S
C1437 C778 1.262 . S
C1462 C606 1.325 . S
C1467 C799 1.264 . S
C1497 C822 1.170 . S
C1492 C640 1.380 . S
C1522 C55 1.320 . S
C1527 C801 1.129 . S
C1557 C820 1.219 . S
C1552 C99 1.280 . S
C1582 C21 1.340 . S
C1587 C780 1.147 . S
C1617 C845 1.289 . S
C1612 C294 1.365 . S
C1642 C328 1.405 . S
C1647 C866 1.325 . S
C1677 C888 1.129 . S
C1672 C250 1.320 . S
C1707 C867 1.135 . S
C1702 C211 1.335 . S
C1737 C887 1.332 . S
C1732 C133 1.416 . S
C1762 C177 1.324 . S
C1767 C846 1.124 . S
C1792 C216 1.332 . S
C1797 C841 1.263 . S
C1822 C138 1.325 . S
C1827 C862 1.264 . S
C1857 C885 1.170 . S
C1852 C172 1.380 . S
C1882 C289 1.320 . S
C1887 C864 1.129 . S
C1912 C333 1.280 . S
C1917 C883 1.218 . S
C1942 C255 1.340 . S
C1947 C843 1.147 . S
C1972 C586 1.376 . S
C1977 C718 1.345 . S
C2007 C739 1.381 . S
C2002 C625 1.418 . S
C2032 C664 1.483 . S
C2037 C758 1.453 . S
C2062 C235 1.547 . S
C2067 C737 1.515 1_655 S
C2092 C274 1.421 . S
C2097 C760 1.378 . S
C2127 C716 1.460 . S
C2122 C313 1.489 . S
C2152 C118 1.376 . S
C2157 C781 1.339 . S
C2182 C157 1.418 . S
C2187 C802 1.381 . S
C2212 C196 1.483 . S
C2217 C821 1.453 . S
C2242 C469 1.547 . S
C2247 C800 1.515 . S
C2277 C823 1.378 . S
C2272 C508 1.421 . S
C2302 C547 1.489 . S
C2307 C779 1.460 . S
C2332 C352 1.376 . S
C2337 C844 1.339 . S
C2362 C391 1.418 . S
C2367 C865 1.381 . S
C2397 C884 1.453 . S
C2392 C430 1.483 . S
C2422 C1 1.547 . S
C2427 C863 1.515 . S
C2452 C40 1.421 . S
C2457 C886 1.378 . S
C2482 C79 1.489 . S
C2487 C842 1.460 . S
