# Generated by pormake.
# Topology csq, (4,8)-cn, num edge types: 1
# Building blocks:
#     Node 0, Type 0, BuildingBlock: KUFVIS_clean_linker_0, # of connection points: 4
#     Node 1, Type 0, BuildingBlock: KUFVIS_clean_linker_0, # of connection points: 4
#     Node 2, Type 0, BuildingBlock: KUFVIS_clean_linker_0, # of connection points: 4
#     Node 3, Type 0, BuildingBlock: KUFVIS_clean_linker_0, # of connection points: 4
#     Node 4, Type 0, BuildingBlock: KUFVIS_clean_linker_0, # of connection points: 4
#     Node 5, Type 0, BuildingBlock: KUFVIS_clean_linker_0, # of connection points: 4
#     Node 6, Type 1, BuildingBlock: TAGTUT_clean_sbu_1, # of connection points: 8
#     Node 7, Type 1, BuildingBlock: TAGTUT_clean_sbu_1, # of connection points: 8
#     Node 8, Type 1, BuildingBlock: TAGTUT_clean_sbu_1, # of connection points: 8
#     Edge 9, Type (0, 1), BuildingBlock: UVAHIK_clean_linker_0, # of connection points: 2
#     Edge 10, Type (0, 1), BuildingBlock: UVAHIK_clean_linker_0, # of connection points: 2
#     Edge 11, Type (0, 1), BuildingBlock: UVAHIK_clean_linker_0, # of connection points: 2
#     Edge 12, Type (0, 1), BuildingBlock: UVAHIK_clean_linker_0, # of connection points: 2
#     Edge 13, Type (0, 1), BuildingBlock: UVAHIK_clean_linker_0, # of connection points: 2
#     Edge 14, Type (0, 1), BuildingBlock: UVAHIK_clean_linker_0, # of connection points: 2
#     Edge 15, Type (0, 1), BuildingBlock: UVAHIK_clean_linker_0, # of connection points: 2
#     Edge 16, Type (0, 1), BuildingBlock: UVAHIK_clean_linker_0, # of connection points: 2
#     Edge 17, Type (0, 1), BuildingBlock: UVAHIK_clean_linker_0, # of connection points: 2
#     Edge 18, Type (0, 1), BuildingBlock: UVAHIK_clean_linker_0, # of connection points: 2
#     Edge 19, Type (0, 1), BuildingBlock: UVAHIK_clean_linker_0, # of connection points: 2
#     Edge 20, Type (0, 1), BuildingBlock: UVAHIK_clean_linker_0, # of connection points: 2
#     Edge 21, Type (0, 1), BuildingBlock: UVAHIK_clean_linker_0, # of connection points: 2
#     Edge 22, Type (0, 1), BuildingBlock: UVAHIK_clean_linker_0, # of connection points: 2
#     Edge 23, Type (0, 1), BuildingBlock: UVAHIK_clean_linker_0, # of connection points: 2
#     Edge 24, Type (0, 1), BuildingBlock: UVAHIK_clean_linker_0, # of connection points: 2
#     Edge 25, Type (0, 1), BuildingBlock: UVAHIK_clean_linker_0, # of connection points: 2
#     Edge 26, Type (0, 1), BuildingBlock: UVAHIK_clean_linker_0, # of connection points: 2
#     Edge 27, Type (0, 1), BuildingBlock: UVAHIK_clean_linker_0, # of connection points: 2
#     Edge 28, Type (0, 1), BuildingBlock: UVAHIK_clean_linker_0, # of connection points: 2
#     Edge 29, Type (0, 1), BuildingBlock: UVAHIK_clean_linker_0, # of connection points: 2
#     Edge 30, Type (0, 1), BuildingBlock: UVAHIK_clean_linker_0, # of connection points: 2
#     Edge 31, Type (0, 1), BuildingBlock: UVAHIK_clean_linker_0, # of connection points: 2
#     Edge 32, Type (0, 1), BuildingBlock: UVAHIK_clean_linker_0, # of connection points: 2
# Relax obj value: 0.043
# Max RMSD: 0.134
# Mean RMSD: 0.100
data_MOF--net-csq--node1-TAGTUT_clean_sbu_1--node2-KUFVIS_clean_linker_0--edge1-UVAHIK_clean_linker_0
_symmetry_space_group_name_H-M    P1
_symmetry_Int_Tables_number       1
_symmetry_cell_setting            triclinic
loop_
_symmetry_equiv_pos_as_xyz
'x, y, z'
_cell_length_a     68.561604
_cell_length_b     68.266845
_cell_length_c     23.181396
_cell_angle_alpha  92.125952
_cell_angle_beta   91.943058
_cell_angle_gamma 119.91929
loop_
_atom_site_label
_atom_site_type_symbol
_atom_site_fract_x
_atom_site_fract_y
_atom_site_fract_z
_atom_type_partial_charge
H0 H 0.32877 0.50502 0.15649 0.0
H1 H 0.26816 0.49005 0.23656 0.0
H2 H 0.27377 0.49965 0.05207 0.0
H3 H 0.23862 0.48546 0.04526 0.0
H4 H 0.18392 0.4859 0.12629 0.0
H5 H 0.24082 0.49631 0.23204 0.0
C6 C 0.31174 0.50222 0.15282 0.0
C7 C 0.30211 0.50195 0.09852 0.0
C8 C 0.29963 0.49845 0.20244 0.0
C9 C 0.2772 0.49373 0.19758 0.0
C10 C 0.26707 0.49429 0.14368 0.0
C11 C 0.28007 0.49843 0.09423 0.0
C12 C 0.24353 0.49123 0.13934 0.0
C13 C 0.23171 0.48729 0.08483 0.0
C14 C 0.2108 0.48635 0.0799 0.0
C15 C 0.20037 0.48724 0.12992 0.0
C16 C 0.21098 0.4901 0.18457 0.0
C17 C 0.23273 0.49285 0.18922 0.0
H18 H 0.70721 0.18186 0.117 0.0
H19 H 0.76492 0.23742 0.20881 0.0
H20 H 0.76039 0.23112 0.02174 0.0
H21 H 0.79871 0.24657 0.03843 0.0
H22 H 0.84537 0.31394 0.10607 0.0
H23 H 0.78322 0.27546 0.1877 0.0
C24 C 0.72353 0.19714 0.11659 0.0
C25 C 0.73289 0.20484 0.06366 0.0
C26 C 0.73473 0.20904 0.16892 0.0
C27 C 0.75607 0.2286 0.16817 0.0
C28 C 0.76572 0.23687 0.11514 0.0
C29 C 0.75369 0.22491 0.06304 0.0
C30 C 0.78805 0.25808 0.11367 0.0
C31 C 0.80292 0.26037 0.07009 0.0
C32 C 0.82356 0.28049 0.06767 0.0
C33 C 0.82939 0.29837 0.10834 0.0
C34 C 0.81498 0.29669 0.15143 0.0
C35 C 0.79442 0.27647 0.15462 0.0
H36 H 0.50298 0.81767 0.05949 0.0
H37 H 0.51606 0.77152 0.14975 0.0
H38 H 0.53284 0.78416 0.97109 0.0
H39 H 0.52401 0.74774 0.96798 0.0
H40 H 0.55439 0.71492 0.05562 0.0
H41 H 0.54281 0.76254 0.15182 0.0
C42 C 0.50824 0.80508 0.059 0.0
C43 C 0.51671 0.80106 0.00884 0.0
C44 C 0.50869 0.79505 0.11009 0.0
C45 C 0.51643 0.77953 0.11009 0.0
C46 C 0.52474 0.77476 0.05969 0.0
C47 C 0.52539 0.7863 0.00951 0.0
C48 C 0.53308 0.75821 0.05945 0.0
C49 C 0.5318 0.74604 0.00745 0.0
C50 C 0.54019 0.73113 0.00614 0.0
C51 C 0.54906 0.72747 0.05683 0.0
C52 C 0.54942 0.7382 0.1096 0.0
C53 C 0.54178 0.75387 0.11084 0.0
H54 H 0.84333 0.53077 0.08539 0.0
H55 H 0.79004 0.53716 0.15777 0.0
H56 H 0.78328 0.51132 0.98007 0.0
H57 H 0.75962 0.52438 0.97 0.0
H58 H 0.6986 0.51047 0.04745 0.0
H59 H 0.75325 0.51512 0.15368 0.0
C60 C 0.8268 0.52917 0.08035 0.0
C61 C 0.81459 0.52118 0.02688 0.0
C62 C 0.81782 0.53453 0.12775 0.0
C63 C 0.79634 0.53222 0.12116 0.0
C64 C 0.78334 0.52388 0.06806 0.0
C65 C 0.79287 0.51846 0.02091 0.0
C66 C 0.7598 0.52033 0.06259 0.0
C67 C 0.75007 0.52078 0.00826 0.0
C68 C 0.72778 0.51638 0.0025 0.0
C69 C 0.71543 0.51277 0.05182 0.0
C70 C 0.72474 0.51294 0.10672 0.0
C71 C 0.74673 0.51625 0.11158 0.0
H72 H 0.32892 0.82262 0.10531 0.0
H73 H 0.27248 0.77675 0.19809 0.0
H74 H 0.26791 0.77332 0.01102 0.0
H75 H 0.24717 0.73498 0.02847 0.0
H76 H 0.18427 0.69914 0.10847 0.0
H77 H 0.23464 0.76417 0.18229 0.0
C78 C 0.31181 0.80851 0.1052 0.0
C79 C 0.29969 0.79852 0.05231 0.0
C80 C 0.30191 0.80107 0.15778 0.0
C81 C 0.27968 0.78297 0.15724 0.0
C82 C 0.26714 0.77245 0.10459 0.0
C83 C 0.27727 0.78075 0.05208 0.0
C84 C 0.24389 0.75242 0.10476 0.0
C85 C 0.2363 0.73442 0.06196 0.0
C86 C 0.21492 0.71508 0.06368 0.0
C87 C 0.20091 0.71396 0.10733 0.0
C88 C 0.20796 0.73145 0.15003 0.0
C89 C 0.22943 0.75066 0.14901 0.0
H90 H 0.47705 0.30461 0.15847 0.0
H91 H 0.47782 0.25307 0.2563 0.0
H92 H 0.49949 0.2622 0.08053 0.0
H93 H 0.48582 0.22485 0.08064 0.0
H94 H 0.50702 0.1864 0.17924 0.0
H95 H 0.50095 0.23933 0.26587 0.0
C96 C 0.47992 0.29038 0.16086 0.0
C97 C 0.488 0.28411 0.11351 0.0
C98 C 0.47664 0.27945 0.21225 0.0
C99 C 0.4808 0.26143 0.21613 0.0
C100 C 0.48869 0.25444 0.16845 0.0
C101 C 0.49245 0.26624 0.11712 0.0
C102 C 0.49346 0.23533 0.17234 0.0
C103 C 0.49168 0.22213 0.12189 0.0
C104 C 0.49728 0.20506 0.12421 0.0
C105 C 0.50373 0.20036 0.17723 0.0
C106 C 0.50448 0.21223 0.22826 0.0
C107 C 0.49963 0.22991 0.22598 0.0
C108 C 0.99089 0.43622 0.73442 0.0
C109 C 0.05734 0.48106 0.67397 0.0
C110 C 0.03924 0.54752 0.70597 0.0
Mg111 Mg 0.00936 0.45622 0.61651 0.0
O112 O 1.00382 0.47866 0.64853 0.0
Mg113 Mg 0.01873 0.49337 0.72609 0.0
Mg114 Mg 0.01297 0.50641 0.60581 0.0
O115 O 0.0222 0.5341 0.5628 0.0
Mg116 Mg 0.01706 0.55693 0.59369 0.0
Mg117 Mg 0.00756 0.5195 0.48496 0.0
C118 C 0.98625 0.46537 0.50556 0.0
C119 C 0.04825 0.50876 0.50981 0.0
O120 O 0.99982 0.45648 0.75799 0.0
O121 O 0.99224 0.4323 0.68057 0.0
O122 O 0.04982 0.49004 0.70968 0.0
O123 O 0.04509 0.46807 0.63064 0.0
O124 O 0.99235 0.45261 0.53093 0.0
O125 O 0.99093 0.48484 0.52792 0.0
C126 C 0.97706 0.50277 0.70136 0.0
O127 O 0.98319 0.50767 0.64949 0.0
O128 O 0.98784 0.49704 0.73672 0.0
O129 O 0.0274 0.55641 0.45285 0.0
O130 O 0.03508 0.58066 0.53019 0.0
O131 O 0.97693 0.52368 0.50002 0.0
C132 C 0.03666 0.57669 0.47654 0.0
O133 O 0.9817 0.54617 0.57786 0.0
O134 O 0.03326 0.56023 0.67989 0.0
C135 C 0.9695 0.53309 0.53463 0.0
O136 O 0.03484 0.52812 0.68372 0.0
O137 O 0.04261 0.50481 0.56232 0.0
O138 O 0.03764 0.51462 0.47435 0.0
C139 C 0.47447 0.01893 0.78678 0.0
C140 C 0.45092 0.95588 0.68733 0.0
C141 C 0.53688 0.98005 0.67055 0.0
Mg142 Mg 0.46825 0.00475 0.65556 0.0
O143 O 0.49851 0.01275 0.67264 0.0
Mg144 Mg 0.50444 0.99613 0.7338 0.0
Mg145 Mg 0.5139 0.007 0.609 0.0
O146 O 0.52862 0.00082 0.54476 0.0
Mg147 Mg 0.55808 0.00598 0.55654 0.0
Mg148 Mg 0.52211 0.01664 0.48235 0.0
C149 C 0.49127 0.0341 0.54697 0.0
C150 C 0.47427 0.97353 0.5128 0.0
O151 O 0.48845 0.01168 0.79416 0.0
O152 O 0.46489 0.01786 0.73739 0.0
O153 O 0.46969 0.96377 0.71688 0.0
O154 O 0.44683 0.96832 0.65499 0.0
O155 O 0.47446 0.02512 0.57953 0.0
O156 O 0.50806 0.03071 0.55304 0.0
C157 C 0.55191 0.04092 0.70764 0.0
O158 O 0.54695 0.0363 0.65306 0.0
O159 O 0.53864 0.02846 0.74514 0.0
O160 O 0.53476 0.99796 0.421 0.0
O161 O 0.55726 0.98964 0.47541 0.0
O162 O 0.55817 0.04798 0.49426 0.0
C163 C 0.54685 0.98848 0.4273 0.0
O164 O 0.58095 0.04175 0.55208 0.0
O165 O 0.55295 0.98753 0.63563 0.0
C166 C 0.57735 0.05481 0.52093 0.0
O167 O 0.52036 0.98385 0.66454 0.0
O168 O 0.48072 0.9776 0.56658 0.0
O169 O 0.4868 0.9859 0.47418 0.0
C170 C 0.54959 0.56971 0.44901 0.0
C171 C 0.57314 0.52306 0.49474 0.0
C172 C 0.48643 0.4628 0.51869 0.0
Mg173 Mg 0.55967 0.55327 0.564 0.0
O174 O 0.52876 0.53252 0.54936 0.0
Mg175 Mg 0.51957 0.51387 0.47459 0.0
Mg176 Mg 0.51456 0.50818 0.60405 0.0
O177 O 0.5007 0.48403 0.65956 0.0
Mg178 Mg 0.47001 0.46201 0.64776 0.0
Mg179 Mg 0.5101 0.50334 0.73375 0.0
C180 C 0.54188 0.55373 0.68986 0.0
C181 C 0.55571 0.50878 0.68003 0.0
O182 O 0.53507 0.54907 0.43177 0.0
O183 O 0.56072 0.57484 0.49807 0.0
O184 O 0.55353 0.51425 0.46893 0.0
O185 O 0.57902 0.53764 0.53745 0.0
O186 O 0.55752 0.56281 0.654 0.0
O187 O 0.52388 0.53459 0.67783 0.0
C188 C 0.47464 0.51014 0.52897 0.0
O189 O 0.48111 0.50719 0.57888 0.0
O190 O 0.48636 0.51331 0.48476 0.0
O191 O 0.4965 0.46893 0.77807 0.0
O192 O 0.4711 0.44144 0.7146 0.0
O193 O 0.47561 0.50157 0.74004 0.0
C194 C 0.48282 0.44788 0.763 0.0
O195 O 0.44961 0.4763 0.67543 0.0
O196 O 0.47161 0.45342 0.55645 0.0
C197 C 0.45563 0.49164 0.7162 0.0
O198 O 0.50471 0.48185 0.52975 0.0
O199 O 0.54823 0.50943 0.62904 0.0
O200 O 0.54417 0.5062 0.72428 0.0
C201 C 0.17935 0.47 0.24874 0.0
C202 C 0.19872 0.49006 0.23605 0.0
C203 C 0.16499 0.47034 0.28968 0.0
C204 C 0.15798 0.5062 0.40418 0.0
H205 H 0.09523 0.47068 0.34864 0.0
C206 C 0.08223 0.50344 0.524 0.0
C207 C 0.0668 0.5058 0.48738 0.0
C208 C 0.09935 0.50045 0.50076 0.0
C209 C 0.11266 0.48066 0.36497 0.0
H210 H 0.2188 0.52608 0.25733 0.0
H211 H 0.19348 0.52689 0.32848 0.0
H212 H 0.12374 0.46761 0.29643 0.0
H213 H 0.05759 0.50701 0.39747 0.0
H214 H 0.08701 0.50188 0.3578 0.0
H215 H 0.14658 0.51987 0.47166 0.0
C216 C 0.18957 0.51076 0.30777 0.0
C217 C 0.12907 0.47872 0.33532 0.0
C218 C 0.20409 0.51035 0.26703 0.0
C219 C 0.06904 0.50523 0.4273 0.0
C220 C 0.08588 0.50211 0.4043 0.0
C221 C 0.14143 0.50809 0.43413 0.0
C222 C 0.16943 0.49084 0.31825 0.0
C223 C 0.15202 0.4917 0.35383 0.0
C224 C 0.10116 0.49951 0.44047 0.0
C225 C 0.11863 0.4957 0.414 0.0
H226 H 0.17486 0.45416 0.22519 0.0
H227 H 0.14995 0.45459 0.29741 0.0
H228 H 0.17544 0.5163 0.42003 0.0
H229 H 0.08116 0.50403 0.57043 0.0
H230 H 0.1109 0.49851 0.52979 0.0
C231 C 0.70109 0.19612 0.2276 0.0
C232 C 0.72341 0.20089 0.22354 0.0
C233 C 0.689 0.18563 0.2752 0.0
C234 C 0.68557 0.14629 0.38211 0.0
H235 H 0.64 0.15806 0.44192 0.0
C236 C 0.61875 0.08374 0.5276 0.0
C237 C 0.59649 0.07739 0.50918 0.0
C238 C 0.63703 0.10297 0.50719 0.0
C239 C 0.65265 0.15454 0.42575 0.0
H240 H 0.75096 0.19932 0.26717 0.0
H241 H 0.72969 0.18074 0.351 0.0
H242 H 0.66765 0.18471 0.37924 0.0
H243 H 0.57606 0.08742 0.45855 0.0
H244 H 0.60774 0.12064 0.42293 0.0
H245 H 0.67002 0.11565 0.42643 0.0
C246 C 0.72156 0.18511 0.31704 0.0
C247 C 0.66852 0.16984 0.38988 0.0
C248 C 0.73379 0.19587 0.2694 0.0
C249 C 0.59295 0.09165 0.47337 0.0
C250 C 0.61119 0.11086 0.45314 0.0
C251 C 0.66968 0.13097 0.41793 0.0
C252 C 0.69887 0.17949 0.31992 0.0
C253 C 0.68472 0.16553 0.36612 0.0
C254 C 0.63347 0.11636 0.46822 0.0
C255 C 0.65258 0.13454 0.43872 0.0
H256 H 0.69273 0.19992 0.19291 0.0
H257 H 0.67151 0.18134 0.2755 0.0
H258 H 0.69766 0.14232 0.36416 0.0
H259 H 0.62213 0.07328 0.55557 0.0
H260 H 0.65397 0.10695 0.52049 0.0
C261 C 0.57441 0.72779 0.16482 0.0
C262 C 0.55524 0.73027 0.16267 0.0
C263 C 0.57607 0.71317 0.20259 0.0
C264 C 0.55292 0.67893 0.3281 0.0
H265 H 0.56357 0.63546 0.24267 0.0
C266 C 0.56508 0.61114 0.43834 0.0
C267 C 0.55233 0.58872 0.41431 0.0
C268 C 0.56616 0.62914 0.40924 0.0
C269 C 0.5605 0.64741 0.26699 0.0
H270 H 0.52396 0.72129 0.20234 0.0
H271 H 0.52716 0.6961 0.26977 0.0
H272 H 0.56556 0.66758 0.19441 0.0
H273 H 0.53127 0.56788 0.33964 0.0
H274 H 0.53363 0.59963 0.28798 0.0
H275 H 0.54785 0.65868 0.40071 0.0
C276 C 0.54076 0.7053 0.24173 0.0
C277 C 0.56189 0.66594 0.23964 0.0
C278 C 0.53901 0.71986 0.20353 0.0
C279 C 0.54125 0.58489 0.35938 0.0
C280 C 0.5426 0.60305 0.32982 0.0
C281 C 0.55184 0.66055 0.35571 0.0
C282 C 0.55871 0.70091 0.23936 0.0
C283 C 0.55812 0.68189 0.26988 0.0
C284 C 0.55477 0.62531 0.355 0.0
C285 C 0.55558 0.64458 0.32537 0.0
H286 H 0.58719 0.73569 0.13384 0.0
H287 H 0.59033 0.71047 0.20073 0.0
H288 H 0.54986 0.6909 0.35234 0.0
H289 H 0.57387 0.61486 0.48052 0.0
H290 H 0.57593 0.64613 0.42929 0.0
C291 C 0.8539 0.55602 0.18877 0.0
C292 C 0.83055 0.54083 0.18488 0.0
C293 C 0.86691 0.55802 0.2386 0.0
C294 C 0.86743 0.54399 0.3907 0.0
H295 H 0.91425 0.53177 0.34335 0.0
C296 C 0.93225 0.51286 0.47968 0.0
C297 C 0.94741 0.53088 0.51832 0.0
C298 C 0.91466 0.51371 0.45028 0.0
C299 C 0.90121 0.53514 0.35729 0.0
H300 H 0.80223 0.5174 0.23199 0.0
H301 H 0.82509 0.52097 0.31955 0.0
H302 H 0.89132 0.53714 0.27047 0.0
H303 H 0.95442 0.56264 0.56153 0.0
H304 H 0.92341 0.56408 0.50961 0.0
H305 H 0.87773 0.542 0.47813 0.0
C306 C 0.83326 0.53131 0.28396 0.0
C307 C 0.88826 0.53848 0.31561 0.0
C308 C 0.82019 0.52928 0.23387 0.0
C309 C 0.94304 0.54854 0.53187 0.0
C310 C 0.92532 0.54939 0.50219 0.0
C311 C 0.88077 0.541 0.43286 0.0
C312 C 0.85685 0.5449 0.28565 0.0
C313 C 0.87117 0.54284 0.33166 0.0
C314 C 0.9118 0.53256 0.45893 0.0
C315 C 0.89756 0.53622 0.41623 0.0
H316 H 0.86227 0.56543 0.15202 0.0
H317 H 0.88503 0.56892 0.23917 0.0
H318 H 0.8543 0.54728 0.40412 0.0
H319 H 0.93493 0.49884 0.46898 0.0
H320 H 0.90421 0.50034 0.41776 0.0
C321 C 0.3055 0.82071 0.2545 0.0
C322 C 0.31484 0.81285 0.21289 0.0
C323 C 0.31884 0.83469 0.30237 0.0
C324 C 0.35636 0.87863 0.36266 0.0
H325 H 0.40398 0.87288 0.44111 0.0
C326 C 0.44148 0.95426 0.44084 0.0
C327 C 0.45192 0.95407 0.49384 0.0
C328 C 0.4212 0.93547 0.41995 0.0
C329 C 0.39052 0.87456 0.42046 0.0
H330 H 0.3449 0.81209 0.19064 0.0
H331 H 0.36816 0.83642 0.27396 0.0
H332 H 0.37448 0.84084 0.381 0.0
H333 H 0.44901 0.93422 0.5673 0.0
H334 H 0.41349 0.90095 0.5299 0.0
H335 H 0.37296 0.91267 0.39989 0.0
C336 C 0.35059 0.83184 0.26986 0.0
C337 C 0.37376 0.8563 0.38568 0.0
C338 C 0.33734 0.81808 0.22183 0.0
C339 C 0.4413 0.93486 0.52639 0.0
C340 C 0.42107 0.91582 0.50493 0.0
C341 C 0.3732 0.89692 0.397 0.0
C342 C 0.34168 0.84082 0.30982 0.0
C343 C 0.35691 0.8584 0.35495 0.0
C344 C 0.41096 0.91591 0.45118 0.0
C345 C 0.39085 0.89531 0.4247 0.0
H346 H 0.28822 0.81699 0.24854 0.0
H347 H 0.31149 0.84124 0.33266 0.0
H348 H 0.34371 0.88086 0.33931 0.0
H349 H 0.44916 0.96886 0.41493 0.0
H350 H 0.41398 0.93596 0.37808 0.0
C351 C 0.49009 0.30455 0.30097 0.0
C352 C 0.47193 0.28969 0.26282 0.0
C353 C 0.48923 0.32179 0.33293 0.0
C354 C 0.46101 0.3554 0.31642 0.0
H355 H 0.49739 0.38747 0.45637 0.0
C356 C 0.46308 0.43088 0.4467 0.0
C357 C 0.4845 0.44831 0.46775 0.0
C358 C 0.46085 0.41215 0.41435 0.0
C359 C 0.48736 0.37874 0.41687 0.0
H360 H 0.43777 0.27924 0.23251 0.0
H361 H 0.43554 0.30841 0.29133 0.0
H362 H 0.49198 0.35033 0.42727 0.0
H363 H 0.52047 0.4611 0.46625 0.0
H364 H 0.51648 0.42813 0.41027 0.0
H365 H 0.45589 0.38372 0.30756 0.0
C366 C 0.45084 0.30747 0.29495 0.0
C367 C 0.48418 0.35744 0.40029 0.0
C368 C 0.45188 0.29047 0.26223 0.0
C369 C 0.50376 0.44794 0.45044 0.0
C370 C 0.50149 0.42899 0.41903 0.0
C371 C 0.46387 0.37653 0.33368 0.0
C372 C 0.47003 0.32423 0.32766 0.0
C373 C 0.47122 0.3456 0.3494 0.0
C374 C 0.47998 0.4105 0.40339 0.0
C375 C 0.47736 0.3885 0.38351 0.0
H376 H 0.50585 0.30444 0.30113 0.0
H377 H 0.50439 0.33435 0.35739 0.0
H378 H 0.45134 0.3471 0.27626 0.0
H379 H 0.448 0.43083 0.45943 0.0
H380 H 0.4441 0.39811 0.40247 0.0
C381 C 0.49915 0.81551 0.93923 0.0
C382 C 0.51823 0.81451 0.95877 0.0
C383 C 0.50133 0.83255 0.90405 0.0
C384 C 0.53948 0.87792 0.8131 0.0
H385 H 0.50813 0.90813 0.87056 0.0
C386 C 0.55528 0.96217 0.7258 0.0
C387 C 0.5362 0.96427 0.71371 0.0
C388 C 0.5537 0.94454 0.75783 0.0
C389 C 0.51681 0.89978 0.85348 0.0
H390 H 0.5543 0.82945 0.95361 0.0
H391 H 0.55817 0.85926 0.89127 0.0
H392 H 0.50352 0.87452 0.91541 0.0
H393 H 0.5007 0.95005 0.72814 0.0
H394 H 0.49785 0.91922 0.78345 0.0
H395 H 0.55261 0.90307 0.75077 0.0
C396 C 0.54151 0.84684 0.90319 0.0
C397 C 0.51413 0.88047 0.87913 0.0
C398 C 0.53931 0.82972 0.93854 0.0
C399 C 0.51577 0.94906 0.73706 0.0
C400 C 0.51415 0.93132 0.76878 0.0
C401 C 0.54206 0.89719 0.78715 0.0
C402 C 0.52266 0.84898 0.88769 0.0
C403 C 0.52536 0.86925 0.85912 0.0
C404 C 0.53296 0.92849 0.77826 0.0
C405 C 0.53073 0.90837 0.807 0.0
H406 H 0.4827 0.80391 0.95417 0.0
H407 H 0.48643 0.83344 0.89169 0.0
H408 H 0.54825 0.86958 0.79655 0.0
H409 H 0.57134 0.9737 0.70885 0.0
H410 H 0.56867 0.94324 0.76556 0.0
C411 C 0.72714 0.53362 0.90886 0.0
C412 C 0.71697 0.51559 0.94524 0.0
C413 C 0.71522 0.53412 0.85911 0.0
C414 C 0.67823 0.53903 0.79637 0.0
H415 H 0.63211 0.48492 0.70962 0.0
C416 C 0.59038 0.52286 0.74384 0.0
C417 C 0.57885 0.51277 0.69021 0.0
C418 C 0.61176 0.52602 0.75655 0.0
C419 C 0.64523 0.50032 0.73226 0.0
H420 H 0.68722 0.4832 0.95609 0.0
H421 H 0.66644 0.48407 0.87002 0.0
H422 H 0.66256 0.48377 0.76469 0.0
H423 H 0.581 0.49874 0.60684 0.0
H424 H 0.61859 0.50358 0.63022 0.0
H425 H 0.66015 0.55517 0.76676 0.0
C426 C 0.68356 0.49781 0.87928 0.0
C427 C 0.66254 0.49962 0.76428 0.0
C428 C 0.69535 0.49741 0.92903 0.0
C429 C 0.5895 0.50645 0.64864 0.0
C430 C 0.61092 0.50922 0.66195 0.0
C431 C 0.66092 0.53969 0.76459 0.0
C432 C 0.69305 0.51647 0.84463 0.0
C433 C 0.67857 0.51866 0.79899 0.0
C434 C 0.62216 0.51895 0.71629 0.0
C435 C 0.64363 0.52004 0.73464 0.0
H436 H 0.7438 0.54784 0.92045 0.0
H437 H 0.72304 0.54867 0.83311 0.0
H438 H 0.69023 0.554 0.82265 0.0
H439 H 0.58278 0.5282 0.77653 0.0
H440 H 0.61982 0.53325 0.79905 0.0
C441 C 0.19583 0.67363 0.03853 0.0
C442 C 0.20623 0.69579 0.02006 0.0
C443 C 0.18151 0.65528 0.00049 0.0
C444 C 0.15157 0.61744 0.91168 0.0
H445 H 0.11316 0.63316 0.82212 0.0
C446 C 0.07349 0.55339 0.76271 0.0
C447 C 0.05578 0.55804 0.75587 0.0
C448 C 0.09292 0.56807 0.79728 0.0
C449 C 0.12355 0.6284 0.84741 0.0
H450 H 0.2121 0.716 0.94603 0.0
H451 H 0.18763 0.68378 0.8785 0.0
H452 H 0.1477 0.66292 0.87058 0.0
H453 H 0.04329 0.58005 0.7849 0.0
H454 H 0.07663 0.60502 0.8473 0.0
H455 H 0.1266 0.58273 0.89038 0.0
C456 C 0.18993 0.68064 0.92297 0.0
C457 C 0.14371 0.64556 0.8742 0.0
C458 C 0.20419 0.69907 0.96131 0.0
C459 C 0.0568 0.5762 0.78893 0.0
C460 C 0.07604 0.59067 0.82403 0.0
C461 C 0.13124 0.60019 0.88504 0.0
C462 C 0.17741 0.65871 0.94297 0.0
C463 C 0.15785 0.64035 0.90751 0.0
C464 C 0.09482 0.58751 0.82606 0.0
C465 C 0.11676 0.6055 0.85359 0.0
H466 H 0.19735 0.67068 0.08365 0.0
H467 H 0.17223 0.63875 0.01769 0.0
H468 H 0.16216 0.6128 0.93651 0.0
H469 H 0.07323 0.53961 0.73735 0.0
H470 H 0.10701 0.56506 0.79801 0.0
C471 C 0.47398 0.17715 0.04304 0.0
C472 C 0.49503 0.19056 0.07286 0.0
C473 C 0.47034 0.15895 0.00561 0.0
C474 C 0.49942 0.13154 0.93451 0.0
H475 H 0.44486 0.07586 0.96337 0.0
C476 C 0.49062 0.04596 0.87327 0.0
C477 C 0.47223 0.03266 0.83376 0.0
C478 C 0.49151 0.06406 0.90566 0.0
C479 C 0.46012 0.09132 0.95497 0.0
H480 H 0.52927 0.19708 0.08358 0.0
H481 H 0.52304 0.16541 0.01903 0.0
H482 H 0.45048 0.11205 0.00347 0.0
H483 H 0.43924 0.02605 0.80204 0.0
H484 H 0.44063 0.0574 0.85978 0.0
H485 H 0.50933 0.11068 0.88762 0.0
C486 C 0.50929 0.16876 0.02376 0.0
C487 C 0.46324 0.11205 0.9772 0.0
C488 C 0.51289 0.18688 0.06091 0.0
C489 C 0.45369 0.03617 0.83194 0.0
C490 C 0.45446 0.05408 0.86491 0.0
C491 C 0.49642 0.11083 0.91302 0.0
C492 C 0.48772 0.154 0.99761 0.0
C493 C 0.48308 0.13238 0.96781 0.0
C494 C 0.47388 0.06884 0.89965 0.0
C495 C 0.4769 0.09054 0.92371 0.0
H496 H 0.45994 0.17967 0.05195 0.0
H497 H 0.45366 0.14812 0.98515 0.0
H498 H 0.5147 0.14689 0.92563 0.0
H499 H 0.50517 0.04368 0.87549 0.0
H500 H 0.50652 0.07508 0.93296 0.0
C501 C 0.33797 0.52279 0.04796 0.0
C502 C 0.31548 0.50512 0.04686 0.0
C503 C 0.35199 0.52368 0.00455 0.0
C504 C 0.35378 0.49987 0.85869 0.0
H505 H 0.41289 0.51348 0.91939 0.0
C506 C 0.41546 0.4818 0.7297 0.0
C507 C 0.43874 0.49667 0.74091 0.0
C508 C 0.39972 0.48466 0.76065 0.0
C509 C 0.39663 0.51002 0.90128 0.0
H510 H 0.28967 0.47521 -0.00229 0.0
H511 H 0.31427 0.47658 0.92174 0.0
H512 H 0.38673 0.51525 0.98412 0.0
H513 H 0.46357 0.5273 0.79006 0.0
H514 H 0.43628 0.53254 0.84264 0.0
H515 H 0.36379 0.49427 0.7757 0.0
C516 C 0.32103 0.48989 0.95599 0.0
C517 C 0.38155 0.51103 0.93859 0.0
C518 C 0.30691 0.48909 -0.00055 0.0
C519 C 0.44581 0.51529 0.78088 0.0
C520 C 0.43012 0.51822 0.81141 0.0
C521 C 0.36896 0.49886 0.82113 0.0
C522 C 0.34396 0.50681 0.95905 0.0
C523 C 0.35994 0.50605 0.91794 0.0
C524 C 0.40691 0.50253 0.80324 0.0
C525 C 0.39064 0.504 0.84199 0.0
H526 H 0.34496 0.53554 0.0836 0.0
H527 H 0.36937 0.5373 0.00758 0.0
H528 H 0.33731 0.49602 0.84122 0.0
H529 H 0.40941 0.46729 0.69914 0.0
H530 H 0.382 0.47222 0.7532 0.0
C531 C 0.83497 0.29063 0.96776 0.0
C532 C 0.83917 0.28432 0.02159 0.0
C533 C 0.85261 0.30217 0.93147 0.0
C534 C 0.89281 0.32458 0.8565 0.0
H535 H 0.94556 0.37167 0.94521 0.0
C536 C 0.96828 0.39434 0.74525 0.0
C537 C 0.97705 0.41661 0.76916 0.0
C538 C 0.95328 0.37581 0.77515 0.0
C539 C 0.93097 0.35866 0.91974 0.0
H540 H 0.86436 0.28333 0.07809 0.0
H541 H 0.89503 0.30259 0.01382 0.0
H542 H 0.91526 0.34185 0.99493 0.0
H543 H 0.97742 0.4367 0.84436 0.0
H544 H 0.95111 0.40442 0.8962 0.0
H545 H 0.90808 0.34215 0.78155 0.0
C546 C 0.87833 0.29918 -5e-05 0.0
C547 C 0.91369 0.34131 0.94818 0.0
C548 C 0.86074 0.28783 0.03635 0.0
C549 C 0.97108 0.41982 0.82468 0.0
C550 C 0.95603 0.40126 0.85453 0.0
C551 C 0.9101 0.34198 0.82802 0.0
C552 C 0.87474 0.30756 0.94853 0.0
C553 C 0.89421 0.32423 0.91706 0.0
C554 C 0.94664 0.37904 0.8297 0.0
C555 C 0.92921 0.35947 0.85943 0.0
H556 H 0.81855 0.28851 0.95618 0.0
H557 H 0.8492 0.30846 0.89244 0.0
H558 H 0.87814 0.31163 0.83113 0.0
H559 H 0.97261 0.39117 0.70278 0.0
H560 H 0.9467 0.35893 0.75519 0.0
C561 C 0.83408 0.50119 0.98853 0.0
C562 C 0.8248 0.51513 0.97869 0.0
C563 C 0.84666 0.49792 0.94706 0.0
C564 C 0.88209 0.52569 0.82663 0.0
H565 H 0.88206 0.46896 0.80976 0.0
C566 C 0.94633 0.51311 0.69146 0.0
C567 C 0.95685 0.50309 0.722 0.0
C568 C 0.92767 0.51363 0.71319 0.0
C569 C 0.88227 0.48492 0.81387 0.0
H570 H 0.82074 0.53596 0.91672 0.0
H571 H 0.84277 0.53015 0.84343 0.0
H572 H 0.8531 0.47088 0.86365 0.0
H573 H 0.95544 0.48528 0.79891 0.0
H574 H 0.92316 0.48598 0.83586 0.0
H575 H 0.91168 0.53977 0.77767 0.0
C576 C 0.8404 0.52187 0.88364 0.0
C577 C 0.86568 0.48605 0.84488 0.0
C578 C 0.8276 0.52502 0.92525 0.0
C579 C 0.94796 0.49326 0.77408 0.0
C580 C 0.92926 0.49349 0.79522 0.0
C581 C 0.89868 0.52453 0.79523 0.0
C582 C 0.85039 0.50854 0.89446 0.0
C583 C 0.86578 0.50661 0.85338 0.0
C584 C 0.91888 0.50371 0.7653 0.0
C585 C 0.89938 0.50429 0.79014 0.0
H586 H 0.83218 0.49332 0.02929 0.0
H587 H 0.85427 0.48779 0.95744 0.0
H588 H 0.88279 0.54185 0.83252 0.0
H589 H 0.95261 0.52075 0.65123 0.0
H590 H 0.91999 0.52159 0.68904 0.0
C591 C 0.33155 0.80789 0.98924 0.0
C592 C 0.31102 0.80709 -0.00198 0.0
C593 C 0.34444 0.8193 0.94354 0.0
C594 C 0.34515 0.84784 0.8085 0.0
H595 H 0.40848 0.88502 0.857 0.0
C596 C 0.40996 0.92733 0.69436 0.0
C597 C 0.43267 0.93282 0.69854 0.0
C598 C 0.39345 0.90812 0.7197 0.0
C599 C 0.39096 0.87445 0.84202 0.0
H600 H 0.28728 0.8166 0.96455 0.0
H601 H 0.31011 0.83714 0.88497 0.0
H602 H 0.38272 0.85887 0.92239 0.0
H603 H 0.4554 0.92109 0.72634 0.0
H604 H 0.42663 0.88738 0.76868 0.0
H605 H 0.35361 0.86426 0.72839 0.0
C606 C 0.31609 0.82861 0.91281 0.0
C607 C 0.37609 0.85937 0.87975 0.0
C608 C 0.30301 0.81689 0.95836 0.0
C609 C 0.43811 0.91753 0.72321 0.0
C610 C 0.42163 0.89828 0.74791 0.0
C611 C 0.36012 0.86308 0.77054 0.0
C612 C 0.33734 0.83057 0.906 0.0
C613 C 0.35298 0.84585 0.86371 0.0
C614 C 0.39933 0.89397 0.7492 0.0
C615 C 0.38324 0.87659 0.78694 0.0
H616 H 0.33798 0.80029 0.01902 0.0
H617 H 0.36039 0.8199 0.93879 0.0
H618 H 0.32748 0.83761 0.79457 0.0
H619 H 0.40523 0.93878 0.67566 0.0
H620 H 0.37645 0.90532 0.71975 0.0
C621 C 0.50926 0.32048 0.06719 0.0
C622 C 0.49251 0.29755 0.0622 0.0
C623 C 0.50961 0.33532 0.02689 0.0
C624 C 0.4696 0.34151 0.93134 0.0
H625 H 0.52333 0.39509 0.88814 0.0
C626 C 0.46679 0.40716 0.78516 0.0
C627 C 0.48224 0.4302 0.79955 0.0
C628 C 0.46801 0.39027 0.81455 0.0
C629 C 0.50817 0.3803 0.90033 0.0
H630 H 0.46376 0.27173 0.00999 0.0
H631 H 0.46459 0.2976 0.93818 0.0
H632 H 0.52687 0.36599 0.93771 0.0
H633 H 0.51062 0.45344 0.85779 0.0
H634 H 0.51255 0.42391 0.90952 0.0
H635 H 0.45093 0.35594 0.89457 0.0
C636 C 0.47733 0.30419 0.97362 0.0
C637 C 0.51019 0.36358 0.92848 0.0
C638 C 0.47703 0.28931 0.01406 0.0
C639 C 0.49844 0.4359 0.84552 0.0
C640 C 0.49971 0.41897 0.87478 0.0
C641 C 0.46758 0.3582 0.90306 0.0
C642 C 0.49309 0.32754 0.98089 0.0
C643 C 0.49095 0.34409 0.945 0.0
C644 C 0.48475 0.39595 0.85898 0.0
C645 C 0.48685 0.37794 0.88788 0.0
H646 H 0.5211 0.32722 0.10465 0.0
H647 H 0.52185 0.35317 0.03429 0.0
H648 H 0.45443 0.32696 0.94441 0.0
H649 H 0.45408 0.40209 0.75002 0.0
H650 H 0.4563 0.37272 0.8011 0.0
C651 C 0.19421 0.50245 0.0124 0.0
C652 C 0.20035 0.48604 0.02257 0.0
C653 C 0.18381 0.50224 0.95947 0.0
C654 C 0.1469 0.46426 0.84133 0.0
H655 H 0.16149 0.52036 0.77144 0.0
C656 C 0.08521 0.46735 0.67226 0.0
C657 C 0.08 0.48423 0.68792 0.0
C658 C 0.10449 0.46804 0.69724 0.0
C659 C 0.15724 0.50451 0.79016 0.0
H660 H 0.20078 0.45673 0.98521 0.0
H661 H 0.18193 0.456 0.89221 0.0
H662 H 0.18677 0.52026 0.84797 0.0
H663 H 0.09196 0.51613 0.73739 0.0
H664 H 0.12527 0.5174 0.78042 0.0
H665 H 0.11667 0.44875 0.78622 0.0
C666 C 0.1854 0.46912 0.92535 0.0
C667 C 0.17173 0.50447 0.83394 0.0
C668 C 0.19619 0.46956 0.97831 0.0
C669 C 0.0954 0.50276 0.7248 0.0
C670 C 0.11465 0.50356 0.74923 0.0
C671 C 0.1323 0.46432 0.79773 0.0
C672 C 0.17908 0.48547 0.91552 0.0
C673 C 0.16626 0.48452 0.86153 0.0
C674 C 0.119 0.48578 0.73762 0.0
C675 C 0.13685 0.48465 0.77331 0.0
H676 H 0.1974 0.51545 0.04566 0.0
H677 H 0.17886 0.51486 0.95356 0.0
H678 H 0.14221 0.44865 0.86197 0.0
H679 H 0.07366 0.45286 0.64388 0.0
H680 H 0.10752 0.45423 0.68684 0.0
C681 C 0.7146 0.2022 0.96592 0.0
C682 C 0.72036 0.19186 0.00936 0.0
C683 C 0.70002 0.18911 0.91864 0.0
C684 C 0.65426 0.15369 0.86114 0.0
H685 H 0.65454 0.10229 0.78475 0.0
C686 C 0.57427 0.07166 0.78376 0.0
C687 C 0.57308 0.06148 0.72896 0.0
C688 C 0.5942 0.09062 0.80575 0.0
C689 C 0.65442 0.11679 0.80493 0.0
H690 H 0.71673 0.16019 0.03596 0.0
H691 H 0.69151 0.13737 0.95325 0.0
H692 H 0.68775 0.13034 0.84443 0.0
H693 H 0.59185 0.06334 0.65408 0.0
H694 H 0.62717 0.09636 0.69352 0.0
H695 H 0.62051 0.13949 0.82434 0.0
C696 C 0.69814 0.1555 0.95554 0.0
C697 C 0.67333 0.13274 0.83932 0.0
C698 C 0.71242 0.16851 0.00308 0.0
C699 C 0.59226 0.07087 0.69627 0.0
C700 C 0.61244 0.08968 0.71887 0.0
C701 C 0.63529 0.13762 0.82742 0.0
C702 C 0.69129 0.16555 0.91364 0.0
C703 C 0.67318 0.151 0.86906 0.0
C704 C 0.61355 0.09968 0.77389 0.0
C705 C 0.63495 0.11868 0.80039 0.0
H706 H 0.72047 0.22018 0.96999 0.0
H707 H 0.69505 0.19728 0.88685 0.0
H708 H 0.65357 0.16746 0.88387 0.0
H709 H 0.55975 0.06494 0.80989 0.0
H710 H 0.59466 0.09782 0.84857 0.0
C711 C 0.55763 0.71925 0.93131 0.0
C712 C 0.53804 0.7172 0.95394 0.0
C713 C 0.55653 0.70158 0.89665 0.0
C714 C 0.52333 0.64031 0.88623 0.0
H715 H 0.56128 0.64536 0.76096 0.0
C716 C 0.5623 0.58879 0.75474 0.0
C717 C 0.54238 0.56834 0.73907 0.0
C718 C 0.56146 0.60612 0.78622 0.0
C719 C 0.55084 0.64376 0.79655 0.0
H720 H 0.50182 0.69622 0.95512 0.0
H721 H 0.49975 0.66522 0.89346 0.0
H722 H 0.5586 0.67819 0.79389 0.0
H723 H 0.50641 0.54895 0.75036 0.0
H724 H 0.50498 0.57922 0.80505 0.0
H725 H 0.51579 0.60592 0.88934 0.0
C726 C 0.51595 0.6804 0.90284 0.0
C727 C 0.54914 0.66249 0.81492 0.0
C728 C 0.51706 0.6982 0.93727 0.0
C729 C 0.52206 0.56455 0.7615 0.0
C730 C 0.52121 0.58196 0.79274 0.0
C731 C 0.52505 0.62154 0.86788 0.0
C732 C 0.53582 0.68151 0.88464 0.0
C733 C 0.53554 0.66102 0.86029 0.0
C734 C 0.54071 0.60331 0.80246 0.0
C735 C 0.53905 0.62317 0.82333 0.0
H736 H 0.57398 0.73368 0.94459 0.0
H737 H 0.57213 0.70289 0.88354 0.0
H738 H 0.51305 0.6388 0.92212 0.0
H739 H 0.57828 0.59206 0.73893 0.0
H740 H 0.57688 0.62219 0.79485 0.0
C741 C 0.48944 0.19057 0.31523 0.0
C742 C 0.50807 0.20372 0.28296 0.0
C743 C 0.48982 0.17494 0.35204 0.0
C744 C 0.51682 0.14011 0.35879 0.0
H745 H 0.4837 0.11872 0.49649 0.0
C746 C 0.5133 0.06647 0.48446 0.0
C747 C 0.49283 0.05169 0.50847 0.0
C748 C 0.51605 0.0857 0.45782 0.0
C749 C 0.49283 0.12436 0.45769 0.0
H750 H 0.54237 0.21256 0.26763 0.0
H751 H 0.54347 0.18604 0.33372 0.0
H752 H 0.48846 0.15332 0.45652 0.0
H753 H 0.45872 0.04482 0.51967 0.0
H754 H 0.4634 0.078 0.47238 0.0
H755 H 0.52095 0.11103 0.35946 0.0
C756 C 0.52833 0.18726 0.32961 0.0
C757 C 0.49565 0.14427 0.43497 0.0
C758 C 0.52788 0.20274 0.29261 0.0
C759 C 0.47479 0.05589 0.50212 0.0
C760 C 0.47753 0.07508 0.47553 0.0
C761 C 0.51403 0.12025 0.38153 0.0
C762 C 0.50888 0.17227 0.3572 0.0
C763 C 0.50753 0.15231 0.38495 0.0
C764 C 0.49838 0.09056 0.45451 0.0
C765 C 0.5018 0.11198 0.4309 0.0
H766 H 0.47384 0.19072 0.30757 0.0
H767 H 0.47451 0.16367 0.37246 0.0
H768 H 0.52564 0.14547 0.31944 0.0
H769 H 0.52761 0.06387 0.48874 0.0
H770 H 0.53235 0.09727 0.44215 0.0
C771 C 0.30271 0.48226 0.29599 0.0
C772 C 0.31122 0.50025 0.25921 0.0
C773 C 0.31577 0.48301 0.34492 0.0
C774 C 0.36837 0.52187 0.43618 0.0
H775 H 0.37515 0.46892 0.44405 0.0
C776 C 0.45201 0.5255 0.48467 0.0
C777 C 0.45319 0.51009 0.52101 0.0
C778 C 0.43144 0.52427 0.47122 0.0
C779 C 0.37311 0.48366 0.4435 0.0
H780 H 0.33915 0.53364 0.24641 0.0
H781 H 0.36186 0.53498 0.33064 0.0
H782 H 0.34363 0.46658 0.38586 0.0
H783 H 0.43395 0.48153 0.5726 0.0
H784 H 0.39751 0.47889 0.54745 0.0
H785 H 0.39891 0.53936 0.49015 0.0
C786 C 0.34519 0.52032 0.32267 0.0
C787 C 0.35502 0.48234 0.4102 0.0
C788 C 0.33228 0.5195 0.27396 0.0
C789 C 0.43347 0.49376 0.54505 0.0
C790 C 0.41268 0.49217 0.53044 0.0
C791 C 0.38655 0.52324 0.46886 0.0
C792 C 0.3374 0.50188 0.35804 0.0
C793 C 0.35303 0.50172 0.40404 0.0
C794 C 0.4115 0.5073 0.49284 0.0
C795 C 0.3896 0.5044 0.47085 0.0
H796 H 0.28652 0.46722 0.28539 0.0
H797 H 0.30921 0.4686 0.37151 0.0
H798 H 0.36704 0.53697 0.43355 0.0
H799 H 0.46698 0.53825 0.46563 0.0
H800 H 0.43099 0.53595 0.44155 0.0
C801 C 0.82948 0.3378 0.17059 0.0
C802 C 0.82247 0.31652 0.19253 0.0
C803 C 0.84372 0.35759 0.20428 0.0
C804 C 0.87047 0.38294 0.34831 0.0
H805 H 0.92544 0.41423 0.26675 0.0
C806 C 0.95209 0.4603 0.45018 0.0
C807 C 0.96953 0.45517 0.45594 0.0
C808 C 0.93303 0.44674 0.41332 0.0
C809 C 0.91011 0.40585 0.28967 0.0
H810 H 0.82275 0.29912 0.26839 0.0
H811 H 0.84743 0.33394 0.32819 0.0
H812 H 0.89119 0.38378 0.2161 0.0
H813 H 0.98155 0.43305 0.42447 0.0
H814 H 0.94863 0.40996 0.35802 0.0
H815 H 0.88971 0.40485 0.42229 0.0
C816 C 0.84197 0.33525 0.28481 0.0
C817 C 0.89051 0.38854 0.26078 0.0
C818 C 0.82779 0.31535 0.25081 0.0
C819 C 0.96839 0.43741 0.42072 0.0
C820 C 0.94958 0.4242 0.38286 0.0
C821 C 0.89001 0.40063 0.37694 0.0
C822 C 0.85103 0.35644 0.26065 0.0
C823 C 0.87064 0.37662 0.29011 0.0
C824 C 0.93139 0.42824 0.38055 0.0
C825 C 0.91009 0.41186 0.34812 0.0
H826 H 0.82553 0.33906 0.1257 0.0
H827 H 0.85026 0.37374 0.18496 0.0
H828 H 0.85539 0.37395 0.37182 0.0
H829 H 0.95237 0.47371 0.47732 0.0
H830 H 0.91922 0.4502 0.41195 0.0
C831 C 0.52331 0.81601 0.20546 0.0
C832 C 0.50513 0.80458 0.16426 0.0
C833 C 0.5246 0.83324 0.24266 0.0
C834 C 0.50779 0.87552 0.22988 0.0
H835 H 0.53866 0.89803 0.38124 0.0
C836 C 0.52509 0.95979 0.34621 0.0
C837 C 0.54487 0.97157 0.38244 0.0
C838 C 0.51958 0.93909 0.31787 0.0
C839 C 0.53027 0.89207 0.33858 0.0
H840 H 0.47247 0.79947 0.13541 0.0
H841 H 0.47444 0.82922 0.20138 0.0
H842 H 0.52696 0.85937 0.34617 0.0
H843 H 0.57565 0.97237 0.41177 0.0
H844 H 0.56637 0.93667 0.3608 0.0
H845 H 0.51153 0.90832 0.22162 0.0
C846 C 0.488 0.82542 0.20381 0.0
C847 C 0.52338 0.86987 0.31884 0.0
C848 C 0.48673 0.80823 0.16662 0.0
C849 C 0.56016 0.96353 0.38469 0.0
C850 C 0.55471 0.94294 0.35614 0.0
C851 C 0.51472 0.89773 0.24955 0.0
C852 C 0.50766 0.83911 0.23918 0.0
C853 C 0.51228 0.86143 0.26403 0.0
C854 C 0.53385 0.92996 0.32492 0.0
C855 C 0.52631 0.90635 0.30377 0.0
H856 H 0.53775 0.81359 0.20427 0.0
H857 H 0.53994 0.84342 0.2696 0.0
H858 H 0.49973 0.86971 0.18683 0.0
H859 H 0.5129 0.96546 0.3438 0.0
H860 H 0.50341 0.92953 0.29389 0.0
C861 C 0.68822 0.49459 0.1564 0.0
C862 C 0.71147 0.51032 0.15857 0.0
C863 C 0.67509 0.49396 0.20195 0.0
C864 C 0.67416 0.53053 0.32224 0.0
H865 H 0.62205 0.47478 0.36225 0.0
C866 C 0.61301 0.53079 0.48825 0.0
C867 C 0.59 0.51789 0.4702 0.0
C868 C 0.62919 0.52819 0.45878 0.0
C869 C 0.6365 0.49052 0.35151 0.0
H870 H 0.73925 0.53715 0.21174 0.0
H871 H 0.71638 0.5358 0.29189 0.0
H872 H 0.64808 0.47332 0.29541 0.0
H873 H 0.56596 0.49108 0.4091 0.0
H874 H 0.59402 0.4866 0.3581 0.0
H875 H 0.66232 0.54774 0.37743 0.0
C876 C 0.70824 0.52415 0.25439 0.0
C877 C 0.65144 0.48969 0.31306 0.0
C878 C 0.72142 0.52475 0.20873 0.0
C879 C 0.58351 0.50142 0.42414 0.0
C880 C 0.59964 0.49875 0.39496 0.0
C881 C 0.65924 0.53135 0.3608 0.0
C882 C 0.6848 0.50902 0.25115 0.0
C883 C 0.67024 0.50971 0.29694 0.0
C884 C 0.62276 0.51248 0.41088 0.0
C885 C 0.63996 0.51138 0.37508 0.0
H886 H 0.68003 0.48303 0.11874 0.0
H887 H 0.65711 0.4822 0.19744 0.0
H888 H 0.68825 0.54632 0.31038 0.0
H889 H 0.61865 0.54354 0.52372 0.0
H890 H 0.64681 0.53879 0.47283 0.0
C891 C 0.17142 0.72551 0.18279 0.0
C892 C 0.19265 0.72798 0.1967 0.0
C893 C 0.15369 0.71421 0.21881 0.0
C894 C 0.13809 0.68727 0.35995 0.0
H895 H 0.08497 0.64197 0.26874 0.0
C896 C 0.05731 0.59301 0.38713 0.0
C897 C 0.05119 0.59627 0.44241 0.0
C898 C 0.07304 0.61148 0.35815 0.0
C899 C 0.09966 0.65447 0.29488 0.0
H900 H 0.21256 0.72213 0.26061 0.0
H901 H 0.18166 0.70234 0.32383 0.0
H902 H 0.11604 0.67174 0.22081 0.0
H903 H 0.05609 0.62176 0.50922 0.0
H904 H 0.08319 0.65382 0.45841 0.0
H905 H 0.12206 0.66927 0.43377 0.0
C906 C 0.17865 0.70934 0.28563 0.0
C907 C 0.11738 0.6718 0.2675 0.0
C908 C 0.19644 0.7208 0.24968 0.0
C909 C 0.06051 0.61853 0.46692 0.0
C910 C 0.07619 0.63696 0.43795 0.0
C911 C 0.12033 0.66992 0.38738 0.0
C912 C 0.15679 0.7049 0.26907 0.0
C913 C 0.13698 0.68824 0.29955 0.0
C914 C 0.08297 0.63365 0.3837 0.0
C915 C 0.10105 0.65309 0.35504 0.0
H916 H 0.1681 0.7307 0.14174 0.0
H917 H 0.13721 0.71153 0.20543 0.0
H918 H 0.15286 0.6997 0.38598 0.0
H919 H 0.05055 0.57613 0.367 0.0
H920 H 0.07802 0.60828 0.31662 0.0
loop_
_geom_bond_atom_site_label_1
_geom_bond_atom_site_label_2
_geom_bond_distance
_geom_bond_site_symmetry_2
_ccdc_geom_bond_type
H0 C6 0.930 . S
H1 C9 0.931 . S
H2 C11 0.931 . S
H3 C13 0.930 . S
H4 C15 0.930 . S
H5 C17 0.931 . S
C6 H0 0.930 . S
C6 C7 1.380 . S
C6 C8 1.394 . S
C7 C6 1.380 . S
C7 C11 1.382 . S
C8 C6 1.394 . S
C8 C9 1.400 . S
C9 H1 0.931 . S
C9 C8 1.400 . S
C9 C10 1.375 . S
C10 C9 1.375 . S
C10 C11 1.415 . S
C10 C12 1.501 . S
C11 H2 0.931 . S
C11 C7 1.382 . S
C11 C10 1.415 . S
C12 C10 1.501 . S
C12 C13 1.384 . S
C12 C17 1.408 . S
C13 H3 0.930 . S
C13 C12 1.384 . S
C13 C14 1.389 . S
C14 C13 1.389 . S
C14 C15 1.405 . S
C15 H4 0.930 . S
C15 C14 1.405 . S
C15 C16 1.364 . S
C16 C15 1.364 . S
C16 C17 1.400 . S
C17 H5 0.931 . S
C17 C12 1.408 . S
C17 C16 1.400 . S
H18 C24 0.930 . S
H19 C27 0.931 . S
H20 C29 0.931 . S
H21 C31 0.930 . S
H22 C33 0.930 . S
H23 C35 0.931 . S
C24 H18 0.930 . S
C24 C25 1.380 . S
C24 C26 1.394 . S
C25 C24 1.380 . S
C25 C29 1.382 . S
C26 C24 1.394 . S
C26 C27 1.400 . S
C27 H19 0.931 . S
C27 C26 1.400 . S
C27 C28 1.375 . S
C28 C27 1.375 . S
C28 C29 1.415 . S
C28 C30 1.501 . S
C29 H20 0.931 . S
C29 C25 1.382 . S
C29 C28 1.415 . S
C30 C28 1.501 . S
C30 C31 1.384 . S
C30 C35 1.408 . S
C31 H21 0.930 . S
C31 C30 1.384 . S
C31 C32 1.389 . S
C32 C31 1.389 . S
C32 C33 1.405 . S
C33 H22 0.930 . S
C33 C32 1.405 . S
C33 C34 1.364 . S
C34 C33 1.364 . S
C34 C35 1.400 . S
C35 H23 0.931 . S
C35 C30 1.408 . S
C35 C34 1.400 . S
H36 C42 0.930 . S
H37 C45 0.931 . S
H38 C47 0.931 . S
H39 C49 0.930 . S
H40 C51 0.930 . S
H41 C53 0.931 . S
C42 H36 0.930 . S
C42 C43 1.380 1_554 S
C42 C44 1.394 . S
C43 C42 1.380 1_556 S
C43 C47 1.382 . S
C44 C42 1.394 . S
C44 C45 1.400 . S
C45 H37 0.931 . S
C45 C44 1.400 . S
C45 C46 1.375 . S
C46 C45 1.375 . S
C46 C47 1.415 1_554 S
C46 C48 1.501 . S
C47 H38 0.931 . S
C47 C43 1.382 . S
C47 C46 1.415 1_556 S
C48 C46 1.501 . S
C48 C49 1.384 1_554 S
C48 C53 1.408 . S
C49 H39 0.930 . S
C49 C48 1.384 1_556 S
C49 C50 1.389 . S
C50 C49 1.389 . S
C50 C51 1.405 1_556 S
C51 H40 0.930 . S
C51 C50 1.405 1_554 S
C51 C52 1.364 . S
C52 C51 1.364 . S
C52 C53 1.400 . S
C53 H41 0.931 . S
C53 C48 1.408 . S
C53 C52 1.400 . S
H54 C60 0.930 . S
H55 C63 0.931 . S
H56 C65 0.931 1_556 S
H57 C67 0.930 1_556 S
H58 C69 0.930 . S
H59 C71 0.931 . S
C60 H54 0.930 . S
C60 C61 1.380 . S
C60 C62 1.394 . S
C61 C60 1.380 . S
C61 C65 1.382 . S
C62 C60 1.394 . S
C62 C63 1.400 . S
C63 H55 0.931 . S
C63 C62 1.400 . S
C63 C64 1.375 . S
C64 C63 1.375 . S
C64 C65 1.415 . S
C64 C66 1.501 . S
C65 H56 0.931 1_554 S
C65 C61 1.382 . S
C65 C64 1.415 . S
C66 C64 1.501 . S
C66 C67 1.384 . S
C66 C71 1.408 . S
C67 H57 0.930 1_554 S
C67 C66 1.384 . S
C67 C68 1.389 . S
C68 C67 1.389 . S
C68 C69 1.405 . S
C69 H58 0.930 . S
C69 C68 1.405 . S
C69 C70 1.364 . S
C70 C69 1.364 . S
C70 C71 1.400 . S
C71 H59 0.931 . S
C71 C66 1.408 . S
C71 C70 1.400 . S
H72 C78 0.930 . S
H73 C81 0.931 . S
H74 C83 0.931 . S
H75 C85 0.930 . S
H76 C87 0.930 . S
H77 C89 0.931 . S
C78 H72 0.930 . S
C78 C79 1.380 . S
C78 C80 1.394 . S
C79 C78 1.380 . S
C79 C83 1.382 . S
C80 C78 1.394 . S
C80 C81 1.400 . S
C81 H73 0.931 . S
C81 C80 1.400 . S
C81 C82 1.375 . S
C82 C81 1.375 . S
C82 C83 1.415 . S
C82 C84 1.501 . S
C83 H74 0.931 . S
C83 C79 1.382 . S
C83 C82 1.415 . S
C84 C82 1.501 . S
C84 C85 1.384 . S
C84 C89 1.408 . S
C85 H75 0.930 . S
C85 C84 1.384 . S
C85 C86 1.389 . S
C86 C85 1.389 . S
C86 C87 1.405 . S
C87 H76 0.930 . S
C87 C86 1.405 . S
C87 C88 1.364 . S
C88 C87 1.364 . S
C88 C89 1.400 . S
C89 H77 0.931 . S
C89 C84 1.408 . S
C89 C88 1.400 . S
H90 C96 0.930 . S
H91 C99 0.931 . S
H92 C101 0.931 . S
H93 C103 0.930 . S
H94 C105 0.930 . S
H95 C107 0.931 . S
C96 H90 0.930 . S
C96 C97 1.380 . S
C96 C98 1.394 . S
C97 C96 1.380 . S
C97 C101 1.382 . S
C98 C96 1.394 . S
C98 C99 1.400 . S
C99 H91 0.931 . S
C99 C98 1.400 . S
C99 C100 1.375 . S
C100 C99 1.375 . S
C100 C101 1.415 . S
C100 C102 1.501 . S
C101 H92 0.931 . S
C101 C97 1.382 . S
C101 C100 1.415 . S
C102 C100 1.501 . S
C102 C103 1.384 . S
C102 C107 1.408 . S
C103 H93 0.930 . S
C103 C102 1.384 . S
C103 C104 1.389 . S
C104 C103 1.389 . S
C104 C105 1.405 . S
C105 H94 0.930 . S
C105 C104 1.405 . S
C105 C106 1.364 . S
C106 C105 1.364 . S
C106 C107 1.400 . S
C107 H95 0.931 . S
C107 C102 1.408 . S
C107 C106 1.400 . S
C108 O120 1.241 . S
C108 O121 1.280 . S
C109 O122 1.277 . S
C109 O123 1.245 . S
C110 O134 1.247 . S
C110 O136 1.289 . S
Mg111 O112 1.935 1_655 S
Mg111 O121 1.984 . S
Mg111 O123 1.988 1_655 S
Mg111 O124 2.061 . S
O112 Mg111 1.935 1_455 S
O112 Mg113 1.985 . S
O112 Mg114 1.915 . S
Mg113 O112 1.985 . S
Mg113 O120 2.042 1_455 S
Mg113 O122 2.041 . S
Mg113 O128 2.038 1_455 S
Mg113 O136 2.238 . S
Mg114 O112 1.915 . S
Mg114 O115 1.917 . S
Mg114 O125 2.106 1_455 S
Mg114 O127 2.079 1_455 S
Mg114 O136 2.106 . S
Mg114 O137 2.079 . S
O115 Mg114 1.917 . S
O115 Mg116 1.926 . S
O115 Mg117 1.986 . S
Mg116 O115 1.926 . S
Mg116 O130 1.984 . S
Mg116 O133 1.988 1_455 S
Mg116 O134 2.061 . S
Mg117 O115 1.986 . S
Mg117 O125 2.238 1_455 S
Mg117 O129 2.042 . S
Mg117 O131 2.041 1_455 S
Mg117 O138 2.038 . S
C118 O124 1.247 . S
C118 O125 1.289 . S
C119 O137 1.245 . S
C119 O138 1.274 . S
O120 C108 1.241 . S
O120 Mg113 2.042 1_655 S
O121 C108 1.280 . S
O121 Mg111 1.984 . S
O122 C109 1.277 . S
O122 Mg113 2.041 . S
O123 C109 1.245 . S
O123 Mg111 1.988 1_455 S
O124 Mg111 2.061 . S
O124 C118 1.247 . S
O125 Mg114 2.106 1_655 S
O125 Mg117 2.238 1_655 S
O125 C118 1.289 . S
C126 O127 1.245 . S
C126 O128 1.274 . S
O127 Mg114 2.079 1_655 S
O127 C126 1.245 . S
O128 Mg113 2.038 1_655 S
O128 C126 1.274 . S
O129 Mg117 2.042 . S
O129 C132 1.241 . S
O130 Mg116 1.984 . S
O130 C132 1.280 . S
O131 Mg117 2.041 1_655 S
O131 C135 1.277 . S
C132 O129 1.241 . S
C132 O130 1.280 . S
O133 Mg116 1.988 1_655 S
O133 C135 1.245 . S
O134 C110 1.247 . S
O134 Mg116 2.061 . S
C135 O131 1.277 . S
C135 O133 1.245 . S
O136 C110 1.289 . S
O136 Mg113 2.238 . S
O136 Mg114 2.106 . S
O137 Mg114 2.079 . S
O137 C119 1.245 . S
O138 Mg117 2.038 . S
O138 C119 1.274 . S
C139 O151 1.241 . S
C139 O152 1.280 . S
C140 O153 1.277 . S
C140 O154 1.245 . S
C141 O165 1.247 . S
C141 O167 1.289 . S
Mg142 O143 1.926 . S
Mg142 O152 1.984 . S
Mg142 O154 1.988 1_545 S
Mg142 O155 2.061 . S
O143 Mg142 1.926 . S
O143 Mg144 1.986 . S
O143 Mg145 1.917 . S
Mg144 O143 1.986 . S
Mg144 O151 2.042 . S
Mg144 O153 2.041 1_545 S
Mg144 O159 2.038 . S
Mg144 O167 2.238 1_545 S
Mg145 O143 1.917 . S
Mg145 O146 1.917 1_545 S
Mg145 O156 2.106 . S
Mg145 O158 2.079 . S
Mg145 O167 2.106 1_545 S
Mg145 O168 2.079 1_545 S
O146 Mg145 1.917 1_565 S
O146 Mg147 1.926 . S
O146 Mg148 1.986 1_565 S
Mg147 O146 1.926 . S
Mg147 O161 1.984 . S
Mg147 O164 1.988 1_565 S
Mg147 O165 2.061 . S
Mg148 O146 1.986 1_545 S
Mg148 O156 2.238 . S
Mg148 O160 2.042 1_545 S
Mg148 O162 2.041 . S
Mg148 O169 2.038 1_545 S
C149 O155 1.247 . S
C149 O156 1.289 . S
C150 O168 1.245 . S
C150 O169 1.274 . S
O151 C139 1.241 . S
O151 Mg144 2.042 . S
O152 C139 1.280 . S
O152 Mg142 1.984 . S
O153 C140 1.277 . S
O153 Mg144 2.041 1_565 S
O154 C140 1.245 . S
O154 Mg142 1.988 1_565 S
O155 Mg142 2.061 . S
O155 C149 1.247 . S
O156 Mg145 2.106 . S
O156 Mg148 2.238 . S
O156 C149 1.289 . S
C157 O158 1.245 . S
C157 O159 1.274 . S
O158 Mg145 2.079 . S
O158 C157 1.245 . S
O159 Mg144 2.038 . S
O159 C157 1.274 . S
O160 Mg148 2.042 1_565 S
O160 C163 1.241 . S
O161 Mg147 1.984 . S
O161 C163 1.280 . S
O162 Mg148 2.041 . S
O162 C166 1.277 . S
C163 O160 1.241 . S
C163 O161 1.280 . S
O164 Mg147 1.988 1_545 S
O164 C166 1.245 . S
O165 C141 1.247 . S
O165 Mg147 2.061 . S
C166 O162 1.277 . S
C166 O164 1.245 . S
O167 C141 1.289 . S
O167 Mg144 2.238 1_565 S
O167 Mg145 2.106 1_565 S
O168 Mg145 2.079 1_565 S
O168 C150 1.245 . S
O169 Mg148 2.038 1_565 S
O169 C150 1.274 . S
C170 O182 1.241 . S
C170 O183 1.280 . S
C171 O184 1.277 . S
C171 O185 1.245 . S
C172 O196 1.247 . S
C172 O198 1.289 . S
Mg173 O174 1.926 . S
Mg173 O183 1.984 . S
Mg173 O185 1.988 . S
Mg173 O186 2.061 . S
O174 Mg173 1.926 . S
O174 Mg175 1.986 . S
O174 Mg176 1.917 . S
Mg175 O174 1.986 . S
Mg175 O182 2.042 . S
Mg175 O184 2.041 . S
Mg175 O190 2.038 . S
Mg175 O198 2.238 . S
Mg176 O174 1.917 . S
Mg176 O177 1.917 . S
Mg176 O187 2.106 . S
Mg176 O189 2.079 . S
Mg176 O198 2.106 . S
Mg176 O199 2.079 . S
O177 Mg176 1.917 . S
O177 Mg178 1.926 . S
O177 Mg179 1.986 . S
Mg178 O177 1.926 . S
Mg178 O192 1.984 . S
Mg178 O195 1.988 . S
Mg178 O196 2.061 . S
Mg179 O177 1.986 . S
Mg179 O187 2.238 . S
Mg179 O191 2.042 . S
Mg179 O193 2.041 . S
Mg179 O200 2.038 . S
C180 O186 1.247 . S
C180 O187 1.289 . S
C181 O199 1.245 . S
C181 O200 1.274 . S
O182 C170 1.241 . S
O182 Mg175 2.042 . S
O183 C170 1.280 . S
O183 Mg173 1.984 . S
O184 C171 1.277 . S
O184 Mg175 2.041 . S
O185 C171 1.245 . S
O185 Mg173 1.988 . S
O186 Mg173 2.061 . S
O186 C180 1.247 . S
O187 Mg176 2.106 . S
O187 Mg179 2.238 . S
O187 C180 1.289 . S
C188 O189 1.245 . S
C188 O190 1.274 . S
O189 Mg176 2.079 . S
O189 C188 1.245 . S
O190 Mg175 2.038 . S
O190 C188 1.274 . S
O191 Mg179 2.042 . S
O191 C194 1.241 . S
O192 Mg178 1.984 . S
O192 C194 1.280 . S
O193 Mg179 2.041 . S
O193 C197 1.277 . S
C194 O191 1.241 . S
C194 O192 1.280 . S
O195 Mg178 1.988 . S
O195 C197 1.245 . S
O196 C172 1.247 . S
O196 Mg178 2.061 . S
C197 O193 1.277 . S
C197 O195 1.245 . S
O198 C172 1.289 . S
O198 Mg175 2.238 . S
O198 Mg176 2.106 . S
O199 Mg176 2.079 . S
O199 C181 1.245 . S
O200 Mg179 2.038 . S
O200 C181 1.274 . S
C201 C202 1.349 . S
C201 C203 1.327 . S
C201 H226 0.950 . S
C202 C201 1.349 . S
C202 C218 1.349 . S
C203 C201 1.327 . S
C203 C222 1.429 . S
C203 H227 0.950 . S
C204 C221 1.574 . S
C204 C223 1.368 . S
C204 H228 0.949 . S
H205 C209 0.949 . S
C206 C207 1.349 . S
C206 C208 1.327 . S
C206 H229 0.950 . S
C207 C206 1.349 . S
C207 C219 1.349 . S
C208 C206 1.327 . S
C208 C224 1.429 . S
C208 H230 0.950 . S
C209 H205 0.949 . S
C209 C217 1.574 . S
C209 C225 1.368 . S
H210 C218 0.950 . S
H211 C216 0.950 . S
H212 C217 0.949 . S
H213 C219 0.950 . S
H214 C220 0.950 . S
H215 C221 0.949 . S
C216 H211 0.950 . S
C216 C218 1.327 . S
C216 C222 1.429 . S
C217 C209 1.574 . S
C217 H212 0.949 . S
C217 C223 1.368 . S
C218 C202 1.349 . S
C218 H210 0.950 . S
C218 C216 1.327 . S
C219 C207 1.349 . S
C219 H213 0.950 . S
C219 C220 1.327 . S
C220 H214 0.950 . S
C220 C219 1.327 . S
C220 C224 1.429 . S
C221 C204 1.574 . S
C221 H215 0.949 . S
C221 C225 1.368 . S
C222 C203 1.429 . S
C222 C216 1.429 . S
C222 C223 1.523 . S
C223 C204 1.368 . S
C223 C217 1.368 . S
C223 C222 1.523 . S
C224 C208 1.429 . S
C224 C220 1.429 . S
C224 C225 1.523 . S
C225 C209 1.368 . S
C225 C221 1.368 . S
C225 C224 1.523 . S
H226 C201 0.950 . S
H227 C203 0.950 . S
H228 C204 0.949 . S
H229 C206 0.950 . S
H230 C208 0.950 . S
C231 C232 1.349 . S
C231 C233 1.327 . S
C231 H256 0.950 . S
C232 C231 1.349 . S
C232 C248 1.349 . S
C233 C231 1.327 . S
C233 C252 1.429 . S
C233 H257 0.950 . S
C234 C251 1.574 . S
C234 C253 1.368 . S
C234 H258 0.949 . S
H235 C239 0.949 . S
C236 C237 1.349 . S
C236 C238 1.327 . S
C236 H259 0.950 . S
C237 C236 1.349 . S
C237 C249 1.349 . S
C238 C236 1.327 . S
C238 C254 1.429 . S
C238 H260 0.950 . S
C239 H235 0.949 . S
C239 C247 1.574 . S
C239 C255 1.368 . S
H240 C248 0.950 . S
H241 C246 0.950 . S
H242 C247 0.949 . S
H243 C249 0.950 . S
H244 C250 0.950 . S
H245 C251 0.949 . S
C246 H241 0.950 . S
C246 C248 1.327 . S
C246 C252 1.429 . S
C247 C239 1.574 . S
C247 H242 0.949 . S
C247 C253 1.368 . S
C248 C232 1.349 . S
C248 H240 0.950 . S
C248 C246 1.327 . S
C249 C237 1.349 . S
C249 H243 0.950 . S
C249 C250 1.327 . S
C250 H244 0.950 . S
C250 C249 1.327 . S
C250 C254 1.429 . S
C251 C234 1.574 . S
C251 H245 0.949 . S
C251 C255 1.368 . S
C252 C233 1.429 . S
C252 C246 1.429 . S
C252 C253 1.523 . S
C253 C234 1.368 . S
C253 C247 1.368 . S
C253 C252 1.523 . S
C254 C238 1.429 . S
C254 C250 1.429 . S
C254 C255 1.523 . S
C255 C239 1.368 . S
C255 C251 1.368 . S
C255 C254 1.523 . S
H256 C231 0.950 . S
H257 C233 0.950 . S
H258 C234 0.949 . S
H259 C236 0.950 . S
H260 C238 0.950 . S
C261 C262 1.349 . S
C261 C263 1.327 . S
C261 H286 0.950 . S
C262 C261 1.349 . S
C262 C278 1.349 . S
C263 C261 1.327 . S
C263 C282 1.429 . S
C263 H287 0.950 . S
C264 C281 1.574 . S
C264 C283 1.368 . S
C264 H288 0.949 . S
H265 C269 0.949 . S
C266 C267 1.349 . S
C266 C268 1.327 . S
C266 H289 0.950 . S
C267 C266 1.349 . S
C267 C279 1.349 . S
C268 C266 1.327 . S
C268 C284 1.429 . S
C268 H290 0.950 . S
C269 H265 0.949 . S
C269 C277 1.574 . S
C269 C285 1.368 . S
H270 C278 0.950 . S
H271 C276 0.950 . S
H272 C277 0.949 . S
H273 C279 0.950 . S
H274 C280 0.950 . S
H275 C281 0.949 . S
C276 H271 0.950 . S
C276 C278 1.327 . S
C276 C282 1.429 . S
C277 C269 1.574 . S
C277 H272 0.949 . S
C277 C283 1.368 . S
C278 C262 1.349 . S
C278 H270 0.950 . S
C278 C276 1.327 . S
C279 C267 1.349 . S
C279 H273 0.950 . S
C279 C280 1.327 . S
C280 H274 0.950 . S
C280 C279 1.327 . S
C280 C284 1.429 . S
C281 C264 1.574 . S
C281 H275 0.949 . S
C281 C285 1.368 . S
C282 C263 1.429 . S
C282 C276 1.429 . S
C282 C283 1.523 . S
C283 C264 1.368 . S
C283 C277 1.368 . S
C283 C282 1.523 . S
C284 C268 1.429 . S
C284 C280 1.429 . S
C284 C285 1.523 . S
C285 C269 1.368 . S
C285 C281 1.368 . S
C285 C284 1.523 . S
H286 C261 0.950 . S
H287 C263 0.950 . S
H288 C264 0.949 . S
H289 C266 0.950 . S
H290 C268 0.950 . S
C291 C292 1.349 . S
C291 C293 1.327 . S
C291 H316 0.950 . S
C292 C291 1.349 . S
C292 C308 1.349 . S
C293 C291 1.327 . S
C293 C312 1.429 . S
C293 H317 0.950 . S
C294 C311 1.574 . S
C294 C313 1.368 . S
C294 H318 0.949 . S
H295 C299 0.949 . S
C296 C297 1.349 . S
C296 C298 1.327 . S
C296 H319 0.950 . S
C297 C296 1.349 . S
C297 C309 1.349 . S
C298 C296 1.327 . S
C298 C314 1.429 . S
C298 H320 0.950 . S
C299 H295 0.949 . S
C299 C307 1.574 . S
C299 C315 1.368 . S
H300 C308 0.950 . S
H301 C306 0.950 . S
H302 C307 0.949 . S
H303 C309 0.950 . S
H304 C310 0.950 . S
H305 C311 0.949 . S
C306 H301 0.950 . S
C306 C308 1.327 . S
C306 C312 1.429 . S
C307 C299 1.574 . S
C307 H302 0.949 . S
C307 C313 1.368 . S
C308 C292 1.349 . S
C308 H300 0.950 . S
C308 C306 1.327 . S
C309 C297 1.349 . S
C309 H303 0.950 . S
C309 C310 1.327 . S
C310 H304 0.950 . S
C310 C309 1.327 . S
C310 C314 1.429 . S
C311 C294 1.574 . S
C311 H305 0.949 . S
C311 C315 1.368 . S
C312 C293 1.429 . S
C312 C306 1.429 . S
C312 C313 1.523 . S
C313 C294 1.368 . S
C313 C307 1.368 . S
C313 C312 1.523 . S
C314 C298 1.429 . S
C314 C310 1.429 . S
C314 C315 1.523 . S
C315 C299 1.368 . S
C315 C311 1.368 . S
C315 C314 1.523 . S
H316 C291 0.950 . S
H317 C293 0.950 . S
H318 C294 0.949 . S
H319 C296 0.950 . S
H320 C298 0.950 . S
C321 C322 1.349 . S
C321 C323 1.327 . S
C321 H346 0.950 . S
C322 C321 1.349 . S
C322 C338 1.349 . S
C323 C321 1.327 . S
C323 C342 1.429 . S
C323 H347 0.950 . S
C324 C341 1.574 . S
C324 C343 1.368 . S
C324 H348 0.949 . S
H325 C329 0.949 . S
C326 C327 1.349 . S
C326 C328 1.327 . S
C326 H349 0.950 . S
C327 C326 1.349 . S
C327 C339 1.349 . S
C328 C326 1.327 . S
C328 C344 1.429 . S
C328 H350 0.950 . S
C329 H325 0.949 . S
C329 C337 1.574 . S
C329 C345 1.368 . S
H330 C338 0.950 . S
H331 C336 0.950 . S
H332 C337 0.949 . S
H333 C339 0.950 . S
H334 C340 0.950 . S
H335 C341 0.949 . S
C336 H331 0.950 . S
C336 C338 1.327 . S
C336 C342 1.429 . S
C337 C329 1.574 . S
C337 H332 0.949 . S
C337 C343 1.368 . S
C338 C322 1.349 . S
C338 H330 0.950 . S
C338 C336 1.327 . S
C339 C327 1.349 . S
C339 H333 0.950 . S
C339 C340 1.327 . S
C340 H334 0.950 . S
C340 C339 1.327 . S
C340 C344 1.429 . S
C341 C324 1.574 . S
C341 H335 0.949 . S
C341 C345 1.368 . S
C342 C323 1.429 . S
C342 C336 1.429 . S
C342 C343 1.523 . S
C343 C324 1.368 . S
C343 C337 1.368 . S
C343 C342 1.523 . S
C344 C328 1.429 . S
C344 C340 1.429 . S
C344 C345 1.523 . S
C345 C329 1.368 . S
C345 C341 1.368 . S
C345 C344 1.523 . S
H346 C321 0.950 . S
H347 C323 0.950 . S
H348 C324 0.949 . S
H349 C326 0.950 . S
H350 C328 0.950 . S
C351 C352 1.349 . S
C351 C353 1.327 . S
C351 H376 0.950 . S
C352 C351 1.349 . S
C352 C368 1.349 . S
C353 C351 1.327 . S
C353 C372 1.429 . S
C353 H377 0.950 . S
C354 C371 1.574 . S
C354 C373 1.368 . S
C354 H378 0.949 . S
H355 C359 0.949 . S
C356 C357 1.349 . S
C356 C358 1.327 . S
C356 H379 0.950 . S
C357 C356 1.349 . S
C357 C369 1.349 . S
C358 C356 1.327 . S
C358 C374 1.429 . S
C358 H380 0.950 . S
C359 H355 0.949 . S
C359 C367 1.574 . S
C359 C375 1.368 . S
H360 C368 0.950 . S
H361 C366 0.950 . S
H362 C367 0.949 . S
H363 C369 0.950 . S
H364 C370 0.950 . S
H365 C371 0.949 . S
C366 H361 0.950 . S
C366 C368 1.327 . S
C366 C372 1.429 . S
C367 C359 1.574 . S
C367 H362 0.949 . S
C367 C373 1.368 . S
C368 C352 1.349 . S
C368 H360 0.950 . S
C368 C366 1.327 . S
C369 C357 1.349 . S
C369 H363 0.950 . S
C369 C370 1.327 . S
C370 H364 0.950 . S
C370 C369 1.327 . S
C370 C374 1.429 . S
C371 C354 1.574 . S
C371 H365 0.949 . S
C371 C375 1.368 . S
C372 C353 1.429 . S
C372 C366 1.429 . S
C372 C373 1.523 . S
C373 C354 1.368 . S
C373 C367 1.368 . S
C373 C372 1.523 . S
C374 C358 1.429 . S
C374 C370 1.429 . S
C374 C375 1.523 . S
C375 C359 1.368 . S
C375 C371 1.368 . S
C375 C374 1.523 . S
H376 C351 0.950 . S
H377 C353 0.950 . S
H378 C354 0.949 . S
H379 C356 0.950 . S
H380 C358 0.950 . S
C381 C382 1.349 . S
C381 C383 1.327 . S
C381 H406 0.950 . S
C382 C381 1.349 . S
C382 C398 1.349 . S
C383 C381 1.327 . S
C383 C402 1.429 . S
C383 H407 0.950 . S
C384 C401 1.574 . S
C384 C403 1.368 . S
C384 H408 0.949 . S
H385 C389 0.949 . S
C386 C387 1.349 . S
C386 C388 1.327 . S
C386 H409 0.950 . S
C387 C386 1.349 . S
C387 C399 1.349 . S
C388 C386 1.327 . S
C388 C404 1.429 . S
C388 H410 0.950 . S
C389 H385 0.949 . S
C389 C397 1.574 . S
C389 C405 1.368 . S
H390 C398 0.950 . S
H391 C396 0.950 . S
H392 C397 0.949 . S
H393 C399 0.950 . S
H394 C400 0.950 . S
H395 C401 0.949 . S
C396 H391 0.950 . S
C396 C398 1.327 . S
C396 C402 1.429 . S
C397 C389 1.574 . S
C397 H392 0.949 . S
C397 C403 1.368 . S
C398 C382 1.349 . S
C398 H390 0.950 . S
C398 C396 1.327 . S
C399 C387 1.349 . S
C399 H393 0.950 . S
C399 C400 1.327 . S
C400 H394 0.950 . S
C400 C399 1.327 . S
C400 C404 1.429 . S
C401 C384 1.574 . S
C401 H395 0.949 . S
C401 C405 1.368 . S
C402 C383 1.429 . S
C402 C396 1.429 . S
C402 C403 1.523 . S
C403 C384 1.368 . S
C403 C397 1.368 . S
C403 C402 1.523 . S
C404 C388 1.429 . S
C404 C400 1.429 . S
C404 C405 1.523 . S
C405 C389 1.368 . S
C405 C401 1.368 . S
C405 C404 1.523 . S
H406 C381 0.950 . S
H407 C383 0.950 . S
H408 C384 0.949 . S
H409 C386 0.950 . S
H410 C388 0.950 . S
C411 C412 1.349 . S
C411 C413 1.327 . S
C411 H436 0.950 . S
C412 C411 1.349 . S
C412 C428 1.349 . S
C413 C411 1.327 . S
C413 C432 1.429 . S
C413 H437 0.950 . S
C414 C431 1.574 . S
C414 C433 1.368 . S
C414 H438 0.949 . S
H415 C419 0.949 . S
C416 C417 1.349 . S
C416 C418 1.327 . S
C416 H439 0.950 . S
C417 C416 1.349 . S
C417 C429 1.349 . S
C418 C416 1.327 . S
C418 C434 1.429 . S
C418 H440 0.950 . S
C419 H415 0.949 . S
C419 C427 1.574 . S
C419 C435 1.368 . S
H420 C428 0.950 1_554 S
H421 C426 0.950 . S
H422 C427 0.949 . S
H423 C429 0.950 . S
H424 C430 0.950 . S
H425 C431 0.949 . S
C426 H421 0.950 . S
C426 C428 1.327 . S
C426 C432 1.429 . S
C427 C419 1.574 . S
C427 H422 0.949 . S
C427 C433 1.368 . S
C428 C412 1.349 . S
C428 H420 0.950 1_556 S
C428 C426 1.327 . S
C429 C417 1.349 . S
C429 H423 0.950 . S
C429 C430 1.327 . S
C430 H424 0.950 . S
C430 C429 1.327 . S
C430 C434 1.429 . S
C431 C414 1.574 . S
C431 H425 0.949 . S
C431 C435 1.368 . S
C432 C413 1.429 . S
C432 C426 1.429 . S
C432 C433 1.523 . S
C433 C414 1.368 . S
C433 C427 1.368 . S
C433 C432 1.523 . S
C434 C418 1.429 . S
C434 C430 1.429 . S
C434 C435 1.523 . S
C435 C419 1.368 . S
C435 C431 1.368 . S
C435 C434 1.523 . S
H436 C411 0.950 . S
H437 C413 0.950 . S
H438 C414 0.949 . S
H439 C416 0.950 . S
H440 C418 0.950 . S
C441 C442 1.349 1_554 S
C441 C443 1.327 1_554 S
C441 H466 0.950 . S
C442 C441 1.349 1_556 S
C442 C458 1.349 . S
C443 C441 1.327 1_556 S
C443 C462 1.429 . S
C443 H467 0.950 1_556 S
C444 C461 1.574 . S
C444 C463 1.368 . S
C444 H468 0.949 . S
H445 C449 0.949 . S
C446 C447 1.349 . S
C446 C448 1.327 . S
C446 H469 0.950 . S
C447 C446 1.349 . S
C447 C459 1.349 . S
C448 C446 1.327 . S
C448 C464 1.429 . S
C448 H470 0.950 . S
C449 H445 0.949 . S
C449 C457 1.574 . S
C449 C465 1.368 . S
H450 C458 0.950 . S
H451 C456 0.950 . S
H452 C457 0.949 . S
H453 C459 0.950 . S
H454 C460 0.950 . S
H455 C461 0.949 . S
C456 H451 0.950 . S
C456 C458 1.327 . S
C456 C462 1.429 . S
C457 C449 1.574 . S
C457 H452 0.949 . S
C457 C463 1.368 . S
C458 C442 1.349 . S
C458 H450 0.950 . S
C458 C456 1.327 . S
C459 C447 1.349 . S
C459 H453 0.950 . S
C459 C460 1.327 . S
C460 H454 0.950 . S
C460 C459 1.327 . S
C460 C464 1.429 . S
C461 C444 1.574 . S
C461 H455 0.949 . S
C461 C465 1.368 . S
C462 C443 1.429 . S
C462 C456 1.429 . S
C462 C463 1.523 . S
C463 C444 1.368 . S
C463 C457 1.368 . S
C463 C462 1.523 . S
C464 C448 1.429 . S
C464 C460 1.429 . S
C464 C465 1.523 . S
C465 C449 1.368 . S
C465 C461 1.368 . S
C465 C464 1.523 . S
H466 C441 0.950 . S
H467 C443 0.950 1_554 S
H468 C444 0.949 . S
H469 C446 0.950 . S
H470 C448 0.950 . S
C471 C472 1.349 . S
C471 C473 1.327 . S
C471 H496 0.950 . S
C472 C471 1.349 . S
C472 C488 1.349 . S
C473 C471 1.327 . S
C473 C492 1.429 . S
C473 H497 0.950 . S
C474 C491 1.574 . S
C474 C493 1.368 . S
C474 H498 0.949 . S
H475 C479 0.949 . S
C476 C477 1.349 . S
C476 C478 1.327 . S
C476 H499 0.950 . S
C477 C476 1.349 . S
C477 C489 1.349 . S
C478 C476 1.327 . S
C478 C494 1.429 . S
C478 H500 0.950 . S
C479 H475 0.949 . S
C479 C487 1.574 . S
C479 C495 1.368 . S
H480 C488 0.950 . S
H481 C486 0.950 . S
H482 C487 0.949 . S
H483 C489 0.950 . S
H484 C490 0.950 . S
H485 C491 0.949 . S
C486 H481 0.950 . S
C486 C488 1.327 . S
C486 C492 1.429 . S
C487 C479 1.574 . S
C487 H482 0.949 . S
C487 C493 1.368 . S
C488 C472 1.349 . S
C488 H480 0.950 . S
C488 C486 1.327 . S
C489 C477 1.349 . S
C489 H483 0.950 . S
C489 C490 1.327 . S
C490 H484 0.950 . S
C490 C489 1.327 . S
C490 C494 1.429 . S
C491 C474 1.574 . S
C491 H485 0.949 . S
C491 C495 1.368 . S
C492 C473 1.429 . S
C492 C486 1.429 . S
C492 C493 1.523 1_554 S
C493 C474 1.368 . S
C493 C487 1.368 . S
C493 C492 1.523 1_556 S
C494 C478 1.429 . S
C494 C490 1.429 . S
C494 C495 1.523 . S
C495 C479 1.368 . S
C495 C491 1.368 . S
C495 C494 1.523 . S
H496 C471 0.950 . S
H497 C473 0.950 . S
H498 C474 0.949 . S
H499 C476 0.950 . S
H500 C478 0.950 . S
C501 C502 1.349 . S
C501 C503 1.327 . S
C501 H526 0.950 . S
C502 C501 1.349 . S
C502 C518 1.349 . S
C503 C501 1.327 . S
C503 C522 1.429 1_554 S
C503 H527 0.950 . S
C504 C521 1.574 . S
C504 C523 1.368 . S
C504 H528 0.949 . S
H505 C509 0.949 . S
C506 C507 1.349 . S
C506 C508 1.327 . S
C506 H529 0.950 . S
C507 C506 1.349 . S
C507 C519 1.349 . S
C508 C506 1.327 . S
C508 C524 1.429 . S
C508 H530 0.950 . S
C509 H505 0.949 . S
C509 C517 1.574 . S
C509 C525 1.368 . S
H510 C518 0.950 1_556 S
H511 C516 0.950 . S
H512 C517 0.949 . S
H513 C519 0.950 . S
H514 C520 0.950 . S
H515 C521 0.949 . S
C516 H511 0.950 . S
C516 C518 1.327 1_556 S
C516 C522 1.429 . S
C517 C509 1.574 . S
C517 H512 0.949 . S
C517 C523 1.368 . S
C518 C502 1.349 . S
C518 H510 0.950 1_554 S
C518 C516 1.327 1_554 S
C519 C507 1.349 . S
C519 H513 0.950 . S
C519 C520 1.327 . S
C520 H514 0.950 . S
C520 C519 1.327 . S
C520 C524 1.429 . S
C521 C504 1.574 . S
C521 H515 0.949 . S
C521 C525 1.368 . S
C522 C503 1.429 1_556 S
C522 C516 1.429 . S
C522 C523 1.523 . S
C523 C504 1.368 . S
C523 C517 1.368 . S
C523 C522 1.523 . S
C524 C508 1.429 . S
C524 C520 1.429 . S
C524 C525 1.523 . S
C525 C509 1.368 . S
C525 C521 1.368 . S
C525 C524 1.523 . S
H526 C501 0.950 . S
H527 C503 0.950 . S
H528 C504 0.949 . S
H529 C506 0.950 . S
H530 C508 0.950 . S
C531 C532 1.349 . S
C531 C533 1.327 . S
C531 H556 0.950 . S
C532 C531 1.349 . S
C532 C548 1.349 1_554 S
C533 C531 1.327 . S
C533 C552 1.429 1_554 S
C533 H557 0.950 . S
C534 C551 1.574 . S
C534 C553 1.368 . S
C534 H558 0.949 . S
H535 C539 0.949 . S
C536 C537 1.349 . S
C536 C538 1.327 . S
C536 H559 0.950 . S
C537 C536 1.349 . S
C537 C549 1.349 . S
C538 C536 1.327 . S
C538 C554 1.429 . S
C538 H560 0.950 . S
C539 H535 0.949 . S
C539 C547 1.574 . S
C539 C555 1.368 . S
H540 C548 0.950 . S
H541 C546 0.950 . S
H542 C547 0.949 1_554 S
H543 C549 0.950 . S
H544 C550 0.950 . S
H545 C551 0.949 . S
C546 H541 0.950 . S
C546 C548 1.327 . S
C546 C552 1.429 . S
C547 C539 1.574 . S
C547 H542 0.949 1_556 S
C547 C553 1.368 . S
C548 C532 1.349 1_556 S
C548 H540 0.950 . S
C548 C546 1.327 . S
C549 C537 1.349 . S
C549 H543 0.950 . S
C549 C550 1.327 . S
C550 H544 0.950 . S
C550 C549 1.327 . S
C550 C554 1.429 . S
C551 C534 1.574 . S
C551 H545 0.949 . S
C551 C555 1.368 . S
C552 C533 1.429 1_556 S
C552 C546 1.429 . S
C552 C553 1.523 . S
C553 C534 1.368 . S
C553 C547 1.368 . S
C553 C552 1.523 . S
C554 C538 1.429 . S
C554 C550 1.429 . S
C554 C555 1.523 . S
C555 C539 1.368 . S
C555 C551 1.368 . S
C555 C554 1.523 . S
H556 C531 0.950 . S
H557 C533 0.950 . S
H558 C534 0.949 . S
H559 C536 0.950 . S
H560 C538 0.950 . S
C561 C562 1.349 . S
C561 C563 1.327 . S
C561 H586 0.950 . S
C562 C561 1.349 . S
C562 C578 1.349 . S
C563 C561 1.327 . S
C563 C582 1.429 . S
C563 H587 0.950 . S
C564 C581 1.574 . S
C564 C583 1.368 . S
C564 H588 0.949 . S
H565 C569 0.949 . S
C566 C567 1.349 . S
C566 C568 1.327 . S
C566 H589 0.950 . S
C567 C566 1.349 . S
C567 C579 1.349 . S
C568 C566 1.327 . S
C568 C584 1.429 . S
C568 H590 0.950 . S
C569 H565 0.949 . S
C569 C577 1.574 . S
C569 C585 1.368 . S
H570 C578 0.950 . S
H571 C576 0.950 . S
H572 C577 0.949 . S
H573 C579 0.950 . S
H574 C580 0.950 . S
H575 C581 0.949 . S
C576 H571 0.950 . S
C576 C578 1.327 . S
C576 C582 1.429 . S
C577 C569 1.574 . S
C577 H572 0.949 . S
C577 C583 1.368 . S
C578 C562 1.349 . S
C578 H570 0.950 . S
C578 C576 1.327 . S
C579 C567 1.349 . S
C579 H573 0.950 . S
C579 C580 1.327 . S
C580 H574 0.950 . S
C580 C579 1.327 . S
C580 C584 1.429 . S
C581 C564 1.574 . S
C581 H575 0.949 . S
C581 C585 1.368 . S
C582 C563 1.429 . S
C582 C576 1.429 . S
C582 C583 1.523 . S
C583 C564 1.368 . S
C583 C577 1.368 . S
C583 C582 1.523 . S
C584 C568 1.429 . S
C584 C580 1.429 . S
C584 C585 1.523 . S
C585 C569 1.368 . S
C585 C581 1.368 . S
C585 C584 1.523 . S
H586 C561 0.950 . S
H587 C563 0.950 . S
H588 C564 0.949 . S
H589 C566 0.950 . S
H590 C568 0.950 . S
C591 C592 1.349 1_554 S
C591 C593 1.327 1_554 S
C591 H616 0.950 . S
C592 C591 1.349 1_556 S
C592 C608 1.349 . S
C593 C591 1.327 1_556 S
C593 C612 1.429 . S
C593 H617 0.950 1_556 S
C594 C611 1.574 . S
C594 C613 1.368 . S
C594 H618 0.949 . S
H595 C599 0.949 . S
C596 C597 1.349 . S
C596 C598 1.327 . S
C596 H619 0.950 . S
C597 C596 1.349 . S
C597 C609 1.349 . S
C598 C596 1.327 . S
C598 C614 1.429 . S
C598 H620 0.950 . S
C599 H595 0.949 . S
C599 C607 1.574 . S
C599 C615 1.368 . S
H600 C608 0.950 . S
H601 C606 0.950 . S
H602 C607 0.949 . S
H603 C609 0.950 . S
H604 C610 0.950 . S
H605 C611 0.949 . S
C606 H601 0.950 . S
C606 C608 1.327 . S
C606 C612 1.429 . S
C607 C599 1.574 . S
C607 H602 0.949 . S
C607 C613 1.368 . S
C608 C592 1.349 . S
C608 H600 0.950 . S
C608 C606 1.327 . S
C609 C597 1.349 . S
C609 H603 0.950 . S
C609 C610 1.327 . S
C610 H604 0.950 . S
C610 C609 1.327 . S
C610 C614 1.429 . S
C611 C594 1.574 . S
C611 H605 0.949 . S
C611 C615 1.368 . S
C612 C593 1.429 . S
C612 C606 1.429 . S
C612 C613 1.523 . S
C613 C594 1.368 . S
C613 C607 1.368 . S
C613 C612 1.523 . S
C614 C598 1.429 . S
C614 C610 1.429 . S
C614 C615 1.523 . S
C615 C599 1.368 . S
C615 C611 1.368 . S
C615 C614 1.523 . S
H616 C591 0.950 . S
H617 C593 0.950 1_554 S
H618 C594 0.949 . S
H619 C596 0.950 . S
H620 C598 0.950 . S
C621 C622 1.349 . S
C621 C623 1.327 . S
C621 H646 0.950 . S
C622 C621 1.349 . S
C622 C638 1.349 . S
C623 C621 1.327 . S
C623 C642 1.429 . S
C623 H647 0.950 . S
C624 C641 1.574 . S
C624 C643 1.368 . S
C624 H648 0.949 . S
H625 C629 0.949 . S
C626 C627 1.349 . S
C626 C628 1.327 . S
C626 H649 0.950 . S
C627 C626 1.349 . S
C627 C639 1.349 . S
C628 C626 1.327 . S
C628 C644 1.429 . S
C628 H650 0.950 . S
C629 H625 0.949 . S
C629 C637 1.574 . S
C629 C645 1.368 . S
H630 C638 0.950 . S
H631 C636 0.950 . S
H632 C637 0.949 1_554 S
H633 C639 0.950 . S
H634 C640 0.950 . S
H635 C641 0.949 . S
C636 H631 0.950 . S
C636 C638 1.327 . S
C636 C642 1.429 . S
C637 C629 1.574 . S
C637 H632 0.949 1_556 S
C637 C643 1.368 . S
C638 C622 1.349 . S
C638 H630 0.950 . S
C638 C636 1.327 . S
C639 C627 1.349 . S
C639 H633 0.950 . S
C639 C640 1.327 . S
C640 H634 0.950 . S
C640 C639 1.327 . S
C640 C644 1.429 . S
C641 C624 1.574 . S
C641 H635 0.949 . S
C641 C645 1.368 . S
C642 C623 1.429 . S
C642 C636 1.429 . S
C642 C643 1.523 1_554 S
C643 C624 1.368 . S
C643 C637 1.368 . S
C643 C642 1.523 1_556 S
C644 C628 1.429 . S
C644 C640 1.429 . S
C644 C645 1.523 . S
C645 C629 1.368 . S
C645 C641 1.368 . S
C645 C644 1.523 . S
H646 C621 0.950 . S
H647 C623 0.950 . S
H648 C624 0.949 . S
H649 C626 0.950 . S
H650 C628 0.950 . S
C651 C652 1.349 . S
C651 C653 1.327 1_554 S
C651 H676 0.950 . S
C652 C651 1.349 . S
C652 C668 1.349 . S
C653 C651 1.327 1_556 S
C653 C672 1.429 . S
C653 H677 0.950 . S
C654 C671 1.574 . S
C654 C673 1.368 . S
C654 H678 0.949 . S
H655 C659 0.949 . S
C656 C657 1.349 . S
C656 C658 1.327 . S
C656 H679 0.950 . S
C657 C656 1.349 . S
C657 C669 1.349 . S
C658 C656 1.327 . S
C658 C674 1.429 . S
C658 H680 0.950 . S
C659 H655 0.949 . S
C659 C667 1.574 . S
C659 C675 1.368 . S
H660 C668 0.950 . S
H661 C666 0.950 . S
H662 C667 0.949 . S
H663 C669 0.950 . S
H664 C670 0.950 . S
H665 C671 0.949 . S
C666 H661 0.950 . S
C666 C668 1.327 . S
C666 C672 1.429 1_554 S
C667 C659 1.574 . S
C667 H662 0.949 . S
C667 C673 1.368 . S
C668 C652 1.349 . S
C668 H660 0.950 . S
C668 C666 1.327 . S
C669 C657 1.349 . S
C669 H663 0.950 . S
C669 C670 1.327 . S
C670 H664 0.950 . S
C670 C669 1.327 . S
C670 C674 1.429 . S
C671 C654 1.574 . S
C671 H665 0.949 . S
C671 C675 1.368 . S
C672 C653 1.429 . S
C672 C666 1.429 1_556 S
C672 C673 1.523 . S
C673 C654 1.368 . S
C673 C667 1.368 . S
C673 C672 1.523 . S
C674 C658 1.429 . S
C674 C670 1.429 . S
C674 C675 1.523 . S
C675 C659 1.368 . S
C675 C671 1.368 . S
C675 C674 1.523 . S
H676 C651 0.950 . S
H677 C653 0.950 . S
H678 C654 0.949 . S
H679 C656 0.950 . S
H680 C658 0.950 . S
C681 C682 1.349 1_556 S
C681 C683 1.327 . S
C681 H706 0.950 . S
C682 C681 1.349 1_554 S
C682 C698 1.349 . S
C683 C681 1.327 . S
C683 C702 1.429 . S
C683 H707 0.950 . S
C684 C701 1.574 . S
C684 C703 1.368 . S
C684 H708 0.949 . S
H685 C689 0.949 . S
C686 C687 1.349 . S
C686 C688 1.327 . S
C686 H709 0.950 . S
C687 C686 1.349 . S
C687 C699 1.349 . S
C688 C686 1.327 . S
C688 C704 1.429 . S
C688 H710 0.950 . S
C689 H685 0.949 . S
C689 C697 1.574 . S
C689 C705 1.368 . S
H690 C698 0.950 . S
H691 C696 0.950 . S
H692 C697 0.949 . S
H693 C699 0.950 . S
H694 C700 0.950 . S
H695 C701 0.949 . S
C696 H691 0.950 . S
C696 C698 1.327 . S
C696 C702 1.429 1_554 S
C697 C689 1.574 . S
C697 H692 0.949 . S
C697 C703 1.368 . S
C698 C682 1.349 . S
C698 H690 0.950 . S
C698 C696 1.327 . S
C699 C687 1.349 . S
C699 H693 0.950 . S
C699 C700 1.327 . S
C700 H694 0.950 . S
C700 C699 1.327 . S
C700 C704 1.429 . S
C701 C684 1.574 . S
C701 H695 0.949 . S
C701 C705 1.368 . S
C702 C683 1.429 . S
C702 C696 1.429 1_556 S
C702 C703 1.523 . S
C703 C684 1.368 . S
C703 C697 1.368 . S
C703 C702 1.523 . S
C704 C688 1.429 . S
C704 C700 1.429 . S
C704 C705 1.523 . S
C705 C689 1.368 . S
C705 C701 1.368 . S
C705 C704 1.523 . S
H706 C681 0.950 . S
H707 C683 0.950 . S
H708 C684 0.949 . S
H709 C686 0.950 . S
H710 C688 0.950 . S
C711 C712 1.349 . S
C711 C713 1.327 . S
C711 H736 0.950 . S
C712 C711 1.349 . S
C712 C728 1.349 . S
C713 C711 1.327 . S
C713 C732 1.429 . S
C713 H737 0.950 . S
C714 C731 1.574 . S
C714 C733 1.368 . S
C714 H738 0.949 . S
H715 C719 0.949 . S
C716 C717 1.349 . S
C716 C718 1.327 . S
C716 H739 0.950 . S
C717 C716 1.349 . S
C717 C729 1.349 . S
C718 C716 1.327 . S
C718 C734 1.429 . S
C718 H740 0.950 . S
C719 H715 0.949 . S
C719 C727 1.574 . S
C719 C735 1.368 . S
H720 C728 0.950 . S
H721 C726 0.950 . S
H722 C727 0.949 . S
H723 C729 0.950 . S
H724 C730 0.950 . S
H725 C731 0.949 . S
C726 H721 0.950 . S
C726 C728 1.327 . S
C726 C732 1.429 . S
C727 C719 1.574 . S
C727 H722 0.949 . S
C727 C733 1.368 . S
C728 C712 1.349 . S
C728 H720 0.950 . S
C728 C726 1.327 . S
C729 C717 1.349 . S
C729 H723 0.950 . S
C729 C730 1.327 . S
C730 H724 0.950 . S
C730 C729 1.327 . S
C730 C734 1.429 . S
C731 C714 1.574 . S
C731 H725 0.949 . S
C731 C735 1.368 . S
C732 C713 1.429 . S
C732 C726 1.429 . S
C732 C733 1.523 . S
C733 C714 1.368 . S
C733 C727 1.368 . S
C733 C732 1.523 . S
C734 C718 1.429 . S
C734 C730 1.429 . S
C734 C735 1.523 . S
C735 C719 1.368 . S
C735 C731 1.368 . S
C735 C734 1.523 . S
H736 C711 0.950 . S
H737 C713 0.950 . S
H738 C714 0.949 . S
H739 C716 0.950 . S
H740 C718 0.950 . S
C741 C742 1.349 . S
C741 C743 1.327 . S
C741 H766 0.950 . S
C742 C741 1.349 . S
C742 C758 1.349 . S
C743 C741 1.327 . S
C743 C762 1.429 . S
C743 H767 0.950 . S
C744 C761 1.574 . S
C744 C763 1.368 . S
C744 H768 0.949 . S
H745 C749 0.949 . S
C746 C747 1.349 . S
C746 C748 1.327 . S
C746 H769 0.950 . S
C747 C746 1.349 . S
C747 C759 1.349 . S
C748 C746 1.327 . S
C748 C764 1.429 . S
C748 H770 0.950 . S
C749 H745 0.949 . S
C749 C757 1.574 . S
C749 C765 1.368 . S
H750 C758 0.950 . S
H751 C756 0.950 . S
H752 C757 0.949 . S
H753 C759 0.950 . S
H754 C760 0.950 . S
H755 C761 0.949 . S
C756 H751 0.950 . S
C756 C758 1.327 . S
C756 C762 1.429 . S
C757 C749 1.574 . S
C757 H752 0.949 . S
C757 C763 1.368 . S
C758 C742 1.349 . S
C758 H750 0.950 . S
C758 C756 1.327 . S
C759 C747 1.349 . S
C759 H753 0.950 . S
C759 C760 1.327 . S
C760 H754 0.950 . S
C760 C759 1.327 . S
C760 C764 1.429 . S
C761 C744 1.574 . S
C761 H755 0.949 . S
C761 C765 1.368 . S
C762 C743 1.429 . S
C762 C756 1.429 . S
C762 C763 1.523 . S
C763 C744 1.368 . S
C763 C757 1.368 . S
C763 C762 1.523 . S
C764 C748 1.429 . S
C764 C760 1.429 . S
C764 C765 1.523 . S
C765 C749 1.368 . S
C765 C761 1.368 . S
C765 C764 1.523 . S
H766 C741 0.950 . S
H767 C743 0.950 . S
H768 C744 0.949 . S
H769 C746 0.950 . S
H770 C748 0.950 . S
C771 C772 1.349 . S
C771 C773 1.327 . S
C771 H796 0.950 . S
C772 C771 1.349 . S
C772 C788 1.349 . S
C773 C771 1.327 . S
C773 C792 1.429 . S
C773 H797 0.950 . S
C774 C791 1.574 . S
C774 C793 1.368 . S
C774 H798 0.949 . S
H775 C779 0.949 . S
C776 C777 1.349 . S
C776 C778 1.327 . S
C776 H799 0.950 . S
C777 C776 1.349 . S
C777 C789 1.349 . S
C778 C776 1.327 . S
C778 C794 1.429 . S
C778 H800 0.950 . S
C779 H775 0.949 . S
C779 C787 1.574 . S
C779 C795 1.368 . S
H780 C788 0.950 . S
H781 C786 0.950 . S
H782 C787 0.949 . S
H783 C789 0.950 . S
H784 C790 0.950 . S
H785 C791 0.949 . S
C786 H781 0.950 . S
C786 C788 1.327 . S
C786 C792 1.429 . S
C787 C779 1.574 . S
C787 H782 0.949 . S
C787 C793 1.368 . S
C788 C772 1.349 . S
C788 H780 0.950 . S
C788 C786 1.327 . S
C789 C777 1.349 . S
C789 H783 0.950 . S
C789 C790 1.327 . S
C790 H784 0.950 . S
C790 C789 1.327 . S
C790 C794 1.429 . S
C791 C774 1.574 . S
C791 H785 0.949 . S
C791 C795 1.368 . S
C792 C773 1.429 . S
C792 C786 1.429 . S
C792 C793 1.523 . S
C793 C774 1.368 . S
C793 C787 1.368 . S
C793 C792 1.523 . S
C794 C778 1.429 . S
C794 C790 1.429 . S
C794 C795 1.523 . S
C795 C779 1.368 . S
C795 C791 1.368 . S
C795 C794 1.523 . S
H796 C771 0.950 . S
H797 C773 0.950 . S
H798 C774 0.949 . S
H799 C776 0.950 . S
H800 C778 0.950 . S
C801 C802 1.349 . S
C801 C803 1.327 . S
C801 H826 0.950 . S
C802 C801 1.349 . S
C802 C818 1.349 . S
C803 C801 1.327 . S
C803 C822 1.429 . S
C803 H827 0.950 . S
C804 C821 1.574 . S
C804 C823 1.368 . S
C804 H828 0.949 . S
H805 C809 0.949 . S
C806 C807 1.349 . S
C806 C808 1.327 . S
C806 H829 0.950 . S
C807 C806 1.349 . S
C807 C819 1.349 . S
C808 C806 1.327 . S
C808 C824 1.429 . S
C808 H830 0.950 . S
C809 H805 0.949 . S
C809 C817 1.574 . S
C809 C825 1.368 . S
H810 C818 0.950 . S
H811 C816 0.950 . S
H812 C817 0.949 . S
H813 C819 0.950 . S
H814 C820 0.950 . S
H815 C821 0.949 . S
C816 H811 0.950 . S
C816 C818 1.327 . S
C816 C822 1.429 . S
C817 C809 1.574 . S
C817 H812 0.949 . S
C817 C823 1.368 . S
C818 C802 1.349 . S
C818 H810 0.950 . S
C818 C816 1.327 . S
C819 C807 1.349 . S
C819 H813 0.950 . S
C819 C820 1.327 . S
C820 H814 0.950 . S
C820 C819 1.327 . S
C820 C824 1.429 . S
C821 C804 1.574 . S
C821 H815 0.949 . S
C821 C825 1.368 . S
C822 C803 1.429 . S
C822 C816 1.429 . S
C822 C823 1.523 . S
C823 C804 1.368 . S
C823 C817 1.368 . S
C823 C822 1.523 . S
C824 C808 1.429 . S
C824 C820 1.429 . S
C824 C825 1.523 . S
C825 C809 1.368 . S
C825 C821 1.368 . S
C825 C824 1.523 . S
H826 C801 0.950 . S
H827 C803 0.950 . S
H828 C804 0.949 . S
H829 C806 0.950 . S
H830 C808 0.950 . S
C831 C832 1.349 . S
C831 C833 1.327 . S
C831 H856 0.950 . S
C832 C831 1.349 . S
C832 C848 1.349 . S
C833 C831 1.327 . S
C833 C852 1.429 . S
C833 H857 0.950 . S
C834 C851 1.574 . S
C834 C853 1.368 . S
C834 H858 0.949 . S
H835 C839 0.949 . S
C836 C837 1.349 . S
C836 C838 1.327 . S
C836 H859 0.950 . S
C837 C836 1.349 . S
C837 C849 1.349 . S
C838 C836 1.327 . S
C838 C854 1.429 . S
C838 H860 0.950 . S
C839 H835 0.949 . S
C839 C847 1.574 . S
C839 C855 1.368 . S
H840 C848 0.950 . S
H841 C846 0.950 . S
H842 C847 0.949 . S
H843 C849 0.950 . S
H844 C850 0.950 . S
H845 C851 0.949 . S
C846 H841 0.950 . S
C846 C848 1.327 . S
C846 C852 1.429 . S
C847 C839 1.574 . S
C847 H842 0.949 . S
C847 C853 1.368 . S
C848 C832 1.349 . S
C848 H840 0.950 . S
C848 C846 1.327 . S
C849 C837 1.349 . S
C849 H843 0.950 . S
C849 C850 1.327 . S
C850 H844 0.950 . S
C850 C849 1.327 . S
C850 C854 1.429 . S
C851 C834 1.574 . S
C851 H845 0.949 . S
C851 C855 1.368 . S
C852 C833 1.429 . S
C852 C846 1.429 . S
C852 C853 1.523 . S
C853 C834 1.368 . S
C853 C847 1.368 . S
C853 C852 1.523 . S
C854 C838 1.429 . S
C854 C850 1.429 . S
C854 C855 1.523 . S
C855 C839 1.368 . S
C855 C851 1.368 . S
C855 C854 1.523 . S
H856 C831 0.950 . S
H857 C833 0.950 . S
H858 C834 0.949 . S
H859 C836 0.950 . S
H860 C838 0.950 . S
C861 C862 1.349 . S
C861 C863 1.327 . S
C861 H886 0.950 . S
C862 C861 1.349 . S
C862 C878 1.349 . S
C863 C861 1.327 . S
C863 C882 1.429 . S
C863 H887 0.950 . S
C864 C881 1.574 . S
C864 C883 1.368 . S
C864 H888 0.949 . S
H865 C869 0.949 . S
C866 C867 1.349 . S
C866 C868 1.327 . S
C866 H889 0.950 . S
C867 C866 1.349 . S
C867 C879 1.349 . S
C868 C866 1.327 . S
C868 C884 1.429 . S
C868 H890 0.950 . S
C869 H865 0.949 . S
C869 C877 1.574 . S
C869 C885 1.368 . S
H870 C878 0.950 . S
H871 C876 0.950 . S
H872 C877 0.949 . S
H873 C879 0.950 . S
H874 C880 0.950 . S
H875 C881 0.949 . S
C876 H871 0.950 . S
C876 C878 1.327 . S
C876 C882 1.429 . S
C877 C869 1.574 . S
C877 H872 0.949 . S
C877 C883 1.368 . S
C878 C862 1.349 . S
C878 H870 0.950 . S
C878 C876 1.327 . S
C879 C867 1.349 . S
C879 H873 0.950 . S
C879 C880 1.327 . S
C880 H874 0.950 . S
C880 C879 1.327 . S
C880 C884 1.429 . S
C881 C864 1.574 . S
C881 H875 0.949 . S
C881 C885 1.368 . S
C882 C863 1.429 . S
C882 C876 1.429 . S
C882 C883 1.523 . S
C883 C864 1.368 . S
C883 C877 1.368 . S
C883 C882 1.523 . S
C884 C868 1.429 . S
C884 C880 1.429 . S
C884 C885 1.523 . S
C885 C869 1.368 . S
C885 C881 1.368 . S
C885 C884 1.523 . S
H886 C861 0.950 . S
H887 C863 0.950 . S
H888 C864 0.949 . S
H889 C866 0.950 . S
H890 C868 0.950 . S
C891 C892 1.349 . S
C891 C893 1.327 . S
C891 H916 0.950 . S
C892 C891 1.349 . S
C892 C908 1.349 . S
C893 C891 1.327 . S
C893 C912 1.429 . S
C893 H917 0.950 . S
C894 C911 1.574 . S
C894 C913 1.368 . S
C894 H918 0.949 . S
H895 C899 0.949 . S
C896 C897 1.349 . S
C896 C898 1.327 . S
C896 H919 0.950 . S
C897 C896 1.349 . S
C897 C909 1.349 . S
C898 C896 1.327 . S
C898 C914 1.429 . S
C898 H920 0.950 . S
C899 H895 0.949 . S
C899 C907 1.574 . S
C899 C915 1.368 . S
H900 C908 0.950 . S
H901 C906 0.950 . S
H902 C907 0.949 . S
H903 C909 0.950 . S
H904 C910 0.950 . S
H905 C911 0.949 . S
C906 H901 0.950 . S
C906 C908 1.327 . S
C906 C912 1.429 . S
C907 C899 1.574 . S
C907 H902 0.949 . S
C907 C913 1.368 . S
C908 C892 1.349 . S
C908 H900 0.950 . S
C908 C906 1.327 . S
C909 C897 1.349 . S
C909 H903 0.950 . S
C909 C910 1.327 . S
C910 H904 0.950 . S
C910 C909 1.327 . S
C910 C914 1.429 . S
C911 C894 1.574 . S
C911 H905 0.949 . S
C911 C915 1.368 . S
C912 C893 1.429 . S
C912 C906 1.429 . S
C912 C913 1.523 . S
C913 C894 1.368 . S
C913 C907 1.368 . S
C913 C912 1.523 . S
C914 C898 1.429 . S
C914 C910 1.429 . S
C914 C915 1.523 . S
C915 C899 1.368 . S
C915 C911 1.368 . S
C915 C914 1.523 . S
H916 C891 0.950 . S
H917 C893 0.950 . S
H918 C894 0.949 . S
H919 C896 0.950 . S
H920 C898 0.950 . S
C202 C16 1.837 . S
C207 C119 1.854 . S
C232 C26 1.664 . S
C237 C166 1.685 . S
C267 C170 1.899 . S
C262 C52 1.905 . S
C297 C135 1.580 . S
C292 C62 1.582 . S
C322 C80 1.773 . S
C327 C150 1.748 . S
C357 C172 1.028 . S
C352 C98 1.022 . S
C387 C141 1.469 . S
C382 C43 1.454 . S
C412 C68 1.415 1_556 S
C417 C181 1.422 . S
C447 C110 1.336 . S
C442 C86 1.352 1_556 S
C472 C104 1.521 . S
C477 C139 1.507 . S
C502 C7 1.988 . S
C507 C197 1.991 . S
C537 C108 1.601 . S
C532 C32 1.597 . S
C567 C126 1.821 . S
C562 C61 1.831 1_556 S
C597 C140 1.672 . S
C592 C79 1.651 1_556 S
C627 C194 1.881 . S
C622 C97 1.902 . S
C657 C109 1.566 . S
C652 C14 1.566 . S
C687 C157 1.717 . S
C682 C25 1.751 . S
C712 C50 1.002 . S
C717 C180 1.009 . S
C747 C149 1.437 . S
C742 C106 1.438 . S
C777 C188 1.371 . S
C772 C8 1.370 . S
C807 C118 1.297 . S
C802 C34 1.318 . S
C837 C163 1.477 . S
C832 C44 1.490 . S
C862 C70 1.977 . S
C867 C171 1.964 . S
C892 C88 1.569 . S
C897 C132 1.570 . S
