# Generated by pormake.
# Topology rtl, (3,6)-cn, num edge types: 1
# Building blocks:
#     Node 0, Type 0, BuildingBlock: MIDCAF_clean_linker_0, # of connection points: 3
#     Node 1, Type 0, BuildingBlock: MIDCAF_clean_linker_0, # of connection points: 3
#     Node 2, Type 0, BuildingBlock: MIDCAF_clean_linker_0, # of connection points: 3
#     Node 3, Type 0, BuildingBlock: MIDCAF_clean_linker_0, # of connection points: 3
#     Node 4, Type 1, BuildingBlock: LEVNOQ01_clean_sbu_1, # of connection points: 6
#     Node 5, Type 1, BuildingBlock: LEVNOQ01_clean_sbu_1, # of connection points: 6
#     Edge 6, Type (0, 1), BuildingBlock: FUNLAD_clean_linker_0, # of connection points: 2
#     Edge 7, Type (0, 1), BuildingBlock: FUNLAD_clean_linker_0, # of connection points: 2
#     Edge 8, Type (0, 1), BuildingBlock: FUNLAD_clean_linker_0, # of connection points: 2
#     Edge 9, Type (0, 1), BuildingBlock: FUNLAD_clean_linker_0, # of connection points: 2
#     Edge 10, Type (0, 1), BuildingBlock: FUNLAD_clean_linker_0, # of connection points: 2
#     Edge 11, Type (0, 1), BuildingBlock: FUNLAD_clean_linker_0, # of connection points: 2
#     Edge 12, Type (0, 1), BuildingBlock: FUNLAD_clean_linker_0, # of connection points: 2
#     Edge 13, Type (0, 1), BuildingBlock: FUNLAD_clean_linker_0, # of connection points: 2
#     Edge 14, Type (0, 1), BuildingBlock: FUNLAD_clean_linker_0, # of connection points: 2
#     Edge 15, Type (0, 1), BuildingBlock: FUNLAD_clean_linker_0, # of connection points: 2
#     Edge 16, Type (0, 1), BuildingBlock: FUNLAD_clean_linker_0, # of connection points: 2
#     Edge 17, Type (0, 1), BuildingBlock: FUNLAD_clean_linker_0, # of connection points: 2
# Relax obj value: 0.027
# Max RMSD: 0.061
# Mean RMSD: 0.047
data_MOF--net-rtl--node1-LEVNOQ01_clean_sbu_1--node2-MIDCAF_clean_linker_0--edge1-FUNLAD_clean_linker_0
_symmetry_space_group_name_H-M    P1
_symmetry_Int_Tables_number       1
_symmetry_cell_setting            triclinic
loop_
_symmetry_equiv_pos_as_xyz
'x, y, z'
_cell_length_a     42.081486
_cell_length_b     47.805341
_cell_length_c     33.65962
_cell_angle_alpha  90.024973
_cell_angle_beta   97.853674
_cell_angle_gamma 89.627313
loop_
_atom_site_label
_atom_site_type_symbol
_atom_site_fract_x
_atom_site_fract_y
_atom_site_fract_z
_atom_type_partial_charge
C0 C 0.22255 0.94816 0.19575 0.0
C1 C 0.23679 0.93894 0.23378 0.0
C2 C 0.26437 0.92192 0.23634 0.0
C3 C 0.27666 0.91339 0.20176 0.0
H4 H 0.32842 0.84846 0.16447 0.0
H5 H 0.35593 0.80334 0.16838 0.0
H6 H 0.35526 0.80405 0.04 0.0
H7 H 0.32735 0.84889 0.03577 0.0
H8 H 0.27827 0.88671 0.98315 0.0
H9 H 0.25171 0.90073 0.91731 0.0
H10 H 0.20115 0.96612 0.97194 0.0
H11 H 0.22801 0.95249 0.03779 0.0
H12 H 0.22285 0.9466 0.13222 0.0
H13 H 0.20115 0.96111 0.19262 0.0
H14 H 0.27639 0.91491 0.26516 0.0
H15 H 0.2976 0.89986 0.20502 0.0
N16 N 0.29474 0.88904 0.12978 0.0
N17 N 0.29152 0.88734 0.05983 0.0
N18 N 0.26097 0.92031 0.09001 0.0
C19 C 0.30406 0.87734 0.09644 0.0
C20 C 0.27009 0.90887 0.05629 0.0
C21 C 0.27331 0.91059 0.12692 0.0
C22 C 0.32505 0.85214 0.09969 0.0
C23 C 0.3345 0.83924 0.13708 0.0
C24 C 0.35047 0.81342 0.13942 0.0
C25 C 0.35732 0.79995 0.10444 0.0
C26 C 0.34971 0.81367 0.0674 0.0
C27 C 0.33378 0.83944 0.06503 0.0
C28 C 0.25523 0.91839 0.01597 0.0
C29 C 0.26166 0.90421 0.98123 0.0
C30 C 0.24626 0.9121 0.94342 0.0
C31 C 0.22419 0.93443 0.93938 0.0
C32 C 0.21825 0.94898 0.97397 0.0
C33 C 0.23356 0.94104 0.0118 0.0
C34 C 0.26181 0.92178 0.16362 0.0
C35 C 0.23495 0.93972 0.16106 0.0
C36 C 0.68641 0.59276 0.46627 0.0
C37 C 0.69736 0.60267 0.43124 0.0
C38 C 0.72511 0.61928 0.4351 0.0
C39 C 0.74095 0.62637 0.47301 0.0
H40 H 0.79144 0.69191 0.52975 0.0
H41 H 0.82219 0.73469 0.53631 0.0
H42 H 0.84276 0.72198 0.66437 0.0
H43 H 0.81103 0.67925 0.65803 0.0
H44 H 0.76789 0.63518 0.69796 0.0
H45 H 0.74684 0.6162 0.75625 0.0
H46 H 0.68593 0.56055 0.67894 0.0
H47 H 0.70749 0.57873 0.62116 0.0
H48 H 0.69286 0.59189 0.53028 0.0
H49 H 0.66483 0.58036 0.46468 0.0
H50 H 0.73463 0.62687 0.40885 0.0
H51 H 0.762 0.63948 0.47488 0.0
N52 N 0.76546 0.64757 0.55232 0.0
N53 N 0.7701 0.64379 0.62238 0.0
N54 N 0.73725 0.61286 0.58156 0.0
C55 C 0.77812 0.65682 0.58929 0.0
C56 C 0.74974 0.6217 0.61874 0.0
C57 C 0.74505 0.62556 0.5482 0.0
C58 C 0.79867 0.68203 0.59335 0.0
C59 C 0.80263 0.69801 0.55936 0.0
C60 C 0.82048 0.72256 0.5631 0.0
C61 C 0.83512 0.73175 0.60088 0.0
C62 C 0.83152 0.71566 0.6349 0.0
C63 C 0.81347 0.69106 0.63118 0.0
C64 C 0.73924 0.60868 0.65472 0.0
C65 C 0.75031 0.61864 0.69345 0.0
C66 C 0.73812 0.60786 0.72689 0.0
C67 C 0.71459 0.58691 0.72236 0.0
C68 C 0.70437 0.57635 0.68376 0.0
C69 C 0.71659 0.58702 0.65043 0.0
C70 C 0.72962 0.61677 0.50794 0.0
C71 C 0.70244 0.59954 0.50408 0.0
C72 C 0.7983 0.0859 0.8911 0.0
C73 C 0.78729 0.09736 0.85322 0.0
C74 C 0.76363 0.1184 0.85029 0.0
C75 C 0.75206 0.12851 0.88452 0.0
H76 H 0.68273 0.18057 0.92268 0.0
H77 H 0.64767 0.22166 0.91441 0.0
H78 H 0.68063 0.24633 0.03636 0.0
H79 H 0.71562 0.20524 0.04494 0.0
H80 H 0.76546 0.16602 0.09906 0.0
H81 H 0.79489 0.15345 0.16433 0.0
H82 H 0.81998 0.07363 0.11706 0.0
H83 H 0.79102 0.08618 0.05144 0.0
H84 H 0.79645 0.08732 0.95431 0.0
H85 H 0.81669 0.06979 0.89437 0.0
H86 H 0.75431 0.12737 0.82146 0.0
H87 H 0.73433 0.14516 0.881 0.0
N88 N 0.73237 0.15217 0.95583 0.0
N89 N 0.73868 0.15715 0.02571 0.0
N90 N 0.76746 0.12237 0.99633 0.0
C91 C 0.72458 0.16547 0.98885 0.0
C92 C 0.75994 0.13547 0.02972 0.0
C93 C 0.75382 0.13065 0.95922 0.0
C94 C 0.70213 0.18965 0.98444 0.0
C95 C 0.68246 0.19468 0.94782 0.0
C96 C 0.66226 0.21812 0.94308 0.0
C97 C 0.66162 0.23723 0.97464 0.0
C98 C 0.68094 0.23207 0.01139 0.0
C99 C 0.70082 0.20844 0.01634 0.0
C100 C 0.77602 0.12715 0.06994 0.0
C101 C 0.77702 0.14569 0.10256 0.0
C102 C 0.79393 0.13859 0.13989 0.0
C103 C 0.80963 0.11263 0.14555 0.0
C104 C 0.80786 0.09372 0.11342 0.0
C105 C 0.79144 0.101 0.07586 0.0
C106 C 0.76394 0.11788 0.92267 0.0
C107 C 0.7868 0.09609 0.92548 0.0
C108 C 0.28712 0.43948 0.61432 0.0
C109 C 0.27826 0.42507 0.64753 0.0
C110 C 0.25435 0.40458 0.64089 0.0
C111 C 0.23995 0.39834 0.60211 0.0
H112 H 0.16851 0.35005 0.54066 0.0
H113 H 0.1358 0.30801 0.53321 0.0
H114 H 0.15358 0.29976 0.41044 0.0
H115 H 0.18632 0.34191 0.41762 0.0
H116 H 0.21247 0.39517 0.37859 0.0
H117 H 0.2364 0.40906 0.32009 0.0
H118 H 0.30484 0.46 0.39469 0.0
H119 H 0.28071 0.4463 0.45373 0.0
H120 H 0.28031 0.44449 0.55045 0.0
H121 H 0.30515 0.45567 0.61844 0.0
H122 H 0.24722 0.3928 0.66565 0.0
H123 H 0.22195 0.38212 0.59841 0.0
N124 N 0.21349 0.38293 0.52229 0.0
N125 N 0.21162 0.38622 0.45272 0.0
N126 N 0.24479 0.41634 0.49472 0.0
C127 C 0.20169 0.37384 0.48503 0.0
C128 C 0.23296 0.40757 0.45713 0.0
C129 C 0.23501 0.40415 0.52752 0.0
C130 C 0.18011 0.34937 0.47978 0.0
C131 C 0.16531 0.33944 0.51196 0.0
C132 C 0.14643 0.31543 0.50765 0.0
C133 C 0.14218 0.30065 0.47122 0.0
C134 C 0.15664 0.31068 0.43889 0.0
C135 C 0.17521 0.33491 0.44302 0.0
C136 C 0.24501 0.41919 0.42116 0.0
C137 C 0.23239 0.40959 0.38273 0.0
C138 C 0.24614 0.41749 0.34906 0.0
C139 C 0.27279 0.43527 0.35285 0.0
C140 C 0.28425 0.4463 0.39082 0.0
C141 C 0.27051 0.43832 0.42469 0.0
C142 C 0.24913 0.41233 0.56875 0.0
C143 C 0.2727 0.43319 0.57535 0.0
O144 O 0.96581 0.05751 0.60436 0.0
Mg145 Mg 0.01297 0.04824 0.59796 0.0
O146 O 0.96176 0.01496 0.58054 0.0
Mg147 Mg 0.00506 0.00959 0.54163 0.0
O148 O 0.02797 0.0557 0.54356 0.0
O149 O 0.03522 0.08465 0.5966 0.0
O150 O 0.0487 0.00474 0.5019 0.0
O151 O 0.96964 0.02738 0.48875 0.0
Mg152 Mg 0.00365 0.97258 0.49074 0.0
O153 O 0.97973 0.96454 0.53864 0.0
O154 O 0.05138 0.9595 0.49589 0.0
O155 O 0.98611 0.0004 0.44314 0.0
O156 O 0.97532 0.93905 0.48201 0.0
C157 C 0.05063 0.00023 0.6301 0.0
C158 C 0.94979 0.03553 0.59776 0.0
C159 C 0.03821 0.07938 0.55977 0.0
C160 C 0.06402 0.98302 0.4927 0.0
C161 C 0.96962 0.02107 0.45209 0.0
C162 C 0.968 0.94325 0.51744 0.0
O163 O 0.04146 0.02394 0.64062 0.0
O164 O 0.04084 0.99085 0.59515 0.0
O165 O 0.562 0.50365 0.12229 0.0
Mg166 Mg 0.52977 0.4727 0.09881 0.0
O167 O 0.53052 0.53555 0.08922 0.0
Mg168 Mg 0.49521 0.51424 0.0379 0.0
O169 O 0.52303 0.47181 0.0375 0.0
O170 O 0.54886 0.43821 0.07606 0.0
O171 O 0.4594 0.49323 0.98566 0.0
O172 O 0.52898 0.52989 0.99342 0.0
Mg173 Mg 0.45879 0.55709 0.97686 0.0
O174 O 0.46872 0.55659 0.03778 0.0
O175 O 0.42634 0.52579 0.95676 0.0
O176 O 0.50159 0.55935 0.9504 0.0
O177 O 0.44167 0.59133 0.00379 0.0
C178 C 0.46175 0.48211 0.11215 0.0
C179 C 0.55439 0.52894 0.11518 0.0
C180 C 0.53881 0.44823 0.04097 0.0
C181 C 0.43452 0.50038 0.96143 0.0
C182 C 0.52725 0.54618 0.96315 0.0
C183 C 0.45379 0.58042 0.03756 0.0
O184 O 0.48694 0.46807 0.12381 0.0
O185 O 0.46087 0.49925 0.08289 0.0
C186 C 0.13597 0.24999 0.45214 0.0
C187 C 0.1235 0.27439 0.46771 0.0
C188 C 0.12003 0.22443 0.45343 0.0
C189 C 0.09112 0.22296 0.47003 0.0
C190 C 0.07787 0.24778 0.48328 0.0
C191 C 0.09391 0.27314 0.48235 0.0
C192 C 0.07569 0.19618 0.47882 0.0
C193 C 0.08705 0.17028 0.47277 0.0
C194 C 0.07556 0.14608 0.49433 0.0
C195 C 0.06961 0.11994 0.47572 0.0
C196 C 0.05767 0.09774 0.49669 0.0
C197 C 0.05225 0.10141 0.53673 0.0
H198 H 0.07678 0.16872 0.55039 0.0
C199 C 0.05975 0.12728 0.55548 0.0
C200 C 0.07123 0.14919 0.53467 0.0
H201 H 0.05638 0.13094 0.58639 0.0
H202 H 0.15882 0.2504 0.44074 0.0
H203 H 0.13116 0.20596 0.4428 0.0
H204 H 0.05562 0.2474 0.49611 0.0
H205 H 0.08352 0.2917 0.494 0.0
H206 H 0.05515 0.19793 0.49515 0.0
H207 H 0.10602 0.16676 0.45454 0.0
H208 H 0.07344 0.11692 0.44483 0.0
H209 H 0.05247 0.07795 0.48159 0.0
C210 C 0.39373 0.76154 0.13616 0.0
C211 C 0.36941 0.77066 0.10596 0.0
C212 C 0.4038 0.73348 0.13794 0.0
C213 C 0.3895 0.71405 0.10961 0.0
C214 C 0.36511 0.72328 0.07976 0.0
C215 C 0.35528 0.75117 0.07783 0.0
C216 C 0.39876 0.68401 0.10952 0.0
C217 C 0.42721 0.67338 0.12638 0.0
C218 C 0.43706 0.6446 0.11626 0.0
C219 C 0.46842 0.63999 0.10775 0.0
C220 C 0.47563 0.61613 0.0865 0.0
C221 C 0.45162 0.59657 0.07404 0.0
H222 H 0.39038 0.62547 0.11624 0.0
C223 C 0.42159 0.5993 0.08723 0.0
C224 C 0.41444 0.623 0.10867 0.0
H225 H 0.40268 0.58451 0.0776 0.0
H226 H 0.40499 0.7761 0.15833 0.0
H227 H 0.4223 0.72711 0.16179 0.0
H228 H 0.35355 0.70882 0.05762 0.0
H229 H 0.33603 0.75734 0.05471 0.0
H230 H 0.38235 0.67044 0.09078 0.0
H231 H 0.44526 0.68702 0.14208 0.0
H232 H 0.4864 0.65613 0.11375 0.0
H233 H 0.49882 0.61455 0.07605 0.0
C234 C 0.87262 0.76537 0.5747 0.0
C235 C 0.85353 0.75829 0.60429 0.0
C236 C 0.88716 0.79146 0.57498 0.0
C237 C 0.88314 0.81112 0.60496 0.0
C238 C 0.86591 0.80355 0.63609 0.0
C239 C 0.85098 0.77739 0.63562 0.0
C240 C 0.89624 0.8397 0.6027 0.0
C241 C 0.89236 0.85338 0.5674 0.0
C242 C 0.90898 0.87943 0.55809 0.0
C243 C 0.90517 0.88789 0.51782 0.0
C244 C 0.92355 0.90938 0.50533 0.0
C245 C 0.94598 0.92336 0.53289 0.0
H246 H 0.93355 0.88891 0.61776 0.0
C247 C 0.94837 0.9165 0.57377 0.0
C248 C 0.93015 0.89448 0.58634 0.0
H249 H 0.9654 0.92715 0.59561 0.0
H250 H 0.87597 0.75086 0.55087 0.0
H251 H 0.90125 0.79643 0.55131 0.0
H252 H 0.86285 0.81829 0.65975 0.0
H253 H 0.83644 0.7726 0.65888 0.0
H254 H 0.90918 0.84886 0.62958 0.0
H255 H 0.87742 0.84357 0.54232 0.0
H256 H 0.88887 0.87699 0.49537 0.0
H257 H 0.92077 0.91456 0.4737 0.0
C258 C 0.65424 0.28896 0.98095 0.0
C259 C 0.64131 0.26277 0.9691 0.0
C260 C 0.63506 0.31302 0.97671 0.0
C261 C 0.60242 0.31136 0.96071 0.0
C262 C 0.58953 0.28517 0.94885 0.0
C263 C 0.60887 0.26113 0.95253 0.0
C264 C 0.58077 0.33604 0.96045 0.0
C265 C 0.59076 0.36245 0.95578 0.0
C266 C 0.57299 0.38779 0.96667 0.0
C267 C 0.59051 0.41244 0.97583 0.0
C268 C 0.57745 0.43445 0.99577 0.0
C269 C 0.54648 0.43233 0.0063 0.0
H270 H 0.5257 0.36916 0.96515 0.0
C271 C 0.52758 0.40922 0.99318 0.0
C272 C 0.54059 0.38717 0.97314 0.0
H273 H 0.50373 0.40709 0.0015 0.0
H274 H 0.6792 0.29081 0.99371 0.0
H275 H 0.6456 0.33268 0.98741 0.0
H276 H 0.56435 0.28326 0.93709 0.0
H277 H 0.59826 0.24114 0.94346 0.0
H278 H 0.55669 0.33204 0.96697 0.0
H279 H 0.6148 0.3656 0.94827 0.0
H280 H 0.61535 0.41374 0.9708 0.0
H281 H 0.59262 0.45191 0.00632 0.0
C282 C 0.20907 0.97252 0.27598 0.0
C283 C 0.22223 0.94588 0.27054 0.0
C284 C 0.19493 0.97858 0.3104 0.0
C285 C 0.19355 0.95802 0.34009 0.0
C286 C 0.20707 0.93158 0.33472 0.0
C287 C 0.22104 0.92553 0.30041 0.0
C288 C 0.17804 0.96265 0.37683 0.0
C289 C 0.1562 0.9829 0.38095 0.0
C290 C 0.13684 0.98393 0.41497 0.0
C291 C 0.12036 0.00874 0.42219 0.0
C292 C 0.09834 0.00927 0.44995 0.0
C293 C 0.09211 0.98484 0.47068 0.0
H294 H 0.14311 0.94015 0.43265 0.0
C295 C 0.10987 0.96051 0.46512 0.0
C296 C 0.1318 0.95997 0.43757 0.0
H297 H 0.10558 0.9413 0.48057 0.0
H298 H 0.21001 0.98881 0.25383 0.0
H299 H 0.18552 -0.00057 0.31361 0.0
H300 H 0.20631 0.91526 0.3569 0.0
H301 H 0.23038 0.90463 0.29699 0.0
H302 H 0.18383 0.94747 0.40069 0.0
H303 H 0.15077 0.99857 0.35769 0.0
H304 H 0.12361 0.0275 0.40519 0.0
H305 H 0.08487 0.02831 0.45333 0.0
C306 C 0.6909 0.5966 0.78563 0.0
C307 C 0.69901 0.57731 0.757 0.0
C308 C 0.67245 0.58834 0.81506 0.0
C309 C 0.66162 0.56063 0.8163 0.0
C310 C 0.67078 0.54114 0.78881 0.0
C311 C 0.68956 0.54929 0.75975 0.0
C312 C 0.63758 0.55239 0.84231 0.0
C313 C 0.6354 0.56411 0.87816 0.0
C314 C 0.60791 0.55829 0.89997 0.0
C315 C 0.61263 0.55525 0.94184 0.0
C316 C 0.58649 0.55043 0.96255 0.0
C317 C 0.55522 0.54963 0.94173 0.0
H318 H 0.5722 0.56004 0.84701 0.0
C319 C 0.55053 0.55309 0.89994 0.0
C320 C 0.57662 0.55712 0.87921 0.0
H321 H 0.52663 0.5526 0.88323 0.0
H322 H 0.69729 0.61843 0.78405 0.0
H323 H 0.66515 0.60405 0.8352 0.0
H324 H 0.66268 0.51968 0.78915 0.0
H325 H 0.6959 0.53376 0.73869 0.0
H326 H 0.62054 0.53628 0.83104 0.0
H327 H 0.65391 0.57822 0.89176 0.0
H328 H 0.63653 0.55642 0.95843 0.0
H329 H 0.5906 0.5481 0.99487 0.0
C330 C 0.82458 0.0806 0.20411 0.0
C331 C 0.82915 0.1058 0.18431 0.0
C332 C 0.8441 0.07372 0.23984 0.0
C333 C 0.86887 0.09174 0.25592 0.0
C334 C 0.8734 0.11688 0.23605 0.0
C335 C 0.85343 0.12405 0.20085 0.0
C336 C 0.89183 0.08372 0.29146 0.0
C337 C 0.88297 0.0698 0.32283 0.0
C338 C 0.90662 0.0597 0.35653 0.0
C339 C 0.89838 0.0592 0.39555 0.0
C340 C 0.9196 0.04792 0.42722 0.0
C341 C 0.94896 0.03615 0.42005 0.0
H342 H 0.94323 0.04829 0.31977 0.0
C343 C 0.9573 0.03689 0.38108 0.0
C344 C 0.93647 0.04875 0.34967 0.0
H345 H 0.97976 0.02788 0.37474 0.0
H346 H 0.80604 0.06618 0.19179 0.0
H347 H 0.84052 0.05388 0.25405 0.0
H348 H 0.89254 0.13094 0.24769 0.0
H349 H 0.85759 0.14348 0.18587 0.0
H350 H 0.91668 0.08997 0.29209 0.0
H351 H 0.8577 0.066 0.32416 0.0
H352 H 0.87538 0.06731 0.40144 0.0
H353 H 0.91246 0.04733 0.45694 0.0
C354 C 0.32732 0.43532 0.69702 0.0
C355 C 0.29405 0.4309 0.689 0.0
C356 C 0.34219 0.43975 0.73632 0.0
C357 C 0.32406 0.43972 0.76855 0.0
C358 C 0.29078 0.43576 0.76033 0.0
C359 C 0.27596 0.43136 0.72116 0.0
C360 C 0.33826 0.44569 0.81067 0.0
C361 C 0.36984 0.44362 0.82464 0.0
C362 C 0.38436 0.45363 0.86512 0.0
C363 C 0.41687 0.44762 0.87853 0.0
C364 C 0.43289 0.46063 0.91286 0.0
C365 C 0.41665 0.48011 0.93407 0.0
H366 H 0.34288 0.47723 0.87978 0.0
C367 C 0.3837 0.48449 0.92255 0.0
C368 C 0.3677 0.4715 0.88857 0.0
H369 H 0.37068 0.49953 0.93839 0.0
H370 H 0.34199 0.435 0.67297 0.0
H371 H 0.36771 0.44365 0.741 0.0
H372 H 0.27607 0.43613 0.78437 0.0
H373 H 0.25021 0.42856 0.71604 0.0
H374 H 0.32149 0.45197 0.83077 0.0
H375 H 0.38614 0.43506 0.80535 0.0
H376 H 0.4304 0.43399 0.86121 0.0
H377 H 0.45845 0.45719 0.92079 0.0
C378 C 0.67607 0.61656 0.36028 0.0
C379 C 0.67922 0.59638 0.39108 0.0
C380 C 0.65754 0.61115 0.32335 0.0
C381 C 0.64154 0.58553 0.3166 0.0
C382 C 0.64481 0.56534 0.34712 0.0
C383 C 0.66371 0.57054 0.38373 0.0
C384 C 0.62036 0.57947 0.27875 0.0
C385 C 0.62593 0.58885 0.24267 0.0
C386 C 0.60653 0.57869 0.20557 0.0
C387 C 0.62211 0.56748 0.17486 0.0
C388 C 0.60465 0.55281 0.14327 0.0
C389 C 0.57129 0.55019 0.14127 0.0
H390 H 0.56036 0.58633 0.2254 0.0
C391 C 0.55533 0.56357 0.16999 0.0
C392 C 0.57289 0.57753 0.20222 0.0
H393 H 0.52964 0.5614 0.1692 0.0
H394 H 0.68712 0.63689 0.36502 0.0
H395 H 0.65497 0.62735 0.30066 0.0
H396 H 0.6328 0.54538 0.34255 0.0
H397 H 0.66605 0.55425 0.40631 0.0
H398 H 0.60094 0.56475 0.28024 0.0
H399 H 0.64727 0.601 0.24002 0.0
H400 H 0.64801 0.56824 0.17686 0.0
H401 H 0.61734 0.54232 0.12156 0.0
C402 C 0.80826 0.0605 0.80966 0.0
C403 C 0.80174 0.08876 0.81718 0.0
C404 C 0.82271 0.05286 0.77606 0.0
C405 C 0.83103 0.07345 0.74943 0.0
C406 C 0.8244 0.10161 0.75714 0.0
C407 C 0.80991 0.10918 0.79043 0.0
C408 C 0.84828 0.06721 0.71466 0.0
C409 C 0.85192 0.04166 0.69868 0.0
C410 C 0.87204 0.03748 0.666 0.0
C411 C 0.89014 0.01274 0.6647 0.0
C412 C 0.91377 0.01068 0.63917 0.0
C413 C 0.9195 0.03341 0.61479 0.0
H414 H 0.86074 0.0775 0.63656 0.0
C415 C 0.89923 0.0569 0.61316 0.0
C416 C 0.87542 0.05876 0.63804 0.0
H417 H 0.90296 0.07453 0.59414 0.0
H418 H 0.80218 0.04429 0.82975 0.0
H419 H 0.82787 0.03097 0.77179 0.0
H420 H 0.83078 0.11799 0.73747 0.0
H421 H 0.80578 0.13118 0.79572 0.0
H422 H 0.85939 0.08504 0.70222 0.0
H423 H 0.84214 0.02328 0.71133 0.0
H424 H 0.88758 0.9958 0.68538 0.0
H425 H 0.92922 0.99237 0.64097 0.0
C426 C 0.30177 0.46671 0.30983 0.0
C427 C 0.2902 0.4401 0.318 0.0
C428 C 0.32006 0.47044 0.27845 0.0
C429 C 0.3272 0.44752 0.25478 0.0
C430 C 0.31517 0.4211 0.2627 0.0
C431 C 0.2968 0.41744 0.29376 0.0
C432 C 0.34961 0.44948 0.22442 0.0
C433 C 0.35719 0.47341 0.20688 0.0
C434 C 0.38302 0.47452 0.18086 0.0
C435 C 0.3819 0.49477 0.15045 0.0
C436 C 0.40697 0.49691 0.12712 0.0
C437 C 0.43384 0.47904 0.13428 0.0
H438 H 0.41221 0.44137 0.21175 0.0
C439 C 0.43477 0.45876 0.16466 0.0
C440 C 0.40983 0.45659 0.18771 0.0
H441 H 0.45515 0.44476 0.1713 0.0
H442 H 0.29701 0.48456 0.32801 0.0
H443 H 0.32949 0.49102 0.27395 0.0
H444 H 0.32059 0.40302 0.24533 0.0
H445 H 0.28874 0.39657 0.29969 0.0
H446 H 0.36055 0.43001 0.21632 0.0
H447 H 0.3443 0.49263 0.21143 0.0
H448 H 0.36167 0.50903 0.14485 0.0
H449 H 0.4056 0.51288 0.10413 0.0
C450 C 0.19463 0.92161 0.87181 0.0
C451 C 0.20694 0.94226 0.89938 0.0
C452 C 0.17727 0.92905 0.83481 0.0
C453 C 0.1718 0.95742 0.82461 0.0
C454 C 0.18473 0.97795 0.85198 0.0
C455 C 0.20204 0.97052 0.88884 0.0
C456 C 0.1527 0.96699 0.78642 0.0
C457 C 0.13715 0.95025 0.75785 0.0
C458 C 0.11719 0.96175 0.72146 0.0
C459 C 0.09114 0.94623 0.70232 0.0
C460 C 0.07013 0.95791 0.67059 0.0
C461 C 0.07491 0.98531 0.65789 0.0
H462 H 0.14379 0.00045 0.71847 0.0
C463 C 0.10191 0.0001 0.6753 0.0
C464 C 0.12312 0.98834 0.70623 0.0
H465 H 0.10628 0.02114 0.66543 0.0
H466 H 0.19781 0.89963 0.87918 0.0
H467 H 0.16816 0.91242 0.8148 0.0
H468 H 0.18124 -2e-05 0.84498 0.0
H469 H 0.21166 0.98695 0.90908 0.0
H470 H 0.15038 0.98948 0.78266 0.0
H471 H 0.1372 0.92777 0.76191 0.0
H472 H 0.0863 0.92552 0.71299 0.0
H473 H 0.04934 0.94619 0.65752 0.0
loop_
_geom_bond_atom_site_label_1
_geom_bond_atom_site_label_2
_geom_bond_distance
_geom_bond_site_symmetry_2
_ccdc_geom_bond_type
C0 C1 1.384 . S
C0 H13 0.947 . S
C0 C35 1.382 . S
C1 C0 1.384 . S
C1 C2 1.378 . S
C2 C1 1.378 . S
C2 C3 1.378 . S
C2 H14 0.952 . S
C3 C2 1.378 . S
C3 H15 0.950 . S
C3 C34 1.383 . S
H4 C23 0.947 . S
H5 C24 0.946 . S
H6 C26 0.953 . S
H7 C27 0.945 . S
H8 C29 0.952 . S
H9 C30 0.949 . S
H10 C32 0.950 . S
H11 C33 0.948 . S
H12 C35 0.951 . S
H13 C0 0.947 . S
H14 C2 0.952 . S
H15 C3 0.950 . S
N16 C19 1.382 . S
N16 C21 1.363 . S
N17 C19 1.371 . S
N17 C20 1.372 . S
N18 C20 1.361 . S
N18 C21 1.377 . S
C19 N16 1.382 . S
C19 N17 1.371 . S
C19 C22 1.480 . S
C20 N17 1.372 . S
C20 N18 1.361 . S
C20 C28 1.457 . S
C21 N16 1.363 . S
C21 N18 1.377 . S
C21 C34 1.479 . S
C22 C19 1.480 . S
C22 C23 1.383 . S
C22 C27 1.385 . S
C23 H4 0.947 . S
C23 C22 1.383 . S
C23 C24 1.388 . S
C24 H5 0.946 . S
C24 C23 1.388 . S
C24 C25 1.384 . S
C25 C24 1.384 . S
C25 C26 1.377 . S
C26 H6 0.953 . S
C26 C25 1.377 . S
C26 C27 1.369 . S
C27 H7 0.945 . S
C27 C22 1.385 . S
C27 C26 1.369 . S
C28 C20 1.457 . S
C28 C29 1.372 1_554 S
C28 C33 1.364 . S
C29 H8 0.952 . S
C29 C28 1.372 1_556 S
C29 C30 1.389 . S
C30 H9 0.949 . S
C30 C29 1.389 . S
C30 C31 1.387 . S
C31 C30 1.387 . S
C31 C32 1.372 . S
C32 H10 0.950 . S
C32 C31 1.372 . S
C32 C33 1.379 1_556 S
C33 H11 0.948 . S
C33 C28 1.364 . S
C33 C32 1.379 1_554 S
C34 C3 1.383 . S
C34 C21 1.479 . S
C34 C35 1.398 . S
C35 C0 1.382 . S
C35 H12 0.951 . S
C35 C34 1.398 . S
C36 C37 1.384 . S
C36 H49 0.947 . S
C36 C71 1.382 . S
C37 C36 1.384 . S
C37 C38 1.378 . S
C38 C37 1.378 . S
C38 C39 1.378 . S
C38 H50 0.952 . S
C39 C38 1.378 . S
C39 H51 0.950 . S
C39 C70 1.383 . S
H40 C59 0.947 . S
H41 C60 0.946 . S
H42 C62 0.953 . S
H43 C63 0.945 . S
H44 C65 0.952 . S
H45 C66 0.949 . S
H46 C68 0.950 . S
H47 C69 0.948 . S
H48 C71 0.951 . S
H49 C36 0.947 . S
H50 C38 0.952 . S
H51 C39 0.950 . S
N52 C55 1.382 . S
N52 C57 1.363 . S
N53 C55 1.371 . S
N53 C56 1.372 . S
N54 C56 1.361 . S
N54 C57 1.377 . S
C55 N52 1.382 . S
C55 N53 1.371 . S
C55 C58 1.480 . S
C56 N53 1.372 . S
C56 N54 1.361 . S
C56 C64 1.457 . S
C57 N52 1.363 . S
C57 N54 1.377 . S
C57 C70 1.479 . S
C58 C55 1.480 . S
C58 C59 1.383 . S
C58 C63 1.385 . S
C59 H40 0.947 . S
C59 C58 1.383 . S
C59 C60 1.388 . S
C60 H41 0.946 . S
C60 C59 1.388 . S
C60 C61 1.384 . S
C61 C60 1.384 . S
C61 C62 1.377 . S
C62 H42 0.953 . S
C62 C61 1.377 . S
C62 C63 1.369 . S
C63 H43 0.945 . S
C63 C58 1.385 . S
C63 C62 1.369 . S
C64 C56 1.457 . S
C64 C65 1.372 . S
C64 C69 1.364 . S
C65 H44 0.952 . S
C65 C64 1.372 . S
C65 C66 1.389 . S
C66 H45 0.949 . S
C66 C65 1.389 . S
C66 C67 1.387 . S
C67 C66 1.387 . S
C67 C68 1.372 . S
C68 H46 0.950 . S
C68 C67 1.372 . S
C68 C69 1.379 . S
C69 H47 0.948 . S
C69 C64 1.364 . S
C69 C68 1.379 . S
C70 C39 1.383 . S
C70 C57 1.479 . S
C70 C71 1.398 . S
C71 C36 1.382 . S
C71 H48 0.951 . S
C71 C70 1.398 . S
C72 C73 1.384 . S
C72 H85 0.947 . S
C72 C107 1.382 . S
C73 C72 1.384 . S
C73 C74 1.378 . S
C74 C73 1.378 . S
C74 C75 1.378 . S
C74 H86 0.952 . S
C75 C74 1.378 . S
C75 H87 0.950 . S
C75 C106 1.383 . S
H76 C95 0.947 . S
H77 C96 0.946 . S
H78 C98 0.953 . S
H79 C99 0.945 . S
H80 C101 0.952 . S
H81 C102 0.949 . S
H82 C104 0.950 . S
H83 C105 0.948 . S
H84 C107 0.951 . S
H85 C72 0.947 . S
H86 C74 0.952 . S
H87 C75 0.950 . S
N88 C91 1.366 1_556 S
N88 C93 1.363 . S
N89 C91 1.387 . S
N89 C92 1.372 . S
N90 C92 1.361 . S
N90 C93 1.377 1_554 S
C91 N88 1.366 1_554 S
C91 N89 1.387 . S
C91 C94 1.482 1_554 S
C92 N89 1.372 . S
C92 N90 1.361 . S
C92 C100 1.457 . S
C93 N88 1.363 . S
C93 N90 1.377 1_556 S
C93 C106 1.479 . S
C94 C91 1.482 1_556 S
C94 C95 1.392 . S
C94 C99 1.375 1_556 S
C95 H76 0.947 . S
C95 C94 1.392 . S
C95 C96 1.388 . S
C96 H77 0.946 . S
C96 C95 1.388 . S
C96 C97 1.384 . S
C97 C96 1.384 . S
C97 C98 1.377 1_556 S
C98 H78 0.953 . S
C98 C97 1.377 1_554 S
C98 C99 1.369 . S
C99 H79 0.945 . S
C99 C94 1.375 1_554 S
C99 C98 1.369 . S
C100 C92 1.457 . S
C100 C101 1.372 . S
C100 C105 1.364 . S
C101 H80 0.952 . S
C101 C100 1.372 . S
C101 C102 1.389 . S
C102 H81 0.949 . S
C102 C101 1.389 . S
C102 C103 1.387 . S
C103 C102 1.387 . S
C103 C104 1.372 . S
C104 H82 0.950 . S
C104 C103 1.372 . S
C104 C105 1.379 . S
C105 H83 0.948 . S
C105 C100 1.364 . S
C105 C104 1.379 . S
C106 C75 1.383 . S
C106 C93 1.479 . S
C106 C107 1.398 . S
C107 C72 1.382 . S
C107 H84 0.951 . S
C107 C106 1.398 . S
C108 C109 1.384 . S
C108 H121 0.947 . S
C108 C143 1.382 . S
C109 C108 1.384 . S
C109 C110 1.378 . S
C110 C109 1.378 . S
C110 C111 1.378 . S
C110 H122 0.952 . S
C111 C110 1.378 . S
C111 H123 0.950 . S
C111 C142 1.383 . S
H112 C131 0.947 . S
H113 C132 0.946 . S
H114 C134 0.953 . S
H115 C135 0.945 . S
H116 C137 0.952 . S
H117 C138 0.949 . S
H118 C140 0.950 . S
H119 C141 0.948 . S
H120 C143 0.951 . S
H121 C108 0.947 . S
H122 C110 0.952 . S
H123 C111 0.950 . S
N124 C127 1.382 . S
N124 C129 1.363 . S
N125 C127 1.371 . S
N125 C128 1.372 . S
N126 C128 1.361 . S
N126 C129 1.377 . S
C127 N124 1.382 . S
C127 N125 1.371 . S
C127 C130 1.480 . S
C128 N125 1.372 . S
C128 N126 1.361 . S
C128 C136 1.457 . S
C129 N124 1.363 . S
C129 N126 1.377 . S
C129 C142 1.479 . S
C130 C127 1.480 . S
C130 C131 1.383 . S
C130 C135 1.385 . S
C131 H112 0.947 . S
C131 C130 1.383 . S
C131 C132 1.388 . S
C132 H113 0.946 . S
C132 C131 1.388 . S
C132 C133 1.384 . S
C133 C132 1.384 . S
C133 C134 1.377 . S
C134 H114 0.953 . S
C134 C133 1.377 . S
C134 C135 1.369 . S
C135 H115 0.945 . S
C135 C130 1.385 . S
C135 C134 1.369 . S
C136 C128 1.457 . S
C136 C137 1.372 . S
C136 C141 1.364 . S
C137 H116 0.952 . S
C137 C136 1.372 . S
C137 C138 1.389 . S
C138 H117 0.949 . S
C138 C137 1.389 . S
C138 C139 1.387 . S
C139 C138 1.387 . S
C139 C140 1.372 . S
C140 H118 0.950 . S
C140 C139 1.372 . S
C140 C141 1.379 . S
C141 H119 0.948 . S
C141 C136 1.364 . S
C141 C140 1.379 . S
C142 C111 1.383 . S
C142 C129 1.479 . S
C142 C143 1.398 . S
C143 C108 1.382 . S
C143 H120 0.951 . S
C143 C142 1.398 . S
O144 Mg145 1.990 1_655 S
O144 C158 1.253 . S
Mg145 O144 1.990 1_455 S
Mg145 O148 2.180 . S
Mg145 O149 2.117 . S
Mg145 O163 2.030 . S
O146 Mg147 2.072 1_655 S
O146 C158 1.260 . S
Mg147 O146 2.072 1_455 S
Mg147 O148 2.099 . S
Mg147 O150 2.079 1_545 S
Mg147 O151 2.072 1_455 S
Mg147 O153 2.099 1_445 S
Mg147 O164 2.079 1_545 S
O148 Mg145 2.180 . S
O148 Mg147 2.099 . S
O148 C159 1.279 . S
O149 Mg145 2.117 . S
O149 C159 1.250 . S
O150 Mg147 2.079 1_565 S
O150 C160 1.264 . S
O151 Mg147 2.072 1_655 S
O151 C161 1.260 . S
Mg152 O153 2.180 . S
Mg152 O154 2.030 1_655 S
Mg152 O155 1.990 1_565 S
Mg152 O156 2.117 . S
O153 Mg147 2.099 1_665 S
O153 Mg152 2.180 . S
O153 C162 1.279 . S
O154 Mg152 2.030 1_455 S
O154 C160 1.248 . S
O155 Mg152 1.990 1_545 S
O155 C161 1.253 . S
O156 Mg152 2.117 . S
O156 C162 1.250 . S
C157 O163 1.248 1_565 S
C157 O164 1.264 . S
C158 O144 1.253 . S
C158 O146 1.260 . S
C159 O148 1.279 . S
C159 O149 1.250 . S
C160 O150 1.264 . S
C160 O154 1.248 . S
C161 O151 1.260 . S
C161 O155 1.253 . S
C162 O153 1.279 . S
C162 O156 1.250 . S
O163 Mg145 2.030 . S
O163 C157 1.248 1_545 S
O164 Mg147 2.079 1_565 S
O164 C157 1.264 . S
O165 Mg166 1.990 . S
O165 C179 1.253 . S
Mg166 O165 1.990 . S
Mg166 O169 2.180 . S
Mg166 O170 2.117 . S
Mg166 O184 2.030 . S
O167 Mg168 2.072 . S
O167 C179 1.260 . S
Mg168 O167 2.072 . S
Mg168 O169 2.099 . S
Mg168 O171 2.079 1_554 S
Mg168 O172 2.072 1_554 S
Mg168 O174 2.099 . S
Mg168 O185 2.079 . S
O169 Mg166 2.180 . S
O169 Mg168 2.099 . S
O169 C180 1.279 . S
O170 Mg166 2.117 . S
O170 C180 1.250 . S
O171 Mg168 2.079 1_556 S
O171 C181 1.264 . S
O172 Mg168 2.072 1_556 S
O172 C182 1.261 . S
Mg173 O174 2.180 1_556 S
Mg173 O175 2.030 . S
Mg173 O176 1.990 . S
Mg173 O177 2.117 1_556 S
O174 Mg168 2.099 . S
O174 Mg173 2.180 1_554 S
O174 C183 1.279 . S
O175 Mg173 2.030 . S
O175 C181 1.248 . S
O176 Mg173 1.990 . S
O176 C182 1.253 . S
O177 Mg173 2.117 1_554 S
O177 C183 1.250 . S
C178 O184 1.248 . S
C178 O185 1.264 . S
C179 O165 1.253 . S
C179 O167 1.260 . S
C180 O169 1.279 . S
C180 O170 1.250 . S
C181 O171 1.264 . S
C181 O175 1.248 . S
C182 O172 1.261 . S
C182 O176 1.253 . S
C183 O174 1.279 . S
C183 O177 1.250 . S
O184 Mg166 2.030 . S
O184 C178 1.248 . S
O185 Mg168 2.079 . S
O185 C178 1.264 . S
C186 C187 1.386 . S
C186 C188 1.383 . S
C186 H202 0.951 . S
C187 C186 1.386 . S
C187 C191 1.383 . S
C188 C186 1.383 . S
C188 C189 1.402 . S
C188 H203 0.951 . S
C189 C188 1.402 . S
C189 C190 1.375 . S
C189 C192 1.481 . S
C190 C189 1.375 . S
C190 C191 1.367 . S
C190 H204 0.951 . S
C191 C187 1.383 . S
C191 C190 1.367 . S
C191 H205 0.950 . S
C192 C189 1.481 . S
C192 C193 1.297 . S
C192 H206 0.950 . S
C193 C192 1.297 . S
C193 C194 1.479 . S
C193 H207 0.950 . S
C194 C193 1.479 . S
C194 C195 1.375 . S
C194 C200 1.404 . S
C195 C194 1.375 . S
C195 C196 1.369 . S
C195 H208 0.950 . S
C196 C195 1.369 . S
C196 C197 1.392 . S
C196 H209 0.951 . S
C197 C196 1.392 . S
C197 C199 1.384 . S
H198 C200 0.949 . S
C199 C197 1.384 . S
C199 C200 1.385 . S
C199 H201 0.950 . S
C200 C194 1.404 . S
C200 H198 0.949 . S
C200 C199 1.385 . S
H201 C199 0.950 . S
H202 C186 0.951 . S
H203 C188 0.951 . S
H204 C190 0.951 . S
H205 C191 0.950 . S
H206 C192 0.950 . S
H207 C193 0.950 . S
H208 C195 0.950 . S
H209 C196 0.951 . S
C210 C211 1.386 . S
C210 C212 1.383 . S
C210 H226 0.951 . S
C211 C210 1.386 . S
C211 C215 1.383 . S
C212 C210 1.383 . S
C212 C213 1.402 . S
C212 H227 0.951 . S
C213 C212 1.402 . S
C213 C214 1.375 . S
C213 C216 1.481 . S
C214 C213 1.375 . S
C214 C215 1.367 . S
C214 H228 0.951 . S
C215 C211 1.383 . S
C215 C214 1.367 . S
C215 H229 0.950 . S
C216 C213 1.481 . S
C216 C217 1.297 . S
C216 H230 0.950 . S
C217 C216 1.297 . S
C217 C218 1.479 . S
C217 H231 0.950 . S
C218 C217 1.479 . S
C218 C219 1.375 . S
C218 C224 1.404 . S
C219 C218 1.375 . S
C219 C220 1.369 . S
C219 H232 0.950 . S
C220 C219 1.369 . S
C220 C221 1.392 . S
C220 H233 0.951 . S
C221 C220 1.392 . S
C221 C223 1.384 . S
H222 C224 0.949 . S
C223 C221 1.384 . S
C223 C224 1.385 . S
C223 H225 0.950 . S
C224 C218 1.404 . S
C224 H222 0.949 . S
C224 C223 1.385 . S
H225 C223 0.950 . S
H226 C210 0.951 . S
H227 C212 0.951 . S
H228 C214 0.951 . S
H229 C215 0.950 . S
H230 C216 0.950 . S
H231 C217 0.950 . S
H232 C219 0.950 . S
H233 C220 0.951 . S
C234 C235 1.386 . S
C234 C236 1.383 . S
C234 H250 0.951 . S
C235 C234 1.386 . S
C235 C239 1.383 . S
C236 C234 1.383 . S
C236 C237 1.402 . S
C236 H251 0.951 . S
C237 C236 1.402 . S
C237 C238 1.375 . S
C237 C240 1.481 . S
C238 C237 1.375 . S
C238 C239 1.367 . S
C238 H252 0.951 . S
C239 C235 1.383 . S
C239 C238 1.367 . S
C239 H253 0.950 . S
C240 C237 1.481 . S
C240 C241 1.297 . S
C240 H254 0.950 . S
C241 C240 1.297 . S
C241 C242 1.479 . S
C241 H255 0.950 . S
C242 C241 1.479 . S
C242 C243 1.375 . S
C242 C248 1.404 . S
C243 C242 1.375 . S
C243 C244 1.369 . S
C243 H256 0.950 . S
C244 C243 1.369 . S
C244 C245 1.392 . S
C244 H257 0.951 . S
C245 C244 1.392 . S
C245 C247 1.384 . S
H246 C248 0.949 . S
C247 C245 1.384 . S
C247 C248 1.385 . S
C247 H249 0.950 . S
C248 C242 1.404 . S
C248 H246 0.949 . S
C248 C247 1.385 . S
H249 C247 0.950 . S
H250 C234 0.951 . S
H251 C236 0.951 . S
H252 C238 0.951 . S
H253 C239 0.950 . S
H254 C240 0.950 . S
H255 C241 0.950 . S
H256 C243 0.950 . S
H257 C244 0.951 . S
C258 C259 1.386 1_554 S
C258 C260 1.383 . S
C258 H274 0.951 . S
C259 C258 1.386 1_556 S
C259 C263 1.383 . S
C260 C258 1.383 . S
C260 C261 1.402 1_554 S
C260 H275 0.951 . S
C261 C260 1.402 1_556 S
C261 C262 1.375 . S
C261 C264 1.481 . S
C262 C261 1.375 . S
C262 C263 1.367 . S
C262 H276 0.951 . S
C263 C259 1.383 . S
C263 C262 1.367 . S
C263 H277 0.950 . S
C264 C261 1.481 . S
C264 C265 1.297 . S
C264 H278 0.950 . S
C265 C264 1.297 . S
C265 C266 1.479 1_556 S
C265 H279 0.950 1_556 S
C266 C265 1.479 1_554 S
C266 C267 1.375 . S
C266 C272 1.404 1_554 S
C267 C266 1.375 . S
C267 C268 1.369 . S
C267 H280 0.950 . S
C268 C267 1.369 . S
C268 C269 1.392 . S
C268 H281 0.951 . S
C269 C268 1.392 . S
C269 C271 1.384 1_554 S
H270 C272 0.949 . S
C271 C269 1.384 1_556 S
C271 C272 1.385 . S
C271 H273 0.950 . S
C272 C266 1.404 1_556 S
C272 H270 0.949 . S
C272 C271 1.385 . S
H273 C271 0.950 . S
H274 C258 0.951 . S
H275 C260 0.951 . S
H276 C262 0.951 . S
H277 C263 0.950 . S
H278 C264 0.950 . S
H279 C265 0.950 1_554 S
H280 C267 0.950 . S
H281 C268 0.951 . S
C282 C283 1.386 . S
C282 C284 1.383 . S
C282 H298 0.951 . S
C283 C282 1.386 . S
C283 C287 1.383 . S
C284 C282 1.383 . S
C284 C285 1.402 . S
C284 H299 0.951 . S
C285 C284 1.402 . S
C285 C286 1.375 . S
C285 C288 1.481 . S
C286 C285 1.375 . S
C286 C287 1.367 . S
C286 H300 0.951 . S
C287 C283 1.383 . S
C287 C286 1.367 . S
C287 H301 0.950 . S
C288 C285 1.481 . S
C288 C289 1.297 . S
C288 H302 0.950 . S
C289 C288 1.297 . S
C289 C290 1.479 . S
C289 H303 0.950 . S
C290 C289 1.479 . S
C290 C291 1.375 . S
C290 C296 1.404 . S
C291 C290 1.375 . S
C291 C292 1.369 . S
C291 H304 0.931 1_565 S
C292 C291 1.369 . S
C292 C293 1.392 . S
C292 H305 0.951 1_565 S
C293 C292 1.392 . S
C293 C295 1.384 . S
H294 C296 0.949 . S
C295 C293 1.384 . S
C295 C296 1.385 . S
C295 H297 0.950 . S
C296 C290 1.404 . S
C296 H294 0.949 . S
C296 C295 1.385 . S
H297 C295 0.950 . S
H298 C282 0.951 . S
H299 C284 0.951 . S
H300 C286 0.951 . S
H301 C287 0.950 . S
H302 C288 0.950 . S
H303 C289 0.950 . S
H304 C291 0.931 1_545 S
H305 C292 0.951 1_545 S
C306 C307 1.386 . S
C306 C308 1.383 . S
C306 H322 0.951 . S
C307 C306 1.386 . S
C307 C311 1.383 . S
C308 C306 1.383 . S
C308 C309 1.402 . S
C308 H323 0.951 . S
C309 C308 1.402 . S
C309 C310 1.375 . S
C309 C312 1.481 . S
C310 C309 1.375 . S
C310 C311 1.367 . S
C310 H324 0.951 . S
C311 C307 1.383 . S
C311 C310 1.367 . S
C311 H325 0.950 . S
C312 C309 1.481 . S
C312 C313 1.297 . S
C312 H326 0.950 . S
C313 C312 1.297 . S
C313 C314 1.479 . S
C313 H327 0.950 . S
C314 C313 1.479 . S
C314 C315 1.375 . S
C314 C320 1.404 . S
C315 C314 1.375 . S
C315 C316 1.369 . S
C315 H328 0.950 . S
C316 C315 1.369 . S
C316 C317 1.392 . S
C316 H329 0.951 . S
C317 C316 1.392 . S
C317 C319 1.384 . S
H318 C320 0.949 . S
C319 C317 1.384 . S
C319 C320 1.385 . S
C319 H321 0.950 . S
C320 C314 1.404 . S
C320 H318 0.949 . S
C320 C319 1.385 . S
H321 C319 0.950 . S
H322 C306 0.951 . S
H323 C308 0.951 . S
H324 C310 0.951 . S
H325 C311 0.950 . S
H326 C312 0.950 . S
H327 C313 0.950 . S
H328 C315 0.950 . S
H329 C316 0.951 . S
C330 C331 1.386 . S
C330 C332 1.383 . S
C330 H346 0.951 . S
C331 C330 1.386 . S
C331 C335 1.383 . S
C332 C330 1.383 . S
C332 C333 1.402 . S
C332 H347 0.951 . S
C333 C332 1.402 . S
C333 C334 1.375 . S
C333 C336 1.481 . S
C334 C333 1.375 . S
C334 C335 1.367 . S
C334 H348 0.951 . S
C335 C331 1.383 . S
C335 C334 1.367 . S
C335 H349 0.950 . S
C336 C333 1.481 . S
C336 C337 1.297 . S
C336 H350 0.950 . S
C337 C336 1.297 . S
C337 C338 1.479 . S
C337 H351 0.950 . S
C338 C337 1.479 . S
C338 C339 1.375 . S
C338 C344 1.404 . S
C339 C338 1.375 . S
C339 C340 1.369 . S
C339 H352 0.950 . S
C340 C339 1.369 . S
C340 C341 1.392 . S
C340 H353 0.951 . S
C341 C340 1.392 . S
C341 C343 1.384 . S
H342 C344 0.949 . S
C343 C341 1.384 . S
C343 C344 1.385 . S
C343 H345 0.950 . S
C344 C338 1.404 . S
C344 H342 0.949 . S
C344 C343 1.385 . S
H345 C343 0.950 . S
H346 C330 0.951 . S
H347 C332 0.951 . S
H348 C334 0.951 . S
H349 C335 0.950 . S
H350 C336 0.950 . S
H351 C337 0.950 . S
H352 C339 0.950 . S
H353 C340 0.951 . S
C354 C355 1.386 . S
C354 C356 1.383 . S
C354 H370 0.951 . S
C355 C354 1.386 . S
C355 C359 1.383 . S
C356 C354 1.383 . S
C356 C357 1.402 . S
C356 H371 0.951 . S
C357 C356 1.402 . S
C357 C358 1.375 . S
C357 C360 1.481 . S
C358 C357 1.375 . S
C358 C359 1.367 . S
C358 H372 0.951 . S
C359 C355 1.383 . S
C359 C358 1.367 . S
C359 H373 0.950 . S
C360 C357 1.481 . S
C360 C361 1.297 . S
C360 H374 0.950 . S
C361 C360 1.297 . S
C361 C362 1.479 . S
C361 H375 0.950 . S
C362 C361 1.479 . S
C362 C363 1.375 . S
C362 C368 1.404 . S
C363 C362 1.375 . S
C363 C364 1.369 . S
C363 H376 0.950 . S
C364 C363 1.369 . S
C364 C365 1.392 . S
C364 H377 0.951 . S
C365 C364 1.392 . S
C365 C367 1.384 . S
H366 C368 0.949 . S
C367 C365 1.384 . S
C367 C368 1.385 . S
C367 H369 0.950 . S
C368 C362 1.404 . S
C368 H366 0.949 . S
C368 C367 1.385 . S
H369 C367 0.950 . S
H370 C354 0.951 . S
H371 C356 0.951 . S
H372 C358 0.951 . S
H373 C359 0.950 . S
H374 C360 0.950 . S
H375 C361 0.950 . S
H376 C363 0.950 . S
H377 C364 0.951 . S
C378 C379 1.386 . S
C378 C380 1.383 . S
C378 H394 0.951 . S
C379 C378 1.386 . S
C379 C383 1.383 . S
C380 C378 1.383 . S
C380 C381 1.402 . S
C380 H395 0.951 . S
C381 C380 1.402 . S
C381 C382 1.375 . S
C381 C384 1.481 . S
C382 C381 1.375 . S
C382 C383 1.367 . S
C382 H396 0.951 . S
C383 C379 1.383 . S
C383 C382 1.367 . S
C383 H397 0.950 . S
C384 C381 1.481 . S
C384 C385 1.297 . S
C384 H398 0.950 . S
C385 C384 1.297 . S
C385 C386 1.479 . S
C385 H399 0.950 . S
C386 C385 1.479 . S
C386 C387 1.375 . S
C386 C392 1.404 . S
C387 C386 1.375 . S
C387 C388 1.369 . S
C387 H400 0.950 . S
C388 C387 1.369 . S
C388 C389 1.392 . S
C388 H401 0.951 . S
C389 C388 1.392 . S
C389 C391 1.384 . S
H390 C392 0.949 . S
C391 C389 1.384 . S
C391 C392 1.385 . S
C391 H393 0.950 . S
C392 C386 1.404 . S
C392 H390 0.949 . S
C392 C391 1.385 . S
H393 C391 0.950 . S
H394 C378 0.951 . S
H395 C380 0.951 . S
H396 C382 0.951 . S
H397 C383 0.950 . S
H398 C384 0.950 . S
H399 C385 0.950 . S
H400 C387 0.950 . S
H401 C388 0.951 . S
C402 C403 1.386 . S
C402 C404 1.383 . S
C402 H418 0.951 . S
C403 C402 1.386 . S
C403 C407 1.383 . S
C404 C402 1.383 . S
C404 C405 1.402 . S
C404 H419 0.951 . S
C405 C404 1.402 . S
C405 C406 1.375 . S
C405 C408 1.481 . S
C406 C405 1.375 . S
C406 C407 1.367 . S
C406 H420 0.951 . S
C407 C403 1.383 . S
C407 C406 1.367 . S
C407 H421 0.950 . S
C408 C405 1.481 . S
C408 C409 1.297 . S
C408 H422 0.950 . S
C409 C408 1.297 . S
C409 C410 1.479 . S
C409 H423 0.950 . S
C410 C409 1.479 . S
C410 C411 1.375 . S
C410 C416 1.404 . S
C411 C410 1.375 . S
C411 C412 1.369 . S
C411 H424 0.950 . S
C412 C411 1.369 . S
C412 C413 1.392 . S
C412 H425 0.951 1_545 S
C413 C412 1.392 . S
C413 C415 1.384 . S
H414 C416 0.949 . S
C415 C413 1.384 . S
C415 C416 1.385 . S
C415 H417 0.950 . S
C416 C410 1.404 . S
C416 H414 0.949 . S
C416 C415 1.385 . S
H417 C415 0.950 . S
H418 C402 0.951 . S
H419 C404 0.951 . S
H420 C406 0.951 . S
H421 C407 0.950 . S
H422 C408 0.950 . S
H423 C409 0.950 . S
H424 C411 0.950 . S
H425 C412 0.951 1_565 S
C426 C427 1.386 . S
C426 C428 1.383 . S
C426 H442 0.951 . S
C427 C426 1.386 . S
C427 C431 1.383 . S
C428 C426 1.383 . S
C428 C429 1.402 . S
C428 H443 0.951 . S
C429 C428 1.402 . S
C429 C430 1.375 . S
C429 C432 1.481 . S
C430 C429 1.375 . S
C430 C431 1.367 . S
C430 H444 0.951 . S
C431 C427 1.383 . S
C431 C430 1.367 . S
C431 H445 0.950 . S
C432 C429 1.481 . S
C432 C433 1.297 . S
C432 H446 0.950 . S
C433 C432 1.297 . S
C433 C434 1.479 . S
C433 H447 0.950 . S
C434 C433 1.479 . S
C434 C435 1.375 . S
C434 C440 1.404 . S
C435 C434 1.375 . S
C435 C436 1.369 . S
C435 H448 0.950 . S
C436 C435 1.369 . S
C436 C437 1.392 . S
C436 H449 0.951 . S
C437 C436 1.392 . S
C437 C439 1.384 . S
H438 C440 0.949 . S
C439 C437 1.384 . S
C439 C440 1.385 . S
C439 H441 0.950 . S
C440 C434 1.404 . S
C440 H438 0.949 . S
C440 C439 1.385 . S
H441 C439 0.950 . S
H442 C426 0.951 . S
H443 C428 0.951 . S
H444 C430 0.951 . S
H445 C431 0.950 . S
H446 C432 0.950 . S
H447 C433 0.950 . S
H448 C435 0.950 . S
H449 C436 0.951 . S
C450 C451 1.386 . S
C450 C452 1.383 . S
C450 H466 0.951 . S
C451 C450 1.386 . S
C451 C455 1.383 . S
C452 C450 1.383 . S
C452 C453 1.402 . S
C452 H467 0.951 . S
C453 C452 1.402 . S
C453 C454 1.375 . S
C453 C456 1.481 . S
C454 C453 1.375 . S
C454 C455 1.367 . S
C454 H468 0.951 . S
C455 C451 1.383 . S
C455 C454 1.367 . S
C455 H469 0.950 . S
C456 C453 1.481 . S
C456 C457 1.297 . S
C456 H470 0.950 . S
C457 C456 1.297 . S
C457 C458 1.479 . S
C457 H471 0.950 . S
C458 C457 1.479 . S
C458 C459 1.375 . S
C458 C464 1.385 1_565 S
C459 C458 1.375 . S
C459 C460 1.369 . S
C459 H472 0.950 . S
C460 C459 1.369 . S
C460 C461 1.392 . S
C460 H473 0.951 . S
C461 C460 1.392 . S
C461 C463 1.384 1_565 S
H462 C464 0.965 . S
C463 C461 1.384 1_545 S
C463 C464 1.388 . S
C463 H465 0.950 . S
C464 C458 1.385 1_545 S
C464 H462 0.965 . S
C464 C463 1.388 . S
H465 C463 0.950 . S
H466 C450 0.951 . S
H467 C452 0.951 . S
H468 C454 0.951 . S
H469 C455 0.950 . S
H470 C456 0.950 . S
H471 C457 0.950 . S
H472 C459 0.950 . S
H473 C460 0.951 . S
C197 C159 1.265 . S
C187 C133 1.489 . S
C211 C25 1.505 . S
C221 C183 1.410 . S
C235 C61 1.676 . S
C245 C162 1.444 . S
C259 C97 1.656 . S
C269 C180 1.532 . S
C293 C160 1.552 . S
C283 C1 1.610 . S
C317 C182 1.520 . S
C307 C67 1.594 . S
C331 C103 1.538 . S
C341 C161 1.477 . S
C355 C109 1.581 . S
C365 C181 1.478 . S
C389 C179 1.456 . S
C379 C37 1.594 . S
C413 C158 1.581 . S
C403 C73 1.591 . S
C437 C178 1.579 . S
C427 C139 1.549 . S
C451 C31 1.607 . S
C461 C157 1.484 . S
