# Generated by pormake.
# Topology pth, (4,4)-cn, num edge types: 1
# Building blocks:
#     Node 0, Type 0, BuildingBlock: QUQFOY_clean_sbu_3, # of connection points: 4
#     Node 1, Type 0, BuildingBlock: QUQFOY_clean_sbu_3, # of connection points: 4
#     Node 2, Type 0, BuildingBlock: QUQFOY_clean_sbu_3, # of connection points: 4
#     Node 3, Type 1, BuildingBlock: MIFKUJ_clean_linker_1, # of connection points: 4
#     Node 4, Type 1, BuildingBlock: MIFKUJ_clean_linker_1, # of connection points: 4
#     Node 5, Type 1, BuildingBlock: MIFKUJ_clean_linker_1, # of connection points: 4
#     Edge 6, Type (0, 1), BuildingBlock: EZIPEK_clean_linker_0, # of connection points: 2
#     Edge 7, Type (0, 1), BuildingBlock: EZIPEK_clean_linker_0, # of connection points: 2
#     Edge 8, Type (0, 1), BuildingBlock: EZIPEK_clean_linker_0, # of connection points: 2
#     Edge 9, Type (0, 1), BuildingBlock: EZIPEK_clean_linker_0, # of connection points: 2
#     Edge 10, Type (0, 1), BuildingBlock: EZIPEK_clean_linker_0, # of connection points: 2
#     Edge 11, Type (0, 1), BuildingBlock: EZIPEK_clean_linker_0, # of connection points: 2
#     Edge 12, Type (0, 1), BuildingBlock: EZIPEK_clean_linker_0, # of connection points: 2
#     Edge 13, Type (0, 1), BuildingBlock: EZIPEK_clean_linker_0, # of connection points: 2
#     Edge 14, Type (0, 1), BuildingBlock: EZIPEK_clean_linker_0, # of connection points: 2
#     Edge 15, Type (0, 1), BuildingBlock: EZIPEK_clean_linker_0, # of connection points: 2
#     Edge 16, Type (0, 1), BuildingBlock: EZIPEK_clean_linker_0, # of connection points: 2
#     Edge 17, Type (0, 1), BuildingBlock: EZIPEK_clean_linker_0, # of connection points: 2
# Relax obj value: 0.016
# Max RMSD: 0.073
# Mean RMSD: 0.058
data_MOF--net-pth--node1-QUQFOY_clean_sbu_3--node2-MIFKUJ_clean_linker_1--edge1-EZIPEK_clean_linker_0
_symmetry_space_group_name_H-M    P1
_symmetry_Int_Tables_number       1
_symmetry_cell_setting            triclinic
loop_
_symmetry_equiv_pos_as_xyz
'x, y, z'
_cell_length_a     23.41264
_cell_length_b     23.293447
_cell_length_c     51.761044
_cell_angle_alpha  89.820594
_cell_angle_beta   90.45273
_cell_angle_gamma 120.58182
loop_
_atom_site_label
_atom_site_type_symbol
_atom_site_fract_x
_atom_site_fract_y
_atom_site_fract_z
_atom_type_partial_charge
C0 C 0.96656 0.15543 0.05992 0.0
O1 O 0.93815 0.15593 0.039 0.0
Cd2 Cd 0.92605 0.088 0.00194 0.0
O3 O -0.0086 0.11815 0.06224 0.0
Cd4 Cd 0.00695 0.04158 0.03412 0.0
C5 C 0.08971 0.15863 0.98848 0.0
O6 O 0.89745 0.97704 0.01352 0.0
O7 O 0.97775 0.96971 -0.0036 0.0
O8 O 0.9819 0.9689 0.07123 0.0
C9 C 0.91624 0.94904 -0.00255 0.0
O10 O 0.0323 0.14366 0.98037 0.0
C11 C 0.03434 0.96581 0.07017 0.0
O12 O 0.09683 0.13434 0.00957 0.0
O13 O 0.07616 -2e-05 0.05281 0.0
C14 C 0.15479 0.08869 0.39185 0.0
O15 O 0.18711 0.12762 0.37342 0.0
Cd16 Cd 0.13458 0.14187 0.33598 0.0
O17 O 0.09174 0.05995 0.39251 0.0
Cd18 Cd 0.00054 0.05947 0.36729 0.0
C19 C 0.02942 0.9758 0.32139 0.0
O20 O 0.05733 0.17325 0.3498 0.0
O21 O 0.96457 0.10199 0.33154 0.0
O22 O 0.96213 0.07406 0.40908 0.0
C23 C 0.01194 0.16171 0.33349 0.0
O24 O 0.07915 0.03209 0.31537 0.0
C25 C 0.90097 0.03371 0.40471 0.0
O26 O -0.00703 0.96933 0.34063 0.0
O27 O 0.88612 0.00263 0.3833 0.0
C28 C 0.89884 0.08681 0.67223 0.0
O29 O 0.90488 0.12505 0.69079 0.0
Cd30 Cd 0.97157 0.1393 0.72828 0.0
O31 O 0.93397 0.05932 0.6715 0.0
Cd32 Cd 0.02638 0.06178 0.69671 0.0
C33 C 0.91436 0.97398 0.74245 0.0
O34 O 0.08197 0.17547 0.71458 0.0
O35 O 0.10498 0.10571 0.73257 0.0
O36 O 0.08056 0.07801 0.65497 0.0
C37 C 0.11661 0.16493 0.73077 0.0
O38 O 0.91848 0.02895 0.74846 0.0
C39 C 0.10155 0.03821 0.65927 0.0
O40 O 0.94595 0.96963 0.72335 0.0
O41 O 0.0853 0.00713 0.68065 0.0
H42 H 0.09423 0.51353 0.14707 0.0
H43 H 0.08027 0.42445 0.11815 0.0
H44 H 0.91536 0.28052 0.16355 0.0
H45 H 0.92537 0.37017 0.19128 0.0
H46 H 0.02497 0.5627 0.15277 0.0
H47 H 0.10213 0.4661 0.2152 0.0
H48 H 0.1065 0.3838 0.24373 0.0
H49 H 0.92072 0.3389 0.27775 0.0
H50 H 0.91628 0.42122 0.24937 0.0
H51 H 0.90933 0.59728 0.24279 0.0
H52 H 0.90769 0.68437 0.26896 0.0
H53 H 0.10692 0.82551 0.24481 0.0
H54 H 0.1085 0.73874 0.21841 0.0
H55 H 0.0 0.5517 0.24793 0.0
H56 H 0.93432 0.66002 0.18331 0.0
H57 H 0.94488 0.75111 0.15584 0.0
H58 H 0.13172 0.78387 0.12737 0.0
H59 H 0.12173 0.69328 0.15499 0.0
C60 C 0.01109 0.44906 0.17156 0.0
C61 C 0.05485 0.46295 0.15088 0.0
C62 C 0.04719 0.41208 0.13442 0.0
C63 C -0.00344 0.34595 0.13862 0.0
C64 C 0.95464 0.33128 0.15995 0.0
C65 C 0.96102 0.3825 0.17598 0.0
C66 C 0.01443 0.50475 0.18695 0.0
C67 C 0.02092 0.56054 0.17366 0.0
C68 C 0.00802 0.50225 0.21419 0.0
C69 C 0.00864 0.44944 0.23006 0.0
C70 C 0.06193 0.43797 0.22857 0.0
C71 C 0.06463 0.39141 0.24486 0.0
C72 C 0.01394 0.35554 0.26278 0.0
C73 C 0.96023 0.36624 0.26403 0.0
C74 C 0.95777 0.41308 0.24789 0.0
C75 C 0.00893 0.66177 0.22861 0.0
C76 C 0.95251 0.64706 0.24303 0.0
C77 C 0.95145 0.69652 0.25786 0.0
C78 C 0.00722 0.76098 0.25875 0.0
C79 C 0.06352 0.7759 0.24427 0.0
C80 C 0.06433 0.72662 0.22923 0.0
C81 C 0.01048 0.60854 0.21366 0.0
C82 C 0.00471 0.55346 0.22706 0.0
C83 C 0.01994 0.61279 0.18666 0.0
C84 C 0.02745 0.67011 0.1713 0.0
C85 C 0.97809 0.68746 0.17151 0.0
C86 C 0.98396 0.73916 0.15583 0.0
C87 C 0.03907 0.77394 0.13968 0.0
C88 C 0.08898 0.75753 0.13978 0.0
C89 C 0.0831 0.70584 0.15543 0.0
H90 H 0.59762 0.07978 0.4765 0.0
H91 H 0.68485 0.08248 0.45007 0.0
H92 H 0.68805 0.93403 0.49904 0.0
H93 H 0.59634 0.92659 0.52424 0.0
H94 H 0.48102 -0.00082 0.48394 0.0
H95 H 0.65999 0.11081 0.54767 0.0
H96 H 0.75062 0.12994 0.57733 0.0
H97 H 0.63065 0.93062 0.60735 0.0
H98 H 0.53926 0.91244 0.57836 0.0
H99 H 0.29526 0.92883 0.53958 0.0
H100 H 0.21193 0.93761 0.56483 0.0
H101 H 0.36678 0.08667 0.61329 0.0
H102 H 0.45047 0.08253 0.58681 0.0
H103 H 0.48418 0.00062 0.57966 0.0
H104 H 0.33699 0.91312 0.48529 0.0
H105 H 0.26436 0.93195 0.45635 0.0
H106 H 0.34819 0.13176 0.48625 0.0
H107 H 0.41916 0.11206 0.51583 0.0
C108 C 0.59036 0.00347 0.50269 0.0
C109 C 0.61612 0.04693 0.48146 0.0
C110 C 0.66626 0.04885 0.46642 0.0
C111 C 0.69304 0.00856 0.4726 0.0
C112 C 0.66809 0.96556 0.49394 0.0
C113 C 0.61635 0.9621 0.50855 0.0
C114 C 0.53541 0.00083 0.51807 0.0
C115 C 0.48204 -0.00036 0.5049 0.0
C116 C 0.536 0.00176 0.5454 0.0
C117 C 0.59319 0.01019 0.56086 0.0
C118 C 0.65363 0.071 0.5604 0.0
C119 C 0.70516 0.08188 0.57727 0.0
C120 C 0.69719 0.03171 0.59453 0.0
C121 C 0.63766 0.9699 0.59418 0.0
C122 C 0.58569 0.95955 0.57771 0.0
C123 C 0.37969 0.00582 0.56088 0.0
C124 C 0.31169 0.96477 0.55516 0.0
C125 C 0.26393 0.96903 0.56979 0.0
C126 C 0.28314 0.01255 0.59102 0.0
C127 C 0.35085 0.05266 0.59703 0.0
C128 C 0.39858 0.04991 0.58196 0.0
C129 C 0.4314 0.00208 0.54553 0.0
C130 C 0.48333 0.00047 0.5587 0.0
C131 C 0.43134 0.00219 0.51819 0.0
C132 C 0.38303 0.01111 0.50272 0.0
C133 C 0.3388 0.96051 0.48591 0.0
C134 C 0.2975 0.97121 0.46948 0.0
C135 C 0.3012 0.03333 0.46912 0.0
C136 C 0.34453 0.08349 0.48631 0.0
C137 C 0.38486 0.07227 0.50314 0.0
H138 H 0.4743 0.40993 0.81525 0.0
H139 H 0.38376 0.33216 0.78668 0.0
H140 H 0.25311 0.38941 0.82129 0.0
H141 H 0.34377 0.46738 0.85001 0.0
H142 H 0.52843 0.54409 0.8172 0.0
H143 H 0.40168 0.35668 0.87273 0.0
H144 H 0.30857 0.27412 0.89857 0.0
H145 H 0.32236 0.43154 0.94672 0.0
H146 H 0.40989 0.51441 0.91938 0.0
H147 H 0.56412 0.67712 0.91306 0.0
H148 H 0.64972 0.76355 0.94094 0.0
H149 H 0.79595 0.72458 0.90872 0.0
H150 H 0.71021 0.63776 0.88068 0.0
H151 H 0.52334 0.54573 0.91283 0.0
H152 H 0.62267 0.7292 0.85381 0.0
H153 H 0.70842 0.81865 0.82732 0.0
H154 H 0.74322 0.67573 0.78864 0.0
H155 H 0.65825 0.58605 0.81546 0.0
C156 C 0.41555 0.44393 0.8349 0.0
C157 C 0.42609 0.4055 0.81682 0.0
C158 C 0.37464 0.36127 0.80055 0.0
C159 C 0.31202 0.35522 0.80196 0.0
C160 C 0.30117 0.39342 0.82005 0.0
C161 C 0.35265 0.4375 0.83645 0.0
C162 C 0.47163 0.49347 0.85098 0.0
C163 C 0.52751 0.54384 0.83816 0.0
C164 C 0.46953 0.49393 0.87835 0.0
C165 C 0.41256 0.4424 0.89364 0.0
C166 C 0.38352 0.37387 0.8883 0.0
C167 C 0.33107 0.32653 0.90332 0.0
C168 C 0.30877 0.34667 0.92466 0.0
C169 C 0.33877 0.41484 0.93037 0.0
C170 C 0.38909 0.46213 0.91478 0.0
C171 C 0.63092 0.65121 0.89478 0.0
C172 C 0.61462 0.68727 0.91191 0.0
C173 C 0.66324 0.73649 0.92773 0.0
C174 C 0.7287 0.74998 0.9268 0.0
C175 C 0.74547 0.71456 0.90958 0.0
C176 C 0.69679 0.66542 0.8936 0.0
C177 C 0.57798 0.59708 0.87901 0.0
C178 C 0.52346 0.54553 0.89187 0.0
C179 C 0.58029 0.59619 0.85177 0.0
C180 C 0.63461 0.651 0.83685 0.0
C181 C 0.64956 0.71715 0.84002 0.0
C182 C 0.6981 0.76807 0.82485 0.0
C183 C 0.73187 0.75347 0.80615 0.0
C184 C 0.71758 0.68766 0.80307 0.0
C185 C 0.66917 0.63673 0.81829 0.0
C186 C 0.91727 0.20554 0.08879 0.0
C187 C 0.9729 0.20055 0.08145 0.0
C188 C 0.03863 0.27973 0.11576 0.0
C189 C 0.98658 0.29285 0.12003 0.0
N190 N 0.88032 0.27691 0.10647 0.0
N191 N 0.09154 0.24532 0.08465 0.0
C192 C 0.92679 0.25804 0.10546 0.0
C193 C 0.03502 0.24072 0.09412 0.0
N194 N 0.85495 0.159 0.08061 0.0
N195 N 0.09108 0.30362 0.13258 0.0
H196 H 0.09263 0.22155 0.0678 0.0
H197 H 0.13865 0.27895 0.09187 0.0
H198 H 0.0946 0.33102 0.14904 0.0
H199 H 0.12722 0.29017 0.13164 0.0
H200 H 0.81227 0.1572 0.0874 0.0
H201 H 0.84534 0.11782 0.06942 0.0
H202 H 0.83911 0.25725 0.0942 0.0
H203 H 0.88618 0.31683 0.11758 0.0
C204 C 0.79407 0.96192 0.42875 0.0
C205 C 0.84911 0.02607 0.4232 0.0
C206 C 0.80799 0.07493 0.45454 0.0
C207 C 0.74803 0.0129 0.45677 0.0
N208 N 0.67916 0.8994 0.4418 0.0
N209 N 0.89837 0.14599 0.42642 0.0
C210 C 0.73963 0.95676 0.44275 0.0
C211 C 0.85362 0.08337 0.43496 0.0
N212 N 0.79458 0.90578 0.42158 0.0
N213 N 0.82203 0.12563 0.47135 0.0
H214 H 0.9293 0.15511 0.41068 0.0
H215 H 0.89895 0.18859 0.43294 0.0
H216 H 0.79072 0.12068 0.48651 0.0
H217 H 0.8679 0.16974 0.47192 0.0
H218 H 0.75824 0.85806 0.42728 0.0
H219 H 0.83488 0.90722 0.41251 0.0
H220 H 0.66905 0.85957 0.42971 0.0
H221 H 0.63736 0.89405 0.45107 0.0
C222 C 0.89004 0.90666 0.78297 0.0
C223 C 0.87029 0.91398 0.75776 0.0
C224 C 0.76002 0.81569 0.76416 0.0
C225 C 0.78046 0.80708 0.78906 0.0
N226 N 0.86661 0.83662 0.8209 0.0
N227 N 0.79113 0.87156 0.72261 0.0
C228 C 0.84609 0.85037 0.7981 0.0
C229 C 0.80675 0.86699 0.74777 0.0
N230 N 0.95041 0.95428 0.79256 0.0
N231 N 0.69513 0.77656 0.75668 0.0
H232 H 0.82288 0.91014 0.71034 0.0
H233 H 0.74871 0.83489 0.71324 0.0
H234 H 0.65967 0.73777 0.76797 0.0
H235 H 0.67498 0.78507 0.74014 0.0
H236 H 0.9648 0.95655 0.81178 0.0
H237 H 0.98538 -0.00594 0.78151 0.0
H238 H 0.91555 0.86197 0.82743 0.0
H239 H 0.83536 0.79627 0.8326 0.0
C240 C 0.05719 0.93594 0.1141 0.0
C241 C 0.04327 0.92026 0.08747 0.0
C242 C 0.02611 0.80864 0.09513 0.0
C243 C 0.0427 0.82523 0.12157 0.0
N244 N 0.08425 0.90691 0.15572 0.0
N245 N 0.02413 0.84651 0.0516 0.0
C246 C 0.06126 0.88965 0.13093 0.0
C247 C 0.03117 0.8582 0.07765 0.0
N248 N 0.06535 -0.00538 0.12333 0.0
N249 N 0.00237 0.7445 0.08699 0.0
H250 H 0.02433 0.88019 0.03823 0.0
H251 H 0.02285 0.8056 0.04295 0.0
H252 H -0.00187 0.70675 0.09914 0.0
H253 H 0.98201 0.72709 0.06874 0.0
H254 H 0.06767 0.00579 0.1429 0.0
H255 H 0.06638 0.03124 0.11134 0.0
H256 H 0.10494 0.95505 0.16305 0.0
H257 H 0.08728 0.87397 0.16859 0.0
C258 C 0.23487 0.05174 0.4042 0.0
C259 C 0.1908 0.0734 0.4119 0.0
C260 C 0.21259 0.06024 0.45735 0.0
C261 C 0.26289 0.04719 0.44953 0.0
N262 N 0.33182 0.04536 0.41541 0.0
N263 N 0.14628 0.10952 0.44599 0.0
C264 C 0.27693 0.04722 0.42291 0.0
C265 C 0.1818 0.08063 0.43856 0.0
N266 N 0.23453 0.03241 0.37926 0.0
N267 N 0.19282 0.05128 0.48254 0.0
H268 H 0.12444 0.12679 0.43286 0.0
H269 H 0.14389 0.12218 0.46507 0.0
H270 H 0.21357 0.0355 0.49677 0.0
H271 H 0.15179 0.05345 0.4888 0.0
H272 H 0.26104 0.00996 0.37336 0.0
H273 H 0.20222 0.03172 0.36511 0.0
H274 H 0.34775 0.05206 0.39631 0.0
H275 H 0.3653 0.04409 0.42848 0.0
C276 C 0.21813 0.27665 0.73954 0.0
C277 C 0.16292 0.21716 0.74899 0.0
C278 C 0.20492 0.24835 0.79334 0.0
C279 C 0.25829 0.30936 0.78403 0.0
N280 N 0.30788 0.3885 0.74929 0.0
N281 N 0.09471 0.15459 0.78507 0.0
C282 C 0.26241 0.32569 0.75741 0.0
C283 C 0.1536 0.20541 0.77598 0.0
N284 N 0.2303 0.28493 0.7136 0.0
N285 N 0.20449 0.23016 0.81851 0.0
H286 H 0.05505 0.12357 0.77296 0.0
H287 H 0.08263 0.14755 0.8046 0.0
H288 H 0.2411 0.26027 0.83189 0.0
H289 H 0.17084 0.18297 0.82561 0.0
H290 H 0.27384 0.32371 0.70583 0.0
H291 H 0.19943 0.25005 0.69985 0.0
H292 H 0.30877 0.40548 0.73058 0.0
H293 H 0.34093 0.42576 0.76188 0.0
C294 C 0.86407 0.07846 0.62541 0.0
C295 C 0.84749 0.07117 0.65204 0.0
C296 C 0.7351 0.04543 0.6408 0.0
C297 C 0.74931 0.04533 0.61421 0.0
N298 N 0.82367 0.049 0.58137 0.0
N299 N 0.76179 0.03002 0.68447 0.0
C300 C 0.8128 0.05811 0.60653 0.0
C301 C 0.78142 0.0496 0.65959 0.0
N302 N 0.9289 0.1075 0.61808 0.0
N303 N 0.67848 0.04402 0.64821 0.0
H304 H 0.79309 0.02883 0.69864 0.0
H305 H 0.71251 0.00779 0.69026 0.0
H306 H 0.64402 0.04314 0.63509 0.0
H307 H 0.66926 0.05077 0.6673 0.0
H308 H 0.94419 0.12015 0.59901 0.0
H309 H 0.96817 0.125 0.63125 0.0
H310 H 0.86691 0.051 0.57521 0.0
H311 H 0.78707 0.03323 0.56707 0.0
C312 C 0.85781 0.91788 0.95465 0.0
C313 C 0.86927 0.89806 0.97918 0.0
C314 C 0.78872 0.78113 0.96936 0.0
C315 C 0.77926 0.8006 0.94442 0.0
N316 N 0.81017 0.8847 0.9116 0.0
N317 N 0.85477 0.81164 0.00876 0.0
C318 C 0.81546 0.86827 0.93655 0.0
C319 C 0.83734 0.82984 0.98622 0.0
N320 N 0.88639 0.98422 0.94894 0.0
N321 N 0.74994 0.71632 0.97712 0.0
H322 H 0.88905 0.84615 0.02187 0.0
H323 H 0.83903 0.76249 0.01372 0.0
H324 H 0.71547 0.67875 0.96499 0.0
H325 H 0.74873 0.70027 -0.004 0.0
H326 H 0.87438 0.00247 0.9327 0.0
H327 H 0.91967 0.0218 0.96134 0.0
H328 H 0.84027 0.93185 0.90373 0.0
H329 H 0.77851 0.84977 0.898 0.0
C330 C 0.0343 0.87145 0.31697 0.0
C331 C 0.01668 0.9166 0.30633 0.0
C332 C -0.00801 0.85931 0.26451 0.0
C333 C 0.00749 0.81282 0.27539 0.0
N334 N 0.03321 0.76725 0.3126 0.0
N335 N 0.96847 0.94819 0.2719 0.0
C336 C 0.02525 0.8165 0.30188 0.0
C337 C -0.00753 0.90894 0.28062 0.0
N338 N 0.06291 0.88313 0.34099 0.0
N339 N 0.97831 0.8568 0.23866 0.0
H340 H 0.96808 0.98487 0.28329 0.0
H341 H 0.94413 0.94115 0.25426 0.0
H342 H 0.97476 0.81946 0.2265 0.0
H343 H 0.97425 0.89366 0.22886 0.0
H344 H 0.08435 0.85702 0.34861 0.0
H345 H 0.06958 0.92229 0.35282 0.0
H346 H 0.03851 0.76277 0.33237 0.0
H347 H 0.02988 0.72772 0.30195 0.0
C348 C 0.13564 0.96647 0.63514 0.0
C349 C 0.14549 0.03063 0.64066 0.0
C350 C 0.23574 0.07926 0.6092 0.0
C351 C 0.23296 0.01723 0.607 0.0
N352 N 0.18737 0.904 0.62215 0.0
N353 N 0.21709 0.15054 0.6372 0.0
C354 C 0.18478 0.96125 0.62112 0.0
C355 C 0.1987 0.08785 0.62878 0.0
N356 N 0.07839 0.91034 0.64234 0.0
N357 N 0.27285 0.12977 0.59233 0.0
H358 H 0.19527 0.15978 0.65287 0.0
H359 H 0.25947 0.19314 0.63061 0.0
H360 H 0.29913 0.12472 0.57719 0.0
H361 H 0.27156 0.17383 0.59172 0.0
H362 H 0.06648 0.86259 0.63666 0.0
H363 H 0.03951 0.91176 0.65139 0.0
H364 H 0.15735 0.86434 0.63431 0.0
H365 H 0.22376 0.89863 0.61289 0.0
C366 C 0.14941 0.2649 0.96324 0.0
C367 C 0.14833 0.20765 0.9734 0.0
C368 C 0.25742 0.24615 0.95425 0.0
C369 C 0.25294 0.2971 0.94087 0.0
N370 N 0.18493 0.34305 0.92789 0.0
N371 N 0.19619 0.13677 0.97366 0.0
C372 C 0.19596 0.30292 0.94392 0.0
C373 C 0.20098 0.1962 0.96762 0.0
N374 N 0.1081 0.28501 0.97277 0.0
N375 N 0.31593 0.24651 0.95503 0.0
H376 H 0.15456 0.09743 0.98231 0.0
H377 H 0.23065 0.12407 0.96755 0.0
H378 H 0.35911 0.28347 0.94629 0.0
H379 H 0.32321 0.21403 0.9666 0.0
H380 H 0.11131 0.3297 0.96734 0.0
H381 H 0.07657 0.26165 0.98833 0.0
H382 H 0.14095 0.34412 0.92804 0.0
H383 H 0.21617 0.36936 0.91258 0.0
C384 C 0.02298 0.27328 0.32508 0.0
C385 C 0.01744 0.21369 0.31541 0.0
C386 C 0.00735 0.24599 0.27123 0.0
C387 C 0.01751 0.30757 0.28073 0.0
N388 N 0.0493 0.38617 0.31583 0.0
N389 N 0.02098 0.15108 0.27898 0.0
C390 C 0.02973 0.32317 0.30743 0.0
C391 C 0.01441 0.20222 0.28837 0.0
N392 N 0.01855 0.28096 0.35104 0.0
N393 N -0.01131 0.22819 0.24607 0.0
H394 H 0.02885 0.11947 0.29087 0.0
H395 H 0.02565 0.14433 0.25939 0.0
H396 H 0.98281 0.25879 0.23288 0.0
H397 H 0.9735 0.18082 0.23885 0.0
H398 H 0.0148 0.32 0.3589 0.0
H399 H 0.01269 0.24529 0.36464 0.0
H400 H 0.0656 0.4024 0.33463 0.0
H401 H 0.05521 0.42419 0.30343 0.0
loop_
_geom_bond_atom_site_label_1
_geom_bond_atom_site_label_2
_geom_bond_distance
_geom_bond_site_symmetry_2
_ccdc_geom_bond_type
C0 O1 1.306 1_455 S
C0 O3 1.160 . S
O1 C0 1.306 1_655 S
O1 Cd2 2.228 . S
Cd2 O1 2.228 . S
Cd2 O6 2.273 . S
Cd2 O10 2.277 1_655 S
O3 C0 1.160 . S
O3 Cd4 2.203 . S
Cd4 O3 2.203 . S
Cd4 O6 2.411 1_455 S
Cd4 O7 2.333 1_445 S
Cd4 O8 2.352 1_445 S
Cd4 O12 2.277 . S
Cd4 O13 2.356 1_545 S
C5 O10 1.209 . S
C5 O12 1.226 . S
O6 Cd2 2.273 . S
O6 Cd4 2.411 1_655 S
O6 C9 1.320 1_545 S
O7 Cd4 2.333 1_665 S
O7 C9 1.214 . S
O8 Cd4 2.352 1_665 S
O8 C11 1.258 1_655 S
C9 O6 1.320 1_565 S
C9 O7 1.214 . S
O10 Cd2 2.277 1_455 S
O10 C5 1.209 . S
C11 O8 1.258 1_455 S
C11 O13 1.282 . S
O12 Cd4 2.277 . S
O12 C5 1.226 . S
O13 Cd4 2.356 1_565 S
O13 C11 1.282 . S
C14 O15 1.306 . S
C14 O17 1.160 . S
O15 C14 1.306 . S
O15 Cd16 2.228 . S
Cd16 O15 2.228 . S
Cd16 O20 2.273 . S
Cd16 O24 2.277 . S
O17 C14 1.160 . S
O17 Cd18 2.203 1_455 S
Cd18 O17 2.203 1_655 S
Cd18 O20 2.411 1_655 S
Cd18 O21 2.333 . S
Cd18 O22 2.352 . S
Cd18 O26 2.277 1_545 S
Cd18 O27 2.356 1_545 S
C19 O24 1.209 1_565 S
C19 O26 1.226 1_455 S
O20 Cd16 2.273 . S
O20 Cd18 2.411 1_455 S
O20 C23 1.320 . S
O21 Cd18 2.333 . S
O21 C23 1.214 1_655 S
O22 Cd18 2.352 . S
O22 C25 1.258 . S
C23 O20 1.320 . S
C23 O21 1.214 1_455 S
O24 Cd16 2.277 . S
O24 C19 1.209 1_545 S
C25 O22 1.258 . S
C25 O27 1.282 1_545 S
O26 Cd18 2.277 1_565 S
O26 C19 1.226 1_655 S
O27 Cd18 2.356 1_565 S
O27 C25 1.282 1_565 S
C28 O29 1.306 . S
C28 O31 1.160 . S
O29 C28 1.306 . S
O29 Cd30 2.228 . S
Cd30 O29 2.228 . S
Cd30 O34 2.273 1_655 S
Cd30 O38 2.277 . S
O31 C28 1.160 . S
O31 Cd32 2.203 1_655 S
Cd32 O31 2.203 1_455 S
Cd32 O34 2.411 . S
Cd32 O35 2.333 . S
Cd32 O36 2.352 . S
Cd32 O40 2.277 1_445 S
Cd32 O41 2.351 1_545 S
C33 O38 1.209 1_565 S
C33 O40 1.226 . S
O34 Cd30 2.273 1_455 S
O34 Cd32 2.411 . S
O34 C37 1.320 . S
O35 Cd32 2.333 . S
O35 C37 1.214 . S
O36 Cd32 2.352 . S
O36 C39 1.258 . S
C37 O34 1.320 . S
C37 O35 1.214 . S
O38 Cd30 2.277 . S
O38 C33 1.209 1_545 S
C39 O36 1.258 . S
C39 O41 1.278 1_545 S
O40 Cd32 2.277 1_665 S
O40 C33 1.226 . S
O41 Cd32 2.351 1_565 S
O41 C39 1.278 1_565 S
H42 C61 0.949 . S
H43 C62 0.950 . S
H44 C64 0.950 . S
H45 C65 0.950 . S
H46 C67 0.950 . S
H47 C70 0.950 . S
H48 C71 0.950 . S
H49 C73 0.951 . S
H50 C74 0.949 . S
H51 C76 0.949 . S
H52 C77 0.950 . S
H53 C79 0.950 . S
H54 C80 0.950 . S
H55 C82 0.950 . S
H56 C85 0.946 1_655 S
H57 C86 0.950 1_655 S
H58 C88 0.951 . S
H59 C89 0.949 . S
C60 C61 1.376 . S
C60 C65 1.386 1_455 S
C60 C66 1.483 . S
C61 H42 0.949 . S
C61 C60 1.376 . S
C61 C62 1.397 . S
C62 H43 0.950 . S
C62 C61 1.397 . S
C62 C63 1.391 . S
C63 C62 1.391 . S
C63 C64 1.405 1_455 S
C64 H44 0.950 . S
C64 C63 1.405 1_655 S
C64 C65 1.367 . S
C65 H45 0.950 . S
C65 C60 1.386 1_655 S
C65 C64 1.367 . S
C66 C60 1.483 . S
C66 C67 1.382 . S
C66 C68 1.403 . S
C67 H46 0.950 . S
C67 C66 1.382 . S
C67 C83 1.411 . S
C68 C66 1.403 . S
C68 C69 1.489 . S
C68 C82 1.411 . S
C69 C68 1.489 . S
C69 C70 1.383 . S
C69 C74 1.382 1_455 S
C70 H47 0.950 . S
C70 C69 1.383 . S
C70 C71 1.395 . S
C71 H48 0.950 . S
C71 C70 1.395 . S
C71 C72 1.288 . S
C72 C71 1.288 . S
C72 C73 1.392 1_455 S
C73 H49 0.951 . S
C73 C72 1.392 1_655 S
C73 C74 1.392 . S
C74 H50 0.949 . S
C74 C69 1.382 1_655 S
C74 C73 1.392 . S
C75 C76 1.376 1_455 S
C75 C80 1.386 . S
C75 C81 1.483 . S
C76 H51 0.949 . S
C76 C75 1.376 1_655 S
C76 C77 1.397 . S
C77 H52 0.950 . S
C77 C76 1.397 . S
C77 C78 1.391 1_655 S
C78 C77 1.391 1_455 S
C78 C79 1.405 . S
C79 H53 0.950 . S
C79 C78 1.405 . S
C79 C80 1.367 . S
C80 H54 0.950 . S
C80 C75 1.386 . S
C80 C79 1.367 . S
C81 C75 1.483 . S
C81 C82 1.382 . S
C81 C83 1.403 . S
C82 H55 0.950 . S
C82 C68 1.411 . S
C82 C81 1.382 . S
C83 C67 1.411 . S
C83 C81 1.403 . S
C83 C84 1.489 . S
C84 C83 1.489 . S
C84 C85 1.389 . S
C84 C89 1.382 . S
C85 H56 0.946 1_455 S
C85 C84 1.389 . S
C85 C86 1.393 . S
C86 H57 0.950 1_455 S
C86 C85 1.393 . S
C86 C87 1.288 . S
C87 C86 1.288 . S
C87 C88 1.392 . S
C88 H58 0.951 . S
C88 C87 1.392 . S
C88 C89 1.392 . S
C89 H59 0.949 . S
C89 C84 1.382 . S
C89 C88 1.392 . S
H90 C109 0.949 . S
H91 C110 0.950 . S
H92 C112 0.956 . S
H93 C113 0.950 1_565 S
H94 C115 0.950 . S
H95 C118 0.950 . S
H96 C119 0.950 . S
H97 C121 0.951 . S
H98 C122 0.949 . S
H99 C124 0.949 . S
H100 C125 0.950 . S
H101 C127 0.950 . S
H102 C128 0.950 . S
H103 C130 0.950 . S
H104 C133 0.950 1_565 S
H105 C134 0.950 1_565 S
H106 C136 0.951 . S
H107 C137 0.949 . S
C108 C109 1.376 . S
C108 C113 1.386 . S
C108 C114 1.483 . S
C109 H90 0.949 . S
C109 C108 1.376 . S
C109 C110 1.397 . S
C110 H91 0.950 . S
C110 C109 1.397 . S
C110 C111 1.391 . S
C111 C110 1.391 . S
C111 C112 1.402 1_545 S
C112 H92 0.956 . S
C112 C111 1.402 1_565 S
C112 C113 1.365 1_565 S
C113 H93 0.950 1_545 S
C113 C108 1.386 . S
C113 C112 1.365 1_545 S
C114 C108 1.483 . S
C114 C115 1.382 . S
C114 C116 1.403 . S
C115 H94 0.950 . S
C115 C114 1.382 . S
C115 C131 1.411 . S
C116 C114 1.403 . S
C116 C117 1.489 . S
C116 C130 1.411 . S
C117 C116 1.489 . S
C117 C118 1.383 . S
C117 C122 1.382 1_545 S
C118 H95 0.950 . S
C118 C117 1.383 . S
C118 C119 1.395 . S
C119 H96 0.950 . S
C119 C118 1.395 . S
C119 C120 1.288 . S
C120 C119 1.288 . S
C120 C121 1.392 1_545 S
C121 H97 0.951 . S
C121 C120 1.392 1_565 S
C121 C122 1.392 . S
C122 H98 0.949 . S
C122 C117 1.382 1_565 S
C122 C121 1.392 . S
C123 C124 1.376 1_545 S
C123 C128 1.386 . S
C123 C129 1.483 . S
C124 H99 0.949 . S
C124 C123 1.376 1_565 S
C124 C125 1.397 . S
C125 H100 0.950 . S
C125 C124 1.397 . S
C125 C126 1.391 1_565 S
C126 C125 1.391 1_545 S
C126 C127 1.405 . S
C127 H101 0.950 . S
C127 C126 1.405 . S
C127 C128 1.367 . S
C128 H102 0.950 . S
C128 C123 1.386 . S
C128 C127 1.367 . S
C129 C123 1.483 . S
C129 C130 1.382 . S
C129 C131 1.403 . S
C130 H103 0.950 . S
C130 C116 1.411 . S
C130 C129 1.382 . S
C131 C115 1.411 . S
C131 C129 1.403 . S
C131 C132 1.489 . S
C132 C131 1.489 . S
C132 C133 1.383 . S
C132 C137 1.382 . S
C133 H104 0.950 1_545 S
C133 C132 1.383 . S
C133 C134 1.395 . S
C134 H105 0.950 1_545 S
C134 C133 1.395 . S
C134 C135 1.288 . S
C135 C134 1.288 . S
C135 C136 1.392 . S
C136 H106 0.951 . S
C136 C135 1.392 . S
C136 C137 1.392 . S
C137 H107 0.949 . S
C137 C132 1.382 . S
C137 C136 1.392 . S
H138 C157 0.949 . S
H139 C158 0.950 . S
H140 C160 0.950 . S
H141 C161 0.950 . S
H142 C163 0.950 . S
H143 C166 0.950 . S
H144 C167 0.950 . S
H145 C169 0.951 . S
H146 C170 0.949 . S
H147 C172 0.949 . S
H148 C173 0.950 . S
H149 C175 0.950 . S
H150 C176 0.950 . S
H151 C178 0.950 . S
H152 C181 0.950 . S
H153 C182 0.950 . S
H154 C184 0.951 . S
H155 C185 0.949 . S
C156 C157 1.376 . S
C156 C161 1.386 . S
C156 C162 1.483 . S
C157 H138 0.949 . S
C157 C156 1.376 . S
C157 C158 1.397 . S
C158 H139 0.950 . S
C158 C157 1.397 . S
C158 C159 1.391 . S
C159 C158 1.391 . S
C159 C160 1.405 . S
C160 H140 0.950 . S
C160 C159 1.405 . S
C160 C161 1.367 . S
C161 H141 0.950 . S
C161 C156 1.386 . S
C161 C160 1.367 . S
C162 C156 1.483 . S
C162 C163 1.382 . S
C162 C164 1.403 . S
C163 H142 0.950 . S
C163 C162 1.382 . S
C163 C179 1.411 . S
C164 C162 1.403 . S
C164 C165 1.489 . S
C164 C178 1.411 . S
C165 C164 1.489 . S
C165 C166 1.383 . S
C165 C170 1.382 . S
C166 H143 0.950 . S
C166 C165 1.383 . S
C166 C167 1.395 . S
C167 H144 0.950 . S
C167 C166 1.395 . S
C167 C168 1.288 . S
C168 C167 1.288 . S
C168 C169 1.392 . S
C169 H145 0.951 . S
C169 C168 1.392 . S
C169 C170 1.392 . S
C170 H146 0.949 . S
C170 C165 1.382 . S
C170 C169 1.392 . S
C171 C172 1.376 . S
C171 C176 1.386 . S
C171 C177 1.483 . S
C172 H147 0.949 . S
C172 C171 1.376 . S
C172 C173 1.397 . S
C173 H148 0.950 . S
C173 C172 1.397 . S
C173 C174 1.391 . S
C174 C173 1.391 . S
C174 C175 1.405 . S
C175 H149 0.950 . S
C175 C174 1.405 . S
C175 C176 1.367 . S
C176 H150 0.950 . S
C176 C171 1.386 . S
C176 C175 1.367 . S
C177 C171 1.483 . S
C177 C178 1.382 . S
C177 C179 1.403 . S
C178 H151 0.950 . S
C178 C164 1.411 . S
C178 C177 1.382 . S
C179 C163 1.411 . S
C179 C177 1.403 . S
C179 C180 1.489 . S
C180 C179 1.489 . S
C180 C181 1.383 . S
C180 C185 1.382 . S
C181 H152 0.950 . S
C181 C180 1.383 . S
C181 C182 1.395 . S
C182 H153 0.950 . S
C182 C181 1.395 . S
C182 C183 1.288 . S
C183 C182 1.288 . S
C183 C184 1.392 . S
C184 H154 0.951 . S
C184 C183 1.392 . S
C184 C185 1.392 . S
C185 H155 0.949 . S
C185 C180 1.382 . S
C185 C184 1.392 . S
C186 C187 1.363 1_655 S
C186 C192 1.379 . S
C186 N194 1.356 . S
C187 C186 1.363 1_455 S
C187 C193 1.363 . S
C188 C189 1.363 . S
C188 C193 1.379 . S
C188 N195 1.356 . S
C189 C188 1.363 . S
C189 C192 1.363 1_455 S
N190 C192 1.356 . S
N190 H202 0.984 . S
N190 H203 0.985 . S
N191 C193 1.356 . S
N191 H196 0.984 . S
N191 H197 0.985 . S
C192 C186 1.379 . S
C192 C189 1.363 1_655 S
C192 N190 1.356 . S
C193 C187 1.363 . S
C193 C188 1.379 . S
C193 N191 1.356 . S
N194 C186 1.356 . S
N194 H200 0.984 . S
N194 H201 0.984 . S
N195 C188 1.356 . S
N195 H198 0.984 . S
N195 H199 0.985 . S
H196 N191 0.984 . S
H197 N191 0.985 . S
H198 N195 0.984 . S
H199 N195 0.985 . S
H200 N194 0.984 . S
H201 N194 0.984 . S
H202 N190 0.984 . S
H203 N190 0.985 . S
C204 C205 1.363 1_565 S
C204 C210 1.379 . S
C204 N212 1.356 . S
C205 C204 1.363 1_545 S
C205 C211 1.363 . S
C206 C207 1.363 . S
C206 C211 1.379 . S
C206 N213 1.356 . S
C207 C206 1.363 . S
C207 C210 1.363 1_545 S
N208 C210 1.356 . S
N208 H220 0.984 . S
N208 H221 0.985 . S
N209 C211 1.356 . S
N209 H214 0.984 . S
N209 H215 0.985 . S
C210 C204 1.379 . S
C210 C207 1.363 1_565 S
C210 N208 1.356 . S
C211 C205 1.363 . S
C211 C206 1.379 . S
C211 N209 1.356 . S
N212 C204 1.356 . S
N212 H218 0.984 . S
N212 H219 0.984 . S
N213 C206 1.356 . S
N213 H216 0.984 . S
N213 H217 0.985 . S
H214 N209 0.984 . S
H215 N209 0.985 . S
H216 N213 0.984 . S
H217 N213 0.985 . S
H218 N212 0.984 . S
H219 N212 0.984 . S
H220 N208 0.984 . S
H221 N208 0.985 . S
C222 C223 1.363 . S
C222 C228 1.379 . S
C222 N230 1.356 . S
C223 C222 1.363 . S
C223 C229 1.363 . S
C224 C225 1.363 . S
C224 C229 1.379 . S
C224 N231 1.356 . S
C225 C224 1.363 . S
C225 C228 1.363 . S
N226 C228 1.356 . S
N226 H238 0.984 . S
N226 H239 0.985 . S
N227 C229 1.356 . S
N227 H232 0.984 . S
N227 H233 0.985 . S
C228 C222 1.379 . S
C228 C225 1.363 . S
C228 N226 1.356 . S
C229 C223 1.363 . S
C229 C224 1.379 . S
C229 N227 1.356 . S
N230 C222 1.356 . S
N230 H236 0.984 . S
N230 H237 0.984 . S
N231 C224 1.356 . S
N231 H234 0.984 . S
N231 H235 0.985 . S
H232 N227 0.984 . S
H233 N227 0.985 . S
H234 N231 0.984 . S
H235 N231 0.985 . S
H236 N230 0.984 . S
H237 N230 0.984 . S
H238 N226 0.984 . S
H239 N226 0.985 . S
C240 C241 1.363 . S
C240 C246 1.379 . S
C240 N248 1.356 1_455 S
C241 C240 1.363 . S
C241 C247 1.363 . S
C242 C243 1.363 . S
C242 C247 1.379 . S
C242 N249 1.356 . S
C243 C242 1.363 . S
C243 C246 1.363 . S
N244 C246 1.356 1_655 S
N244 H256 0.984 . S
N244 H257 0.994 . S
N245 C247 1.356 . S
N245 H250 0.984 . S
N245 H251 0.985 . S
C246 C240 1.379 . S
C246 C243 1.363 . S
C246 N244 1.356 1_455 S
C247 C241 1.363 . S
C247 C242 1.379 . S
C247 N245 1.356 . S
N248 C240 1.356 1_655 S
N248 H254 0.984 . S
N248 H255 0.984 . S
N249 C242 1.356 . S
N249 H252 0.984 . S
N249 H253 0.985 . S
H250 N245 0.984 . S
H251 N245 0.985 . S
H252 N249 0.984 . S
H253 N249 0.985 . S
H254 N248 0.984 . S
H255 N248 0.984 . S
H256 N244 0.984 . S
H257 N244 0.994 . S
C258 C259 1.363 1_565 S
C258 C264 1.379 . S
C258 N266 1.356 . S
C259 C258 1.363 1_545 S
C259 C265 1.363 . S
C260 C261 1.363 . S
C260 C265 1.379 . S
C260 N267 1.356 . S
C261 C260 1.363 . S
C261 C264 1.363 1_545 S
N262 C264 1.356 . S
N262 H274 0.984 . S
N262 H275 0.985 . S
N263 C265 1.356 . S
N263 H268 0.984 . S
N263 H269 0.985 . S
C264 C258 1.379 . S
C264 C261 1.363 1_565 S
C264 N262 1.356 . S
C265 C259 1.363 . S
C265 C260 1.379 . S
C265 N263 1.356 . S
N266 C258 1.356 . S
N266 H272 0.984 . S
N266 H273 0.984 . S
N267 C260 1.356 . S
N267 H270 0.984 . S
N267 H271 0.985 . S
H268 N263 0.984 . S
H269 N263 0.985 . S
H270 N267 0.984 . S
H271 N267 0.985 . S
H272 N266 0.984 . S
H273 N266 0.984 . S
H274 N262 0.984 . S
H275 N262 0.985 . S
C276 C277 1.363 . S
C276 C282 1.379 . S
C276 N284 1.356 . S
C277 C276 1.363 . S
C277 C283 1.363 . S
C278 C279 1.363 . S
C278 C283 1.379 . S
C278 N285 1.356 . S
C279 C278 1.363 . S
C279 C282 1.363 . S
N280 C282 1.356 . S
N280 H292 0.984 . S
N280 H293 0.985 . S
N281 C283 1.356 . S
N281 H286 0.984 . S
N281 H287 0.985 . S
C282 C276 1.379 . S
C282 C279 1.363 . S
C282 N280 1.356 . S
C283 C277 1.363 . S
C283 C278 1.379 . S
C283 N281 1.356 . S
N284 C276 1.356 . S
N284 H290 0.984 . S
N284 H291 0.984 . S
N285 C278 1.356 . S
N285 H288 0.984 . S
N285 H289 0.985 . S
H286 N281 0.984 . S
H287 N281 0.985 . S
H288 N285 0.984 . S
H289 N285 0.985 . S
H290 N284 0.984 . S
H291 N284 0.984 . S
H292 N280 0.984 . S
H293 N280 0.985 . S
C294 C295 1.363 . S
C294 C300 1.379 . S
C294 N302 1.356 1_545 S
C295 C294 1.363 . S
C295 C301 1.363 . S
C296 C297 1.363 . S
C296 C301 1.379 . S
C296 N303 1.356 . S
C297 C296 1.363 . S
C297 C300 1.363 . S
N298 C300 1.356 1_565 S
N298 H310 0.984 . S
N298 H311 0.985 . S
N299 C301 1.356 . S
N299 H304 0.984 . S
N299 H305 0.985 . S
C300 C294 1.379 . S
C300 C297 1.363 . S
C300 N298 1.356 1_545 S
C301 C295 1.363 . S
C301 C296 1.379 . S
C301 N299 1.356 . S
N302 C294 1.356 1_565 S
N302 H308 0.984 . S
N302 H309 0.984 1_565 S
N303 C296 1.356 . S
N303 H306 0.984 . S
N303 H307 0.985 . S
H304 N299 0.984 . S
H305 N299 0.985 . S
H306 N303 0.984 . S
H307 N303 0.985 . S
H308 N302 0.984 . S
H309 N302 0.984 1_545 S
H310 N298 0.984 . S
H311 N298 0.985 . S
C312 C313 1.363 . S
C312 C318 1.379 . S
C312 N320 1.354 . S
C313 C312 1.363 . S
C313 C319 1.363 . S
C314 C315 1.363 . S
C314 C319 1.379 . S
C314 N321 1.356 . S
C315 C314 1.363 . S
C315 C318 1.363 . S
N316 C318 1.356 . S
N316 H328 0.984 . S
N316 H329 0.985 . S
N317 C319 1.356 . S
N317 H322 0.984 . S
N317 H323 0.985 . S
C318 C312 1.379 . S
C318 C315 1.363 . S
C318 N316 1.356 . S
C319 C313 1.363 . S
C319 C314 1.379 . S
C319 N317 1.356 . S
N320 C312 1.354 . S
N320 H326 0.992 1_556 S
N320 H327 0.987 1_566 S
N321 C314 1.356 . S
N321 H324 0.984 . S
N321 H325 0.985 . S
H322 N317 0.984 . S
H323 N317 0.985 . S
H324 N321 0.984 . S
H325 N321 0.985 . S
H326 N320 0.992 1_554 S
H327 N320 0.987 1_544 S
H328 N316 0.984 . S
H329 N316 0.985 . S
C330 C331 1.363 . S
C330 C336 1.379 . S
C330 N338 1.356 . S
C331 C330 1.363 . S
C331 C337 1.363 . S
C332 C333 1.363 . S
C332 C337 1.379 . S
C332 N339 1.356 . S
C333 C332 1.363 . S
C333 C336 1.363 . S
N334 C336 1.356 . S
N334 H346 0.984 . S
N334 H347 0.985 . S
N335 C337 1.356 . S
N335 H340 0.984 . S
N335 H341 0.985 . S
C336 C330 1.379 . S
C336 C333 1.363 . S
C336 N334 1.356 . S
C337 C331 1.363 . S
C337 C332 1.379 . S
C337 N335 1.356 . S
N338 C330 1.356 . S
N338 H344 0.984 . S
N338 H345 0.984 . S
N339 C332 1.356 . S
N339 H342 0.984 . S
N339 H343 0.985 . S
H340 N335 0.984 . S
H341 N335 0.985 . S
H342 N339 0.984 . S
H343 N339 0.985 . S
H344 N338 0.984 . S
H345 N338 0.984 . S
H346 N334 0.984 . S
H347 N334 0.985 . S
C348 C349 1.363 . S
C348 C354 1.379 . S
C348 N356 1.356 1_545 S
C349 C348 1.363 . S
C349 C355 1.363 . S
C350 C351 1.363 . S
C350 C355 1.379 . S
C350 N357 1.356 . S
C351 C350 1.363 . S
C351 C354 1.363 . S
N352 C354 1.356 1_565 S
N352 H364 0.984 . S
N352 H365 0.985 . S
N353 C355 1.356 . S
N353 H358 0.984 . S
N353 H359 0.985 . S
C354 C348 1.379 . S
C354 C351 1.363 . S
C354 N352 1.356 1_545 S
C355 C349 1.363 . S
C355 C350 1.379 . S
C355 N353 1.356 . S
N356 C348 1.356 1_565 S
N356 H362 0.984 . S
N356 H363 0.984 . S
N357 C350 1.356 . S
N357 H360 0.984 . S
N357 H361 0.985 . S
H358 N353 0.984 . S
H359 N353 0.985 . S
H360 N357 0.984 . S
H361 N357 0.985 . S
H362 N356 0.984 . S
H363 N356 0.984 . S
H364 N352 0.984 . S
H365 N352 0.985 . S
C366 C367 1.363 . S
C366 C372 1.379 . S
C366 N374 1.356 . S
C367 C366 1.363 . S
C367 C373 1.363 . S
C368 C369 1.363 . S
C368 C373 1.379 . S
C368 N375 1.356 . S
C369 C368 1.363 . S
C369 C372 1.363 . S
N370 C372 1.356 . S
N370 H382 0.984 . S
N370 H383 0.985 . S
N371 C373 1.356 . S
N371 H376 0.983 1_556 S
N371 H377 0.985 . S
C372 C366 1.379 . S
C372 C369 1.363 . S
C372 N370 1.356 . S
C373 C367 1.363 . S
C373 C368 1.379 . S
C373 N371 1.356 . S
N374 C366 1.356 . S
N374 H380 0.984 . S
N374 H381 0.984 1_556 S
N375 C368 1.356 . S
N375 H378 0.984 . S
N375 H379 0.985 . S
H376 N371 0.983 1_554 S
H377 N371 0.985 . S
H378 N375 0.984 . S
H379 N375 0.985 . S
H380 N374 0.984 . S
H381 N374 0.984 1_554 S
H382 N370 0.984 . S
H383 N370 0.985 . S
C384 C385 1.363 . S
C384 C390 1.379 . S
C384 N392 1.356 . S
C385 C384 1.363 . S
C385 C391 1.363 . S
C386 C387 1.363 . S
C386 C391 1.379 . S
C386 N393 1.356 . S
C387 C386 1.363 . S
C387 C390 1.363 . S
N388 C390 1.356 . S
N388 H400 0.984 1_455 S
N388 H401 0.985 . S
N389 C391 1.356 . S
N389 H394 0.984 . S
N389 H395 0.985 . S
C390 C384 1.379 . S
C390 C387 1.363 . S
C390 N388 1.356 . S
C391 C385 1.363 . S
C391 C386 1.379 . S
C391 N389 1.356 . S
N392 C384 1.356 . S
N392 H398 0.984 1_455 S
N392 H399 0.984 . S
N393 C386 1.356 . S
N393 H396 0.984 . S
N393 H397 0.985 . S
H394 N389 0.984 . S
H395 N389 0.985 . S
H396 N393 0.984 . S
H397 N393 0.985 . S
H398 N392 0.984 1_655 S
H399 N392 0.984 . S
H400 N388 0.984 1_655 S
H401 N388 0.985 . S
C189 C63 1.478 . S
C187 C0 1.473 . S
C205 C25 1.508 . S
C207 C111 1.509 . S
C223 C33 1.531 . S
C225 C183 1.517 . S
C241 C11 1.469 . S
C243 C87 1.464 . S
C261 C135 1.494 . S
C259 C14 1.497 . S
C277 C37 1.529 . S
C279 C159 1.530 . S
C297 C120 1.496 . S
C295 C28 1.495 . S
C313 C9 1.529 1_556 S
C315 C174 1.533 . S
C333 C78 1.552 . S
C331 C19 1.552 . S
C351 C126 1.506 . S
C349 C39 1.506 . S
C369 C168 1.533 . S
C367 C5 1.529 1_556 S
C385 C23 1.558 . S
C387 C72 1.558 . S
