# Generated by pormake.
# Topology tsx, (6,3)-cn, num edge types: 1
# Building blocks:
#     Node 0, Type 0, BuildingBlock: LEVNOQ01_clean_sbu_1, # of connection points: 6
#     Node 1, Type 0, BuildingBlock: LEVNOQ01_clean_sbu_1, # of connection points: 6
#     Node 2, Type 1, BuildingBlock: BETDAH_clean_linker_0, # of connection points: 3
#     Node 3, Type 1, BuildingBlock: BETDAH_clean_linker_0, # of connection points: 3
#     Node 4, Type 1, BuildingBlock: BETDAH_clean_linker_0, # of connection points: 3
#     Node 5, Type 1, BuildingBlock: BETDAH_clean_linker_0, # of connection points: 3
#     Edge 6, Type (0, 1), BuildingBlock: FUNLAD_clean_linker_0, # of connection points: 2
#     Edge 7, Type (0, 1), BuildingBlock: FUNLAD_clean_linker_0, # of connection points: 2
#     Edge 8, Type (0, 1), BuildingBlock: FUNLAD_clean_linker_0, # of connection points: 2
#     Edge 9, Type (0, 1), BuildingBlock: FUNLAD_clean_linker_0, # of connection points: 2
#     Edge 10, Type (0, 1), BuildingBlock: FUNLAD_clean_linker_0, # of connection points: 2
#     Edge 11, Type (0, 1), BuildingBlock: FUNLAD_clean_linker_0, # of connection points: 2
#     Edge 12, Type (0, 1), BuildingBlock: FUNLAD_clean_linker_0, # of connection points: 2
#     Edge 13, Type (0, 1), BuildingBlock: FUNLAD_clean_linker_0, # of connection points: 2
#     Edge 14, Type (0, 1), BuildingBlock: FUNLAD_clean_linker_0, # of connection points: 2
#     Edge 15, Type (0, 1), BuildingBlock: FUNLAD_clean_linker_0, # of connection points: 2
#     Edge 16, Type (0, 1), BuildingBlock: FUNLAD_clean_linker_0, # of connection points: 2
#     Edge 17, Type (0, 1), BuildingBlock: FUNLAD_clean_linker_0, # of connection points: 2
# Relax obj value: 0.095
# Max RMSD: 0.147
# Mean RMSD: 0.109
data_MOF--net-tsx--node1-LEVNOQ01_clean_sbu_1--node2-BETDAH_clean_linker_0--edge1-FUNLAD_clean_linker_0
_symmetry_space_group_name_H-M    P1
_symmetry_Int_Tables_number       1
_symmetry_cell_setting            triclinic
loop_
_symmetry_equiv_pos_as_xyz
'x, y, z'
_cell_length_a     22.225641
_cell_length_b     27.003024
_cell_length_c     39.678714
_cell_angle_alpha  97.174536
_cell_angle_beta   100.44507
_cell_angle_gamma 90.941223
loop_
_atom_site_label
_atom_site_type_symbol
_atom_site_fract_x
_atom_site_fract_y
_atom_site_fract_z
_atom_type_partial_charge
O0 O 0.15962 0.01394 0.08431 0.0
Mg1 Mg 0.19025 0.01524 0.03685 0.0
O2 O 0.06139 0.00177 0.06044 0.0
Mg3 Mg 0.05208 -0.00247 0.00078 0.0
O4 O 0.13269 0.05449 0.00488 0.0
O5 O 0.23035 0.07848 0.02569 0.0
O6 O 0.04318 -0.00505 0.94101 0.0
O7 O -0.0009 0.0728 0.00297 0.0
Mg8 Mg 0.93057 -0.00538 0.97733 0.0
O9 O 0.9715 0.93618 -0.00093 0.0
O10 O 0.94463 0.00721 0.928 0.0
O11 O 0.9063 0.05529 0.00981 0.0
O12 O 0.8725 0.93584 0.97286 0.0
C13 C 0.1664 0.91439 -0.0011 0.0
C14 C 0.10407 0.00755 0.08704 0.0
C15 C 0.17816 0.08632 0.00729 0.0
C16 C -0.00376 0.00298 0.91897 0.0
C17 C 0.94771 0.0875 0.00944 0.0
C18 C 0.91699 0.91435 0.99024 0.0
O19 O 0.20881 0.94712 0.01072 0.0
O20 O 0.11005 0.92495 -0.00326 0.0
O21 O 0.63185 0.53727 0.59496 0.0
Mg22 Mg 0.66833 0.52645 0.55013 0.0
O23 O 0.5515 0.49732 0.56181 0.0
Mg24 Mg 0.55769 0.50347 0.50313 0.0
O25 O 0.63515 0.56752 0.51106 0.0
O26 O 0.72587 0.58289 0.54727 0.0
O27 O 0.56393 0.51381 0.44448 0.0
O28 O 0.49188 0.56955 0.50742 0.0
Mg29 Mg 0.46691 0.47562 0.45487 0.0
O30 O 0.47859 0.43953 0.49778 0.0
O31 O 0.51022 0.45013 0.41398 0.0
O32 O 0.43388 0.54872 0.45658 0.0
O33 O 0.39534 0.42971 0.45529 0.0
C34 C 0.6778 0.42719 0.51249 0.0
C35 C 0.58032 0.51527 0.59181 0.0
C36 C 0.6857 0.59458 0.52205 0.0
C37 C 0.54731 0.48643 0.41548 0.0
C38 C 0.44945 0.57987 0.48348 0.0
C39 C 0.42526 0.4181 0.484 0.0
O40 O 0.70618 0.45843 0.53671 0.0
O41 O 0.62409 0.43615 0.49724 0.0
H42 H 0.14223 0.91786 0.38907 0.0
H43 H 0.00473 0.02622 0.39924 0.0
H44 H 0.06069 0.93455 0.47983 0.0
C45 C 0.11125 0.93695 0.40404 0.0
C46 C 0.10669 0.92258 0.43626 0.0
C47 C 0.07485 0.97445 0.39053 0.0
C48 C 0.03324 -0.00248 0.40963 0.0
C49 C 0.02812 0.98314 0.44189 0.0
C50 C 0.06542 0.94613 0.45521 0.0
N51 N 0.98449 0.00365 0.46109 0.0
C52 C 0.94848 0.0436 0.45299 0.0
H53 H 0.91346 -0.01261 0.6183 0.0
H54 H 0.06971 0.07101 0.60177 0.0
H55 H 0.95256 0.98319 0.51621 0.0
C56 C 0.94099 1e-05 0.60085 0.0
C57 C 0.92595 0.98252 0.56549 0.0
C58 C 0.99289 0.03168 0.61416 0.0
C59 C 0.02921 0.04712 0.59155 0.0
C60 C 0.01391 0.03032 0.55591 0.0
C61 C 0.96276 -0.00213 0.54329 0.0
N62 N 0.05052 0.04296 0.53222 0.0
C63 C 0.0903 0.08456 0.53781 0.0
H64 H 0.63326 0.42559 0.88242 0.0
H65 H 0.48866 0.51842 0.90872 0.0
H66 H 0.59708 0.44345 0.98623 0.0
C67 C 0.60685 0.44116 0.90135 0.0
C68 C 0.62242 0.43143 0.93579 0.0
C69 C 0.55849 0.4724 0.8914 0.0
C70 C 0.52589 0.49434 0.91629 0.0
C71 C 0.54004 0.48352 0.95052 0.0
C72 C 0.58751 0.45193 0.95984 0.0
N73 N 0.50707 0.50274 0.97633 0.0
C74 C 0.46946 0.54301 0.97397 0.0
H75 H 0.38811 0.50209 0.1043 0.0
H76 H 0.57281 0.56257 0.11503 0.0
H77 H 0.49737 0.45422 0.02911 0.0
C78 C 0.43115 0.5046 0.09543 0.0
C79 C 0.43764 0.47367 0.06535 0.0
C80 C 0.48129 0.53328 0.11587 0.0
C81 C 0.53335 0.54025 0.10084 0.0
C82 C 0.5372 0.51412 0.06828 0.0
C83 C 0.49092 0.47878 0.05181 0.0
N84 N 0.59032 0.51814 0.05357 0.0
C85 C 0.62074 0.56331 0.05298 0.0
C86 C 0.14911 0.17417 0.01215 0.0
C87 C 0.17151 0.1338 -0.00704 0.0
C88 C 0.16703 0.22308 0.00917 0.0
C89 C 0.20766 0.23206 0.98696 0.0
C90 C 0.22292 0.19197 0.96442 0.0
C91 C 0.20568 0.14301 0.96776 0.0
C92 C 0.24248 0.28062 0.99106 0.0
C93 C 0.26611 0.30366 0.02297 0.0
C94 C 0.31039 0.34737 0.0315 0.0
C95 C 0.33748 0.36008 0.06637 0.0
C96 C 0.37859 0.40077 0.0768 0.0
C97 C 0.39393 0.43035 0.05269 0.0
H98 H 0.30667 0.3679 0.97982 0.0
C99 C 0.3683 0.41741 0.01752 0.0
C100 C 0.32647 0.37631 0.00696 0.0
H101 H 0.3798 0.43949 -0.00158 0.0
H102 H 0.12344 0.16785 0.03209 0.0
H103 H 0.15324 0.2535 0.02627 0.0
H104 H 0.25353 0.19797 0.94682 0.0
H105 H 0.22399 0.11224 0.95302 0.0
H106 H 0.25575 0.29306 0.96841 0.0
H107 H 0.25544 0.28718 0.04496 0.0
H108 H 0.3269 0.33831 0.08588 0.0
H109 H 0.39886 0.40892 0.10396 0.0
C110 C 0.23493 0.85723 0.97199 0.0
C111 C 0.18463 0.86343 0.9887 0.0
C112 C 0.26099 0.81091 0.9677 0.0
C113 C 0.23834 0.7699 0.98094 0.0
C114 C 0.1854 0.77528 -0.00435 0.0
C115 C 0.15856 0.82182 -0.00052 0.0
C116 C 0.26984 0.72171 0.98014 0.0
C117 C 0.33054 0.71941 0.98045 0.0
C118 C 0.36411 0.67247 0.97836 0.0
C119 C 0.419 0.67248 0.96547 0.0
C120 C 0.45297 0.62958 0.96343 0.0
C121 C 0.4328 0.5862 0.97456 0.0
H122 H 0.30342 0.62775 0.00093 0.0
C123 C 0.37867 0.58585 0.98793 0.0
C124 C 0.34433 0.62873 0.9898 0.0
H125 H 0.36339 0.55266 -0.0027 0.0
H126 H 0.25525 0.88873 0.96303 0.0
H127 H 0.29954 0.80782 0.95448 0.0
H128 H 0.1664 0.74406 0.00552 0.0
H129 H 0.1199 0.82591 0.01262 0.0
H130 H 0.24255 0.68793 0.97991 0.0
H131 H 0.35759 0.75359 0.98148 0.0
H132 H 0.43559 0.7058 0.95684 0.0
H133 H 0.49524 0.63045 0.95348 0.0
C134 C 0.86355 0.83124 0.97709 0.0
C135 C 0.90302 0.86561 0.00071 0.0
C136 C 0.8374 0.79025 0.98804 0.0
C137 C 0.84896 0.78334 0.02316 0.0
C138 C 0.8923 0.81554 0.04634 0.0
C139 C 0.91922 0.85652 0.03519 0.0
C140 C 0.81518 0.74364 0.03605 0.0
C141 C 0.75736 0.72809 0.02095 0.0
C142 C 0.72169 0.68713 0.03121 0.0
C143 C 0.67258 0.66356 0.00674 0.0
C144 C 0.63866 0.62383 0.01439 0.0
C145 C 0.6527 0.60726 0.04683 0.0
H146 H 0.77072 0.68931 0.08411 0.0
C147 C 0.70024 0.63143 0.07188 0.0
C148 C 0.73455 0.67123 0.06419 0.0
H149 H 0.71142 0.6191 0.09715 0.0
H150 H 0.85097 0.8372 0.95024 0.0
H151 H 0.80691 0.76483 0.969 0.0
H152 H 0.90294 0.81053 0.07341 0.0
H153 H 0.94924 0.88279 0.05393 0.0
H154 H 0.83807 0.72805 0.05866 0.0
H155 H 0.73484 0.74525 -0.00108 0.0
H156 H 0.66122 0.67518 0.98124 0.0
H157 H 0.60219 0.6054 -0.00531 0.0
C158 C 0.88208 0.15926 0.02111 0.0
C159 C 0.93002 0.13921 0.00582 0.0
C160 C 0.85487 0.20267 0.01106 0.0
C161 C 0.87461 0.22642 0.98512 0.0
C162 C 0.92439 0.2076 0.971 0.0
C163 C 0.95251 0.16479 0.98162 0.0
C164 C 0.83962 0.26702 0.96974 0.0
C165 C 0.80892 0.29962 0.98802 0.0
C166 C 0.76648 0.3356 0.97216 0.0
C167 C 0.75679 0.38006 0.99237 0.0
C168 C 0.71192 0.41211 0.97988 0.0
C169 C 0.6746 0.39986 0.94711 0.0
H170 H 0.7365 0.28959 0.92276 0.0
C171 C 0.68561 0.35604 0.92635 0.0
C172 C 0.73117 0.3242 0.93873 0.0
H173 H 0.65731 0.34519 0.90117 0.0
H174 H 0.86351 0.1399 0.0395 0.0
H175 H 0.8158 0.21549 0.022 0.0
H176 H 0.94009 0.22497 0.9508 0.0
H177 H 0.98873 0.14966 0.96894 0.0
H178 H 0.83861 0.26962 0.94253 0.0
H179 H 0.81485 0.30004 0.01585 0.0
H180 H 0.78337 0.38966 0.01819 0.0
H181 H 0.70571 0.44615 -0.00374 0.0
C182 C 0.65684 0.67604 0.50078 0.0
C183 C 0.69955 0.63883 0.50625 0.0
C184 C 0.67606 0.72325 0.4945 0.0
C185 C 0.738 0.73323 0.49316 0.0
C186 C 0.77877 0.69418 0.49516 0.0
C187 C 0.75996 0.64768 0.50206 0.0
C188 C 0.76419 0.78437 0.494 0.0
C189 C 0.74343 0.82493 0.51089 0.0
C190 C 0.7863 0.86767 0.52536 0.0
C191 C 0.78911 0.90971 0.50816 0.0
C192 C 0.8337 0.94791 0.52151 0.0
C193 C 0.8756 0.94444 0.55227 0.0
H194 H 0.82589 0.83215 0.56968 0.0
C195 C 0.87143 0.90263 0.56964 0.0
C196 C 0.82723 0.86464 0.55628 0.0
H197 H 0.90368 0.89847 0.593 0.0
H198 H 0.60998 0.66988 0.50389 0.0
H199 H 0.64315 0.7523 0.49219 0.0
H200 H 0.82656 0.70065 0.49398 0.0
H201 H 0.7936 0.61935 0.50599 0.0
H202 H 0.80897 0.78754 0.48679 0.0
H203 H 0.70137 0.82274 0.52098 0.0
H204 H 0.75774 0.9125 0.48422 0.0
H205 H 0.8358 0.9799 0.50772 0.0
C206 C 0.6804 0.34183 0.47796 0.0
C207 C 0.70993 0.38182 0.50162 0.0
C208 C 0.71293 0.29954 0.46867 0.0
C209 C 0.77569 0.29688 0.48281 0.0
C210 C 0.80473 0.33727 0.50599 0.0
C211 C 0.77255 0.37892 0.51527 0.0
C212 C 0.81349 0.25308 0.4756 0.0
C213 C 0.7956 0.21226 0.45247 0.0
C214 C 0.83609 0.1692 0.44895 0.0
C215 C 0.80975 0.12059 0.44019 0.0
C216 C 0.8468 0.07915 0.44029 0.0
C217 C 0.91064 0.08589 0.44863 0.0
H218 H 0.92264 0.21244 0.46101 0.0
C219 C 0.93738 0.13418 0.45558 0.0
C220 C 0.90049 0.17559 0.4555 0.0
H221 H 0.98674 0.1399 0.4619 0.0
H222 H 0.63223 0.34297 0.46694 0.0
H223 H 0.68844 0.26923 0.45085 0.0
H224 H 0.85289 0.33666 0.51728 0.0
H225 H 0.7973 0.40908 0.53327 0.0
H226 H 0.85899 0.25427 0.49139 0.0
H227 H 0.74953 0.2085 0.43742 0.0
H228 H 0.76044 0.11458 0.43466 0.0
H229 H 0.82555 0.0419 0.43489 0.0
C230 C 0.33304 0.38482 0.50154 0.0
C231 C 0.3959 0.38191 0.5014 0.0
C232 C 0.30176 0.34807 0.51403 0.0
C233 C 0.33226 0.30634 0.52564 0.0
C234 C 0.39604 0.30487 0.52724 0.0
C235 C 0.42779 0.34256 0.51536 0.0
C236 C 0.2986 0.26363 0.53544 0.0
C237 C 0.23803 0.25384 0.52391 0.0
C238 C 0.20235 0.21087 0.53154 0.0
C239 C 0.13826 0.21346 0.52661 0.0
C240 C 0.10179 0.17256 0.53018 0.0
C241 C 0.12875 0.12823 0.53857 0.0
H242 H 0.27832 0.16244 0.54402 0.0
C243 C 0.19261 0.12539 0.54424 0.0
C244 C 0.22936 0.16648 0.54082 0.0
H245 H 0.21395 0.09096 0.55022 0.0
H246 H 0.30775 0.4155 0.49159 0.0
H247 H 0.25358 0.35267 0.51412 0.0
H248 H 0.42099 0.27368 0.5366 0.0
H249 H 0.47641 0.3397 0.51556 0.0
H250 H 0.32496 0.23895 0.5515 0.0
H251 H 0.21217 0.27808 0.50732 0.0
H252 H 0.11615 0.24698 0.51925 0.0
H253 H 0.05242 0.17511 0.52534 0.0
C254 C 0.37754 0.63985 0.45709 0.0
C255 C 0.41675 0.62713 0.4864 0.0
C256 C 0.34301 0.68218 0.4592 0.0
C257 C 0.346 0.71291 0.49081 0.0
C258 C 0.38727 0.70183 0.51991 0.0
C259 C 0.42227 0.65903 0.5178 0.0
C260 C 0.30684 0.75693 0.49283 0.0
C261 C 0.24961 0.75473 0.47407 0.0
C262 C 0.21174 0.79842 0.46722 0.0
C263 C 0.16691 0.79318 0.437 0.0
C264 C 0.13254 0.83348 0.42742 0.0
C265 C 0.14127 0.87982 0.44822 0.0
H266 H 0.25302 0.8498 0.51246 0.0
C267 C 0.1842 0.88502 0.47928 0.0
C268 C 0.21969 0.84465 0.48865 0.0
H269 H 0.19135 0.92056 0.49574 0.0
H270 H 0.37308 0.61687 0.43228 0.0
H271 H 0.31393 0.69083 0.43584 0.0
H272 H 0.39128 0.72552 0.54441 0.0
H273 H 0.45253 0.65042 0.54077 0.0
H274 H 0.32644 0.79136 0.50828 0.0
H275 H 0.23126 0.71893 0.45997 0.0
H276 H 0.15956 0.75803 0.42007 0.0
H277 H 0.0993 0.82855 0.40352 0.0
C278 C 0.13552 -0.00694 0.14835 0.0
C279 C 0.08965 0.00521 0.12173 0.0
C280 C 0.12336 -0.00887 0.18138 0.0
C281 C 0.0652 0.00227 0.18884 0.0
C282 C 0.0187 0.01309 0.16202 0.0
C283 C 0.03078 0.01458 0.12869 0.0
C284 C 0.05189 0.00092 0.22408 0.0
C285 C 0.09557 0.01176 0.25261 0.0
C286 C 0.08774 0.00525 0.2882 0.0
C287 C 0.1407 0.00211 0.31311 0.0
C288 C 0.13646 -0.00674 0.34648 0.0
C289 C 0.07903 -0.01229 0.35586 0.0
H290 H 0.98817 0.00476 0.2798 0.0
C291 C 0.02588 -0.00736 0.33141 0.0
C292 C 0.0301 0.00132 0.29786 0.0
H293 H 0.98097 -0.01158 0.33791 0.0
H294 H 0.18089 -0.01566 0.14359 0.0
H295 H 0.15955 0.98012 0.20083 0.0
H296 H 0.97325 0.02104 0.16698 0.0
H297 H -0.00557 0.02375 0.10857 0.0
H298 H 0.00562 -0.00986 0.22614 0.0
H299 H 0.141 0.02389 0.24973 0.0
H300 H 0.18571 0.00542 0.30654 0.0
H301 H 0.17823 -0.00963 0.36492 0.0
C302 C 0.05768 0.0168 0.87296 0.0
C303 C 0.00088 0.01095 0.88326 0.0
C304 C 0.06013 0.02982 0.84002 0.0
C305 C 0.00574 0.03742 0.81717 0.0
C306 C 0.94941 0.03019 0.82727 0.0
C307 C 0.94692 0.01676 0.85967 0.0
C308 C 0.00444 0.05448 0.78299 0.0
C309 C 0.04437 0.04078 0.76209 0.0
C310 C 0.03416 0.04818 0.72478 0.0
C311 C 0.07975 0.03414 0.70546 0.0
C312 C 0.06821 0.03247 0.66943 0.0
C313 C 0.01061 0.04453 0.65205 0.0
H314 H 0.94079 0.07479 0.72017 0.0
C315 C 0.96654 0.06182 0.67134 0.0
C316 C 0.97798 0.0637 0.70719 0.0
H317 H 0.92184 0.07152 0.65845 0.0
H318 H 0.10007 0.01285 0.89064 0.0
H319 H 0.10435 0.03564 0.83304 0.0
H320 H 0.90685 0.03532 0.81003 0.0
H321 H 0.90229 0.01219 0.86649 0.0
H322 H 0.96519 0.07566 0.774 0.0
H323 H 0.08341 0.0195 0.77174 0.0
H324 H 0.12343 0.02209 0.71808 0.0
H325 H 0.10284 0.01864 0.65504 0.0
C326 C 0.57833 0.54149 0.65394 0.0
C327 C 0.55603 0.50922 0.62347 0.0
C328 C 0.5623 0.53331 0.6852 0.0
C329 C 0.52319 0.49255 0.68689 0.0
C330 C 0.49937 0.46099 0.6562 0.0
C331 C 0.51513 0.46951 0.62465 0.0
C332 C 0.51236 0.47929 0.72073 0.0
C333 C 0.51794 0.51312 0.74936 0.0
C334 C 0.52132 0.50087 0.78531 0.0
C335 C 0.53033 0.54054 0.81256 0.0
C336 C 0.54065 0.53138 0.84701 0.0
C337 C 0.54271 0.48225 0.85502 0.0
H338 H 0.51412 0.41961 0.77375 0.0
C339 C 0.53187 0.44246 0.82801 0.0
C340 C 0.521 0.45155 0.79352 0.0
H341 H 0.53251 0.40421 0.83364 0.0
H342 H 0.60988 0.57249 0.65388 0.0
H343 H 0.58339 0.55772 0.70816 0.0
H344 H 0.46972 0.42898 0.65678 0.0
H345 H 0.49755 0.44381 0.6016 0.0
H346 H 0.50218 0.44025 0.72191 0.0
H347 H 0.52354 0.5524 0.74675 0.0
H348 H 0.53119 0.57891 0.80724 0.0
H349 H 0.54917 0.5627 0.8674 0.0
C350 C 0.53164 0.47503 0.35115 0.0
C351 C 0.55907 0.5026 0.38278 0.0
C352 C 0.53199 0.4939 0.3201 0.0
C353 C 0.5602 0.5407 0.31971 0.0
C354 C 0.59157 0.56688 0.3509 0.0
C355 C 0.59051 0.54821 0.38233 0.0
C356 C 0.55567 0.56149 0.28645 0.0
C357 C 0.50119 0.55974 0.26492 0.0
C358 C 0.49384 0.56005 0.22708 0.0
C359 C 0.44881 0.52742 0.20631 0.0
C360 C 0.44398 0.52019 0.17067 0.0
C361 C 0.48229 0.5472 0.15399 0.0
H362 H 0.56602 0.61475 0.22675 0.0
C363 C 0.5251 0.58271 0.17498 0.0
C364 C 0.5315 0.5885 0.21123 0.0
H365 H 0.5548 0.6053 0.16373 0.0
H366 H 0.50744 0.43962 0.35033 0.0
H367 H 0.509 0.47218 0.29629 0.0
H368 H 0.61447 0.60266 0.35111 0.0
H369 H 0.61219 0.57033 0.40625 0.0
H370 H 0.59742 0.57283 0.27842 0.0
H371 H 0.46076 0.54833 0.2744 0.0
H372 H 0.41937 0.5048 0.21785 0.0
H373 H 0.4119 0.49087 0.15696 0.0
loop_
_geom_bond_atom_site_label_1
_geom_bond_atom_site_label_2
_geom_bond_distance
_geom_bond_site_symmetry_2
_ccdc_geom_bond_type
O0 Mg1 1.990 . S
O0 C14 1.253 . S
Mg1 O0 1.990 . S
Mg1 O4 2.180 . S
Mg1 O5 2.117 . S
Mg1 O19 2.030 1_545 S
O2 Mg3 2.072 . S
O2 C14 1.260 . S
Mg3 O2 2.072 . S
Mg3 O4 2.099 . S
Mg3 O6 2.079 1_554 S
Mg3 O7 2.072 . S
Mg3 O9 2.099 1_444 S
Mg3 O20 2.078 1_544 S
O4 Mg1 2.180 . S
O4 Mg3 2.099 . S
O4 C15 1.279 . S
O5 Mg1 2.117 . S
O5 C15 1.250 . S
O6 Mg3 2.079 1_556 S
O6 C16 1.264 . S
O7 Mg3 2.072 . S
O7 C17 1.260 1_454 S
Mg8 O9 2.180 . S
Mg8 O10 2.030 1_565 S
Mg8 O11 1.990 1_565 S
Mg8 O12 2.117 . S
O9 Mg3 2.099 1_666 S
O9 Mg8 2.180 . S
O9 C18 1.279 . S
O10 Mg8 2.030 1_545 S
O10 C16 1.248 1_655 S
O11 Mg8 1.990 1_545 S
O11 C17 1.253 . S
O12 Mg8 2.117 . S
O12 C18 1.250 . S
C13 O19 1.248 . S
C13 O20 1.256 1_554 S
C14 O0 1.253 . S
C14 O2 1.260 . S
C15 O4 1.279 . S
C15 O5 1.250 . S
C16 O6 1.264 . S
C16 O10 1.248 1_455 S
C17 O7 1.260 1_656 S
C17 O11 1.253 . S
C18 O9 1.279 . S
C18 O12 1.250 . S
O19 Mg1 2.030 1_565 S
O19 C13 1.248 . S
O20 Mg3 2.078 1_566 S
O20 C13 1.256 1_556 S
O21 Mg22 1.990 . S
O21 C35 1.253 . S
Mg22 O21 1.990 . S
Mg22 O25 2.180 . S
Mg22 O26 2.117 . S
Mg22 O40 2.030 . S
O23 Mg24 2.072 . S
O23 C35 1.260 . S
Mg24 O23 2.072 . S
Mg24 O25 2.099 . S
Mg24 O27 2.079 . S
Mg24 O28 2.072 . S
Mg24 O30 2.099 . S
Mg24 O41 2.079 . S
O25 Mg22 2.180 . S
O25 Mg24 2.099 . S
O25 C36 1.279 . S
O26 Mg22 2.117 . S
O26 C36 1.250 . S
O27 Mg24 2.079 . S
O27 C37 1.264 . S
O28 Mg24 2.072 . S
O28 C38 1.260 . S
Mg29 O30 2.180 . S
Mg29 O31 2.030 . S
Mg29 O32 1.990 . S
Mg29 O33 2.117 . S
O30 Mg24 2.099 . S
O30 Mg29 2.180 . S
O30 C39 1.279 . S
O31 Mg29 2.030 . S
O31 C37 1.248 . S
O32 Mg29 1.990 . S
O32 C38 1.253 . S
O33 Mg29 2.117 . S
O33 C39 1.250 . S
C34 O40 1.248 . S
C34 O41 1.264 . S
C35 O21 1.253 . S
C35 O23 1.260 . S
C36 O25 1.279 . S
C36 O26 1.250 . S
C37 O27 1.264 . S
C37 O31 1.248 . S
C38 O28 1.260 . S
C38 O32 1.253 . S
C39 O30 1.279 . S
C39 O33 1.250 . S
O40 Mg22 2.030 . S
O40 C34 1.248 . S
O41 Mg24 2.079 . S
O41 C34 1.264 . S
H42 C45 0.929 . S
H43 C48 0.929 . S
H44 C50 0.930 . S
C45 H42 0.929 . S
C45 C46 1.398 . S
C45 C47 1.396 . S
C46 C45 1.398 . S
C46 C50 1.407 . S
C47 C45 1.396 . S
C47 C48 1.394 1_565 S
C48 H43 0.929 . S
C48 C47 1.394 1_545 S
C48 C49 1.382 . S
C49 C48 1.382 . S
C49 C50 1.392 1_545 S
C49 N51 1.420 . S
C50 H44 0.930 . S
C50 C46 1.407 . S
C50 C49 1.392 1_565 S
N51 C49 1.420 . S
N51 C52 1.244 1_455 S
C52 N51 1.244 1_655 S
H53 C56 0.919 1_565 S
H54 C59 0.929 . S
H55 C61 0.930 . S
C56 H53 0.919 1_545 S
C56 C57 1.398 . S
C56 C58 1.396 . S
C57 C56 1.398 . S
C57 C61 1.407 . S
C58 C56 1.396 . S
C58 C59 1.394 1_655 S
C59 H54 0.929 . S
C59 C58 1.394 1_455 S
C59 C60 1.382 . S
C60 C59 1.382 . S
C60 C61 1.392 1_455 S
C60 N62 1.420 . S
C61 H55 0.930 . S
C61 C57 1.407 . S
C61 C60 1.392 1_655 S
N62 C60 1.420 . S
N62 C63 1.244 . S
C63 N62 1.244 . S
H64 C67 0.929 . S
H65 C70 0.929 . S
H66 C72 0.930 . S
C67 H64 0.929 . S
C67 C68 1.398 . S
C67 C69 1.396 . S
C68 C67 1.398 . S
C68 C72 1.407 . S
C69 C67 1.396 . S
C69 C70 1.394 . S
C70 H65 0.929 . S
C70 C69 1.394 . S
C70 C71 1.382 . S
C71 C70 1.382 . S
C71 C72 1.392 . S
C71 N73 1.420 . S
C72 H66 0.930 . S
C72 C68 1.407 . S
C72 C71 1.392 . S
N73 C71 1.420 . S
N73 C74 1.244 . S
C74 N73 1.244 . S
H75 C78 0.929 . S
H76 C81 0.929 . S
H77 C83 0.930 . S
C78 H75 0.929 . S
C78 C79 1.398 . S
C78 C80 1.396 . S
C79 C78 1.398 . S
C79 C83 1.407 . S
C80 C78 1.396 . S
C80 C81 1.394 . S
C81 H76 0.929 . S
C81 C80 1.394 . S
C81 C82 1.382 . S
C82 C81 1.382 . S
C82 C83 1.392 . S
C82 N84 1.420 . S
C83 H77 0.930 . S
C83 C79 1.407 . S
C83 C82 1.392 . S
N84 C82 1.420 . S
N84 C85 1.244 . S
C85 N84 1.244 . S
C86 C87 1.386 . S
C86 C88 1.383 . S
C86 H102 0.951 . S
C87 C86 1.386 . S
C87 C91 1.383 1_554 S
C88 C86 1.383 . S
C88 C89 1.402 . S
C88 H103 0.951 . S
C89 C88 1.402 . S
C89 C90 1.375 1_554 S
C89 C92 1.481 . S
C90 C89 1.375 1_556 S
C90 C91 1.367 . S
C90 H104 0.951 . S
C91 C87 1.383 1_556 S
C91 C90 1.367 . S
C91 H105 0.950 . S
C92 C89 1.481 . S
C92 C93 1.297 . S
C92 H106 0.950 1_554 S
C93 C92 1.297 . S
C93 C94 1.479 . S
C93 H107 0.950 . S
C94 C93 1.479 . S
C94 C95 1.375 . S
C94 C100 1.404 . S
C95 C94 1.375 . S
C95 C96 1.369 . S
C95 H108 0.950 . S
C96 C95 1.369 . S
C96 C97 1.392 . S
C96 H109 0.951 . S
C97 C96 1.392 . S
C97 C99 1.384 . S
H98 C100 0.949 1_556 S
C99 C97 1.384 . S
C99 C100 1.385 . S
C99 H101 0.950 1_554 S
C100 C94 1.404 . S
C100 H98 0.949 1_554 S
C100 C99 1.385 . S
H101 C99 0.950 1_556 S
H102 C86 0.951 . S
H103 C88 0.951 . S
H104 C90 0.951 . S
H105 C91 0.950 . S
H106 C92 0.950 1_556 S
H107 C93 0.950 . S
H108 C95 0.950 . S
H109 C96 0.951 . S
C110 C111 1.386 . S
C110 C112 1.383 . S
C110 H126 0.951 1_554 S
C111 C110 1.386 . S
C111 C115 1.383 . S
C112 C110 1.383 . S
C112 C113 1.402 . S
C112 H127 0.951 1_554 S
C113 C112 1.402 . S
C113 C114 1.375 . S
C113 C116 1.481 . S
C114 C113 1.375 . S
C114 C115 1.367 . S
C114 H128 0.951 . S
C115 C111 1.383 . S
C115 C114 1.367 . S
C115 H129 0.950 . S
C116 C113 1.481 . S
C116 C117 1.297 . S
C116 H130 0.950 . S
C117 C116 1.297 . S
C117 C118 1.479 . S
C117 H131 0.950 . S
C118 C117 1.479 . S
C118 C119 1.375 1_554 S
C118 C124 1.404 . S
C119 C118 1.375 1_556 S
C119 C120 1.369 . S
C119 H132 0.950 . S
C120 C119 1.369 . S
C120 C121 1.392 . S
C120 H133 0.951 . S
C121 C120 1.392 . S
C121 C123 1.384 1_556 S
H122 C124 0.949 . S
C123 C121 1.384 1_554 S
C123 C124 1.385 . S
C123 H125 0.950 . S
C124 C118 1.404 . S
C124 H122 0.949 . S
C124 C123 1.385 . S
H125 C123 0.950 . S
H126 C110 0.951 1_556 S
H127 C112 0.951 1_556 S
H128 C114 0.951 . S
H129 C115 0.950 . S
H130 C116 0.950 . S
H131 C117 0.950 . S
H132 C119 0.950 . S
H133 C120 0.951 . S
C134 C135 1.386 1_556 S
C134 C136 1.383 . S
C134 H150 0.951 . S
C135 C134 1.386 1_554 S
C135 C139 1.383 . S
C136 C134 1.383 . S
C136 C137 1.402 1_556 S
C136 H151 0.951 . S
C137 C136 1.402 1_554 S
C137 C138 1.375 . S
C137 C140 1.481 . S
C138 C137 1.375 . S
C138 C139 1.367 . S
C138 H152 0.951 . S
C139 C135 1.383 . S
C139 C138 1.367 . S
C139 H153 0.950 . S
C140 C137 1.481 . S
C140 C141 1.297 . S
C140 H154 0.950 . S
C141 C140 1.297 . S
C141 C142 1.479 . S
C141 H155 0.950 1_554 S
C142 C141 1.479 . S
C142 C143 1.375 1_554 S
C142 C148 1.404 . S
C143 C142 1.375 1_556 S
C143 C144 1.369 1_556 S
C143 H156 0.950 . S
C144 C143 1.369 1_554 S
C144 C145 1.392 . S
C144 H157 0.951 1_554 S
C145 C144 1.392 . S
C145 C147 1.384 . S
H146 C148 0.949 . S
C147 C145 1.384 . S
C147 C148 1.385 . S
C147 H149 0.950 . S
C148 C142 1.404 . S
C148 H146 0.949 . S
C148 C147 1.385 . S
H149 C147 0.950 . S
H150 C134 0.951 . S
H151 C136 0.951 . S
H152 C138 0.951 . S
H153 C139 0.950 . S
H154 C140 0.950 . S
H155 C141 0.950 1_556 S
H156 C143 0.950 . S
H157 C144 0.951 1_556 S
C158 C159 1.386 1_554 S
C158 C160 1.383 . S
C158 H174 0.951 . S
C159 C158 1.386 1_556 S
C159 C163 1.383 . S
C160 C158 1.383 . S
C160 C161 1.402 1_554 S
C160 H175 0.951 . S
C161 C160 1.402 1_556 S
C161 C162 1.375 . S
C161 C164 1.481 . S
C162 C161 1.375 . S
C162 C163 1.367 . S
C162 H176 0.951 . S
C163 C159 1.383 . S
C163 C162 1.367 . S
C163 H177 0.950 . S
C164 C161 1.481 . S
C164 C165 1.297 . S
C164 H178 0.950 . S
C165 C164 1.297 . S
C165 C166 1.479 . S
C165 H179 0.950 1_556 S
C166 C165 1.479 . S
C166 C167 1.399 . S
C166 C172 1.404 . S
C167 C166 1.399 . S
C167 C168 1.372 . S
C167 H180 0.923 1_556 S
C168 C167 1.372 . S
C168 C169 1.392 . S
C168 H181 0.951 1_556 S
C169 C168 1.392 . S
C169 C171 1.384 . S
H170 C172 0.949 . S
C171 C169 1.384 . S
C171 C172 1.385 . S
C171 H173 0.950 . S
C172 C166 1.404 . S
C172 H170 0.949 . S
C172 C171 1.385 . S
H173 C171 0.950 . S
H174 C158 0.951 . S
H175 C160 0.951 . S
H176 C162 0.951 . S
H177 C163 0.950 . S
H178 C164 0.950 . S
H179 C165 0.950 1_554 S
H180 C167 0.923 1_554 S
H181 C168 0.951 1_554 S
C182 C183 1.386 . S
C182 C184 1.383 . S
C182 H198 0.951 . S
C183 C182 1.386 . S
C183 C187 1.383 . S
C184 C182 1.383 . S
C184 C185 1.402 . S
C184 H199 0.951 . S
C185 C184 1.402 . S
C185 C186 1.375 . S
C185 C188 1.481 . S
C186 C185 1.375 . S
C186 C187 1.367 . S
C186 H200 0.951 . S
C187 C183 1.383 . S
C187 C186 1.367 . S
C187 H201 0.950 . S
C188 C185 1.481 . S
C188 C189 1.297 . S
C188 H202 0.950 . S
C189 C188 1.297 . S
C189 C190 1.479 . S
C189 H203 0.950 . S
C190 C189 1.479 . S
C190 C191 1.375 . S
C190 C196 1.404 . S
C191 C190 1.375 . S
C191 C192 1.369 . S
C191 H204 0.950 . S
C192 C191 1.369 . S
C192 C193 1.392 . S
C192 H205 0.951 . S
C193 C192 1.392 . S
C193 C195 1.384 . S
H194 C196 0.949 . S
C195 C193 1.384 . S
C195 C196 1.385 . S
C195 H197 0.950 . S
C196 C190 1.404 . S
C196 H194 0.949 . S
C196 C195 1.385 . S
H197 C195 0.950 . S
H198 C182 0.951 . S
H199 C184 0.951 . S
H200 C186 0.951 . S
H201 C187 0.950 . S
H202 C188 0.950 . S
H203 C189 0.950 . S
H204 C191 0.950 . S
H205 C192 0.951 . S
C206 C207 1.386 . S
C206 C208 1.383 . S
C206 H222 0.951 . S
C207 C206 1.386 . S
C207 C211 1.383 . S
C208 C206 1.383 . S
C208 C209 1.402 . S
C208 H223 0.951 . S
C209 C208 1.402 . S
C209 C210 1.375 . S
C209 C212 1.481 . S
C210 C209 1.375 . S
C210 C211 1.367 . S
C210 H224 0.951 . S
C211 C207 1.383 . S
C211 C210 1.367 . S
C211 H225 0.950 . S
C212 C209 1.481 . S
C212 C213 1.297 . S
C212 H226 0.950 . S
C213 C212 1.297 . S
C213 C214 1.479 . S
C213 H227 0.950 . S
C214 C213 1.479 . S
C214 C215 1.375 . S
C214 C220 1.404 . S
C215 C214 1.375 . S
C215 C216 1.369 . S
C215 H228 0.950 . S
C216 C215 1.369 . S
C216 C217 1.392 . S
C216 H229 0.951 . S
C217 C216 1.392 . S
C217 C219 1.384 . S
H218 C220 0.949 . S
C219 C217 1.384 . S
C219 C220 1.385 . S
C219 H221 0.950 1_655 S
C220 C214 1.404 . S
C220 H218 0.949 . S
C220 C219 1.385 . S
H221 C219 0.950 1_455 S
H222 C206 0.951 . S
H223 C208 0.951 . S
H224 C210 0.951 . S
H225 C211 0.950 . S
H226 C212 0.950 . S
H227 C213 0.950 . S
H228 C215 0.950 . S
H229 C216 0.951 . S
C230 C231 1.386 . S
C230 C232 1.383 . S
C230 H246 0.951 . S
C231 C230 1.386 . S
C231 C235 1.383 . S
C232 C230 1.383 . S
C232 C233 1.402 . S
C232 H247 0.951 . S
C233 C232 1.402 . S
C233 C234 1.375 . S
C233 C236 1.481 . S
C234 C233 1.375 . S
C234 C235 1.367 . S
C234 H248 0.951 . S
C235 C231 1.383 . S
C235 C234 1.367 . S
C235 H249 0.950 . S
C236 C233 1.481 . S
C236 C237 1.297 . S
C236 H250 0.950 . S
C237 C236 1.297 . S
C237 C238 1.479 . S
C237 H251 0.950 . S
C238 C237 1.479 . S
C238 C239 1.375 . S
C238 C244 1.404 . S
C239 C238 1.375 . S
C239 C240 1.369 . S
C239 H252 0.950 . S
C240 C239 1.369 . S
C240 C241 1.392 . S
C240 H253 0.951 . S
C241 C240 1.392 . S
C241 C243 1.384 . S
H242 C244 0.949 . S
C243 C241 1.384 . S
C243 C244 1.385 . S
C243 H245 0.950 . S
C244 C238 1.404 . S
C244 H242 0.949 . S
C244 C243 1.385 . S
H245 C243 0.950 . S
H246 C230 0.951 . S
H247 C232 0.951 . S
H248 C234 0.951 . S
H249 C235 0.950 . S
H250 C236 0.950 . S
H251 C237 0.950 . S
H252 C239 0.950 . S
H253 C240 0.951 . S
C254 C255 1.386 . S
C254 C256 1.383 . S
C254 H270 0.951 . S
C255 C254 1.386 . S
C255 C259 1.383 . S
C256 C254 1.383 . S
C256 C257 1.402 . S
C256 H271 0.951 . S
C257 C256 1.402 . S
C257 C258 1.375 . S
C257 C260 1.481 . S
C258 C257 1.375 . S
C258 C259 1.367 . S
C258 H272 0.951 . S
C259 C255 1.383 . S
C259 C258 1.367 . S
C259 H273 0.950 . S
C260 C257 1.481 . S
C260 C261 1.297 . S
C260 H274 0.950 . S
C261 C260 1.297 . S
C261 C262 1.479 . S
C261 H275 0.950 . S
C262 C261 1.479 . S
C262 C263 1.375 . S
C262 C268 1.404 . S
C263 C262 1.375 . S
C263 C264 1.369 . S
C263 H276 0.950 . S
C264 C263 1.369 . S
C264 C265 1.392 . S
C264 H277 0.951 . S
C265 C264 1.392 . S
C265 C267 1.384 . S
H266 C268 0.949 . S
C267 C265 1.384 . S
C267 C268 1.385 . S
C267 H269 0.950 . S
C268 C262 1.404 . S
C268 H266 0.949 . S
C268 C267 1.385 . S
H269 C267 0.950 . S
H270 C254 0.951 . S
H271 C256 0.951 . S
H272 C258 0.951 . S
H273 C259 0.950 . S
H274 C260 0.950 . S
H275 C261 0.950 . S
H276 C263 0.950 . S
H277 C264 0.951 . S
C278 C279 1.386 1_565 S
C278 C280 1.383 . S
C278 H294 0.951 . S
C279 C278 1.386 1_545 S
C279 C283 1.383 . S
C280 C278 1.383 . S
C280 C281 1.402 1_565 S
C280 H295 0.951 . S
C281 C280 1.402 1_545 S
C281 C282 1.375 . S
C281 C284 1.481 . S
C282 C281 1.375 . S
C282 C283 1.367 . S
C282 H296 0.951 1_455 S
C283 C279 1.383 . S
C283 C282 1.367 . S
C283 H297 0.950 1_455 S
C284 C281 1.481 . S
C284 C285 1.297 . S
C284 H298 0.950 . S
C285 C284 1.297 . S
C285 C286 1.479 . S
C285 H299 0.950 1_545 S
C286 C285 1.479 . S
C286 C287 1.375 1_545 S
C286 C292 1.404 . S
C287 C286 1.375 1_565 S
C287 C288 1.369 . S
C287 H300 0.950 . S
C288 C287 1.369 . S
C288 C289 1.392 . S
C288 H301 0.951 . S
C289 C288 1.392 . S
C289 C291 1.384 1_565 S
H290 C292 0.949 . S
C291 C289 1.384 1_545 S
C291 C292 1.385 . S
C291 H293 0.950 . S
C292 C286 1.404 . S
C292 H290 0.949 . S
C292 C291 1.385 . S
H293 C291 0.950 . S
H294 C278 0.951 . S
H295 C280 0.951 . S
H296 C282 0.951 1_655 S
H297 C283 0.950 1_655 S
H298 C284 0.950 . S
H299 C285 0.950 1_565 S
H300 C287 0.950 . S
H301 C288 0.951 . S
C302 C303 1.386 . S
C302 C304 1.383 . S
C302 H318 0.951 . S
C303 C302 1.386 . S
C303 C307 1.383 1_455 S
C304 C302 1.383 . S
C304 C305 1.402 . S
C304 H319 0.951 . S
C305 C304 1.402 . S
C305 C306 1.375 1_455 S
C305 C308 1.481 1_455 S
C306 C305 1.375 1_655 S
C306 C307 1.367 . S
C306 H320 0.951 . S
C307 C303 1.383 1_655 S
C307 C306 1.367 . S
C307 H321 0.950 . S
C308 C305 1.481 1_655 S
C308 C309 1.297 1_655 S
C308 H322 0.950 . S
C309 C308 1.297 1_455 S
C309 C310 1.479 . S
C309 H323 0.950 . S
C310 C309 1.479 . S
C310 C311 1.375 . S
C310 C316 1.404 1_455 S
C311 C310 1.375 . S
C311 C312 1.369 . S
C311 H324 0.950 . S
C312 C311 1.369 . S
C312 C313 1.392 1_455 S
C312 H325 0.951 . S
C313 C312 1.392 1_655 S
C313 C315 1.384 . S
H314 C316 0.949 . S
C315 C313 1.384 . S
C315 C316 1.385 . S
C315 H317 0.950 . S
C316 C310 1.404 1_655 S
C316 H314 0.949 . S
C316 C315 1.385 . S
H317 C315 0.950 . S
H318 C302 0.951 . S
H319 C304 0.951 . S
H320 C306 0.951 . S
H321 C307 0.950 . S
H322 C308 0.950 . S
H323 C309 0.950 . S
H324 C311 0.950 . S
H325 C312 0.951 . S
C326 C327 1.386 . S
C326 C328 1.383 . S
C326 H342 0.951 . S
C327 C326 1.386 . S
C327 C331 1.383 . S
C328 C326 1.383 . S
C328 C329 1.402 . S
C328 H343 0.951 . S
C329 C328 1.402 . S
C329 C330 1.375 . S
C329 C332 1.481 . S
C330 C329 1.375 . S
C330 C331 1.367 . S
C330 H344 0.951 . S
C331 C327 1.383 . S
C331 C330 1.367 . S
C331 H345 0.950 . S
C332 C329 1.481 . S
C332 C333 1.297 . S
C332 H346 0.950 . S
C333 C332 1.297 . S
C333 C334 1.479 . S
C333 H347 0.950 . S
C334 C333 1.479 . S
C334 C335 1.375 . S
C334 C340 1.404 . S
C335 C334 1.375 . S
C335 C336 1.369 . S
C335 H348 0.950 . S
C336 C335 1.369 . S
C336 C337 1.392 . S
C336 H349 0.951 . S
C337 C336 1.392 . S
C337 C339 1.384 . S
H338 C340 0.949 . S
C339 C337 1.384 . S
C339 C340 1.385 . S
C339 H341 0.950 . S
C340 C334 1.404 . S
C340 H338 0.949 . S
C340 C339 1.385 . S
H341 C339 0.950 . S
H342 C326 0.951 . S
H343 C328 0.951 . S
H344 C330 0.951 . S
H345 C331 0.950 . S
H346 C332 0.950 . S
H347 C333 0.950 . S
H348 C335 0.950 . S
H349 C336 0.951 . S
C350 C351 1.386 . S
C350 C352 1.383 . S
C350 H366 0.951 . S
C351 C350 1.386 . S
C351 C355 1.383 . S
C352 C350 1.383 . S
C352 C353 1.402 . S
C352 H367 0.951 . S
C353 C352 1.402 . S
C353 C354 1.375 . S
C353 C356 1.481 . S
C354 C353 1.375 . S
C354 C355 1.367 . S
C354 H368 0.951 . S
C355 C351 1.383 . S
C355 C354 1.367 . S
C355 H369 0.950 . S
C356 C353 1.481 . S
C356 C357 1.297 . S
C356 H370 0.950 . S
C357 C356 1.297 . S
C357 C358 1.479 . S
C357 H371 0.950 . S
C358 C357 1.479 . S
C358 C359 1.375 . S
C358 C364 1.404 . S
C359 C358 1.375 . S
C359 C360 1.369 . S
C359 H372 0.950 . S
C360 C359 1.369 . S
C360 C361 1.392 . S
C360 H373 0.951 . S
C361 C360 1.392 . S
C361 C363 1.384 . S
H362 C364 0.949 . S
C363 C361 1.384 . S
C363 C364 1.385 . S
C363 H365 0.950 . S
C364 C358 1.404 . S
C364 H362 0.949 . S
C364 C363 1.385 . S
H365 C363 0.950 . S
H366 C350 0.951 . S
H367 C352 0.951 . S
H368 C354 0.951 . S
H369 C355 0.950 . S
H370 C356 0.950 . S
H371 C357 0.950 . S
H372 C359 0.950 . S
H373 C360 0.951 . S
C97 C79 1.412 . S
C87 C15 1.313 . S
C111 C13 1.393 . S
C121 C74 1.402 . S
C135 C18 1.314 1_554 S
C145 C85 1.404 . S
C159 C17 1.412 . S
C169 C68 1.436 . S
C183 C36 1.252 . S
C193 C57 1.418 1_565 S
C207 C34 1.371 . S
C217 C52 1.318 . S
C241 C63 1.443 . S
C231 C39 1.293 . S
C265 C46 1.455 . S
C255 C38 1.423 . S
C279 C14 1.563 . S
C289 C47 1.613 . S
C303 C16 1.359 . S
C313 C58 1.375 . S
C337 C69 1.616 . S
C327 C35 1.595 . S
C351 C37 1.391 . S
C361 C80 1.418 . S
