# Generated by pormake.
# Topology anh, (6,3)-cn, num edge types: 1
# Building blocks:
#     Node 0, Type 0, BuildingBlock: HISSIN_clean_sbu_0, # of connection points: 6
#     Node 1, Type 0, BuildingBlock: HISSIN_clean_sbu_0, # of connection points: 6
#     Node 2, Type 0, BuildingBlock: HISSIN_clean_sbu_0, # of connection points: 6
#     Node 3, Type 1, BuildingBlock: BETDIP_clean_linker_0, # of connection points: 3
#     Node 4, Type 1, BuildingBlock: BETDIP_clean_linker_0, # of connection points: 3
#     Node 5, Type 1, BuildingBlock: BETDIP_clean_linker_0, # of connection points: 3
#     Node 6, Type 1, BuildingBlock: BETDIP_clean_linker_0, # of connection points: 3
#     Node 7, Type 1, BuildingBlock: BETDIP_clean_linker_0, # of connection points: 3
#     Node 8, Type 1, BuildingBlock: BETDIP_clean_linker_0, # of connection points: 3
#     Edge 9, Type (0, 1), BuildingBlock: KIFKEQ_clean_linker_1, # of connection points: 2
#     Edge 10, Type (0, 1), BuildingBlock: KIFKEQ_clean_linker_1, # of connection points: 2
#     Edge 11, Type (0, 1), BuildingBlock: KIFKEQ_clean_linker_1, # of connection points: 2
#     Edge 12, Type (0, 1), BuildingBlock: KIFKEQ_clean_linker_1, # of connection points: 2
#     Edge 13, Type (0, 1), BuildingBlock: KIFKEQ_clean_linker_1, # of connection points: 2
#     Edge 14, Type (0, 1), BuildingBlock: KIFKEQ_clean_linker_1, # of connection points: 2
#     Edge 15, Type (0, 1), BuildingBlock: KIFKEQ_clean_linker_1, # of connection points: 2
#     Edge 16, Type (0, 1), BuildingBlock: KIFKEQ_clean_linker_1, # of connection points: 2
#     Edge 17, Type (0, 1), BuildingBlock: KIFKEQ_clean_linker_1, # of connection points: 2
#     Edge 18, Type (0, 1), BuildingBlock: KIFKEQ_clean_linker_1, # of connection points: 2
#     Edge 19, Type (0, 1), BuildingBlock: KIFKEQ_clean_linker_1, # of connection points: 2
#     Edge 20, Type (0, 1), BuildingBlock: KIFKEQ_clean_linker_1, # of connection points: 2
#     Edge 21, Type (0, 1), BuildingBlock: KIFKEQ_clean_linker_1, # of connection points: 2
#     Edge 22, Type (0, 1), BuildingBlock: KIFKEQ_clean_linker_1, # of connection points: 2
#     Edge 23, Type (0, 1), BuildingBlock: KIFKEQ_clean_linker_1, # of connection points: 2
#     Edge 24, Type (0, 1), BuildingBlock: KIFKEQ_clean_linker_1, # of connection points: 2
#     Edge 25, Type (0, 1), BuildingBlock: KIFKEQ_clean_linker_1, # of connection points: 2
#     Edge 26, Type (0, 1), BuildingBlock: KIFKEQ_clean_linker_1, # of connection points: 2
# Relax obj value: 0.244
# Max RMSD: 0.191
# Mean RMSD: 0.124
data_MOF--net-anh--node1-HISSIN_clean_sbu_0--node2-BETDIP_clean_linker_0--edge1-KIFKEQ_clean_linker_1
_symmetry_space_group_name_H-M    P1
_symmetry_Int_Tables_number       1
_symmetry_cell_setting            triclinic
loop_
_symmetry_equiv_pos_as_xyz
'x, y, z'
_cell_length_a     30.698766
_cell_length_b     30.546788
_cell_length_c     51.016319
_cell_angle_alpha  96.490709
_cell_angle_beta   87.839091
_cell_angle_gamma 120.20811
loop_
_atom_site_label
_atom_site_type_symbol
_atom_site_fract_x
_atom_site_fract_y
_atom_site_fract_z
_atom_type_partial_charge
Eu0 Eu 1.13112 0.55474 0.14687 0.0
Eu1 Eu 0.18453 0.67684 0.16046 0.0
C2 C 0.14541 0.6069 0.20805 0.0
C3 C 1.02125 0.42988 0.14428 0.0
C4 C 1.00418 0.45767 0.16085 0.0
C5 C 0.93608 0.35731 0.14109 0.0
C6 C 0.95382 0.43608 0.16726 0.0
C7 C 0.98708 0.37952 0.13433 0.0
C8 C 0.91907 0.38557 0.15768 0.0
C9 C 1.07396 0.45692 0.13635 0.0
O10 O 0.24985 0.66138 0.15155 0.0
O11 O 0.21181 0.57557 0.15528 0.0
C12 C 0.25283 0.62008 0.15345 0.0
O13 O 0.17789 0.58869 0.11141 0.0
O14 O 0.24293 0.75169 0.17769 0.0
O15 O 0.18861 0.74579 0.14964 0.0
O16 O 0.1604 0.65189 0.11811 0.0
C17 C 0.17821 0.62765 0.10296 0.0
O18 O 1.07172 0.57743 0.14104 0.0
O19 O 1.10225 0.65088 0.16896 0.0
O20 O 0.17679 0.65202 0.20077 0.0
O21 O 1.08297 0.48882 0.11911 0.0
O22 O 1.10676 0.47765 0.15597 0.0
O23 O 1.11942 0.56688 0.19079 0.0
C24 C 0.27224 0.81033 0.14641 0.0
C25 C 0.29473 0.79125 0.1275 0.0
C26 C 0.33276 0.89607 0.13742 0.0
C27 C 0.33721 0.82466 0.1142 0.0
C28 C 0.29048 0.86267 0.15072 0.0
C29 C 0.35759 0.87758 0.11961 0.0
C30 C 0.2312 0.77576 0.16234 0.0
C31 C 1.06466 0.61243 0.1549 0.0
H32 H 1.02976 0.49684 0.16843 0.0
H33 H 0.91012 0.31826 0.13342 0.0
H34 H 0.94204 0.45962 0.17935 0.0
H35 H 0.99963 0.35778 0.12123 0.0
H36 H 0.28056 0.75064 0.12379 0.0
H37 H 0.34794 0.93659 0.14251 0.0
H38 H 0.35537 0.8093 0.1006 0.0
H39 H 0.27331 0.87785 0.16516 0.0
Eu40 Eu 0.62567 1.04142 0.4871 0.0
Eu41 Eu 0.55666 0.09486 0.48944 0.0
C42 C 0.59043 1.07152 0.54325 0.0
C43 C 0.687 0.95997 0.49632 0.0
C44 C 0.69923 0.96709 0.52333 0.0
C45 C 0.70249 0.88906 0.4906 0.0
C46 C 0.71494 0.93672 0.53364 0.0
C47 C 0.68722 0.91972 0.48025 0.0
C48 C 0.71846 0.89854 0.51717 0.0
C49 C 0.68008 0.99746 0.484 0.0
O50 O 0.63532 0.15652 0.47896 0.0
O51 O 0.68237 0.12619 0.49496 0.0
C52 C 0.67925 0.16358 0.4864 0.0
O53 O 0.63115 1.06994 0.44756 0.0
O54 O 0.53878 0.15349 0.50487 0.0
O55 O 0.49703 0.10091 0.47107 0.0
O56 O 0.55158 1.05589 0.44878 0.0
C57 C 0.5915 1.06389 0.43542 0.0
O58 O 0.54367 0.97618 0.48142 0.0
O59 O 0.5 1.0152 0.49882 0.0
O60 O 0.57838 0.10076 0.53198 0.0
O61 O 0.63954 0.98078 0.46947 0.0
O62 O 0.69248 1.04039 0.4983 0.0
O63 O 0.60205 1.03999 0.52943 0.0
C64 C 0.52563 0.18775 0.46948 0.0
C65 C 0.56042 0.19541 0.44928 0.0
C66 C 0.54242 0.27399 0.4686 0.0
C67 C 0.58795 0.2429 0.43984 0.0
C68 C 0.51505 0.22645 0.47819 0.0
C69 C 0.58114 0.2834 0.45049 0.0
C70 C 0.50927 0.14432 0.48477 0.0
C71 C 0.50133 0.97364 0.49005 0.0
H72 H 0.69913 0.9977 0.53627 0.0
H73 H 0.70369 0.85919 0.47753 0.0
H74 H 0.72717 0.94526 0.55415 0.0
H75 H 0.67774 0.91342 0.45939 0.0
H76 H 0.56942 0.16607 0.44237 0.0
H77 H 0.53682 0.30472 0.4774 0.0
H78 H 0.61755 0.24918 0.42591 0.0
H79 H 0.4887 0.22133 0.49391 0.0
Eu80 Eu 0.55517 0.5539 0.81869 0.0
Eu81 Eu 0.678 0.62355 0.82134 0.0
C82 C 0.61747 0.59409 0.87496 0.0
C83 C 0.42749 0.53078 0.82902 0.0
C84 C 0.438 0.55334 0.8553 0.0
C85 C 0.38511 0.57762 0.82188 0.0
C86 C 0.42485 0.58982 0.86426 0.0
C87 C 0.39845 0.54107 0.81285 0.0
C88 C 0.40073 0.60442 0.84719 0.0
C89 C 0.4575 0.50873 0.81689 0.0
O90 O 0.66199 0.54108 0.81459 0.0
O91 O 0.57707 0.49482 0.82252 0.0
C92 C 0.62078 0.49749 0.81822 0.0
O93 O 0.58489 0.54761 0.77789 0.0
O94 O 0.75161 0.68321 0.83693 0.0
O95 O 0.74512 0.64216 0.79816 0.0
O96 O 0.64597 0.62964 0.78429 0.0
C97 C 0.61813 0.58935 0.76812 0.0
O98 O 0.5709 0.6351 0.81833 0.0
O99 O 0.65497 0.68366 0.83008 0.0
O100 O 0.6598 0.60515 0.86299 0.0
O101 O 0.48555 0.53258 0.79764 0.0
O102 O 0.48218 0.49834 0.8331 0.0
O103 O 0.5756 0.58107 0.86203 0.0
C104 C 0.82198 0.67599 0.82182 0.0
C105 C 0.85931 0.69126 0.8027 0.0
C106 C 0.87802 0.66973 0.85147 0.0
C107 C 0.90613 0.69682 0.80809 0.0
C108 C 0.83107 0.66395 0.84601 0.0
C109 C 0.91645 0.68744 0.8328 0.0
C110 C 0.77545 0.67619 0.81659 0.0
C111 C 0.61129 0.67973 0.82501 0.0
H112 H 0.46055 0.54654 0.86831 0.0
H113 H 0.36546 0.58722 0.80846 0.0
H114 H 0.43778 0.6097 0.88382 0.0
H115 H 0.38997 0.52424 0.79251 0.0
H116 H 0.85273 0.70036 0.78385 0.0
H117 H 0.88492 0.66264 0.87079 0.0
H118 H 0.93471 0.70974 0.79318 0.0
H119 H 0.8026 0.65177 0.86099 0.0
H120 H 0.54794 0.18186 0.18627 0.0
H121 H 0.55363 0.21751 0.26995 0.0
H122 H 0.60265 0.11422 0.23609 0.0
H123 H 0.53948 0.29284 0.19778 0.0
C124 C 0.56051 0.27821 0.20661 0.0
C125 C 0.55818 0.17767 0.20552 0.0
C126 C 0.57667 0.14459 0.2082 0.0
C127 C 0.5506 0.20436 0.22773 0.0
C128 C 0.55981 0.19675 0.25295 0.0
C129 C 0.57899 0.16442 0.25619 0.0
C130 C 0.58841 0.13955 0.23367 0.0
N131 N 0.53615 0.241 0.22466 0.0
H132 H 0.87001 0.64169 0.53368 0.0
H133 H 0.84582 0.68658 0.61321 0.0
H134 H 0.72432 0.558 0.56868 0.0
H135 H 0.95905 0.78591 0.59456 0.0
C136 C 0.92519 0.75977 0.58286 0.0
C137 C 0.84526 0.63501 0.55031 0.0
C138 C 0.79425 0.59658 0.54777 0.0
C139 C 0.86371 0.66762 0.57381 0.0
C140 C 0.83152 0.66108 0.59511 0.0
C141 C 0.78144 0.6211 0.59334 0.0
C142 C 0.76317 0.58884 0.56981 0.0
N143 N 0.91408 0.70886 0.57549 0.0
H144 H 0.29362 0.89003 0.89742 0.0
H145 H 0.38378 0.87332 0.95345 0.0
H146 H 0.23197 0.75208 0.9348 0.0
H147 H 0.46613 0.97633 0.91677 0.0
C148 C 0.4317 0.94037 0.91178 0.0
C149 C 0.29755 0.86717 0.9109 0.0
C150 C 0.25747 0.81819 0.91421 0.0
C151 C 0.34321 0.88666 0.92472 0.0
C152 C 0.34854 0.85762 0.94252 0.0
C153 C 0.30842 0.80892 0.94644 0.0
C154 C 0.2634 0.78938 0.93183 0.0
N155 N 0.38455 0.93485 0.91989 0.0
H156 H 1.13246 0.60637 0.48265 0.0
H157 H 1.05516 0.5255 0.40863 0.0
H158 H 0.19979 0.66114 0.40896 0.0
H159 H 0.98705 0.51703 0.43477 0.0
C160 C 0.99446 0.50015 0.45044 0.0
C161 C 1.13093 0.60278 0.4613 0.0
C162 C 0.17252 0.63848 0.44739 0.0
C163 C 1.08736 0.56218 0.44741 0.0
C164 C 1.0868 0.5575 0.41955 0.0
C165 C 1.12736 0.5926 0.40555 0.0
C166 C 0.16924 0.63297 0.41969 0.0
N167 N 1.04504 0.52537 0.46115 0.0
H168 H 0.62128 0.13132 0.81981 0.0
H169 H 0.61079 1.03873 0.74711 0.0
H170 H 0.61207 0.17931 0.74496 0.0
H171 H 0.55467 0.97706 0.77559 0.0
C172 C 0.58375 0.98798 0.79052 0.0
C173 C 0.61908 0.12514 0.79846 0.0
C174 C 0.61714 0.1611 0.78385 0.0
C175 C 0.61543 1.07977 0.78531 0.0
C176 C 0.61257 1.07256 0.75749 0.0
C177 C 0.61103 0.10805 0.74289 0.0
C178 C 0.61316 0.15179 0.75623 0.0
N179 N 0.6137 1.04112 0.79977 0.0
H180 H 0.62178 0.62358 0.15246 0.0
H181 H 0.6872 0.60489 0.07866 0.0
H182 H 0.55873 0.62519 0.07885 0.0
H183 H 0.70352 0.55572 0.10289 0.0
C184 C 0.72293 0.58429 0.11949 0.0
C185 C 0.622 0.62084 0.13111 0.0
C186 C 0.58481 0.62457 0.11716 0.0
C187 C 0.65971 0.61382 0.11729 0.0
C188 C 0.65894 0.61021 0.08945 0.0
C189 C 0.62242 0.61361 0.07531 0.0
C190 C 0.58634 0.62141 0.08948 0.0
N191 N 0.6989 0.61177 0.13107 0.0
H192 H 0.27409 0.54187 0.15047 0.0
H193 H 0.34772 0.70542 0.15301 0.0
H194 H 0.35542 0.54615 0.14595 0.0
H195 H 0.42936 0.71011 0.14952 0.0
H196 H 0.56067 0.69732 0.11036 0.0
H197 H 0.48292 0.69723 0.12108 0.0
H198 H 0.43367 0.56553 0.16314 0.0
H199 H 0.5116 0.56483 0.15126 0.0
C200 C 0.3076 0.57889 0.15037 0.0
C201 C 0.30361 0.62319 0.15198 0.0
C202 C 0.35481 0.58152 0.14798 0.0
C203 C 0.40008 0.62852 0.14724 0.0
C204 C 0.39598 0.67291 0.14944 0.0
C205 C 0.34875 0.67023 0.15164 0.0
C206 C 0.53376 0.66891 0.1224 0.0
C207 C 0.54294 0.6312 0.12997 0.0
C208 C 0.48871 0.66884 0.12866 0.0
C209 C 0.45069 0.63109 0.1429 0.0
C210 C 0.46106 0.59482 0.15172 0.0
C211 C 0.5064 0.59488 0.14535 0.0
H212 H 0.6874 0.2534 0.47531 0.0
H213 H 0.77899 0.1891 0.49186 0.0
H214 H 0.76328 0.33441 0.46977 0.0
H215 H 0.85524 0.2698 0.48531 0.0
H216 H 0.98837 0.43736 0.48849 0.0
H217 H 0.9135 0.35778 0.49923 0.0
H218 H 0.82658 0.37372 0.44023 0.0
H219 H 0.89998 0.4526 0.43035 0.0
C220 C 0.72373 0.25635 0.47765 0.0
C221 C 0.72651 0.21408 0.4839 0.0
C222 C 0.76762 0.30303 0.47426 0.0
C223 C 0.81623 0.30931 0.47661 0.0
C224 C 0.81901 0.26726 0.48345 0.0
C225 C 0.77497 0.22055 0.48708 0.0
C226 C 0.95309 0.42389 0.47803 0.0
C227 C 0.95036 0.45181 0.45862 0.0
C228 C 0.91001 0.37791 0.48404 0.0
C229 C 0.86301 0.35866 0.47084 0.0
C230 C 0.86103 0.38705 0.45145 0.0
C231 C 0.90363 0.43253 0.44557 0.0
H232 H 0.68855 0.77985 0.82635 0.0
H233 H 0.52622 0.68772 0.82269 0.0
H234 H 0.68268 0.85529 0.82098 0.0
H235 H 0.52029 0.76298 0.81814 0.0
H236 H 0.52528 0.88794 0.77527 0.0
H237 H 0.53222 0.81648 0.78614 0.0
H238 H 0.66092 0.91895 0.83713 0.0
H239 H 0.65425 0.99152 0.82547 0.0
C240 C 0.65153 0.77567 0.82482 0.0
C241 C 0.60793 0.72716 0.82469 0.0
C242 C 0.64813 0.81924 0.82184 0.0
C243 C 0.60099 0.81579 0.8187 0.0
C244 C 0.55742 0.76751 0.81977 0.0
C245 C 0.5608 0.72405 0.82257 0.0
C246 C 0.55497 0.89542 0.78897 0.0
C247 C 0.58906 0.94567 0.7995 0.0
C248 C 0.55877 0.85407 0.79543 0.0
C249 C 0.59693 0.86112 0.81278 0.0
C250 C 0.63116 0.91162 0.82355 0.0
C251 C 0.62722 0.95338 0.81703 0.0
H252 H 0.97467 0.53043 0.13601 0.0
H253 H 1.03882 0.68691 0.16952 0.0
H254 H 0.89376 0.5248 0.13057 0.0
H255 H 0.95767 0.68215 0.16303 0.0
H256 H 0.78955 0.64552 0.16228 0.0
H257 H 0.87077 0.65266 0.17305 0.0
H258 H 0.85183 0.54809 0.10411 0.0
H259 H 0.7715 0.53995 0.09428 0.0
C260 C 0.97172 0.56394 0.14215 0.0
C261 C 1.01404 0.60926 0.15304 0.0
C262 C 0.92492 0.5609 0.13879 0.0
C263 C 0.91833 0.60332 0.14576 0.0
C264 C 0.96041 0.64839 0.15741 0.0
C265 C 1.00735 0.65124 0.16106 0.0
C266 C 0.80281 0.62397 0.14959 0.0
C267 C 0.77338 0.59177 0.12748 0.0
C268 C 0.84971 0.62818 0.15566 0.0
C269 C 0.86855 0.60039 0.13977 0.0
C270 C 0.83896 0.5691 0.11751 0.0
C271 C 0.79255 0.56474 0.11165 0.0
H272 H 0.40323 0.9537 0.49443 0.0
H273 H 0.48952 0.87749 0.48169 0.0
H274 H 0.3252 0.87177 0.48822 0.0
H275 H 0.41181 0.7954 0.47671 0.0
H276 H 0.26895 0.66345 0.43538 0.0
H277 H 0.34652 0.74205 0.44796 0.0
H278 H 0.26439 0.7929 0.50144 0.0
H279 H 0.18558 0.71403 0.48754 0.0
C280 C 0.4057 0.91942 0.49071 0.0
C281 C 0.4532 0.92276 0.48838 0.0
C282 C 0.36057 0.87196 0.48729 0.0
C283 C 0.36115 0.82591 0.48167 0.0
C284 C 0.4089 0.82942 0.4803 0.0
C285 C 0.45394 0.87687 0.48338 0.0
C286 C 0.26738 0.69101 0.45016 0.0
C287 C 0.22058 0.68205 0.46031 0.0
C288 C 0.31236 0.73649 0.45758 0.0
C289 C 0.31278 0.77509 0.47576 0.0
C290 C 0.26616 0.76502 0.48703 0.0
C291 C 0.22077 0.71921 0.47942 0.0
H292 H 0.54483 0.40302 0.82847 0.0
H293 H 0.70031 0.48074 0.8052 0.0
H294 H 0.54476 0.32313 0.82498 0.0
H295 H 0.69987 0.39976 0.80106 0.0
H296 H 0.69317 0.24832 0.81119 0.0
H297 H 0.69608 0.33034 0.82217 0.0
H298 H 0.54329 0.2617 0.79217 0.0
H299 H 0.54059 0.18064 0.78186 0.0
C300 C 0.57918 0.40326 0.82253 0.0
C301 C 0.62248 0.44886 0.81691 0.0
C302 C 0.57904 0.35697 0.8204 0.0
C303 C 0.62211 0.35418 0.81243 0.0
C304 C 0.66598 0.40003 0.80745 0.0
C305 C 0.66616 0.44664 0.80966 0.0
C306 C 0.6598 0.25061 0.80779 0.0
C307 C 0.61629 0.20762 0.79614 0.0
C308 C 0.66166 0.29787 0.81365 0.0
C309 C 0.61997 0.30331 0.80806 0.0
C310 C 0.576 0.2595 0.79726 0.0
C311 C 0.57429 0.21268 0.79136 0.0
H312 H 0.78514 0.87652 0.49092 0.0
H313 H 0.71078 0.86404 0.56566 0.0
H314 H 0.83257 0.84116 0.50745 0.0
H315 H 0.75922 0.82898 0.58239 0.0
H316 H 0.90413 0.82939 0.60909 0.0
H317 H 0.84994 0.85967 0.59386 0.0
H318 H 0.81954 0.76122 0.52091 0.0
H319 H 0.8747 0.73288 0.53567 0.0
C320 C 0.77808 0.86523 0.51072 0.0
C321 C 0.74382 0.87278 0.52689 0.0
C322 C 0.80553 0.84518 0.52024 0.0
C323 C 0.7996 0.83231 0.54621 0.0
C324 C 0.76494 0.83915 0.56238 0.0
C325 C 0.73719 0.85909 0.55278 0.0
C326 C 0.88568 0.81441 0.58985 0.0
C327 C 0.89265 0.77815 0.57378 0.0
C328 C 0.85439 0.83125 0.58124 0.0
C329 C 0.8303 0.81255 0.55625 0.0
C330 C 0.83767 0.77642 0.54022 0.0
C331 C 0.86874 0.75967 0.54882 0.0
H332 H 1.00471 0.77137 0.82198 0.0
H333 H 0.94523 0.63394 0.86043 0.0
H334 H 1.08872 0.79941 0.83898 0.0
H335 H 1.02956 0.66232 0.87761 0.0
H336 H 0.16365 0.76922 0.93456 0.0
H337 H 1.08291 0.73216 0.91148 0.0
H338 H 0.1597 0.78253 0.83876 0.0
H339 H 0.24108 0.81959 0.86199 0.0
C340 C 1.00976 0.74651 0.83351 0.0
C341 C 0.96825 0.70061 0.84006 0.0
C342 C 1.05795 0.76266 0.84327 0.0
C343 C 1.06556 0.73332 0.85984 0.0
C344 C 1.02456 0.68613 0.86525 0.0
C345 C 0.97635 0.66992 0.85545 0.0
C346 C 0.16335 0.77187 0.91358 0.0
C347 C 0.20863 0.79709 0.90003 0.0
C348 C 1.1171 0.75046 0.90034 0.0
C349 C 1.11502 0.75394 0.87326 0.0
C350 C 0.16026 0.77944 0.85967 0.0
C351 C 0.20672 0.80082 0.87295 0.0
H352 H 0.39138 0.97055 0.10182 0.0
H353 H 0.44104 0.86718 0.11902 0.0
H354 H 0.47586 1.04181 0.11092 0.0
H355 H 0.52627 0.93834 0.12693 0.0
H356 H 0.5965 0.16401 0.15602 0.0
H357 H 0.56687 0.09939 0.1179 0.0
H358 H 0.5291 0.98329 0.16976 0.0
H359 H 0.55546 1.04593 0.20722 0.0
C360 C 0.42098 0.9628 0.10615 0.0
C361 C 0.40908 0.91381 0.11126 0.0
C362 C 0.46984 1.00373 0.11108 0.0
C363 C 0.50712 0.99587 0.12116 0.0
C364 C 0.49772 0.94564 0.12016 0.0
C365 C 0.44868 0.90471 0.11554 0.0
C366 C 0.58273 0.12473 0.15918 0.0
C367 C 0.57632 0.11013 0.18493 0.0
C368 C 0.56648 1.08786 0.13726 0.0
C369 C 0.54436 1.03599 0.14075 0.0
C370 C 0.54584 1.02277 0.1661 0.0
C371 C 0.56107 1.05923 0.18793 0.0
H372 H 0.68098 0.32237 0.45759 0.0
H373 H 0.57184 0.36451 0.43955 0.0
H374 H 0.74209 0.41011 0.47052 0.0
H375 H 0.63469 0.4542 0.45046 0.0
H376 H 0.70168 0.56429 0.52628 0.0
H377 H 0.65863 0.49805 0.49085 0.0
H378 H 0.79625 0.49488 0.47328 0.0
H379 H 0.83788 0.55802 0.51098 0.0
C380 C 0.67097 0.35092 0.45509 0.0
C381 C 0.62133 0.33659 0.44832 0.0
C382 C 0.70634 0.40183 0.46245 0.0
C383 C 0.69304 0.43978 0.46273 0.0
C384 C 0.64565 0.42594 0.45184 0.0
C385 C 0.60969 0.37463 0.44523 0.0
C386 C 0.72278 0.5493 0.51495 0.0
C387 C 0.77245 0.56461 0.52233 0.0
C388 C 0.6983 0.51185 0.49399 0.0
C389 C 0.72323 0.48943 0.47934 0.0
C390 C 0.77502 0.50958 0.48467 0.0
C391 C 0.79922 0.54634 0.50617 0.0
H392 H 0.38132 0.63949 0.8956 0.0
H393 H 0.41857 0.67818 0.81565 0.0
H394 H 0.394 0.72447 0.90916 0.0
H395 H 0.42898 0.76215 0.8292 0.0
H396 H 0.37921 0.88062 0.86788 0.0
H397 H 0.37017 0.79828 0.85047 0.0
H398 H 0.47769 0.8174 0.90926 0.0
H399 H 0.48735 0.90042 0.92634 0.0
C400 C 0.39162 0.66578 0.88087 0.0
C401 C 0.39908 0.65198 0.85456 0.0
C402 C 0.39901 0.71436 0.88867 0.0
C403 C 0.41315 0.74972 0.87024 0.0
C404 C 0.41808 0.73533 0.84371 0.0
C405 C 0.41147 0.68702 0.83596 0.0
C406 C 0.40175 0.8676 0.87658 0.0
C407 C 0.43397 0.8963 0.89834 0.0
C408 C 0.39649 0.82068 0.86672 0.0
C409 C 0.4228 0.80158 0.8788 0.0
C410 C 0.45671 0.83138 0.89986 0.0
C411 C 0.4627 0.87885 0.90939 0.0
H412 H 0.88287 0.3993 0.20548 0.0
H413 H 0.83402 0.32364 0.12653 0.0
H414 H 0.79758 0.37691 0.21619 0.0
H415 H 0.7467 0.29647 0.13814 0.0
H416 H 0.60342 0.30384 0.15884 0.0
H417 H 0.68978 0.32712 0.14643 0.0
H418 H 0.72087 0.31241 0.22604 0.0
H419 H 0.63755 0.29495 0.23865 0.0
C420 C 0.85366 0.3772 0.19045 0.0
C421 C 0.86546 0.36404 0.16499 0.0
C422 C 0.80432 0.36357 0.19674 0.0
C423 C 0.76486 0.33476 0.17806 0.0
C424 C 0.77622 0.31949 0.15288 0.0
C425 C 0.82613 0.33421 0.14636 0.0
C426 C 0.62937 0.30659 0.17362 0.0
C427 C 0.61363 0.29637 0.19947 0.0
C428 C 0.67846 0.31901 0.16648 0.0
C429 C 0.71242 0.32121 0.18513 0.0
C430 C 0.69639 0.31184 0.21113 0.0
C431 C 0.64811 0.30084 0.21831 0.0
H432 H 0.22369 0.59218 0.06522 0.0
H433 H 0.19328 0.71521 0.0866 0.0
H434 H 0.27108 0.63509 0.027 0.0
H435 H 0.24007 0.75717 0.04946 0.0
H436 H 0.2713 0.70588 0.94557 0.0
H437 H 0.24944 0.65887 0.98419 0.0
H438 H 0.32885 0.80078 0.03444 0.0
H439 H 0.34851 0.84783 -0.00381 0.0
C440 C 0.22696 0.62804 0.06178 0.0
C441 C 0.20445 0.65003 0.07887 0.0
C442 C 0.25426 0.65267 0.04009 0.0
C443 C 0.26018 0.7 0.03563 0.0
C444 C 0.23743 0.72148 0.05273 0.0
C445 C 0.20985 0.69684 0.0739 0.0
C446 C 0.28502 0.72699 0.96483 0.0
C447 C 0.31013 0.78066 0.96791 0.0
C448 C 0.27297 0.69997 0.9869 0.0
C449 C 0.28628 0.72628 0.01232 0.0
C450 C 0.31721 0.77962 0.01504 0.0
C451 C 0.32887 0.80661 -0.00694 0.0
H452 H 0.51204 1.02809 0.40161 0.0
H453 H 0.67426 0.12163 0.4069 0.0
H454 H 0.51224 1.05298 0.358 0.0
H455 H 0.67451 0.14833 0.36343 0.0
H456 H 0.51844 0.15222 0.29859 0.0
H457 H 0.5252 0.12794 0.34121 0.0
H458 H 0.65937 0.1236 0.3166 0.0
H459 H 0.65456 0.15143 0.27438 0.0
C460 C 0.54782 1.05373 0.39329 0.0
C461 C 0.5931 1.07305 0.4076 0.0
C462 C 0.54794 1.06847 0.36843 0.0
C463 C 0.59329 0.10356 0.35746 0.0
C464 C 0.63894 0.12112 0.37128 0.0
C465 C 0.63885 0.10578 0.39612 0.0
C466 C 0.55008 0.14728 0.3024 0.0
C467 C 0.58579 0.15356 0.28294 0.0
C468 C 0.55346 0.13241 0.32672 0.0
C469 C 0.59223 0.12274 0.33214 0.0
C470 C 0.62899 0.13066 0.31306 0.0
C471 C 0.62589 0.14608 0.28875 0.0
H472 H 0.68089 0.67338 0.74444 0.0
H473 H 0.58205 0.51081 0.7276 0.0
H474 H 0.71204 0.67798 0.70033 0.0
H475 H 0.61169 0.51576 0.68214 0.0
H476 H 0.73448 0.53759 0.62004 0.0
H477 H 0.6848 0.52703 0.6598 0.0
H478 H 0.70037 0.67503 0.65574 0.0
H479 H 0.75277 0.68638 0.61708 0.0
C480 C 0.66487 0.63855 0.73106 0.0
C481 C 0.62943 0.59152 0.7397 0.0
C482 C 0.68247 0.64133 0.70546 0.0
C483 C 0.66466 0.59726 0.68745 0.0
C484 C 0.62695 0.55041 0.69559 0.0
C485 C 0.60955 0.54755 0.72154 0.0
C486 C 0.72691 0.56758 0.62775 0.0
C487 C 0.74797 0.61312 0.616 0.0
C488 C 0.69799 0.56141 0.65034 0.0
C489 C 0.68886 0.60039 0.6613 0.0
C490 C 0.7077 0.64474 0.64839 0.0
C491 C 0.73755 0.65132 0.6262 0.0
H492 H 0.60453 1.01142 0.57402 0.0
H493 H 0.57985 0.13945 0.57885 0.0
H494 H 0.60763 1.01763 0.62202 0.0
H495 H 0.58456 0.14667 0.62673 0.0
H496 H 0.54627 0.11703 0.71177 0.0
H497 H 0.53966 0.10598 0.66378 0.0
H498 H 0.65879 1.06929 0.65978 0.0
H499 H 0.66437 1.07924 0.70795 0.0
C500 C 0.59991 1.041 0.58529 0.0
C501 C 0.59175 1.07482 0.5725 0.0
C502 C 0.60204 1.04479 0.61287 0.0
C503 C 0.59632 1.08263 0.62837 0.0
C504 C 0.58823 0.11645 0.61552 0.0
C505 C 0.5858 0.11248 0.58798 0.0
C506 C 0.57107 0.10666 0.7006 0.0
C507 C 0.60603 0.09927 0.71362 0.0
C508 C 0.56745 0.1005 0.67307 0.0
C509 C 0.59897 1.08714 0.65778 0.0
C510 C 0.63346 1.07898 0.67085 0.0
C511 C 0.63679 1.08478 0.69846 0.0
H512 H 0.69261 0.66235 0.90937 0.0
H513 H 0.54224 0.53222 0.9061 0.0
H514 H 0.69329 0.66769 0.95724 0.0
H515 H 0.54397 0.53414 0.95388 0.0
H516 H 0.54016 0.57191 0.04126 0.0
H517 H 0.53885 0.57016 -0.00606 0.0
H518 H 0.70102 0.63696 -0.00617 0.0
H519 H 0.70282 0.64486 0.04151 0.0
C520 C 0.65988 0.63442 0.91901 0.0
C521 C 0.61734 0.59698 0.90409 0.0
C522 C 0.66035 0.63702 0.94656 0.0
C523 C 0.61883 0.60115 0.95995 0.0
C524 C 0.57636 0.56334 0.94472 0.0
C525 C 0.57536 0.56184 0.9172 0.0
C526 C 0.57583 0.58752 0.03133 0.0
C527 C 0.62168 0.60923 0.04569 0.0
C528 C 0.57498 0.5854 0.00382 0.0
C529 C 0.61981 0.60335 0.98951 0.0
C530 C 0.66558 0.62372 0.00382 0.0
C531 C 0.66656 0.62725 0.03143 0.0
H532 H 1.07203 0.52697 0.23295 0.0
H533 H 0.20634 0.67459 0.2483 0.0
H534 H 1.06488 0.51886 0.28047 0.0
H535 H 0.19919 0.66622 0.29532 0.0
H536 H 0.20553 0.60915 0.37263 0.0
H537 H 0.2074 0.60959 0.32493 0.0
H538 H 1.04954 0.56356 0.32332 0.0
H539 H 1.04775 0.56449 0.37142 0.0
C540 C 1.09997 0.55761 0.24638 0.0
C541 C 0.1398 0.6014 0.23676 0.0
C542 C 1.09573 0.55304 0.27357 0.0
C543 C 1.13168 0.59176 0.29158 0.0
C544 C 0.17126 0.63546 0.28192 0.0
C545 C 0.17512 0.64034 0.25492 0.0
C546 C 0.17118 0.59943 0.36224 0.0
C547 C 1.12669 0.58767 0.37605 0.0
C548 C 0.17226 0.59948 0.33485 0.0
C549 C 1.12877 0.58716 0.32041 0.0
C550 C 1.08361 0.57304 0.33393 0.0
C551 C 1.08261 0.57349 0.36148 0.0
loop_
_geom_bond_atom_site_label_1
_geom_bond_atom_site_label_2
_geom_bond_distance
_geom_bond_site_symmetry_2
_ccdc_geom_bond_type
Eu0 C9 2.828 . S
Eu0 O11 2.392 1_655 S
Eu0 O13 2.418 . S
Eu0 O18 2.373 . S
Eu0 O21 2.488 . S
Eu0 O22 2.471 . S
Eu0 O23 2.349 1_655 S
Eu1 O10 2.373 . S
Eu1 O14 2.488 . S
Eu1 O15 2.471 . S
Eu1 O16 2.349 . S
Eu1 O19 2.392 1_455 S
Eu1 O20 2.418 . S
Eu1 C30 2.828 . S
C2 O20 1.244 . S
C2 O23 1.265 . S
C3 C4 1.379 . S
C3 C7 1.373 . S
C3 C9 1.505 . S
C4 C3 1.379 . S
C4 C6 1.369 . S
C4 H32 0.930 . S
C5 C7 1.383 . S
C5 C8 1.382 . S
C5 H33 0.930 . S
C6 C4 1.369 . S
C6 C8 1.392 . S
C6 H34 0.930 . S
C7 C3 1.373 . S
C7 C5 1.383 . S
C7 H35 0.931 . S
C8 C5 1.382 . S
C8 C6 1.392 . S
C9 Eu0 2.828 . S
C9 C3 1.505 . S
C9 O21 1.249 . S
C9 O22 1.244 . S
O10 Eu1 2.373 . S
O10 C12 1.258 . S
O11 Eu0 2.392 1_455 S
O11 C12 1.242 . S
C12 O10 1.258 . S
C12 O11 1.242 . S
O13 Eu0 2.418 . S
O13 C17 1.244 1_655 S
O14 Eu1 2.488 . S
O14 C30 1.249 . S
O15 Eu1 2.471 . S
O15 C30 1.244 . S
O16 Eu1 2.349 . S
O16 C17 1.265 . S
C17 O13 1.244 1_455 S
C17 O16 1.265 . S
O18 Eu0 2.373 . S
O18 C31 1.258 . S
O19 Eu1 2.392 1_655 S
O19 C31 1.242 . S
O20 Eu1 2.418 . S
O20 C2 1.244 . S
O21 Eu0 2.488 . S
O21 C9 1.249 . S
O22 Eu0 2.471 . S
O22 C9 1.244 . S
O23 Eu0 2.349 1_455 S
O23 C2 1.265 . S
C24 C25 1.379 . S
C24 C28 1.373 . S
C24 C30 1.505 . S
C25 C24 1.379 . S
C25 C27 1.369 . S
C25 H36 0.930 . S
C26 C28 1.383 . S
C26 C29 1.382 . S
C26 H37 0.930 . S
C27 C25 1.369 . S
C27 C29 1.392 . S
C27 H38 0.930 . S
C28 C24 1.373 . S
C28 C26 1.383 . S
C28 H39 0.931 . S
C29 C26 1.382 . S
C29 C27 1.392 . S
C30 Eu1 2.828 . S
C30 O14 1.249 . S
C30 O15 1.244 . S
C30 C24 1.505 . S
C31 O18 1.258 . S
C31 O19 1.242 . S
H32 C4 0.930 . S
H33 C5 0.930 . S
H34 C6 0.930 . S
H35 C7 0.931 . S
H36 C25 0.930 . S
H37 C26 0.930 . S
H38 C27 0.930 . S
H39 C28 0.931 . S
Eu40 C49 2.828 . S
Eu40 O51 2.392 1_565 S
Eu40 O53 2.418 . S
Eu40 O58 2.373 . S
Eu40 O61 2.488 . S
Eu40 O62 2.471 . S
Eu40 O63 2.349 1_565 S
Eu41 O50 2.373 . S
Eu41 O54 2.488 . S
Eu41 O55 2.471 . S
Eu41 O56 2.349 . S
Eu41 O59 2.392 1_545 S
Eu41 O60 2.418 . S
Eu41 C70 2.828 . S
C42 O60 1.244 . S
C42 O63 1.265 . S
C43 C44 1.379 . S
C43 C47 1.373 . S
C43 C49 1.505 . S
C44 C43 1.379 . S
C44 C46 1.369 . S
C44 H72 0.930 . S
C45 C47 1.383 . S
C45 C48 1.382 . S
C45 H73 0.930 . S
C46 C44 1.369 . S
C46 C48 1.392 . S
C46 H74 0.930 . S
C47 C43 1.373 . S
C47 C45 1.383 . S
C47 H75 0.931 . S
C48 C45 1.382 . S
C48 C46 1.392 . S
C49 Eu40 2.828 . S
C49 C43 1.505 . S
C49 O61 1.249 . S
C49 O62 1.244 . S
O50 Eu41 2.373 . S
O50 C52 1.258 . S
O51 Eu40 2.392 1_545 S
O51 C52 1.242 . S
C52 O50 1.258 . S
C52 O51 1.242 . S
O53 Eu40 2.418 . S
O53 C57 1.244 1_565 S
O54 Eu41 2.488 . S
O54 C70 1.249 . S
O55 Eu41 2.471 . S
O55 C70 1.244 . S
O56 Eu41 2.349 . S
O56 C57 1.265 . S
C57 O53 1.244 1_545 S
C57 O56 1.265 . S
O58 Eu40 2.373 . S
O58 C71 1.258 . S
O59 Eu41 2.392 1_565 S
O59 C71 1.242 . S
O60 Eu41 2.418 . S
O60 C42 1.244 . S
O61 Eu40 2.488 . S
O61 C49 1.249 . S
O62 Eu40 2.471 . S
O62 C49 1.244 . S
O63 Eu40 2.349 1_545 S
O63 C42 1.265 . S
C64 C65 1.379 . S
C64 C68 1.373 . S
C64 C70 1.505 . S
C65 C64 1.379 . S
C65 C67 1.369 . S
C65 H76 0.930 . S
C66 C68 1.383 . S
C66 C69 1.382 . S
C66 H77 0.930 . S
C67 C65 1.369 . S
C67 C69 1.392 . S
C67 H78 0.930 . S
C68 C64 1.373 . S
C68 C66 1.383 . S
C68 H79 0.931 . S
C69 C66 1.382 . S
C69 C67 1.392 . S
C70 Eu41 2.828 . S
C70 O54 1.249 . S
C70 O55 1.244 . S
C70 C64 1.505 . S
C71 O58 1.258 . S
C71 O59 1.242 . S
H72 C44 0.930 . S
H73 C45 0.930 . S
H74 C46 0.930 . S
H75 C47 0.931 . S
H76 C65 0.930 . S
H77 C66 0.930 . S
H78 C67 0.930 . S
H79 C68 0.931 . S
Eu80 C89 2.828 . S
Eu80 O91 2.392 . S
Eu80 O93 2.418 . S
Eu80 O98 2.373 . S
Eu80 O101 2.488 . S
Eu80 O102 2.471 . S
Eu80 O103 2.349 . S
Eu81 O90 2.373 . S
Eu81 O94 2.488 . S
Eu81 O95 2.471 . S
Eu81 O96 2.349 . S
Eu81 O99 2.392 . S
Eu81 O100 2.418 . S
Eu81 C110 2.828 . S
C82 O100 1.244 . S
C82 O103 1.265 . S
C83 C84 1.379 . S
C83 C87 1.373 . S
C83 C89 1.505 . S
C84 C83 1.379 . S
C84 C86 1.369 . S
C84 H112 0.930 . S
C85 C87 1.383 . S
C85 C88 1.382 . S
C85 H113 0.930 . S
C86 C84 1.369 . S
C86 C88 1.392 . S
C86 H114 0.930 . S
C87 C83 1.373 . S
C87 C85 1.383 . S
C87 H115 0.931 . S
C88 C85 1.382 . S
C88 C86 1.392 . S
C89 Eu80 2.828 . S
C89 C83 1.505 . S
C89 O101 1.249 . S
C89 O102 1.244 . S
O90 Eu81 2.373 . S
O90 C92 1.258 . S
O91 Eu80 2.392 . S
O91 C92 1.242 . S
C92 O90 1.258 . S
C92 O91 1.242 . S
O93 Eu80 2.418 . S
O93 C97 1.244 . S
O94 Eu81 2.488 . S
O94 C110 1.249 . S
O95 Eu81 2.471 . S
O95 C110 1.244 . S
O96 Eu81 2.349 . S
O96 C97 1.265 . S
C97 O93 1.244 . S
C97 O96 1.265 . S
O98 Eu80 2.373 . S
O98 C111 1.258 . S
O99 Eu81 2.392 . S
O99 C111 1.242 . S
O100 Eu81 2.418 . S
O100 C82 1.244 . S
O101 Eu80 2.488 . S
O101 C89 1.249 . S
O102 Eu80 2.471 . S
O102 C89 1.244 . S
O103 Eu80 2.349 . S
O103 C82 1.265 . S
C104 C105 1.379 . S
C104 C108 1.373 . S
C104 C110 1.505 . S
C105 C104 1.379 . S
C105 C107 1.369 . S
C105 H116 0.930 . S
C106 C108 1.383 . S
C106 C109 1.382 . S
C106 H117 0.930 . S
C107 C105 1.369 . S
C107 C109 1.392 . S
C107 H118 0.930 . S
C108 C104 1.373 . S
C108 C106 1.383 . S
C108 H119 0.931 . S
C109 C106 1.382 . S
C109 C107 1.392 . S
C110 Eu81 2.828 . S
C110 O94 1.249 . S
C110 O95 1.244 . S
C110 C104 1.505 . S
C111 O98 1.258 . S
C111 O99 1.242 . S
H112 C84 0.930 . S
H113 C85 0.930 . S
H114 C86 0.930 . S
H115 C87 0.931 . S
H116 C105 0.930 . S
H117 C106 0.930 . S
H118 C107 0.930 . S
H119 C108 0.931 . S
H120 C125 0.930 . S
H121 C128 0.930 . S
H122 C130 0.930 1_565 S
H123 C124 1.016 . S
C124 H123 1.016 . S
C124 N131 1.286 . S
C125 H120 0.930 . S
C125 C126 1.397 . S
C125 C127 1.361 . S
C126 C125 1.397 . S
C126 C130 1.390 . S
C127 C125 1.361 . S
C127 C128 1.393 . S
C127 N131 1.413 . S
C128 H121 0.930 . S
C128 C127 1.393 . S
C128 C129 1.399 . S
C129 C128 1.399 . S
C129 C130 1.381 . S
C130 H122 0.930 1_545 S
C130 C126 1.390 . S
C130 C129 1.381 . S
N131 C124 1.286 . S
N131 C127 1.413 . S
H132 C137 0.930 . S
H133 C140 0.930 . S
H134 C142 0.930 . S
H135 C136 1.016 . S
C136 H135 1.016 . S
C136 N143 1.286 . S
C137 H132 0.930 . S
C137 C138 1.397 . S
C137 C139 1.361 . S
C138 C137 1.397 . S
C138 C142 1.390 . S
C139 C137 1.361 . S
C139 C140 1.393 . S
C139 N143 1.413 . S
C140 H133 0.930 . S
C140 C139 1.393 . S
C140 C141 1.399 . S
C141 C140 1.399 . S
C141 C142 1.381 . S
C142 H134 0.930 . S
C142 C138 1.390 . S
C142 C141 1.381 . S
N143 C136 1.286 . S
N143 C139 1.413 . S
H144 C149 0.930 . S
H145 C152 0.930 . S
H146 C154 0.930 . S
H147 C148 1.016 . S
C148 H147 1.016 . S
C148 N155 1.286 . S
C149 H144 0.930 . S
C149 C150 1.397 1_455 S
C149 C151 1.361 . S
C150 C149 1.397 1_655 S
C150 C154 1.390 . S
C151 C149 1.361 . S
C151 C152 1.393 . S
C151 N155 1.413 . S
C152 H145 0.930 . S
C152 C151 1.393 . S
C152 C153 1.399 . S
C153 C152 1.399 . S
C153 C154 1.381 1_455 S
C154 H146 0.930 . S
C154 C150 1.390 . S
C154 C153 1.381 1_655 S
N155 C148 1.286 . S
N155 C151 1.413 . S
H156 C161 0.930 . S
H157 C164 0.930 . S
H158 C166 0.930 . S
H159 C160 1.016 . S
C160 H159 1.016 . S
C160 N167 1.286 . S
C161 H156 0.930 . S
C161 C162 1.397 . S
C161 C163 1.361 1_455 S
C162 C161 1.397 . S
C162 C166 1.390 . S
C163 C161 1.361 1_655 S
C163 C164 1.393 . S
C163 N167 1.413 . S
C164 H157 0.930 . S
C164 C163 1.393 . S
C164 C165 1.399 1_655 S
C165 C164 1.399 1_455 S
C165 C166 1.381 . S
C166 H158 0.930 . S
C166 C162 1.390 . S
C166 C165 1.381 . S
N167 C160 1.286 . S
N167 C163 1.413 . S
H168 C173 0.930 . S
H169 C176 0.930 1_565 S
H170 C178 0.930 . S
H171 C172 1.016 . S
C172 H171 1.016 . S
C172 N179 1.286 . S
C173 H168 0.930 . S
C173 C174 1.397 . S
C173 C175 1.361 . S
C174 C173 1.397 . S
C174 C178 1.390 . S
C175 C173 1.361 . S
C175 C176 1.393 . S
C175 N179 1.413 1_545 S
C176 H169 0.930 1_545 S
C176 C175 1.393 . S
C176 C177 1.399 . S
C177 C176 1.399 . S
C177 C178 1.381 . S
C178 H170 0.930 . S
C178 C174 1.390 . S
C178 C177 1.381 . S
N179 C172 1.286 . S
N179 C175 1.413 1_565 S
H180 C185 0.930 . S
H181 C188 0.930 . S
H182 C190 0.930 . S
H183 C184 1.016 . S
C184 H183 1.016 . S
C184 N191 1.286 . S
C185 H180 0.930 . S
C185 C186 1.397 . S
C185 C187 1.361 . S
C186 C185 1.397 . S
C186 C190 1.390 . S
C187 C185 1.361 . S
C187 C188 1.393 . S
C187 N191 1.413 . S
C188 H181 0.930 . S
C188 C187 1.393 . S
C188 C189 1.399 . S
C189 C188 1.399 . S
C189 C190 1.381 . S
C190 H182 0.930 . S
C190 C186 1.390 . S
C190 C189 1.381 . S
N191 C184 1.286 . S
N191 C187 1.413 . S
H192 C200 0.950 . S
H193 C205 0.950 . S
H194 C202 0.950 . S
H195 C204 0.950 . S
H196 C206 0.950 . S
H197 C208 0.950 . S
H198 C210 0.950 . S
H199 C211 0.950 . S
C200 H192 0.950 . S
C200 C201 1.386 . S
C200 C202 1.391 . S
C201 C200 1.386 . S
C201 C205 1.393 . S
C202 H194 0.950 . S
C202 C200 1.391 . S
C202 C203 1.400 . S
C203 C202 1.400 . S
C203 C204 1.398 . S
C203 C209 1.491 . S
C204 H195 0.950 . S
C204 C203 1.398 . S
C204 C205 1.391 . S
C205 H193 0.950 . S
C205 C201 1.393 . S
C205 C204 1.391 . S
C206 H196 0.950 . S
C206 C207 1.386 . S
C206 C208 1.391 . S
C207 C206 1.386 . S
C207 C211 1.393 . S
C208 H197 0.950 . S
C208 C206 1.391 . S
C208 C209 1.400 . S
C209 C203 1.491 . S
C209 C208 1.400 . S
C209 C210 1.398 . S
C210 H198 0.950 . S
C210 C209 1.398 . S
C210 C211 1.391 . S
C211 H199 0.950 . S
C211 C207 1.393 . S
C211 C210 1.391 . S
H212 C220 0.950 . S
H213 C225 0.950 . S
H214 C222 0.950 . S
H215 C224 0.950 . S
H216 C226 0.950 . S
H217 C228 0.950 . S
H218 C230 0.950 . S
H219 C231 0.950 . S
C220 H212 0.950 . S
C220 C221 1.386 . S
C220 C222 1.391 . S
C221 C220 1.386 . S
C221 C225 1.393 . S
C222 H214 0.950 . S
C222 C220 1.391 . S
C222 C223 1.400 . S
C223 C222 1.400 . S
C223 C224 1.398 . S
C223 C229 1.491 . S
C224 H215 0.950 . S
C224 C223 1.398 . S
C224 C225 1.391 . S
C225 H213 0.950 . S
C225 C221 1.393 . S
C225 C224 1.391 . S
C226 H216 0.950 . S
C226 C227 1.386 . S
C226 C228 1.391 . S
C227 C226 1.386 . S
C227 C231 1.393 . S
C228 H217 0.950 . S
C228 C226 1.391 . S
C228 C229 1.400 . S
C229 C223 1.491 . S
C229 C228 1.400 . S
C229 C230 1.398 . S
C230 H218 0.950 . S
C230 C229 1.398 . S
C230 C231 1.391 . S
C231 H219 0.950 . S
C231 C227 1.393 . S
C231 C230 1.391 . S
H232 C240 0.950 . S
H233 C245 0.950 . S
H234 C242 0.950 . S
H235 C244 0.950 . S
H236 C246 0.950 . S
H237 C248 0.950 . S
H238 C250 0.950 . S
H239 C251 0.950 . S
C240 H232 0.950 . S
C240 C241 1.386 . S
C240 C242 1.391 . S
C241 C240 1.386 . S
C241 C245 1.393 . S
C242 H234 0.950 . S
C242 C240 1.391 . S
C242 C243 1.400 . S
C243 C242 1.400 . S
C243 C244 1.398 . S
C243 C249 1.491 . S
C244 H235 0.950 . S
C244 C243 1.398 . S
C244 C245 1.391 . S
C245 H233 0.950 . S
C245 C241 1.393 . S
C245 C244 1.391 . S
C246 H236 0.950 . S
C246 C247 1.386 . S
C246 C248 1.391 . S
C247 C246 1.386 . S
C247 C251 1.393 . S
C248 H237 0.950 . S
C248 C246 1.391 . S
C248 C249 1.400 . S
C249 C243 1.491 . S
C249 C248 1.400 . S
C249 C250 1.398 . S
C250 H238 0.950 . S
C250 C249 1.398 . S
C250 C251 1.391 . S
C251 H239 0.950 . S
C251 C247 1.393 . S
C251 C250 1.391 . S
H252 C260 0.950 . S
H253 C265 0.950 . S
H254 C262 0.950 . S
H255 C264 0.950 . S
H256 C266 0.950 . S
H257 C268 0.950 . S
H258 C270 0.950 . S
H259 C271 0.950 . S
C260 H252 0.950 . S
C260 C261 1.386 . S
C260 C262 1.391 . S
C261 C260 1.386 . S
C261 C265 1.393 . S
C262 H254 0.950 . S
C262 C260 1.391 . S
C262 C263 1.400 . S
C263 C262 1.400 . S
C263 C264 1.398 . S
C263 C269 1.491 . S
C264 H255 0.950 . S
C264 C263 1.398 . S
C264 C265 1.391 . S
C265 H253 0.950 . S
C265 C261 1.393 . S
C265 C264 1.391 . S
C266 H256 0.950 . S
C266 C267 1.386 . S
C266 C268 1.391 . S
C267 C266 1.386 . S
C267 C271 1.393 . S
C268 H257 0.950 . S
C268 C266 1.391 . S
C268 C269 1.400 . S
C269 C263 1.491 . S
C269 C268 1.400 . S
C269 C270 1.398 . S
C270 H258 0.950 . S
C270 C269 1.398 . S
C270 C271 1.391 . S
C271 H259 0.950 . S
C271 C267 1.393 . S
C271 C270 1.391 . S
H272 C280 0.950 . S
H273 C285 0.950 . S
H274 C282 0.950 . S
H275 C284 0.950 . S
H276 C286 0.950 . S
H277 C288 0.950 . S
H278 C290 0.950 . S
H279 C291 0.950 . S
C280 H272 0.950 . S
C280 C281 1.386 . S
C280 C282 1.391 . S
C281 C280 1.386 . S
C281 C285 1.393 . S
C282 H274 0.950 . S
C282 C280 1.391 . S
C282 C283 1.400 . S
C283 C282 1.400 . S
C283 C284 1.398 . S
C283 C289 1.491 . S
C284 H275 0.950 . S
C284 C283 1.398 . S
C284 C285 1.391 . S
C285 H273 0.950 . S
C285 C281 1.393 . S
C285 C284 1.391 . S
C286 H276 0.950 . S
C286 C287 1.386 . S
C286 C288 1.391 . S
C287 C286 1.386 . S
C287 C291 1.393 . S
C288 H277 0.950 . S
C288 C286 1.391 . S
C288 C289 1.400 . S
C289 C283 1.491 . S
C289 C288 1.400 . S
C289 C290 1.398 . S
C290 H278 0.950 . S
C290 C289 1.398 . S
C290 C291 1.391 . S
C291 H279 0.950 . S
C291 C287 1.393 . S
C291 C290 1.391 . S
H292 C300 0.950 . S
H293 C305 0.950 . S
H294 C302 0.950 . S
H295 C304 0.950 . S
H296 C306 0.950 . S
H297 C308 0.950 . S
H298 C310 0.950 . S
H299 C311 0.950 . S
C300 H292 0.950 . S
C300 C301 1.386 . S
C300 C302 1.391 . S
C301 C300 1.386 . S
C301 C305 1.393 . S
C302 H294 0.950 . S
C302 C300 1.391 . S
C302 C303 1.400 . S
C303 C302 1.400 . S
C303 C304 1.398 . S
C303 C309 1.491 . S
C304 H295 0.950 . S
C304 C303 1.398 . S
C304 C305 1.391 . S
C305 H293 0.950 . S
C305 C301 1.393 . S
C305 C304 1.391 . S
C306 H296 0.950 . S
C306 C307 1.386 . S
C306 C308 1.391 . S
C307 C306 1.386 . S
C307 C311 1.393 . S
C308 H297 0.950 . S
C308 C306 1.391 . S
C308 C309 1.400 . S
C309 C303 1.491 . S
C309 C308 1.400 . S
C309 C310 1.398 . S
C310 H298 0.950 . S
C310 C309 1.398 . S
C310 C311 1.391 . S
C311 H299 0.950 . S
C311 C307 1.393 . S
C311 C310 1.391 . S
H312 C320 0.950 . S
H313 C325 0.950 . S
H314 C322 0.950 . S
H315 C324 0.950 . S
H316 C326 0.950 . S
H317 C328 0.950 . S
H318 C330 0.950 . S
H319 C331 0.950 . S
C320 H312 0.950 . S
C320 C321 1.386 . S
C320 C322 1.391 . S
C321 C320 1.386 . S
C321 C325 1.393 . S
C322 H314 0.950 . S
C322 C320 1.391 . S
C322 C323 1.400 . S
C323 C322 1.400 . S
C323 C324 1.398 . S
C323 C329 1.491 . S
C324 H315 0.950 . S
C324 C323 1.398 . S
C324 C325 1.391 . S
C325 H313 0.950 . S
C325 C321 1.393 . S
C325 C324 1.391 . S
C326 H316 0.950 . S
C326 C327 1.386 . S
C326 C328 1.391 . S
C327 C326 1.386 . S
C327 C331 1.393 . S
C328 H317 0.950 . S
C328 C326 1.391 . S
C328 C329 1.400 . S
C329 C323 1.491 . S
C329 C328 1.400 . S
C329 C330 1.398 . S
C330 H318 0.950 . S
C330 C329 1.398 . S
C330 C331 1.391 . S
C331 H319 0.950 . S
C331 C327 1.393 . S
C331 C330 1.391 . S
H332 C340 0.950 . S
H333 C345 0.950 . S
H334 C342 0.950 . S
H335 C344 0.950 . S
H336 C346 0.950 . S
H337 C348 0.950 . S
H338 C350 0.950 . S
H339 C351 0.950 . S
C340 H332 0.950 . S
C340 C341 1.386 . S
C340 C342 1.391 . S
C341 C340 1.386 . S
C341 C345 1.393 . S
C342 H334 0.950 . S
C342 C340 1.391 . S
C342 C343 1.400 . S
C343 C342 1.400 . S
C343 C344 1.398 . S
C343 C349 1.491 . S
C344 H335 0.950 . S
C344 C343 1.398 . S
C344 C345 1.391 . S
C345 H333 0.950 . S
C345 C341 1.393 . S
C345 C344 1.391 . S
C346 H336 0.950 . S
C346 C347 1.386 . S
C346 C348 1.391 . S
C347 C346 1.386 . S
C347 C351 1.393 . S
C348 H337 0.950 . S
C348 C346 1.391 . S
C348 C349 1.400 . S
C349 C343 1.491 . S
C349 C348 1.400 . S
C349 C350 1.398 . S
C350 H338 0.950 . S
C350 C349 1.398 . S
C350 C351 1.391 . S
C351 H339 0.950 . S
C351 C347 1.393 . S
C351 C350 1.391 . S
H352 C360 0.950 . S
H353 C365 0.950 . S
H354 C362 0.950 . S
H355 C364 0.950 . S
H356 C366 0.950 . S
H357 C368 0.950 . S
H358 C370 0.950 . S
H359 C371 0.950 1_545 S
C360 H352 0.950 . S
C360 C361 1.386 . S
C360 C362 1.391 . S
C361 C360 1.386 . S
C361 C365 1.393 . S
C362 H354 0.950 . S
C362 C360 1.391 . S
C362 C363 1.400 . S
C363 C362 1.400 . S
C363 C364 1.398 . S
C363 C369 1.491 . S
C364 H355 0.950 . S
C364 C363 1.398 . S
C364 C365 1.391 . S
C365 H353 0.950 . S
C365 C361 1.393 . S
C365 C364 1.391 . S
C366 H356 0.950 . S
C366 C367 1.386 1_565 S
C366 C368 1.391 . S
C367 C366 1.386 1_545 S
C367 C371 1.393 1_545 S
C368 H357 0.950 . S
C368 C366 1.391 . S
C368 C369 1.400 . S
C369 C363 1.491 . S
C369 C368 1.400 . S
C369 C370 1.398 . S
C370 H358 0.950 . S
C370 C369 1.398 . S
C370 C371 1.391 . S
C371 H359 0.950 1_565 S
C371 C367 1.393 1_565 S
C371 C370 1.391 . S
H372 C380 0.950 . S
H373 C385 0.950 . S
H374 C382 0.950 . S
H375 C384 0.950 . S
H376 C386 0.950 . S
H377 C388 0.950 . S
H378 C390 0.950 . S
H379 C391 0.950 . S
C380 H372 0.950 . S
C380 C381 1.386 . S
C380 C382 1.391 . S
C381 C380 1.386 . S
C381 C385 1.393 . S
C382 H374 0.950 . S
C382 C380 1.391 . S
C382 C383 1.400 . S
C383 C382 1.400 . S
C383 C384 1.398 . S
C383 C389 1.491 . S
C384 H375 0.950 . S
C384 C383 1.398 . S
C384 C385 1.391 . S
C385 H373 0.950 . S
C385 C381 1.393 . S
C385 C384 1.391 . S
C386 H376 0.950 . S
C386 C387 1.386 . S
C386 C388 1.391 . S
C387 C386 1.386 . S
C387 C391 1.393 . S
C388 H377 0.950 . S
C388 C386 1.391 . S
C388 C389 1.400 . S
C389 C383 1.491 . S
C389 C388 1.400 . S
C389 C390 1.398 . S
C390 H378 0.950 . S
C390 C389 1.398 . S
C390 C391 1.391 . S
C391 H379 0.950 . S
C391 C387 1.393 . S
C391 C390 1.391 . S
H392 C400 0.950 . S
H393 C405 0.950 . S
H394 C402 0.950 . S
H395 C404 0.950 . S
H396 C406 0.950 . S
H397 C408 0.950 . S
H398 C410 0.950 . S
H399 C411 0.950 . S
C400 H392 0.950 . S
C400 C401 1.386 . S
C400 C402 1.391 . S
C401 C400 1.386 . S
C401 C405 1.393 . S
C402 H394 0.950 . S
C402 C400 1.391 . S
C402 C403 1.400 . S
C403 C402 1.400 . S
C403 C404 1.398 . S
C403 C409 1.491 . S
C404 H395 0.950 . S
C404 C403 1.398 . S
C404 C405 1.391 . S
C405 H393 0.950 . S
C405 C401 1.393 . S
C405 C404 1.391 . S
C406 H396 0.950 . S
C406 C407 1.386 . S
C406 C408 1.391 . S
C407 C406 1.386 . S
C407 C411 1.393 . S
C408 H397 0.950 . S
C408 C406 1.391 . S
C408 C409 1.400 . S
C409 C403 1.491 . S
C409 C408 1.400 . S
C409 C410 1.398 . S
C410 H398 0.950 . S
C410 C409 1.398 . S
C410 C411 1.391 . S
C411 H399 0.950 . S
C411 C407 1.393 . S
C411 C410 1.391 . S
H412 C420 0.950 . S
H413 C425 0.950 . S
H414 C422 0.950 . S
H415 C424 0.950 . S
H416 C426 0.950 . S
H417 C428 0.950 . S
H418 C430 0.950 . S
H419 C431 0.950 . S
C420 H412 0.950 . S
C420 C421 1.386 . S
C420 C422 1.391 . S
C421 C420 1.386 . S
C421 C425 1.393 . S
C422 H414 0.950 . S
C422 C420 1.391 . S
C422 C423 1.400 . S
C423 C422 1.400 . S
C423 C424 1.398 . S
C423 C429 1.491 . S
C424 H415 0.950 . S
C424 C423 1.398 . S
C424 C425 1.391 . S
C425 H413 0.950 . S
C425 C421 1.393 . S
C425 C424 1.391 . S
C426 H416 0.950 . S
C426 C427 1.386 . S
C426 C428 1.391 . S
C427 C426 1.386 . S
C427 C431 1.393 . S
C428 H417 0.950 . S
C428 C426 1.391 . S
C428 C429 1.400 . S
C429 C423 1.491 . S
C429 C428 1.400 . S
C429 C430 1.398 . S
C430 H418 0.950 . S
C430 C429 1.398 . S
C430 C431 1.391 . S
C431 H419 0.950 . S
C431 C427 1.393 . S
C431 C430 1.391 . S
H432 C440 0.950 . S
H433 C445 0.950 . S
H434 C442 0.950 . S
H435 C444 0.953 . S
H436 C446 0.950 1_655 S
H437 C448 0.950 1_654 S
H438 C450 0.950 1_554 S
H439 C451 0.950 . S
C440 H432 0.950 . S
C440 C441 1.386 . S
C440 C442 1.391 . S
C441 C440 1.386 . S
C441 C445 1.393 1_455 S
C442 H434 0.950 . S
C442 C440 1.391 . S
C442 C443 1.400 . S
C443 C442 1.400 . S
C443 C444 1.395 1_455 S
C443 C449 1.491 . S
C444 H435 0.953 . S
C444 C443 1.395 1_655 S
C444 C445 1.391 . S
C445 H433 0.950 . S
C445 C441 1.393 1_655 S
C445 C444 1.391 . S
C446 H436 0.950 1_455 S
C446 C447 1.386 . S
C446 C448 1.391 . S
C447 C446 1.386 . S
C447 C451 1.393 . S
C448 H437 0.950 1_456 S
C448 C446 1.391 . S
C448 C449 1.400 1_556 S
C449 C443 1.491 . S
C449 C448 1.400 1_554 S
C449 C450 1.398 1_554 S
C450 H438 0.950 1_556 S
C450 C449 1.398 1_556 S
C450 C451 1.391 . S
C451 H439 0.950 . S
C451 C447 1.393 . S
C451 C450 1.391 . S
H452 C460 0.950 . S
H453 C465 0.950 . S
H454 C462 0.950 . S
H455 C464 0.950 . S
H456 C466 0.950 . S
H457 C468 0.950 . S
H458 C470 0.936 1_565 S
H459 C471 0.950 1_565 S
C460 H452 0.950 . S
C460 C461 1.386 1_565 S
C460 C462 1.391 . S
C461 C460 1.386 1_545 S
C461 C465 1.393 . S
C462 H454 0.950 . S
C462 C460 1.391 . S
C462 C463 1.400 1_565 S
C463 C462 1.400 1_545 S
C463 C464 1.398 . S
C463 C469 1.491 . S
C464 H455 0.950 . S
C464 C463 1.398 . S
C464 C465 1.391 . S
C465 H453 0.950 . S
C465 C461 1.393 . S
C465 C464 1.391 . S
C466 H456 0.950 . S
C466 C467 1.386 . S
C466 C468 1.391 . S
C467 C466 1.386 . S
C467 C471 1.393 . S
C468 H457 0.950 . S
C468 C466 1.391 . S
C468 C469 1.400 . S
C469 C463 1.491 . S
C469 C468 1.400 . S
C469 C470 1.409 . S
C470 H458 0.936 1_545 S
C470 C469 1.409 . S
C470 C471 1.394 . S
C471 H459 0.950 1_545 S
C471 C467 1.393 . S
C471 C470 1.394 . S
H472 C480 0.950 . S
H473 C485 0.950 . S
H474 C482 0.950 . S
H475 C484 0.950 . S
H476 C486 0.950 . S
H477 C488 0.950 . S
H478 C490 0.950 . S
H479 C491 0.950 . S
C480 H472 0.950 . S
C480 C481 1.386 . S
C480 C482 1.391 . S
C481 C480 1.386 . S
C481 C485 1.393 . S
C482 H474 0.950 . S
C482 C480 1.391 . S
C482 C483 1.400 . S
C483 C482 1.400 . S
C483 C484 1.398 . S
C483 C489 1.491 . S
C484 H475 0.950 . S
C484 C483 1.398 . S
C484 C485 1.391 . S
C485 H473 0.950 . S
C485 C481 1.393 . S
C485 C484 1.391 . S
C486 H476 0.950 . S
C486 C487 1.386 . S
C486 C488 1.391 . S
C487 C486 1.386 . S
C487 C491 1.393 . S
C488 H477 0.950 . S
C488 C486 1.391 . S
C488 C489 1.400 . S
C489 C483 1.491 . S
C489 C488 1.400 . S
C489 C490 1.398 . S
C490 H478 0.950 . S
C490 C489 1.398 . S
C490 C491 1.391 . S
C491 H479 0.950 . S
C491 C487 1.393 . S
C491 C490 1.391 . S
H492 C500 0.950 . S
H493 C505 0.950 . S
H494 C502 0.950 . S
H495 C504 0.950 . S
H496 C506 0.950 . S
H497 C508 0.950 . S
H498 C510 0.950 . S
H499 C511 0.950 . S
C500 H492 0.950 . S
C500 C501 1.386 . S
C500 C502 1.391 . S
C501 C500 1.386 . S
C501 C505 1.393 . S
C502 H494 0.950 . S
C502 C500 1.391 . S
C502 C503 1.400 . S
C503 C502 1.400 . S
C503 C504 1.398 . S
C503 C509 1.491 . S
C504 H495 0.950 . S
C504 C503 1.398 . S
C504 C505 1.391 . S
C505 H493 0.950 . S
C505 C501 1.393 . S
C505 C504 1.391 . S
C506 H496 0.950 . S
C506 C507 1.386 . S
C506 C508 1.391 . S
C507 C506 1.386 . S
C507 C511 1.393 . S
C508 H497 0.950 . S
C508 C506 1.391 . S
C508 C509 1.400 . S
C509 C503 1.491 . S
C509 C508 1.400 . S
C509 C510 1.398 . S
C510 H498 0.950 . S
C510 C509 1.398 . S
C510 C511 1.391 . S
C511 H499 0.950 . S
C511 C507 1.393 . S
C511 C510 1.391 . S
H512 C520 0.950 . S
H513 C525 0.950 . S
H514 C522 0.950 . S
H515 C524 0.950 . S
H516 C526 0.950 . S
H517 C528 0.950 . S
H518 C530 0.950 . S
H519 C531 0.950 . S
C520 H512 0.950 . S
C520 C521 1.386 . S
C520 C522 1.391 . S
C521 C520 1.386 . S
C521 C525 1.393 . S
C522 H514 0.950 . S
C522 C520 1.391 . S
C522 C523 1.400 . S
C523 C522 1.400 . S
C523 C524 1.398 . S
C523 C529 1.455 1_556 S
C524 H515 0.950 . S
C524 C523 1.398 . S
C524 C525 1.391 . S
C525 H513 0.950 . S
C525 C521 1.393 . S
C525 C524 1.391 . S
C526 H516 0.950 . S
C526 C527 1.386 . S
C526 C528 1.391 . S
C527 C526 1.386 . S
C527 C531 1.393 . S
C528 H517 0.950 . S
C528 C526 1.391 . S
C528 C529 1.420 . S
C529 C523 1.455 1_554 S
C529 C528 1.420 . S
C529 C530 1.416 . S
C530 H518 0.950 . S
C530 C529 1.416 . S
C530 C531 1.391 . S
C531 H519 0.950 . S
C531 C527 1.393 . S
C531 C530 1.391 . S
H532 C540 0.950 . S
H533 C545 0.950 . S
H534 C542 0.950 . S
H535 C544 0.950 . S
H536 C546 0.950 . S
H537 C548 0.950 . S
H538 C550 0.950 . S
H539 C551 0.950 . S
C540 H532 0.950 . S
C540 C541 1.386 1_655 S
C540 C542 1.391 . S
C541 C540 1.386 1_455 S
C541 C545 1.393 . S
C542 H534 0.950 . S
C542 C540 1.391 . S
C542 C543 1.400 1_655 S
C543 C542 1.400 1_455 S
C543 C544 1.398 . S
C543 C549 1.491 . S
C544 H535 0.950 . S
C544 C543 1.398 . S
C544 C545 1.391 . S
C545 H533 0.950 . S
C545 C541 1.393 . S
C545 C544 1.391 . S
C546 H536 0.950 . S
C546 C547 1.386 . S
C546 C548 1.391 . S
C547 C546 1.386 . S
C547 C551 1.393 1_455 S
C548 H537 0.950 . S
C548 C546 1.391 . S
C548 C549 1.400 . S
C549 C543 1.491 . S
C549 C548 1.400 . S
C549 C550 1.398 1_455 S
C550 H538 0.950 . S
C550 C549 1.398 1_655 S
C550 C551 1.391 . S
C551 H539 0.950 . S
C551 C547 1.393 1_655 S
C551 C550 1.391 . S
C201 C12 3.219 . S
C207 C186 3.209 . S
C221 C52 3.031 . S
C227 C160 2.954 . S
C241 C111 3.058 . S
C247 C172 2.982 . S
C261 C31 2.875 . S
C267 C184 2.740 . S
C287 C162 2.969 . S
C281 C71 3.017 . S
C307 C174 2.932 . S
C301 C92 2.973 . S
C321 C48 0.587 . S
C327 C136 0.607 . S
C341 C109 0.657 . S
C347 C150 0.667 . S
C361 C29 0.345 . S
C367 C126 0.249 . S
C387 C138 0.248 . S
C381 C69 0.401 . S
C407 C148 0.297 . S
C401 C88 0.151 . S
C421 C8 0.422 . S
C427 C124 0.398 . S
C447 C153 1.220 . S
C441 C17 1.177 . S
C461 C57 1.199 . S
C467 C129 1.215 . S
C481 C97 1.237 . S
C487 C141 1.236 . S
C507 C177 1.736 . S
C501 C42 1.699 . S
C527 C189 1.800 . S
C521 C82 1.759 . S
C541 C2 1.724 . S
C547 C165 1.740 . S
