# Generated by pormake.
# Topology tsx, (6,3)-cn, num edge types: 1
# Building blocks:
#     Node 0, Type 0, BuildingBlock: VOLQOD_clean_sbu_1, # of connection points: 6
#     Node 1, Type 0, BuildingBlock: VOLQOD_clean_sbu_1, # of connection points: 6
#     Node 2, Type 1, BuildingBlock: BETDIP_clean_linker_0, # of connection points: 3
#     Node 3, Type 1, BuildingBlock: BETDIP_clean_linker_0, # of connection points: 3
#     Node 4, Type 1, BuildingBlock: BETDIP_clean_linker_0, # of connection points: 3
#     Node 5, Type 1, BuildingBlock: BETDIP_clean_linker_0, # of connection points: 3
#     Edge 6, Type (0, 1), BuildingBlock: EZIPEK_clean_linker_0, # of connection points: 2
#     Edge 7, Type (0, 1), BuildingBlock: EZIPEK_clean_linker_0, # of connection points: 2
#     Edge 8, Type (0, 1), BuildingBlock: EZIPEK_clean_linker_0, # of connection points: 2
#     Edge 9, Type (0, 1), BuildingBlock: EZIPEK_clean_linker_0, # of connection points: 2
#     Edge 10, Type (0, 1), BuildingBlock: EZIPEK_clean_linker_0, # of connection points: 2
#     Edge 11, Type (0, 1), BuildingBlock: EZIPEK_clean_linker_0, # of connection points: 2
#     Edge 12, Type (0, 1), BuildingBlock: EZIPEK_clean_linker_0, # of connection points: 2
#     Edge 13, Type (0, 1), BuildingBlock: EZIPEK_clean_linker_0, # of connection points: 2
#     Edge 14, Type (0, 1), BuildingBlock: EZIPEK_clean_linker_0, # of connection points: 2
#     Edge 15, Type (0, 1), BuildingBlock: EZIPEK_clean_linker_0, # of connection points: 2
#     Edge 16, Type (0, 1), BuildingBlock: EZIPEK_clean_linker_0, # of connection points: 2
#     Edge 17, Type (0, 1), BuildingBlock: EZIPEK_clean_linker_0, # of connection points: 2
# Relax obj value: 0.058
# Max RMSD: 0.114
# Mean RMSD: 0.103
data_MOF--net-tsx--node1-VOLQOD_clean_sbu_1--node2-BETDIP_clean_linker_0--edge1-EZIPEK_clean_linker_0
_symmetry_space_group_name_H-M    P1
_symmetry_Int_Tables_number       1
_symmetry_cell_setting            triclinic
loop_
_symmetry_equiv_pos_as_xyz
'x, y, z'
_cell_length_a     15.858992
_cell_length_b     16.284405
_cell_length_c     28.010384
_cell_angle_alpha  90.551813
_cell_angle_beta   99.250619
_cell_angle_gamma 90.30314
loop_
_atom_site_label
_atom_site_type_symbol
_atom_site_fract_x
_atom_site_fract_y
_atom_site_fract_z
_atom_type_partial_charge
O0 O 0.04629 0.95658 0.10628 0.0
Zn1 Zn 0.063 0.97704 0.03741 0.0
O2 O 0.95464 -0.00034 -0.00346 0.0
Zn3 Zn 0.92627 0.9134 0.94795 0.0
Zn4 Zn 0.86606 0.00814 0.03651 0.0
Zn5 Zn 0.96219 0.10236 0.96345 0.0
O6 O 0.92032 0.95729 0.88055 0.0
O7 O 0.97351 0.08363 0.89426 0.0
O8 O 0.1226 0.8822 0.01024 0.0
O9 O 0.0222 0.83365 0.95186 0.0
O10 O 0.82074 0.84988 0.95723 0.0
O11 O 0.78893 0.90992 0.02387 0.0
O12 O 0.79412 0.10952 0.02117 0.0
O13 O 0.13958 0.07673 0.04168 0.0
O14 O 0.85687 0.16811 0.9645 0.0
O15 O 0.06337 0.16796 -0.00549 0.0
C16 C 0.98639 0.97852 0.12892 0.0
C17 C 0.94988 0.02363 0.86583 0.0
C18 C 0.77661 0.85405 0.99135 0.0
C19 C 0.09681 0.83071 0.97642 0.0
C20 C 0.79696 0.16489 0.98964 0.0
C21 C 0.12972 0.14836 0.02393 0.0
O22 O 0.9159 0.0065 0.10714 0.0
O23 O 0.59698 0.46988 0.61464 0.0
Zn24 Zn 0.63152 0.48221 0.54865 0.0
O25 O 0.53117 0.50342 0.50081 0.0
Zn26 Zn 0.50552 0.40884 0.45839 0.0
Zn27 Zn 0.43405 0.5251 0.53292 0.0
Zn28 Zn 0.55241 0.59734 0.46277 0.0
O29 O 0.48353 0.44305 0.38913 0.0
O30 O 0.54418 0.56724 0.39242 0.0
O31 O 0.69597 0.38365 0.52855 0.0
O32 O 0.60791 0.33677 0.46392 0.0
O33 O 0.40684 0.34253 0.47486 0.0
O34 O 0.35753 0.42593 0.52717 0.0
O35 O 0.36739 0.62532 0.50543 0.0
O36 O 0.71229 0.57922 0.55353 0.0
O37 O 0.46277 0.68199 0.46563 0.0
O38 O 0.66414 0.65155 0.48788 0.0
C39 C 0.53507 0.50282 0.63163 0.0
C40 C 0.50935 0.50562 0.36859 0.0
C41 C 0.35519 0.35802 0.50411 0.0
C42 C 0.67809 0.3335 0.49307 0.0
C43 C 0.39127 0.68389 0.48067 0.0
C44 C 0.71844 0.63966 0.52576 0.0
O45 O 0.47281 0.5367 0.60462 0.0
H46 H 0.09193 0.95718 0.47718 0.0
H47 H 0.93695 0.0401 0.34842 0.0
H48 H 0.15248 0.89088 0.3369 0.0
H49 H 0.99155 0.165 0.42195 0.0
C50 C 0.94812 0.13097 0.44094 0.0
C51 C 0.0833 0.96144 0.43854 0.0
C52 C 0.14258 0.92736 0.41114 0.0
C53 C 0.0105 0.00301 0.41616 0.0
C54 C -0.00755 0.00694 0.36576 0.0
C55 C 0.04496 0.96683 0.33774 0.0
C56 C 0.11724 0.92523 0.36023 0.0
N57 N 0.9574 0.04454 0.44449 0.0
H58 H 0.01724 0.92238 0.53625 0.0
H59 H 0.08587 0.08082 0.66077 0.0
H60 H 0.91658 0.87623 0.66684 0.0
H61 H 0.07497 0.17507 0.59651 0.0
C62 C 0.117 0.1426 0.57584 0.0
C63 C 0.01519 0.9374 0.5737 0.0
C64 C 0.96289 0.89104 0.59924 0.0
C65 C 0.0591 0.0067 0.59533 0.0
C66 C 0.05218 0.02776 0.64335 0.0
C67 C 0.00175 0.98015 0.66932 0.0
C68 C 0.95778 0.91162 0.64726 0.0
N69 N 0.1064 0.05662 0.56764 0.0
H70 H 0.49102 0.44022 0.96859 0.0
H71 H 0.40995 0.56212 0.83363 0.0
H72 H 0.61647 0.38933 0.84712 0.0
H73 H 0.40503 0.66906 0.89918 0.0
C74 C 0.36416 0.63304 0.91881 0.0
C75 C 0.49727 0.45115 0.93147 0.0
C76 C 0.5601 0.40953 0.91131 0.0
C77 C 0.44405 0.50739 0.90412 0.0
C78 C 0.45276 0.52068 0.85563 0.0
C79 C 0.51481 0.47791 0.835 0.0
C80 C 0.56909 0.42312 0.86312 0.0
N81 N 0.38044 0.54809 0.92543 0.0
H82 H 0.40637 0.43501 0.02295 0.0
H83 H 0.5403 0.56922 0.14553 0.0
H84 H 0.37138 0.37043 0.16652 0.0
H85 H 0.50032 0.67449 0.08201 0.0
C86 C 0.53554 0.64114 0.05786 0.0
C87 C 0.42317 0.44393 0.06155 0.0
C88 C 0.384 0.39482 0.09249 0.0
C89 C 0.47963 0.50697 0.08028 0.0
C90 C 0.49666 0.52073 0.13048 0.0
C91 C 0.45803 0.47133 0.16156 0.0
C92 C 0.40224 0.40802 0.14252 0.0
N93 N 0.51819 0.5565 0.04833 0.0
C94 C 0.27999 0.2015 0.03136 0.0
C95 C 0.19492 0.21201 0.04 0.0
C96 C 0.23197 0.34781 0.0754 0.0
C97 C 0.31895 0.33294 0.0724 0.0
N98 N 0.42863 0.24241 0.05266 0.0
N99 N 0.09299 0.2882 0.07813 0.0
C100 C 0.34391 0.2589 0.05166 0.0
C101 C 0.17154 0.2834 0.06406 0.0
N102 N 0.29899 0.13842 0.0024 0.0
N103 N 0.20673 0.42423 0.08778 0.0
H104 H 0.04727 0.24143 0.07171 0.0
H105 H 0.0762 0.33507 0.1003 0.0
H106 H 0.24905 0.47361 0.09551 0.0
H107 H 0.14288 0.44076 0.08566 0.0
H108 H 0.35773 0.13268 0.99062 0.0
H109 H 0.25354 0.09568 0.98647 0.0
H110 H 0.45111 0.18584 0.04269 0.0
H111 H 0.47726 0.28324 0.067 0.0
C112 C 0.19457 0.71013 0.99166 0.0
C113 C 0.15855 0.77307 0.96054 0.0
C114 C 0.2404 0.72639 0.8985 0.0
C115 C 0.28704 0.67288 0.93241 0.0
N116 N 0.31235 0.61745 0.01332 0.0
N117 N 0.15337 0.84779 0.88596 0.0
C118 C 0.26441 0.66458 0.97938 0.0
C119 C 0.18255 0.78264 0.9142 0.0
N120 N 0.16101 0.69303 0.03249 0.0
N121 N 0.2495 0.72173 0.8508 0.0
H122 H 0.11126 0.89115 0.89598 0.0
H123 H 0.17669 0.86291 0.85446 0.0
H124 H 0.28936 0.67934 0.83756 0.0
H125 H 0.2107 0.75336 0.82357 0.0
H126 H 0.17822 0.64202 0.05395 0.0
H127 H 0.1101 0.72574 0.04252 0.0
H128 H 0.30529 0.61693 0.04965 0.0
H129 H 0.36434 0.58406 0.0062 0.0
C130 C 0.7384 0.71252 0.0139 0.0
C131 C 0.71151 0.79065 -0.00432 0.0
C132 C 0.56464 0.75927 0.00649 0.0
C133 C 0.59439 0.68731 0.03186 0.0
N134 N 0.71122 0.59908 0.06456 0.0
N135 N 0.60016 0.88867 0.97192 0.0
C136 C 0.68132 0.66372 0.03599 0.0
C137 C 0.62456 0.81365 0.99065 0.0
N138 N 0.8191 0.68584 0.01117 0.0
N139 N 0.47899 0.77487 -0.00286 0.0
H140 H 0.64144 0.92677 0.95659 0.0
H141 H 0.5405 0.91439 0.97282 0.0
H142 H 0.4337 0.73701 0.00908 0.0
H143 H 0.45195 0.82147 0.97464 0.0
H144 H 0.83925 0.62602 0.01904 0.0
H145 H 0.86388 0.72106 -0.00313 0.0
H146 H 0.77578 0.58529 0.07371 0.0
H147 H 0.6727 0.56289 0.08281 0.0
C148 C 0.64518 0.2037 0.95927 0.0
C149 C 0.7292 0.22751 0.98072 0.0
C150 C 0.69303 0.37279 0.96764 0.0
C151 C 0.61413 0.34796 0.93994 0.0
N152 N 0.51126 0.24273 0.91008 0.0
N153 N 0.83237 0.3327 0.01018 0.0
C154 C 0.58843 0.26427 0.93672 0.0
C155 C 0.7525 0.31177 0.98683 0.0
N156 N 0.62019 0.12323 0.95982 0.0
N157 N 0.71049 0.45467 0.97541 0.0
H158 H 0.87461 0.28972 0.0279 0.0
H159 H 0.85805 0.39171 0.01153 0.0
H160 H 0.6683 0.50062 0.96137 0.0
H161 H 0.76402 0.47779 -0.00209 0.0
H162 H 0.55753 0.10296 0.94961 0.0
H163 H 0.66086 0.07629 0.9737 0.0
H164 H 0.49226 0.1826 0.90103 0.0
H165 H 0.46663 0.28575 0.8948 0.0
C166 C 0.87141 0.68649 0.54656 0.0
C167 C 0.78289 0.70427 0.54134 0.0
C168 C 0.81556 0.84792 0.56318 0.0
C169 C 0.90333 0.82806 0.57444 0.0
N170 N 0.01611 0.72834 0.58053 0.0
N171 N 0.67014 0.79807 0.55325 0.0
C172 C 0.9319 0.74732 0.56687 0.0
C173 C 0.75467 0.78411 0.55161 0.0
N174 N 0.89742 0.6124 0.53101 0.0
N175 N 0.79045 0.92811 0.56321 0.0
H176 H 0.62307 0.75259 0.54667 0.0
H177 H 0.64765 0.85282 0.56588 0.0
H178 H 0.83339 0.97664 0.57188 0.0
H179 H 0.72842 0.94703 0.55022 0.0
H180 H 0.96092 0.59856 0.5294 0.0
H181 H 0.8546 0.56671 0.51597 0.0
H182 H 0.03949 0.66869 0.581 0.0
H183 H 0.06222 0.77206 0.59428 0.0
C184 C 0.7773 0.21367 0.5112 0.0
C185 C 0.74519 0.27855 0.48036 0.0
C186 C 0.83179 0.2328 0.42043 0.0
C187 C 0.87255 0.17483 0.45372 0.0
N188 N 0.8921 0.11797 0.53407 0.0
N189 N 0.75486 0.36051 0.40998 0.0
C190 C 0.84693 0.16659 0.49988 0.0
C191 C 0.77584 0.29097 0.43609 0.0
N192 N 0.74018 0.19581 0.55068 0.0
N193 N 0.84443 0.23082 0.37327 0.0
H194 H 0.71644 0.40646 0.421 0.0
H195 H 0.78284 0.37669 0.38017 0.0
H196 H 0.88271 0.18724 0.35978 0.0
H197 H 0.80954 0.26643 0.34642 0.0
H198 H 0.75489 0.14363 0.57155 0.0
H199 H 0.68952 0.22957 0.56017 0.0
H200 H 0.88406 0.1188 0.57026 0.0
H201 H 0.94293 0.08237 0.52723 0.0
C202 C 0.32301 0.2216 0.53827 0.0
C203 C 0.29306 0.29483 0.51415 0.0
C204 C 0.14587 0.25954 0.52318 0.0
C205 C 0.17704 0.19121 0.55174 0.0
N206 N 0.29565 0.11278 0.59226 0.0
N207 N 0.17745 0.38405 0.48218 0.0
C208 C 0.26549 0.17264 0.56008 0.0
C209 C 0.20467 0.31355 0.50589 0.0
N210 N 0.40687 0.19966 0.54148 0.0
N211 N 0.05976 0.27184 0.51197 0.0
H212 H 0.21751 0.42106 0.46529 0.0
H213 H 0.11623 0.40773 0.48032 0.0
H214 H 0.01507 0.23542 0.52545 0.0
H215 H 0.03162 0.31445 0.48701 0.0
H216 H 0.42976 0.14202 0.55269 0.0
H217 H 0.45332 0.23642 0.52986 0.0
H218 H 0.36022 0.10281 0.60451 0.0
H219 H 0.25649 0.07713 0.61043 0.0
C220 C 0.32517 0.7816 0.41706 0.0
C221 C 0.3339 0.7543 0.4657 0.0
C222 C 0.24776 0.8722 0.48433 0.0
C223 C 0.22572 0.88686 0.43401 0.0
N224 N 0.30395 0.90211 0.36781 0.0
N225 N 0.30904 0.77982 0.5477 0.0
C226 C 0.28275 0.85591 0.40451 0.0
C227 C 0.29663 0.80124 0.50009 0.0
N228 N 0.35266 0.73507 0.38181 0.0
N229 N 0.23801 0.9336 0.51639 0.0
H230 H 0.35108 0.734 0.5619 0.0
H231 H 0.27456 0.80578 0.57266 0.0
H232 H 0.22194 0.99296 0.50454 0.0
H233 H 0.25888 0.92994 0.5535 0.0
H234 H 0.34117 0.75161 0.34545 0.0
H235 H 0.37749 0.67628 0.3877 0.0
H236 H 0.35122 0.88473 0.34785 0.0
H237 H 0.28119 0.96186 0.36187 0.0
C238 C 0.95806 0.91489 0.20596 0.0
C239 C 0.00063 0.97545 0.18232 0.0
C240 C 0.06497 0.03496 0.26061 0.0
C241 C 0.02703 0.97113 0.2842 0.0
N242 N 0.94499 0.84573 0.28094 0.0
N243 N 0.09946 0.08935 0.18564 0.0
C244 C 0.97535 0.90989 0.25731 0.0
C245 C 0.05564 0.03438 0.20925 0.0
N246 N 0.90067 0.86268 0.17924 0.0
N247 N 0.10815 0.09721 0.28744 0.0
H248 H 0.09057 0.09429 0.14807 0.0
H249 H 0.14822 0.12732 0.20287 0.0
H250 H 0.11809 0.09868 0.32516 0.0
H251 H 0.12933 0.15039 0.27268 0.0
H252 H 0.8602 0.8234 0.19415 0.0
H253 H 0.88973 0.86165 0.14151 0.0
H254 H 0.91512 0.79407 0.26358 0.0
H255 H 0.95425 0.84154 0.31856 0.0
C256 C 0.04901 0.01817 0.80519 0.0
C257 C 0.96466 0.02732 0.81528 0.0
C258 C 0.90948 0.02776 0.72862 0.0
C259 C 0.99119 0.00359 0.71923 0.0
N260 N 0.13726 0.96623 0.74902 0.0
N261 N 0.81341 0.03944 0.78748 0.0
C262 C 0.061 0.99719 0.75754 0.0
C263 C 0.89442 0.03199 0.77719 0.0
N264 N 0.11772 0.02912 0.84101 0.0
N265 N 0.84726 0.04866 0.69113 0.0
H266 H 0.80067 0.04749 0.82263 0.0
H267 H 0.75877 0.03337 0.76152 0.0
H268 H 0.8572 0.04839 0.6552 0.0
H269 H 0.7889 0.07378 0.69587 0.0
H270 H 0.18044 0.03198 0.83437 0.0
H271 H 0.11217 0.04198 0.87687 0.0
H272 H 0.18704 0.95136 0.77651 0.0
H273 H 0.14853 0.94847 0.71476 0.0
C274 C 0.47374 0.43858 0.69915 0.0
C275 C 0.53131 0.49595 0.68378 0.0
C276 C 0.5735 0.54578 0.76718 0.0
C277 C 0.51924 0.48559 0.7828 0.0
N278 N 0.42507 0.36849 0.76591 0.0
N279 N 0.64249 0.59821 0.70211 0.0
C280 C 0.47121 0.43033 0.74937 0.0
C281 C 0.58327 0.54781 0.71755 0.0
N282 N 0.42093 0.39252 0.66558 0.0
N283 N 0.61404 0.60196 0.79975 0.0
H284 H 0.649 0.60352 0.6658 0.0
H285 H 0.68872 0.63119 0.72524 0.0
H286 H 0.60979 0.60089 0.83652 0.0
H287 H 0.64748 0.65278 0.79024 0.0
H288 H 0.37026 0.35716 0.67355 0.0
H289 H 0.42465 0.39265 0.62874 0.0
H290 H 0.3969 0.32019 0.74439 0.0
H291 H 0.41899 0.36221 0.80223 0.0
C292 C 0.41683 0.52063 0.28824 0.0
C293 C 0.4986 0.50594 0.31544 0.0
C294 C 0.55442 0.46879 0.24178 0.0
C295 C 0.47378 0.48729 0.2143 0.0
N296 N 0.33468 0.54887 0.20954 0.0
N297 N 0.64959 0.4841 0.31815 0.0
C298 C 0.40677 0.51871 0.237 0.0
C299 C 0.56896 0.48607 0.29217 0.0
N300 N 0.34859 0.53492 0.31136 0.0
N301 N 0.61562 0.43112 0.22022 0.0
H302 H 0.66246 0.49621 0.35522 0.0
H303 H 0.70439 0.47795 0.30237 0.0
H304 H 0.60722 0.41673 0.18339 0.0
H305 H 0.67196 0.40785 0.23943 0.0
H306 H 0.2857 0.53673 0.29359 0.0
H307 H 0.35409 0.53962 0.3489 0.0
H308 H 0.28726 0.57994 0.22402 0.0
H309 H 0.32586 0.54978 0.17183 0.0
loop_
_geom_bond_atom_site_label_1
_geom_bond_atom_site_label_2
_geom_bond_distance
_geom_bond_site_symmetry_2
_ccdc_geom_bond_type
O0 Zn1 1.953 . S
O0 C16 1.225 1_565 S
Zn1 O0 1.953 . S
Zn1 O2 1.949 1_565 S
Zn1 O8 1.919 . S
Zn1 O13 1.924 1_565 S
O2 Zn1 1.949 1_545 S
O2 Zn3 1.923 1_444 S
O2 Zn4 1.950 1_455 S
O2 Zn5 1.945 1_554 S
Zn3 O2 1.923 1_666 S
Zn3 O6 1.933 . S
Zn3 O9 1.941 1_655 S
Zn3 O10 1.965 . S
Zn4 O2 1.950 1_655 S
Zn4 O11 1.938 1_545 S
Zn4 O12 1.906 . S
Zn4 O22 1.953 . S
Zn5 O2 1.945 1_556 S
Zn5 O7 1.932 . S
Zn5 O14 1.977 1_455 S
Zn5 O15 1.910 . S
O6 Zn3 1.933 . S
O6 C17 1.226 1_565 S
O7 Zn5 1.932 . S
O7 C17 1.307 1_455 S
O8 Zn1 1.919 . S
O8 C19 1.254 . S
O9 Zn3 1.941 1_455 S
O9 C19 1.283 1_556 S
O10 Zn3 1.965 . S
O10 C18 1.303 1_556 S
O11 Zn4 1.938 1_565 S
O11 C18 1.247 . S
O12 Zn4 1.906 . S
O12 C20 1.304 1_554 S
O13 Zn1 1.924 1_545 S
O13 C21 1.311 . S
O14 Zn5 1.977 1_655 S
O14 C20 1.272 . S
O15 Zn5 1.910 . S
O15 C21 1.231 1_556 S
C16 O0 1.225 1_545 S
C16 O22 1.298 1_455 S
C17 O6 1.226 1_545 S
C17 O7 1.307 1_655 S
C18 O10 1.303 1_554 S
C18 O11 1.247 . S
C19 O8 1.254 . S
C19 O9 1.283 1_554 S
C20 O12 1.304 1_556 S
C20 O14 1.272 . S
C21 O13 1.311 . S
C21 O15 1.231 1_554 S
O22 Zn4 1.953 . S
O22 C16 1.298 1_655 S
O23 Zn24 1.953 . S
O23 C39 1.225 . S
Zn24 O23 1.953 . S
Zn24 O25 1.949 . S
Zn24 O31 1.919 . S
Zn24 O36 1.924 . S
O25 Zn24 1.949 . S
O25 Zn26 1.923 . S
O25 Zn27 1.950 . S
O25 Zn28 1.945 . S
Zn26 O25 1.923 . S
Zn26 O29 1.933 . S
Zn26 O32 1.941 . S
Zn26 O33 1.965 . S
Zn27 O25 1.950 . S
Zn27 O34 1.938 . S
Zn27 O35 1.906 . S
Zn27 O45 1.953 . S
Zn28 O25 1.945 . S
Zn28 O30 1.932 . S
Zn28 O37 1.977 . S
Zn28 O38 1.910 . S
O29 Zn26 1.933 . S
O29 C40 1.226 . S
O30 Zn28 1.932 . S
O30 C40 1.307 . S
O31 Zn24 1.919 . S
O31 C42 1.253 . S
O32 Zn26 1.941 . S
O32 C42 1.283 . S
O33 Zn26 1.965 . S
O33 C41 1.303 . S
O34 Zn27 1.938 . S
O34 C41 1.247 . S
O35 Zn27 1.906 . S
O35 C43 1.304 . S
O36 Zn24 1.924 . S
O36 C44 1.311 . S
O37 Zn28 1.977 . S
O37 C43 1.272 . S
O38 Zn28 1.910 . S
O38 C44 1.231 . S
C39 O23 1.225 . S
C39 O45 1.298 . S
C40 O29 1.226 . S
C40 O30 1.307 . S
C41 O33 1.303 . S
C41 O34 1.247 . S
C42 O31 1.253 . S
C42 O32 1.283 . S
C43 O35 1.304 . S
C43 O37 1.272 . S
C44 O36 1.311 . S
C44 O38 1.231 . S
O45 Zn27 1.953 . S
O45 C39 1.298 . S
H46 C51 0.930 . S
H47 C54 0.930 . S
H48 C56 0.930 . S
H49 C50 1.016 . S
C50 H49 1.016 . S
C50 N57 1.286 . S
C51 H46 0.930 . S
C51 C52 1.397 . S
C51 C53 1.361 1_465 S
C52 C51 1.397 . S
C52 C56 1.390 . S
C53 C51 1.361 1_645 S
C53 C54 1.393 . S
C53 N57 1.413 . S
C54 H47 0.930 . S
C54 C53 1.393 . S
C54 C55 1.399 1_645 S
C55 C54 1.399 1_465 S
C55 C56 1.381 . S
C56 H48 0.930 . S
C56 C52 1.390 . S
C56 C55 1.381 . S
N57 C50 1.286 . S
N57 C53 1.413 . S
H58 C63 0.930 . S
H59 C66 0.930 . S
H60 C68 0.930 . S
H61 C62 1.016 . S
C62 H61 1.016 . S
C62 N69 1.286 . S
C63 H58 0.930 . S
C63 C64 1.397 . S
C63 C65 1.361 1_665 S
C64 C63 1.397 . S
C64 C68 1.390 . S
C65 C63 1.361 1_445 S
C65 C66 1.393 . S
C65 N69 1.413 . S
C66 H59 0.930 . S
C66 C65 1.393 . S
C66 C67 1.399 1_445 S
C67 C66 1.399 1_665 S
C67 C68 1.381 . S
C68 H60 0.930 . S
C68 C64 1.390 . S
C68 C67 1.381 . S
N69 C62 1.286 . S
N69 C65 1.413 . S
H70 C75 0.930 . S
H71 C78 0.930 . S
H72 C80 0.930 . S
H73 C74 1.016 . S
C74 H73 1.016 . S
C74 N81 1.286 . S
C75 H70 0.930 . S
C75 C76 1.397 . S
C75 C77 1.361 . S
C76 C75 1.397 . S
C76 C80 1.390 . S
C77 C75 1.361 . S
C77 C78 1.393 . S
C77 N81 1.413 . S
C78 H71 0.930 . S
C78 C77 1.393 . S
C78 C79 1.399 . S
C79 C78 1.399 . S
C79 C80 1.381 . S
C80 H72 0.930 . S
C80 C76 1.390 . S
C80 C79 1.381 . S
N81 C74 1.286 . S
N81 C77 1.413 . S
H82 C87 0.930 . S
H83 C90 0.930 . S
H84 C92 0.930 . S
H85 C86 1.016 . S
C86 H85 1.016 . S
C86 N93 1.286 . S
C87 H82 0.930 . S
C87 C88 1.397 . S
C87 C89 1.361 . S
C88 C87 1.397 . S
C88 C92 1.390 . S
C89 C87 1.361 . S
C89 C90 1.393 . S
C89 N93 1.413 . S
C90 H83 0.930 . S
C90 C89 1.393 . S
C90 C91 1.399 . S
C91 C90 1.399 . S
C91 C92 1.381 . S
C92 H84 0.930 . S
C92 C88 1.390 . S
C92 C91 1.381 . S
N93 C86 1.286 . S
N93 C89 1.413 . S
C94 C95 1.363 . S
C94 C100 1.379 . S
C94 N102 1.356 1_554 S
C95 C94 1.363 . S
C95 C101 1.363 . S
C96 C97 1.363 . S
C96 C101 1.379 . S
C96 N103 1.356 . S
C97 C96 1.363 . S
C97 C100 1.363 . S
N98 C100 1.356 . S
N98 H110 0.984 1_554 S
N98 H111 0.985 . S
N99 C101 1.356 . S
N99 H104 0.984 . S
N99 H105 0.985 . S
C100 C94 1.379 . S
C100 C97 1.363 . S
C100 N98 1.356 . S
C101 C95 1.363 . S
C101 C96 1.379 . S
C101 N99 1.356 . S
N102 C94 1.356 1_556 S
N102 H108 0.984 . S
N102 H109 0.984 . S
N103 C96 1.356 . S
N103 H106 0.984 . S
N103 H107 0.985 . S
H104 N99 0.984 . S
H105 N99 0.985 . S
H106 N103 0.984 . S
H107 N103 0.985 . S
H108 N102 0.984 . S
H109 N102 0.984 . S
H110 N98 0.984 1_556 S
H111 N98 0.985 . S
C112 C113 1.363 1_554 S
C112 C118 1.379 . S
C112 N120 1.356 . S
C113 C112 1.363 1_556 S
C113 C119 1.363 . S
C114 C115 1.363 . S
C114 C119 1.379 . S
C114 N121 1.356 . S
C115 C114 1.363 . S
C115 C118 1.363 1_556 S
N116 C118 1.356 . S
N116 H128 0.984 . S
N116 H129 0.985 . S
N117 C119 1.356 . S
N117 H122 0.984 . S
N117 H123 0.985 . S
C118 C112 1.379 . S
C118 C115 1.363 1_554 S
C118 N116 1.356 . S
C119 C113 1.363 . S
C119 C114 1.379 . S
C119 N117 1.356 . S
N120 C112 1.356 . S
N120 H126 0.984 . S
N120 H127 0.984 . S
N121 C114 1.356 . S
N121 H124 0.984 . S
N121 H125 0.985 . S
H122 N117 0.984 . S
H123 N117 0.985 . S
H124 N121 0.984 . S
H125 N121 0.985 . S
H126 N120 0.984 . S
H127 N120 0.984 . S
H128 N116 0.984 . S
H129 N116 0.985 . S
C130 C131 1.363 . S
C130 C136 1.379 . S
C130 N138 1.356 . S
C131 C130 1.363 . S
C131 C137 1.363 1_554 S
C132 C133 1.363 . S
C132 C137 1.379 1_554 S
C132 N139 1.356 1_554 S
C133 C132 1.363 . S
C133 C136 1.363 . S
N134 C136 1.356 . S
N134 H146 0.984 . S
N134 H147 0.985 . S
N135 C137 1.356 . S
N135 H140 0.984 . S
N135 H141 0.985 . S
C136 C130 1.379 . S
C136 C133 1.363 . S
C136 N134 1.356 . S
C137 C131 1.363 1_556 S
C137 C132 1.379 1_556 S
C137 N135 1.356 . S
N138 C130 1.356 . S
N138 H144 0.984 . S
N138 H145 0.984 . S
N139 C132 1.356 1_556 S
N139 H142 0.984 . S
N139 H143 0.985 . S
H140 N135 0.984 . S
H141 N135 0.985 . S
H142 N139 0.984 . S
H143 N139 0.985 . S
H144 N138 0.984 . S
H145 N138 0.984 . S
H146 N134 0.984 . S
H147 N134 0.985 . S
C148 C149 1.363 . S
C148 C154 1.379 . S
C148 N156 1.356 1_556 S
C149 C148 1.363 . S
C149 C155 1.363 . S
C150 C151 1.363 . S
C150 C155 1.379 . S
C150 N157 1.356 . S
C151 C150 1.363 . S
C151 C154 1.363 . S
N152 C154 1.356 . S
N152 H164 0.984 1_556 S
N152 H165 0.985 . S
N153 C155 1.356 . S
N153 H158 0.984 . S
N153 H159 0.985 . S
C154 C148 1.379 . S
C154 C151 1.363 . S
C154 N152 1.356 . S
C155 C149 1.363 . S
C155 C150 1.379 . S
C155 N153 1.356 . S
N156 C148 1.356 1_554 S
N156 H162 0.984 . S
N156 H163 0.984 . S
N157 C150 1.356 . S
N157 H160 0.984 . S
N157 H161 0.985 . S
H158 N153 0.984 . S
H159 N153 0.985 . S
H160 N157 0.984 . S
H161 N157 0.985 . S
H162 N156 0.984 . S
H163 N156 0.984 . S
H164 N152 0.984 1_554 S
H165 N152 0.985 . S
C166 C167 1.363 . S
C166 C172 1.379 . S
C166 N174 1.356 . S
C167 C166 1.363 . S
C167 C173 1.363 . S
C168 C169 1.363 . S
C168 C173 1.379 . S
C168 N175 1.356 . S
C169 C168 1.363 . S
C169 C172 1.363 . S
N170 C172 1.356 . S
N170 H182 0.984 . S
N170 H183 0.985 . S
N171 C173 1.356 . S
N171 H176 0.984 . S
N171 H177 0.985 . S
C172 C166 1.379 . S
C172 C169 1.363 . S
C172 N170 1.356 . S
C173 C167 1.363 . S
C173 C168 1.379 . S
C173 N171 1.356 . S
N174 C166 1.356 . S
N174 H180 0.984 . S
N174 H181 0.984 . S
N175 C168 1.356 . S
N175 H178 0.984 . S
N175 H179 0.985 . S
H176 N171 0.984 . S
H177 N171 0.985 . S
H178 N175 0.984 . S
H179 N175 0.985 . S
H180 N174 0.984 . S
H181 N174 0.984 . S
H182 N170 0.984 . S
H183 N170 0.985 . S
C184 C185 1.363 . S
C184 C190 1.379 . S
C184 N192 1.356 . S
C185 C184 1.363 . S
C185 C191 1.363 . S
C186 C187 1.363 . S
C186 C191 1.379 . S
C186 N193 1.356 . S
C187 C186 1.363 . S
C187 C190 1.363 . S
N188 C190 1.356 . S
N188 H200 0.984 . S
N188 H201 0.985 . S
N189 C191 1.356 . S
N189 H194 0.984 . S
N189 H195 0.985 . S
C190 C184 1.379 . S
C190 C187 1.363 . S
C190 N188 1.356 . S
C191 C185 1.363 . S
C191 C186 1.379 . S
C191 N189 1.356 . S
N192 C184 1.356 . S
N192 H198 0.984 . S
N192 H199 0.984 . S
N193 C186 1.356 . S
N193 H196 0.984 . S
N193 H197 0.985 . S
H194 N189 0.984 . S
H195 N189 0.985 . S
H196 N193 0.984 . S
H197 N193 0.985 . S
H198 N192 0.984 . S
H199 N192 0.984 . S
H200 N188 0.984 . S
H201 N188 0.985 . S
C202 C203 1.363 . S
C202 C208 1.379 . S
C202 N210 1.356 . S
C203 C202 1.363 . S
C203 C209 1.363 . S
C204 C205 1.363 . S
C204 C209 1.379 . S
C204 N211 1.356 . S
C205 C204 1.363 . S
C205 C208 1.363 . S
N206 C208 1.356 . S
N206 H218 0.984 . S
N206 H219 0.985 . S
N207 C209 1.356 . S
N207 H212 0.984 . S
N207 H213 0.985 . S
C208 C202 1.379 . S
C208 C205 1.363 . S
C208 N206 1.356 . S
C209 C203 1.363 . S
C209 C204 1.379 . S
C209 N207 1.356 . S
N210 C202 1.356 . S
N210 H216 0.984 . S
N210 H217 0.984 . S
N211 C204 1.356 . S
N211 H214 0.984 . S
N211 H215 0.985 . S
H212 N207 0.984 . S
H213 N207 0.985 . S
H214 N211 0.984 . S
H215 N211 0.985 . S
H216 N210 0.984 . S
H217 N210 0.984 . S
H218 N206 0.984 . S
H219 N206 0.985 . S
C220 C221 1.363 . S
C220 C226 1.379 . S
C220 N228 1.356 . S
C221 C220 1.363 . S
C221 C227 1.363 . S
C222 C223 1.363 . S
C222 C227 1.379 . S
C222 N229 1.356 . S
C223 C222 1.363 . S
C223 C226 1.363 . S
N224 C226 1.356 . S
N224 H236 0.984 . S
N224 H237 0.985 . S
N225 C227 1.356 . S
N225 H230 0.984 . S
N225 H231 0.985 . S
C226 C220 1.379 . S
C226 C223 1.363 . S
C226 N224 1.356 . S
C227 C221 1.363 . S
C227 C222 1.379 . S
C227 N225 1.356 . S
N228 C220 1.356 . S
N228 H234 0.984 . S
N228 H235 0.984 . S
N229 C222 1.356 . S
N229 H232 0.984 . S
N229 H233 0.985 . S
H230 N225 0.984 . S
H231 N225 0.985 . S
H232 N229 0.984 . S
H233 N229 0.985 . S
H234 N228 0.984 . S
H235 N228 0.984 . S
H236 N224 0.984 . S
H237 N224 0.985 . S
C238 C239 1.363 1_665 S
C238 C244 1.379 . S
C238 N246 1.356 . S
C239 C238 1.363 1_445 S
C239 C245 1.363 . S
C240 C241 1.363 1_545 S
C240 C245 1.379 . S
C240 N247 1.356 . S
C241 C240 1.363 1_565 S
C241 C244 1.363 1_455 S
N242 C244 1.356 . S
N242 H254 0.984 . S
N242 H255 0.985 . S
N243 C245 1.356 . S
N243 H248 0.984 . S
N243 H249 0.985 . S
C244 C238 1.379 . S
C244 C241 1.363 1_655 S
C244 N242 1.356 . S
C245 C239 1.363 . S
C245 C240 1.379 . S
C245 N243 1.356 . S
N246 C238 1.356 . S
N246 H252 0.984 . S
N246 H253 0.984 . S
N247 C240 1.356 . S
N247 H250 0.984 . S
N247 H251 0.985 . S
H248 N243 0.984 . S
H249 N243 0.985 . S
H250 N247 0.984 . S
H251 N247 0.985 . S
H252 N246 0.984 . S
H253 N246 0.984 . S
H254 N242 0.984 . S
H255 N242 0.985 . S
C256 C257 1.363 1_465 S
C256 C262 1.379 . S
C256 N264 1.356 . S
C257 C256 1.363 1_645 S
C257 C263 1.363 . S
C258 C259 1.363 1_545 S
C258 C263 1.379 . S
C258 N265 1.356 . S
C259 C258 1.363 1_565 S
C259 C262 1.363 1_655 S
N260 C262 1.356 . S
N260 H272 0.984 . S
N260 H273 0.985 . S
N261 C263 1.356 . S
N261 H266 0.984 . S
N261 H267 0.985 . S
C262 C256 1.379 . S
C262 C259 1.363 1_455 S
C262 N260 1.356 . S
C263 C257 1.363 . S
C263 C258 1.379 . S
C263 N261 1.356 . S
N264 C256 1.356 . S
N264 H270 0.984 . S
N264 H271 0.984 . S
N265 C258 1.356 . S
N265 H268 0.984 . S
N265 H269 0.985 . S
H266 N261 0.984 . S
H267 N261 0.985 . S
H268 N265 0.984 . S
H269 N265 0.985 . S
H270 N264 0.984 . S
H271 N264 0.984 . S
H272 N260 0.984 . S
H273 N260 0.985 . S
C274 C275 1.363 . S
C274 C280 1.379 . S
C274 N282 1.356 . S
C275 C274 1.363 . S
C275 C281 1.363 . S
C276 C277 1.363 . S
C276 C281 1.379 . S
C276 N283 1.356 . S
C277 C276 1.363 . S
C277 C280 1.363 . S
N278 C280 1.356 . S
N278 H290 0.984 . S
N278 H291 0.985 . S
N279 C281 1.356 . S
N279 H284 0.984 . S
N279 H285 0.985 . S
C280 C274 1.379 . S
C280 C277 1.363 . S
C280 N278 1.356 . S
C281 C275 1.363 . S
C281 C276 1.379 . S
C281 N279 1.356 . S
N282 C274 1.356 . S
N282 H288 0.984 . S
N282 H289 0.984 . S
N283 C276 1.356 . S
N283 H286 0.984 . S
N283 H287 0.985 . S
H284 N279 0.984 . S
H285 N279 0.985 . S
H286 N283 0.984 . S
H287 N283 0.985 . S
H288 N282 0.984 . S
H289 N282 0.984 . S
H290 N278 0.984 . S
H291 N278 0.985 . S
C292 C293 1.363 . S
C292 C298 1.379 . S
C292 N300 1.356 . S
C293 C292 1.363 . S
C293 C299 1.363 . S
C294 C295 1.363 . S
C294 C299 1.379 . S
C294 N301 1.356 . S
C295 C294 1.363 . S
C295 C298 1.363 . S
N296 C298 1.356 . S
N296 H308 0.984 . S
N296 H309 0.985 . S
N297 C299 1.356 . S
N297 H302 0.984 . S
N297 H303 0.985 . S
C298 C292 1.379 . S
C298 C295 1.363 . S
C298 N296 1.356 . S
C299 C293 1.363 . S
C299 C294 1.379 . S
C299 N297 1.356 . S
N300 C292 1.356 . S
N300 H306 0.984 . S
N300 H307 0.984 . S
N301 C294 1.356 . S
N301 H304 0.984 . S
N301 H305 0.985 . S
H302 N297 0.984 . S
H303 N297 0.985 . S
H304 N301 0.984 . S
H305 N301 0.985 . S
H306 N300 0.984 . S
H307 N300 0.984 . S
H308 N296 0.984 . S
H309 N296 0.985 . S
C97 C88 1.514 . S
C95 C21 1.514 . S
C113 C19 1.443 1_556 S
C115 C74 1.417 . S
C131 C18 1.412 . S
C133 C86 1.401 . S
C149 C20 1.500 . S
C151 C76 1.506 . S
C167 C44 1.514 . S
C169 C64 1.514 . S
C185 C42 1.443 . S
C187 C50 1.417 . S
C205 C62 1.401 . S
C203 C41 1.412 . S
C223 C52 1.506 . S
C221 C43 1.500 . S
C239 C16 1.532 . S
C241 C55 1.530 . S
C257 C17 1.500 . S
C259 C67 1.497 . S
C277 C79 1.530 . S
C275 C39 1.532 . S
C293 C40 1.500 . S
C295 C91 1.497 . S
