# Generated by pormake.
# Topology anh, (6,3)-cn, num edge types: 1
# Building blocks:
#     Node 0, Type 0, BuildingBlock: PAMTOO_clean_sbu_0, # of connection points: 6
#     Node 1, Type 0, BuildingBlock: PAMTOO_clean_sbu_0, # of connection points: 6
#     Node 2, Type 0, BuildingBlock: PAMTOO_clean_sbu_0, # of connection points: 6
#     Node 3, Type 1, BuildingBlock: BELTOD_clean_linker_0, # of connection points: 3
#     Node 4, Type 1, BuildingBlock: BELTOD_clean_linker_0, # of connection points: 3
#     Node 5, Type 1, BuildingBlock: BELTOD_clean_linker_0, # of connection points: 3
#     Node 6, Type 1, BuildingBlock: BELTOD_clean_linker_0, # of connection points: 3
#     Node 7, Type 1, BuildingBlock: BELTOD_clean_linker_0, # of connection points: 3
#     Node 8, Type 1, BuildingBlock: BELTOD_clean_linker_0, # of connection points: 3
#     Edge 9, Type (0, 1), BuildingBlock: XUDNAN_clean_linker_2, # of connection points: 2
#     Edge 10, Type (0, 1), BuildingBlock: XUDNAN_clean_linker_2, # of connection points: 2
#     Edge 11, Type (0, 1), BuildingBlock: XUDNAN_clean_linker_2, # of connection points: 2
#     Edge 12, Type (0, 1), BuildingBlock: XUDNAN_clean_linker_2, # of connection points: 2
#     Edge 13, Type (0, 1), BuildingBlock: XUDNAN_clean_linker_2, # of connection points: 2
#     Edge 14, Type (0, 1), BuildingBlock: XUDNAN_clean_linker_2, # of connection points: 2
#     Edge 15, Type (0, 1), BuildingBlock: XUDNAN_clean_linker_2, # of connection points: 2
#     Edge 16, Type (0, 1), BuildingBlock: XUDNAN_clean_linker_2, # of connection points: 2
#     Edge 17, Type (0, 1), BuildingBlock: XUDNAN_clean_linker_2, # of connection points: 2
#     Edge 18, Type (0, 1), BuildingBlock: XUDNAN_clean_linker_2, # of connection points: 2
#     Edge 19, Type (0, 1), BuildingBlock: XUDNAN_clean_linker_2, # of connection points: 2
#     Edge 20, Type (0, 1), BuildingBlock: XUDNAN_clean_linker_2, # of connection points: 2
#     Edge 21, Type (0, 1), BuildingBlock: XUDNAN_clean_linker_2, # of connection points: 2
#     Edge 22, Type (0, 1), BuildingBlock: XUDNAN_clean_linker_2, # of connection points: 2
#     Edge 23, Type (0, 1), BuildingBlock: XUDNAN_clean_linker_2, # of connection points: 2
#     Edge 24, Type (0, 1), BuildingBlock: XUDNAN_clean_linker_2, # of connection points: 2
#     Edge 25, Type (0, 1), BuildingBlock: XUDNAN_clean_linker_2, # of connection points: 2
#     Edge 26, Type (0, 1), BuildingBlock: XUDNAN_clean_linker_2, # of connection points: 2
# Relax obj value: 0.178
# Max RMSD: 0.192
# Mean RMSD: 0.149
data_MOF--net-anh--node1-PAMTOO_clean_sbu_0--node2-BELTOD_clean_linker_0--edge1-XUDNAN_clean_linker_2
_symmetry_space_group_name_H-M    P1
_symmetry_Int_Tables_number       1
_symmetry_cell_setting            triclinic
loop_
_symmetry_equiv_pos_as_xyz
'x, y, z'
_cell_length_a     34.390444
_cell_length_b     33.006968
_cell_length_c     61.509479
_cell_angle_alpha  91.517101
_cell_angle_beta   94.683343
_cell_angle_gamma 105.08053
loop_
_atom_site_label
_atom_site_type_symbol
_atom_site_fract_x
_atom_site_fract_y
_atom_site_fract_z
_atom_type_partial_charge
Dy0 Dy 1.05581 0.6187 0.1433 0.0
Dy1 Dy 1.02874 0.51622 0.13724 0.0
C2 C 1.03188 0.57363 0.09725 0.0
O3 O 0.99069 0.60128 0.15105 0.0
O4 O 0.96968 0.53517 0.13448 0.0
O5 O 0.07894 0.67837 0.12927 0.0
O6 O 0.06346 0.67627 0.16279 0.0
O7 O 1.02794 0.53364 0.17269 0.0
O8 O 0.07822 0.59418 0.17367 0.0
O9 O 0.09747 0.53094 0.13945 0.0
O10 O 0.11151 0.60166 0.13345 0.0
O11 O 1.02753 0.45501 0.1494 0.0
O12 O 0.99496 0.46018 0.11841 0.0
C13 C 0.96137 0.5685 0.14326 0.0
O14 O 1.02224 0.59999 0.11069 0.0
O15 O 1.04488 0.54227 0.10482 0.0
C16 C 0.11872 0.73107 0.15435 0.0
C17 C 0.19222 0.79247 0.16619 0.0
C18 C 0.19216 0.75107 0.15997 0.0
C19 C 0.15574 0.72064 0.15416 0.0
C20 C 0.11851 0.77202 0.16079 0.0
C21 C 0.15488 0.80243 0.16669 0.0
C22 C 0.08025 0.6998 0.14758 0.0
C23 C 1.05632 0.56311 0.18371 0.0
C24 C 0.1233 0.56679 0.13548 0.0
C25 C 0.96354 0.40751 0.14103 0.0
C26 C 0.89183 0.35453 0.15443 0.0
C27 C 0.89831 0.39844 0.15557 0.0
C28 C 0.93384 0.42464 0.14901 0.0
C29 C 0.95744 0.36383 0.13994 0.0
C30 C 0.92192 0.33752 0.14663 0.0
C31 C 1.00061 0.43537 0.13384 0.0
H32 H 0.22028 0.74234 0.15916 0.0
H33 H 0.15649 0.68909 0.14929 0.0
H34 H 0.09019 0.78054 0.16117 0.0
H35 H 0.15369 0.83372 0.17176 0.0
H36 H 0.8761 0.41264 0.16178 0.0
H37 H 0.93813 0.45833 0.15016 0.0
H38 H 0.98003 0.35006 0.13384 0.0
H39 H 0.91772 0.30383 0.14536 0.0
Dy40 Dy 0.53022 0.0112 0.51045 0.0
Dy41 Dy 0.62575 0.05974 0.52556 0.0
C42 C 0.5611 0.03168 0.5603 0.0
O43 O 0.53315 0.0791 0.51765 0.0
O44 O 0.5983 0.10703 0.50975 0.0
O45 O 0.46699 0.99302 0.51644 0.0
O46 O 0.48571 0.97608 0.48548 0.0
O47 O 0.62365 0.03777 0.49091 0.0
O48 O 0.55809 0.03637 0.48017 0.0
O49 O 0.61877 0.99347 0.53508 0.0
O50 O 0.56246 0.96036 0.5121 0.0
O51 O 0.68991 0.06663 0.52502 0.0
O52 O 0.66857 0.11068 0.54437 0.0
C53 C 0.56253 0.11155 0.51335 0.0
O54 O 0.53913 1.00231 0.54631 0.0
O55 O 0.59056 0.06193 0.55423 0.0
C56 C 0.43104 0.92804 0.49864 0.0
C57 C 0.38648 0.84288 0.49613 0.0
C58 C 0.42207 0.85671 0.51036 0.0
C59 C 0.44424 0.89891 0.51155 0.0
C60 C 0.39517 0.91474 0.48488 0.0
C61 C 0.37309 0.8726 0.48361 0.0
C62 C 0.45607 0.97136 0.49788 0.0
C63 C 0.59484 0.03709 0.47549 0.0
C64 C 0.5944 0.95931 0.52516 0.0
C65 C 0.72899 0.13716 0.52822 0.0
C66 C 0.7845 0.20664 0.51268 0.0
C67 C 0.7498 0.18475 0.49932 0.0
C68 C 0.72215 0.15038 0.50708 0.0
C69 C 0.76351 0.15877 0.54155 0.0
C70 C 0.79103 0.19323 0.53387 0.0
C71 C 0.69982 0.1018 0.53682 0.0
H72 H 0.43309 0.83487 0.52041 0.0
H73 H 0.47211 0.90863 0.52215 0.0
H74 H 0.38485 0.93674 0.47461 0.0
H75 H 0.34634 0.86311 0.47217 0.0
H76 H 0.74374 0.19457 0.48301 0.0
H77 H 0.69536 0.13425 0.49664 0.0
H78 H 0.76915 0.14905 0.55793 0.0
H79 H 0.8177 0.20906 0.54445 0.0
Dy80 Dy 0.60371 0.46837 0.84999 0.0
Dy81 Dy 0.5091 0.4374 0.82926 0.0
C82 C 0.5801 0.46876 0.7989 0.0
O83 O 0.58784 0.527 0.83995 0.0
O84 O 0.51823 0.5056 0.83845 0.0
O85 O 0.65135 0.50814 0.87191 0.0
O86 O 0.66444 0.46125 0.85043 0.0
O87 O 0.50705 0.42831 0.86529 0.0
O88 O 0.56879 0.47135 0.8785 0.0
O89 O 0.53574 0.38252 0.82646 0.0
O90 O 0.58145 0.40031 0.85643 0.0
O91 O 0.44553 0.41401 0.83301 0.0
O92 O 0.466 0.42006 0.80071 0.0
C93 C 0.5524 0.53529 0.83944 0.0
O94 O 0.60457 0.45867 0.81401 0.0
O95 O 0.54376 0.47058 0.80291 0.0
C96 C 0.71323 0.52637 0.85673 0.0
C97 C 0.77578 0.59298 0.84455 0.0
C98 C 0.77682 0.57864 0.86588 0.0
C99 C 0.74579 0.5456 0.8719 0.0
C100 C 0.71205 0.54036 0.83537 0.0
C101 C 0.74332 0.57325 0.82926 0.0
C102 C 0.67937 0.49398 0.86381 0.0
C103 C 0.53222 0.44923 0.88151 0.0
C104 C 0.55906 0.37194 0.84205 0.0
C105 C 0.40511 0.4367 0.8062 0.0
C106 C 0.34451 0.47936 0.79928 0.0
C107 C 0.38238 0.49982 0.81027 0.0
C108 C 0.4124 0.47875 0.81357 0.0
C109 C 0.36833 0.41662 0.79433 0.0
C110 C 0.33826 0.43787 0.79078 0.0
C111 C 0.43496 0.4134 0.81216 0.0
H112 H 0.80185 0.5928 0.8779 0.0
H113 H 0.74697 0.53538 0.88848 0.0
H114 H 0.68672 0.52623 0.82353 0.0
H115 H 0.74176 0.58376 0.81276 0.0
H116 H 0.38828 0.53139 0.81743 0.0
H117 H 0.44073 0.49477 0.82272 0.0
H118 H 0.36244 0.38421 0.78838 0.0
H119 H 0.30974 0.42141 0.78195 0.0
P120 P 0.60153 0.01821 0.24083 0.0
H121 H 0.55691 0.93774 0.21927 0.0
H122 H 0.48663 0.90926 0.20504 0.0
H123 H 0.46065 0.02557 0.22456 0.0
H124 H 0.53182 0.05447 0.2381 0.0
H125 H 0.67254 0.08355 0.25834 0.0
H126 H 0.71292 0.14661 0.24298 0.0
H127 H 0.628 0.12472 0.18541 0.0
H128 H 0.58756 0.06175 0.20099 0.0
H129 H 0.62928 0.96758 0.27392 0.0
H130 H 0.57751 0.07339 0.27242 0.0
O131 O 0.62755 0.98494 0.23309 0.0
H132 H 0.63448 0.97176 0.31375 0.0
H133 H 0.58234 0.0775 0.31253 0.0
C134 C 0.5497 0.99839 0.22959 0.0
C135 C 0.53625 0.95733 0.22035 0.0
C136 C 0.49582 0.94086 0.21239 0.0
C137 C 0.46777 0.96496 0.21373 0.0
C138 C 0.48145 0.00625 0.22302 0.0
C139 C 0.52208 0.02277 0.2309 0.0
C140 C 0.62646 0.06852 0.23108 0.0
C141 C 0.66205 0.09286 0.24264 0.0
C142 C 0.6854 0.12865 0.23372 0.0
C143 C 0.67376 0.14066 0.21294 0.0
C144 C 0.63753 0.11667 0.20158 0.0
C145 C 0.6143 0.08069 0.2105 0.0
C146 C 0.60337 0.02044 0.27021 0.0
C147 C 0.61894 0.9917 0.28214 0.0
C148 C 0.62197 0.99415 0.30494 0.0
C149 C 0.6091 0.02516 0.31625 0.0
C150 C 0.59231 0.05316 0.30424 0.0
C151 C 0.58964 0.05091 0.28136 0.0
P152 P 0.63596 0.54865 0.57255 0.0
H153 H 0.66892 0.47708 0.57536 0.0
H154 H 0.64556 0.40455 0.56128 0.0
H155 H 0.53936 0.43102 0.52863 0.0
H156 H 0.563 0.50424 0.5434 0.0
H157 H 0.65068 0.58983 0.53175 0.0
H158 H 0.64332 0.65787 0.51992 0.0
H159 H 0.57377 0.6671 0.57423 0.0
H160 H 0.58166 0.59915 0.58624 0.0
H161 H 0.68214 0.59751 0.61064 0.0
H162 H 0.57424 0.49566 0.59764 0.0
O163 O 0.68582 0.56272 0.57074 0.0
H164 H 0.67854 0.58968 0.64987 0.0
H165 H 0.57064 0.48734 0.63697 0.0
C166 C 0.61814 0.49625 0.56006 0.0
C167 C 0.64086 0.46751 0.5649 0.0
C168 C 0.62749 0.42593 0.55673 0.0
C169 C 0.59079 0.41183 0.54351 0.0
C170 C 0.56776 0.44074 0.53877 0.0
C171 C 0.58131 0.48267 0.54704 0.0
C172 C 0.61712 0.58954 0.55999 0.0
C173 C 0.63264 0.60571 0.54071 0.0
C174 C 0.62858 0.6447 0.53401 0.0
C175 C 0.60835 0.66792 0.5463 0.0
C176 C 0.58938 0.64979 0.56442 0.0
C177 C 0.59394 0.61092 0.57129 0.0
C178 C 0.62906 0.54649 0.60126 0.0
C179 C 0.6575 0.57363 0.61624 0.0
C180 C 0.65548 0.56903 0.63866 0.0
C181 C 0.62472 0.5374 0.64651 0.0
C182 C 0.59472 0.51197 0.63143 0.0
C183 C 0.59688 0.51653 0.60895 0.0
P184 P 0.15979 0.75736 0.8985 0.0
H185 H 0.23789 0.7437 0.88983 0.0
H186 H 0.25654 0.69271 0.86594 0.0
H187 H 0.13086 0.64301 0.84188 0.0
H188 H 0.11244 0.69255 0.86639 0.0
H189 H 0.07779 0.73926 0.91307 0.0
H190 H 1.01343 0.73816 0.8942 0.0
H191 H 0.07306 0.79356 0.83878 0.0
H192 H 0.1387 0.79456 0.85812 0.0
H193 H 0.1534 0.79179 0.94165 0.0
H194 H 0.14621 0.66989 0.91188 0.0
O195 O 0.19571 0.80262 0.90197 0.0
H196 H 0.12727 0.75833 0.97448 0.0
H197 H 0.12095 0.63659 0.94483 0.0
C198 C 0.17398 0.72252 0.87955 0.0
C199 C 0.21451 0.72212 0.8792 0.0
C200 C 0.22509 0.69312 0.86543 0.0
C201 C 0.19518 0.66394 0.85186 0.0
C202 C 0.1546 0.66482 0.85219 0.0
C203 C 0.14409 0.69354 0.86606 0.0
C204 C 0.11335 0.76711 0.88706 0.0
C205 C 0.07766 0.7526 0.89722 0.0
C206 C 1.04047 0.75218 0.88635 0.0
C207 C 1.03801 0.76591 0.86495 0.0
C208 C 0.074 0.78274 0.85524 0.0
C209 C 0.11146 0.78352 0.8663 0.0
C210 C 0.1521 0.73349 0.92438 0.0
C211 C 0.1476 0.75803 0.94246 0.0
C212 C 0.13242 0.7389 0.96111 0.0
C213 C 0.12201 0.69494 0.96205 0.0
C214 C 0.12906 0.67055 0.94451 0.0
C215 C 0.14357 0.68967 0.92569 0.0
P216 P 0.11464 0.45808 0.40789 0.0
H217 H 0.17281 0.46168 0.44568 0.0
H218 H 0.22068 0.52007 0.46678 0.0
H219 H 0.17375 0.60796 0.42862 0.0
H220 H 0.12496 0.54941 0.40835 0.0
H221 H 0.06942 0.37118 0.41225 0.0
H222 H 1.01008 0.33936 0.43099 0.0
H223 H 0.99783 0.46294 0.44841 0.0
H224 H 0.05826 0.4946 0.43001 0.0
H225 H 0.16985 0.50281 0.37832 0.0
H226 H 1.04099 0.45076 0.37774 0.0
O227 O 0.14013 0.42172 0.40566 0.0
H228 H 0.16055 0.52829 0.34189 0.0
H229 H 1.03143 0.47629 0.34104 0.0
C230 C 0.14616 0.50124 0.42507 0.0
C231 C 0.17261 0.49356 0.44204 0.0
C232 C 0.20013 0.52702 0.454 0.0
C233 C 0.20169 0.56885 0.44917 0.0
C234 C 0.17344 0.57627 0.4329 0.0
C235 C 0.14571 0.54275 0.4211 0.0
C236 C 0.06866 0.43522 0.42013 0.0
C237 C 1.05394 0.39146 0.42005 0.0
C238 C 1.01968 0.37327 0.43063 0.0
C239 C 0.99918 0.39855 0.44134 0.0
C240 C 1.01326 0.44254 0.44066 0.0
C241 C 1.04769 0.4607 0.43008 0.0
C242 C 0.10613 0.47557 0.38086 0.0
C243 C 0.13951 0.49699 0.37034 0.0
C244 C 0.13414 0.51162 0.34955 0.0
C245 C 0.09521 0.50468 0.33872 0.0
C246 C 0.06176 0.48206 0.34902 0.0
C247 C 0.06718 0.46769 0.37002 0.0
P248 P 0.58608 0.95826 0.78791 0.0
H249 H 0.62946 0.01414 0.82474 0.0
H250 H 0.62108 0.07943 0.84045 0.0
H251 H 0.5086 0.06198 0.79996 0.0
H252 H 0.51789 0.99683 0.78385 0.0
H253 H 0.55643 0.92705 0.8292 0.0
H254 H 0.54141 0.85656 0.84332 0.0
H255 H 0.55185 0.8046 0.77959 0.0
H256 H 0.56722 0.8751 0.76564 0.0
H257 H 0.63267 0.01496 0.75903 0.0
H258 H 0.51761 0.92207 0.75449 0.0
O259 O 0.63565 0.96332 0.79255 0.0
H260 H 0.61948 0.03249 0.72137 0.0
H261 H 0.50445 0.9392 0.7163 0.0
C262 C 0.57456 1.00082 0.80293 0.0
C263 C 0.60264 0.02393 0.81946 0.0
C264 C 0.59767 0.06135 0.82853 0.0
C265 C 0.56432 0.0764 0.82135 0.0
C266 C 0.53504 0.05183 0.80559 0.0
C267 C 0.54009 0.01432 0.79652 0.0
C268 C 0.56193 0.90638 0.79621 0.0
C269 C 0.55394 0.90038 0.81805 0.0
C270 C 0.54569 0.86006 0.82615 0.0
C271 C 0.5455 0.82498 0.81257 0.0
C272 C 0.55112 0.83082 0.79038 0.0
C273 C 0.55977 0.87121 0.78236 0.0
C274 C 0.57663 0.96647 0.75936 0.0
C275 C 0.60485 0.99775 0.74977 0.0
C276 C 0.59716 0.00799 0.72831 0.0
C277 C 0.56095 0.98718 0.71597 0.0
C278 C 0.53276 0.95537 0.72545 0.0
C279 C 0.54031 0.9455 0.74717 0.0
P280 P 0.52053 0.49448 0.11484 0.0
H281 H 0.58151 0.45081 0.12865 0.0
H282 H 0.6546 0.47107 0.1355 0.0
H283 H 0.65566 0.59993 0.12423 0.0
H284 H 0.58145 0.57921 0.1181 0.0
H285 H 0.46227 0.48014 0.14847 0.0
H286 H 0.39948 0.50038 0.152 0.0
H287 H 0.42637 0.58319 0.09893 0.0
H288 H 0.48931 0.56324 0.09575 0.0
H289 H 0.47301 0.4249 0.08535 0.0
H290 H 0.55496 0.5467 0.07943 0.0
O291 O 0.50642 0.44679 0.12479 0.0
H292 H 0.46559 0.41315 0.04578 0.0
H293 H 0.54672 0.53582 0.03971 0.0
C294 C 0.57506 0.5135 0.12342 0.0
C295 C 0.59707 0.48374 0.12812 0.0
C296 C 0.63952 0.49534 0.13168 0.0
C297 C 0.66208 0.53729 0.13039 0.0
C298 C 0.63994 0.56733 0.12576 0.0
C299 C 0.59713 0.55558 0.12227 0.0
C300 C 0.48137 0.52018 0.12189 0.0
C301 C 0.45534 0.5035 0.13789 0.0
C302 C 0.41872 0.51462 0.13968 0.0
C303 C 0.40683 0.54315 0.12561 0.0
C304 C 0.43403 0.56137 0.11028 0.0
C305 C 0.47058 0.55009 0.10847 0.0
C306 C 0.51526 0.48632 0.08545 0.0
C307 C 0.48953 0.44916 0.07555 0.0
C308 C 0.48495 0.44265 0.05282 0.0
C309 C 0.50563 0.47346 0.03943 0.0
C310 C 0.53092 0.51102 0.04946 0.0
C311 C 0.53562 0.51738 0.07223 0.0
H312 H 0.16615 0.50458 0.1403 0.0
H313 H 0.1817 0.6353 0.12508 0.0
H314 H 0.2537 0.64279 0.12148 0.0
H315 H 0.2635 0.51995 0.17201 0.0
H316 H 0.2725 0.47169 0.16199 0.0
H317 H 0.22144 0.47556 0.1634 0.0
H318 H 0.20511 0.4537 0.12229 0.0
H319 H 0.25609 0.44965 0.12078 0.0
H320 H 0.2361 0.483 0.10275 0.0
H321 H 0.32502 0.63755 0.11961 0.0
H322 H 0.38994 0.61937 0.11914 0.0
H323 H 0.3314 0.4917 0.13487 0.0
C324 C 0.18464 0.53475 0.13616 0.0
C325 C 0.16739 0.56933 0.13303 0.0
C326 C 0.19333 0.60815 0.12767 0.0
C327 C 0.23467 0.61284 0.12555 0.0
C328 C 0.25062 0.57852 0.1288 0.0
C329 C 0.22653 0.54012 0.13395 0.0
C330 C 0.25194 0.50846 0.13652 0.0
C331 C 0.25236 0.493 0.15987 0.0
C332 C 0.23638 0.47151 0.11957 0.0
C333 C 0.29381 0.53511 0.13199 0.0
C334 C 0.29213 0.57543 0.12759 0.0
C335 C 0.32655 0.60594 0.12291 0.0
C336 C 0.36352 0.59512 0.12254 0.0
C337 C 0.36659 0.55391 0.12676 0.0
C338 C 0.3308 0.52364 0.13171 0.0
H339 H 0.8146 0.21361 0.47253 0.0
H340 H 0.82175 0.28178 0.53466 0.0
H341 H 0.87405 0.34072 0.5221 0.0
H342 H 0.91848 0.24264 0.46619 0.0
H343 H 0.91283 0.24752 0.43706 0.0
H344 H 0.87359 0.21226 0.45018 0.0
H345 H 0.8212 0.24972 0.43383 0.0
H346 H 0.86031 0.28507 0.42057 0.0
H347 H 0.83039 0.30571 0.43849 0.0
H348 H 0.92863 0.39014 0.50371 0.0
H349 H 0.98232 0.42572 0.48118 0.0
H350 H 0.93845 0.32618 0.43061 0.0
C351 C 0.82658 0.24129 0.48333 0.0
C352 C 0.81408 0.24311 0.50458 0.0
C353 C 0.83115 0.27954 0.51838 0.0
C354 C 0.86065 0.31329 0.51134 0.0
C355 C 0.87269 0.31025 0.49041 0.0
C356 C 0.85612 0.27523 0.47657 0.0
C357 C 0.8759 0.27888 0.45533 0.0
C358 C 0.89642 0.24321 0.45201 0.0
C359 C 0.84511 0.27992 0.43591 0.0
C360 C 0.90677 0.32099 0.45957 0.0
C361 C 0.90414 0.33877 0.4798 0.0
C362 C 0.93062 0.37679 0.48771 0.0
C363 C 0.96091 0.39691 0.47471 0.0
C364 C 0.96463 0.37894 0.45404 0.0
C365 C 0.93667 0.34071 0.44636 0.0
H366 H 0.50466 0.5741 0.81383 0.0
H367 H 0.59986 0.59684 0.86693 0.0
H368 H 0.60266 0.67241 0.86815 0.0
H369 H 0.54899 0.66471 0.78617 0.0
H370 H 0.50207 0.67583 0.77661 0.0
H371 H 0.50318 0.62271 0.78179 0.0
H372 H 0.44744 0.61717 0.8083 0.0
H373 H 0.44612 0.67034 0.80318 0.0
H374 H 0.45501 0.65546 0.83075 0.0
H375 H 0.59765 0.74512 0.86284 0.0
H376 H 0.59047 0.81231 0.84891 0.0
H377 H 0.50206 0.74491 0.7972 0.0
C378 C 0.52542 0.59503 0.82597 0.0
C379 C 0.55168 0.57981 0.84054 0.0
C380 C 0.57938 0.60804 0.85576 0.0
C381 C 0.58102 0.65091 0.85664 0.0
C382 C 0.55517 0.6652 0.84193 0.0
C383 C 0.52819 0.63832 0.82668 0.0
C384 C 0.50692 0.66273 0.81132 0.0
C385 C 0.51584 0.6561 0.78757 0.0
C386 C 0.46116 0.6507 0.81352 0.0
C387 C 0.52675 0.70747 0.82011 0.0
C388 C 0.55376 0.7079 0.83808 0.0
C389 C 0.57639 0.74524 0.84887 0.0
C390 C 0.57192 0.78328 0.84091 0.0
C391 C 0.54547 0.78394 0.82209 0.0
C392 C 0.52236 0.74538 0.81168 0.0
H393 H 0.88973 0.50776 0.12853 0.0
H394 H 0.93353 0.63345 0.15888 0.0
H395 H 0.86338 0.63874 0.15893 0.0
H396 H 0.80807 0.52807 0.09348 0.0
H397 H 0.77331 0.47765 0.09649 0.0
H398 H 0.827 0.48301 0.09913 0.0
H399 H 0.82195 0.45235 0.13737 0.0
H400 H 0.76822 0.44681 0.13485 0.0
H401 H 0.79944 0.4763 0.15793 0.0
H402 H 0.78761 0.63133 0.1553 0.0
H403 H 0.71327 0.61131 0.14899 0.0
H404 H 0.71671 0.49072 0.12033 0.0
C405 C 0.88464 0.53638 0.13526 0.0
C406 C 0.91788 0.57023 0.14372 0.0
C407 C 0.90922 0.60696 0.15232 0.0
C408 C 0.8692 0.61033 0.1524 0.0
C409 C 0.83736 0.5767 0.14388 0.0
C410 C 0.84456 0.54031 0.13551 0.0
C411 C 0.80464 0.50892 0.12727 0.0
C412 C 0.80318 0.49882 0.10263 0.0
C413 C 0.79819 0.46872 0.14012 0.0
C414 C 0.77402 0.53343 0.13218 0.0
C415 C 0.79366 0.57246 0.14178 0.0
C416 C 0.77204 0.60083 0.14772 0.0
C417 C 0.72948 0.5892 0.14386 0.0
C418 C 0.7081 0.54936 0.13402 0.0
C419 C 0.73131 0.52126 0.12813 0.0
H420 H 0.30417 0.8074 0.48964 0.0
H421 H 0.41924 0.77537 0.49544 0.0
H422 H 0.38358 0.70077 0.48751 0.0
H423 H 0.2437 0.71132 0.51212 0.0
H424 H 0.20039 0.70867 0.49301 0.0
H425 H 0.23448 0.75887 0.50175 0.0
H426 H 0.24496 0.77558 0.46138 0.0
H427 H 0.21108 0.72546 0.45253 0.0
H428 H 0.26172 0.73958 0.44419 0.0
H429 H 0.33632 0.63085 0.47537 0.0
H430 H 0.28113 0.57084 0.4601 0.0
H431 H 0.1965 0.648 0.46206 0.0
C432 C 0.32194 0.78473 0.48942 0.0
C433 C 0.36461 0.79746 0.49329 0.0
C434 C 0.38653 0.76653 0.49297 0.0
C435 C 0.36654 0.72401 0.48835 0.0
C436 C 0.32458 0.71277 0.48416 0.0
C437 C 0.3025 0.74219 0.48476 0.0
C438 C 0.25797 0.72227 0.47831 0.0
C439 C 0.23265 0.72547 0.49744 0.0
C440 C 0.24308 0.74189 0.45789 0.0
C441 C 0.25862 0.67725 0.47341 0.0
C442 C 0.29727 0.67236 0.47712 0.0
C443 C 0.30581 0.63413 0.47276 0.0
C444 C 0.2741 0.60008 0.46419 0.0
C445 C 0.23422 0.60438 0.46 0.0
C446 C 0.22655 0.64354 0.46497 0.0
H447 H 0.53546 0.30838 0.80999 0.0
H448 H 0.58558 0.33492 0.87751 0.0
H449 H 0.58827 0.26118 0.88019 0.0
H450 H 0.47442 0.20197 0.8161 0.0
H451 H 0.48519 0.18241 0.79025 0.0
H452 H 0.48491 0.23668 0.79393 0.0
H453 H 0.55784 0.26017 0.7823 0.0
H454 H 0.55826 0.20602 0.77848 0.0
H455 H 0.59718 0.24131 0.79645 0.0
H456 H 0.58645 0.18475 0.87544 0.0
H457 H 0.58443 0.11253 0.86297 0.0
H458 H 0.53867 0.13642 0.79799 0.0
C459 C 0.54663 0.29857 0.8254 0.0
C460 C 0.56011 0.32743 0.84359 0.0
C461 C 0.57512 0.31346 0.86335 0.0
C462 C 0.57659 0.27155 0.86507 0.0
C463 C 0.56321 0.24396 0.84684 0.0
C464 C 0.54879 0.25694 0.82733 0.0
C465 C 0.53835 0.22152 0.80986 0.0
C466 C 0.49302 0.20997 0.80208 0.0
C467 C 0.56447 0.23294 0.79064 0.0
C468 C 0.54933 0.18669 0.82257 0.0
C469 C 0.56322 0.20019 0.84393 0.0
C470 C 0.57573 0.17387 0.85873 0.0
C471 C 0.57467 0.13291 0.85144 0.0
C472 C 0.56157 0.11857 0.82944 0.0
C473 C 0.54827 0.14594 0.81497 0.0
H474 H 0.54101 0.88093 0.52561 0.0
H475 H 0.66886 0.94557 0.53259 0.0
H476 H 0.68553 0.87781 0.53755 0.0
H477 H 0.54804 0.80722 0.5674 0.0
H478 H 0.5102 0.76414 0.55337 0.0
H479 H 0.50803 0.8174 0.54934 0.0
H480 H 0.5078 0.80501 0.50767 0.0
H481 H 0.5101 0.75172 0.51148 0.0
H482 H 0.54777 0.78648 0.49706 0.0
H483 H 0.68877 0.8037 0.5404 0.0
H484 H 0.6786 0.72774 0.54495 0.0
H485 H 0.54864 0.71008 0.53919 0.0
C486 C 0.57249 0.88068 0.52809 0.0
C487 C 0.60375 0.91846 0.52855 0.0
C488 C 0.64452 0.91704 0.53221 0.0
C489 C 0.65426 0.87869 0.53494 0.0
C490 C 0.62287 0.84203 0.53436 0.0
C491 C 0.58277 0.84264 0.53137 0.0
C492 C 0.55496 0.79877 0.53257 0.0
C493 C 0.52877 0.79678 0.55182 0.0
C494 C 0.52861 0.78468 0.5109 0.0
C495 C 0.58578 0.77341 0.53647 0.0
C496 C 0.62472 0.79912 0.53715 0.0
C497 C 0.65846 0.78327 0.54001 0.0
C498 C 0.65238 0.74007 0.54246 0.0
C499 C 0.61291 0.71309 0.54234 0.0
C500 C 0.57914 0.73006 0.53937 0.0
H501 H 0.81054 0.66684 0.86763 0.0
H502 H 0.81729 0.59653 0.80822 0.0
H503 H 0.88077 0.64856 0.80173 0.0
H504 H 0.8638 0.77625 0.84872 0.0
H505 H 0.88883 0.79104 0.87575 0.0
H506 H 0.83861 0.75599 0.87226 0.0
H507 H 0.86363 0.70101 0.8949 0.0
H508 H 0.91353 0.73571 0.89846 0.0
H509 H 0.90586 0.68335 0.88662 0.0
H510 H 0.95011 0.69593 0.80675 0.0
H511 H 1.01842 0.73225 0.82313 0.0
H512 H 0.96695 0.77472 0.87863 0.0
C513 C 0.82478 0.66328 0.85288 0.0
C514 C 0.8092 0.62782 0.83842 0.0
C515 C 0.82854 0.62383 0.81935 0.0
C516 C 0.86455 0.65332 0.81552 0.0
C517 C 0.88027 0.68699 0.83069 0.0
C518 C 0.86059 0.69246 0.84885 0.0
C519 C 0.88652 0.72699 0.86445 0.0
C520 C 0.86835 0.76482 0.86534 0.0
C521 C 0.89276 0.71076 0.88743 0.0
C522 C 0.92523 0.73745 0.85327 0.0
C523 C 0.92068 0.71512 0.83345 0.0
C524 C 0.95377 0.71467 0.82185 0.0
C525 C 0.99258 0.73563 0.83125 0.0
C526 C 0.99794 0.75636 0.85216 0.0
C527 C 0.96363 0.75931 0.86257 0.0
H528 H 0.26152 0.78406 0.18937 0.0
H529 H 0.21098 0.87521 0.15557 0.0
H530 H 0.27507 0.92961 0.16482 0.0
H531 H 0.31922 0.85406 0.23304 0.0
H532 H 0.36136 0.83098 0.23377 0.0
H533 H 0.31116 0.79941 0.2249 0.0
H534 H 0.33617 0.77943 0.1885 0.0
H535 H 0.38645 0.8109 0.19727 0.0
H536 H 0.36136 0.82043 0.17178 0.0
H537 H 0.34541 0.97396 0.17718 0.0
H538 H 0.41662 0.00448 0.19144 0.0
H539 H 0.42092 0.8843 0.21717 0.0
C540 C 0.26393 0.81536 0.18377 0.0
C541 C 0.23097 0.82528 0.17181 0.0
C542 C 0.23544 0.86688 0.16506 0.0
C543 C 0.27185 0.89799 0.17012 0.0
C544 C 0.30365 0.88709 0.18191 0.0
C545 C 0.30006 0.84677 0.18862 0.0
C546 C 0.33894 0.84311 0.20088 0.0
C547 C 0.33225 0.8312 0.22455 0.0
C548 C 0.35678 0.81161 0.18889 0.0
C549 C 0.36496 0.88766 0.19998 0.0
C550 C 0.34408 0.91257 0.18898 0.0
C551 C 0.36201 0.95478 0.18591 0.0
C552 C 0.40243 0.97192 0.19421 0.0
C553 C 0.42455 0.94691 0.20547 0.0
C554 C 0.4052 0.90425 0.20842 0.0
H555 H 0.6199 0.18655 0.51167 0.0
H556 H 0.49207 0.13425 0.5182 0.0
H557 H 0.48397 0.20603 0.52349 0.0
H558 H 0.63603 0.26523 0.55297 0.0
H559 H 0.67161 0.30402 0.53933 0.0
H560 H 0.66641 0.24903 0.53364 0.0
H561 H 0.65126 0.25824 0.49241 0.0
H562 H 0.6566 0.31341 0.49792 0.0
H563 H 0.61082 0.28115 0.48349 0.0
H564 H 0.4912 0.28388 0.53104 0.0
H565 H 0.51329 0.36009 0.54072 0.0
H566 H 0.63618 0.36094 0.52884 0.0
C567 C 0.58997 0.19007 0.51376 0.0
C568 C 0.55654 0.15458 0.51435 0.0
C569 C 0.51811 0.16083 0.51755 0.0
C570 C 0.5132 0.20155 0.52055 0.0
C571 C 0.54697 0.23578 0.52027 0.0
C572 C 0.58458 0.23039 0.51687 0.0
C573 C 0.61658 0.27202 0.51868 0.0
C574 C 0.64959 0.27258 0.53726 0.0
C575 C 0.63488 0.28178 0.49682 0.0
C576 C 0.5913 0.30165 0.52409 0.0
C577 C 0.55115 0.2803 0.52473 0.0
C578 C 0.52249 0.30095 0.53031 0.0
C579 C 0.53529 0.34437 0.53568 0.0
C580 C 0.5765 0.36676 0.53557 0.0
C581 C 0.60452 0.3449 0.52929 0.0
H582 H 0.34802 0.56308 0.79533 0.0
H583 H 0.26488 0.44209 0.80432 0.0
H584 H 0.21253 0.47735 0.81211 0.0
H585 H 0.32727 0.61122 0.83983 0.0
H586 H 0.33111 0.66215 0.82894 0.0
H587 H 0.35832 0.62805 0.8178 0.0
H588 H 0.32403 0.63197 0.77913 0.0
H589 H 0.297 0.66677 0.79006 0.0
H590 H 0.26964 0.61917 0.77474 0.0
H591 H 0.1748 0.52482 0.82653 0.0
H592 H 0.15384 0.58102 0.84557 0.0
H593 H 0.26164 0.67204 0.82866 0.0
C594 C 0.31846 0.54387 0.79836 0.0
C595 C 0.3107 0.49973 0.79913 0.0
C596 C 0.27152 0.47582 0.80313 0.0
C597 C 0.24151 0.49563 0.8077 0.0
C598 C 0.251 0.53933 0.8081 0.0
C599 C 0.2884 0.56321 0.80328 0.0
C600 C 0.29302 0.6096 0.80794 0.0
C601 C 0.32957 0.62884 0.82462 0.0
C602 C 0.29609 0.63327 0.7867 0.0
C603 C 0.25341 0.6078 0.81744 0.0
C604 C 0.2292 0.56709 0.81685 0.0
C605 C 0.19291 0.55698 0.82653 0.0
C606 C 0.18123 0.58921 0.83729 0.0
C607 C 0.20592 0.63106 0.83847 0.0
C608 C 0.24209 0.6404 0.82802 0.0
H609 H 0.88295 0.28411 0.1785 0.0
H610 H 0.81452 0.36211 0.14591 0.0
H611 H 0.75139 0.3166 0.15759 0.0
H612 H 0.80957 0.18492 0.16493 0.0
H613 H 0.81907 0.1633 0.19082 0.0
H614 H 0.85876 0.20214 0.1799 0.0
H615 H 0.86777 0.24876 0.21548 0.0
H616 H 0.82798 0.21014 0.22647 0.0
H617 H 0.8248 0.26363 0.22476 0.0
H618 H 0.69534 0.26166 0.17248 0.0
H619 H 0.65117 0.2024 0.18997 0.0
H620 H 0.75634 0.16046 0.21265 0.0
C621 C 0.85466 0.29144 0.17365 0.0
C622 C 0.85376 0.32673 0.16128 0.0
C623 C 0.81609 0.33554 0.15558 0.0
C624 C 0.78003 0.30975 0.16205 0.0
C625 C 0.78204 0.27528 0.17428 0.0
C626 C 0.81841 0.26614 0.18005 0.0
C627 C 0.81235 0.22741 0.19339 0.0
C628 C 0.82572 0.19237 0.18154 0.0
C629 C 0.83454 0.23815 0.21639 0.0
C630 C 0.7669 0.21612 0.19417 0.0
C631 C 0.74993 0.24403 0.18302 0.0
C632 C 0.70833 0.23964 0.18128 0.0
C633 C 0.68346 0.2058 0.19118 0.0
C634 C 0.70025 0.17688 0.20277 0.0
C635 C 0.74259 0.18236 0.20423 0.0
H636 H 0.08545 0.56166 0.06851 0.0
H637 H 0.98107 0.61049 0.07439 0.0
H638 H 0.98936 0.64079 0.03835 0.0
H639 H 0.144 0.6489 0.04701 0.0
H640 H 0.16765 0.62228 0.02816 0.0
H641 H 0.14964 0.59719 0.05237 0.0
H642 H 0.10517 0.53299 0.02891 0.0
H643 H 0.12353 0.55756 0.00457 0.0
H644 H 0.06993 0.54078 0.0071 0.0
H645 H 1.01455 0.67513 0.00536 0.0
H646 H 1.0527 0.70756 0.97516 0.0
H647 H 0.14101 0.63688 0.98951 0.0
C648 C 0.06344 0.57722 0.06173 0.0
C649 C 1.03232 0.58339 0.07403 0.0
C650 C 1.00491 0.60525 0.0651 0.0
C651 C 1.00936 0.62253 0.04465 0.0
C652 C 1.04136 0.61761 0.0333 0.0
C653 C 0.06767 0.59503 0.04129 0.0
C654 C 0.10174 0.59807 0.02667 0.0
C655 C 0.14319 0.61779 0.03931 0.0
C656 C 0.09997 0.55477 0.01619 0.0
C657 C 0.09121 0.62712 0.00978 0.0
C658 C 1.05605 0.63766 0.01389 0.0
C659 C 1.04168 0.66653 0.00168 0.0
C660 C 0.0637 0.68507 0.98473 0.0
C661 C 0.09963 0.67463 0.9801 0.0
C662 C 0.11333 0.64493 0.99263 0.0
H663 H 0.54527 0.04017 0.43814 0.0
H664 H 0.66663 0.0339 0.46056 0.0
H665 H 0.68339 0.03218 0.42253 0.0
H666 H 0.53213 0.97052 0.39103 0.0
H667 H 0.50523 0.99969 0.37391 0.0
H668 H 0.50263 1.00162 0.40303 0.0
H669 H 0.52793 0.08281 0.40415 0.0
H670 H 0.53062 0.08114 0.37502 0.0
H671 H 0.57469 0.10725 0.39291 0.0
H672 H 0.68682 0.02838 0.3824 0.0
H673 H 0.67697 0.0244 0.34214 0.0
H674 H 0.55409 0.03431 0.345 0.0
C675 C 0.57541 0.03861 0.43505 0.0
C676 C 0.60457 0.03711 0.45243 0.0
C677 C 0.64368 0.0351 0.44763 0.0
C678 C 0.65358 0.03412 0.42603 0.0
C679 C 0.62418 0.03542 0.40933 0.0
C680 C 0.58595 0.03782 0.41351 0.0
C681 C 0.56001 0.03845 0.3924 0.0
C682 C 0.52281 1.00029 0.38995 0.0
C683 C 0.54759 0.07988 0.39105 0.0
C684 C 0.58954 0.03549 0.37577 0.0
C685 C 0.62636 0.03379 0.38596 0.0
C686 C 0.65819 0.02985 0.3742 0.0
C687 C 0.65225 0.02739 0.35136 0.0
C688 C 0.61479 0.02897 0.34047 0.0
C689 C 0.58317 0.03344 0.3529 0.0
H690 H 0.53554 0.48117 0.76158 0.0
H691 H 0.657 0.48047 0.78697 0.0
H692 H 0.68139 0.49931 0.75106 0.0
H693 H 0.5394 0.43537 0.70836 0.0
H694 H 0.51068 0.46686 0.69428 0.0
H695 H 0.50271 0.45417 0.72215 0.0
H696 H 0.5176 0.53336 0.73325 0.0
H697 H 0.52567 0.54633 0.70542 0.0
H698 H 0.56449 0.56871 0.72709 0.0
H699 H 0.69291 0.51848 0.71268 0.0
H700 H 0.69039 0.53404 0.67369 0.0
H701 H 0.56141 0.52139 0.67267 0.0
C702 C 0.56728 0.48501 0.75961 0.0
C703 C 0.59435 0.47936 0.77715 0.0
C704 C 0.63562 0.48451 0.77381 0.0
C705 C 0.64982 0.49532 0.75347 0.0
C706 C 0.62238 0.50069 0.73657 0.0
C707 C 0.58195 0.49552 0.73934 0.0
C708 C 0.55875 0.50242 0.71833 0.0
C709 C 0.52595 0.46231 0.71031 0.0
C710 C 0.54056 0.53994 0.7212 0.0
C711 C 0.59247 0.51213 0.7033 0.0
C712 C 0.62895 0.51125 0.71424 0.0
C713 C 0.66455 0.51936 0.70394 0.0
C714 C 0.66284 0.52843 0.68182 0.0
C715 C 0.62577 0.52918 0.67016 0.0
C716 C 0.59014 0.52086 0.68112 0.0
H717 H 0.53815 0.9638 0.5858 0.0
H718 H 0.5679 0.0999 0.58712 0.0
H719 H 0.5621 0.10201 0.62678 0.0
H720 H 0.46787 0.94878 0.63016 0.0
H721 H 0.48638 0.90661 0.64126 0.0
H722 H 0.48625 0.91499 0.61241 0.0
H723 H 0.56295 0.92029 0.61455 0.0
H724 H 0.56337 0.91207 0.64335 0.0
H725 H 0.59713 0.95804 0.63366 0.0
H726 H 0.56075 0.09069 0.66614 0.0
H727 H 0.56597 0.06653 0.7036 0.0
H728 H 0.53885 0.93759 0.67796 0.0
C729 C 0.5422 0.99386 0.59442 0.0
C730 C 0.553 0.03171 0.58346 0.0
C731 C 0.55945 0.07061 0.59527 0.0
C732 C 0.55601 0.0721 0.61776 0.0
C733 C 0.54631 0.03441 0.62825 0.0
C734 C 0.5395 0.99595 0.61706 0.0
C735 C 0.53388 0.96055 0.63274 0.0
C736 C 0.49104 0.93099 0.62891 0.0
C737 C 0.56627 0.93633 0.63097 0.0
C738 C 0.53982 0.98531 0.65446 0.0
C739 C 0.54629 0.0278 0.65137 0.0
C740 C 0.55519 0.05748 0.66881 0.0
C741 C 0.55828 0.04351 0.68999 0.0
C742 C 0.5527 1.00028 0.69359 0.0
C743 C 0.54253 0.97073 0.67561 0.0
H744 H 0.57903 0.48214 0.91929 0.0
H745 H 0.45687 0.41359 0.89493 0.0
H746 H 0.43635 0.41294 0.93259 0.0
H747 H 0.58312 0.42824 0.96893 0.0
H748 H 0.6122 0.47456 0.98473 0.0
H749 H 0.61683 0.46978 0.95588 0.0
H750 H 0.59843 0.54042 0.95062 0.0
H751 H 0.59358 0.54535 0.97943 0.0
H752 H 0.55203 0.5471 0.95995 0.0
H753 H 0.42931 0.42078 0.97317 0.0
H754 H 0.43655 0.43456 0.01313 0.0
H755 H 0.56401 0.49608 0.01063 0.0
C756 C 0.54789 0.46695 0.92177 0.0
C757 C 0.51953 0.44794 0.90405 0.0
C758 C 0.47918 0.42832 0.90818 0.0
C759 C 0.46723 0.42787 0.92952 0.0
C760 C 0.496 0.44706 0.94656 0.0
C761 C 0.53553 0.46609 0.94289 0.0
C762 C 0.56079 0.48412 0.96397 0.0
C763 C 0.59526 0.46289 0.96865 0.0
C764 C 0.57716 0.53209 0.96345 0.0
C765 C 0.52932 0.4723 0.98014 0.0
C766 C 0.4921 0.45107 0.96981 0.0
C767 C 0.45839 0.43716 0.98142 0.0
C768 C 0.4629 0.44493 0.00417 0.0
C769 C 0.50091 0.46627 0.01518 0.0
C770 C 0.53441 0.48015 0.00282 0.0
H771 H 1.02672 0.49854 0.21065 0.0
H772 H 0.10311 0.62623 0.21119 0.0
H773 H 0.11762 0.62596 0.25096 0.0
H774 H 0.98555 0.50939 0.26293 0.0
H775 H 0.98637 0.45737 0.27079 0.0
H776 H 0.97979 0.46788 0.24231 0.0
H777 H 1.04142 0.43991 0.23486 0.0
H778 H 1.04814 0.42924 0.26328 0.0
H779 H 0.08937 0.46228 0.25042 0.0
H780 H 0.12646 0.61182 0.29006 0.0
H781 H 0.13028 0.5836 0.32665 0.0
H782 H 1.049 0.46474 0.30167 0.0
C783 C 1.04617 0.52654 0.21919 0.0
C784 C 0.06371 0.56242 0.20775 0.0
C785 C 0.08935 0.59829 0.21951 0.0
C786 C 0.0977 0.59857 0.24215 0.0
C787 C 0.08022 0.56274 0.25291 0.0
C788 C 1.05504 0.52732 0.24191 0.0
C789 C 1.0417 0.49247 0.25747 0.0
C790 C 0.99561 0.48112 0.25843 0.0
C791 C 1.05603 0.45369 0.25113 0.0
C792 C 0.06376 0.51377 0.27881 0.0
C793 C 0.08556 0.55439 0.27574 0.0
C794 C 0.10944 0.58011 0.29273 0.0
C795 C 0.11157 0.56374 0.31341 0.0
C796 C 0.09006 0.52199 0.31697 0.0
C797 C 0.06539 0.49692 0.29947 0.0
loop_
_geom_bond_atom_site_label_1
_geom_bond_atom_site_label_2
_geom_bond_distance
_geom_bond_site_symmetry_2
_ccdc_geom_bond_type
Dy0 O3 2.307 1_455 S
Dy0 O5 2.395 . S
Dy0 O6 2.379 . S
Dy0 O8 2.339 . S
Dy0 O10 2.298 . S
Dy0 O14 2.275 . S
Dy0 C22 2.738 . S
Dy1 O4 2.298 . S
Dy1 O7 2.275 1_655 S
Dy1 O9 2.307 1_655 S
Dy1 O11 2.395 . S
Dy1 O12 2.379 . S
Dy1 O15 2.339 . S
Dy1 C31 2.738 . S
C2 O14 1.254 . S
C2 O15 1.257 1_455 S
O3 Dy0 2.307 1_655 S
O3 C13 1.266 . S
O4 Dy1 2.298 . S
O4 C13 1.236 . S
O5 Dy0 2.395 . S
O5 C22 1.255 . S
O6 Dy0 2.379 . S
O6 C22 1.249 . S
O7 Dy1 2.275 1_455 S
O7 C23 1.254 . S
O8 Dy0 2.339 . S
O8 C23 1.257 . S
O9 Dy1 2.307 1_455 S
O9 C24 1.266 . S
O10 Dy0 2.298 . S
O10 C24 1.236 . S
O11 Dy1 2.395 . S
O11 C31 1.255 . S
O12 Dy1 2.379 . S
O12 C31 1.249 . S
C13 O3 1.266 . S
C13 O4 1.236 . S
O14 Dy0 2.275 . S
O14 C2 1.254 . S
O15 Dy1 2.339 . S
O15 C2 1.257 1_655 S
C16 C19 1.344 . S
C16 C20 1.328 . S
C16 C22 1.516 . S
C17 C18 1.304 . S
C17 C21 1.323 . S
C18 C17 1.304 . S
C18 C19 1.371 . S
C18 H32 0.930 . S
C19 C16 1.344 . S
C19 C18 1.371 . S
C19 H33 0.931 . S
C20 C16 1.328 . S
C20 C21 1.433 . S
C20 H34 0.931 . S
C21 C17 1.323 . S
C21 C20 1.433 . S
C21 H35 0.933 . S
C22 Dy0 2.738 . S
C22 O5 1.255 . S
C22 O6 1.249 . S
C22 C16 1.516 . S
C23 O7 1.254 . S
C23 O8 1.257 . S
C24 O9 1.266 . S
C24 O10 1.236 . S
C25 C28 1.344 . S
C25 C29 1.328 . S
C25 C31 1.516 . S
C26 C27 1.304 . S
C26 C30 1.323 . S
C27 C26 1.304 . S
C27 C28 1.371 . S
C27 H36 0.930 . S
C28 C25 1.344 . S
C28 C27 1.371 . S
C28 H37 0.931 . S
C29 C25 1.328 . S
C29 C30 1.433 . S
C29 H38 0.931 . S
C30 C26 1.323 . S
C30 C29 1.433 . S
C30 H39 0.933 . S
C31 Dy1 2.738 . S
C31 O11 1.255 . S
C31 O12 1.249 . S
C31 C25 1.516 . S
H32 C18 0.930 . S
H33 C19 0.931 . S
H34 C20 0.931 . S
H35 C21 0.933 . S
H36 C27 0.930 . S
H37 C28 0.931 . S
H38 C29 0.931 . S
H39 C30 0.933 . S
Dy40 O43 2.307 . S
Dy40 O45 2.395 1_545 S
Dy40 O46 2.379 1_545 S
Dy40 O48 2.339 . S
Dy40 O50 2.298 1_545 S
Dy40 O54 2.275 . S
Dy40 C62 2.738 1_545 S
Dy41 O44 2.298 . S
Dy41 O47 2.275 . S
Dy41 O49 2.307 1_545 S
Dy41 O51 2.395 . S
Dy41 O52 2.379 . S
Dy41 O55 2.339 . S
Dy41 C71 2.738 . S
C42 O54 1.254 . S
C42 O55 1.257 . S
O43 Dy40 2.307 . S
O43 C53 1.266 . S
O44 Dy41 2.298 . S
O44 C53 1.236 . S
O45 Dy40 2.395 1_565 S
O45 C62 1.255 . S
O46 Dy40 2.379 1_565 S
O46 C62 1.249 . S
O47 Dy41 2.275 . S
O47 C63 1.254 . S
O48 Dy40 2.339 . S
O48 C63 1.257 . S
O49 Dy41 2.307 1_565 S
O49 C64 1.266 . S
O50 Dy40 2.298 1_565 S
O50 C64 1.236 . S
O51 Dy41 2.395 . S
O51 C71 1.255 . S
O52 Dy41 2.379 . S
O52 C71 1.249 . S
C53 O43 1.266 . S
C53 O44 1.236 . S
O54 Dy40 2.275 . S
O54 C42 1.254 . S
O55 Dy41 2.339 . S
O55 C42 1.257 . S
C56 C59 1.344 . S
C56 C60 1.328 . S
C56 C62 1.516 . S
C57 C58 1.304 . S
C57 C61 1.323 . S
C58 C57 1.304 . S
C58 C59 1.371 . S
C58 H72 0.930 . S
C59 C56 1.344 . S
C59 C58 1.371 . S
C59 H73 0.931 . S
C60 C56 1.328 . S
C60 C61 1.433 . S
C60 H74 0.931 . S
C61 C57 1.323 . S
C61 C60 1.433 . S
C61 H75 0.933 . S
C62 Dy40 2.738 1_565 S
C62 O45 1.255 . S
C62 O46 1.249 . S
C62 C56 1.516 . S
C63 O47 1.254 . S
C63 O48 1.257 . S
C64 O49 1.266 . S
C64 O50 1.236 . S
C65 C68 1.344 . S
C65 C69 1.328 . S
C65 C71 1.516 . S
C66 C67 1.304 . S
C66 C70 1.323 . S
C67 C66 1.304 . S
C67 C68 1.371 . S
C67 H76 0.930 . S
C68 C65 1.344 . S
C68 C67 1.371 . S
C68 H77 0.931 . S
C69 C65 1.328 . S
C69 C70 1.433 . S
C69 H78 0.931 . S
C70 C66 1.323 . S
C70 C69 1.433 . S
C70 H79 0.933 . S
C71 Dy41 2.738 . S
C71 O51 1.255 . S
C71 O52 1.249 . S
C71 C65 1.516 . S
H72 C58 0.930 . S
H73 C59 0.931 . S
H74 C60 0.931 . S
H75 C61 0.933 . S
H76 C67 0.930 . S
H77 C68 0.931 . S
H78 C69 0.931 . S
H79 C70 0.933 . S
Dy80 O83 2.307 . S
Dy80 O85 2.395 . S
Dy80 O86 2.379 . S
Dy80 O88 2.339 . S
Dy80 O90 2.298 . S
Dy80 O94 2.275 . S
Dy80 C102 2.738 . S
Dy81 O84 2.298 . S
Dy81 O87 2.275 . S
Dy81 O89 2.307 . S
Dy81 O91 2.395 . S
Dy81 O92 2.379 . S
Dy81 O95 2.339 . S
Dy81 C111 2.738 . S
C82 O94 1.254 . S
C82 O95 1.257 . S
O83 Dy80 2.307 . S
O83 C93 1.266 . S
O84 Dy81 2.298 . S
O84 C93 1.236 . S
O85 Dy80 2.395 . S
O85 C102 1.255 . S
O86 Dy80 2.379 . S
O86 C102 1.249 . S
O87 Dy81 2.275 . S
O87 C103 1.254 . S
O88 Dy80 2.339 . S
O88 C103 1.257 . S
O89 Dy81 2.307 . S
O89 C104 1.266 . S
O90 Dy80 2.298 . S
O90 C104 1.236 . S
O91 Dy81 2.395 . S
O91 C111 1.255 . S
O92 Dy81 2.379 . S
O92 C111 1.249 . S
C93 O83 1.266 . S
C93 O84 1.236 . S
O94 Dy80 2.275 . S
O94 C82 1.254 . S
O95 Dy81 2.339 . S
O95 C82 1.257 . S
C96 C99 1.344 . S
C96 C100 1.328 . S
C96 C102 1.516 . S
C97 C98 1.304 . S
C97 C101 1.323 . S
C98 C97 1.304 . S
C98 C99 1.371 . S
C98 H112 0.930 . S
C99 C96 1.344 . S
C99 C98 1.371 . S
C99 H113 0.931 . S
C100 C96 1.328 . S
C100 C101 1.433 . S
C100 H114 0.931 . S
C101 C97 1.323 . S
C101 C100 1.433 . S
C101 H115 0.933 . S
C102 Dy80 2.738 . S
C102 O85 1.255 . S
C102 O86 1.249 . S
C102 C96 1.516 . S
C103 O87 1.254 . S
C103 O88 1.257 . S
C104 O89 1.266 . S
C104 O90 1.236 . S
C105 C108 1.344 . S
C105 C109 1.328 . S
C105 C111 1.516 . S
C106 C107 1.304 . S
C106 C110 1.323 . S
C107 C106 1.304 . S
C107 C108 1.371 . S
C107 H116 0.930 . S
C108 C105 1.344 . S
C108 C107 1.371 . S
C108 H117 0.931 . S
C109 C105 1.328 . S
C109 C110 1.433 . S
C109 H118 0.931 . S
C110 C106 1.323 . S
C110 C109 1.433 . S
C110 H119 0.933 . S
C111 Dy81 2.738 . S
C111 O91 1.255 . S
C111 O92 1.249 . S
C111 C105 1.516 . S
H112 C98 0.930 . S
H113 C99 0.931 . S
H114 C100 0.931 . S
H115 C101 0.933 . S
H116 C107 0.930 . S
H117 C108 0.931 . S
H118 C109 0.931 . S
H119 C110 0.933 . S
P120 O131 1.490 1_545 S
P120 C134 1.812 1_545 S
P120 C140 1.803 . S
P120 C146 1.819 . S
H121 C135 0.941 . S
H122 C136 0.939 . S
H123 C138 0.941 1_545 S
H124 C139 0.940 . S
H125 C141 0.939 . S
H126 C142 0.942 . S
H127 C144 0.940 . S
H128 C145 0.939 . S
H129 C147 0.941 . S
H130 C151 0.939 . S
O131 P120 1.490 1_565 S
H132 C148 0.939 1_565 S
H133 C150 0.940 . S
C134 P120 1.812 1_565 S
C134 C135 1.389 . S
C134 C139 1.391 1_565 S
C135 H121 0.941 . S
C135 C134 1.389 . S
C135 C136 1.397 . S
C136 H122 0.939 . S
C136 C135 1.397 . S
C136 C137 1.378 . S
C137 C136 1.378 . S
C137 C138 1.378 . S
C138 H123 0.941 1_565 S
C138 C137 1.378 . S
C138 C139 1.396 1_565 S
C139 H124 0.940 . S
C139 C134 1.391 1_545 S
C139 C138 1.396 1_545 S
C140 P120 1.803 . S
C140 C141 1.378 . S
C140 C145 1.400 . S
C141 H125 0.939 . S
C141 C140 1.378 . S
C141 C142 1.361 . S
C142 H126 0.942 . S
C142 C141 1.361 . S
C142 C143 1.369 . S
C143 C142 1.369 . S
C143 C144 1.404 . S
C144 H127 0.940 . S
C144 C143 1.404 . S
C144 C145 1.389 . S
C145 H128 0.939 . S
C145 C140 1.400 . S
C145 C144 1.389 . S
C146 P120 1.819 . S
C146 C147 1.391 1_545 S
C146 C151 1.391 . S
C147 H129 0.941 . S
C147 C146 1.391 1_565 S
C147 C148 1.396 1_565 S
C148 H132 0.939 1_545 S
C148 C147 1.396 1_545 S
C148 C149 1.397 . S
C149 C148 1.397 . S
C149 C150 1.385 . S
C150 H133 0.940 . S
C150 C149 1.385 . S
C150 C151 1.388 . S
C151 H130 0.939 . S
C151 C146 1.391 . S
C151 C150 1.388 . S
P152 O163 1.490 . S
P152 C166 1.812 . S
P152 C172 1.803 . S
P152 C178 1.819 . S
H153 C167 0.941 . S
H154 C168 0.939 . S
H155 C170 0.940 . S
H156 C171 0.940 . S
H157 C173 0.939 . S
H158 C174 0.942 . S
H159 C176 0.940 . S
H160 C177 0.939 . S
H161 C179 0.941 . S
H162 C183 0.939 . S
O163 P152 1.490 . S
H164 C180 0.939 . S
H165 C182 0.940 . S
C166 P152 1.812 . S
C166 C167 1.389 . S
C166 C171 1.391 . S
C167 H153 0.941 . S
C167 C166 1.389 . S
C167 C168 1.397 . S
C168 H154 0.939 . S
C168 C167 1.397 . S
C168 C169 1.378 . S
C169 C168 1.378 . S
C169 C170 1.378 . S
C170 H155 0.940 . S
C170 C169 1.378 . S
C170 C171 1.396 . S
C171 H156 0.940 . S
C171 C166 1.391 . S
C171 C170 1.396 . S
C172 P152 1.803 . S
C172 C173 1.378 . S
C172 C177 1.400 . S
C173 H157 0.939 . S
C173 C172 1.378 . S
C173 C174 1.361 . S
C174 H158 0.942 . S
C174 C173 1.361 . S
C174 C175 1.369 . S
C175 C174 1.369 . S
C175 C176 1.404 . S
C176 H159 0.940 . S
C176 C175 1.404 . S
C176 C177 1.389 . S
C177 H160 0.939 . S
C177 C172 1.400 . S
C177 C176 1.389 . S
C178 P152 1.819 . S
C178 C179 1.391 . S
C178 C183 1.391 . S
C179 H161 0.941 . S
C179 C178 1.391 . S
C179 C180 1.396 . S
C180 H164 0.939 . S
C180 C179 1.396 . S
C180 C181 1.397 . S
C181 C180 1.397 . S
C181 C182 1.385 . S
C182 H165 0.940 . S
C182 C181 1.385 . S
C182 C183 1.388 . S
C183 H162 0.939 . S
C183 C178 1.391 . S
C183 C182 1.388 . S
P184 O195 1.490 . S
P184 C198 1.812 . S
P184 C204 1.803 1_455 S
P184 C210 1.819 . S
H185 C199 0.941 . S
H186 C200 0.939 . S
H187 C202 0.940 . S
H188 C203 0.940 . S
H189 C205 0.939 . S
H190 C206 0.942 . S
H191 C208 0.940 . S
H192 C209 0.939 . S
H193 C211 0.941 . S
H194 C215 0.939 . S
O195 P184 1.490 . S
H196 C212 0.939 . S
H197 C214 0.940 . S
C198 P184 1.812 . S
C198 C199 1.389 . S
C198 C203 1.391 . S
C199 H185 0.941 . S
C199 C198 1.389 . S
C199 C200 1.397 . S
C200 H186 0.939 . S
C200 C199 1.397 . S
C200 C201 1.378 . S
C201 C200 1.378 . S
C201 C202 1.378 . S
C202 H187 0.940 . S
C202 C201 1.378 . S
C202 C203 1.396 . S
C203 H188 0.940 . S
C203 C198 1.391 . S
C203 C202 1.396 . S
C204 P184 1.803 1_655 S
C204 C205 1.378 . S
C204 C209 1.400 . S
C205 H189 0.939 . S
C205 C204 1.378 . S
C205 C206 1.361 . S
C206 H190 0.942 . S
C206 C205 1.361 . S
C206 C207 1.369 . S
C207 C206 1.369 . S
C207 C208 1.404 . S
C208 H191 0.940 . S
C208 C207 1.404 . S
C208 C209 1.389 . S
C209 H192 0.939 . S
C209 C204 1.400 . S
C209 C208 1.389 . S
C210 P184 1.819 . S
C210 C211 1.391 . S
C210 C215 1.391 1_455 S
C211 H193 0.941 . S
C211 C210 1.391 . S
C211 C212 1.396 . S
C212 H196 0.939 . S
C212 C211 1.396 . S
C212 C213 1.397 . S
C213 C212 1.397 . S
C213 C214 1.385 1_455 S
C214 H197 0.940 . S
C214 C213 1.385 1_655 S
C214 C215 1.388 . S
C215 H194 0.939 . S
C215 C210 1.391 1_655 S
C215 C214 1.388 . S
P216 O227 1.490 . S
P216 C230 1.812 . S
P216 C236 1.803 1_455 S
P216 C242 1.819 . S
H217 C231 0.941 . S
H218 C232 0.939 . S
H219 C234 0.940 . S
H220 C235 0.940 . S
H221 C237 0.939 . S
H222 C238 0.942 . S
H223 C240 0.940 . S
H224 C241 0.939 . S
H225 C243 0.941 . S
H226 C247 0.939 . S
O227 P216 1.490 . S
H228 C244 0.939 . S
H229 C246 0.940 . S
C230 P216 1.812 . S
C230 C231 1.389 . S
C230 C235 1.391 . S
C231 H217 0.941 . S
C231 C230 1.389 . S
C231 C232 1.397 . S
C232 H218 0.939 . S
C232 C231 1.397 . S
C232 C233 1.378 . S
C233 C232 1.378 . S
C233 C234 1.378 . S
C234 H219 0.940 . S
C234 C233 1.378 . S
C234 C235 1.396 . S
C235 H220 0.940 . S
C235 C230 1.391 . S
C235 C234 1.396 . S
C236 P216 1.803 1_655 S
C236 C237 1.378 . S
C236 C241 1.400 . S
C237 H221 0.939 . S
C237 C236 1.378 . S
C237 C238 1.361 . S
C238 H222 0.942 . S
C238 C237 1.361 . S
C238 C239 1.369 . S
C239 C238 1.369 . S
C239 C240 1.404 . S
C240 H223 0.940 . S
C240 C239 1.404 . S
C240 C241 1.389 . S
C241 H224 0.939 . S
C241 C236 1.400 . S
C241 C240 1.389 . S
C242 P216 1.819 . S
C242 C243 1.391 . S
C242 C247 1.391 1_455 S
C243 H225 0.941 . S
C243 C242 1.391 . S
C243 C244 1.396 . S
C244 H228 0.939 . S
C244 C243 1.396 . S
C244 C245 1.397 . S
C245 C244 1.397 . S
C245 C246 1.385 1_455 S
C246 H229 0.940 . S
C246 C245 1.385 1_655 S
C246 C247 1.388 . S
C247 H226 0.939 . S
C247 C242 1.391 1_655 S
C247 C246 1.388 . S
P248 O259 1.490 . S
P248 C262 1.812 . S
P248 C268 1.803 1_545 S
P248 C274 1.819 . S
H249 C263 0.941 . S
H250 C264 0.939 . S
H251 C266 0.940 . S
H252 C267 0.940 . S
H253 C269 0.939 . S
H254 C270 0.942 . S
H255 C272 0.940 . S
H256 C273 0.939 . S
H257 C275 0.941 . S
H258 C279 0.939 . S
O259 P248 1.490 . S
H260 C276 0.939 . S
H261 C278 0.940 . S
C262 P248 1.812 . S
C262 C263 1.389 . S
C262 C267 1.391 . S
C263 H249 0.941 . S
C263 C262 1.389 . S
C263 C264 1.397 . S
C264 H250 0.939 . S
C264 C263 1.397 . S
C264 C265 1.378 . S
C265 C264 1.378 . S
C265 C266 1.378 . S
C266 H251 0.940 . S
C266 C265 1.378 . S
C266 C267 1.396 . S
C267 H252 0.940 . S
C267 C262 1.391 . S
C267 C266 1.396 . S
C268 P248 1.803 1_565 S
C268 C269 1.378 . S
C268 C273 1.400 . S
C269 H253 0.939 . S
C269 C268 1.378 . S
C269 C270 1.361 . S
C270 H254 0.942 . S
C270 C269 1.361 . S
C270 C271 1.369 . S
C271 C270 1.369 . S
C271 C272 1.404 . S
C272 H255 0.940 . S
C272 C271 1.404 . S
C272 C273 1.389 . S
C273 H256 0.939 . S
C273 C268 1.400 . S
C273 C272 1.389 . S
C274 P248 1.819 . S
C274 C275 1.391 . S
C274 C279 1.391 1_545 S
C275 H257 0.941 . S
C275 C274 1.391 . S
C275 C276 1.396 . S
C276 H260 0.939 . S
C276 C275 1.396 . S
C276 C277 1.397 . S
C277 C276 1.397 . S
C277 C278 1.385 1_545 S
C278 H261 0.940 . S
C278 C277 1.385 1_565 S
C278 C279 1.388 . S
C279 H258 0.939 . S
C279 C274 1.391 1_565 S
C279 C278 1.388 . S
P280 O291 1.490 . S
P280 C294 1.812 . S
P280 C300 1.803 . S
P280 C306 1.819 . S
H281 C295 0.941 . S
H282 C296 0.939 . S
H283 C298 0.940 . S
H284 C299 0.940 . S
H285 C301 0.939 . S
H286 C302 0.942 . S
H287 C304 0.940 . S
H288 C305 0.939 . S
H289 C307 0.941 . S
H290 C311 0.939 . S
O291 P280 1.490 . S
H292 C308 0.939 . S
H293 C310 0.940 . S
C294 P280 1.812 . S
C294 C295 1.389 . S
C294 C299 1.391 . S
C295 H281 0.941 . S
C295 C294 1.389 . S
C295 C296 1.397 . S
C296 H282 0.939 . S
C296 C295 1.397 . S
C296 C297 1.378 . S
C297 C296 1.378 . S
C297 C298 1.378 . S
C298 H283 0.940 . S
C298 C297 1.378 . S
C298 C299 1.396 . S
C299 H284 0.940 . S
C299 C294 1.391 . S
C299 C298 1.396 . S
C300 P280 1.803 . S
C300 C301 1.378 . S
C300 C305 1.400 . S
C301 H285 0.939 . S
C301 C300 1.378 . S
C301 C302 1.361 . S
C302 H286 0.942 . S
C302 C301 1.361 . S
C302 C303 1.369 . S
C303 C302 1.369 . S
C303 C304 1.404 . S
C304 H287 0.940 . S
C304 C303 1.404 . S
C304 C305 1.389 . S
C305 H288 0.939 . S
C305 C300 1.400 . S
C305 C304 1.389 . S
C306 P280 1.819 . S
C306 C307 1.391 . S
C306 C311 1.391 . S
C307 H289 0.941 . S
C307 C306 1.391 . S
C307 C308 1.396 . S
C308 H292 0.939 . S
C308 C307 1.396 . S
C308 C309 1.397 . S
C309 C308 1.397 . S
C309 C310 1.385 . S
C310 H293 0.940 . S
C310 C309 1.385 . S
C310 C311 1.388 . S
C311 H290 0.939 . S
C311 C306 1.391 . S
C311 C310 1.388 . S
H312 C324 0.930 . S
H313 C326 0.930 . S
H314 C327 0.930 . S
H315 C331 0.959 . S
H316 C331 0.959 . S
H317 C331 0.961 . S
H318 C332 0.960 . S
H319 C332 0.961 . S
H320 C332 0.959 . S
H321 C335 0.929 . S
H322 C336 0.931 . S
H323 C338 0.930 . S
C324 H312 0.930 . S
C324 C325 1.399 . S
C324 C329 1.399 . S
C325 C324 1.399 . S
C325 C326 1.376 . S
C326 H313 0.930 . S
C326 C325 1.376 . S
C326 C327 1.388 . S
C327 H314 0.930 . S
C327 C326 1.388 . S
C327 C328 1.390 . S
C328 C327 1.390 . S
C328 C329 1.394 . S
C328 C334 1.465 . S
C329 C324 1.399 . S
C329 C328 1.394 . S
C329 C330 1.516 . S
C330 C329 1.516 . S
C330 C331 1.502 . S
C330 C332 1.561 . S
C330 C333 1.526 . S
C331 H315 0.959 . S
C331 H316 0.959 . S
C331 H317 0.961 . S
C331 C330 1.502 . S
C332 H318 0.960 . S
C332 H319 0.961 . S
C332 H320 0.959 . S
C332 C330 1.561 . S
C333 C330 1.526 . S
C333 C334 1.396 . S
C333 C338 1.390 . S
C334 C328 1.465 . S
C334 C333 1.396 . S
C334 C335 1.399 . S
C335 H321 0.929 . S
C335 C334 1.399 . S
C335 C336 1.385 . S
C336 H322 0.931 . S
C336 C335 1.385 . S
C336 C337 1.389 . S
C337 C336 1.389 . S
C337 C338 1.387 . S
C338 H323 0.930 . S
C338 C333 1.390 . S
C338 C337 1.387 . S
H339 C351 0.930 . S
H340 C353 0.930 . S
H341 C354 0.930 . S
H342 C358 0.959 . S
H343 C358 0.959 . S
H344 C358 0.961 . S
H345 C359 0.960 . S
H346 C359 0.961 . S
H347 C359 0.959 . S
H348 C362 0.929 . S
H349 C363 0.931 . S
H350 C365 0.930 . S
C351 H339 0.930 . S
C351 C352 1.399 . S
C351 C356 1.399 . S
C352 C351 1.399 . S
C352 C353 1.376 . S
C353 H340 0.930 . S
C353 C352 1.376 . S
C353 C354 1.388 . S
C354 H341 0.930 . S
C354 C353 1.388 . S
C354 C355 1.390 . S
C355 C354 1.390 . S
C355 C356 1.394 . S
C355 C361 1.465 . S
C356 C351 1.399 . S
C356 C355 1.394 . S
C356 C357 1.516 . S
C357 C356 1.516 . S
C357 C358 1.502 . S
C357 C359 1.561 . S
C357 C360 1.526 . S
C358 H342 0.959 . S
C358 H343 0.959 . S
C358 H344 0.961 . S
C358 C357 1.502 . S
C359 H345 0.960 . S
C359 H346 0.961 . S
C359 H347 0.959 . S
C359 C357 1.561 . S
C360 C357 1.526 . S
C360 C361 1.396 . S
C360 C365 1.390 . S
C361 C355 1.465 . S
C361 C360 1.396 . S
C361 C362 1.399 . S
C362 H348 0.929 . S
C362 C361 1.399 . S
C362 C363 1.385 . S
C363 H349 0.931 . S
C363 C362 1.385 . S
C363 C364 1.389 . S
C364 C363 1.389 . S
C364 C365 1.387 . S
C365 H350 0.930 . S
C365 C360 1.390 . S
C365 C364 1.387 . S
H366 C378 0.930 . S
H367 C380 0.930 . S
H368 C381 0.930 . S
H369 C385 0.959 . S
H370 C385 0.959 . S
H371 C385 0.961 . S
H372 C386 0.960 . S
H373 C386 0.961 . S
H374 C386 0.959 . S
H375 C389 0.929 . S
H376 C390 0.931 . S
H377 C392 0.930 . S
C378 H366 0.930 . S
C378 C379 1.399 . S
C378 C383 1.399 . S
C379 C378 1.399 . S
C379 C380 1.376 . S
C380 H367 0.930 . S
C380 C379 1.376 . S
C380 C381 1.388 . S
C381 H368 0.930 . S
C381 C380 1.388 . S
C381 C382 1.390 . S
C382 C381 1.390 . S
C382 C383 1.394 . S
C382 C388 1.465 . S
C383 C378 1.399 . S
C383 C382 1.394 . S
C383 C384 1.516 . S
C384 C383 1.516 . S
C384 C385 1.502 . S
C384 C386 1.561 . S
C384 C387 1.526 . S
C385 H369 0.959 . S
C385 H370 0.959 . S
C385 H371 0.961 . S
C385 C384 1.502 . S
C386 H372 0.960 . S
C386 H373 0.961 . S
C386 H374 0.959 . S
C386 C384 1.561 . S
C387 C384 1.526 . S
C387 C388 1.396 . S
C387 C392 1.390 . S
C388 C382 1.465 . S
C388 C387 1.396 . S
C388 C389 1.399 . S
C389 H375 0.929 . S
C389 C388 1.399 . S
C389 C390 1.385 . S
C390 H376 0.931 . S
C390 C389 1.385 . S
C390 C391 1.389 . S
C391 C390 1.389 . S
C391 C392 1.387 . S
C392 H377 0.930 . S
C392 C387 1.390 . S
C392 C391 1.387 . S
H393 C405 0.930 . S
H394 C407 0.930 . S
H395 C408 0.930 . S
H396 C412 0.959 . S
H397 C412 0.959 . S
H398 C412 0.961 . S
H399 C413 0.960 . S
H400 C413 0.961 . S
H401 C413 0.959 . S
H402 C416 0.929 . S
H403 C417 0.931 . S
H404 C419 0.930 . S
C405 H393 0.930 . S
C405 C406 1.399 . S
C405 C410 1.399 . S
C406 C405 1.399 . S
C406 C407 1.376 . S
C407 H394 0.930 . S
C407 C406 1.376 . S
C407 C408 1.388 . S
C408 H395 0.930 . S
C408 C407 1.388 . S
C408 C409 1.390 . S
C409 C408 1.390 . S
C409 C410 1.394 . S
C409 C415 1.465 . S
C410 C405 1.399 . S
C410 C409 1.394 . S
C410 C411 1.516 . S
C411 C410 1.516 . S
C411 C412 1.502 . S
C411 C413 1.561 . S
C411 C414 1.526 . S
C412 H396 0.959 . S
C412 H397 0.959 . S
C412 H398 0.961 . S
C412 C411 1.502 . S
C413 H399 0.960 . S
C413 H400 0.961 . S
C413 H401 0.959 . S
C413 C411 1.561 . S
C414 C411 1.526 . S
C414 C415 1.396 . S
C414 C419 1.390 . S
C415 C409 1.465 . S
C415 C414 1.396 . S
C415 C416 1.399 . S
C416 H402 0.929 . S
C416 C415 1.399 . S
C416 C417 1.385 . S
C417 H403 0.931 . S
C417 C416 1.385 . S
C417 C418 1.389 . S
C418 C417 1.389 . S
C418 C419 1.387 . S
C419 H404 0.930 . S
C419 C414 1.390 . S
C419 C418 1.387 . S
H420 C432 0.930 . S
H421 C434 0.930 . S
H422 C435 0.930 . S
H423 C439 0.959 . S
H424 C439 0.959 . S
H425 C439 0.961 . S
H426 C440 0.960 . S
H427 C440 0.961 . S
H428 C440 0.959 . S
H429 C443 0.929 . S
H430 C444 0.931 . S
H431 C446 0.930 . S
C432 H420 0.930 . S
C432 C433 1.399 . S
C432 C437 1.399 . S
C433 C432 1.399 . S
C433 C434 1.376 . S
C434 H421 0.930 . S
C434 C433 1.376 . S
C434 C435 1.388 . S
C435 H422 0.930 . S
C435 C434 1.388 . S
C435 C436 1.390 . S
C436 C435 1.390 . S
C436 C437 1.394 . S
C436 C442 1.465 . S
C437 C432 1.399 . S
C437 C436 1.394 . S
C437 C438 1.516 . S
C438 C437 1.516 . S
C438 C439 1.502 . S
C438 C440 1.561 . S
C438 C441 1.526 . S
C439 H423 0.959 . S
C439 H424 0.959 . S
C439 H425 0.961 . S
C439 C438 1.502 . S
C440 H426 0.960 . S
C440 H427 0.961 . S
C440 H428 0.959 . S
C440 C438 1.561 . S
C441 C438 1.526 . S
C441 C442 1.396 . S
C441 C446 1.390 . S
C442 C436 1.465 . S
C442 C441 1.396 . S
C442 C443 1.399 . S
C443 H429 0.929 . S
C443 C442 1.399 . S
C443 C444 1.385 . S
C444 H430 0.931 . S
C444 C443 1.385 . S
C444 C445 1.389 . S
C445 C444 1.389 . S
C445 C446 1.387 . S
C446 H431 0.930 . S
C446 C441 1.390 . S
C446 C445 1.387 . S
H447 C459 0.930 . S
H448 C461 0.930 . S
H449 C462 0.930 . S
H450 C466 0.959 . S
H451 C466 0.959 . S
H452 C466 0.961 . S
H453 C467 0.960 . S
H454 C467 0.961 . S
H455 C467 0.959 . S
H456 C470 0.929 . S
H457 C471 0.931 . S
H458 C473 0.930 . S
C459 H447 0.930 . S
C459 C460 1.399 . S
C459 C464 1.399 . S
C460 C459 1.399 . S
C460 C461 1.376 . S
C461 H448 0.930 . S
C461 C460 1.376 . S
C461 C462 1.388 . S
C462 H449 0.930 . S
C462 C461 1.388 . S
C462 C463 1.390 . S
C463 C462 1.390 . S
C463 C464 1.394 . S
C463 C469 1.465 . S
C464 C459 1.399 . S
C464 C463 1.394 . S
C464 C465 1.516 . S
C465 C464 1.516 . S
C465 C466 1.502 . S
C465 C467 1.561 . S
C465 C468 1.526 . S
C466 H450 0.959 . S
C466 H451 0.959 . S
C466 H452 0.961 . S
C466 C465 1.502 . S
C467 H453 0.960 . S
C467 H454 0.961 . S
C467 H455 0.959 . S
C467 C465 1.561 . S
C468 C465 1.526 . S
C468 C469 1.396 . S
C468 C473 1.390 . S
C469 C463 1.465 . S
C469 C468 1.396 . S
C469 C470 1.399 . S
C470 H456 0.929 . S
C470 C469 1.399 . S
C470 C471 1.385 . S
C471 H457 0.931 . S
C471 C470 1.385 . S
C471 C472 1.389 . S
C472 C471 1.389 . S
C472 C473 1.387 . S
C473 H458 0.930 . S
C473 C468 1.390 . S
C473 C472 1.387 . S
H474 C486 0.930 . S
H475 C488 0.930 . S
H476 C489 0.930 . S
H477 C493 0.959 . S
H478 C493 0.959 . S
H479 C493 0.961 . S
H480 C494 0.960 . S
H481 C494 0.961 . S
H482 C494 0.959 . S
H483 C497 0.929 . S
H484 C498 0.931 . S
H485 C500 0.930 . S
C486 H474 0.930 . S
C486 C487 1.399 . S
C486 C491 1.399 . S
C487 C486 1.399 . S
C487 C488 1.376 . S
C488 H475 0.930 . S
C488 C487 1.376 . S
C488 C489 1.388 . S
C489 H476 0.930 . S
C489 C488 1.388 . S
C489 C490 1.390 . S
C490 C489 1.390 . S
C490 C491 1.394 . S
C490 C496 1.465 . S
C491 C486 1.399 . S
C491 C490 1.394 . S
C491 C492 1.516 . S
C492 C491 1.516 . S
C492 C493 1.502 . S
C492 C494 1.561 . S
C492 C495 1.526 . S
C493 H477 0.959 . S
C493 H478 0.959 . S
C493 H479 0.961 . S
C493 C492 1.502 . S
C494 H480 0.960 . S
C494 H481 0.961 . S
C494 H482 0.959 . S
C494 C492 1.561 . S
C495 C492 1.526 . S
C495 C496 1.396 . S
C495 C500 1.390 . S
C496 C490 1.465 . S
C496 C495 1.396 . S
C496 C497 1.399 . S
C497 H483 0.929 . S
C497 C496 1.399 . S
C497 C498 1.385 . S
C498 H484 0.931 . S
C498 C497 1.385 . S
C498 C499 1.389 . S
C499 C498 1.389 . S
C499 C500 1.387 . S
C500 H485 0.930 . S
C500 C495 1.390 . S
C500 C499 1.387 . S
H501 C513 0.930 . S
H502 C515 0.930 . S
H503 C516 0.930 . S
H504 C520 0.959 . S
H505 C520 0.959 . S
H506 C520 0.961 . S
H507 C521 0.960 . S
H508 C521 0.961 . S
H509 C521 0.959 . S
H510 C524 0.929 . S
H511 C525 0.931 . S
H512 C527 0.930 . S
C513 H501 0.930 . S
C513 C514 1.399 . S
C513 C518 1.399 . S
C514 C513 1.399 . S
C514 C515 1.376 . S
C515 H502 0.930 . S
C515 C514 1.376 . S
C515 C516 1.388 . S
C516 H503 0.930 . S
C516 C515 1.388 . S
C516 C517 1.390 . S
C517 C516 1.390 . S
C517 C518 1.394 . S
C517 C523 1.465 . S
C518 C513 1.399 . S
C518 C517 1.394 . S
C518 C519 1.516 . S
C519 C518 1.516 . S
C519 C520 1.502 . S
C519 C521 1.561 . S
C519 C522 1.526 . S
C520 H504 0.959 . S
C520 H505 0.959 . S
C520 H506 0.961 . S
C520 C519 1.502 . S
C521 H507 0.960 . S
C521 H508 0.961 . S
C521 H509 0.959 . S
C521 C519 1.561 . S
C522 C519 1.526 . S
C522 C523 1.396 . S
C522 C527 1.390 . S
C523 C517 1.465 . S
C523 C522 1.396 . S
C523 C524 1.399 . S
C524 H510 0.929 . S
C524 C523 1.399 . S
C524 C525 1.385 . S
C525 H511 0.931 . S
C525 C524 1.385 . S
C525 C526 1.389 . S
C526 C525 1.389 . S
C526 C527 1.387 . S
C527 H512 0.930 . S
C527 C522 1.390 . S
C527 C526 1.387 . S
H528 C540 0.930 . S
H529 C542 0.930 . S
H530 C543 0.930 . S
H531 C547 0.959 . S
H532 C547 0.959 . S
H533 C547 0.961 . S
H534 C548 0.960 . S
H535 C548 0.961 . S
H536 C548 0.959 . S
H537 C551 0.929 . S
H538 C552 0.931 . S
H539 C554 0.930 . S
C540 H528 0.930 . S
C540 C541 1.399 . S
C540 C545 1.399 . S
C541 C540 1.399 . S
C541 C542 1.376 . S
C542 H529 0.930 . S
C542 C541 1.376 . S
C542 C543 1.388 . S
C543 H530 0.930 . S
C543 C542 1.388 . S
C543 C544 1.390 . S
C544 C543 1.390 . S
C544 C545 1.394 . S
C544 C550 1.465 . S
C545 C540 1.399 . S
C545 C544 1.394 . S
C545 C546 1.516 . S
C546 C545 1.516 . S
C546 C547 1.502 . S
C546 C548 1.561 . S
C546 C549 1.526 . S
C547 H531 0.959 . S
C547 H532 0.959 . S
C547 H533 0.961 . S
C547 C546 1.502 . S
C548 H534 0.960 . S
C548 H535 0.961 . S
C548 H536 0.959 . S
C548 C546 1.561 . S
C549 C546 1.526 . S
C549 C550 1.396 . S
C549 C554 1.390 . S
C550 C544 1.465 . S
C550 C549 1.396 . S
C550 C551 1.399 . S
C551 H537 0.929 . S
C551 C550 1.399 . S
C551 C552 1.385 . S
C552 H538 0.931 . S
C552 C551 1.385 . S
C552 C553 1.389 . S
C553 C552 1.389 . S
C553 C554 1.387 . S
C554 H539 0.930 . S
C554 C549 1.390 . S
C554 C553 1.387 . S
H555 C567 0.930 . S
H556 C569 0.930 . S
H557 C570 0.930 . S
H558 C574 0.959 . S
H559 C574 0.959 . S
H560 C574 0.961 . S
H561 C575 0.960 . S
H562 C575 0.961 . S
H563 C575 0.959 . S
H564 C578 0.929 . S
H565 C579 0.931 . S
H566 C581 0.930 . S
C567 H555 0.930 . S
C567 C568 1.399 . S
C567 C572 1.399 . S
C568 C567 1.399 . S
C568 C569 1.376 . S
C569 H556 0.930 . S
C569 C568 1.376 . S
C569 C570 1.388 . S
C570 H557 0.930 . S
C570 C569 1.388 . S
C570 C571 1.390 . S
C571 C570 1.390 . S
C571 C572 1.394 . S
C571 C577 1.465 . S
C572 C567 1.399 . S
C572 C571 1.394 . S
C572 C573 1.516 . S
C573 C572 1.516 . S
C573 C574 1.502 . S
C573 C575 1.561 . S
C573 C576 1.526 . S
C574 H558 0.959 . S
C574 H559 0.959 . S
C574 H560 0.961 . S
C574 C573 1.502 . S
C575 H561 0.960 . S
C575 H562 0.961 . S
C575 H563 0.959 . S
C575 C573 1.561 . S
C576 C573 1.526 . S
C576 C577 1.396 . S
C576 C581 1.390 . S
C577 C571 1.465 . S
C577 C576 1.396 . S
C577 C578 1.399 . S
C578 H564 0.929 . S
C578 C577 1.399 . S
C578 C579 1.385 . S
C579 H565 0.931 . S
C579 C578 1.385 . S
C579 C580 1.389 . S
C580 C579 1.389 . S
C580 C581 1.387 . S
C581 H566 0.930 . S
C581 C576 1.390 . S
C581 C580 1.387 . S
H582 C594 0.930 . S
H583 C596 0.930 . S
H584 C597 0.930 . S
H585 C601 0.959 . S
H586 C601 0.959 . S
H587 C601 0.961 . S
H588 C602 0.960 . S
H589 C602 0.961 . S
H590 C602 0.959 . S
H591 C605 0.929 . S
H592 C606 0.931 . S
H593 C608 0.930 . S
C594 H582 0.930 . S
C594 C595 1.399 . S
C594 C599 1.399 . S
C595 C594 1.399 . S
C595 C596 1.376 . S
C596 H583 0.930 . S
C596 C595 1.376 . S
C596 C597 1.388 . S
C597 H584 0.930 . S
C597 C596 1.388 . S
C597 C598 1.390 . S
C598 C597 1.390 . S
C598 C599 1.394 . S
C598 C604 1.465 . S
C599 C594 1.399 . S
C599 C598 1.394 . S
C599 C600 1.516 . S
C600 C599 1.516 . S
C600 C601 1.502 . S
C600 C602 1.561 . S
C600 C603 1.526 . S
C601 H585 0.959 . S
C601 H586 0.959 . S
C601 H587 0.961 . S
C601 C600 1.502 . S
C602 H588 0.960 . S
C602 H589 0.961 . S
C602 H590 0.959 . S
C602 C600 1.561 . S
C603 C600 1.526 . S
C603 C604 1.396 . S
C603 C608 1.390 . S
C604 C598 1.465 . S
C604 C603 1.396 . S
C604 C605 1.399 . S
C605 H591 0.929 . S
C605 C604 1.399 . S
C605 C606 1.385 . S
C606 H592 0.931 . S
C606 C605 1.385 . S
C606 C607 1.389 . S
C607 C606 1.389 . S
C607 C608 1.387 . S
C608 H593 0.930 . S
C608 C603 1.390 . S
C608 C607 1.387 . S
H609 C621 0.930 . S
H610 C623 0.930 . S
H611 C624 0.930 . S
H612 C628 0.959 . S
H613 C628 0.959 . S
H614 C628 0.961 . S
H615 C629 0.960 . S
H616 C629 0.961 . S
H617 C629 0.959 . S
H618 C632 0.929 . S
H619 C633 0.931 . S
H620 C635 0.930 . S
C621 H609 0.930 . S
C621 C622 1.399 . S
C621 C626 1.399 . S
C622 C621 1.399 . S
C622 C623 1.376 . S
C623 H610 0.930 . S
C623 C622 1.376 . S
C623 C624 1.388 . S
C624 H611 0.930 . S
C624 C623 1.388 . S
C624 C625 1.390 . S
C625 C624 1.390 . S
C625 C626 1.394 . S
C625 C631 1.465 . S
C626 C621 1.399 . S
C626 C625 1.394 . S
C626 C627 1.516 . S
C627 C626 1.516 . S
C627 C628 1.502 . S
C627 C629 1.561 . S
C627 C630 1.526 . S
C628 H612 0.959 . S
C628 H613 0.959 . S
C628 H614 0.961 . S
C628 C627 1.502 . S
C629 H615 0.960 . S
C629 H616 0.961 . S
C629 H617 0.959 . S
C629 C627 1.561 . S
C630 C627 1.526 . S
C630 C631 1.396 . S
C630 C635 1.390 . S
C631 C625 1.465 . S
C631 C630 1.396 . S
C631 C632 1.399 . S
C632 H618 0.929 . S
C632 C631 1.399 . S
C632 C633 1.385 . S
C633 H619 0.931 . S
C633 C632 1.385 . S
C633 C634 1.389 . S
C634 C633 1.389 . S
C634 C635 1.387 . S
C635 H620 0.930 . S
C635 C630 1.390 . S
C635 C634 1.387 . S
H636 C648 0.930 1_655 S
H637 C650 0.930 . S
H638 C651 0.930 . S
H639 C655 0.959 . S
H640 C655 0.959 . S
H641 C655 0.961 . S
H642 C656 0.960 . S
H643 C656 0.961 . S
H644 C656 0.959 . S
H645 C659 0.929 . S
H646 C660 0.931 1_556 S
H647 C662 0.916 1_556 S
C648 H636 0.930 1_455 S
C648 C649 1.399 . S
C648 C653 1.399 . S
C649 C648 1.399 . S
C649 C650 1.376 . S
C650 H637 0.930 . S
C650 C649 1.376 . S
C650 C651 1.388 . S
C651 H638 0.930 . S
C651 C650 1.388 . S
C651 C652 1.390 . S
C652 C651 1.390 . S
C652 C653 1.394 . S
C652 C658 1.465 . S
C653 C648 1.399 . S
C653 C652 1.394 . S
C653 C654 1.516 1_455 S
C654 C653 1.516 1_655 S
C654 C655 1.502 1_655 S
C654 C656 1.561 . S
C654 C657 1.526 1_655 S
C655 H639 0.959 . S
C655 H640 0.959 . S
C655 H641 0.961 . S
C655 C654 1.502 1_455 S
C656 H642 0.960 . S
C656 H643 0.961 . S
C656 H644 0.959 . S
C656 C654 1.561 . S
C657 C654 1.526 1_455 S
C657 C658 1.396 . S
C657 C662 1.390 . S
C658 C652 1.465 . S
C658 C657 1.396 . S
C658 C659 1.399 . S
C659 H645 0.929 . S
C659 C658 1.399 . S
C659 C660 1.385 . S
C660 H646 0.931 1_554 S
C660 C659 1.385 . S
C660 C661 1.389 1_554 S
C661 C660 1.389 1_556 S
C661 C662 1.387 1_556 S
C662 H647 0.916 1_554 S
C662 C657 1.390 . S
C662 C661 1.387 1_554 S
H663 C675 0.930 . S
H664 C677 0.930 . S
H665 C678 0.930 . S
H666 C682 0.959 . S
H667 C682 0.959 . S
H668 C682 0.961 . S
H669 C683 0.960 . S
H670 C683 0.961 . S
H671 C683 0.959 . S
H672 C686 0.929 . S
H673 C687 0.931 1_565 S
H674 C689 0.930 . S
C675 H663 0.930 . S
C675 C676 1.399 . S
C675 C680 1.399 . S
C676 C675 1.399 . S
C676 C677 1.376 1_545 S
C677 H664 0.930 . S
C677 C676 1.376 1_565 S
C677 C678 1.388 . S
C678 H665 0.930 . S
C678 C677 1.388 . S
C678 C679 1.390 1_565 S
C679 C678 1.390 1_545 S
C679 C680 1.394 . S
C679 C685 1.465 . S
C680 C675 1.399 . S
C680 C679 1.394 . S
C680 C681 1.516 . S
C681 C680 1.516 . S
C681 C682 1.502 . S
C681 C683 1.561 . S
C681 C684 1.526 . S
C682 H666 0.959 . S
C682 H667 0.959 . S
C682 H668 0.961 . S
C682 C681 1.502 . S
C683 H669 0.960 . S
C683 H670 0.961 . S
C683 H671 0.959 . S
C683 C681 1.561 . S
C684 C681 1.526 . S
C684 C685 1.396 . S
C684 C689 1.390 . S
C685 C679 1.465 . S
C685 C684 1.396 . S
C685 C686 1.399 1_545 S
C686 H672 0.929 . S
C686 C685 1.399 1_565 S
C686 C687 1.385 1_565 S
C687 H673 0.931 1_545 S
C687 C686 1.385 1_545 S
C687 C688 1.389 . S
C688 C687 1.389 . S
C688 C689 1.387 . S
C689 H674 0.930 . S
C689 C684 1.390 . S
C689 C688 1.387 . S
H690 C702 0.930 . S
H691 C704 0.930 . S
H692 C705 0.930 . S
H693 C709 0.959 . S
H694 C709 0.959 . S
H695 C709 0.961 . S
H696 C710 0.960 . S
H697 C710 0.961 . S
H698 C710 0.959 . S
H699 C713 0.929 . S
H700 C714 0.931 . S
H701 C716 0.930 . S
C702 H690 0.930 . S
C702 C703 1.399 . S
C702 C707 1.399 . S
C703 C702 1.399 . S
C703 C704 1.376 . S
C704 H691 0.930 . S
C704 C703 1.376 . S
C704 C705 1.388 . S
C705 H692 0.930 . S
C705 C704 1.388 . S
C705 C706 1.390 . S
C706 C705 1.390 . S
C706 C707 1.394 . S
C706 C712 1.465 . S
C707 C702 1.399 . S
C707 C706 1.394 . S
C707 C708 1.516 . S
C708 C707 1.516 . S
C708 C709 1.502 . S
C708 C710 1.561 . S
C708 C711 1.526 . S
C709 H693 0.959 . S
C709 H694 0.959 . S
C709 H695 0.961 . S
C709 C708 1.502 . S
C710 H696 0.960 . S
C710 H697 0.961 . S
C710 H698 0.959 . S
C710 C708 1.561 . S
C711 C708 1.526 . S
C711 C712 1.396 . S
C711 C716 1.390 . S
C712 C706 1.465 . S
C712 C711 1.396 . S
C712 C713 1.399 . S
C713 H699 0.929 . S
C713 C712 1.399 . S
C713 C714 1.385 . S
C714 H700 0.931 . S
C714 C713 1.385 . S
C714 C715 1.389 . S
C715 C714 1.389 . S
C715 C716 1.387 . S
C716 H701 0.930 . S
C716 C711 1.390 . S
C716 C715 1.387 . S
H717 C729 0.930 . S
H718 C731 0.930 . S
H719 C732 0.930 . S
H720 C736 0.959 . S
H721 C736 0.959 . S
H722 C736 0.961 . S
H723 C737 0.960 . S
H724 C737 0.961 . S
H725 C737 0.959 . S
H726 C740 0.929 . S
H727 C741 0.931 . S
H728 C743 0.930 . S
C729 H717 0.930 . S
C729 C730 1.399 1_565 S
C729 C734 1.399 . S
C730 C729 1.399 1_545 S
C730 C731 1.376 . S
C731 H718 0.930 . S
C731 C730 1.376 . S
C731 C732 1.388 . S
C732 H719 0.930 . S
C732 C731 1.388 . S
C732 C733 1.390 . S
C733 C732 1.390 . S
C733 C734 1.394 1_545 S
C733 C739 1.465 . S
C734 C729 1.399 . S
C734 C733 1.394 1_565 S
C734 C735 1.516 . S
C735 C734 1.516 . S
C735 C736 1.502 . S
C735 C737 1.561 . S
C735 C738 1.526 . S
C736 H720 0.959 . S
C736 H721 0.959 . S
C736 H722 0.961 . S
C736 C735 1.502 . S
C737 H723 0.960 . S
C737 H724 0.961 . S
C737 H725 0.959 . S
C737 C735 1.561 . S
C738 C735 1.526 . S
C738 C739 1.396 1_565 S
C738 C743 1.390 . S
C739 C733 1.465 . S
C739 C738 1.396 1_545 S
C739 C740 1.399 . S
C740 H726 0.929 . S
C740 C739 1.399 . S
C740 C741 1.385 . S
C741 H727 0.931 . S
C741 C740 1.385 . S
C741 C742 1.389 . S
C742 C741 1.389 . S
C742 C743 1.387 1_545 S
C743 H728 0.930 . S
C743 C738 1.390 . S
C743 C742 1.387 1_565 S
H744 C756 0.930 . S
H745 C758 0.930 . S
H746 C759 0.930 . S
H747 C763 0.959 . S
H748 C763 0.959 . S
H749 C763 0.961 . S
H750 C764 0.960 . S
H751 C764 0.961 . S
H752 C764 0.959 . S
H753 C767 0.929 . S
H754 C768 0.931 . S
H755 C770 0.930 1_554 S
C756 H744 0.930 . S
C756 C757 1.399 . S
C756 C761 1.399 . S
C757 C756 1.399 . S
C757 C758 1.376 . S
C758 H745 0.930 . S
C758 C757 1.376 . S
C758 C759 1.388 . S
C759 H746 0.930 . S
C759 C758 1.388 . S
C759 C760 1.390 . S
C760 C759 1.390 . S
C760 C761 1.394 . S
C760 C766 1.465 . S
C761 C756 1.399 . S
C761 C760 1.394 . S
C761 C762 1.516 . S
C762 C761 1.516 . S
C762 C763 1.502 . S
C762 C764 1.561 . S
C762 C765 1.526 . S
C763 H747 0.959 . S
C763 H748 0.959 . S
C763 H749 0.961 . S
C763 C762 1.502 . S
C764 H750 0.960 . S
C764 H751 0.961 . S
C764 H752 0.959 . S
C764 C762 1.561 . S
C765 C762 1.526 . S
C765 C766 1.396 . S
C765 C770 1.390 . S
C766 C760 1.465 . S
C766 C765 1.396 . S
C766 C767 1.399 . S
C767 H753 0.929 . S
C767 C766 1.399 . S
C767 C768 1.385 1_556 S
C768 H754 0.931 . S
C768 C767 1.385 1_554 S
C768 C769 1.389 . S
C769 C768 1.389 . S
C769 C770 1.387 1_554 S
C770 H755 0.930 1_556 S
C770 C765 1.390 . S
C770 C769 1.387 1_556 S
H771 C783 0.930 . S
H772 C785 0.930 . S
H773 C786 0.930 . S
H774 C790 0.959 . S
H775 C790 0.959 . S
H776 C790 0.961 . S
H777 C791 0.960 . S
H778 C791 0.961 . S
H779 C791 0.959 1_455 S
H780 C794 0.929 . S
H781 C795 0.931 . S
H782 C797 0.930 . S
C783 H771 0.930 . S
C783 C784 1.399 1_655 S
C783 C788 1.399 . S
C784 C783 1.399 1_455 S
C784 C785 1.376 . S
C785 H772 0.930 . S
C785 C784 1.376 . S
C785 C786 1.388 . S
C786 H773 0.930 . S
C786 C785 1.388 . S
C786 C787 1.390 . S
C787 C786 1.390 . S
C787 C788 1.394 1_455 S
C787 C793 1.465 . S
C788 C783 1.399 . S
C788 C787 1.394 1_655 S
C788 C789 1.516 . S
C789 C788 1.516 . S
C789 C790 1.502 . S
C789 C791 1.561 . S
C789 C792 1.526 . S
C790 H774 0.959 . S
C790 H775 0.959 . S
C790 H776 0.961 . S
C790 C789 1.502 . S
C791 H777 0.960 . S
C791 H778 0.961 . S
C791 H779 0.959 1_655 S
C791 C789 1.561 . S
C792 C789 1.526 . S
C792 C793 1.396 1_655 S
C792 C797 1.390 . S
C793 C787 1.465 . S
C793 C792 1.396 1_455 S
C793 C794 1.399 . S
C794 H780 0.929 . S
C794 C793 1.399 . S
C794 C795 1.385 . S
C795 H781 0.931 . S
C795 C794 1.385 . S
C795 C796 1.389 . S
C796 C795 1.389 . S
C796 C797 1.387 1_455 S
C797 H782 0.930 . S
C797 C792 1.390 . S
C797 C796 1.387 1_655 S
C325 C24 2.900 . S
C337 C303 2.822 . S
C352 C66 1.165 . S
C364 C239 1.170 . S
C379 C93 1.791 . S
C391 C271 1.719 . S
C406 C13 3.044 . S
C418 C297 2.992 . S
C445 C233 1.203 . S
C433 C57 1.251 . S
C472 C265 1.865 . S
C460 C104 1.907 . S
C487 C64 1.919 . S
C499 C175 1.829 . S
C514 C97 0.434 . S
C526 C207 0.475 . S
C541 C17 1.309 . S
C553 C137 1.316 . S
C580 C169 1.740 . S
C568 C53 1.779 . S
C607 C201 0.376 . S
C595 C106 0.354 . S
C622 C26 1.129 . S
C634 C143 1.209 . S
C661 C213 1.042 . S
C649 C2 1.096 . S
C676 C63 1.452 . S
C688 C149 1.432 . S
C703 C82 1.386 . S
C715 C181 1.371 . S
C742 C277 1.337 . S
C730 C42 1.352 . S
C769 C309 1.719 . S
C757 C103 1.753 . S
C784 C23 1.437 . S
C796 C245 1.466 . S
