# Generated by pormake.
# Topology csq, (4,8)-cn, num edge types: 1
# Building blocks:
#     Node 0, Type 0, BuildingBlock: MIFKUJ_clean_linker_1, # of connection points: 4
#     Node 1, Type 0, BuildingBlock: MIFKUJ_clean_linker_1, # of connection points: 4
#     Node 2, Type 0, BuildingBlock: MIFKUJ_clean_linker_1, # of connection points: 4
#     Node 3, Type 0, BuildingBlock: MIFKUJ_clean_linker_1, # of connection points: 4
#     Node 4, Type 0, BuildingBlock: MIFKUJ_clean_linker_1, # of connection points: 4
#     Node 5, Type 0, BuildingBlock: MIFKUJ_clean_linker_1, # of connection points: 4
#     Node 6, Type 1, BuildingBlock: TAGTUT_clean_sbu_3, # of connection points: 8
#     Node 7, Type 1, BuildingBlock: TAGTUT_clean_sbu_3, # of connection points: 8
#     Node 8, Type 1, BuildingBlock: TAGTUT_clean_sbu_3, # of connection points: 8
#     Edge 9, Type (0, 1), BuildingBlock: XUDNAN_clean_linker_2, # of connection points: 2
#     Edge 10, Type (0, 1), BuildingBlock: XUDNAN_clean_linker_2, # of connection points: 2
#     Edge 11, Type (0, 1), BuildingBlock: XUDNAN_clean_linker_2, # of connection points: 2
#     Edge 12, Type (0, 1), BuildingBlock: XUDNAN_clean_linker_2, # of connection points: 2
#     Edge 13, Type (0, 1), BuildingBlock: XUDNAN_clean_linker_2, # of connection points: 2
#     Edge 14, Type (0, 1), BuildingBlock: XUDNAN_clean_linker_2, # of connection points: 2
#     Edge 15, Type (0, 1), BuildingBlock: XUDNAN_clean_linker_2, # of connection points: 2
#     Edge 16, Type (0, 1), BuildingBlock: XUDNAN_clean_linker_2, # of connection points: 2
#     Edge 17, Type (0, 1), BuildingBlock: XUDNAN_clean_linker_2, # of connection points: 2
#     Edge 18, Type (0, 1), BuildingBlock: XUDNAN_clean_linker_2, # of connection points: 2
#     Edge 19, Type (0, 1), BuildingBlock: XUDNAN_clean_linker_2, # of connection points: 2
#     Edge 20, Type (0, 1), BuildingBlock: XUDNAN_clean_linker_2, # of connection points: 2
#     Edge 21, Type (0, 1), BuildingBlock: XUDNAN_clean_linker_2, # of connection points: 2
#     Edge 22, Type (0, 1), BuildingBlock: XUDNAN_clean_linker_2, # of connection points: 2
#     Edge 23, Type (0, 1), BuildingBlock: XUDNAN_clean_linker_2, # of connection points: 2
#     Edge 24, Type (0, 1), BuildingBlock: XUDNAN_clean_linker_2, # of connection points: 2
#     Edge 25, Type (0, 1), BuildingBlock: XUDNAN_clean_linker_2, # of connection points: 2
#     Edge 26, Type (0, 1), BuildingBlock: XUDNAN_clean_linker_2, # of connection points: 2
#     Edge 27, Type (0, 1), BuildingBlock: XUDNAN_clean_linker_2, # of connection points: 2
#     Edge 28, Type (0, 1), BuildingBlock: XUDNAN_clean_linker_2, # of connection points: 2
#     Edge 29, Type (0, 1), BuildingBlock: XUDNAN_clean_linker_2, # of connection points: 2
#     Edge 30, Type (0, 1), BuildingBlock: XUDNAN_clean_linker_2, # of connection points: 2
#     Edge 31, Type (0, 1), BuildingBlock: XUDNAN_clean_linker_2, # of connection points: 2
#     Edge 32, Type (0, 1), BuildingBlock: XUDNAN_clean_linker_2, # of connection points: 2
# Relax obj value: 0.028
# Max RMSD: 0.110
# Mean RMSD: 0.043
data_MOF--net-csq--node1-TAGTUT_clean_sbu_3--node2-MIFKUJ_clean_linker_1--edge1-XUDNAN_clean_linker_2
_symmetry_space_group_name_H-M    P1
_symmetry_Int_Tables_number       1
_symmetry_cell_setting            triclinic
loop_
_symmetry_equiv_pos_as_xyz
'x, y, z'
_cell_length_a     62.888715
_cell_length_b     62.085606
_cell_length_c     21.468069
_cell_angle_alpha  92.203298
_cell_angle_beta   92.662352
_cell_angle_gamma 119.90882
loop_
_atom_site_label
_atom_site_type_symbol
_atom_site_fract_x
_atom_site_fract_y
_atom_site_fract_z
_atom_type_partial_charge
H0 H 0.26769 0.45261 0.26216 0.0
H1 H 0.30142 0.44765 0.30576 0.0
H2 H 0.35385 0.51706 0.23326 0.0
H3 H 0.31989 0.52231 0.19152 0.0
H4 H 0.25543 0.4923 0.27378 0.0
H5 H 0.27867 0.44861 0.10467 0.0
H6 H 0.3142 0.4515 0.05407 0.0
H7 H 0.33641 0.52693 0.01156 0.0
H8 H 0.3007 0.52379 0.06117 0.0
H9 H 0.21673 0.50037 0.02481 0.0
H10 H 0.17643 0.48566 0.96979 0.0
H11 H 0.14316 0.42765 0.09794 0.0
H12 H 0.18337 0.44273 0.1532 0.0
H13 H 0.24335 0.47861 0.04232 0.0
H14 H 0.21133 0.51596 0.16749 0.0
H15 H 0.18257 0.52223 0.2269 0.0
H16 H 0.1838 0.47322 0.36293 0.0
H17 H 0.21162 0.46595 0.30126 0.0
C18 C 0.29134 0.48772 0.22339 0.0
C19 C 0.28647 0.467 0.25682 0.0
C20 C 0.30574 0.46402 0.28082 0.0
C21 C 0.33024 0.48173 0.27181 0.0
C22 C 0.33515 0.5031 0.24083 0.0
C23 C 0.31581 0.5061 0.21691 0.0
C24 C 0.27067 0.48826 0.18943 0.0
C25 C 0.2526 0.48926 0.22327 0.0
C26 C 0.26779 0.48562 0.12349 0.0
C27 C 0.28712 0.48597 0.08626 0.0
C28 C 0.29094 0.46555 0.08323 0.0
C29 C 0.31119 0.46723 0.05455 0.0
C30 C 0.32805 0.4895 0.02942 0.0
C31 C 0.32376 0.50965 0.03107 0.0
C32 C 0.30332 0.50782 0.05882 0.0
C33 C 0.20295 0.47287 0.09356 0.0
C34 C 0.20073 0.48449 0.0409 0.0
C35 C 0.17772 0.47593 0.00929 0.0
C36 C 0.15659 0.45545 0.0295 0.0
C37 C 0.159 0.44367 0.08177 0.0
C38 C 0.18196 0.45229 0.11343 0.0
C39 C 0.22727 0.48145 0.12679 0.0
C40 C 0.24607 0.48207 0.09278 0.0
C41 C 0.23112 0.4866 0.19254 0.0
C42 C 0.2135 0.49023 0.22932 0.0
C43 C 0.20514 0.50623 0.20958 0.0
C44 C 0.18892 0.51009 0.24418 0.0
C45 C 0.18088 0.49832 0.29997 0.0
C46 C 0.18934 0.48236 0.31983 0.0
C47 C 0.20547 0.47837 0.2849 0.0
H48 H 0.78117 0.31042 0.03683 0.0
H49 H 0.80742 0.33851 0.96056 0.0
H50 H 0.85017 0.30159 0.9625 0.0
H51 H 0.82429 0.27398 0.03966 0.0
H52 H 0.75642 0.25469 0.00133 0.0
H53 H 0.8055 0.31672 0.178 0.0
H54 H 0.8439 0.34572 0.24007 0.0
H55 H 0.86295 0.28795 0.24828 0.0
H56 H 0.82433 0.25891 0.18713 0.0
H57 H 0.75397 0.19542 0.20503 0.0
H58 H 0.72137 0.15748 0.24586 0.0
H59 H 0.66876 0.18082 0.19888 0.0
H60 H 0.70133 0.21878 0.15944 0.0
H61 H 0.77515 0.2459 0.22303 0.0
H62 H 0.72926 0.18347 0.06337 0.0
H63 H 0.69161 0.15002 0.00908 0.0
H64 H 0.67035 0.20356 0.95633 0.0
H65 H 0.70762 0.23687 0.0139 0.0
C66 C 0.80099 0.29032 0.04405 0.0
C67 C 0.79661 0.30885 0.02194 0.0
C68 C 0.81151 0.32479 0.97845 0.0
C69 C 0.83058 0.32196 0.95544 0.0
C70 C 0.83544 0.30396 0.97929 0.0
C71 C 0.82084 0.28836 0.02361 0.0
C72 C 0.78287 0.27078 0.08103 0.0
C73 C 0.76026 0.25309 0.05021 0.0
C74 C 0.78851 0.26791 0.14354 0.0
C75 C 0.81222 0.28578 0.17791 0.0
C76 C 0.81801 0.31038 0.19302 0.0
C77 C 0.83979 0.32681 0.22878 0.0
C78 C 0.85625 0.31896 0.24912 0.0
C79 C 0.85057 0.29443 0.23305 0.0
C80 C 0.82859 0.27788 0.19824 0.0
C81 C 0.72997 0.2097 0.17838 0.0
C82 C 0.73554 0.19263 0.205 0.0
C83 C 0.71692 0.17095 0.22796 0.0
C84 C 0.69253 0.16607 0.22428 0.0
C85 C 0.68733 0.18391 0.20102 0.0
C86 C 0.70592 0.20563 0.17884 0.0
C87 C 0.74838 0.23025 0.14388 0.0
C88 C 0.7711 0.24777 0.17452 0.0
C89 C 0.74324 0.23252 0.08033 0.0
C90 C 0.72107 0.21261 0.04345 0.0
C91 C 0.7164 0.18799 0.04051 0.0
C92 C 0.69494 0.1689 0.00892 0.0
C93 C 0.67789 0.17407 0.97841 0.0
C94 C 0.68288 0.19887 0.98024 0.0
C95 C 0.70431 0.21798 0.01242 0.0
H96 H 0.57797 0.75984 0.96494 0.0
H97 H 0.58532 0.7351 0.88692 0.0
H98 H 0.513 0.67238 0.9077 0.0
H99 H 0.50527 0.69765 0.9828 0.0
H100 H 0.54484 0.77343 0.95322 0.0
H101 H 0.56165 0.72643 0.11067 0.0
H102 H 0.55556 0.6893 0.16224 0.0
H103 H 0.47799 0.66386 0.1647 0.0
H104 H 0.48424 0.7011 0.11405 0.0
H105 H 0.48849 0.77199 0.16382 0.0
H106 H 0.48962 0.79834 0.25341 0.0
H107 H 0.56542 0.85142 0.22644 0.0
H108 H 0.56423 0.82506 0.13711 0.0
H109 H 0.5171 0.75122 0.16549 0.0
H110 H 0.5015 0.80136 0.03274 0.0
H111 H 0.50256 0.83433 0.97202 0.0
H112 H 0.57407 0.85226 0.91404 0.0
H113 H 0.5731 0.81947 0.97537 0.0
C114 C 0.54115 0.73052 0.9801 0.0
C115 C 0.56373 0.74072 0.95271 0.0
C116 C 0.56796 0.72654 0.90833 0.0
C117 C 0.54968 0.70186 0.89066 0.0
C118 C 0.52729 0.69152 0.91929 0.0
C119 C 0.52299 0.70578 0.96321 0.0
C120 C 0.53599 0.74652 0.02209 0.0
C121 C 0.5393 0.76894 1.00028 0.0
C122 C 0.52717 0.73969 0.08167 0.0
C123 C 0.52337 0.71642 0.10827 0.0
C124 C 0.54332 0.71272 0.12183 0.0
C125 C 0.53985 0.69164 0.15162 0.0
C126 C 0.5163 0.67373 0.16751 0.0
C127 C 0.49629 0.67725 0.1526 0.0
C128 C 0.49984 0.69851 0.12384 0.0
C129 C 0.52622 0.79669 0.14369 0.0
C130 C 0.50518 0.78956 0.17651 0.0
C131 C 0.50586 0.80454 0.22765 0.0
C132 C 0.52772 0.82665 0.24722 0.0
C133 C 0.54847 0.83423 0.21281 0.0
C134 C 0.5477 0.81939 0.1613 0.0
C135 C 0.52709 0.77887 0.09778 0.0
C136 C 0.52279 0.75595 0.11862 0.0
C137 C 0.5349 0.78527 0.0371 0.0
C138 C 0.53723 0.80784 0.00888 0.0
C139 C 0.51774 0.81282 0.00849 0.0
C140 C 0.51831 0.83163 0.97342 0.0
C141 C 0.53829 0.84573 0.9376 0.0
C142 C 0.55823 0.84144 0.94022 0.0
C143 C 0.55773 0.82277 0.97556 0.0
H144 H 0.81776 0.50974 0.08156 0.0
H145 H 0.85674 0.51173 0.1106 0.0
H146 H 0.89138 0.59162 0.14671 0.0
H147 H 0.85201 0.58923 0.11951 0.0
H148 H 0.80288 0.55894 0.16765 0.0
H149 H 0.78448 0.49813 0.94214 0.0
H150 H 0.80867 0.48755 0.87433 0.0
H151 H 0.87124 0.56152 0.91622 0.0
H152 H 0.84654 0.57226 0.98048 0.0
H153 H 0.75602 0.56649 0.93735 0.0
H154 H 0.71695 0.5609 0.89479 0.0
H155 H 0.68031 0.51361 0.04325 0.0
H156 H 0.7191 0.51731 0.08153 0.0
H157 H 0.77064 0.53419 0.94534 0.0
H158 H 0.76257 0.5896 0.10211 0.0
H159 H 0.73589 0.59543 0.17247 0.0
H160 H 0.7266 0.53231 0.27096 0.0
H161 H 0.7535 0.52674 0.20103 0.0
C162 C 0.8321 0.54932 0.099 0.0
C163 C 0.83376 0.52761 0.09633 0.0
C164 C 0.85613 0.52886 0.11196 0.0
C165 C 0.87726 0.55188 0.13036 0.0
C166 C 0.87542 0.57358 0.13326 0.0
C167 C 0.85296 0.57227 0.1181 0.0
C168 C 0.80908 0.54829 0.07652 0.0
C169 C 0.79585 0.55371 0.11906 0.0
C170 C 0.80005 0.54142 0.01317 0.0
C171 C 0.81379 0.53588 0.96689 0.0
C172 C 0.80327 0.51217 0.93558 0.0
C173 C 0.81724 0.50606 0.89752 0.0
C174 C 0.84203 0.52357 0.89017 0.0
C175 C 0.85218 0.5476 0.92002 0.0
C176 C 0.83813 0.55374 0.95738 0.0
C177 C 0.74059 0.54258 0.01308 0.0
C178 C 0.73953 0.55484 0.96054 0.0
C179 C 0.71716 0.55192 0.93685 0.0
C180 C 0.69537 0.53695 0.96582 0.0
C181 C 0.6966 0.52504 0.0192 0.0
C182 C 0.71889 0.52748 0.04188 0.0
C183 C 0.76431 0.54507 0.03628 0.0
C184 C 0.7777 0.53976 0.99384 0.0
C185 C 0.77353 0.55222 0.09964 0.0
C186 C 0.75992 0.5577 0.14633 0.0
C187 C 0.7551 0.5773 0.13953 0.0
C188 C 0.73991 0.58062 0.17969 0.0
C189 C 0.72909 0.56421 0.22679 0.0
C190 C 0.73456 0.54508 0.23467 0.0
C191 C 0.75005 0.54201 0.19517 0.0
H192 H 0.26263 0.8449 0.08765 0.0
H193 H 0.28662 0.87694 0.01713 0.0
H194 H 0.27661 0.81993 0.87802 0.0
H195 H 0.25335 0.78786 0.9495 0.0
H196 H 0.21288 0.77259 0.99777 0.0
H197 H 0.26377 0.8286 0.23288 0.0
H198 H 0.30488 0.85809 0.2792 0.0
H199 H 0.33651 0.83672 0.13133 0.0
H200 H 0.29502 0.80649 0.08606 0.0
H201 H 0.18879 0.7082 0.15501 0.0
H202 H 0.16406 0.68332 0.23591 0.0
H203 H 0.17905 0.75076 0.34214 0.0
H204 H 0.20102 0.77505 0.25727 0.0
H205 H 0.24221 0.78056 0.22026 0.0
H206 H 0.19818 0.71269 0.04173 0.0
H207 H 0.16227 0.67905 0.98112 0.0
H208 H 0.12388 0.72011 1.00029 0.0
H209 H 0.15991 0.75362 0.06305 0.0
C210 C 0.25661 0.81394 0.02453 0.0
C211 C 0.26585 0.83925 0.04236 0.0
C212 C 0.27937 0.85754 0.0019 0.0
C213 C 0.2834 0.85085 0.94225 0.0
C214 C 0.27353 0.82553 0.92357 0.0
C215 C 0.26033 0.80724 0.96446 0.0
C216 C 0.2425 0.79452 0.06797 0.0
C217 C 0.21942 0.77436 0.04641 0.0
C218 C 0.25114 0.79623 0.13102 0.0
C219 C 0.2763 0.8154 0.15592 0.0
C220 C 0.27953 0.83032 0.21023 0.0
C221 C 0.30309 0.84735 0.23631 0.0
C222 C 0.324 0.84988 0.20866 0.0
C223 C 0.32077 0.83511 0.15383 0.0
C224 C 0.29709 0.81801 0.12766 0.0
C225 C 0.19615 0.74353 0.19854 0.0
C226 C 0.18582 0.71756 0.19419 0.0
C227 C 0.17223 0.70334 0.24194 0.0
C228 C 0.16942 0.71485 0.29644 0.0
C229 C 0.1801 0.74094 0.30074 0.0
C230 C 0.193 0.75499 0.25222 0.0
C231 C 0.21213 0.75941 0.15087 0.0
C232 C 0.23568 0.77895 0.17167 0.0
C233 C 0.20436 0.75661 0.08669 0.0
C234 C 0.1813 0.73515 0.05858 0.0
C235 C 0.18174 0.71407 0.03464 0.0
C236 C 0.16128 0.69496 0.99987 0.0
C237 C 0.14029 0.69696 0.98656 0.0
C238 C 0.13984 0.71813 0.01032 0.0
C239 C 0.16023 0.7371 0.04642 0.0
H240 H 0.52214 0.2365 0.08094 0.0
H241 H 0.53646 0.21365 0.01639 0.0
H242 H 0.4701 0.14481 0.04303 0.0
H243 H 0.45535 0.16776 0.10587 0.0
H244 H 0.48437 0.24052 0.0493 0.0
H245 H 0.50715 0.20699 0.21986 0.0
H246 H 0.50744 0.17572 0.28514 0.0
H247 H 0.43058 0.14688 0.31265 0.0
H248 H 0.43011 0.17773 0.24573 0.0
H249 H 0.42044 0.2378 0.24472 0.0
H250 H 0.41479 0.26557 0.31813 0.0
H251 H 0.48409 0.32727 0.27371 0.0
H252 H 0.49056 0.29952 0.20369 0.0
H253 H 0.45346 0.22608 0.26025 0.0
H254 H 0.43752 0.26971 0.0921 0.0
H255 H 0.44468 0.30473 0.02937 0.0
H256 H 0.51861 0.31964 0.00584 0.0
H257 H 0.51195 0.2862 0.07083 0.0
C258 C 0.4876 0.20384 0.09794 0.0
C259 C 0.51078 0.21643 0.07352 0.0
C260 C 0.51901 0.20344 0.03694 0.0
C261 C 0.50436 0.17759 0.025 0.0
C262 C 0.48183 0.16475 0.05236 0.0
C263 C 0.47339 0.17782 0.08818 0.0
C264 C 0.47765 0.21838 0.12839 0.0
C265 C 0.47783 0.23762 0.09585 0.0
C266 C 0.46826 0.21378 0.18801 0.0
C267 C 0.46848 0.19447 0.22671 0.0
C268 C 0.49021 0.19366 0.23882 0.0
C269 C 0.49041 0.17585 0.27644 0.0
C270 C 0.46902 0.15884 0.30387 0.0
C271 C 0.44737 0.15987 0.29249 0.0
C272 C 0.44709 0.17745 0.25413 0.0
C273 C 0.45574 0.26661 0.21764 0.0
C274 C 0.43428 0.25738 0.25016 0.0
C275 C 0.43104 0.27312 0.29204 0.0
C276 C 0.44898 0.29836 0.30085 0.0
C277 C 0.46993 0.30782 0.26679 0.0
C278 C 0.47346 0.29203 0.22618 0.0
C279 C 0.46118 0.24917 0.18227 0.0
C280 C 0.45973 0.22898 0.21346 0.0
C281 C 0.47041 0.2536 0.12225 0.0
C282 C 0.47421 0.27528 0.08665 0.0
C283 C 0.45538 0.28084 0.07422 0.0
C284 C 0.4594 0.30068 0.03764 0.0
C285 C 0.48229 0.31521 0.01267 0.0
C286 C 0.50092 0.30937 0.02518 0.0
C287 C 0.49702 0.28993 0.062 0.0
C288 C 0.05224 0.49349 0.55375 0.0
C289 C 0.02603 0.45083 0.76921 0.0
C290 C 0.95579 0.44091 0.7097 0.0
Mg291 Mg 0.02949 0.52126 0.47554 0.0
Mg292 Mg 0.00423 0.55 0.54643 0.0
O293 O 0.00393 0.52004 0.53123 0.0
Mg294 Mg 0.01006 0.50426 0.60377 0.0
O295 O 0.01717 0.48683 0.67087 0.0
Mg296 Mg 0.00467 0.45335 0.6248 0.0
Mg297 Mg 0.00513 0.48629 0.74909 0.0
C298 C 0.96772 0.51742 0.64652 0.0
O299 O 0.03085 0.54063 0.66938 0.0
O300 O 0.01095 0.53348 0.39889 0.0
O301 O 0.02117 0.52622 0.76525 0.0
O302 O 0.05706 0.56283 0.50268 0.0
O303 O 0.9938 0.55228 0.45182 0.0
O304 O 0.04131 0.57999 0.56457 0.0
O305 O 0.98915 0.46707 0.54555 0.0
O306 O 0.0023 0.47979 0.45147 0.0
C307 C 0.98953 0.46248 0.48704 0.0
C308 C 0.99855 0.54485 0.40052 0.0
O309 O 0.97532 0.5016 0.64439 0.0
O310 O 0.02193 0.44386 0.71057 0.0
O311 O 0.97764 0.53747 0.61727 0.0
O312 O 0.96722 0.43543 0.66996 0.0
O313 O 0.02106 0.46684 0.7934 0.0
O314 O 0.96637 0.46168 0.74216 0.0
O315 O 0.04409 0.50868 0.55888 0.0
O316 O 0.0414 0.4723 0.57761 0.0
C317 C 0.05922 0.58146 0.5358 0.0
C318 C 0.03119 0.54417 0.72912 0.0
C319 C 0.493 0.03253 0.50703 0.0
C320 C 0.5683 0.02726 0.43616 0.0
C321 C 0.53215 0.9552 0.51687 0.0
Mg322 Mg 0.45782 0.00685 0.61918 0.0
Mg323 Mg 0.47682 0.9908 0.74543 0.0
O324 O 0.47292 0.9881 0.65819 0.0
Mg325 Mg 0.50206 0.99926 0.6076 0.0
O326 O 0.52924 0.01047 0.55041 0.0
Mg327 Mg 0.50932 0.99167 0.4709 0.0
Mg328 Mg 0.55796 0.00925 0.57047 0.0
C329 C 0.50773 0.96437 0.71497 0.0
O330 O 0.53104 0.02864 0.68181 0.0
O331 O 0.42421 0.98399 0.67859 0.0
O332 O 0.56641 0.02939 0.662 0.0
O333 O 0.47582 0.03896 0.6966 0.0
O334 O 0.43874 0.9731 0.76222 0.0
O335 O 0.493 0.02904 0.77546 0.0
O336 O 0.47579 0.97143 0.52942 0.0
O337 O 0.44295 0.97588 0.54075 0.0
C338 C 0.45382 0.96607 0.51189 0.0
C339 C 0.42106 0.97297 0.72977 0.0
O340 O 0.51005 0.97075 0.65799 0.0
O341 O 0.54506 0.01465 0.42083 0.0
O342 O 0.49745 0.97162 0.75446 0.0
O343 O 0.51855 0.96073 0.48299 0.0
O344 O 0.57737 0.02822 0.49162 0.0
O345 O 0.54827 0.9708 0.55835 0.0
O346 O 0.4924 0.02673 0.56392 0.0
O347 O 0.49981 0.02258 0.46483 0.0
C348 C 0.48856 0.04453 0.74893 0.0
C349 C 0.55404 0.03632 0.69505 0.0
C350 C 0.52719 0.55648 0.67697 0.0
C351 C 0.45592 0.48568 0.79173 0.0
C352 C 0.49001 0.44262 0.74036 0.0
Mg353 Mg 0.5571 0.55374 0.56254 0.0
Mg354 Mg 0.53152 0.5074 0.45441 0.0
O355 O 0.53926 0.51668 0.5397 0.0
Mg356 Mg 0.513 0.50463 0.60101 0.0
O357 O 0.48899 0.49485 0.6677 0.0
Mg358 Mg 0.51263 0.50529 0.74379 0.0
Mg359 Mg 0.46148 0.46234 0.66621 0.0
C360 C 0.49929 0.45483 0.51326 0.0
O361 O 0.48082 0.4967 0.53122 0.0
O362 O 0.58705 0.557 0.49709 0.0
O363 O 0.44955 0.46215 0.56823 0.0
O364 O 0.53782 0.56217 0.47966 0.0
O365 O 0.56902 0.52328 0.42858 0.0
O366 O 0.51593 0.52824 0.41507 0.0
O367 O 0.54213 0.51071 0.67568 0.0
O368 O 0.57504 0.54468 0.64642 0.0
C369 C 0.56487 0.52735 0.68404 0.0
C370 C 0.588 0.54357 0.45127 0.0
O371 O 0.50216 0.46431 0.56954 0.0
O372 O 0.47952 0.4987 0.80041 0.0
O373 O 0.50755 0.46805 0.46609 0.0
O374 O 0.50414 0.4655 0.75864 0.0
O375 O 0.44498 0.47078 0.74293 0.0
O376 O 0.47218 0.43601 0.69913 0.0
O377 O 0.52508 0.54524 0.62413 0.0
O378 O 0.52214 0.54513 0.72735 0.0
C379 C 0.52305 0.55094 0.43123 0.0
C380 C 0.45876 0.47792 0.52611 0.0
H381 H 0.14219 0.46455 0.36314 0.0
H382 H 0.18108 0.54236 0.3217 0.0
H383 H 0.15241 0.54966 0.38145 0.0
H384 H 0.08166 0.45615 0.35348 0.0
H385 H 0.07162 0.43629 0.41759 0.0
H386 H 0.09512 0.43716 0.37115 0.0
H387 H 0.12446 0.44857 0.47109 0.0
H388 H 0.10102 0.44768 0.51786 0.0
H389 H 0.13097 0.4753 0.52183 0.0
H390 H 0.11895 0.54833 0.44493 0.0
H391 H 0.08404 0.53856 0.50918 0.0
H392 H 0.06819 0.46206 0.51187 0.0
C393 C 0.14491 0.48321 0.36712 0.0
C394 C 0.16389 0.50284 0.33728 0.0
C395 C 0.16646 0.52688 0.34309 0.0
C396 C 0.15035 0.53128 0.37732 0.0
C397 C 0.13182 0.51149 0.40587 0.0
C398 C 0.1291 0.48796 0.40137 0.0
C399 C 0.10772 0.4699 0.4366 0.0
C400 C 0.08786 0.44862 0.39203 0.0
C401 C 0.11658 0.45978 0.49001 0.0
C402 C 0.09883 0.48693 0.46156 0.0
C403 C 0.11289 0.51083 0.44318 0.0
C404 C 0.10787 0.52969 0.45977 0.0
C405 C 0.08796 0.52394 0.49615 0.0
C406 C 0.07337 0.49957 0.51577 0.0
C407 C 0.07904 0.48093 0.49813 0.0
H408 H 0.69017 0.14283 0.33189 0.0
H409 H 0.64914 0.13543 0.15661 0.0
H410 H 0.61421 0.09632 0.18753 0.0
H411 H 0.66673 0.07561 0.34597 0.0
H412 H 0.66538 0.0782 0.42943 0.0
H413 H 0.68813 0.10418 0.39078 0.0
H414 H 0.67257 0.1324 0.43799 0.0
H415 H 0.64986 0.10657 0.4768 0.0
H416 H 0.64049 0.1231 0.42534 0.0
H417 H 0.58281 0.06003 0.24039 0.0
H418 H 0.55634 0.02993 0.31327 0.0
H419 H 0.61776 0.06098 0.45464 0.0
C420 C 0.67399 0.13267 0.29965 0.0
C421 C 0.67226 0.14204 0.24195 0.0
C422 C 0.65067 0.12858 0.2013 0.0
C423 C 0.63086 0.10629 0.2182 0.0
C424 C 0.63298 0.09769 0.27582 0.0
C425 C 0.65397 0.11045 0.31598 0.0
C426 C 0.65079 0.0982 0.37714 0.0
C427 C 0.66883 0.08847 0.38635 0.0
C428 C 0.65358 0.11614 0.43256 0.0
C429 C 0.62453 0.07695 0.36565 0.0
C430 C 0.61471 0.07679 0.30661 0.0
C431 C 0.59035 0.05976 0.28651 0.0
C432 C 0.57545 0.04274 0.32833 0.0
C433 C 0.58493 0.043 0.38975 0.0
C434 C 0.60997 0.06006 0.40789 0.0
H435 H 0.54266 0.67299 0.27193 0.0
H436 H 0.48145 0.62488 0.13845 0.0
H437 H 0.47508 0.58817 0.19421 0.0
H438 H 0.56672 0.6321 0.29106 0.0
H439 H 0.57484 0.64022 0.37365 0.0
H440 H 0.57423 0.66251 0.32346 0.0
H441 H 0.54377 0.66681 0.39308 0.0
H442 H 0.54417 0.64439 0.44326 0.0
H443 H 0.51537 0.63939 0.40781 0.0
H444 H 0.47699 0.55655 0.26155 0.0
H445 H 0.48602 0.5326 0.33717 0.0
H446 H 0.54474 0.60173 0.42953 0.0
C447 C 0.52799 0.6547 0.25435 0.0
C448 C 0.51261 0.65171 0.20071 0.0
C449 C 0.49337 0.62754 0.1796 0.0
C450 C 0.48964 0.60662 0.21091 0.0
C451 C 0.50511 0.61022 0.26375 0.0
C452 C 0.5238 0.63368 0.28557 0.0
C453 C 0.53778 0.6325 0.34351 0.0
C454 C 0.565 0.64241 0.33222 0.0
C455 C 0.5351 0.64661 0.40027 0.0
C456 C 0.52434 0.60467 0.3503 0.0
C457 C 0.50559 0.59213 0.3038 0.0
C458 C 0.49144 0.5662 0.29861 0.0
C459 C 0.49673 0.55276 0.34177 0.0
C460 C 0.51592 0.56524 0.38976 0.0
C461 C 0.52963 0.59159 0.39424 0.0
H462 H 0.90943 0.57999 0.22895 0.0
H463 H 0.89741 0.52542 0.07883 0.0
H464 H 0.93303 0.5229 0.12309 0.0
H465 H 0.97891 0.61078 0.24537 0.0
H466 H 0.9791 0.61507 0.32895 0.0
H467 H 0.95595 0.61609 0.27842 0.0
H468 H 0.92185 0.5816 0.33829 0.0
H469 H 0.94475 0.58034 0.3885 0.0
H470 H 0.92125 0.55244 0.34505 0.0
H471 H 0.9652 0.52115 0.19386 0.0
H472 H 0.99025 0.52008 0.28482 0.0
H473 H 0.98172 0.57703 0.38493 0.0
C474 C 0.91486 0.56829 0.20375 0.0
C475 C 0.90066 0.55295 0.15045 0.0
C476 C 0.90791 0.53719 0.12019 0.0
C477 C 0.92827 0.53584 0.14455 0.0
C478 C 0.9414 0.55068 0.19851 0.0
C479 C 0.93512 0.56685 0.22719 0.0
C480 C 0.95013 0.57861 0.28846 0.0
C481 C 0.96703 0.60681 0.28506 0.0
C482 C 0.9335 0.57288 0.34324 0.0
C483 C 0.96478 0.56541 0.29175 0.0
C484 C 0.96 0.54978 0.23895 0.0
C485 C 0.96955 0.53377 0.23477 0.0
C486 C 0.98375 0.53326 0.28661 0.0
C487 C 0.98786 0.54842 0.3419 0.0
C488 C 0.97896 0.56526 0.34325 0.0
H489 H 0.34082 0.8968 0.26141 0.0
H490 H 0.36306 0.84188 0.22629 0.0
H491 H 0.40222 0.86873 0.28983 0.0
H492 H 0.40314 0.95325 0.26852 0.0
H493 H 0.39581 0.96814 0.33096 0.0
H494 H 0.37199 0.94682 0.27338 0.0
H495 H 0.34643 0.92073 0.36174 0.0
H496 H 0.37015 0.94181 0.41938 0.0
H497 H 0.36006 0.90902 0.41676 0.0
H498 H 0.4367 0.89949 0.36897 0.0
H499 H 0.46216 0.93043 0.45643 0.0
H500 H 0.41562 0.96345 0.44102 0.0
C501 C 0.35409 0.89058 0.26615 0.0
C502 C 0.34889 0.86727 0.23892 0.0
C503 C 0.3668 0.85986 0.24602 0.0
C504 C 0.38907 0.87496 0.28217 0.0
C505 C 0.39319 0.89747 0.31037 0.0
C506 C 0.3762 0.90528 0.30222 0.0
C507 C 0.38358 0.92884 0.34216 0.0
C508 C 0.38895 0.95055 0.3013 0.0
C509 C 0.36389 0.92484 0.38769 0.0
C510 C 0.40683 0.93253 0.37621 0.0
C511 C 0.41249 0.91465 0.35652 0.0
C512 C 0.43257 0.91375 0.38412 0.0
C513 C 0.44692 0.93135 0.43373 0.0
C514 C 0.44074 0.94919 0.4557 0.0
C515 C 0.42075 0.94997 0.4255 0.0
H516 H 0.44312 0.33759 0.27872 0.0
H517 H 0.45243 0.29725 0.42731 0.0
H518 H 0.45923 0.33108 0.505 0.0
H519 H 0.48925 0.3931 0.32545 0.0
H520 H 0.47517 0.41133 0.30539 0.0
H521 H 0.46454 0.38156 0.26478 0.0
H522 H 0.42014 0.36667 0.29518 0.0
H523 H 0.43057 0.39666 0.33555 0.0
H524 H 0.41451 0.36868 0.37619 0.0
H525 H 0.47367 0.37303 0.56179 0.0
H526 H 0.49321 0.41828 0.59166 0.0
H527 H 0.47357 0.43017 0.40503 0.0
C528 C 0.44544 0.33549 0.32801 0.0
C529 C 0.44695 0.31496 0.34772 0.0
C530 C 0.45076 0.3128 0.41203 0.0
C531 C 0.45463 0.33189 0.45627 0.0
C532 C 0.45411 0.35261 0.43514 0.0
C533 C 0.44907 0.35422 0.37248 0.0
C534 C 0.45269 0.37955 0.36015 0.0
C535 C 0.47154 0.3921 0.31112 0.0
C536 C 0.428 0.37778 0.34062 0.0
C537 C 0.46248 0.3926 0.42439 0.0
C538 C 0.46257 0.37673 0.46768 0.0
C539 C 0.47313 0.38548 0.52865 0.0
C540 C 0.48426 0.41116 0.54519 0.0
C541 C 0.4851 0.42762 0.50033 0.0
C542 C 0.47336 0.418 0.44011 0.0
H543 H 0.5236 0.87993 0.96207 0.0
H544 H 0.55126 0.85219 0.81662 0.0
H545 H 0.54839 0.8808 0.74414 0.0
H546 H 0.4797 0.8853 0.86448 0.0
H547 H 0.48451 0.91344 0.90547 0.0
H548 H 0.49001 0.89171 0.94634 0.0
H549 H 0.53453 0.92684 0.98026 0.0
H550 H 0.52914 0.94869 0.93945 0.0
H551 H 0.5546 0.94445 0.92163 0.0
H552 H 0.53983 0.91097 0.68521 0.0
H553 H 0.52752 0.94061 0.64736 0.0
H554 H 0.50659 0.94877 0.83284 0.0
C555 C 0.52913 0.87992 0.91504 0.0
C556 C 0.53773 0.86387 0.89513 0.0
C557 C 0.54494 0.86457 0.83325 0.0
C558 C 0.54326 0.88067 0.79161 0.0
C559 C 0.5345 0.89611 0.81263 0.0
C560 C 0.52773 0.89595 0.87308 0.0
C561 C 0.5185 0.914 0.88399 0.0
C562 C 0.49159 0.90029 0.90105 0.0
C563 C 0.53519 0.93472 0.93431 0.0
C564 C 0.52076 0.92404 0.82003 0.0
C565 C 0.53004 0.9136 0.77935 0.0
C566 C 0.53283 0.91948 0.717 0.0
C567 C 0.52586 0.93642 0.69585 0.0
C568 C 0.51631 0.94734 0.73693 0.0
C569 C 0.51397 0.94102 0.79992 0.0
H570 H 0.6858 0.56991 0.90524 0.0
H571 H 0.65058 0.49381 0.961 0.0
H572 H 0.61176 0.48534 0.90621 0.0
H573 H 0.63131 0.57825 0.90495 0.0
H574 H 0.63932 0.59524 0.83551 0.0
H575 H 0.66316 0.59703 0.88917 0.0
H576 H 0.68018 0.5827 0.79871 0.0
H577 H 0.6564 0.58077 0.74494 0.0
H578 H 0.65998 0.55393 0.75305 0.0
H579 H 0.57848 0.48325 0.8358 0.0
H580 H 0.55313 0.48742 0.75143 0.0
H581 H 0.61031 0.56385 0.7353 0.0
C582 C 0.66991 0.55151 0.90659 0.0
C583 C 0.67135 0.53263 0.9381 0.0
C584 C 0.64996 0.50886 0.93877 0.0
C585 C 0.62777 0.50378 0.90744 0.0
C586 C 0.62725 0.5226 0.87541 0.0
C587 C 0.64773 0.54599 0.87466 0.0
C588 C 0.64303 0.56199 0.83095 0.0
C589 C 0.64428 0.58446 0.86734 0.0
C590 C 0.66096 0.57032 0.77884 0.0
C591 C 0.617 0.54358 0.80547 0.0
C592 C 0.6081 0.52117 0.83285 0.0
C593 C 0.58504 0.50083 0.81478 0.0
C594 C 0.57075 0.50337 0.76699 0.0
C595 C 0.57963 0.52596 0.7374 0.0
C596 C 0.60298 0.5464 0.75738 0.0
H597 H 0.11663 0.6469 0.99747 0.0
H598 H 0.1185 0.70313 0.88074 0.0
H599 H 0.08855 0.66999 0.80293 0.0
H600 H 0.11536 0.60682 0.87889 0.0
H601 H 0.09467 0.57848 0.91351 0.0
H602 H 0.11395 0.60644 0.96256 0.0
H603 H 0.0756 0.60313 0.01158 0.0
H604 H 0.05618 0.57494 0.96315 0.0
H605 H 0.0506 0.60071 0.96142 0.0
H606 H 0.06205 0.63032 0.73253 0.0
H607 H 0.03857 0.58766 0.6808 0.0
H608 H 0.05413 0.55829 0.8458 0.0
C609 C 0.11032 0.65218 0.95608 0.0
C610 C 0.11972 0.67745 0.94492 0.0
C611 C 0.1112 0.68379 0.89028 0.0
C612 C 0.09434 0.66512 0.8458 0.0
C613 C 0.08596 0.6403 0.85737 0.0
C614 C 0.09337 0.63385 0.91179 0.0
C615 C 0.08252 0.606 0.91234 0.0
C616 C 0.10284 0.59904 0.91708 0.0
C617 C 0.06519 0.59559 0.96525 0.0
C618 C 0.06842 0.59776 0.84896 0.0
C619 C 0.07052 0.61771 0.81776 0.0
C620 C 0.06006 0.61455 0.75691 0.0
C621 C 0.04703 0.59035 0.72755 0.0
C622 C 0.04464 0.56974 0.75911 0.0
C623 C 0.05537 0.57363 0.8207 0.0
H624 H 0.50686 0.13531 0.03786 0.0
H625 H 0.51535 0.18973 0.90612 0.0
H626 H 0.51882 0.16386 0.82147 0.0
H627 H 0.54886 0.1157 0.95946 0.0
H628 H 0.52944 0.08388 0.97772 0.0
H629 H 0.53288 0.10904 0.03003 0.0
H630 H 0.48548 0.08981 0.02275 0.0
H631 H 0.48191 0.06486 0.9701 0.0
H632 H 0.46916 0.08396 0.94708 0.0
H633 H 0.51197 0.12854 0.74895 0.0
H634 H 0.49941 0.08764 0.6948 0.0
H635 H 0.49801 0.05708 0.87388 0.0
C636 C 0.51032 0.14207 0.99155 0.0
C637 C 0.511 0.16443 0.97818 0.0
C638 C 0.51517 0.17276 0.91716 0.0
C639 C 0.51716 0.15821 0.86889 0.0
C640 C 0.51551 0.13574 0.88295 0.0
C641 C 0.51281 0.12798 0.94311 0.0
C642 C 0.50928 0.10207 0.94468 0.0
C643 C 0.53144 0.10272 0.98007 0.0
C644 C 0.48502 0.08414 0.97277 0.0
C645 C 0.50842 0.09575 0.87557 0.0
C646 C 0.51245 0.11554 0.84077 0.0
C647 C 0.50955 0.11314 0.77564 0.0
C648 C 0.50219 0.08983 0.74535 0.0
C649 C 0.49794 0.06939 0.78034 0.0
C650 C 0.50165 0.07259 0.84608 0.0
H651 H 0.33152 0.45866 0.94072 0.0
H652 H 0.37525 0.52641 0.06006 0.0
H653 H 0.4131 0.53151 0.01647 0.0
H654 H 0.37539 0.43646 0.94658 0.0
H655 H 0.36868 0.42493 0.86558 0.0
H656 H 0.34523 0.42576 0.90901 0.0
H657 H 0.33945 0.45207 0.82616 0.0
H658 H 0.36284 0.45129 0.78248 0.0
H659 H 0.36569 0.48076 0.80711 0.0
H660 H 0.44596 0.5296 0.95874 0.0
H661 H 0.47145 0.52239 0.88631 0.0
H662 H 0.40612 0.45658 0.80164 0.0
C663 C 0.34912 0.47439 0.95802 0.0
C664 C 0.35059 0.49213 0.00375 0.0
C665 C 0.37383 0.51272 0.02474 0.0
C666 C 0.39538 0.51568 1.00056 0.0
C667 C 0.39333 0.49796 0.95516 0.0
C668 C 0.3708 0.4778 0.93377 0.0
C669 C 0.37357 0.46221 0.88226 0.0
C670 C 0.36523 0.43577 0.90207 0.0
C671 C 0.35956 0.46156 0.82088 0.0
C672 C 0.40115 0.47687 0.87766 0.0
C673 C 0.41222 0.49723 0.92065 0.0
C674 C 0.43751 0.51368 0.92494 0.0
C675 C 0.45185 0.50938 0.88364 0.0
C676 C 0.44083 0.48893 0.83813 0.0
C677 C 0.41514 0.4724 0.83573 0.0
H678 H 0.8563 0.37275 0.95169 0.0
H679 H 0.83643 0.30398 0.84412 0.0
H680 H 0.86118 0.328 0.75944 0.0
H681 H 0.86013 0.41091 0.81628 0.0
H682 H 0.88657 0.4382 0.8539 0.0
H683 H 0.86377 0.41566 0.90036 0.0
H684 H 0.89798 0.41139 0.96139 0.0
H685 H 0.92059 0.43379 0.91468 0.0
H686 H 0.91739 0.40337 0.91873 0.0
H687 H 0.89112 0.35891 0.69205 0.0
H688 H 0.92733 0.3941 0.65187 0.0
H689 H 0.92881 0.44312 0.80405 0.0
C690 C 0.85675 0.36287 0.90953 0.0
C691 C 0.84442 0.3366 0.9039 0.0
C692 C 0.84583 0.32414 0.84904 0.0
C693 C 0.85961 0.33761 0.80056 0.0
C694 C 0.87189 0.36354 0.80772 0.0
C695 C 0.87071 0.37608 0.86096 0.0
C696 C 0.88807 0.40389 0.86036 0.0
C697 C 0.87377 0.41799 0.85753 0.0
C698 C 0.90713 0.41367 0.91712 0.0
C699 C 0.89988 0.40488 0.79978 0.0
C700 C 0.88982 0.38148 0.76936 0.0
C701 C 0.89896 0.37738 0.715 0.0
C702 C 0.91957 0.39752 0.69253 0.0
C703 C 0.93103 0.42139 0.72491 0.0
C704 C 0.92038 0.4252 0.77782 0.0
H705 H 0.87801 0.55292 0.8142 0.0
H706 H 0.84162 0.47896 0.88303 0.0
H707 H 0.86876 0.46856 0.82534 0.0
H708 H 0.88883 0.53586 0.66162 0.0
H709 H 0.91867 0.56341 0.66103 0.0
H710 H 0.89523 0.56428 0.70437 0.0
H711 H 0.92479 0.57977 0.80493 0.0
H712 H 0.94829 0.57891 0.76194 0.0
H713 H 0.93851 0.56188 0.83097 0.0
H714 H 0.90082 0.46667 0.76089 0.0
H715 H 0.93527 0.47391 0.69738 0.0
H716 H 0.952 0.55001 0.67832 0.0
C717 C 0.87571 0.53454 0.8175 0.0
C718 C 0.85754 0.51677 0.85314 0.0
C719 C 0.85506 0.4928 0.85519 0.0
C720 C 0.87052 0.48675 0.82293 0.0
C721 C 0.88845 0.50489 0.78903 0.0
C722 C 0.89111 0.5283 0.78627 0.0
C723 C 0.91231 0.5448 0.74851 0.0
C724 C 0.90321 0.55253 0.69044 0.0
C725 C 0.93214 0.56768 0.78902 0.0
C726 C 0.9213 0.52708 0.7307 0.0
C727 C 0.90726 0.50409 0.75405 0.0
C728 C 0.91208 0.48471 0.74296 0.0
C729 C 0.93185 0.48905 0.70733 0.0
C730 C 0.94673 0.51264 0.68387 0.0
C731 C 0.94114 0.53176 0.69568 0.0
H732 H 0.32895 0.89058 0.97285 0.0
H733 H 0.2734 0.85422 0.81841 0.0
H734 H 0.30108 0.88549 0.74851 0.0
H735 H 0.35472 0.95532 0.92764 0.0
H736 H 0.38571 0.9631 0.95193 0.0
H737 H 0.36023 0.94005 0.99098 0.0
H738 H 0.37432 0.908 0.96743 0.0
H739 H 0.3998 0.93091 0.92854 0.0
H740 H 0.3784 0.90134 0.8878 0.0
H741 H 0.33631 0.91919 0.69425 0.0
H742 H 0.37691 0.94956 0.6588 0.0
H743 H 0.40916 0.96231 0.84911 0.0
C744 C 0.32239 0.88963 0.92469 0.0
C745 C 0.299 0.87029 0.901 0.0
C746 C 0.29128 0.86904 0.83729 0.0
C747 C 0.30679 0.88678 0.7975 0.0
C748 C 0.32993 0.90553 0.82224 0.0
C749 C 0.3377 0.90694 0.88438 0.0
C750 C 0.36422 0.92712 0.89824 0.0
C751 C 0.36633 0.94762 0.94496 0.0
C752 C 0.38011 0.91618 0.92185 0.0
C753 C 0.37041 0.93649 0.83391 0.0
C754 C 0.35032 0.92424 0.79082 0.0
C755 C 0.3521 0.92908 0.72773 0.0
C756 C 0.37517 0.9464 0.70803 0.0
C757 C 0.39612 0.95822 0.75123 0.0
C758 C 0.39345 0.95357 0.81504 0.0
H759 H 0.45093 0.31955 0.92443 0.0
H760 H 0.52506 0.35989 0.01466 0.0
H761 H 0.53543 0.39398 0.9463 0.0
H762 H 0.4664 0.33902 0.76807 0.0
H763 H 0.44025 0.34298 0.75149 0.0
H764 H 0.43831 0.32054 0.80514 0.0
H765 H 0.42567 0.34145 0.89117 0.0
H766 H 0.4272 0.36369 0.83748 0.0
H767 H 0.44487 0.37435 0.91196 0.0
H768 H 0.5385 0.42356 0.87003 0.0
H769 H 0.53256 0.4503 0.79889 0.0
H770 H 0.45599 0.3933 0.75867 0.0
C771 C 0.46929 0.33562 0.9301 0.0
C772 C 0.48734 0.3366 0.97419 0.0
C773 C 0.51109 0.35814 0.98006 0.0
C774 C 0.51719 0.37773 0.94152 0.0
C775 C 0.49929 0.37585 0.89759 0.0
C776 C 0.47569 0.35566 0.89222 0.0
C777 C 0.45972 0.35935 0.84319 0.0
C778 C 0.45064 0.33927 0.78875 0.0
C779 C 0.43809 0.35974 0.87272 0.0
C780 C 0.47808 0.38484 0.82248 0.0
C781 C 0.50084 0.39368 0.85411 0.0
C782 C 0.52077 0.41688 0.84493 0.0
C783 C 0.5172 0.43195 0.80409 0.0
C784 C 0.49386 0.424 0.77283 0.0
C785 C 0.47415 0.39978 0.78101 0.0
H786 H 0.14442 0.45141 0.90335 0.0
H787 H 0.11346 0.44124 0.08371 0.0
H788 H 0.07342 0.4308 0.03178 0.0
H789 H 0.11738 0.48306 0.84407 0.0
H790 H 0.11178 0.46977 0.76477 0.0
H791 H 0.13649 0.47157 0.81441 0.0
H792 H 0.11838 0.42395 0.7944 0.0
H793 H 0.09346 0.42201 0.74474 0.0
H794 H 0.08695 0.40292 0.81026 0.0
H795 H 0.03966 0.429 0.96455 0.0
H796 H 0.01438 0.43616 0.88592 0.0
H797 H 0.06622 0.44665 0.74784 0.0
C798 C 0.12909 0.44656 0.93178 0.0
C799 C 0.13203 0.44697 0.99756 0.0
C800 C 0.11155 0.44057 0.03318 0.0
C801 C 0.08871 0.43462 0.00409 0.0
C802 C 0.08658 0.4349 0.9393 0.0
C803 C 0.10616 0.44056 0.90345 0.0
C804 C 0.09977 0.44228 0.8356 0.0
C805 C 0.11739 0.46821 0.81347 0.0
C806 C 0.09963 0.42155 0.79379 0.0
C807 C 0.07402 0.43808 0.83959 0.0
C808 C 0.06662 0.4334 0.8997 0.0
C809 C 0.04489 0.43193 0.91695 0.0
C810 C 0.03069 0.43607 0.87215 0.0
C811 C 0.03824 0.44145 0.81091 0.0
C812 C 0.05972 0.44169 0.79386 0.0
H813 H 0.67331 0.13443 0.90595 0.0
H814 H 0.63122 0.1676 0.9726 0.0
H815 H 0.59398 0.13417 0.91281 0.0
H816 H 0.64536 0.11645 0.7537 0.0
H817 H 0.64568 0.08757 0.7479 0.0
H818 H 0.66854 0.11335 0.79851 0.0
H819 H 0.65613 0.08547 0.89228 0.0
H820 H 0.63318 0.05956 0.84188 0.0
H821 H 0.6245 0.06949 0.91146 0.0
H822 H 0.56212 0.09868 0.83971 0.0
H823 H 0.53855 0.06429 0.75909 0.0
H824 H 0.60088 0.05299 0.74641 0.0
C825 C 0.65619 0.13446 0.9091 0.0
C826 C 0.65523 0.15367 0.94407 0.0
C827 C 0.63251 0.15327 0.94552 0.0
C828 C 0.61121 0.13424 0.9122 0.0
C829 C 0.61289 0.11564 0.87813 0.0
C830 C 0.63479 0.11557 0.87661 0.0
C831 C 0.63199 0.09404 0.83465 0.0
C832 C 0.64889 0.10342 0.78049 0.0
C833 C 0.63673 0.07608 0.87233 0.0
C834 C 0.60519 0.08227 0.81161 0.0
C835 C 0.59443 0.09489 0.83749 0.0
C836 C 0.57023 0.08835 0.82023 0.0
C837 C 0.55682 0.06858 0.77483 0.0
C838 C 0.56748 0.05544 0.74748 0.0
C839 C 0.59196 0.06233 0.76692 0.0
H840 H 0.51666 0.66894 0.79858 0.0
H841 H 0.59194 0.70015 0.87631 0.0
H842 H 0.59714 0.67125 0.80534 0.0
H843 H 0.50207 0.60945 0.80127 0.0
H844 H 0.48222 0.59799 0.73012 0.0
H845 H 0.4866 0.62543 0.77299 0.0
H846 H 0.5009 0.65012 0.67396 0.0
H847 H 0.49666 0.62259 0.63077 0.0
H848 H 0.52598 0.65099 0.63455 0.0
H849 H 0.59163 0.63394 0.74529 0.0
H850 H 0.5751 0.5902 0.70537 0.0
H851 H 0.50325 0.58217 0.66823 0.0
C852 C 0.53441 0.67006 0.79971 0.0
C853 C 0.55389 0.6868 0.84291 0.0
C854 C 0.57686 0.68775 0.84291 0.0
C855 C 0.58 0.67144 0.80259 0.0
C856 C 0.56009 0.65447 0.7622 0.0
C857 C 0.53774 0.65377 0.76025 0.0
C858 C 0.51808 0.63129 0.72068 0.0
C859 C 0.49597 0.6151 0.75855 0.0
C860 C 0.50993 0.63923 0.66147 0.0
C861 C 0.53235 0.6184 0.70479 0.0
C862 C 0.5568 0.63252 0.72721 0.0
C863 C 0.57279 0.62308 0.72564 0.0
C864 C 0.56333 0.59831 0.70292 0.0
C865 C 0.53821 0.58346 0.68253 0.0
C866 C 0.52275 0.59374 0.68147 0.0
H867 H 0.48815 0.1286 0.2799 0.0
H868 H 0.45062 0.14682 0.4188 0.0
H869 H 0.45211 0.11618 0.48686 0.0
H870 H 0.45762 0.06274 0.30067 0.0
H871 H 0.48463 0.06046 0.28868 0.0
H872 H 0.48045 0.08376 0.25162 0.0
H873 H 0.5228 0.11824 0.30225 0.0
H874 H 0.5271 0.09505 0.33945 0.0
H875 H 0.52889 0.12079 0.3859 0.0
H876 H 0.45945 0.0843 0.54154 0.0
H877 H 0.46996 0.05271 0.57468 0.0
H878 H 0.50134 0.05516 0.39737 0.0
C879 C 0.48033 0.12621 0.32476 0.0
C880 C 0.46937 0.14013 0.34429 0.0
C881 C 0.45899 0.13621 0.40287 0.0
C882 C 0.45984 0.11894 0.44189 0.0
C883 C 0.47092 0.10559 0.42131 0.0
C884 C 0.48079 0.10892 0.36382 0.0
C885 C 0.49139 0.09212 0.35198 0.0
C886 C 0.4777 0.07368 0.29486 0.0
C887 C 0.51919 0.10747 0.34448 0.0
C888 C 0.48617 0.07896 0.41197 0.0
C889 C 0.47446 0.08697 0.45167 0.0
C890 C 0.46845 0.07777 0.51054 0.0
C891 C 0.47452 0.05986 0.52905 0.0
C892 C 0.48629 0.05126 0.48854 0.0
C893 C 0.49209 0.06105 0.42933 0.0
H894 H 0.37451 0.51567 0.33307 0.0
H895 H 0.33136 0.43829 0.26191 0.0
H896 H 0.3632 0.43024 0.30778 0.0
H897 H 0.43665 0.52261 0.31361 0.0
H898 H 0.44917 0.54236 0.38507 0.0
H899 H 0.42469 0.54235 0.33806 0.0
H900 H 0.39925 0.53215 0.43573 0.0
H901 H 0.4236 0.53158 0.48155 0.0
H902 H 0.39302 0.50483 0.47581 0.0
H903 H 0.39591 0.42903 0.37427 0.0
H904 H 0.42814 0.43523 0.45525 0.0
H905 H 0.45175 0.51383 0.47771 0.0
C906 C 0.37213 0.49723 0.32558 0.0
C907 C 0.35047 0.47759 0.29417 0.0
C908 C 0.34771 0.45353 0.28657 0.0
C909 C 0.36579 0.44884 0.31185 0.0
C910 C 0.38668 0.46847 0.34385 0.0
C911 C 0.39007 0.49225 0.35032 0.0
C912 C 0.41307 0.5095 0.3917 0.0
C913 C 0.43202 0.53044 0.35485 0.0
C914 C 0.40685 0.52012 0.44961 0.0
C915 C 0.42162 0.4915 0.40916 0.0
C916 C 0.4062 0.46794 0.38074 0.0
C917 C 0.40852 0.4475 0.39553 0.0
C918 C 0.42674 0.45113 0.44157 0.0
C919 C 0.44247 0.47503 0.47147 0.0
C920 C 0.44035 0.49555 0.45387 0.0
H921 H 0.86213 0.34814 0.35474 0.0
H922 H 0.9026 0.32951 0.22602 0.0
H923 H 0.94176 0.36106 0.28283 0.0
H924 H 0.90131 0.41196 0.36799 0.0
H925 H 0.89871 0.41638 0.45018 0.0
H926 H 0.87396 0.39045 0.40399 0.0
H927 H 0.87612 0.36007 0.48016 0.0
H928 H 0.90102 0.38599 0.52653 0.0
H929 H 0.90487 0.36078 0.49617 0.0
H930 H 0.97604 0.39852 0.34266 0.0
H931 H 0.00326 0.43819 0.40506 0.0
H932 H 0.94102 0.43074 0.50069 0.0
C933 C 0.87927 0.35051 0.33926 0.0
C934 C 0.87948 0.33649 0.28612 0.0
C935 C 0.90214 0.33997 0.26698 0.0
C936 C 0.92442 0.3578 0.29897 0.0
C937 C 0.92364 0.37158 0.35075 0.0
C938 C 0.90165 0.3679 0.37141 0.0
C939 C 0.90597 0.3861 0.42623 0.0
C940 C 0.89431 0.40217 0.41116 0.0
C941 C 0.89643 0.37241 0.4858 0.0
C942 C 0.9338 0.40138 0.43119 0.0
C943 C 0.94363 0.39256 0.38747 0.0
C944 C 0.96867 0.4052 0.37823 0.0
C945 C 0.98396 0.42767 0.41369 0.0
C946 C 0.9742 0.43704 0.45828 0.0
C947 C 0.94896 0.42343 0.46827 0.0
H948 H 0.49553 0.84197 0.27806 0.0
H949 H 0.56348 0.84544 0.34345 0.0
H950 H 0.56759 0.87314 0.43461 0.0
H951 H 0.51535 0.90346 0.30823 0.0
H952 H 0.48666 0.89967 0.33232 0.0
H953 H 0.48659 0.87635 0.28013 0.0
H954 H 0.46212 0.8427 0.35673 0.0
H955 H 0.46233 0.86615 0.40941 0.0
H956 H 0.47411 0.84676 0.43689 0.0
H957 H 0.56738 0.90477 0.50944 0.0
H958 H 0.56482 0.94036 0.5557 0.0
H959 H 0.49696 0.91618 0.44139 0.0
C960 C 0.51083 0.84797 0.3127 0.0
C961 C 0.52913 0.84156 0.30418 0.0
C962 C 0.54933 0.85029 0.34927 0.0
C963 C 0.55165 0.86576 0.40148 0.0
C964 C 0.53353 0.87218 0.408 0.0
C965 C 0.51349 0.86355 0.36478 0.0
C966 C 0.49841 0.87582 0.37769 0.0
C967 C 0.49668 0.88965 0.32128 0.0
C968 C 0.47272 0.85671 0.39631 0.0
C969 C 0.51385 0.89369 0.43268 0.0
C970 C 0.53363 0.89083 0.45074 0.0
C971 C 0.55173 0.90691 0.49654 0.0
C972 C 0.55013 0.92708 0.52259 0.0
C973 C 0.53079 0.93113 0.5018 0.0
C974 C 0.51193 0.91354 0.45841 0.0
H975 H 0.68314 0.52722 0.24922 0.0
H976 H 0.73468 0.60595 0.29089 0.0
H977 H 0.70448 0.60932 0.35473 0.0
H978 H 0.62925 0.53286 0.23259 0.0
H979 H 0.60981 0.50401 0.26695 0.0
H980 H 0.63586 0.50777 0.22686 0.0
H981 H 0.65261 0.49671 0.32581 0.0
H982 H 0.62659 0.49288 0.36619 0.0
H983 H 0.65739 0.5142 0.3992 0.0
H984 H 0.6686 0.60364 0.41539 0.0
H985 H 0.6292 0.59009 0.46297 0.0
H986 H 0.60074 0.5154 0.37726 0.0
C987 C 0.68813 0.5451 0.27237 0.0
C988 C 0.71128 0.5663 0.26578 0.0
C989 C 0.71701 0.58952 0.29551 0.0
C990 C 0.70003 0.59156 0.33193 0.0
C991 C 0.67732 0.57027 0.33747 0.0
C992 C 0.67131 0.54753 0.30809 0.0
C993 C 0.6454 0.52767 0.31952 0.0
C994 C 0.62912 0.51749 0.25781 0.0
C995 C 0.64552 0.50663 0.35479 0.0
C996 C 0.63777 0.54274 0.36016 0.0
C997 C 0.65648 0.56722 0.37044 0.0
C998 C 0.6538 0.58454 0.40744 0.0
C999 C 0.63137 0.57665 0.43438 0.0
C1000 C 0.61181 0.55172 0.42365 0.0
C1001 C 0.61521 0.53464 0.386 0.0
H1002 H 0.16438 0.67027 0.33276 0.0
H1003 H 0.14213 0.7247 0.37805 0.0
H1004 H 0.11888 0.69978 0.46237 0.0
H1005 H 0.10629 0.6193 0.34288 0.0
H1006 H 0.117 0.59946 0.37345 0.0
H1007 H 0.1361 0.62411 0.32595 0.0
H1008 H 0.17117 0.64171 0.41467 0.0
H1009 H 0.15183 0.61723 0.46282 0.0
H1010 H 0.16547 0.64938 0.49165 0.0
H1011 H 0.09439 0.66718 0.5343 0.0
H1012 H 0.06564 0.62704 0.57489 0.0
H1013 H 0.10083 0.59213 0.47723 0.0
C1014 C 0.15478 0.67716 0.36031 0.0
C1015 C 0.15563 0.69988 0.34865 0.0
C1016 C 0.14266 0.70792 0.38669 0.0
C1017 C 0.12927 0.69381 0.43495 0.0
C1018 C 0.12872 0.67151 0.44462 0.0
C1019 C 0.14085 0.66305 0.40776 0.0
C1020 C 0.1344 0.6368 0.42149 0.0
C1021 C 0.12274 0.61887 0.36246 0.0
C1022 C 0.15708 0.63626 0.44933 0.0
C1023 C 0.1159 0.63144 0.46984 0.0
C1024 C 0.11353 0.65201 0.48412 0.0
C1025 C 0.09625 0.65103 0.524 0.0
C1026 C 0.08002 0.62809 0.54706 0.0
C1027 C 0.08082 0.60633 0.5289 0.0
C1028 C 0.09982 0.60842 0.49236 0.0
loop_
_geom_bond_atom_site_label_1
_geom_bond_atom_site_label_2
_geom_bond_distance
_geom_bond_site_symmetry_2
_ccdc_geom_bond_type
H0 C19 0.949 . S
H1 C20 0.950 . S
H2 C22 0.950 . S
H3 C23 0.950 . S
H4 C25 0.950 . S
H5 C28 0.950 . S
H6 C29 0.950 . S
H7 C31 0.951 . S
H8 C32 0.949 . S
H9 C34 0.949 . S
H10 C35 0.950 . S
H11 C37 0.950 . S
H12 C38 0.950 . S
H13 C40 0.950 . S
H14 C43 0.950 . S
H15 C44 0.950 . S
H16 C46 0.951 . S
H17 C47 0.949 . S
C18 C19 1.376 . S
C18 C23 1.386 . S
C18 C24 1.483 . S
C19 H0 0.949 . S
C19 C18 1.376 . S
C19 C20 1.397 . S
C20 H1 0.950 . S
C20 C19 1.397 . S
C20 C21 1.391 . S
C21 C20 1.391 . S
C21 C22 1.405 . S
C22 H2 0.950 . S
C22 C21 1.405 . S
C22 C23 1.367 . S
C23 H3 0.950 . S
C23 C18 1.386 . S
C23 C22 1.367 . S
C24 C18 1.483 . S
C24 C25 1.382 . S
C24 C26 1.403 . S
C25 H4 0.950 . S
C25 C24 1.382 . S
C25 C41 1.411 . S
C26 C24 1.403 . S
C26 C27 1.489 . S
C26 C40 1.411 . S
C27 C26 1.489 . S
C27 C28 1.383 . S
C27 C32 1.382 . S
C28 H5 0.950 . S
C28 C27 1.383 . S
C28 C29 1.395 . S
C29 H6 0.950 . S
C29 C28 1.395 . S
C29 C30 1.288 . S
C30 C29 1.288 . S
C30 C31 1.392 . S
C31 H7 0.951 . S
C31 C30 1.392 . S
C31 C32 1.392 . S
C32 H8 0.949 . S
C32 C27 1.382 . S
C32 C31 1.392 . S
C33 C34 1.376 . S
C33 C38 1.386 . S
C33 C39 1.483 . S
C34 H9 0.949 . S
C34 C33 1.376 . S
C34 C35 1.397 . S
C35 H10 0.950 . S
C35 C34 1.397 . S
C35 C36 1.391 . S
C36 C35 1.391 . S
C36 C37 1.405 . S
C37 H11 0.950 . S
C37 C36 1.405 . S
C37 C38 1.367 . S
C38 H12 0.950 . S
C38 C33 1.386 . S
C38 C37 1.367 . S
C39 C33 1.483 . S
C39 C40 1.382 . S
C39 C41 1.403 . S
C40 H13 0.950 . S
C40 C26 1.411 . S
C40 C39 1.382 . S
C41 C25 1.411 . S
C41 C39 1.403 . S
C41 C42 1.489 . S
C42 C41 1.489 . S
C42 C43 1.383 . S
C42 C47 1.382 . S
C43 H14 0.950 . S
C43 C42 1.383 . S
C43 C44 1.395 . S
C44 H15 0.950 . S
C44 C43 1.395 . S
C44 C45 1.288 . S
C45 C44 1.288 . S
C45 C46 1.392 . S
C46 H16 0.951 . S
C46 C45 1.392 . S
C46 C47 1.392 . S
C47 H17 0.949 . S
C47 C42 1.382 . S
C47 C46 1.392 . S
H48 C67 0.949 . S
H49 C68 0.950 . S
H50 C70 0.950 1_554 S
H51 C71 0.950 . S
H52 C73 0.950 1_556 S
H53 C76 0.950 . S
H54 C77 0.950 . S
H55 C79 0.951 . S
H56 C80 0.949 . S
H57 C82 0.949 . S
H58 C83 0.950 . S
H59 C85 0.950 . S
H60 C86 0.950 . S
H61 C88 0.950 . S
H62 C91 0.950 . S
H63 C92 0.950 . S
H64 C94 0.951 . S
H65 C95 0.949 . S
C66 C67 1.376 1_554 S
C66 C71 1.386 . S
C66 C72 1.483 . S
C67 H48 0.949 . S
C67 C66 1.376 1_556 S
C67 C68 1.397 . S
C68 H49 0.950 . S
C68 C67 1.397 . S
C68 C69 1.391 . S
C69 C68 1.391 . S
C69 C70 1.409 . S
C70 H50 0.950 1_556 S
C70 C69 1.409 . S
C70 C71 1.363 1_556 S
C71 H51 0.950 . S
C71 C66 1.386 . S
C71 C70 1.363 1_554 S
C72 C66 1.483 . S
C72 C73 1.382 . S
C72 C74 1.403 . S
C73 H52 0.950 1_554 S
C73 C72 1.382 . S
C73 C89 1.411 . S
C74 C72 1.403 . S
C74 C75 1.489 . S
C74 C88 1.411 . S
C75 C74 1.489 . S
C75 C76 1.383 . S
C75 C80 1.382 . S
C76 H53 0.950 . S
C76 C75 1.383 . S
C76 C77 1.395 . S
C77 H54 0.950 . S
C77 C76 1.395 . S
C77 C78 1.288 . S
C78 C77 1.288 . S
C78 C79 1.392 . S
C79 H55 0.951 . S
C79 C78 1.392 . S
C79 C80 1.392 . S
C80 H56 0.949 . S
C80 C75 1.382 . S
C80 C79 1.392 . S
C81 C82 1.376 . S
C81 C86 1.386 . S
C81 C87 1.483 . S
C82 H57 0.949 . S
C82 C81 1.376 . S
C82 C83 1.397 . S
C83 H58 0.950 . S
C83 C82 1.397 . S
C83 C84 1.391 . S
C84 C83 1.391 . S
C84 C85 1.405 . S
C85 H59 0.950 . S
C85 C84 1.405 . S
C85 C86 1.367 . S
C86 H60 0.950 . S
C86 C81 1.386 . S
C86 C85 1.367 . S
C87 C81 1.483 . S
C87 C88 1.382 . S
C87 C89 1.403 . S
C88 H61 0.950 . S
C88 C74 1.411 . S
C88 C87 1.382 . S
C89 C73 1.411 . S
C89 C87 1.403 . S
C89 C90 1.489 . S
C90 C89 1.489 . S
C90 C91 1.383 . S
C90 C95 1.382 1_554 S
C91 H62 0.950 . S
C91 C90 1.383 . S
C91 C92 1.395 1_554 S
C92 H63 0.950 . S
C92 C91 1.395 1_556 S
C92 C93 1.288 . S
C93 C92 1.288 . S
C93 C94 1.392 . S
C94 H64 0.951 . S
C94 C93 1.392 . S
C94 C95 1.392 . S
C95 H65 0.949 . S
C95 C90 1.382 1_556 S
C95 C94 1.392 . S
H96 C115 0.949 . S
H97 C116 0.950 . S
H98 C118 0.950 . S
H99 C119 0.950 . S
H100 C121 0.950 . S
H101 C124 0.950 . S
H102 C125 0.950 . S
H103 C127 0.951 . S
H104 C128 0.949 . S
H105 C130 0.949 . S
H106 C131 0.950 . S
H107 C133 0.950 . S
H108 C134 0.950 . S
H109 C136 0.950 . S
H110 C139 0.950 . S
H111 C140 0.950 . S
H112 C142 0.951 . S
H113 C143 0.949 . S
C114 C115 1.376 . S
C114 C119 1.386 . S
C114 C120 1.483 1_556 S
C115 H96 0.949 . S
C115 C114 1.376 . S
C115 C116 1.397 . S
C116 H97 0.950 . S
C116 C115 1.397 . S
C116 C117 1.391 . S
C117 C116 1.391 . S
C117 C118 1.405 . S
C118 H98 0.950 . S
C118 C117 1.405 . S
C118 C119 1.367 . S
C119 H99 0.950 . S
C119 C114 1.386 . S
C119 C118 1.367 . S
C120 C114 1.483 1_554 S
C120 C121 1.382 1_554 S
C120 C122 1.403 . S
C121 H100 0.950 . S
C121 C120 1.382 1_556 S
C121 C137 1.411 1_556 S
C122 C120 1.403 . S
C122 C123 1.489 . S
C122 C136 1.411 . S
C123 C122 1.489 . S
C123 C124 1.383 . S
C123 C128 1.382 . S
C124 H101 0.950 . S
C124 C123 1.383 . S
C124 C125 1.395 . S
C125 H102 0.950 . S
C125 C124 1.395 . S
C125 C126 1.288 . S
C126 C125 1.288 . S
C126 C127 1.392 . S
C127 H103 0.951 . S
C127 C126 1.392 . S
C127 C128 1.392 . S
C128 H104 0.949 . S
C128 C123 1.382 . S
C128 C127 1.392 . S
C129 C130 1.376 . S
C129 C134 1.386 . S
C129 C135 1.483 . S
C130 H105 0.949 . S
C130 C129 1.376 . S
C130 C131 1.397 . S
C131 H106 0.950 . S
C131 C130 1.397 . S
C131 C132 1.391 . S
C132 C131 1.391 . S
C132 C133 1.405 . S
C133 H107 0.950 . S
C133 C132 1.405 . S
C133 C134 1.367 . S
C134 H108 0.950 . S
C134 C129 1.386 . S
C134 C133 1.367 . S
C135 C129 1.483 . S
C135 C136 1.382 . S
C135 C137 1.403 . S
C136 H109 0.950 . S
C136 C122 1.411 . S
C136 C135 1.382 . S
C137 C121 1.411 1_554 S
C137 C135 1.403 . S
C137 C138 1.489 1_554 S
C138 C137 1.489 1_556 S
C138 C139 1.383 . S
C138 C143 1.382 . S
C139 H110 0.950 . S
C139 C138 1.383 . S
C139 C140 1.395 . S
C140 H111 0.950 . S
C140 C139 1.395 . S
C140 C141 1.288 . S
C141 C140 1.288 . S
C141 C142 1.392 . S
C142 H112 0.951 . S
C142 C141 1.392 . S
C142 C143 1.392 . S
C143 H113 0.949 . S
C143 C138 1.382 . S
C143 C142 1.392 . S
H144 C163 0.949 . S
H145 C164 0.950 . S
H146 C166 0.950 . S
H147 C167 0.950 . S
H148 C169 0.950 . S
H149 C172 0.950 . S
H150 C173 0.950 . S
H151 C175 0.951 . S
H152 C176 0.949 . S
H153 C178 0.949 . S
H154 C179 0.950 . S
H155 C181 0.950 . S
H156 C182 0.950 . S
H157 C184 0.950 . S
H158 C187 0.950 . S
H159 C188 0.950 . S
H160 C190 0.951 . S
H161 C191 0.949 . S
C162 C163 1.376 . S
C162 C167 1.386 . S
C162 C168 1.483 . S
C163 H144 0.949 . S
C163 C162 1.376 . S
C163 C164 1.397 . S
C164 H145 0.950 . S
C164 C163 1.397 . S
C164 C165 1.391 . S
C165 C164 1.391 . S
C165 C166 1.405 . S
C166 H146 0.950 . S
C166 C165 1.405 . S
C166 C167 1.367 . S
C167 H147 0.950 . S
C167 C162 1.386 . S
C167 C166 1.367 . S
C168 C162 1.483 . S
C168 C169 1.382 . S
C168 C170 1.403 1_554 S
C169 H148 0.950 . S
C169 C168 1.382 . S
C169 C185 1.411 . S
C170 C168 1.403 1_556 S
C170 C171 1.489 . S
C170 C184 1.411 . S
C171 C170 1.489 . S
C171 C172 1.383 . S
C171 C176 1.382 . S
C172 H149 0.950 . S
C172 C171 1.383 . S
C172 C173 1.395 . S
C173 H150 0.950 . S
C173 C172 1.395 . S
C173 C174 1.288 . S
C174 C173 1.288 . S
C174 C175 1.392 . S
C175 H151 0.951 . S
C175 C174 1.392 . S
C175 C176 1.392 . S
C176 H152 0.949 . S
C176 C171 1.382 . S
C176 C175 1.392 . S
C177 C178 1.376 . S
C177 C182 1.386 . S
C177 C183 1.483 . S
C178 H153 0.949 . S
C178 C177 1.376 . S
C178 C179 1.397 . S
C179 H154 0.950 . S
C179 C178 1.397 . S
C179 C180 1.391 . S
C180 C179 1.391 . S
C180 C181 1.405 . S
C181 H155 0.950 . S
C181 C180 1.405 . S
C181 C182 1.367 . S
C182 H156 0.950 . S
C182 C177 1.386 . S
C182 C181 1.367 . S
C183 C177 1.483 . S
C183 C184 1.382 . S
C183 C185 1.403 1_556 S
C184 H157 0.950 . S
C184 C170 1.411 . S
C184 C183 1.382 . S
C185 C169 1.411 . S
C185 C183 1.403 1_554 S
C185 C186 1.489 . S
C186 C185 1.489 . S
C186 C187 1.383 . S
C186 C191 1.382 . S
C187 H158 0.950 . S
C187 C186 1.383 . S
C187 C188 1.395 . S
C188 H159 0.950 . S
C188 C187 1.395 . S
C188 C189 1.288 . S
C189 C188 1.288 . S
C189 C190 1.392 . S
C190 H160 0.951 . S
C190 C189 1.392 . S
C190 C191 1.392 . S
C191 H161 0.949 . S
C191 C186 1.382 . S
C191 C190 1.392 . S
H192 C211 0.949 . S
H193 C212 0.950 . S
H194 C214 0.950 . S
H195 C215 0.950 . S
H196 C217 0.950 . S
H197 C220 0.950 . S
H198 C221 0.950 . S
H199 C223 0.951 . S
H200 C224 0.949 . S
H201 C226 0.949 . S
H202 C227 0.950 . S
H203 C229 0.950 . S
H204 C230 0.950 . S
H205 C232 0.950 . S
H206 C235 0.950 . S
H207 C236 0.950 1_554 S
H208 C238 0.951 . S
H209 C239 0.949 . S
C210 C211 1.376 . S
C210 C215 1.386 . S
C210 C216 1.483 . S
C211 H192 0.949 . S
C211 C210 1.376 . S
C211 C212 1.397 1_554 S
C212 H193 0.950 . S
C212 C211 1.397 1_556 S
C212 C213 1.391 . S
C213 C212 1.391 . S
C213 C214 1.405 1_556 S
C214 H194 0.950 . S
C214 C213 1.405 1_554 S
C214 C215 1.367 . S
C215 H195 0.950 . S
C215 C210 1.386 . S
C215 C214 1.367 . S
C216 C210 1.483 . S
C216 C217 1.382 . S
C216 C218 1.403 . S
C217 H196 0.950 . S
C217 C216 1.382 . S
C217 C233 1.411 . S
C218 C216 1.403 . S
C218 C219 1.489 . S
C218 C232 1.411 . S
C219 C218 1.489 . S
C219 C220 1.383 . S
C219 C224 1.382 . S
C220 H197 0.950 . S
C220 C219 1.383 . S
C220 C221 1.395 . S
C221 H198 0.950 . S
C221 C220 1.395 . S
C221 C222 1.288 . S
C222 C221 1.288 . S
C222 C223 1.392 . S
C223 H199 0.951 . S
C223 C222 1.392 . S
C223 C224 1.392 . S
C224 H200 0.949 . S
C224 C219 1.382 . S
C224 C223 1.392 . S
C225 C226 1.376 . S
C225 C230 1.386 . S
C225 C231 1.483 . S
C226 H201 0.949 . S
C226 C225 1.376 . S
C226 C227 1.397 . S
C227 H202 0.950 . S
C227 C226 1.397 . S
C227 C228 1.391 . S
C228 C227 1.391 . S
C228 C229 1.405 . S
C229 H203 0.950 . S
C229 C228 1.405 . S
C229 C230 1.367 . S
C230 H204 0.950 . S
C230 C225 1.386 . S
C230 C229 1.367 . S
C231 C225 1.483 . S
C231 C232 1.382 . S
C231 C233 1.403 . S
C232 H205 0.950 . S
C232 C218 1.411 . S
C232 C231 1.382 . S
C233 C217 1.411 . S
C233 C231 1.403 . S
C233 C234 1.489 . S
C234 C233 1.489 . S
C234 C235 1.383 . S
C234 C239 1.382 1_554 S
C235 H206 0.950 . S
C235 C234 1.383 . S
C235 C236 1.394 1_554 S
C236 H207 0.950 1_556 S
C236 C235 1.394 1_556 S
C236 C237 1.289 . S
C237 C236 1.289 . S
C237 C238 1.392 . S
C238 H208 0.951 . S
C238 C237 1.392 . S
C238 C239 1.392 . S
C239 H209 0.949 . S
C239 C234 1.382 1_556 S
C239 C238 1.392 . S
H240 C259 0.949 . S
H241 C260 0.950 . S
H242 C262 0.950 . S
H243 C263 0.950 . S
H244 C265 0.950 . S
H245 C268 0.950 . S
H246 C269 0.950 . S
H247 C271 0.951 . S
H248 C272 0.949 . S
H249 C274 0.949 . S
H250 C275 0.950 . S
H251 C277 0.950 . S
H252 C278 0.950 . S
H253 C280 0.950 . S
H254 C283 0.950 . S
H255 C284 0.950 . S
H256 C286 0.952 1_556 S
H257 C287 0.949 . S
C258 C259 1.376 . S
C258 C263 1.386 . S
C258 C264 1.483 . S
C259 H240 0.949 . S
C259 C258 1.376 . S
C259 C260 1.397 . S
C260 H241 0.950 . S
C260 C259 1.397 . S
C260 C261 1.391 . S
C261 C260 1.391 . S
C261 C262 1.405 . S
C262 H242 0.950 . S
C262 C261 1.405 . S
C262 C263 1.367 . S
C263 H243 0.950 . S
C263 C258 1.386 . S
C263 C262 1.367 . S
C264 C258 1.483 . S
C264 C265 1.382 . S
C264 C266 1.403 . S
C265 H244 0.950 . S
C265 C264 1.382 . S
C265 C281 1.411 . S
C266 C264 1.403 . S
C266 C267 1.489 . S
C266 C280 1.411 . S
C267 C266 1.489 . S
C267 C268 1.383 . S
C267 C272 1.382 . S
C268 H245 0.950 . S
C268 C267 1.383 . S
C268 C269 1.395 . S
C269 H246 0.950 . S
C269 C268 1.395 . S
C269 C270 1.288 . S
C270 C269 1.288 . S
C270 C271 1.392 . S
C271 H247 0.951 . S
C271 C270 1.392 . S
C271 C272 1.392 . S
C272 H248 0.949 . S
C272 C267 1.382 . S
C272 C271 1.392 . S
C273 C274 1.376 . S
C273 C278 1.386 . S
C273 C279 1.483 . S
C274 H249 0.949 . S
C274 C273 1.376 . S
C274 C275 1.397 . S
C275 H250 0.950 . S
C275 C274 1.397 . S
C275 C276 1.391 . S
C276 C275 1.391 . S
C276 C277 1.405 . S
C277 H251 0.950 . S
C277 C276 1.405 . S
C277 C278 1.367 . S
C278 H252 0.950 . S
C278 C273 1.386 . S
C278 C277 1.367 . S
C279 C273 1.483 . S
C279 C280 1.382 . S
C279 C281 1.403 . S
C280 H253 0.950 . S
C280 C266 1.411 . S
C280 C279 1.382 . S
C281 C265 1.411 . S
C281 C279 1.403 . S
C281 C282 1.489 . S
C282 C281 1.489 . S
C282 C283 1.383 . S
C282 C287 1.382 . S
C283 H254 0.950 . S
C283 C282 1.383 . S
C283 C284 1.395 . S
C284 H255 0.950 . S
C284 C283 1.395 . S
C284 C285 1.288 . S
C285 C284 1.288 . S
C285 C286 1.392 . S
C286 H256 0.952 1_554 S
C286 C285 1.392 . S
C286 C287 1.392 . S
C287 H257 0.949 . S
C287 C282 1.382 . S
C287 C286 1.392 . S
C288 O315 1.312 . S
C288 O316 1.208 . S
C289 O310 1.331 . S
C289 O313 1.244 . S
C290 O312 1.264 . S
C290 O314 1.273 . S
Mg291 O293 1.919 1_455 S
Mg291 O300 2.081 1_455 S
Mg291 O302 2.023 . S
Mg291 O306 2.031 1_455 S
Mg291 O315 2.291 . S
Mg292 O293 1.982 . S
Mg292 O303 1.942 . S
Mg292 O304 1.955 1_655 S
Mg292 O311 1.986 . S
O293 Mg291 1.919 1_655 S
O293 Mg292 1.982 . S
O293 Mg294 1.896 1_655 S
Mg294 O293 1.896 1_455 S
Mg294 O295 1.915 . S
Mg294 O299 2.013 . S
Mg294 O305 2.114 1_455 S
Mg294 O309 2.013 1_455 S
Mg294 O315 2.114 . S
O295 Mg294 1.915 . S
O295 Mg296 1.936 . S
O295 Mg297 1.963 . S
Mg296 O295 1.936 . S
Mg296 O305 2.291 1_455 S
Mg296 O310 2.081 . S
Mg296 O312 2.023 1_455 S
Mg296 O316 2.031 . S
Mg297 O295 1.963 . S
Mg297 O301 1.986 . S
Mg297 O313 1.942 . S
Mg297 O314 1.955 1_455 S
C298 O309 1.191 . S
C298 O311 1.307 . S
O299 Mg294 2.013 . S
O299 C318 1.191 . S
O300 Mg291 2.081 1_655 S
O300 C308 1.331 . S
O301 Mg297 1.986 . S
O301 C318 1.307 . S
O302 Mg291 2.023 . S
O302 C317 1.264 . S
O303 Mg292 1.942 . S
O303 C308 1.244 . S
O304 Mg292 1.955 1_455 S
O304 C317 1.273 . S
O305 Mg294 2.114 1_655 S
O305 Mg296 2.291 1_655 S
O305 C307 1.312 . S
O306 Mg291 2.031 1_655 S
O306 C307 1.208 . S
C307 O305 1.312 . S
C307 O306 1.208 . S
C308 O300 1.331 . S
C308 O303 1.244 . S
O309 Mg294 2.013 1_655 S
O309 C298 1.191 . S
O310 C289 1.331 . S
O310 Mg296 2.081 . S
O311 Mg292 1.986 . S
O311 C298 1.307 . S
O312 C290 1.264 . S
O312 Mg296 2.023 1_655 S
O313 C289 1.244 . S
O313 Mg297 1.942 . S
O314 C290 1.273 . S
O314 Mg297 1.955 1_655 S
O315 C288 1.312 . S
O315 Mg291 2.291 . S
O315 Mg294 2.114 . S
O316 C288 1.208 . S
O316 Mg296 2.031 . S
C317 O302 1.264 . S
C317 O304 1.273 . S
C318 O299 1.191 . S
C318 O301 1.307 . S
C319 O346 1.312 . S
C319 O347 1.208 . S
C320 O341 1.331 . S
C320 O344 1.244 . S
C321 O343 1.264 . S
C321 O345 1.273 . S
Mg322 O324 1.936 1_545 S
Mg322 O331 2.081 1_545 S
Mg322 O333 2.023 . S
Mg322 O337 2.031 1_545 S
Mg322 O346 2.291 . S
Mg323 O324 1.963 . S
Mg323 O334 1.942 . S
Mg323 O335 1.955 1_565 S
Mg323 O342 1.986 . S
O324 Mg322 1.936 1_565 S
O324 Mg323 1.963 . S
O324 Mg325 1.915 1_565 S
Mg325 O324 1.915 1_545 S
Mg325 O326 1.915 . S
Mg325 O330 2.013 . S
Mg325 O336 2.114 1_545 S
Mg325 O340 2.013 1_545 S
Mg325 O346 2.114 . S
O326 Mg325 1.915 . S
O326 Mg327 1.936 . S
O326 Mg328 1.963 . S
Mg327 O326 1.936 . S
Mg327 O336 2.291 1_545 S
Mg327 O341 2.081 . S
Mg327 O343 2.023 1_545 S
Mg327 O347 2.031 . S
Mg328 O326 1.963 . S
Mg328 O332 1.986 . S
Mg328 O344 1.942 . S
Mg328 O345 1.955 1_545 S
C329 O340 1.191 . S
C329 O342 1.307 . S
O330 Mg325 2.013 . S
O330 C349 1.191 . S
O331 Mg322 2.081 1_565 S
O331 C339 1.331 . S
O332 Mg328 1.986 . S
O332 C349 1.307 . S
O333 Mg322 2.023 . S
O333 C348 1.264 . S
O334 Mg323 1.942 . S
O334 C339 1.244 . S
O335 Mg323 1.955 1_545 S
O335 C348 1.273 . S
O336 Mg325 2.114 1_565 S
O336 Mg327 2.291 1_565 S
O336 C338 1.312 . S
O337 Mg322 2.031 1_565 S
O337 C338 1.208 . S
C338 O336 1.312 . S
C338 O337 1.208 . S
C339 O331 1.331 . S
C339 O334 1.244 . S
O340 Mg325 2.013 1_565 S
O340 C329 1.191 . S
O341 C320 1.331 . S
O341 Mg327 2.081 . S
O342 Mg323 1.986 . S
O342 C329 1.307 . S
O343 C321 1.264 . S
O343 Mg327 2.023 1_565 S
O344 C320 1.244 . S
O344 Mg328 1.942 . S
O345 C321 1.273 . S
O345 Mg328 1.955 1_565 S
O346 C319 1.312 . S
O346 Mg322 2.291 . S
O346 Mg325 2.114 . S
O347 C319 1.208 . S
O347 Mg327 2.031 . S
C348 O333 1.264 . S
C348 O335 1.273 . S
C349 O330 1.191 . S
C349 O332 1.307 . S
C350 O377 1.312 . S
C350 O378 1.208 . S
C351 O372 1.331 . S
C351 O375 1.244 . S
C352 O374 1.264 . S
C352 O376 1.273 . S
Mg353 O355 1.936 . S
Mg353 O362 2.081 . S
Mg353 O364 2.023 . S
Mg353 O368 2.031 . S
Mg353 O377 2.291 . S
Mg354 O355 1.963 . S
Mg354 O365 1.942 . S
Mg354 O366 1.955 . S
Mg354 O373 1.986 . S
O355 Mg353 1.936 . S
O355 Mg354 1.963 . S
O355 Mg356 1.915 . S
Mg356 O355 1.915 . S
Mg356 O357 1.915 . S
Mg356 O361 2.013 . S
Mg356 O367 2.114 . S
Mg356 O371 2.013 . S
Mg356 O377 2.114 . S
O357 Mg356 1.915 . S
O357 Mg358 1.936 . S
O357 Mg359 1.963 . S
Mg358 O357 1.936 . S
Mg358 O367 2.291 . S
Mg358 O372 2.081 . S
Mg358 O374 2.023 . S
Mg358 O378 2.031 . S
Mg359 O357 1.963 . S
Mg359 O363 1.986 . S
Mg359 O375 1.942 . S
Mg359 O376 1.955 . S
C360 O371 1.191 . S
C360 O373 1.307 . S
O361 Mg356 2.013 . S
O361 C380 1.191 . S
O362 Mg353 2.081 . S
O362 C370 1.331 . S
O363 Mg359 1.986 . S
O363 C380 1.307 . S
O364 Mg353 2.023 . S
O364 C379 1.264 . S
O365 Mg354 1.942 . S
O365 C370 1.244 . S
O366 Mg354 1.955 . S
O366 C379 1.273 . S
O367 Mg356 2.114 . S
O367 Mg358 2.291 . S
O367 C369 1.312 . S
O368 Mg353 2.031 . S
O368 C369 1.208 . S
C369 O367 1.312 . S
C369 O368 1.208 . S
C370 O362 1.331 . S
C370 O365 1.244 . S
O371 Mg356 2.013 . S
O371 C360 1.191 . S
O372 C351 1.331 . S
O372 Mg358 2.081 . S
O373 Mg354 1.986 . S
O373 C360 1.307 . S
O374 C352 1.264 . S
O374 Mg358 2.023 . S
O375 C351 1.244 . S
O375 Mg359 1.942 . S
O376 C352 1.273 . S
O376 Mg359 1.955 . S
O377 C350 1.312 . S
O377 Mg353 2.291 . S
O377 Mg356 2.114 . S
O378 C350 1.208 . S
O378 Mg358 2.031 . S
C379 O364 1.264 . S
C379 O366 1.273 . S
C380 O361 1.191 . S
C380 O363 1.307 . S
H381 C393 0.930 . S
H382 C395 0.930 . S
H383 C396 0.930 . S
H384 C400 0.959 . S
H385 C400 0.959 . S
H386 C400 0.961 . S
H387 C401 0.960 . S
H388 C401 0.961 . S
H389 C401 0.959 . S
H390 C404 0.929 . S
H391 C405 0.931 . S
H392 C407 0.930 . S
C393 H381 0.930 . S
C393 C394 1.399 . S
C393 C398 1.399 . S
C394 C393 1.399 . S
C394 C395 1.376 . S
C395 H382 0.930 . S
C395 C394 1.376 . S
C395 C396 1.388 . S
C396 H383 0.930 . S
C396 C395 1.388 . S
C396 C397 1.390 . S
C397 C396 1.390 . S
C397 C398 1.394 . S
C397 C403 1.465 . S
C398 C393 1.399 . S
C398 C397 1.394 . S
C398 C399 1.516 . S
C399 C398 1.516 . S
C399 C400 1.502 . S
C399 C401 1.561 . S
C399 C402 1.526 . S
C400 H384 0.959 . S
C400 H385 0.959 . S
C400 H386 0.961 . S
C400 C399 1.502 . S
C401 H387 0.960 . S
C401 H388 0.961 . S
C401 H389 0.959 . S
C401 C399 1.561 . S
C402 C399 1.526 . S
C402 C403 1.396 . S
C402 C407 1.390 . S
C403 C397 1.465 . S
C403 C402 1.396 . S
C403 C404 1.399 . S
C404 H390 0.929 . S
C404 C403 1.399 . S
C404 C405 1.385 . S
C405 H391 0.931 . S
C405 C404 1.385 . S
C405 C406 1.389 . S
C406 C405 1.389 . S
C406 C407 1.387 . S
C407 H392 0.930 . S
C407 C402 1.390 . S
C407 C406 1.387 . S
H408 C420 0.930 . S
H409 C422 0.930 . S
H410 C423 0.930 . S
H411 C427 0.959 . S
H412 C427 0.959 . S
H413 C427 0.961 . S
H414 C428 0.960 . S
H415 C428 0.961 . S
H416 C428 0.959 . S
H417 C431 0.929 . S
H418 C432 0.931 . S
H419 C434 0.930 . S
C420 H408 0.930 . S
C420 C421 1.399 . S
C420 C425 1.399 . S
C421 C420 1.399 . S
C421 C422 1.376 . S
C422 H409 0.930 . S
C422 C421 1.376 . S
C422 C423 1.388 . S
C423 H410 0.930 . S
C423 C422 1.388 . S
C423 C424 1.390 . S
C424 C423 1.390 . S
C424 C425 1.394 . S
C424 C430 1.465 . S
C425 C420 1.399 . S
C425 C424 1.394 . S
C425 C426 1.516 . S
C426 C425 1.516 . S
C426 C427 1.502 . S
C426 C428 1.561 . S
C426 C429 1.526 . S
C427 H411 0.959 . S
C427 H412 0.959 . S
C427 H413 0.961 . S
C427 C426 1.502 . S
C428 H414 0.960 . S
C428 H415 0.961 . S
C428 H416 0.959 . S
C428 C426 1.561 . S
C429 C426 1.526 . S
C429 C430 1.396 . S
C429 C434 1.390 . S
C430 C424 1.465 . S
C430 C429 1.396 . S
C430 C431 1.399 . S
C431 H417 0.929 . S
C431 C430 1.399 . S
C431 C432 1.385 . S
C432 H418 0.931 . S
C432 C431 1.385 . S
C432 C433 1.389 . S
C433 C432 1.389 . S
C433 C434 1.387 . S
C434 H419 0.930 . S
C434 C429 1.390 . S
C434 C433 1.387 . S
H435 C447 0.930 . S
H436 C449 0.930 . S
H437 C450 0.930 . S
H438 C454 0.959 . S
H439 C454 0.959 . S
H440 C454 0.961 . S
H441 C455 0.960 . S
H442 C455 0.961 . S
H443 C455 0.959 . S
H444 C458 0.929 . S
H445 C459 0.931 . S
H446 C461 0.930 . S
C447 H435 0.930 . S
C447 C448 1.399 . S
C447 C452 1.399 . S
C448 C447 1.399 . S
C448 C449 1.376 . S
C449 H436 0.930 . S
C449 C448 1.376 . S
C449 C450 1.388 . S
C450 H437 0.930 . S
C450 C449 1.388 . S
C450 C451 1.390 . S
C451 C450 1.390 . S
C451 C452 1.394 . S
C451 C457 1.465 . S
C452 C447 1.399 . S
C452 C451 1.394 . S
C452 C453 1.516 . S
C453 C452 1.516 . S
C453 C454 1.502 . S
C453 C455 1.561 . S
C453 C456 1.526 . S
C454 H438 0.959 . S
C454 H439 0.959 . S
C454 H440 0.961 . S
C454 C453 1.502 . S
C455 H441 0.960 . S
C455 H442 0.961 . S
C455 H443 0.959 . S
C455 C453 1.561 . S
C456 C453 1.526 . S
C456 C457 1.396 . S
C456 C461 1.390 . S
C457 C451 1.465 . S
C457 C456 1.396 . S
C457 C458 1.399 . S
C458 H444 0.929 . S
C458 C457 1.399 . S
C458 C459 1.385 . S
C459 H445 0.931 . S
C459 C458 1.385 . S
C459 C460 1.389 . S
C460 C459 1.389 . S
C460 C461 1.387 . S
C461 H446 0.930 . S
C461 C456 1.390 . S
C461 C460 1.387 . S
H462 C474 0.930 . S
H463 C476 0.930 . S
H464 C477 0.930 . S
H465 C481 0.959 . S
H466 C481 0.959 . S
H467 C481 0.961 . S
H468 C482 0.960 . S
H469 C482 0.961 . S
H470 C482 0.959 . S
H471 C485 0.929 . S
H472 C486 0.931 . S
H473 C488 0.930 . S
C474 H462 0.930 . S
C474 C475 1.399 . S
C474 C479 1.399 . S
C475 C474 1.399 . S
C475 C476 1.376 . S
C476 H463 0.930 . S
C476 C475 1.376 . S
C476 C477 1.388 . S
C477 H464 0.930 . S
C477 C476 1.388 . S
C477 C478 1.390 . S
C478 C477 1.390 . S
C478 C479 1.394 . S
C478 C484 1.465 . S
C479 C474 1.399 . S
C479 C478 1.394 . S
C479 C480 1.516 . S
C480 C479 1.516 . S
C480 C481 1.502 . S
C480 C482 1.561 . S
C480 C483 1.526 . S
C481 H465 0.959 . S
C481 H466 0.959 . S
C481 H467 0.961 . S
C481 C480 1.502 . S
C482 H468 0.960 . S
C482 H469 0.961 . S
C482 H470 0.959 . S
C482 C480 1.561 . S
C483 C480 1.526 . S
C483 C484 1.396 . S
C483 C488 1.390 . S
C484 C478 1.465 . S
C484 C483 1.396 . S
C484 C485 1.399 . S
C485 H471 0.929 . S
C485 C484 1.399 . S
C485 C486 1.385 . S
C486 H472 0.931 . S
C486 C485 1.385 . S
C486 C487 1.389 . S
C487 C486 1.389 . S
C487 C488 1.387 . S
C488 H473 0.930 . S
C488 C483 1.390 . S
C488 C487 1.387 . S
H489 C501 0.930 . S
H490 C503 0.930 . S
H491 C504 0.930 . S
H492 C508 0.959 . S
H493 C508 0.959 . S
H494 C508 0.961 . S
H495 C509 0.960 . S
H496 C509 0.961 . S
H497 C509 0.959 . S
H498 C512 0.929 . S
H499 C513 0.931 . S
H500 C515 0.930 . S
C501 H489 0.930 . S
C501 C502 1.399 . S
C501 C506 1.399 . S
C502 C501 1.399 . S
C502 C503 1.376 . S
C503 H490 0.930 . S
C503 C502 1.376 . S
C503 C504 1.388 . S
C504 H491 0.930 . S
C504 C503 1.388 . S
C504 C505 1.390 . S
C505 C504 1.390 . S
C505 C506 1.394 . S
C505 C511 1.465 . S
C506 C501 1.399 . S
C506 C505 1.394 . S
C506 C507 1.516 . S
C507 C506 1.516 . S
C507 C508 1.502 . S
C507 C509 1.561 . S
C507 C510 1.526 . S
C508 H492 0.959 . S
C508 H493 0.959 . S
C508 H494 0.961 . S
C508 C507 1.502 . S
C509 H495 0.960 . S
C509 H496 0.961 . S
C509 H497 0.959 . S
C509 C507 1.561 . S
C510 C507 1.526 . S
C510 C511 1.396 . S
C510 C515 1.390 . S
C511 C505 1.465 . S
C511 C510 1.396 . S
C511 C512 1.399 . S
C512 H498 0.929 . S
C512 C511 1.399 . S
C512 C513 1.385 . S
C513 H499 0.931 . S
C513 C512 1.385 . S
C513 C514 1.389 . S
C514 C513 1.389 . S
C514 C515 1.387 . S
C515 H500 0.930 . S
C515 C510 1.390 . S
C515 C514 1.387 . S
H516 C528 0.930 . S
H517 C530 0.930 . S
H518 C531 0.930 . S
H519 C535 0.959 . S
H520 C535 0.959 . S
H521 C535 0.961 . S
H522 C536 0.960 . S
H523 C536 0.961 . S
H524 C536 0.959 . S
H525 C539 0.929 . S
H526 C540 0.931 . S
H527 C542 0.930 . S
C528 H516 0.930 . S
C528 C529 1.399 . S
C528 C533 1.399 . S
C529 C528 1.399 . S
C529 C530 1.376 . S
C530 H517 0.930 . S
C530 C529 1.376 . S
C530 C531 1.388 . S
C531 H518 0.930 . S
C531 C530 1.388 . S
C531 C532 1.390 . S
C532 C531 1.390 . S
C532 C533 1.394 . S
C532 C538 1.465 . S
C533 C528 1.399 . S
C533 C532 1.394 . S
C533 C534 1.516 . S
C534 C533 1.516 . S
C534 C535 1.502 . S
C534 C536 1.561 . S
C534 C537 1.526 . S
C535 H519 0.959 . S
C535 H520 0.959 . S
C535 H521 0.961 . S
C535 C534 1.502 . S
C536 H522 0.960 . S
C536 H523 0.961 . S
C536 H524 0.959 . S
C536 C534 1.561 . S
C537 C534 1.526 . S
C537 C538 1.396 . S
C537 C542 1.390 . S
C538 C532 1.465 . S
C538 C537 1.396 . S
C538 C539 1.399 . S
C539 H525 0.929 . S
C539 C538 1.399 . S
C539 C540 1.385 . S
C540 H526 0.931 . S
C540 C539 1.385 . S
C540 C541 1.389 . S
C541 C540 1.389 . S
C541 C542 1.387 . S
C542 H527 0.930 . S
C542 C537 1.390 . S
C542 C541 1.387 . S
H543 C555 0.930 . S
H544 C557 0.930 . S
H545 C558 0.930 . S
H546 C562 0.959 . S
H547 C562 0.959 . S
H548 C562 0.961 . S
H549 C563 0.960 . S
H550 C563 0.961 . S
H551 C563 0.959 . S
H552 C566 0.929 . S
H553 C567 0.931 . S
H554 C569 0.930 . S
C555 H543 0.930 . S
C555 C556 1.399 . S
C555 C560 1.399 . S
C556 C555 1.399 . S
C556 C557 1.376 . S
C557 H544 0.930 . S
C557 C556 1.376 . S
C557 C558 1.388 . S
C558 H545 0.930 . S
C558 C557 1.388 . S
C558 C559 1.390 . S
C559 C558 1.390 . S
C559 C560 1.394 . S
C559 C565 1.465 . S
C560 C555 1.399 . S
C560 C559 1.394 . S
C560 C561 1.516 . S
C561 C560 1.516 . S
C561 C562 1.502 . S
C561 C563 1.561 . S
C561 C564 1.526 . S
C562 H546 0.959 . S
C562 H547 0.959 . S
C562 H548 0.961 . S
C562 C561 1.502 . S
C563 H549 0.960 . S
C563 H550 0.961 . S
C563 H551 0.959 . S
C563 C561 1.561 . S
C564 C561 1.526 . S
C564 C565 1.396 . S
C564 C569 1.390 . S
C565 C559 1.465 . S
C565 C564 1.396 . S
C565 C566 1.399 . S
C566 H552 0.929 . S
C566 C565 1.399 . S
C566 C567 1.385 . S
C567 H553 0.931 . S
C567 C566 1.385 . S
C567 C568 1.389 . S
C568 C567 1.389 . S
C568 C569 1.387 . S
C569 H554 0.930 . S
C569 C564 1.390 . S
C569 C568 1.387 . S
H570 C582 0.930 . S
H571 C584 0.930 . S
H572 C585 0.930 . S
H573 C589 0.959 . S
H574 C589 0.959 . S
H575 C589 0.961 . S
H576 C590 0.960 . S
H577 C590 0.961 . S
H578 C590 0.959 . S
H579 C593 0.929 . S
H580 C594 0.931 . S
H581 C596 0.930 . S
C582 H570 0.930 . S
C582 C583 1.399 . S
C582 C587 1.399 . S
C583 C582 1.399 . S
C583 C584 1.376 . S
C584 H571 0.930 . S
C584 C583 1.376 . S
C584 C585 1.388 . S
C585 H572 0.930 . S
C585 C584 1.388 . S
C585 C586 1.390 . S
C586 C585 1.390 . S
C586 C587 1.394 . S
C586 C592 1.465 . S
C587 C582 1.399 . S
C587 C586 1.394 . S
C587 C588 1.516 . S
C588 C587 1.516 . S
C588 C589 1.502 . S
C588 C590 1.561 . S
C588 C591 1.526 . S
C589 H573 0.959 . S
C589 H574 0.959 . S
C589 H575 0.961 . S
C589 C588 1.502 . S
C590 H576 0.960 . S
C590 H577 0.961 . S
C590 H578 0.959 . S
C590 C588 1.561 . S
C591 C588 1.526 . S
C591 C592 1.396 . S
C591 C596 1.390 . S
C592 C586 1.465 . S
C592 C591 1.396 . S
C592 C593 1.399 . S
C593 H579 0.929 . S
C593 C592 1.399 . S
C593 C594 1.385 . S
C594 H580 0.931 . S
C594 C593 1.385 . S
C594 C595 1.389 . S
C595 C594 1.389 . S
C595 C596 1.387 . S
C596 H581 0.930 . S
C596 C591 1.390 . S
C596 C595 1.387 . S
H597 C609 0.930 . S
H598 C611 0.930 . S
H599 C612 0.930 . S
H600 C616 0.959 . S
H601 C616 0.959 . S
H602 C616 0.961 . S
H603 C617 0.960 . S
H604 C617 0.961 . S
H605 C617 0.959 . S
H606 C620 0.929 . S
H607 C621 0.931 . S
H608 C623 0.930 . S
C609 H597 0.930 . S
C609 C610 1.399 . S
C609 C614 1.399 . S
C610 C609 1.399 . S
C610 C611 1.376 . S
C611 H598 0.930 . S
C611 C610 1.376 . S
C611 C612 1.388 . S
C612 H599 0.930 . S
C612 C611 1.388 . S
C612 C613 1.390 . S
C613 C612 1.390 . S
C613 C614 1.394 . S
C613 C619 1.465 . S
C614 C609 1.399 . S
C614 C613 1.394 . S
C614 C615 1.516 . S
C615 C614 1.516 . S
C615 C616 1.502 . S
C615 C617 1.561 . S
C615 C618 1.526 . S
C616 H600 0.959 . S
C616 H601 0.959 . S
C616 H602 0.961 . S
C616 C615 1.502 . S
C617 H603 0.960 . S
C617 H604 0.961 . S
C617 H605 0.959 . S
C617 C615 1.561 . S
C618 C615 1.526 . S
C618 C619 1.396 . S
C618 C623 1.390 . S
C619 C613 1.465 . S
C619 C618 1.396 . S
C619 C620 1.399 . S
C620 H606 0.929 . S
C620 C619 1.399 . S
C620 C621 1.385 . S
C621 H607 0.931 . S
C621 C620 1.385 . S
C621 C622 1.389 . S
C622 C621 1.389 . S
C622 C623 1.387 . S
C623 H608 0.930 . S
C623 C618 1.390 . S
C623 C622 1.387 . S
H624 C636 0.930 1_554 S
H625 C638 0.930 . S
H626 C639 0.930 . S
H627 C643 0.959 . S
H628 C643 0.959 . S
H629 C643 0.961 1_554 S
H630 C644 0.960 1_554 S
H631 C644 0.961 . S
H632 C644 0.959 . S
H633 C647 0.929 . S
H634 C648 0.931 . S
H635 C650 0.930 . S
C636 H624 0.930 1_556 S
C636 C637 1.399 . S
C636 C641 1.399 . S
C637 C636 1.399 . S
C637 C638 1.376 . S
C638 H625 0.930 . S
C638 C637 1.376 . S
C638 C639 1.388 . S
C639 H626 0.930 . S
C639 C638 1.388 . S
C639 C640 1.390 . S
C640 C639 1.390 . S
C640 C641 1.394 . S
C640 C646 1.465 . S
C641 C636 1.399 . S
C641 C640 1.394 . S
C641 C642 1.516 . S
C642 C641 1.516 . S
C642 C643 1.502 . S
C642 C644 1.561 . S
C642 C645 1.526 . S
C643 H627 0.959 . S
C643 H628 0.959 . S
C643 H629 0.961 1_556 S
C643 C642 1.502 . S
C644 H630 0.960 1_556 S
C644 H631 0.961 . S
C644 H632 0.959 . S
C644 C642 1.561 . S
C645 C642 1.526 . S
C645 C646 1.396 . S
C645 C650 1.390 . S
C646 C640 1.465 . S
C646 C645 1.396 . S
C646 C647 1.399 . S
C647 H633 0.929 . S
C647 C646 1.399 . S
C647 C648 1.385 . S
C648 H634 0.931 . S
C648 C647 1.385 . S
C648 C649 1.389 . S
C649 C648 1.389 . S
C649 C650 1.387 . S
C650 H635 0.930 . S
C650 C645 1.390 . S
C650 C649 1.387 . S
H651 C663 0.930 . S
H652 C665 0.930 . S
H653 C666 0.930 . S
H654 C670 0.959 . S
H655 C670 0.959 . S
H656 C670 0.961 . S
H657 C671 0.960 . S
H658 C671 0.961 . S
H659 C671 0.959 . S
H660 C674 0.929 . S
H661 C675 0.931 . S
H662 C677 0.930 . S
C663 H651 0.930 . S
C663 C664 1.399 . S
C663 C668 1.399 . S
C664 C663 1.399 . S
C664 C665 1.376 1_556 S
C665 H652 0.930 . S
C665 C664 1.376 1_554 S
C665 C666 1.388 1_554 S
C666 H653 0.930 . S
C666 C665 1.388 1_556 S
C666 C667 1.390 . S
C667 C666 1.390 . S
C667 C668 1.394 . S
C667 C673 1.465 . S
C668 C663 1.399 . S
C668 C667 1.394 . S
C668 C669 1.516 . S
C669 C668 1.516 . S
C669 C670 1.502 . S
C669 C671 1.561 . S
C669 C672 1.526 . S
C670 H654 0.959 . S
C670 H655 0.959 . S
C670 H656 0.961 . S
C670 C669 1.502 . S
C671 H657 0.960 . S
C671 H658 0.961 . S
C671 H659 0.959 . S
C671 C669 1.561 . S
C672 C669 1.526 . S
C672 C673 1.396 . S
C672 C677 1.390 . S
C673 C667 1.465 . S
C673 C672 1.396 . S
C673 C674 1.399 . S
C674 H660 0.929 . S
C674 C673 1.399 . S
C674 C675 1.385 . S
C675 H661 0.931 . S
C675 C674 1.385 . S
C675 C676 1.389 . S
C676 C675 1.389 . S
C676 C677 1.387 . S
C677 H662 0.930 . S
C677 C672 1.390 . S
C677 C676 1.387 . S
H678 C690 0.930 . S
H679 C692 0.930 . S
H680 C693 0.930 . S
H681 C697 0.959 . S
H682 C697 0.959 . S
H683 C697 0.961 . S
H684 C698 0.960 . S
H685 C698 0.961 . S
H686 C698 0.959 . S
H687 C701 0.929 . S
H688 C702 0.931 . S
H689 C704 0.930 . S
C690 H678 0.930 . S
C690 C691 1.399 . S
C690 C695 1.399 . S
C691 C690 1.399 . S
C691 C692 1.376 . S
C692 H679 0.930 . S
C692 C691 1.376 . S
C692 C693 1.388 . S
C693 H680 0.930 . S
C693 C692 1.388 . S
C693 C694 1.390 . S
C694 C693 1.390 . S
C694 C695 1.394 . S
C694 C700 1.465 . S
C695 C690 1.399 . S
C695 C694 1.394 . S
C695 C696 1.516 . S
C696 C695 1.516 . S
C696 C697 1.502 . S
C696 C698 1.561 . S
C696 C699 1.526 . S
C697 H681 0.959 . S
C697 H682 0.959 . S
C697 H683 0.961 . S
C697 C696 1.502 . S
C698 H684 0.960 . S
C698 H685 0.961 . S
C698 H686 0.959 . S
C698 C696 1.561 . S
C699 C696 1.526 . S
C699 C700 1.396 . S
C699 C704 1.390 . S
C700 C694 1.465 . S
C700 C699 1.396 . S
C700 C701 1.399 . S
C701 H687 0.929 . S
C701 C700 1.399 . S
C701 C702 1.385 . S
C702 H688 0.931 . S
C702 C701 1.385 . S
C702 C703 1.389 . S
C703 C702 1.389 . S
C703 C704 1.387 . S
C704 H689 0.930 . S
C704 C699 1.390 . S
C704 C703 1.387 . S
H705 C717 0.930 . S
H706 C719 0.930 . S
H707 C720 0.930 . S
H708 C724 0.959 . S
H709 C724 0.959 . S
H710 C724 0.961 . S
H711 C725 0.960 . S
H712 C725 0.961 . S
H713 C725 0.959 . S
H714 C728 0.929 . S
H715 C729 0.931 . S
H716 C731 0.930 . S
C717 H705 0.930 . S
C717 C718 1.399 . S
C717 C722 1.399 . S
C718 C717 1.399 . S
C718 C719 1.376 . S
C719 H706 0.930 . S
C719 C718 1.376 . S
C719 C720 1.388 . S
C720 H707 0.930 . S
C720 C719 1.388 . S
C720 C721 1.390 . S
C721 C720 1.390 . S
C721 C722 1.394 . S
C721 C727 1.465 . S
C722 C717 1.399 . S
C722 C721 1.394 . S
C722 C723 1.516 . S
C723 C722 1.516 . S
C723 C724 1.502 . S
C723 C725 1.561 . S
C723 C726 1.526 . S
C724 H708 0.959 . S
C724 H709 0.959 . S
C724 H710 0.961 . S
C724 C723 1.502 . S
C725 H711 0.960 . S
C725 H712 0.961 . S
C725 H713 0.959 . S
C725 C723 1.561 . S
C726 C723 1.526 . S
C726 C727 1.396 . S
C726 C731 1.390 . S
C727 C721 1.465 . S
C727 C726 1.396 . S
C727 C728 1.399 . S
C728 H714 0.929 . S
C728 C727 1.399 . S
C728 C729 1.385 . S
C729 H715 0.931 . S
C729 C728 1.385 . S
C729 C730 1.389 . S
C730 C729 1.389 . S
C730 C731 1.387 . S
C731 H716 0.930 . S
C731 C726 1.390 . S
C731 C730 1.387 . S
H732 C744 0.930 . S
H733 C746 0.930 . S
H734 C747 0.930 . S
H735 C751 0.959 . S
H736 C751 0.959 . S
H737 C751 0.961 . S
H738 C752 0.960 . S
H739 C752 0.961 . S
H740 C752 0.959 . S
H741 C755 0.929 . S
H742 C756 0.931 . S
H743 C758 0.930 . S
C744 H732 0.930 . S
C744 C745 1.399 . S
C744 C749 1.399 . S
C745 C744 1.399 . S
C745 C746 1.376 . S
C746 H733 0.930 . S
C746 C745 1.376 . S
C746 C747 1.388 . S
C747 H734 0.930 . S
C747 C746 1.388 . S
C747 C748 1.390 . S
C748 C747 1.390 . S
C748 C749 1.394 . S
C748 C754 1.465 . S
C749 C744 1.399 . S
C749 C748 1.394 . S
C749 C750 1.516 . S
C750 C749 1.516 . S
C750 C751 1.502 . S
C750 C752 1.561 . S
C750 C753 1.526 . S
C751 H735 0.959 . S
C751 H736 0.959 . S
C751 H737 0.961 . S
C751 C750 1.502 . S
C752 H738 0.960 . S
C752 H739 0.961 . S
C752 H740 0.959 . S
C752 C750 1.561 . S
C753 C750 1.526 . S
C753 C754 1.396 . S
C753 C758 1.390 . S
C754 C748 1.465 . S
C754 C753 1.396 . S
C754 C755 1.399 . S
C755 H741 0.929 . S
C755 C754 1.399 . S
C755 C756 1.385 . S
C756 H742 0.931 . S
C756 C755 1.385 . S
C756 C757 1.389 . S
C757 C756 1.389 . S
C757 C758 1.387 . S
C758 H743 0.930 . S
C758 C753 1.390 . S
C758 C757 1.387 . S
H759 C771 0.930 . S
H760 C773 0.930 . S
H761 C774 0.930 1_554 S
H762 C778 0.959 . S
H763 C778 0.959 . S
H764 C778 0.961 . S
H765 C779 0.960 . S
H766 C779 0.961 . S
H767 C779 0.959 . S
H768 C782 0.929 . S
H769 C783 0.931 . S
H770 C785 0.930 . S
C771 H759 0.930 . S
C771 C772 1.399 . S
C771 C776 1.399 . S
C772 C771 1.399 . S
C772 C773 1.376 1_556 S
C773 H760 0.930 . S
C773 C772 1.376 1_554 S
C773 C774 1.388 1_554 S
C774 H761 0.930 1_556 S
C774 C773 1.388 1_556 S
C774 C775 1.390 . S
C775 C774 1.390 . S
C775 C776 1.394 . S
C775 C781 1.465 . S
C776 C771 1.399 . S
C776 C775 1.394 . S
C776 C777 1.516 . S
C777 C776 1.516 . S
C777 C778 1.502 . S
C777 C779 1.561 . S
C777 C780 1.526 . S
C778 H762 0.959 . S
C778 H763 0.959 . S
C778 H764 0.961 . S
C778 C777 1.502 . S
C779 H765 0.960 . S
C779 H766 0.961 . S
C779 H767 0.959 . S
C779 C777 1.561 . S
C780 C777 1.526 . S
C780 C781 1.396 . S
C780 C785 1.390 . S
C781 C775 1.465 . S
C781 C780 1.396 . S
C781 C782 1.399 . S
C782 H768 0.929 . S
C782 C781 1.399 . S
C782 C783 1.385 . S
C783 H769 0.931 . S
C783 C782 1.385 . S
C783 C784 1.389 . S
C784 C783 1.389 . S
C784 C785 1.387 . S
C785 H770 0.930 . S
C785 C780 1.390 . S
C785 C784 1.387 . S
H786 C798 0.930 . S
H787 C800 0.930 . S
H788 C801 0.927 1_554 S
H789 C805 0.959 . S
H790 C805 0.959 . S
H791 C805 0.961 . S
H792 C806 0.960 . S
H793 C806 0.961 . S
H794 C806 0.959 . S
H795 C809 0.929 . S
H796 C810 0.931 . S
H797 C812 0.930 . S
C798 H786 0.930 . S
C798 C799 1.398 1_556 S
C798 C803 1.399 . S
C799 C798 1.398 1_554 S
C799 C800 1.377 . S
C800 H787 0.930 . S
C800 C799 1.377 . S
C800 C801 1.388 1_554 S
C801 H788 0.927 1_556 S
C801 C800 1.388 1_556 S
C801 C802 1.390 . S
C802 C801 1.390 . S
C802 C803 1.394 . S
C802 C808 1.465 . S
C803 C798 1.399 . S
C803 C802 1.394 . S
C803 C804 1.516 . S
C804 C803 1.516 . S
C804 C805 1.502 . S
C804 C806 1.561 . S
C804 C807 1.526 . S
C805 H789 0.959 . S
C805 H790 0.959 . S
C805 H791 0.961 . S
C805 C804 1.502 . S
C806 H792 0.960 . S
C806 H793 0.961 . S
C806 H794 0.959 . S
C806 C804 1.561 . S
C807 C804 1.526 . S
C807 C808 1.396 . S
C807 C812 1.390 . S
C808 C802 1.465 . S
C808 C807 1.396 . S
C808 C809 1.399 . S
C809 H795 0.929 . S
C809 C808 1.399 . S
C809 C810 1.385 . S
C810 H796 0.931 . S
C810 C809 1.385 . S
C810 C811 1.389 . S
C811 C810 1.389 . S
C811 C812 1.387 . S
C812 H797 0.930 . S
C812 C807 1.390 . S
C812 C811 1.387 . S
H813 C825 0.930 . S
H814 C827 0.930 . S
H815 C828 0.930 . S
H816 C832 0.959 . S
H817 C832 0.959 . S
H818 C832 0.961 . S
H819 C833 0.960 . S
H820 C833 0.961 . S
H821 C833 0.959 . S
H822 C836 0.929 . S
H823 C837 0.931 . S
H824 C839 0.930 . S
C825 H813 0.930 . S
C825 C826 1.399 . S
C825 C830 1.399 . S
C826 C825 1.399 . S
C826 C827 1.376 . S
C827 H814 0.930 . S
C827 C826 1.376 . S
C827 C828 1.388 . S
C828 H815 0.930 . S
C828 C827 1.388 . S
C828 C829 1.390 . S
C829 C828 1.390 . S
C829 C830 1.394 . S
C829 C835 1.465 . S
C830 C825 1.399 . S
C830 C829 1.394 . S
C830 C831 1.516 . S
C831 C830 1.516 . S
C831 C832 1.502 . S
C831 C833 1.561 . S
C831 C834 1.526 . S
C832 H816 0.959 . S
C832 H817 0.959 . S
C832 H818 0.961 . S
C832 C831 1.502 . S
C833 H819 0.960 . S
C833 H820 0.961 . S
C833 H821 0.959 . S
C833 C831 1.561 . S
C834 C831 1.526 . S
C834 C835 1.396 . S
C834 C839 1.390 . S
C835 C829 1.465 . S
C835 C834 1.396 . S
C835 C836 1.399 . S
C836 H822 0.929 . S
C836 C835 1.399 . S
C836 C837 1.385 . S
C837 H823 0.931 . S
C837 C836 1.385 . S
C837 C838 1.389 . S
C838 C837 1.389 . S
C838 C839 1.387 . S
C839 H824 0.930 . S
C839 C834 1.390 . S
C839 C838 1.387 . S
H840 C852 0.930 . S
H841 C854 0.930 . S
H842 C855 0.930 . S
H843 C859 0.959 . S
H844 C859 0.959 . S
H845 C859 0.961 . S
H846 C860 0.960 . S
H847 C860 0.961 . S
H848 C860 0.959 . S
H849 C863 0.929 . S
H850 C864 0.931 . S
H851 C866 0.930 . S
C852 H840 0.930 . S
C852 C853 1.399 . S
C852 C857 1.399 . S
C853 C852 1.399 . S
C853 C854 1.376 . S
C854 H841 0.930 . S
C854 C853 1.376 . S
C854 C855 1.388 . S
C855 H842 0.930 . S
C855 C854 1.388 . S
C855 C856 1.390 . S
C856 C855 1.390 . S
C856 C857 1.394 . S
C856 C862 1.465 . S
C857 C852 1.399 . S
C857 C856 1.394 . S
C857 C858 1.516 . S
C858 C857 1.516 . S
C858 C859 1.502 . S
C858 C860 1.561 . S
C858 C861 1.526 . S
C859 H843 0.959 . S
C859 H844 0.959 . S
C859 H845 0.961 . S
C859 C858 1.502 . S
C860 H846 0.960 . S
C860 H847 0.961 . S
C860 H848 0.959 . S
C860 C858 1.561 . S
C861 C858 1.526 . S
C861 C862 1.396 . S
C861 C866 1.390 . S
C862 C856 1.465 . S
C862 C861 1.396 . S
C862 C863 1.399 . S
C863 H849 0.929 . S
C863 C862 1.399 . S
C863 C864 1.385 . S
C864 H850 0.931 . S
C864 C863 1.385 . S
C864 C865 1.389 . S
C865 C864 1.389 . S
C865 C866 1.387 . S
C866 H851 0.930 . S
C866 C861 1.390 . S
C866 C865 1.387 . S
H867 C879 0.930 . S
H868 C881 0.930 . S
H869 C882 0.930 . S
H870 C886 0.959 . S
H871 C886 0.959 . S
H872 C886 0.961 . S
H873 C887 0.960 . S
H874 C887 0.961 . S
H875 C887 0.959 . S
H876 C890 0.929 . S
H877 C891 0.931 . S
H878 C893 0.930 . S
C879 H867 0.930 . S
C879 C880 1.399 . S
C879 C884 1.399 . S
C880 C879 1.399 . S
C880 C881 1.376 . S
C881 H868 0.930 . S
C881 C880 1.376 . S
C881 C882 1.388 . S
C882 H869 0.930 . S
C882 C881 1.388 . S
C882 C883 1.390 . S
C883 C882 1.390 . S
C883 C884 1.394 . S
C883 C889 1.465 . S
C884 C879 1.399 . S
C884 C883 1.394 . S
C884 C885 1.516 . S
C885 C884 1.516 . S
C885 C886 1.502 . S
C885 C887 1.561 . S
C885 C888 1.526 . S
C886 H870 0.959 . S
C886 H871 0.959 . S
C886 H872 0.961 . S
C886 C885 1.502 . S
C887 H873 0.960 . S
C887 H874 0.961 . S
C887 H875 0.959 . S
C887 C885 1.561 . S
C888 C885 1.526 . S
C888 C889 1.396 . S
C888 C893 1.390 . S
C889 C883 1.465 . S
C889 C888 1.396 . S
C889 C890 1.399 . S
C890 H876 0.929 . S
C890 C889 1.399 . S
C890 C891 1.385 . S
C891 H877 0.931 . S
C891 C890 1.385 . S
C891 C892 1.389 . S
C892 C891 1.389 . S
C892 C893 1.387 . S
C893 H878 0.930 . S
C893 C888 1.390 . S
C893 C892 1.387 . S
H894 C906 0.930 . S
H895 C908 0.930 . S
H896 C909 0.930 . S
H897 C913 0.959 . S
H898 C913 0.959 . S
H899 C913 0.961 . S
H900 C914 0.960 . S
H901 C914 0.961 . S
H902 C914 0.959 . S
H903 C917 0.929 . S
H904 C918 0.931 . S
H905 C920 0.930 . S
C906 H894 0.930 . S
C906 C907 1.399 . S
C906 C911 1.399 . S
C907 C906 1.399 . S
C907 C908 1.376 . S
C908 H895 0.930 . S
C908 C907 1.376 . S
C908 C909 1.388 . S
C909 H896 0.930 . S
C909 C908 1.388 . S
C909 C910 1.390 . S
C910 C909 1.390 . S
C910 C911 1.394 . S
C910 C916 1.465 . S
C911 C906 1.399 . S
C911 C910 1.394 . S
C911 C912 1.516 . S
C912 C911 1.516 . S
C912 C913 1.502 . S
C912 C914 1.561 . S
C912 C915 1.526 . S
C913 H897 0.959 . S
C913 H898 0.959 . S
C913 H899 0.961 . S
C913 C912 1.502 . S
C914 H900 0.960 . S
C914 H901 0.961 . S
C914 H902 0.959 . S
C914 C912 1.561 . S
C915 C912 1.526 . S
C915 C916 1.396 . S
C915 C920 1.390 . S
C916 C910 1.465 . S
C916 C915 1.396 . S
C916 C917 1.399 . S
C917 H903 0.929 . S
C917 C916 1.399 . S
C917 C918 1.385 . S
C918 H904 0.931 . S
C918 C917 1.385 . S
C918 C919 1.389 . S
C919 C918 1.389 . S
C919 C920 1.387 . S
C920 H905 0.930 . S
C920 C915 1.390 . S
C920 C919 1.387 . S
H921 C933 0.930 . S
H922 C935 0.930 . S
H923 C936 0.930 . S
H924 C940 0.959 . S
H925 C940 0.959 . S
H926 C940 0.961 . S
H927 C941 0.960 . S
H928 C941 0.961 . S
H929 C941 0.959 . S
H930 C944 0.929 . S
H931 C945 0.931 . S
H932 C947 0.930 . S
C933 H921 0.930 . S
C933 C934 1.399 . S
C933 C938 1.399 . S
C934 C933 1.399 . S
C934 C935 1.376 . S
C935 H922 0.930 . S
C935 C934 1.376 . S
C935 C936 1.388 . S
C936 H923 0.930 . S
C936 C935 1.388 . S
C936 C937 1.390 . S
C937 C936 1.390 . S
C937 C938 1.394 . S
C937 C943 1.465 . S
C938 C933 1.399 . S
C938 C937 1.394 . S
C938 C939 1.516 . S
C939 C938 1.516 . S
C939 C940 1.502 . S
C939 C941 1.561 . S
C939 C942 1.526 . S
C940 H924 0.959 . S
C940 H925 0.959 . S
C940 H926 0.961 . S
C940 C939 1.502 . S
C941 H927 0.960 . S
C941 H928 0.961 . S
C941 H929 0.959 . S
C941 C939 1.561 . S
C942 C939 1.526 . S
C942 C943 1.396 . S
C942 C947 1.390 . S
C943 C937 1.465 . S
C943 C942 1.396 . S
C943 C944 1.399 . S
C944 H930 0.929 . S
C944 C943 1.399 . S
C944 C945 1.385 . S
C945 H931 0.931 . S
C945 C944 1.385 . S
C945 C946 1.389 . S
C946 C945 1.389 . S
C946 C947 1.387 . S
C947 H932 0.930 . S
C947 C942 1.390 . S
C947 C946 1.387 . S
H948 C960 0.930 . S
H949 C962 0.930 . S
H950 C963 0.930 . S
H951 C967 0.959 . S
H952 C967 0.959 . S
H953 C967 0.961 . S
H954 C968 0.960 . S
H955 C968 0.961 . S
H956 C968 0.959 . S
H957 C971 0.929 . S
H958 C972 0.931 . S
H959 C974 0.930 . S
C960 H948 0.930 . S
C960 C961 1.399 . S
C960 C965 1.399 . S
C961 C960 1.399 . S
C961 C962 1.376 . S
C962 H949 0.930 . S
C962 C961 1.376 . S
C962 C963 1.388 . S
C963 H950 0.930 . S
C963 C962 1.388 . S
C963 C964 1.390 . S
C964 C963 1.390 . S
C964 C965 1.394 . S
C964 C970 1.465 . S
C965 C960 1.399 . S
C965 C964 1.394 . S
C965 C966 1.516 . S
C966 C965 1.516 . S
C966 C967 1.502 . S
C966 C968 1.561 . S
C966 C969 1.526 . S
C967 H951 0.959 . S
C967 H952 0.959 . S
C967 H953 0.961 . S
C967 C966 1.502 . S
C968 H954 0.960 . S
C968 H955 0.961 . S
C968 H956 0.959 . S
C968 C966 1.561 . S
C969 C966 1.526 . S
C969 C970 1.396 . S
C969 C974 1.390 . S
C970 C964 1.465 . S
C970 C969 1.396 . S
C970 C971 1.399 . S
C971 H957 0.929 . S
C971 C970 1.399 . S
C971 C972 1.385 . S
C972 H958 0.931 . S
C972 C971 1.385 . S
C972 C973 1.389 . S
C973 C972 1.389 . S
C973 C974 1.387 . S
C974 H959 0.930 . S
C974 C969 1.390 . S
C974 C973 1.387 . S
H975 C987 0.930 . S
H976 C989 0.930 . S
H977 C990 0.930 . S
H978 C994 0.959 . S
H979 C994 0.959 . S
H980 C994 0.961 . S
H981 C995 0.960 . S
H982 C995 0.961 . S
H983 C995 0.959 . S
H984 C998 0.929 . S
H985 C999 0.931 . S
H986 C1001 0.930 . S
C987 H975 0.930 . S
C987 C988 1.399 . S
C987 C992 1.399 . S
C988 C987 1.399 . S
C988 C989 1.376 . S
C989 H976 0.930 . S
C989 C988 1.376 . S
C989 C990 1.388 . S
C990 H977 0.930 . S
C990 C989 1.388 . S
C990 C991 1.390 . S
C991 C990 1.390 . S
C991 C992 1.394 . S
C991 C997 1.465 . S
C992 C987 1.399 . S
C992 C991 1.394 . S
C992 C993 1.516 . S
C993 C992 1.516 . S
C993 C994 1.502 . S
C993 C995 1.561 . S
C993 C996 1.526 . S
C994 H978 0.959 . S
C994 H979 0.959 . S
C994 H980 0.961 . S
C994 C993 1.502 . S
C995 H981 0.960 . S
C995 H982 0.961 . S
C995 H983 0.959 . S
C995 C993 1.561 . S
C996 C993 1.526 . S
C996 C997 1.396 . S
C996 C1001 1.390 . S
C997 C991 1.465 . S
C997 C996 1.396 . S
C997 C998 1.399 . S
C998 H984 0.929 . S
C998 C997 1.399 . S
C998 C999 1.385 . S
C999 H985 0.931 . S
C999 C998 1.385 . S
C999 C1000 1.389 . S
C1000 C999 1.389 . S
C1000 C1001 1.387 . S
C1001 H986 0.930 . S
C1001 C996 1.390 . S
C1001 C1000 1.387 . S
H1002 C1014 0.930 . S
H1003 C1016 0.930 . S
H1004 C1017 0.930 . S
H1005 C1021 0.959 . S
H1006 C1021 0.959 . S
H1007 C1021 0.961 . S
H1008 C1022 0.960 . S
H1009 C1022 0.961 . S
H1010 C1022 0.959 . S
H1011 C1025 0.929 . S
H1012 C1026 0.931 . S
H1013 C1028 0.930 . S
C1014 H1002 0.930 . S
C1014 C1015 1.399 . S
C1014 C1019 1.399 . S
C1015 C1014 1.399 . S
C1015 C1016 1.376 . S
C1016 H1003 0.930 . S
C1016 C1015 1.376 . S
C1016 C1017 1.388 . S
C1017 H1004 0.930 . S
C1017 C1016 1.388 . S
C1017 C1018 1.390 . S
C1018 C1017 1.390 . S
C1018 C1019 1.394 . S
C1018 C1024 1.465 . S
C1019 C1014 1.399 . S
C1019 C1018 1.394 . S
C1019 C1020 1.516 . S
C1020 C1019 1.516 . S
C1020 C1021 1.502 . S
C1020 C1022 1.561 . S
C1020 C1023 1.526 . S
C1021 H1005 0.959 . S
C1021 H1006 0.959 . S
C1021 H1007 0.961 . S
C1021 C1020 1.502 . S
C1022 H1008 0.960 . S
C1022 H1009 0.961 . S
C1022 H1010 0.959 . S
C1022 C1020 1.561 . S
C1023 C1020 1.526 . S
C1023 C1024 1.396 . S
C1023 C1028 1.390 . S
C1024 C1018 1.465 . S
C1024 C1023 1.396 . S
C1024 C1025 1.399 . S
C1025 H1011 0.929 . S
C1025 C1024 1.399 . S
C1025 C1026 1.385 . S
C1026 H1012 0.931 . S
C1026 C1025 1.385 . S
C1026 C1027 1.389 . S
C1027 C1026 1.389 . S
C1027 C1028 1.387 . S
C1028 H1013 0.930 . S
C1028 C1023 1.390 . S
C1028 C1027 1.387 . S
C394 C45 1.814 . S
C406 C288 1.723 . S
C421 C84 1.595 . S
C433 C320 1.542 . S
C460 C379 1.886 . S
C448 C126 1.949 . S
C487 C308 1.492 . S
C475 C165 1.463 . S
C502 C222 1.674 . S
C514 C338 1.576 . S
C541 C360 1.248 . S
C529 C276 1.238 . S
C568 C329 1.718 . S
C556 C141 1.732 . S
C583 C180 1.371 . S
C595 C369 1.271 . S
C622 C318 1.604 . S
C610 C237 1.655 . S
C637 C261 1.565 1_556 S
C649 C348 1.525 . S
C664 C30 1.833 1_556 S
C676 C351 1.866 . S
C703 C290 1.613 . S
C691 C69 1.675 . S
C730 C298 1.658 . S
C718 C174 1.711 . S
C757 C339 1.563 . S
C745 C213 1.589 . S
C784 C352 1.910 . S
C772 C285 1.963 1_556 S
C811 C289 1.481 . S
C799 C36 1.502 . S
C838 C349 1.569 . S
C826 C93 1.575 . S
C853 C117 1.312 . S
C865 C350 1.216 . S
C892 C319 1.679 . S
C880 C270 1.711 . S
C919 C380 1.239 . S
C907 C21 1.302 . S
C946 C307 1.516 . S
C934 C78 1.656 . S
C973 C321 1.568 . S
C961 C132 1.597 . S
C988 C189 1.865 . S
C1000 C370 1.845 . S
C1015 C228 1.680 . S
C1027 C317 1.619 . S
