# Generated by pormake.
# Topology ptr, (4,4)-cn, num edge types: 1
# Building blocks:
#     Node 0, Type 0, BuildingBlock: CEKHIL_clean_sbu_0, # of connection points: 4
#     Node 1, Type 0, BuildingBlock: CEKHIL_clean_sbu_0, # of connection points: 4
#     Node 2, Type 0, BuildingBlock: CEKHIL_clean_sbu_0, # of connection points: 4
#     Node 3, Type 0, BuildingBlock: CEKHIL_clean_sbu_0, # of connection points: 4
#     Node 4, Type 0, BuildingBlock: CEKHIL_clean_sbu_0, # of connection points: 4
#     Node 5, Type 0, BuildingBlock: CEKHIL_clean_sbu_0, # of connection points: 4
#     Node 6, Type 0, BuildingBlock: CEKHIL_clean_sbu_0, # of connection points: 4
#     Node 7, Type 0, BuildingBlock: CEKHIL_clean_sbu_0, # of connection points: 4
#     Node 8, Type 0, BuildingBlock: CEKHIL_clean_sbu_0, # of connection points: 4
#     Node 9, Type 0, BuildingBlock: CEKHIL_clean_sbu_0, # of connection points: 4
#     Node 10, Type 0, BuildingBlock: CEKHIL_clean_sbu_0, # of connection points: 4
#     Node 11, Type 0, BuildingBlock: CEKHIL_clean_sbu_0, # of connection points: 4
#     Node 12, Type 0, BuildingBlock: CEKHIL_clean_sbu_0, # of connection points: 4
#     Node 13, Type 0, BuildingBlock: CEKHIL_clean_sbu_0, # of connection points: 4
#     Node 14, Type 0, BuildingBlock: CEKHIL_clean_sbu_0, # of connection points: 4
#     Node 15, Type 0, BuildingBlock: CEKHIL_clean_sbu_0, # of connection points: 4
#     Node 16, Type 0, BuildingBlock: CEKHIL_clean_sbu_0, # of connection points: 4
#     Node 17, Type 0, BuildingBlock: CEKHIL_clean_sbu_0, # of connection points: 4
#     Node 18, Type 1, BuildingBlock: MIFKUJ_clean_linker_1, # of connection points: 4
#     Node 19, Type 1, BuildingBlock: MIFKUJ_clean_linker_1, # of connection points: 4
#     Node 20, Type 1, BuildingBlock: MIFKUJ_clean_linker_1, # of connection points: 4
#     Node 21, Type 1, BuildingBlock: MIFKUJ_clean_linker_1, # of connection points: 4
#     Node 22, Type 1, BuildingBlock: MIFKUJ_clean_linker_1, # of connection points: 4
#     Node 23, Type 1, BuildingBlock: MIFKUJ_clean_linker_1, # of connection points: 4
#     Node 24, Type 1, BuildingBlock: MIFKUJ_clean_linker_1, # of connection points: 4
#     Node 25, Type 1, BuildingBlock: MIFKUJ_clean_linker_1, # of connection points: 4
#     Node 26, Type 1, BuildingBlock: MIFKUJ_clean_linker_1, # of connection points: 4
#     Node 27, Type 1, BuildingBlock: MIFKUJ_clean_linker_1, # of connection points: 4
#     Node 28, Type 1, BuildingBlock: MIFKUJ_clean_linker_1, # of connection points: 4
#     Node 29, Type 1, BuildingBlock: MIFKUJ_clean_linker_1, # of connection points: 4
#     Node 30, Type 1, BuildingBlock: MIFKUJ_clean_linker_1, # of connection points: 4
#     Node 31, Type 1, BuildingBlock: MIFKUJ_clean_linker_1, # of connection points: 4
#     Node 32, Type 1, BuildingBlock: MIFKUJ_clean_linker_1, # of connection points: 4
#     Node 33, Type 1, BuildingBlock: MIFKUJ_clean_linker_1, # of connection points: 4
#     Node 34, Type 1, BuildingBlock: MIFKUJ_clean_linker_1, # of connection points: 4
#     Node 35, Type 1, BuildingBlock: MIFKUJ_clean_linker_1, # of connection points: 4
#     Edge 36, Type (0, 1), BuildingBlock: UVAHIK_clean_linker_0, # of connection points: 2
#     Edge 37, Type (0, 1), BuildingBlock: UVAHIK_clean_linker_0, # of connection points: 2
#     Edge 38, Type (0, 1), BuildingBlock: UVAHIK_clean_linker_0, # of connection points: 2
#     Edge 39, Type (0, 1), BuildingBlock: UVAHIK_clean_linker_0, # of connection points: 2
#     Edge 40, Type (0, 1), BuildingBlock: UVAHIK_clean_linker_0, # of connection points: 2
#     Edge 41, Type (0, 1), BuildingBlock: UVAHIK_clean_linker_0, # of connection points: 2
#     Edge 42, Type (0, 1), BuildingBlock: UVAHIK_clean_linker_0, # of connection points: 2
#     Edge 43, Type (0, 1), BuildingBlock: UVAHIK_clean_linker_0, # of connection points: 2
#     Edge 44, Type (0, 1), BuildingBlock: UVAHIK_clean_linker_0, # of connection points: 2
#     Edge 45, Type (0, 1), BuildingBlock: UVAHIK_clean_linker_0, # of connection points: 2
#     Edge 46, Type (0, 1), BuildingBlock: UVAHIK_clean_linker_0, # of connection points: 2
#     Edge 47, Type (0, 1), BuildingBlock: UVAHIK_clean_linker_0, # of connection points: 2
#     Edge 48, Type (0, 1), BuildingBlock: UVAHIK_clean_linker_0, # of connection points: 2
#     Edge 49, Type (0, 1), BuildingBlock: UVAHIK_clean_linker_0, # of connection points: 2
#     Edge 50, Type (0, 1), BuildingBlock: UVAHIK_clean_linker_0, # of connection points: 2
#     Edge 51, Type (0, 1), BuildingBlock: UVAHIK_clean_linker_0, # of connection points: 2
#     Edge 52, Type (0, 1), BuildingBlock: UVAHIK_clean_linker_0, # of connection points: 2
#     Edge 53, Type (0, 1), BuildingBlock: UVAHIK_clean_linker_0, # of connection points: 2
#     Edge 54, Type (0, 1), BuildingBlock: UVAHIK_clean_linker_0, # of connection points: 2
#     Edge 55, Type (0, 1), BuildingBlock: UVAHIK_clean_linker_0, # of connection points: 2
#     Edge 56, Type (0, 1), BuildingBlock: UVAHIK_clean_linker_0, # of connection points: 2
#     Edge 57, Type (0, 1), BuildingBlock: UVAHIK_clean_linker_0, # of connection points: 2
#     Edge 58, Type (0, 1), BuildingBlock: UVAHIK_clean_linker_0, # of connection points: 2
#     Edge 59, Type (0, 1), BuildingBlock: UVAHIK_clean_linker_0, # of connection points: 2
#     Edge 60, Type (0, 1), BuildingBlock: UVAHIK_clean_linker_0, # of connection points: 2
#     Edge 61, Type (0, 1), BuildingBlock: UVAHIK_clean_linker_0, # of connection points: 2
#     Edge 62, Type (0, 1), BuildingBlock: UVAHIK_clean_linker_0, # of connection points: 2
#     Edge 63, Type (0, 1), BuildingBlock: UVAHIK_clean_linker_0, # of connection points: 2
#     Edge 64, Type (0, 1), BuildingBlock: UVAHIK_clean_linker_0, # of connection points: 2
#     Edge 65, Type (0, 1), BuildingBlock: UVAHIK_clean_linker_0, # of connection points: 2
#     Edge 66, Type (0, 1), BuildingBlock: UVAHIK_clean_linker_0, # of connection points: 2
#     Edge 67, Type (0, 1), BuildingBlock: UVAHIK_clean_linker_0, # of connection points: 2
#     Edge 68, Type (0, 1), BuildingBlock: UVAHIK_clean_linker_0, # of connection points: 2
#     Edge 69, Type (0, 1), BuildingBlock: UVAHIK_clean_linker_0, # of connection points: 2
#     Edge 70, Type (0, 1), BuildingBlock: UVAHIK_clean_linker_0, # of connection points: 2
#     Edge 71, Type (0, 1), BuildingBlock: UVAHIK_clean_linker_0, # of connection points: 2
#     Edge 72, Type (0, 1), BuildingBlock: UVAHIK_clean_linker_0, # of connection points: 2
#     Edge 73, Type (0, 1), BuildingBlock: UVAHIK_clean_linker_0, # of connection points: 2
#     Edge 74, Type (0, 1), BuildingBlock: UVAHIK_clean_linker_0, # of connection points: 2
#     Edge 75, Type (0, 1), BuildingBlock: UVAHIK_clean_linker_0, # of connection points: 2
#     Edge 76, Type (0, 1), BuildingBlock: UVAHIK_clean_linker_0, # of connection points: 2
#     Edge 77, Type (0, 1), BuildingBlock: UVAHIK_clean_linker_0, # of connection points: 2
#     Edge 78, Type (0, 1), BuildingBlock: UVAHIK_clean_linker_0, # of connection points: 2
#     Edge 79, Type (0, 1), BuildingBlock: UVAHIK_clean_linker_0, # of connection points: 2
#     Edge 80, Type (0, 1), BuildingBlock: UVAHIK_clean_linker_0, # of connection points: 2
#     Edge 81, Type (0, 1), BuildingBlock: UVAHIK_clean_linker_0, # of connection points: 2
#     Edge 82, Type (0, 1), BuildingBlock: UVAHIK_clean_linker_0, # of connection points: 2
#     Edge 83, Type (0, 1), BuildingBlock: UVAHIK_clean_linker_0, # of connection points: 2
#     Edge 84, Type (0, 1), BuildingBlock: UVAHIK_clean_linker_0, # of connection points: 2
#     Edge 85, Type (0, 1), BuildingBlock: UVAHIK_clean_linker_0, # of connection points: 2
#     Edge 86, Type (0, 1), BuildingBlock: UVAHIK_clean_linker_0, # of connection points: 2
#     Edge 87, Type (0, 1), BuildingBlock: UVAHIK_clean_linker_0, # of connection points: 2
#     Edge 88, Type (0, 1), BuildingBlock: UVAHIK_clean_linker_0, # of connection points: 2
#     Edge 89, Type (0, 1), BuildingBlock: UVAHIK_clean_linker_0, # of connection points: 2
#     Edge 90, Type (0, 1), BuildingBlock: UVAHIK_clean_linker_0, # of connection points: 2
#     Edge 91, Type (0, 1), BuildingBlock: UVAHIK_clean_linker_0, # of connection points: 2
#     Edge 92, Type (0, 1), BuildingBlock: UVAHIK_clean_linker_0, # of connection points: 2
#     Edge 93, Type (0, 1), BuildingBlock: UVAHIK_clean_linker_0, # of connection points: 2
#     Edge 94, Type (0, 1), BuildingBlock: UVAHIK_clean_linker_0, # of connection points: 2
#     Edge 95, Type (0, 1), BuildingBlock: UVAHIK_clean_linker_0, # of connection points: 2
#     Edge 96, Type (0, 1), BuildingBlock: UVAHIK_clean_linker_0, # of connection points: 2
#     Edge 97, Type (0, 1), BuildingBlock: UVAHIK_clean_linker_0, # of connection points: 2
#     Edge 98, Type (0, 1), BuildingBlock: UVAHIK_clean_linker_0, # of connection points: 2
#     Edge 99, Type (0, 1), BuildingBlock: UVAHIK_clean_linker_0, # of connection points: 2
#     Edge 100, Type (0, 1), BuildingBlock: UVAHIK_clean_linker_0, # of connection points: 2
#     Edge 101, Type (0, 1), BuildingBlock: UVAHIK_clean_linker_0, # of connection points: 2
#     Edge 102, Type (0, 1), BuildingBlock: UVAHIK_clean_linker_0, # of connection points: 2
#     Edge 103, Type (0, 1), BuildingBlock: UVAHIK_clean_linker_0, # of connection points: 2
#     Edge 104, Type (0, 1), BuildingBlock: UVAHIK_clean_linker_0, # of connection points: 2
#     Edge 105, Type (0, 1), BuildingBlock: UVAHIK_clean_linker_0, # of connection points: 2
#     Edge 106, Type (0, 1), BuildingBlock: UVAHIK_clean_linker_0, # of connection points: 2
#     Edge 107, Type (0, 1), BuildingBlock: UVAHIK_clean_linker_0, # of connection points: 2
# Relax obj value: 0.037
# Max RMSD: 0.118
# Mean RMSD: 0.059
data_MOF--net-ptr--node1-CEKHIL_clean_sbu_0--node2-MIFKUJ_clean_linker_1--edge1-UVAHIK_clean_linker_0
_symmetry_space_group_name_H-M    P1
_symmetry_Int_Tables_number       1
_symmetry_cell_setting            triclinic
loop_
_symmetry_equiv_pos_as_xyz
'x, y, z'
_cell_length_a     111.6348
_cell_length_b     110.49768
_cell_length_c     77.404282
_cell_angle_alpha  90.858945
_cell_angle_beta   89.523976
_cell_angle_gamma 120.87858
loop_
_atom_site_label
_atom_site_type_symbol
_atom_site_fract_x
_atom_site_fract_y
_atom_site_fract_z
_atom_type_partial_charge
Co0 Co 0.00569 0.34504 0.00899 0.0
O1 O 0.00955 0.33566 0.02685 0.0
O2 O 0.02551 0.35521 0.01405 0.0
C3 C 0.99186 0.32536 0.99335 0.0
O4 O 0.00561 0.35742 0.98969 0.0
Co5 Co 0.97545 0.33814 0.0022 0.0
O6 O 0.98357 0.3479 0.98012 0.0
C7 C 0.9913 0.3564 0.03196 0.0
C8 C 0.02257 0.34543 0.02531 0.0
C9 C 0.99663 0.35659 0.97866 0.0
O10 O 0.00232 0.35637 0.02697 0.0
O11 O 0.97945 0.34915 0.02444 0.0
O12 O 0.00534 0.33179 0.99168 0.0
O13 O 0.98732 0.33036 0.00518 0.0
Co14 Co 0.6587 0.65626 0.01077 0.0
O15 O 0.67202 0.66652 0.99299 0.0
O16 O 0.66829 0.64648 0.00398 0.0
C17 C 0.66476 0.67525 0.02776 0.0
O18 O 0.64626 0.64308 0.02972 0.0
Co19 Co 0.63525 0.6625 0.01973 0.0
O20 O 0.63327 0.65154 0.04076 0.0
C21 C 0.63334 0.64655 0.98788 0.0
C22 C 0.67528 0.65683 0.99335 0.0
C23 C 0.6379 0.64314 0.04123 0.0
O24 O 0.6438 0.64559 0.99282 0.0
O25 O 0.62909 0.6538 0.99607 0.0
O26 O 0.6718 0.66887 0.02835 0.0
O27 O 0.65507 0.6706 0.01622 0.0
Co28 Co 0.34432 0.0042 0.00952 0.0
O29 O 0.33495 0.00957 0.99349 0.0
O30 O 0.35483 0.02451 0.00657 0.0
C31 C 0.32517 0.9897 0.02502 0.0
O32 O 0.35651 0.00226 0.02747 0.0
Co33 Co 0.33636 0.97281 0.0103 0.0
O34 O 0.34784 0.97909 0.03163 0.0
C35 C 0.35377 0.99085 0.98201 0.0
C36 C 0.34487 0.02249 0.99611 0.0
C37 C 0.35622 0.99201 0.0356 0.0
O38 O 0.35504 0.00171 0.99008 0.0
O39 O 0.34567 0.97818 0.98705 0.0
O40 O 0.3318 0.00322 0.02793 0.0
O41 O 0.32946 0.98564 0.01186 0.0
Co42 Co 0.99721 0.65937 0.01095 0.0
O43 O 0.9939 0.66963 0.99375 0.0
O44 O 0.97754 0.6496 0.00519 0.0
C45 C 0.01081 0.67823 0.02786 0.0
O46 O 0.99673 0.64616 0.02947 0.0
Co47 Co 0.02728 0.6656 0.01772 0.0
O48 O 0.01865 0.65453 0.03891 0.0
C49 C 0.01197 0.64929 0.98668 0.0
C50 C 0.98081 0.65995 0.9947 0.0
C51 C 0.00551 0.64615 0.04015 0.0
O52 O 0.00078 0.64861 0.99239 0.0
O53 O 0.02384 0.65653 0.99415 0.0
O54 O 0.99731 0.67202 0.02893 0.0
O55 O 0.01554 0.67364 0.01576 0.0
Co56 Co 0.34449 0.34707 0.00907 0.0
O57 O 0.33142 0.33633 0.02693 0.0
O58 O 0.33504 0.35666 0.01704 0.0
C59 C 0.33842 0.32875 0.9909 0.0
O60 O 0.35653 0.36079 0.99036 0.0
Co61 Co 0.36814 0.34155 0.99841 0.0
O62 O 0.36995 0.35326 0.97822 0.0
C63 C 0.37046 0.35683 0.03097 0.0
C64 C 0.32819 0.34607 0.02736 0.0
C65 C 0.36501 0.3614 0.97856 0.0
O66 O 0.35966 0.35745 0.02678 0.0
O67 O 0.37483 0.34998 0.0221 0.0
O68 O 0.33111 0.33486 0.99152 0.0
O69 O 0.34828 0.33306 0.0022 0.0
Co70 Co 0.6588 1e-05 0.01038 0.0
O71 O 0.66722 0.99493 0.02818 0.0
O72 O 0.64791 0.97982 0.01416 0.0
C73 C 0.67875 0.01381 0.99575 0.0
O74 O 0.64738 0.00148 0.99086 0.0
Co75 Co 0.66729 0.03131 0.00608 0.0
O76 O 0.6574 0.02431 0.98373 0.0
C77 C 0.64787 0.01457 0.03406 0.0
C78 C 0.65721 0.98201 0.02578 0.0
C79 C 0.64858 0.0113 0.98091 0.0
O80 O 0.64759 0.00342 0.02835 0.0
O81 O 0.65569 0.02681 0.02761 0.0
O82 O 0.67191 0.00023 0.99332 0.0
O83 O 0.67402 0.0184 0.00787 0.0
Co84 Co 0.67177 0.68147 0.34233 0.0
O85 O 0.67453 0.67167 0.36082 0.0
O86 O 0.69125 0.69117 0.34872 0.0
C87 C 0.65832 0.66194 0.32617 0.0
O88 O 0.67328 0.69437 0.32277 0.0
Co89 Co 0.64257 0.67576 0.33188 0.0
O90 O 0.65223 0.68658 0.31092 0.0
C91 C 0.65648 0.6928 0.36335 0.0
C92 C 0.68769 0.68121 0.3599 0.0
C93 C 0.66543 0.69473 0.31093 0.0
O94 O 0.66776 0.69278 0.35969 0.0
O95 O 0.64523 0.68593 0.35451 0.0
O96 O 0.67184 0.66815 0.32544 0.0
O97 O 0.65343 0.6672 0.3372 0.0
Co98 Co 0.32358 0.98837 0.3491 0.0
O99 O 0.33661 0.99726 0.33047 0.0
O100 O 0.33204 0.9774 0.34291 0.0
C101 C 0.33095 0.00838 0.36464 0.0
O102 O 0.31149 0.97632 0.36904 0.0
Co103 Co 0.30132 0.99606 0.35897 0.0
O104 O 0.29967 0.98589 0.38058 0.0
C105 C 0.29677 0.9775 0.32863 0.0
C106 C 0.33911 0.98704 0.33151 0.0
C107 C 0.30377 0.97706 0.38096 0.0
O108 O 0.30795 0.97734 0.33211 0.0
O109 O 0.29284 0.98488 0.33719 0.0
O110 O 0.33752 0.00153 0.36563 0.0
O111 O 0.32081 0.00343 0.35369 0.0
Co112 Co 0.01587 0.33934 0.34499 0.0
O113 O 0.00708 0.34382 0.32693 0.0
O114 O 0.02659 0.35931 0.34032 0.0
C115 C 0.9962 0.32569 0.36017 0.0
O116 O 0.0278 0.33896 0.36451 0.0
Co117 Co 0.0083 0.30857 0.35174 0.0
O118 O 0.01988 0.31672 0.37282 0.0
C119 C 0.02497 0.32362 0.32108 0.0
C120 C 0.01715 0.35681 0.32881 0.0
C121 C 0.028 0.32999 0.37474 0.0
O122 O 0.02675 0.33536 0.32715 0.0
O123 O 0.01691 0.3117 0.32814 0.0
O124 O 0.0028 0.33933 0.36206 0.0
O125 O 0.00108 0.32096 0.34845 0.0
Co126 Co 0.6631 0.98684 0.3447 0.0
O127 O 0.65858 0.99578 0.32688 0.0
O128 O 0.64338 0.97579 0.33955 0.0
C129 C 0.67622 0.00643 0.36077 0.0
O130 O 0.66374 0.97472 0.36386 0.0
Co131 Co 0.69384 0.99499 0.35098 0.0
O132 O 0.68601 0.98282 0.37152 0.0
C133 C 0.67877 0.97803 0.32032 0.0
C134 C 0.64579 0.98542 0.3283 0.0
C135 C 0.67293 0.97451 0.37362 0.0
O136 O 0.66724 0.97617 0.3266 0.0
O137 O 0.69068 0.98628 0.32726 0.0
O138 O 0.6627 0.99966 0.36209 0.0
O139 O 0.68117 0.00194 0.34882 0.0
Co140 Co 0.01237 0.68185 0.34346 0.0
O141 O 0.9995 0.6708 0.36148 0.0
O142 O 0.00207 0.69059 0.35114 0.0
C143 C 0.00729 0.66352 0.32562 0.0
O144 O 0.02379 0.6958 0.32455 0.0
Co145 Co 0.03705 0.67819 0.33183 0.0
O146 O 0.03755 0.68911 0.31148 0.0
C147 C 0.0391 0.69362 0.36438 0.0
C148 C 0.9956 0.68004 0.3616 0.0
C149 C 0.03207 0.69677 0.31226 0.0
O150 O 0.02748 0.69297 0.36113 0.0
O151 O 0.04408 0.68764 0.35489 0.0
O152 O 0.99929 0.66888 0.32602 0.0
O153 O 0.01728 0.66862 0.33677 0.0
Co154 Co 0.32319 0.33338 0.34177 0.0
O155 O 0.33314 0.33118 0.36054 0.0
O156 O 0.31353 0.31399 0.34906 0.0
C157 C 0.34213 0.34614 0.32502 0.0
O158 O 0.31013 0.33119 0.32207 0.0
Co159 Co 0.32875 0.36252 0.32997 0.0
O160 O 0.31843 0.352 0.30893 0.0
C161 C 0.31202 0.34953 0.36154 0.0
C162 C 0.32358 0.31789 0.36016 0.0
C163 C 0.31011 0.33872 0.30954 0.0
O164 O 0.31233 0.33818 0.3587 0.0
O165 O 0.31848 0.36052 0.35216 0.0
O166 O 0.33602 0.33248 0.32519 0.0
O167 O 0.33726 0.35164 0.33572 0.0
Co168 Co 0.33941 0.01603 0.67442 0.0
O169 O 0.34355 0.00673 0.69216 0.0
O170 O 0.3591 0.02681 0.68003 0.0
C171 C 0.32625 0.99633 0.65843 0.0
O172 O 0.33928 0.0285 0.65535 0.0
Co173 Co 0.30906 0.0083 0.66657 0.0
O174 O 0.31743 0.01943 0.64534 0.0
C175 C 0.32345 0.02504 0.69789 0.0
C176 C 0.35643 0.01692 0.691 0.0
C177 C 0.33051 0.02816 0.64436 0.0
O178 O 0.33511 0.02661 0.6925 0.0
O179 O 0.3118 0.01718 0.69016 0.0
O180 O 0.33976 0.00319 0.65694 0.0
O181 O 0.32133 0.00106 0.6701 0.0
Co182 Co 0.9909 0.3232 0.67406 0.0
O183 O 0.00502 0.33322 0.65688 0.0
O184 O 0.00108 0.31365 0.66957 0.0
C185 C 0.99554 0.34233 0.6901 0.0
O186 O 0.97772 0.31024 0.69269 0.0
Co187 Co 0.96659 0.32893 0.67957 0.0
O188 O 0.96243 0.31691 0.70015 0.0
C189 C 0.96723 0.31341 0.64854 0.0
C190 C 0.00836 0.32365 0.65864 0.0
C191 C 0.96781 0.30928 0.70232 0.0
O192 O 0.97696 0.31197 0.65523 0.0
O193 O 0.96278 0.32097 0.65546 0.0
O194 O 0.00294 0.33642 0.6921 0.0
O195 O 0.98655 0.33724 0.67774 0.0
Co196 Co 0.67894 0.66916 0.67598 0.0
O197 O 0.66962 0.6734 0.65849 0.0
O198 O 0.68935 0.68919 0.67123 0.0
C199 C 0.65972 0.65553 0.69186 0.0
O200 O 0.69125 0.66866 0.69493 0.0
Co201 Co 0.67128 0.63816 0.68127 0.0
O202 O 0.68293 0.64611 0.70234 0.0
C203 C 0.68769 0.65377 0.65089 0.0
C204 C 0.67954 0.68645 0.66013 0.0
C205 C 0.69124 0.65932 0.7047 0.0
O206 O 0.68957 0.66535 0.65759 0.0
O207 O 0.67957 0.64164 0.65744 0.0
O208 O 0.66632 0.66916 0.69367 0.0
O209 O 0.6642 0.65079 0.67965 0.0
Co210 Co 0.33175 0.32369 0.67756 0.0
O211 O 0.32928 0.33434 0.65999 0.0
O212 O 0.31247 0.31397 0.67021 0.0
C213 C 0.34441 0.34214 0.69549 0.0
O214 O 0.33011 0.30998 0.69606 0.0
Co215 Co 0.36115 0.32945 0.68734 0.0
O216 O 0.35126 0.3176 0.7076 0.0
C217 C 0.34787 0.31423 0.65486 0.0
C218 C 0.31618 0.32453 0.65993 0.0
C219 C 0.33805 0.30936 0.70753 0.0
O220 O 0.33637 0.31342 0.65943 0.0
O221 O 0.35922 0.32116 0.66351 0.0
O222 O 0.33088 0.33591 0.6954 0.0
O223 O 0.3498 0.33781 0.68392 0.0
Co224 Co 0.67844 0.01449 0.67242 0.0
O225 O 0.66537 0.00486 0.69081 0.0
O226 O 0.67028 0.02539 0.68007 0.0
C227 C 0.67099 0.99547 0.65498 0.0
O228 O 0.69067 0.02736 0.65314 0.0
Co229 Co 0.70055 0.00681 0.66132 0.0
O230 O 0.70298 0.01856 0.64094 0.0
C231 C 0.70438 0.02291 0.6937 0.0
C232 C 0.66309 0.01527 0.69088 0.0
C233 C 0.69876 0.0273 0.64122 0.0
O234 O 0.6941 0.02449 0.68967 0.0
O235 O 0.70781 0.01526 0.68483 0.0
O236 O 0.66438 0.00231 0.65538 0.0
O237 O 0.681 0.99958 0.66601 0.0
Co238 Co 0.98601 0.66354 0.67407 0.0
O239 O 0.99463 0.65952 0.69286 0.0
O240 O 0.97514 0.64378 0.67962 0.0
C241 C 0.00571 0.67655 0.6587 0.0
O242 O 0.97415 0.66331 0.65402 0.0
Co243 Co 0.99358 0.69396 0.66514 0.0
O244 O 0.98337 0.68512 0.64335 0.0
C245 C 0.97619 0.67991 0.69584 0.0
C246 C 0.9845 0.64651 0.69134 0.0
C247 C 0.97477 0.67188 0.64248 0.0
O248 O 0.9751 0.66816 0.6911 0.0
O249 O 0.98391 0.69152 0.68795 0.0
O250 O 0.99911 0.66286 0.65771 0.0
O251 O 0.00086 0.68179 0.66979 0.0
H252 H 0.14142 0.33349 0.16645 0.0
H253 H 0.12368 0.33538 0.18286 0.0
H254 H 0.10789 0.29343 0.20255 0.0
H255 H 0.12532 0.2914 0.18547 0.0
H256 H 0.15323 0.30689 0.18821 0.0
H257 H 0.15442 0.33732 0.12871 0.0
H258 H 0.13866 0.34197 0.11229 0.0
H259 H 0.10426 0.30048 0.12488 0.0
H260 H 0.12006 0.29618 0.14182 0.0
H261 H 0.17152 0.2984 0.12181 0.0
H262 H 0.19288 0.30312 0.10675 0.0
H263 H 0.21725 0.33852 0.14111 0.0
H264 H 0.19586 0.33374 0.15612 0.0
H265 H 0.16147 0.31711 0.12562 0.0
H266 H 0.17815 0.29323 0.1604 0.0
H267 H 0.19596 0.29209 0.1774 0.0
H268 H 0.1951 0.32078 0.21512 0.0
H269 H 0.17791 0.32256 0.19773 0.0
C270 C 0.13457 0.31222 0.17454 0.0
C271 C 0.13396 0.32459 0.17403 0.0
C272 C 0.12392 0.32572 0.18359 0.0
C273 C 0.11438 0.31457 0.19405 0.0
C274 C 0.11495 0.30214 0.19444 0.0
C275 C 0.12498 0.301 0.18481 0.0
C276 C 0.14572 0.31136 0.16507 0.0
C277 C 0.155 0.30899 0.1745 0.0
C278 C 0.14792 0.31403 0.14717 0.0
C279 C 0.13839 0.31644 0.13653 0.0
C280 C 0.14348 0.32922 0.12783 0.0
C281 C 0.13445 0.33182 0.11838 0.0
C282 C 0.12014 0.32162 0.11724 0.0
C283 C 0.11514 0.3087 0.12573 0.0
C284 C 0.12417 0.30617 0.13533 0.0
C285 C 0.18216 0.31566 0.14012 0.0
C286 C 0.18148 0.30713 0.12611 0.0
C287 C 0.19366 0.3098 0.1176 0.0
C288 C 0.20669 0.32118 0.12279 0.0
C289 C 0.20733 0.32974 0.13679 0.0
C290 C 0.19516 0.32698 0.14541 0.0
C291 C 0.16924 0.31304 0.14887 0.0
C292 C 0.15961 0.31475 0.13928 0.0
C293 C 0.16685 0.30992 0.16669 0.0
C294 C 0.17683 0.30821 0.17756 0.0
C295 C 0.18189 0.29942 0.17222 0.0
C296 C 0.19198 0.29867 0.18198 0.0
C297 C 0.19686 0.30635 0.19753 0.0
C298 C 0.1914 0.31467 0.20323 0.0
C299 C 0.18157 0.31567 0.1933 0.0
H300 H 0.71297 0.87864 0.18423 0.0
H301 H 0.71078 0.89591 0.20206 0.0
H302 H 0.6699 0.88111 0.18059 0.0
H303 H 0.67194 0.86362 0.16317 0.0
H304 H 0.69757 0.85075 0.18556 0.0
H305 H 0.70749 0.88514 0.14026 0.0
H306 H 0.70225 0.90054 0.12369 0.0
H307 H 0.66252 0.86442 0.10878 0.0
H308 H 0.66804 0.84913 0.12496 0.0
H309 H 0.67134 0.8153 0.12689 0.0
H310 H 0.66986 0.79482 0.11236 0.0
H311 H 0.71187 0.80839 0.12891 0.0
H312 H 0.71312 0.82871 0.14375 0.0
H313 H 0.68888 0.84348 0.12243 0.0
H314 H 0.67439 0.81088 0.1687 0.0
H315 H 0.67447 0.79298 0.18659 0.0
H316 H 0.71755 0.82231 0.2002 0.0
H317 H 0.7171 0.84039 0.18274 0.0
C318 C 0.69271 0.86996 0.17217 0.0
C319 C 0.70358 0.87917 0.18329 0.0
C320 C 0.70232 0.88901 0.19346 0.0
C321 C 0.69019 0.88985 0.19263 0.0
C322 C 0.67945 0.88082 0.18127 0.0
C323 C 0.68063 0.87086 0.17127 0.0
C324 C 0.69363 0.85881 0.1624 0.0
C325 C 0.69604 0.84942 0.17168 0.0
C326 C 0.69099 0.85663 0.14441 0.0
C327 C 0.68813 0.866 0.13391 0.0
C328 C 0.69768 0.88057 0.13336 0.0
C329 C 0.69462 0.88936 0.12395 0.0
C330 C 0.68192 0.88375 0.11492 0.0
C331 C 0.67249 0.86911 0.11532 0.0
C332 C 0.6756 0.86033 0.12464 0.0
C333 C 0.69231 0.82348 0.1364 0.0
C334 C 0.68024 0.81388 0.1273 0.0
C335 C 0.67944 0.80221 0.11897 0.0
C336 C 0.69077 0.79998 0.11943 0.0
C337 C 0.70289 0.80968 0.1285 0.0
C338 C 0.70365 0.82133 0.13692 0.0
C339 C 0.69294 0.83562 0.14559 0.0
C340 C 0.69077 0.84511 0.13623 0.0
C341 C 0.69541 0.8377 0.16355 0.0
C342 C 0.69576 0.82691 0.17434 0.0
C343 C 0.68385 0.81343 0.17552 0.0
C344 C 0.68397 0.80316 0.18567 0.0
C345 C 0.69606 0.8061 0.19478 0.0
C346 C 0.708 0.81969 0.19356 0.0
C347 C 0.7078 0.83003 0.18352 0.0
H348 H 0.12087 0.8436 0.18429 0.0
H349 H 0.10239 0.82479 0.20151 0.0
H350 H 0.11728 0.79699 0.18604 0.0
H351 H 0.13521 0.81564 0.1683 0.0
H352 H 0.151 0.85435 0.18749 0.0
H353 H 0.11294 0.83007 0.14709 0.0
H354 H 0.0951 0.80847 0.13297 0.0
H355 H 0.12739 0.80392 0.10791 0.0
H356 H 0.14509 0.82479 0.12325 0.0
H357 H 0.17852 0.85707 0.12237 0.0
H358 H 0.19924 0.87359 0.10635 0.0
H359 H 0.19971 0.90837 0.13346 0.0
H360 H 0.17823 0.8918 0.14822 0.0
H361 H 0.15358 0.85097 0.12374 0.0
H362 H 0.18883 0.86623 0.16766 0.0
H363 H 0.20795 0.88195 0.18692 0.0
H364 H 0.18411 0.90066 0.20453 0.0
H365 H 0.16483 0.88445 0.18575 0.0
C366 C 0.12929 0.83094 0.17496 0.0
C367 C 0.12004 0.8334 0.18458 0.0
C368 C 0.10954 0.82265 0.19449 0.0
C369 C 0.10828 0.8093 0.1952 0.0
C370 C 0.11768 0.80697 0.18555 0.0
C371 C 0.12803 0.81766 0.17549 0.0
C372 C 0.14054 0.84233 0.16465 0.0
C373 C 0.15144 0.85379 0.1735 0.0
C374 C 0.14131 0.84122 0.14649 0.0
C375 C 0.13038 0.82892 0.13657 0.0
C376 C 0.11617 0.82431 0.13874 0.0
C377 C 0.10596 0.81203 0.13042 0.0
C378 C 0.10975 0.80429 0.1194 0.0
C379 C 0.12402 0.80934 0.11665 0.0
C380 C 0.1342 0.82144 0.12523 0.0
C381 C 0.17685 0.87313 0.13673 0.0
C382 C 0.18296 0.86826 0.12469 0.0
C383 C 0.19499 0.87776 0.1157 0.0
C384 C 0.20136 0.89238 0.11871 0.0
C385 C 0.1951 0.89723 0.13061 0.0
C386 C 0.18289 0.88772 0.13933 0.0
C387 C 0.16428 0.86288 0.14661 0.0
C388 C 0.15307 0.85168 0.13769 0.0
C389 C 0.16346 0.86383 0.16479 0.0
C390 C 0.17546 0.87421 0.17531 0.0
C391 C 0.18782 0.87383 0.17558 0.0
C392 C 0.19877 0.88289 0.18653 0.0
C393 C 0.19758 0.89256 0.19738 0.0
C394 C 0.18529 0.89317 0.19664 0.0
C395 C 0.17429 0.88398 0.18584 0.0
H396 H 0.28771 0.16369 0.83487 0.0
H397 H 0.28715 0.18155 0.81712 0.0
H398 H 0.32987 0.21148 0.83163 0.0
H399 H 0.33002 0.19377 0.84987 0.0
H400 H 0.30767 0.15391 0.83307 0.0
H401 H 0.29228 0.17785 0.87123 0.0
H402 H 0.29455 0.19926 0.88385 0.0
H403 H 0.33271 0.20814 0.90909 0.0
H404 H 0.33097 0.18738 0.89525 0.0
H405 H 0.33458 0.15616 0.89733 0.0
H406 H 0.33973 0.14137 0.91506 0.0
H407 H 0.30392 0.10417 0.89349 0.0
H408 H 0.2983 0.1191 0.87665 0.0
H409 H 0.3143 0.16081 0.8965 0.0
H410 H 0.33317 0.1416 0.85606 0.0
H411 H 0.3353 0.12378 0.83951 0.0
H412 H 0.29424 0.10823 0.81797 0.0
H413 H 0.29196 0.12565 0.83513 0.0
C414 C 0.30885 0.17748 0.84376 0.0
C415 C 0.29691 0.17413 0.83419 0.0
C416 C 0.29665 0.18435 0.824 0.0
C417 C 0.30845 0.19804 0.82296 0.0
C418 C 0.32047 0.2012 0.83239 0.0
C419 C 0.32064 0.19105 0.84273 0.0
C420 C 0.30912 0.16685 0.85489 0.0
C421 C 0.30884 0.15522 0.84699 0.0
C422 C 0.31103 0.16887 0.87297 0.0
C423 C 0.31161 0.18114 0.88195 0.0
C424 C 0.30124 0.18452 0.87929 0.0
C425 C 0.30245 0.19669 0.88675 0.0
C426 C 0.3139 0.20558 0.89738 0.0
C427 C 0.32394 0.2018 0.90062 0.0
C428 C 0.32285 0.18978 0.89291 0.0
C429 C 0.31612 0.13877 0.8855 0.0
C430 C 0.32774 0.14482 0.89655 0.0
C431 C 0.33078 0.13632 0.90654 0.0
C432 C 0.32233 0.12154 0.90563 0.0
C433 C 0.3106 0.1155 0.89468 0.0
C434 C 0.30746 0.12403 0.88485 0.0
C435 C 0.31324 0.14798 0.87465 0.0
C436 C 0.31294 0.15933 0.88261 0.0
C437 C 0.31115 0.14591 0.85656 0.0
C438 C 0.31232 0.13483 0.847 0.0
C439 C 0.32453 0.13418 0.848 0.0
C440 C 0.3258 0.12409 0.83838 0.0
C441 C 0.31494 0.11456 0.82741 0.0
C442 C 0.30271 0.11523 0.8265 0.0
C443 C 0.30143 0.12527 0.83619 0.0
H444 H 0.83869 0.12386 0.8302 0.0
H445 H 0.8195 0.1066 0.81209 0.0
H446 H 0.79157 0.11743 0.83752 0.0
H447 H 0.81095 0.13514 0.85495 0.0
H448 H 0.84983 0.15201 0.83146 0.0
H449 H 0.8274 0.11407 0.87364 0.0
H450 H 0.80721 0.09639 0.88988 0.0
H451 H 0.80032 0.12911 0.90981 0.0
H452 H 0.82074 0.14669 0.89401 0.0
H453 H 0.85718 0.18224 0.89444 0.0
H454 H 0.87545 0.20281 0.90977 0.0
H455 H 0.90631 0.19396 0.88905 0.0
H456 H 0.88792 0.17363 0.87321 0.0
H457 H 0.84827 0.1543 0.89544 0.0
H458 H 0.86796 0.19156 0.85615 0.0
H459 H 0.88521 0.21101 0.83889 0.0
H460 H 0.89385 0.18228 0.81062 0.0
H461 H 0.87715 0.16294 0.82885 0.0
C462 C 0.82623 0.13067 0.84408 0.0
C463 C 0.82842 0.12248 0.83189 0.0
C464 C 0.8174 0.11252 0.82165 0.0
C465 C 0.80396 0.11058 0.82338 0.0
C466 C 0.80179 0.11874 0.83572 0.0
C467 C 0.81284 0.12875 0.84587 0.0
C468 C 0.83809 0.14171 0.85433 0.0
C469 C 0.84968 0.15233 0.84548 0.0
C470 C 0.83759 0.14244 0.87256 0.0
C471 C 0.82555 0.13168 0.88263 0.0
C472 C 0.82153 0.1174 0.88157 0.0
C473 C 0.80993 0.1073 0.89078 0.0
C474 C 0.80209 0.11129 0.90118 0.0
C475 C 0.80623 0.12565 0.90222 0.0
C476 C 0.81788 0.13573 0.89314 0.0
C477 C 0.87121 0.17645 0.88266 0.0
C478 C 0.86788 0.18468 0.89333 0.0
C479 C 0.87836 0.19641 0.90215 0.0
C480 C 0.8924 0.20007 0.90071 0.0
C481 C 0.89566 0.19161 0.89025 0.0
C482 C 0.88516 0.17993 0.88128 0.0
C483 C 0.86008 0.16453 0.87257 0.0
C484 C 0.84862 0.1538 0.88145 0.0
C485 C 0.86055 0.16391 0.85432 0.0
C486 C 0.87143 0.1758 0.84406 0.0
C487 C 0.87381 0.18948 0.84655 0.0
C488 C 0.88354 0.20058 0.83643 0.0
C489 C 0.89089 0.19823 0.82324 0.0
C490 C 0.88853 0.18453 0.82079 0.0
C491 C 0.87889 0.17343 0.8311 0.0
H492 H 0.82011 0.67341 0.8291 0.0
H493 H 0.80072 0.67122 0.81221 0.0
H494 H 0.80537 0.70853 0.83747 0.0
H495 H 0.82499 0.71076 0.85433 0.0
H496 H 0.84695 0.69335 0.83071 0.0
H497 H 0.8093 0.66983 0.86961 0.0
H498 H 0.78852 0.6649 0.88605 0.0
H499 H 0.81213 0.70522 0.91221 0.0
H500 H 0.83298 0.71014 0.89558 0.0
H501 H 0.87547 0.70982 0.89666 0.0
H502 H 0.89103 0.70524 0.91396 0.0
H503 H 0.87514 0.66506 0.8878 0.0
H504 H 0.85958 0.66963 0.87074 0.0
H505 H 0.84551 0.69258 0.89479 0.0
H506 H 0.88565 0.70962 0.85591 0.0
H507 H 0.90319 0.70722 0.83944 0.0
H508 H 0.87026 0.67078 0.81275 0.0
H509 H 0.85287 0.67304 0.82946 0.0
C510 C 0.82397 0.69222 0.84299 0.0
C511 C 0.81702 0.68117 0.83095 0.0
C512 C 0.80587 0.67987 0.82142 0.0
C513 C 0.80147 0.68965 0.82363 0.0
C514 C 0.80857 0.70087 0.83548 0.0
C515 C 0.81971 0.70211 0.84516 0.0
C516 C 0.83554 0.69315 0.85337 0.0
C517 C 0.84668 0.69326 0.84473 0.0
C518 C 0.83517 0.69298 0.87163 0.0
C519 C 0.8226 0.69041 0.88127 0.0
C520 C 0.80997 0.67766 0.87878 0.0
C521 C 0.79815 0.6748 0.88828 0.0
C522 C 0.79874 0.68466 0.90043 0.0
C523 C 0.81138 0.69749 0.90283 0.0
C524 C 0.82327 0.70029 0.89342 0.0
C525 C 0.86651 0.69013 0.88232 0.0
C526 C 0.87539 0.70006 0.89467 0.0
C527 C 0.8843 0.69745 0.90446 0.0
C528 C 0.88428 0.68479 0.90223 0.0
C529 C 0.87529 0.67485 0.88992 0.0
C530 C 0.8665 0.6775 0.88006 0.0
C531 C 0.85686 0.69265 0.87211 0.0
C532 C 0.84607 0.6932 0.8808 0.0
C533 C 0.8572 0.69273 0.85385 0.0
C534 C 0.86796 0.69149 0.84393 0.0
C535 C 0.88224 0.70107 0.84659 0.0
C536 C 0.89224 0.69973 0.83711 0.0
C537 C 0.8881 0.68877 0.82484 0.0
C538 C 0.87379 0.67921 0.82227 0.0
C539 C 0.86383 0.68058 0.83168 0.0
H540 H 0.81564 0.6656 0.52025 0.0
H541 H 0.79808 0.66715 0.53732 0.0
H542 H 0.76599 0.62771 0.51467 0.0
H543 H 0.78371 0.62683 0.49675 0.0
H544 H 0.82129 0.64292 0.51921 0.0
H545 H 0.80559 0.66739 0.48488 0.0
H546 H 0.78854 0.67082 0.46956 0.0
H547 H 0.78097 0.63725 0.4339 0.0
H548 H 0.79747 0.63319 0.44992 0.0
H549 H 0.8359 0.63136 0.45172 0.0
H550 H 0.85688 0.63563 0.43596 0.0
H551 H 0.88187 0.67306 0.46709 0.0
H552 H 0.86093 0.66876 0.48272 0.0
H553 H 0.82463 0.64938 0.45571 0.0
H554 H 0.84516 0.6288 0.48989 0.0
H555 H 0.86369 0.62843 0.50626 0.0
H556 H 0.864 0.6584 0.54286 0.0
H557 H 0.84619 0.65951 0.52601 0.0
C558 C 0.80095 0.64611 0.50729 0.0
C559 C 0.80481 0.6573 0.519 0.0
C560 C 0.79472 0.65809 0.52885 0.0
C561 C 0.78054 0.64748 0.52759 0.0
C562 C 0.77674 0.63619 0.51586 0.0
C563 C 0.78685 0.63558 0.5057 0.0
C564 C 0.81185 0.6457 0.49673 0.0
C565 C 0.8221 0.64437 0.50532 0.0
C566 C 0.8126 0.64734 0.47858 0.0
C567 C 0.80251 0.6497 0.46894 0.0
C568 C 0.8 0.66047 0.47409 0.0
C569 C 0.79036 0.66253 0.46524 0.0
C570 C 0.7834 0.65421 0.4507 0.0
C571 C 0.78621 0.64376 0.44514 0.0
C572 C 0.79563 0.64146 0.45426 0.0
C573 C 0.84691 0.64969 0.46845 0.0
C574 C 0.84591 0.6405 0.45508 0.0
C575 C 0.85788 0.6429 0.44618 0.0
C576 C 0.87099 0.65466 0.45033 0.0
C577 C 0.8719 0.66397 0.46353 0.0
C578 C 0.85997 0.66149 0.47252 0.0
C579 C 0.83436 0.647 0.47828 0.0
C580 C 0.82374 0.64767 0.46955 0.0
C581 C 0.83345 0.64512 0.49641 0.0
C582 C 0.84436 0.64436 0.5065 0.0
C583 C 0.84937 0.6355 0.50124 0.0
C584 C 0.85986 0.63518 0.51065 0.0
C585 C 0.86517 0.64336 0.52578 0.0
C586 C 0.85996 0.65193 0.53128 0.0
C587 C 0.84976 0.65252 0.52167 0.0
H588 H 0.37907 0.21281 0.51858 0.0
H589 H 0.37675 0.22999 0.53627 0.0
H590 H 0.33698 0.2167 0.51217 0.0
H591 H 0.33896 0.19897 0.49545 0.0
H592 H 0.36317 0.18477 0.51865 0.0
H593 H 0.37598 0.22056 0.47401 0.0
H594 H 0.37177 0.23697 0.45811 0.0
H595 H 0.33131 0.20231 0.44253 0.0
H596 H 0.33592 0.18599 0.45782 0.0
H597 H 0.33889 0.15115 0.45801 0.0
H598 H 0.33753 0.13067 0.4436 0.0
H599 H 0.3788 0.14341 0.46235 0.0
H600 H 0.3799 0.16369 0.47708 0.0
H601 H 0.35688 0.17961 0.45501 0.0
H602 H 0.34021 0.14546 0.49945 0.0
H603 H 0.33917 0.12679 0.51689 0.0
H604 H 0.38159 0.15519 0.53388 0.0
H605 H 0.38227 0.17403 0.51678 0.0
C606 C 0.3593 0.20473 0.50549 0.0
C607 C 0.36986 0.21363 0.51712 0.0
C608 C 0.36857 0.22355 0.5271 0.0
C609 C 0.35669 0.22479 0.52564 0.0
C610 C 0.3462 0.21595 0.51382 0.0
C611 C 0.34742 0.20593 0.50401 0.0
C612 C 0.36035 0.19372 0.49555 0.0
C613 C 0.36219 0.18389 0.50469 0.0
C614 C 0.35843 0.19216 0.47741 0.0
C615 C 0.35625 0.20207 0.4671 0.0
C616 C 0.36627 0.21653 0.46703 0.0
C617 C 0.36377 0.22591 0.45804 0.0
C618 C 0.35115 0.22103 0.44905 0.0
C619 C 0.34124 0.20647 0.449 0.0
C620 C 0.34383 0.1971 0.45781 0.0
C621 C 0.35946 0.15889 0.46864 0.0
C622 C 0.34768 0.14957 0.45889 0.0
C623 C 0.34694 0.13789 0.45063 0.0
C624 C 0.35806 0.13537 0.4518 0.0
C625 C 0.36996 0.14488 0.4614 0.0
C626 C 0.37064 0.15652 0.46974 0.0
C627 C 0.35988 0.17085 0.47812 0.0
C628 C 0.35827 0.18077 0.46892 0.0
C629 C 0.36166 0.17233 0.49623 0.0
C630 C 0.36134 0.16108 0.50675 0.0
C631 C 0.3493 0.14763 0.50689 0.0
C632 C 0.34878 0.13693 0.5168 0.0
C633 C 0.36035 0.13939 0.52672 0.0
C634 C 0.37243 0.15293 0.52656 0.0
C635 C 0.37288 0.1637 0.51675 0.0
H636 H 0.79175 0.17279 0.51174 0.0
H637 H 0.77349 0.15408 0.52923 0.0
H638 H 0.78762 0.12591 0.5125 0.0
H639 H 0.80529 0.14447 0.49441 0.0
H640 H 0.82192 0.1832 0.51391 0.0
H641 H 0.783 0.16 0.47493 0.0
H642 H 0.76433 0.13863 0.46142 0.0
H643 H 0.79506 0.13286 0.43412 0.0
H644 H 0.81364 0.15358 0.44886 0.0
H645 H 0.85147 0.18841 0.45188 0.0
H646 H 0.8728 0.20669 0.43786 0.0
H647 H 0.8645 0.23856 0.4571 0.0
H648 H 0.84323 0.22026 0.47119 0.0
H649 H 0.82288 0.18027 0.44989 0.0
H650 H 0.85991 0.1973 0.49044 0.0
H651 H 0.88011 0.21467 0.50716 0.0
H652 H 0.85479 0.22952 0.53105 0.0
H653 H 0.83472 0.21237 0.51389 0.0
C654 C 0.79977 0.15995 0.50174 0.0
C655 C 0.79081 0.16253 0.51182 0.0
C656 C 0.78044 0.15183 0.52189 0.0
C657 C 0.77903 0.13841 0.52236 0.0
C658 C 0.78814 0.13595 0.51224 0.0
C659 C 0.79835 0.14659 0.50198 0.0
C660 C 0.81086 0.17131 0.49124 0.0
C661 C 0.82197 0.18273 0.4999 0.0
C662 C 0.81114 0.17032 0.47299 0.0
C663 C 0.79975 0.15823 0.46328 0.0
C664 C 0.78572 0.15403 0.4662 0.0
C665 C 0.77502 0.14188 0.45822 0.0
C666 C 0.77812 0.13385 0.44677 0.0
C667 C 0.79222 0.13852 0.4432 0.0
C668 C 0.8029 0.15051 0.45144 0.0
C669 C 0.84582 0.20301 0.46258 0.0
C670 C 0.85415 0.19931 0.45286 0.0
C671 C 0.86637 0.20975 0.445 0.0
C672 C 0.87031 0.22402 0.44651 0.0
C673 C 0.86166 0.22764 0.45568 0.0
C674 C 0.84955 0.21722 0.46373 0.0
C675 C 0.83385 0.19218 0.47261 0.0
C676 C 0.82264 0.18086 0.46388 0.0
C677 C 0.83361 0.19298 0.49083 0.0
C678 C 0.84587 0.20369 0.50078 0.0
C679 C 0.85877 0.20444 0.49911 0.0
C680 C 0.87027 0.21427 0.50879 0.0
C681 C 0.86905 0.22348 0.5204 0.0
C682 C 0.85611 0.22271 0.52202 0.0
C683 C 0.84461 0.21285 0.51234 0.0
H684 H 0.97438 0.50597 0.16702 0.0
H685 H 0.97163 0.52274 0.14981 0.0
H686 H 0.01388 0.55527 0.1627 0.0
H687 H 0.01621 0.53857 0.18052 0.0
H688 H 0.99417 0.49744 0.16403 0.0
H689 H 0.97898 0.5194 0.20365 0.0
H690 H 0.97891 0.53927 0.21742 0.0
H691 H 0.01889 0.55227 0.24074 0.0
H692 H 0.01938 0.53295 0.22569 0.0
H693 H 0.02522 0.49743 0.22193 0.0
H694 H 0.02881 0.48062 0.23801 0.0
H695 H 0.98607 0.44807 0.22764 0.0
H696 H 0.98277 0.46481 0.21122 0.0
H697 H 0.00435 0.50559 0.22685 0.0
H698 H 0.02034 0.48596 0.18 0.0
H699 H 0.01986 0.46694 0.16288 0.0
H700 H 0.97515 0.4475 0.15697 0.0
H701 H 0.97596 0.46699 0.17326 0.0
C702 C 0.99546 0.52106 0.1751 0.0
C703 C 0.98302 0.51673 0.1661 0.0
C704 C 0.9815 0.52634 0.1562 0.0
C705 C 0.99252 0.54043 0.15481 0.0
C706 C 0.00505 0.54463 0.16371 0.0
C707 C 0.00646 0.53507 0.17381 0.0
C708 C 0.99697 0.51096 0.18587 0.0
C709 C 0.99624 0.49917 0.1778 0.0
C710 C 0.99975 0.51325 0.20383 0.0
C711 C 0.99935 0.52486 0.21325 0.0
C712 C 0.98786 0.52667 0.21148 0.0
C713 C 0.98772 0.53794 0.21964 0.0
C714 C 0.99892 0.54749 0.23019 0.0
C715 C 0.01022 0.54535 0.23242 0.0
C716 C 0.01045 0.53419 0.22399 0.0
C717 C 0.00378 0.48231 0.21528 0.0
C718 C 0.01664 0.48666 0.2232 0.0
C719 C 0.01865 0.47705 0.23243 0.0
C720 C 0.00776 0.46293 0.23404 0.0
C721 C 0.99479 0.45874 0.22636 0.0
C722 C 0.99284 0.46832 0.21705 0.0
C723 C 0.00177 0.49227 0.2049 0.0
C724 C 0.00234 0.50398 0.21307 0.0
C725 C 0.99863 0.48984 0.1871 0.0
C726 C 0.9982 0.47786 0.17775 0.0
C727 C 0.01046 0.47755 0.17501 0.0
C728 C 0.01013 0.46659 0.16532 0.0
C729 C 0.99747 0.45567 0.15838 0.0
C730 C 0.98515 0.45587 0.16169 0.0
C731 C 0.98555 0.46694 0.17111 0.0
H732 H 0.50488 0.45991 0.16457 0.0
H733 H 0.4857 0.4432 0.14591 0.0
H734 H 0.45761 0.45291 0.17292 0.0
H735 H 0.47687 0.46992 0.19122 0.0
H736 H 0.51641 0.4872 0.16764 0.0
H737 H 0.49176 0.44842 0.20588 0.0
H738 H 0.47063 0.43023 0.21991 0.0
H739 H 0.46749 0.46249 0.24836 0.0
H740 H 0.48803 0.48061 0.23332 0.0
H741 H 0.52318 0.51781 0.22924 0.0
H742 H 0.54153 0.53863 0.24424 0.0
H743 H 0.57192 0.52798 0.2267 0.0
H744 H 0.55352 0.50744 0.21122 0.0
H745 H 0.51392 0.48877 0.23161 0.0
H746 H 0.53241 0.5255 0.18887 0.0
H747 H 0.5504 0.54463 0.17176 0.0
H748 H 0.56484 0.51704 0.15371 0.0
H749 H 0.54637 0.49778 0.17045 0.0
C750 C 0.49231 0.46606 0.17945 0.0
C751 C 0.4946 0.45845 0.16649 0.0
C752 C 0.48365 0.44892 0.15584 0.0
C753 C 0.47019 0.44676 0.15804 0.0
C754 C 0.46785 0.45425 0.17112 0.0
C755 C 0.47884 0.46394 0.1816 0.0
C756 C 0.50412 0.47669 0.19017 0.0
C757 C 0.51596 0.48729 0.18165 0.0
C758 C 0.50343 0.47707 0.20847 0.0
C759 C 0.49137 0.46592 0.21826 0.0
C760 C 0.48646 0.45158 0.21504 0.0
C761 C 0.47443 0.44116 0.22327 0.0
C762 C 0.46721 0.44484 0.2352 0.0
C763 C 0.47254 0.45922 0.23895 0.0
C764 C 0.48443 0.46963 0.23053 0.0
C765 C 0.53701 0.51113 0.21912 0.0
C766 C 0.53379 0.51992 0.22877 0.0
C767 C 0.54431 0.5318 0.23738 0.0
C768 C 0.55825 0.53503 0.2367 0.0
C769 C 0.56137 0.52599 0.22727 0.0
C770 C 0.55085 0.51417 0.21853 0.0
C771 C 0.52597 0.49917 0.20899 0.0
C772 C 0.51438 0.48837 0.21762 0.0
C773 C 0.52677 0.49858 0.19082 0.0
C774 C 0.53813 0.51028 0.18097 0.0
C775 C 0.53953 0.52363 0.18131 0.0
C776 C 0.5499 0.53458 0.17159 0.0
C777 C 0.55917 0.53245 0.16137 0.0
C778 C 0.5578 0.51904 0.16122 0.0
C779 C 0.5473 0.50803 0.17084 0.0
H780 H 0.53302 0.02453 0.17228 0.0
H781 H 0.55249 0.02631 0.15553 0.0
H782 H 0.53489 0.9813 0.16021 0.0
H783 H 0.51593 0.97987 0.17778 0.0
H784 H 0.50258 0.00508 0.16393 0.0
H785 H 0.53679 0.01742 0.20963 0.0
H786 H 0.55403 0.01471 0.22559 0.0
H787 H 0.52281 0.97124 0.23566 0.0
H788 H 0.50554 0.97424 0.2201 0.0
H789 H 0.47051 0.97715 0.22604 0.0
H790 H 0.45122 0.9753 0.24308 0.0
H791 H 0.45866 0.01453 0.22168 0.0
H792 H 0.47864 0.01686 0.20582 0.0
H793 H 0.49672 0.99404 0.22642 0.0
H794 H 0.46149 0.98206 0.18449 0.0
H795 H 0.4439 0.9835 0.16777 0.0
H796 H 0.47594 0.02328 0.14686 0.0
H797 H 0.49334 0.02222 0.16462 0.0
C798 C 0.5231 0.00209 0.17622 0.0
C799 C 0.53345 0.01509 0.16972 0.0
C800 C 0.54451 0.01604 0.16004 0.0
C801 C 0.54528 0.00393 0.15633 0.0
C802 C 0.53483 0.9909 0.16298 0.0
C803 C 0.52391 0.99002 0.17292 0.0
C804 C 0.51128 0.00107 0.18624 0.0
C805 C 0.50133 0.00289 0.17766 0.0
C806 C 0.50951 0.9977 0.20393 0.0
C807 C 0.51993 0.99601 0.21361 0.0
C808 C 0.5337 0.00731 0.21525 0.0
C809 C 0.54355 0.0057 0.22431 0.0
C810 C 0.53985 0.99272 0.23186 0.0
C811 C 0.526 0.98143 0.23023 0.0
C812 C 0.51612 0.98309 0.22127 0.0
C813 C 0.47597 0.99705 0.21444 0.0
C814 C 0.46808 0.98543 0.22516 0.0
C815 C 0.45689 0.9843 0.23474 0.0
C816 C 0.45322 0.9947 0.23371 0.0
C817 C 0.46122 0.00638 0.22303 0.0
C818 C 0.47256 0.00763 0.2137 0.0
C819 C 0.48781 0.99813 0.2042 0.0
C820 C 0.49783 0.99628 0.21271 0.0
C821 C 0.48948 0.00126 0.1863 0.0
C822 C 0.47874 0.00213 0.17605 0.0
C823 C 0.4647 0.99122 0.17656 0.0
C824 C 0.45466 0.99198 0.16676 0.0
C825 C 0.45846 0.00349 0.15586 0.0
C826 C 0.47256 0.01436 0.15529 0.0
C827 C 0.48257 0.01369 0.1653 0.0
H828 H 0.49171 0.02306 0.85415 0.0
H829 H 0.47227 0.02222 0.87036 0.0
H830 H 0.44478 0.97973 0.8517 0.0
H831 H 0.46414 0.98074 0.83516 0.0
H832 H 0.50111 0.00183 0.8572 0.0
H833 H 0.48648 0.02412 0.81647 0.0
H834 H 0.46922 0.02643 0.79987 0.0
H835 H 0.45593 0.98626 0.7749 0.0
H836 H 0.47316 0.98395 0.79175 0.0
H837 H 0.51276 0.98375 0.79198 0.0
H838 H 0.53274 0.98581 0.77587 0.0
H839 H 0.56018 0.02481 0.80304 0.0
H840 H 0.5402 0.02277 0.81892 0.0
H841 H 0.50277 0.00243 0.79307 0.0
H842 H 0.51966 0.98153 0.83351 0.0
H843 H 0.53763 0.98066 0.85057 0.0
H844 H 0.54728 0.01959 0.87633 0.0
H845 H 0.5294 0.02043 0.85923 0.0
C846 C 0.4793 0.00196 0.84352 0.0
C847 C 0.48147 0.01361 0.85351 0.0
C848 C 0.47039 0.01315 0.86265 0.0
C849 C 0.45709 0.00091 0.86222 0.0
C850 C 0.45496 0.98925 0.85224 0.0
C851 C 0.46597 0.98982 0.84282 0.0
C852 C 0.49099 0.00237 0.83391 0.0
C853 C 0.50157 0.00209 0.84319 0.0
C854 C 0.49138 0.00244 0.81567 0.0
C855 C 0.48099 0.0038 0.80544 0.0
C856 C 0.47979 0.01578 0.80749 0.0
C857 C 0.47002 0.01714 0.79789 0.0
C858 C 0.46122 0.00653 0.78609 0.0
C859 C 0.46248 0.99455 0.78402 0.0
C860 C 0.47235 0.99325 0.79354 0.0
C861 C 0.52503 0.00304 0.80672 0.0
C862 C 0.52309 0.99273 0.79443 0.0
C863 C 0.5345 0.99388 0.78534 0.0
C864 C 0.54801 0.00547 0.78821 0.0
C865 C 0.54988 0.01583 0.80045 0.0
C866 C 0.5385 0.01462 0.80962 0.0
C867 C 0.51299 0.00192 0.81635 0.0
C868 C 0.50229 0.00203 0.80707 0.0
C869 C 0.51254 0.00178 0.83462 0.0
C870 C 0.52327 0.0011 0.84504 0.0
C871 C 0.52569 0.98989 0.84281 0.0
C872 C 0.53588 0.98935 0.85262 0.0
C873 C 0.54389 9e-05 0.86472 0.0
C874 C 0.54138 0.01125 0.86696 0.0
C875 C 0.53111 0.01171 0.85729 0.0
H876 H 0.02462 0.53398 0.8533 0.0
H877 H 0.02549 0.55344 0.86973 0.0
H878 H 0.9843 0.54119 0.85121 0.0
H879 H 0.98322 0.52132 0.83555 0.0
H880 H 0.00769 0.50627 0.85645 0.0
H881 H 0.01949 0.53926 0.80928 0.0
H882 H 0.01642 0.5562 0.79267 0.0
H883 H 0.97366 0.52402 0.78218 0.0
H884 H 0.97683 0.50706 0.79867 0.0
H885 H 0.97993 0.46941 0.7983 0.0
H886 H 0.97944 0.44952 0.78327 0.0
H887 H 0.02223 0.4654 0.79845 0.0
H888 H 0.0225 0.48504 0.8137 0.0
H889 H 0.99688 0.49827 0.79377 0.0
H890 H 0.98499 0.46516 0.83935 0.0
H891 H 0.98714 0.44789 0.85615 0.0
H892 H 0.0294 0.4798 0.86985 0.0
H893 H 0.02695 0.49715 0.85334 0.0
C894 C 0.00393 0.52627 0.84304 0.0
C895 C 0.01577 0.53548 0.85281 0.0
C896 C 0.0163 0.5467 0.86205 0.0
C897 C 0.00499 0.54895 0.86172 0.0
C898 C 0.99314 0.53971 0.85188 0.0
C899 C 0.99259 0.52844 0.84273 0.0
C900 C 0.00332 0.51421 0.83353 0.0
C901 C 0.00555 0.50466 0.8427 0.0
C902 C 1.00011 0.51184 0.8157 0.0
C903 C 0.99837 0.52194 0.80523 0.0
C904 C 0.00948 0.53585 0.80334 0.0
C905 C 0.00773 0.54549 0.79382 0.0
C906 C 0.99479 0.54141 0.7862 0.0
C907 C 0.9837 0.52745 0.78805 0.0
C908 C 0.98552 0.51775 0.79734 0.0
C909 C 0.00121 0.47862 0.80719 0.0
C910 C 0.9892 0.46859 0.79833 0.0
C911 C 0.98896 0.45725 0.78972 0.0
C912 C 0.00079 0.45583 0.78969 0.0
C913 C 0.01285 0.46601 0.79848 0.0
C914 C 0.01306 0.47729 0.80713 0.0
C915 C 0.0014 0.49046 0.81666 0.0
C916 C 0.99907 0.49993 0.80751 0.0
C917 C 0.00448 0.49274 0.83451 0.0
C918 C 0.00584 0.4824 0.84501 0.0
C919 C 0.99472 0.46842 0.84595 0.0
C920 C 0.99602 0.45853 0.85549 0.0
C921 C 0.0085 0.46239 0.86426 0.0
C922 C 0.01959 0.47648 0.86342 0.0
C923 C 0.01824 0.4864 0.85395 0.0
H924 H 0.45676 0.50763 0.85018 0.0
H925 H 0.43843 0.48893 0.86761 0.0
H926 H 0.45313 0.461 0.85198 0.0
H927 H 0.4709 0.47955 0.83397 0.0
H928 H 0.48689 0.51848 0.85269 0.0
H929 H 0.44833 0.49433 0.81341 0.0
H930 H 0.42993 0.47277 0.7999 0.0
H931 H 0.46116 0.46705 0.77388 0.0
H932 H 0.47947 0.48798 0.7886 0.0
H933 H 0.51601 0.52244 0.79037 0.0
H934 H 0.53695 0.53997 0.77534 0.0
H935 H 0.52984 0.57285 0.79408 0.0
H936 H 0.50916 0.55523 0.80961 0.0
H937 H 0.48833 0.5146 0.78884 0.0
H938 H 0.52578 0.53432 0.82843 0.0
H939 H 0.54536 0.55154 0.84609 0.0
H940 H 0.51822 0.5631 0.87204 0.0
H941 H 0.4987 0.54615 0.85396 0.0
C942 C 0.46508 0.4949 0.84074 0.0
C943 C 0.45594 0.49743 0.8505 0.0
C944 C 0.44552 0.48673 0.86053 0.0
C945 C 0.44423 0.47338 0.86125 0.0
C946 C 0.45355 0.47099 0.85149 0.0
C947 C 0.46381 0.48162 0.84128 0.0
C948 C 0.47613 0.5062 0.83015 0.0
C949 C 0.48708 0.51784 0.8387 0.0
C950 C 0.47653 0.50494 0.81196 0.0
C951 C 0.46531 0.49263 0.80237 0.0
C952 C 0.45121 0.48833 0.80497 0.0
C953 C 0.44067 0.47607 0.797 0.0
C954 C 0.44399 0.46802 0.78587 0.0
C955 C 0.45816 0.47274 0.78269 0.0
C956 C 0.46868 0.48485 0.79092 0.0
C957 C 0.51109 0.53755 0.80114 0.0
C958 C 0.5189 0.53342 0.79108 0.0
C959 C 0.53086 0.54347 0.78245 0.0
C960 C 0.53514 0.55787 0.78349 0.0
C961 C 0.52703 0.56191 0.79323 0.0
C962 C 0.51514 0.55185 0.80201 0.0
C963 C 0.49911 0.52697 0.8114 0.0
C964 C 0.48801 0.51542 0.8028 0.0
C965 C 0.49873 0.5281 0.82961 0.0
C966 C 0.5108 0.5391 0.83965 0.0
C967 C 0.5241 0.54081 0.83759 0.0
C968 C 0.53528 0.55061 0.84773 0.0
C969 C 0.53329 0.55864 0.8604 0.0
C970 C 0.52 0.55697 0.86242 0.0
C971 C 0.50887 0.54731 0.8521 0.0
H972 H 0.62295 0.82869 0.49993 0.0
H973 H 0.62318 0.84677 0.48167 0.0
H974 H 0.66146 0.87846 0.50601 0.0
H975 H 0.66139 0.8604 0.52387 0.0
H976 H 0.64054 0.81949 0.50228 0.0
H977 H 0.6244 0.8421 0.54074 0.0
H978 H 0.62591 0.86312 0.55358 0.0
H979 H 0.66381 0.87249 0.57992 0.0
H980 H 0.66277 0.85207 0.56601 0.0
H981 H 0.66922 0.82 0.5619 0.0
H982 H 0.67455 0.8043 0.57757 0.0
H983 H 0.63383 0.76894 0.56428 0.0
H984 H 0.62882 0.78469 0.54818 0.0
H985 H 0.64708 0.82544 0.56582 0.0
H986 H 0.66658 0.80891 0.52025 0.0
H987 H 0.66835 0.79143 0.50249 0.0
H988 H 0.62403 0.77031 0.49209 0.0
H989 H 0.62259 0.7883 0.50917 0.0
C990 C 0.64202 0.84321 0.51348 0.0
C991 C 0.6314 0.83953 0.5013 0.0
C992 C 0.63153 0.84985 0.4909 0.0
C993 C 0.64227 0.86403 0.49256 0.0
C994 C 0.65292 0.86766 0.50469 0.0
C995 C 0.65287 0.85734 0.51491 0.0
C996 C 0.64205 0.83228 0.52441 0.0
C997 C 0.64165 0.82066 0.51621 0.0
C998 C 0.64369 0.83387 0.54261 0.0
C999 C 0.64363 0.84564 0.55208 0.0
C1000 C 0.63308 0.84873 0.54921 0.0
C1001 C 0.63387 0.86069 0.55675 0.0
C1002 C 0.64509 0.86966 0.56765 0.0
C1003 C 0.65522 0.86607 0.57124 0.0
C1004 C 0.65454 0.85425 0.56348 0.0
C1005 C 0.64867 0.80348 0.55381 0.0
C1006 C 0.66143 0.80887 0.56247 0.0
C1007 C 0.66443 0.79987 0.57148 0.0
C1008 C 0.65465 0.78532 0.57217 0.0
C1009 C 0.64173 0.78003 0.56375 0.0
C1010 C 0.6388 0.78902 0.55462 0.0
C1011 C 0.64588 0.81297 0.54357 0.0
C1012 C 0.64569 0.82422 0.55193 0.0
C1013 C 0.64366 0.81109 0.52556 0.0
C1014 C 0.64447 0.79987 0.51593 0.0
C1015 C 0.65726 0.80045 0.51419 0.0
C1016 C 0.65821 0.79037 0.50412 0.0
C1017 C 0.64634 0.77945 0.49571 0.0
C1018 C 0.63345 0.77872 0.498 0.0
C1019 C 0.63257 0.78892 0.50786 0.0
H1020 H 0.16872 0.78939 0.50785 0.0
H1021 H 0.1494 0.77217 0.48994 0.0
H1022 H 0.12439 0.78962 0.5075 0.0
H1023 H 0.14358 0.80625 0.5261 0.0
H1024 H 0.18151 0.81997 0.50618 0.0
H1025 H 0.15714 0.78144 0.54459 0.0
H1026 H 0.13598 0.76321 0.55839 0.0
H1027 H 0.13243 0.79533 0.58659 0.0
H1028 H 0.15303 0.81354 0.57166 0.0
H1029 H 0.18938 0.85076 0.56852 0.0
H1030 H 0.20834 0.87151 0.58295 0.0
H1031 H 0.23777 0.86013 0.56362 0.0
H1032 H 0.21875 0.83964 0.54882 0.0
H1033 H 0.1793 0.82163 0.57021 0.0
H1034 H 0.19743 0.85825 0.52782 0.0
H1035 H 0.21531 0.87763 0.51091 0.0
H1036 H 0.22997 0.85046 0.49196 0.0
H1037 H 0.21159 0.83093 0.50849 0.0
C1038 C 0.15753 0.79903 0.51827 0.0
C1039 C 0.15902 0.7894 0.50788 0.0
C1040 C 0.14797 0.77964 0.49755 0.0
C1041 C 0.1353 0.77954 0.49709 0.0
C1042 C 0.13386 0.7892 0.50767 0.0
C1043 C 0.14486 0.7988 0.51822 0.0
C1044 C 0.16938 0.80963 0.52881 0.0
C1045 C 0.18116 0.82015 0.52019 0.0
C1046 C 0.16868 0.81003 0.54707 0.0
C1047 C 0.15652 0.7989 0.55674 0.0
C1048 C 0.15171 0.78457 0.55358 0.0
C1049 C 0.13968 0.77412 0.56172 0.0
C1050 C 0.13236 0.77773 0.57356 0.0
C1051 C 0.13757 0.79211 0.57726 0.0
C1052 C 0.14948 0.80257 0.56889 0.0
C1053 C 0.20268 0.84372 0.55758 0.0
C1054 C 0.1999 0.85267 0.56758 0.0
C1055 C 0.21077 0.86452 0.57584 0.0
C1056 C 0.22463 0.86755 0.5744 0.0
C1057 C 0.22729 0.85829 0.56474 0.0
C1058 C 0.21642 0.84651 0.55639 0.0
C1059 C 0.19136 0.83195 0.54753 0.0
C1060 C 0.17971 0.82125 0.55622 0.0
C1061 C 0.19203 0.83142 0.52932 0.0
C1062 C 0.20326 0.84321 0.51944 0.0
C1063 C 0.20456 0.85652 0.52008 0.0
C1064 C 0.21488 0.86762 0.51048 0.0
C1065 C 0.22419 0.86569 0.50009 0.0
C1066 C 0.22289 0.85231 0.49961 0.0
C1067 C 0.21245 0.84115 0.50911 0.0
H1068 H 0.15625 0.3427 0.49268 0.0
H1069 H 0.13883 0.34387 0.47522 0.0
H1070 H 0.14156 0.37683 0.50871 0.0
H1071 H 0.15921 0.37571 0.52618 0.0
H1072 H 0.18217 0.36065 0.4989 0.0
H1073 H 0.14066 0.33707 0.53167 0.0
H1074 H 0.12003 0.33336 0.5475 0.0
H1075 H 0.14646 0.36434 0.58564 0.0
H1076 H 0.16719 0.36863 0.56929 0.0
H1077 H 0.20674 0.37033 0.56588 0.0
H1078 H 0.22289 0.36581 0.58189 0.0
H1079 H 0.20964 0.328 0.55131 0.0
H1080 H 0.19349 0.33255 0.53541 0.0
H1081 H 0.17714 0.35248 0.56203 0.0
H1082 H 0.21928 0.37169 0.52732 0.0
H1083 H 0.23744 0.37111 0.50985 0.0
H1084 H 0.20604 0.3419 0.4742 0.0
H1085 H 0.18783 0.34178 0.49207 0.0
C1086 C 0.15904 0.35909 0.51077 0.0
C1087 C 0.15323 0.3503 0.4962 0.0
C1088 C 0.14328 0.35099 0.4862 0.0
C1089 C 0.13888 0.3605 0.49053 0.0
C1090 C 0.14468 0.36933 0.50514 0.0
C1091 C 0.15476 0.3687 0.51511 0.0
C1092 C 0.16954 0.35802 0.52128 0.0
C1093 C 0.181 0.35874 0.5127 0.0
C1094 C 0.16808 0.35572 0.53934 0.0
C1095 C 0.15552 0.35341 0.54901 0.0
C1096 C 0.14207 0.34334 0.5432 0.0
C1097 C 0.13028 0.34114 0.5523 0.0
C1098 C 0.13171 0.34863 0.5677 0.0
C1099 C 0.14513 0.35844 0.57379 0.0
C1100 C 0.15694 0.36088 0.56446 0.0
C1101 C 0.19904 0.35184 0.54939 0.0
C1102 C 0.2073 0.36106 0.56269 0.0
C1103 C 0.21656 0.35851 0.57173 0.0
C1104 C 0.21753 0.34658 0.5678 0.0
C1105 C 0.20904 0.33722 0.55469 0.0
C1106 C 0.19988 0.33985 0.54554 0.0
C1107 C 0.18952 0.35476 0.53951 0.0
C1108 C 0.17833 0.35451 0.54826 0.0
C1109 C 0.19088 0.35686 0.52145 0.0
C1110 C 0.20211 0.35665 0.51116 0.0
C1111 C 0.21624 0.3649 0.51598 0.0
C1112 C 0.22661 0.36464 0.50598 0.0
C1113 C 0.22305 0.35645 0.49077 0.0
C1114 C 0.20899 0.34831 0.48589 0.0
C1115 C 0.19862 0.34831 0.49606 0.0
C1116 C 0.00386 0.37133 0.05804 0.0
C1117 C 0.99233 0.36551 0.04681 0.0
C1118 C 0.00474 0.38006 0.0719 0.0
C1119 C 0.98299 0.39046 0.09775 0.0
H1120 H 0.01855 0.42388 0.1088 0.0
C1121 C 0.98794 0.43883 0.13309 0.0
C1122 C 0.99715 0.44439 0.14722 0.0
C1123 C 0.98761 0.42835 0.12249 0.0
C1124 C 0.00859 0.41448 0.10598 0.0
H1125 H 0.9728 0.36447 0.04121 0.0
H1126 H 0.97453 0.3799 0.06483 0.0
H1127 H 0.01753 0.4071 0.08707 0.0
H1128 H 0.01326 0.44309 0.16118 0.0
H1129 H 0.013 0.42509 0.14213 0.0
H1130 H 0.97401 0.39825 0.11608 0.0
C1131 C 0.98271 0.37743 0.06338 0.0
C1132 C 0.00799 0.40484 0.09358 0.0
C1133 C 0.98176 0.36863 0.04971 0.0
C1134 C 0.00615 0.43924 0.15031 0.0
C1135 C 0.00598 0.42888 0.13948 0.0
C1136 C 0.98358 0.40018 0.10992 0.0
C1137 C 0.99417 0.38324 0.07471 0.0
C1138 C 0.99513 0.39283 0.08906 0.0
C1139 C 0.99664 0.42331 0.12555 0.0
C1140 C 0.99633 0.4124 0.11393 0.0
H1141 H 0.01216 0.36908 0.05622 0.0
H1142 H 0.01365 0.38421 0.08046 0.0
H1143 H 0.97296 0.38115 0.09498 0.0
H1144 H 0.98111 0.44275 0.12996 0.0
H1145 H 0.98046 0.42437 0.11165 0.0
C1146 C 0.62848 0.63542 0.07097 0.0
C1147 C 0.63272 0.63256 0.05508 0.0
C1148 C 0.62245 0.62508 0.0836 0.0
C1149 C 0.61559 0.58938 0.09571 0.0
H1150 H 0.58532 0.58854 0.12168 0.0
C1151 C 0.57309 0.54122 0.13385 0.0
C1152 C 0.56986 0.54405 0.1505 0.0
C1153 C 0.58231 0.55224 0.12316 0.0
C1154 C 0.59384 0.58873 0.11465 0.0
H1155 H 0.63432 0.61674 0.04007 0.0
H1156 H 0.62323 0.59843 0.06179 0.0
H1157 H 0.59837 0.60728 0.10117 0.0
H1158 H 0.57449 0.56073 0.16921 0.0
H1159 H 0.59017 0.57992 0.15029 0.0
H1160 H 0.61043 0.5703 0.10882 0.0
C1161 C 0.62489 0.60878 0.06477 0.0
C1162 C 0.60141 0.59953 0.10293 0.0
C1163 C 0.6312 0.61925 0.05225 0.0
C1164 C 0.57644 0.55815 0.15634 0.0
C1165 C 0.58549 0.56915 0.14557 0.0
C1166 C 0.60783 0.57842 0.10727 0.0
C1167 C 0.62021 0.61148 0.08051 0.0
C1168 C 0.61242 0.60005 0.0933 0.0
C1169 C 0.58836 0.56631 0.12879 0.0
C1170 C 0.59691 0.57803 0.11686 0.0
H1171 H 0.62972 0.64567 0.0736 0.0
H1172 H 0.6194 0.62774 0.09572 0.0
H1173 H 0.62409 0.5895 0.08874 0.0
H1174 H 0.56811 0.53054 0.12879 0.0
H1175 H 0.58426 0.54978 0.11021 0.0
C1176 C 0.36603 0.98388 0.05857 0.0
C1177 C 0.36628 0.99508 0.04984 0.0
C1178 C 0.37571 0.98645 0.07147 0.0
C1179 C 0.41063 0.01307 0.08732 0.0
H1180 H 0.39932 0.98772 0.12619 0.0
C1181 C 0.4485 0.0168 0.14148 0.0
C1182 C 0.4478 0.00396 0.14484 0.0
C1183 C 0.43851 0.01713 0.13098 0.0
C1184 C 0.40263 0.99488 0.1154 0.0
H1185 H 0.37691 0.01788 0.04814 0.0
H1186 H 0.39382 0.02239 0.07097 0.0
H1187 H 0.38173 0.98611 0.10634 0.0
H1188 H 0.43613 0.98144 0.13934 0.0
H1189 H 0.41858 0.98201 0.12159 0.0
H1190 H 0.4316 0.02177 0.09651 0.0
C1191 C 0.38615 0.01158 0.06759 0.0
C1192 C 0.39257 0.99395 0.104 0.0
C1193 C 0.37641 0.00899 0.05457 0.0
C1194 C 0.43686 0.99148 0.13745 0.0
C1195 C 0.42681 0.9918 0.12719 0.0
C1196 C 0.42071 0.01409 0.09888 0.0
C1197 C 0.38592 0.00031 0.07615 0.0
C1198 C 0.39647 0.00273 0.08952 0.0
C1199 C 0.42752 0.00461 0.12385 0.0
C1200 C 0.41682 0.00474 0.11275 0.0
H1201 H 0.35845 0.97302 0.0553 0.0
H1202 H 0.37537 0.9775 0.07749 0.0
H1203 H 0.41402 0.01994 0.07625 0.0
H1204 H 0.45665 0.0266 0.14712 0.0
H1205 H 0.43926 0.02714 0.12867 0.0
C1206 C 0.37629 0.00508 0.96617 0.0
C1207 C 0.36287 0.99307 0.96695 0.0
C1208 C 0.38556 0.0064 0.95306 0.0
C1209 C 0.39119 0.98426 0.92105 0.0
H1210 H 0.42144 0.02066 0.90636 0.0
C1211 C 0.43853 0.98925 0.88458 0.0
C1212 C 0.44557 0.00011 0.87265 0.0
C1213 C 0.42788 0.98861 0.89483 0.0
C1214 C 0.41295 0.01037 0.91004 0.0
H1215 H 0.34826 0.97346 0.95404 0.0
H1216 H 0.36405 0.97609 0.93059 0.0
H1217 H 0.40341 0.01947 0.92521 0.0
H1218 H 0.44692 0.01867 0.86171 0.0
H1219 H 0.42783 0.01725 0.87899 0.0
H1220 H 0.40029 0.97512 0.90521 0.0
C1221 C 0.36776 0.98422 0.94051 0.0
C1222 C 0.40269 0.00969 0.92116 0.0
C1223 C 0.35862 0.98275 0.95387 0.0
C1224 C 0.44166 0.01025 0.87095 0.0
C1225 C 0.43079 0.00946 0.88095 0.0
C1226 C 0.40127 0.98492 0.90965 0.0
C1227 C 0.38151 0.99587 0.94017 0.0
C1228 C 0.39179 0.99663 0.9271 0.0
C1229 C 0.42379 0.99867 0.89313 0.0
C1230 C 0.41247 0.99799 0.90426 0.0
H1231 H 0.37989 0.01316 0.97618 0.0
H1232 H 0.39607 0.01542 0.95351 0.0
H1233 H 0.38315 0.97398 0.92543 0.0
H1234 H 0.44149 0.98141 0.88626 0.0
H1235 H 0.42305 0.98036 0.90433 0.0
C1236 C 0.01187 0.38099 0.96729 0.0
C1237 C 0.00121 0.36693 0.96459 0.0
C1238 C 0.01445 0.39126 0.95502 0.0
C1239 C 0.99601 0.39704 0.91927 0.0
H1240 H 0.03186 0.43103 0.91205 0.0
C1241 C 0.00356 0.4377 0.86838 0.0
C1242 C 0.0098 0.45174 0.87437 0.0
C1243 C 0.00389 0.42745 0.87836 0.0
C1244 C 0.02179 0.42158 0.91399 0.0
H1245 H 0.98568 0.35231 0.94642 0.0
H1246 H 0.99063 0.36995 0.92467 0.0
H1247 H 0.03026 0.41262 0.9308 0.0
H1248 H 0.02166 0.46601 0.89543 0.0
H1249 H 0.02246 0.4481 0.91268 0.0
H1250 H 0.98758 0.40594 0.90235 0.0
C1251 C 0.9966 0.37329 0.93654 0.0
C1252 C 0.02084 0.41105 0.92477 0.0
C1253 C 0.99384 0.36313 0.94893 0.0
C1254 C 0.01686 0.45536 0.89031 0.0
C1255 C 0.01731 0.4451 0.90022 0.0
C1256 C 0.997 0.40745 0.90836 0.0
C1257 C 0.00655 0.38759 0.93969 0.0
C1258 C 0.00791 0.39864 0.92762 0.0
C1259 C 0.0106 0.431 0.89448 0.0
C1260 C 0.00986 0.41985 0.90566 0.0
H1261 H 0.01765 0.38422 0.97932 0.0
H1262 H 0.02213 0.40214 0.95801 0.0
H1263 H 0.98578 0.38788 0.92147 0.0
H1264 H 0.99833 0.43458 0.85599 0.0
H1265 H 0.9988 0.41669 0.87351 0.0
C1266 C 0.62648 0.62707 0.96602 0.0
C1267 C 0.62545 0.63849 0.97236 0.0
C1268 C 0.61815 0.61881 0.95221 0.0
C1269 C 0.59688 0.61824 0.91574 0.0
H1270 H 0.57488 0.57797 0.92362 0.0
C1271 C 0.5582 0.57765 0.86544 0.0
C1272 C 0.54488 0.56819 0.87206 0.0
C1273 C 0.56916 0.58642 0.87659 0.0
C1274 C 0.581 0.58919 0.92123 0.0
H1275 H 0.61533 0.65059 0.96864 0.0
H1276 H 0.60093 0.63627 0.94449 0.0
H1277 H 0.59261 0.59332 0.94466 0.0
H1278 H 0.53258 0.56033 0.89544 0.0
H1279 H 0.55174 0.57558 0.91492 0.0
H1280 H 0.58506 0.6141 0.89244 0.0
C1281 C 0.60814 0.63368 0.95023 0.0
C1282 C 0.59122 0.59795 0.93317 0.0
C1283 C 0.61632 0.64181 0.96416 0.0
C1284 C 0.54272 0.56762 0.89 0.0
C1285 C 0.5537 0.57623 0.90114 0.0
C1286 C 0.58677 0.60945 0.90367 0.0
C1287 C 0.6088 0.62196 0.94431 0.0
C1288 C 0.59908 0.61259 0.9307 0.0
C1289 C 0.56702 0.5857 0.89455 0.0
C1290 C 0.57856 0.59488 0.90649 0.0
H1291 H 0.63342 0.62424 0.97204 0.0
H1292 H 0.61891 0.60987 0.94781 0.0
H1293 H 0.60286 0.62949 0.91349 0.0
H1294 H 0.56011 0.57831 0.85165 0.0
H1295 H 0.57935 0.59361 0.87121 0.0
C1296 C 0.02319 0.64352 0.96234 0.0
C1297 C 0.01103 0.64079 0.97122 0.0
C1298 C 0.02249 0.63484 0.94861 0.0
C1299 C 0.99794 0.60657 0.91825 0.0
H1300 H 0.02704 0.59726 0.91705 0.0
C1301 C 0.99351 0.55862 0.88092 0.0
C1302 C 0.00543 0.56064 0.87201 0.0
C1303 C 0.99414 0.56935 0.89139 0.0
C1304 C 0.01894 0.5999 0.91706 0.0
H1305 H 0.98853 0.62703 0.97226 0.0
H1306 H 0.98735 0.61166 0.94862 0.0
H1307 H 0.0282 0.61425 0.9383 0.0
H1308 H 0.02718 0.57578 0.86655 0.0
H1309 H 0.02831 0.59439 0.88508 0.0
H1310 H 0.98848 0.59176 0.89729 0.0
C1311 C 0.99741 0.62066 0.95204 0.0
C1312 C 0.01961 0.60968 0.92922 0.0
C1313 C 0.9981 0.62945 0.96568 0.0
C1314 C 0.01789 0.57376 0.8735 0.0
C1315 C 0.01853 0.58444 0.88406 0.0
C1316 C 0.99721 0.59667 0.90617 0.0
C1317 C 0.00963 0.62312 0.94353 0.0
C1318 C 0.0091 0.61312 0.93003 0.0
C1319 C 0.00671 0.58229 0.89327 0.0
C1320 C 0.00769 0.59321 0.9055 0.0
H1321 H 0.0333 0.65228 0.96612 0.0
H1322 H 0.03207 0.63726 0.94209 0.0
H1323 H 0.98977 0.60911 0.91834 0.0
H1324 H 0.98379 0.5486 0.88027 0.0
H1325 H 0.9849 0.56733 0.89849 0.0
C1326 C 0.37525 0.37097 0.94955 0.0
C1327 C 0.36995 0.37254 0.96542 0.0
C1328 C 0.38095 0.38192 0.93765 0.0
C1329 C 0.39982 0.41983 0.93598 0.0
H1330 H 0.39138 0.41453 0.887 0.0
C1331 C 0.42993 0.46545 0.88854 0.0
C1332 C 0.4335 0.46211 0.87243 0.0
C1333 C 0.42041 0.45481 0.89941 0.0
C1334 C 0.39399 0.41617 0.90061 0.0
H1335 H 0.36617 0.38669 0.98109 0.0
H1336 H 0.3765 0.406 0.96039 0.0
H1337 H 0.37784 0.39513 0.90679 0.0
H1338 H 0.42929 0.44484 0.8549 0.0
H1339 H 0.4134 0.42635 0.87419 0.0
H1340 H 0.41643 0.44052 0.92991 0.0
C1341 C 0.37609 0.39622 0.95718 0.0
C1342 C 0.38615 0.40508 0.91192 0.0
C1343 C 0.37014 0.38516 0.96896 0.0
C1344 C 0.42704 0.44784 0.86734 0.0
C1345 C 0.41769 0.4372 0.87833 0.0
C1346 C 0.40781 0.43084 0.92466 0.0
C1347 C 0.38167 0.39473 0.94151 0.0
C1348 C 0.38909 0.40678 0.92968 0.0
C1349 C 0.41434 0.44052 0.8946 0.0
C1350 C 0.40512 0.42912 0.90677 0.0
H1351 H 0.37518 0.36134 0.94643 0.0
H1352 H 0.38528 0.38056 0.92571 0.0
H1353 H 0.4024 0.42134 0.94961 0.0
H1354 H 0.43476 0.47628 0.89302 0.0
H1355 H 0.41791 0.45783 0.91169 0.0
C1356 C 0.62598 0.99477 0.96554 0.0
C1357 C 0.63862 0.00779 0.96645 0.0
C1358 C 0.6158 0.99252 0.9533 0.0
C1359 C 0.60435 0.01312 0.92948 0.0
H1360 H 0.5824 0.97949 0.90143 0.0
C1361 C 0.56804 0.01202 0.87696 0.0
C1362 C 0.55489 0.99976 0.87499 0.0
C1363 C 0.57822 0.01203 0.88731 0.0
C1364 C 0.58834 0.98889 0.90933 0.0
H1365 H 0.65089 0.0282 0.95429 0.0
H1366 H 0.63328 0.02424 0.93313 0.0
H1367 H 0.60029 0.98088 0.92091 0.0
H1368 H 0.54218 0.97779 0.88201 0.0
H1369 H 0.55992 0.97785 0.90042 0.0
H1370 H 0.5924 0.02111 0.91836 0.0
C1371 C 0.63108 0.0159 0.94207 0.0
C1372 C 0.59859 0.98968 0.92043 0.0
C1373 C 0.64119 0.01813 0.9542 0.0
C1374 C 0.55226 0.98738 0.88324 0.0
C1375 C 0.56244 0.98741 0.89375 0.0
C1376 C 0.5941 0.0123 0.91854 0.0
C1377 C 0.61811 0.00326 0.94183 0.0
C1378 C 0.60683 0.00191 0.93043 0.0
C1379 C 0.57548 0.99981 0.89611 0.0
C1380 C 0.58608 0.00028 0.90812 0.0
H1381 H 0.62368 0.98657 0.97476 0.0
H1382 H 0.60589 0.98267 0.95339 0.0
H1383 H 0.6103 0.02255 0.93733 0.0
H1384 H 0.57046 0.02165 0.87049 0.0
H1385 H 0.58827 0.02168 0.88844 0.0
C1386 C 0.63517 0.02386 0.05121 0.0
C1387 C 0.63834 0.01322 0.04833 0.0
C1388 C 0.62585 0.02254 0.0642 0.0
C1389 C 0.59758 0.99613 0.09222 0.0
H1390 H 0.60274 0.02981 0.11548 0.0
C1391 C 0.56223 0.99607 0.14812 0.0
C1392 C 0.55671 0.00484 0.14525 0.0
C1393 C 0.57272 0.99676 0.13741 0.0
C1394 C 0.60119 0.02033 0.10908 0.0
H1395 H 0.63435 0.99292 0.05708 0.0
H1396 H 0.6184 0.99083 0.08021 0.0
H1397 H 0.62042 0.03161 0.0953 0.0
H1398 H 0.55794 0.02107 0.12853 0.0
H1399 H 0.57659 0.02263 0.11044 0.0
H1400 H 0.57839 0.98489 0.10641 0.0
C1401 C 0.62287 5e-05 0.07212 0.0
C1402 C 0.61126 0.02134 0.09742 0.0
C1403 C 0.63207 0.00128 0.05891 0.0
C1404 C 0.5621 0.01439 0.13148 0.0
C1405 C 0.57274 0.01524 0.121 0.0
C1406 C 0.58761 0.9951 0.10413 0.0
C1407 C 0.61959 0.01066 0.07489 0.0
C1408 C 0.60946 0.0093 0.08852 0.0
C1409 C 0.5781 0.00641 0.12382 0.0
C1410 C 0.5892 0.00724 0.11239 0.0
H1411 H 0.63965 0.03312 0.04317 0.0
H1412 H 0.62336 0.03077 0.06558 0.0
H1413 H 0.59572 0.98665 0.08551 0.0
H1414 H 0.55856 0.98876 0.15874 0.0
H1415 H 0.57678 0.98991 0.13989 0.0
C1416 C 0.9887 0.62184 0.05082 0.0
C1417 C 1.00046 0.6353 0.05368 0.0
C1418 C 0.9852 0.61101 0.06259 0.0
C1419 C 0.99006 0.60329 0.10709 0.0
H1420 H 0.98927 0.57045 0.08729 0.0
C1421 C 0.99751 0.56496 0.14891 0.0
C1422 C 0.99105 0.55066 0.144 0.0
C1423 C 0.99668 0.57468 0.13841 0.0
C1424 C 0.98913 0.57935 0.09309 0.0
H1425 H 0.01726 0.64823 0.07153 0.0
H1426 H 0.01092 0.62944 0.09226 0.0
H1427 H 0.99051 0.58845 0.06836 0.0
H1428 H 0.97837 0.53541 0.12414 0.0
H1429 H 0.97629 0.55214 0.10636 0.0
H1430 H 0.98858 0.59425 0.13181 0.0
C1431 C 0.00451 0.62722 0.08087 0.0
C1432 C 0.98988 0.58969 0.08219 0.0
C1433 C 0.00817 0.63794 0.06896 0.0
C1434 C 0.98338 0.54628 0.1285 0.0
C1435 C 0.98237 0.55597 0.11812 0.0
C1436 C 0.98907 0.59284 0.118 0.0
C1437 C 0.99322 0.61357 0.07758 0.0
C1438 C 0.99064 0.60188 0.0891 0.0
C1439 C 0.98916 0.57034 0.1228 0.0
C1440 C 0.9889 0.58086 0.11117 0.0
H1441 H 0.98261 0.61949 0.03911 0.0
H1442 H 0.97641 0.60057 0.05981 0.0
H1443 H 0.99053 0.61256 0.11271 0.0
H1444 H 0.00329 0.56873 0.1609 0.0
H1445 H 0.00223 0.58566 0.1424 0.0
C1446 C 0.38849 0.36224 0.05366 0.0
C1447 C 0.37861 0.36494 0.04634 0.0
C1448 C 0.39684 0.37049 0.06743 0.0
C1449 C 0.41246 0.40591 0.08534 0.0
H1450 H 0.42048 0.39032 0.12516 0.0
C1451 C 0.46085 0.43805 0.12833 0.0
C1452 C 0.45874 0.43709 0.14628 0.0
C1453 C 0.45005 0.42914 0.11713 0.0
C1454 C 0.41824 0.3948 0.11418 0.0
H1455 H 0.36954 0.37822 0.04806 0.0
H1456 H 0.38432 0.39276 0.07196 0.0
H1457 H 0.40291 0.37449 0.10413 0.0
H1458 H 0.44376 0.42602 0.16666 0.0
H1459 H 0.42484 0.4102 0.147 0.0
H1460 H 0.42804 0.42619 0.09512 0.0
C1461 C 0.38554 0.38422 0.06701 0.0
C1462 C 0.40828 0.38576 0.10212 0.0
C1463 C 0.37705 0.37586 0.05338 0.0
C1464 C 0.44562 0.427 0.15285 0.0
C1465 C 0.43486 0.41793 0.14164 0.0
C1466 C 0.42255 0.41493 0.09725 0.0
C1467 C 0.39561 0.38171 0.07404 0.0
C1468 C 0.40538 0.39124 0.08751 0.0
C1469 C 0.43696 0.41898 0.12368 0.0
C1470 C 0.42564 0.40945 0.11169 0.0
H1471 H 0.38991 0.35387 0.04861 0.0
H1472 H 0.40459 0.36839 0.07252 0.0
H1473 H 0.41052 0.4104 0.07413 0.0
H1474 H 0.47083 0.44582 0.12293 0.0
H1475 H 0.45198 0.43008 0.10334 0.0
C1476 C 0.64552 0.70418 0.37993 0.0
C1477 C 0.65631 0.70121 0.37836 0.0
C1478 C 0.64493 0.71179 0.39408 0.0
C1479 C 0.66605 0.73624 0.42936 0.0
H1480 H 0.62946 0.72619 0.4469 0.0
C1481 C 0.65687 0.76464 0.48758 0.0
C1482 C 0.6475 0.76925 0.48401 0.0
C1483 C 0.65827 0.75551 0.47613 0.0
C1484 C 0.63975 0.7291 0.44214 0.0
H1485 H 0.67505 0.70404 0.39047 0.0
H1486 H 0.67386 0.71718 0.41553 0.0
H1487 H 0.63149 0.71164 0.42449 0.0
H1488 H 0.63242 0.76791 0.46534 0.0
H1489 H 0.63453 0.75167 0.44584 0.0
H1490 H 0.67422 0.75373 0.44722 0.0
C1491 C 0.66595 0.71374 0.4056 0.0
C1492 C 0.64093 0.72082 0.42924 0.0
C1493 C 0.66661 0.70618 0.39127 0.0
C1494 C 0.63948 0.76436 0.46881 0.0
C1495 C 0.64074 0.7551 0.45754 0.0
C1496 C 0.66487 0.74445 0.44246 0.0
C1497 C 0.65502 0.71654 0.40722 0.0
C1498 C 0.65405 0.7245 0.42233 0.0
C1499 C 0.65019 0.75064 0.46103 0.0
C1500 C 0.65167 0.74114 0.44865 0.0
H1501 H 0.63751 0.70071 0.37013 0.0
H1502 H 0.63659 0.71407 0.3946 0.0
H1503 H 0.67631 0.73944 0.42429 0.0
H1504 H 0.66307 0.768 0.49926 0.0
H1505 H 0.66557 0.75214 0.47916 0.0
C1506 C 0.29419 0.96951 0.41075 0.0
C1507 C 0.29849 0.96657 0.39494 0.0
C1508 C 0.28806 0.95919 0.42342 0.0
C1509 C 0.28108 0.92345 0.43567 0.0
H1510 H 0.25064 0.92251 0.46136 0.0
C1511 C 0.23822 0.8749 0.47271 0.0
C1512 C 0.23486 0.87748 0.48941 0.0
C1513 C 0.24749 0.88608 0.46225 0.0
C1514 C 0.25922 0.92273 0.45441 0.0
H1515 H 0.30001 0.9506 0.38013 0.0
H1516 H 0.28879 0.93241 0.40188 0.0
H1517 H 0.26392 0.94142 0.44109 0.0
H1518 H 0.2393 0.8939 0.50845 0.0
H1519 H 0.25505 0.91337 0.48992 0.0
H1520 H 0.27575 0.90425 0.44856 0.0
C1521 C 0.29049 0.94279 0.40479 0.0
C1522 C 0.26692 0.93362 0.44283 0.0
C1523 C 0.29688 0.95321 0.39224 0.0
C1524 C 0.24134 0.8915 0.49553 0.0
C1525 C 0.25043 0.90267 0.48497 0.0
C1526 C 0.27319 0.9124 0.44706 0.0
C1527 C 0.28579 0.94556 0.42046 0.0
C1528 C 0.27796 0.93416 0.43327 0.0
C1529 C 0.25346 0.90007 0.46817 0.0
C1530 C 0.26219 0.91195 0.45652 0.0
H1531 H 0.29546 0.97977 0.41328 0.0
H1532 H 0.28496 0.96189 0.43547 0.0
H1533 H 0.28962 0.92359 0.42878 0.0
H1534 H 0.23332 0.86429 0.46743 0.0
H1535 H 0.24956 0.88381 0.44927 0.0
C1536 C 0.04851 0.34966 0.39059 0.0
C1537 C 0.03855 0.3352 0.38877 0.0
C1538 C 0.05903 0.35441 0.40306 0.0
C1539 C 0.06934 0.34368 0.44292 0.0
H1540 H 0.107 0.37052 0.42798 0.0
C1541 C 0.12865 0.36022 0.46174 0.0
C1542 C 0.12811 0.36093 0.47985 0.0
C1543 C 0.11791 0.3593 0.45163 0.0
C1544 C 0.09654 0.36303 0.43236 0.0
H1545 H 0.03169 0.31447 0.39908 0.0
H1546 H 0.05006 0.32271 0.4206 0.0
H1547 H 0.08743 0.36427 0.40874 0.0
H1548 H 0.1161 0.36169 0.50154 0.0
H1549 H 0.09735 0.36023 0.48382 0.0
H1550 H 0.0785 0.34196 0.46622 0.0
C1551 C 0.04966 0.33042 0.41252 0.0
C1552 C 0.0853 0.35956 0.4214 0.0
C1553 C 0.03916 0.32567 0.40006 0.0
C1554 C 0.11683 0.36122 0.48761 0.0
C1555 C 0.10603 0.36024 0.47748 0.0
C1556 C 0.08058 0.34715 0.45388 0.0
C1557 C 0.05983 0.34482 0.41403 0.0
C1558 C 0.07159 0.34962 0.42641 0.0
C1559 C 0.10635 0.35905 0.45937 0.0
C1560 C 0.09434 0.35665 0.44858 0.0
H1561 H 0.04834 0.35732 0.38218 0.0
H1562 H 0.06661 0.36559 0.40402 0.0
H1563 H 0.05889 0.33613 0.44726 0.0
H1564 H 0.13729 0.36016 0.45537 0.0
H1565 H 0.11843 0.35825 0.43775 0.0
C1566 C 0.02837 0.31121 0.29603 0.0
C1567 C 0.0329 0.32372 0.30562 0.0
C1568 C 0.03635 0.31075 0.28238 0.0
C1569 C 0.06604 0.33278 0.25314 0.0
H1570 H 0.06889 0.29924 0.25112 0.0
C1571 C 0.10832 0.32885 0.21386 0.0
C1572 C 0.10423 0.3161 0.20502 0.0
C1573 C 0.099 0.33012 0.22483 0.0
C1574 C 0.06806 0.30859 0.25135 0.0
H1575 H 0.04913 0.34573 0.30794 0.0
H1576 H 0.06331 0.34485 0.28428 0.0
H1577 H 0.05385 0.30104 0.27258 0.0
H1578 H 0.08697 0.29484 0.2003 0.0
H1579 H 0.07075 0.29701 0.21959 0.0
H1580 H 0.08058 0.34042 0.23208 0.0
C1581 C 0.05346 0.33543 0.2872 0.0
C1582 C 0.05942 0.30963 0.26364 0.0
C1583 C 0.04536 0.33593 0.3008 0.0
C1584 C 0.09053 0.30472 0.20715 0.0
C1585 C 0.08123 0.30598 0.21816 0.0
C1586 C 0.07477 0.33177 0.24087 0.0
C1587 C 0.04917 0.32274 0.27807 0.0
C1588 C 0.05827 0.32172 0.2647 0.0
C1589 C 0.08542 0.31864 0.22726 0.0
C1590 C 0.07587 0.31965 0.23986 0.0
H1591 H 0.01869 0.30166 0.29921 0.0
H1592 H 0.03254 0.3009 0.27535 0.0
H1593 H 0.06529 0.34217 0.25348 0.0
H1594 H 0.11886 0.33776 0.21272 0.0
H1595 H 0.1026 0.33994 0.23184 0.0
C1596 C 0.66481 0.70411 0.28191 0.0
C1597 C 0.67174 0.70581 0.29764 0.0
C1598 C 0.66998 0.7151 0.27007 0.0
C1599 C 0.68885 0.75314 0.26869 0.0
H1600 H 0.69156 0.74813 0.21942 0.0
C1601 C 0.7032 0.79863 0.22158 0.0
C1602 C 0.69602 0.79507 0.20573 0.0
C1603 C 0.70242 0.78816 0.23228 0.0
C1604 C 0.69071 0.7497 0.23312 0.0
H1605 H 0.68973 0.72026 0.31309 0.0
H1606 H 0.69858 0.73961 0.29251 0.0
H1607 H 0.68606 0.72879 0.23892 0.0
H1608 H 0.68291 0.7776 0.18845 0.0
H1609 H 0.68091 0.7594 0.2074 0.0
H1610 H 0.69269 0.77368 0.263 0.0
C1611 C 0.68921 0.7297 0.28934 0.0
C1612 C 0.68766 0.73863 0.24427 0.0
C1613 C 0.68418 0.7186 0.30105 0.0
C1614 C 0.68834 0.78077 0.2007 0.0
C1615 C 0.6874 0.7703 0.21149 0.0
C1616 C 0.69167 0.76413 0.25752 0.0
C1617 C 0.68205 0.72811 0.27384 0.0
C1618 C 0.68655 0.7402 0.26214 0.0
C1619 C 0.6943 0.77381 0.22754 0.0
C1620 C 0.69245 0.76251 0.23954 0.0
H1621 H 0.65522 0.69436 0.27888 0.0
H1622 H 0.66421 0.71363 0.25826 0.0
H1623 H 0.68788 0.75456 0.2824 0.0
H1624 H 0.70914 0.8095 0.22599 0.0
H1625 H 0.70809 0.79133 0.24437 0.0
C1626 C 0.27348 0.96429 0.31432 0.0
C1627 C 0.28766 0.96841 0.31444 0.0
C1628 C 0.26467 0.95553 0.30123 0.0
C1629 C 0.26336 0.94515 0.25657 0.0
H1630 H 0.2283 0.91211 0.2696 0.0
C1631 C 0.22293 0.90698 0.206 0.0
C1632 C 0.20875 0.90142 0.21007 0.0
C1633 C 0.2333 0.91475 0.2183 0.0
C1634 C 0.23796 0.92138 0.26571 0.0
H1635 H 0.30378 0.96671 0.30074 0.0
H1636 H 0.28829 0.95156 0.27744 0.0
H1637 H 0.24515 0.92646 0.29185 0.0
H1638 H 0.19445 0.89972 0.23038 0.0
H1639 H 0.21244 0.91374 0.25138 0.0
H1640 H 0.25596 0.94046 0.23049 0.0
C1641 C 0.28408 0.95508 0.28768 0.0
C1642 C 0.24763 0.92952 0.27846 0.0
C1643 C 0.29289 0.96368 0.30102 0.0
C1644 C 0.20524 0.90399 0.22664 0.0
C1645 C 0.21559 0.91185 0.23884 0.0
C1646 C 0.25357 0.9371 0.24378 0.0
C1647 C 0.26987 0.95085 0.2878 0.0
C1648 C 0.26032 0.94158 0.27404 0.0
C1649 C 0.22974 0.91719 0.23493 0.0
C1650 C 0.24064 0.92525 0.24824 0.0
H1651 H 0.2691 0.96769 0.3245 0.0
H1652 H 0.25377 0.95251 0.30151 0.0
H1653 H 0.27306 0.95447 0.25288 0.0
H1654 H 0.22604 0.90536 0.19329 0.0
H1655 H 0.24409 0.91863 0.21486 0.0
C1656 C 0.69057 0.97388 0.29526 0.0
C1657 C 0.67833 0.96984 0.30477 0.0
C1658 C 0.69048 0.96564 0.28135 0.0
C1659 C 0.67274 0.92926 0.26653 0.0
H1660 H 0.69254 0.94492 0.22357 0.0
C1661 C 0.69124 0.9 0.22201 0.0
C1662 C 0.68841 0.89955 0.2043 0.0
C1663 C 0.68897 0.90862 0.23325 0.0
C1664 C 0.68687 0.9404 0.23545 0.0
H1665 H 0.65627 0.9542 0.30679 0.0
H1666 H 0.65618 0.93967 0.28259 0.0
H1667 H 0.68998 0.96021 0.24464 0.0
H1668 H 0.68125 0.9079 0.18435 0.0
H1669 H 0.67746 0.9232 0.20407 0.0
H1670 H 0.66995 0.90955 0.25758 0.0
C1671 C 0.66583 0.94925 0.28595 0.0
C1672 C 0.68548 0.94914 0.24751 0.0
C1673 C 0.66588 0.95759 0.29975 0.0
C1674 C 0.68345 0.90803 0.19798 0.0
C1675 C 0.68135 0.91681 0.20921 0.0
C1676 C 0.67429 0.92058 0.25458 0.0
C1677 C 0.67817 0.95311 0.27677 0.0
C1678 C 0.67853 0.94368 0.26325 0.0
C1679 C 0.68396 0.91706 0.22697 0.0
C1680 C 0.68152 0.9261 0.23904 0.0
H1681 H 0.70032 0.9833 0.29871 0.0
H1682 H 0.70017 0.9688 0.2746 0.0
H1683 H 0.66745 0.92481 0.27863 0.0
H1684 H 0.69495 0.89347 0.22724 0.0
H1685 H 0.6912 0.90874 0.24687 0.0
C1686 C 0.04134 0.70654 0.283 0.0
C1687 C 0.03627 0.70786 0.29917 0.0
C1688 C 0.04651 0.71752 0.27117 0.0
C1689 C 0.0645 0.75544 0.26988 0.0
H1690 H 0.0557 0.75011 0.22099 0.0
C1691 C 0.09389 0.80125 0.22244 0.0
C1692 C 0.09751 0.79797 0.20631 0.0
C1693 C 0.08443 0.79055 0.23331 0.0
C1694 C 0.0584 0.75177 0.23457 0.0
H1695 H 0.0323 0.72158 0.31544 0.0
H1696 H 0.0417 0.74096 0.29483 0.0
H1697 H 0.04262 0.73058 0.24076 0.0
H1698 H 0.09341 0.78077 0.18874 0.0
H1699 H 0.07764 0.76219 0.208 0.0
H1700 H 0.08077 0.77629 0.26378 0.0
C1701 C 0.04153 0.73134 0.29133 0.0
C1702 C 0.05082 0.7406 0.24589 0.0
C1703 C 0.03611 0.72024 0.30306 0.0
C1704 C 0.09113 0.78372 0.20119 0.0
C1705 C 0.08184 0.77303 0.21217 0.0
C1706 C 0.07223 0.76654 0.25855 0.0
C1707 C 0.04693 0.73013 0.27537 0.0
C1708 C 0.05392 0.74229 0.26361 0.0
C1709 C 0.07848 0.77627 0.22848 0.0
C1710 C 0.06943 0.76481 0.24069 0.0
H1711 H 0.04154 0.69709 0.2796 0.0
H1712 H 0.05071 0.71636 0.259 0.0
H1713 H 0.06721 0.75696 0.28347 0.0
H1714 H 0.09864 0.81207 0.22694 0.0
H1715 H 0.08192 0.7935 0.24561 0.0
C1716 C 0.28558 0.32143 0.30051 0.0
C1717 C 0.29916 0.3321 0.29616 0.0
C1718 C 0.27474 0.31665 0.28848 0.0
C1719 C 0.26617 0.32831 0.24778 0.0
H1720 H 0.23264 0.29134 0.24972 0.0
C1721 C 0.22081 0.30989 0.19942 0.0
C1722 C 0.20809 0.30627 0.20746 0.0
C1723 C 0.23197 0.31132 0.20915 0.0
C1724 C 0.24199 0.30167 0.24904 0.0
H1725 H 0.31231 0.3454 0.27552 0.0
H1726 H 0.2937 0.33649 0.25419 0.0
H1727 H 0.25249 0.29674 0.26815 0.0
H1728 H 0.1968 0.30067 0.23171 0.0
H1729 H 0.21627 0.30281 0.24869 0.0
H1730 H 0.25567 0.33306 0.22838 0.0
C1731 C 0.29114 0.33225 0.2671 0.0
C1732 C 0.25335 0.30484 0.25968 0.0
C1733 C 0.30188 0.33728 0.27926 0.0
C1734 C 0.20653 0.30351 0.22525 0.0
C1735 C 0.2176 0.30465 0.23492 0.0
C1736 C 0.25496 0.32503 0.23692 0.0
C1737 C 0.2773 0.32222 0.27168 0.0
C1738 C 0.26555 0.3183 0.2594 0.0
C1739 C 0.23051 0.30887 0.22701 0.0
C1740 C 0.2427 0.31177 0.23761 0.0
H1741 H 0.28318 0.31733 0.31351 0.0
H1742 H 0.26427 0.30907 0.29268 0.0
H1743 H 0.27514 0.3389 0.2474 0.0
H1744 H 0.22228 0.31216 0.18574 0.0
H1745 H 0.24183 0.31457 0.20278 0.0
C1746 C 0.30063 0.34133 0.39062 0.0
C1747 C 0.30366 0.35002 0.3762 0.0
C1748 C 0.29311 0.34232 0.40461 0.0
C1749 C 0.28162 0.36613 0.42343 0.0
H1750 H 0.25477 0.33265 0.44806 0.0
C1751 C 0.23544 0.36156 0.46255 0.0
C1752 C 0.23391 0.35672 0.47953 0.0
C1753 C 0.24525 0.36129 0.45151 0.0
C1754 C 0.26236 0.34209 0.4414 0.0
H1755 H 0.30076 0.36618 0.36487 0.0
H1756 H 0.28725 0.36746 0.3887 0.0
H1757 H 0.26916 0.33078 0.42543 0.0
H1758 H 0.24126 0.34778 0.49842 0.0
H1759 H 0.25827 0.34688 0.47878 0.0
H1760 H 0.27419 0.37723 0.43881 0.0
C1761 C 0.29111 0.36029 0.38969 0.0
C1762 C 0.27065 0.34106 0.42847 0.0
C1763 C 0.29879 0.35948 0.3759 0.0
C1764 C 0.24236 0.35162 0.48537 0.0
C1765 C 0.25199 0.35105 0.47417 0.0
C1766 C 0.27316 0.36708 0.43609 0.0
C1767 C 0.2883 0.35187 0.40436 0.0
C1768 C 0.28023 0.35304 0.41909 0.0
C1769 C 0.25349 0.35589 0.45716 0.0
C1770 C 0.26334 0.35506 0.44501 0.0
H1771 H 0.30431 0.33399 0.39124 0.0
H1772 H 0.29128 0.33575 0.41573 0.0
H1773 H 0.28914 0.37566 0.4169 0.0
H1774 H 0.229 0.36552 0.45782 0.0
H1775 H 0.24616 0.36499 0.43841 0.0
C1776 C 0.67813 0.96246 0.39702 0.0
C1777 C 0.66825 0.96378 0.38737 0.0
C1778 C 0.67388 0.95193 0.40934 0.0
C1779 C 0.644 0.91731 0.42169 0.0
H1780 H 0.66586 0.92464 0.46334 0.0
C1781 C 0.64576 0.88809 0.48844 0.0
C1782 C 0.64267 0.87502 0.48137 0.0
C1783 C 0.64717 0.89883 0.47776 0.0
C1784 C 0.65948 0.92241 0.45193 0.0
H1785 H 0.64608 0.95515 0.38344 0.0
H1786 H 0.63866 0.9369 0.40523 0.0
H1787 H 0.67138 0.94385 0.44388 0.0
H1788 H 0.63836 0.86283 0.45765 0.0
H1789 H 0.6411 0.88164 0.43893 0.0
H1790 H 0.63196 0.89588 0.42992 0.0
C1791 C 0.64972 0.9439 0.40302 0.0
C1792 C 0.66279 0.93342 0.44061 0.0
C1793 C 0.65398 0.95443 0.39059 0.0
C1794 C 0.64063 0.87276 0.46346 0.0
C1795 C 0.64216 0.88355 0.45275 0.0
C1796 C 0.64063 0.90629 0.43308 0.0
C1797 C 0.65963 0.94247 0.41246 0.0
C1798 C 0.65526 0.93097 0.42519 0.0
C1799 C 0.64565 0.8968 0.45974 0.0
C1800 C 0.64846 0.90866 0.44822 0.0
H1801 H 0.68921 0.96939 0.39487 0.0
H1802 H 0.68182 0.95101 0.41613 0.0
H1803 H 0.63804 0.91501 0.40988 0.0
H1804 H 0.64718 0.89004 0.50224 0.0
H1805 H 0.64956 0.90878 0.48364 0.0
C1806 C 0.04156 0.70583 0.39306 0.0
C1807 C 0.04742 0.70182 0.37961 0.0
C1808 C 0.04958 0.71327 0.40754 0.0
C1809 C 0.08232 0.72167 0.4302 0.0
H1810 H 0.08041 0.75302 0.45021 0.0
C1811 C 0.12704 0.76625 0.46891 0.0
C1812 C 0.12386 0.76972 0.48519 0.0
C1813 C 0.11644 0.75704 0.4577 0.0
C1814 C 0.0809 0.74417 0.44486 0.0
H1815 H 0.06643 0.70294 0.3706 0.0
H1816 H 0.08035 0.71609 0.39533 0.0
H1817 H 0.06406 0.7386 0.42729 0.0
H1818 H 0.10684 0.76613 0.50232 0.0
H1819 H 0.0883 0.75042 0.48229 0.0
H1820 H 0.09958 0.72767 0.44717 0.0
C1821 C 0.06948 0.71313 0.39511 0.0
C1822 C 0.07153 0.73589 0.43179 0.0
C1823 C 0.06148 0.70564 0.38081 0.0
C1824 C 0.10973 0.76387 0.48982 0.0
C1825 C 0.09909 0.75482 0.47842 0.0
C1826 C 0.09176 0.73004 0.44304 0.0
C1827 C 0.06362 0.7169 0.40878 0.0
C1828 C 0.07237 0.72475 0.42401 0.0
C1829 C 0.10238 0.75125 0.46234 0.0
C1830 C 0.09133 0.74153 0.45022 0.0
H1831 H 0.03074 0.70304 0.39253 0.0
H1832 H 0.04473 0.71597 0.41786 0.0
H1833 H 0.08301 0.71293 0.42488 0.0
H1834 H 0.13775 0.7708 0.46463 0.0
H1835 H 0.11923 0.7546 0.44524 0.0
C1836 C 0.33563 0.04509 0.71923 0.0
C1837 C 0.32338 0.03299 0.71341 0.0
C1838 C 0.33515 0.0532 0.73299 0.0
C1839 C 0.31002 0.06029 0.75566 0.0
H1840 H 0.33975 0.07948 0.78927 0.0
C1841 C 0.30511 0.0906 0.81356 0.0
C1842 C 0.31651 0.1043 0.81644 0.0
C1843 C 0.30628 0.08131 0.80224 0.0
C1844 C 0.33141 0.07422 0.77991 0.0
H1845 H 0.30117 0.01948 0.71814 0.0
H1846 H 0.30041 0.03333 0.74229 0.0
H1847 H 0.34122 0.06417 0.76726 0.0
H1848 H 0.33821 0.11882 0.8099 0.0
H1849 H 0.34028 0.1025 0.7903 0.0
H1850 H 0.30019 0.07028 0.76829 0.0
C1851 C 0.31032 0.03686 0.73592 0.0
C1852 C 0.33226 0.06549 0.76728 0.0
C1853 C 0.31077 0.02886 0.7221 0.0
C1854 C 0.32926 0.1083 0.80816 0.0
C1855 C 0.33046 0.09896 0.79691 0.0
C1856 C 0.30912 0.06891 0.76832 0.0
C1857 C 0.32243 0.04931 0.7413 0.0
C1858 C 0.32157 0.05843 0.75499 0.0
C1859 C 0.31891 0.08546 0.79362 0.0
C1860 C 0.31981 0.07598 0.78056 0.0
H1861 H 0.34551 0.04856 0.71279 0.0
H1862 H 0.34466 0.06278 0.73671 0.0
H1863 H 0.30174 0.05531 0.74617 0.0
H1864 H 0.29522 0.08708 0.81999 0.0
H1865 H 0.29727 0.07088 0.80016 0.0
C1866 C 0.95078 0.29694 0.7263 0.0
C1867 C 0.96201 0.29857 0.71615 0.0
C1868 C 0.94488 0.28658 0.7389 0.0
C1869 C 0.9409 0.25264 0.75146 0.0
H1870 H 0.92707 0.26015 0.79396 0.0
C1871 C 0.91304 0.2112 0.80567 0.0
C1872 C 0.90052 0.20996 0.81171 0.0
C1873 C 0.92196 0.22226 0.79479 0.0
C1874 C 0.93086 0.25789 0.78214 0.0
H1875 H 0.97596 0.29062 0.71157 0.0
H1876 H 0.96571 0.27257 0.73379 0.0
H1877 H 0.94046 0.27924 0.77384 0.0
H1878 H 0.88746 0.21922 0.81051 0.0
H1879 H 0.90312 0.23856 0.79198 0.0
H1880 H 0.93115 0.2312 0.75984 0.0
C1881 C 0.96139 0.27925 0.73179 0.0
C1882 C 0.9385 0.26881 0.77058 0.0
C1883 C 0.9673 0.28965 0.71911 0.0
C1884 C 0.89716 0.22001 0.80653 0.0
C1885 C 0.90612 0.23109 0.79584 0.0
C1886 C 0.93331 0.2417 0.76311 0.0
C1887 C 0.95006 0.27757 0.7418 0.0
C1888 C 0.94332 0.26626 0.75489 0.0
C1889 C 0.91862 0.23237 0.78988 0.0
C1890 C 0.92794 0.24416 0.77837 0.0
H1891 H 0.94636 0.30355 0.72439 0.0
H1892 H 0.93601 0.28543 0.74612 0.0
H1893 H 0.94436 0.25027 0.73944 0.0
H1894 H 0.91604 0.20374 0.80953 0.0
H1895 H 0.93158 0.22303 0.79044 0.0
C1896 C 0.70127 0.65389 0.73018 0.0
C1897 C 0.70175 0.66388 0.7187 0.0
C1898 C 0.71175 0.65775 0.74242 0.0
C1899 C 0.74078 0.68767 0.76573 0.0
H1900 H 0.75434 0.66175 0.76909 0.0
C1901 C 0.79018 0.6994 0.80486 0.0
C1902 C 0.78946 0.68795 0.81351 0.0
C1903 C 0.77928 0.69735 0.79403 0.0
C1904 C 0.75057 0.66902 0.76851 0.0
H1905 H 0.71342 0.68597 0.71169 0.0
H1906 H 0.73184 0.69268 0.73314 0.0
H1907 H 0.73573 0.65667 0.74896 0.0
H1908 H 0.77642 0.66562 0.81857 0.0
H1909 H 0.7574 0.66206 0.79994 0.0
H1910 H 0.75574 0.70003 0.7854 0.0
C1911 C 0.72326 0.68186 0.73261 0.0
C1912 C 0.7399 0.66611 0.75694 0.0
C1913 C 0.71273 0.67799 0.72029 0.0
C1914 C 0.77739 0.67458 0.81177 0.0
C1915 C 0.76652 0.67255 0.80106 0.0
C1916 C 0.7515 0.69059 0.77741 0.0
C1917 C 0.72303 0.67169 0.74354 0.0
C1918 C 0.73475 0.67529 0.75555 0.0
C1919 C 0.76746 0.68382 0.79172 0.0
C1920 C 0.75639 0.68118 0.77907 0.0
H1921 H 0.69291 0.64297 0.72953 0.0
H1922 H 0.71111 0.64973 0.75092 0.0
H1923 H 0.737 0.69493 0.76497 0.0
H1924 H 0.79939 0.70982 0.80594 0.0
H1925 H 0.78035 0.70625 0.78697 0.0
C1926 C 0.6902 0.6432 0.62339 0.0
C1927 C 0.6958 0.65438 0.63544 0.0
C1928 C 0.69829 0.64306 0.60962 0.0
C1929 C 0.7325 0.6652 0.58685 0.0
H1930 H 0.72696 0.62861 0.57396 0.0
C1931 C 0.77338 0.65421 0.55534 0.0
C1932 C 0.76989 0.64824 0.53859 0.0
C1933 C 0.76362 0.65534 0.56553 0.0
C1934 C 0.72849 0.63886 0.57734 0.0
H1935 H 0.71412 0.67433 0.6424 0.0
H1936 H 0.72852 0.67379 0.61897 0.0
H1937 H 0.71131 0.63008 0.59485 0.0
H1938 H 0.75318 0.63868 0.51963 0.0
H1939 H 0.73591 0.63998 0.538 0.0
H1940 H 0.75035 0.67388 0.57007 0.0
C1941 C 0.71774 0.66532 0.61966 0.0
C1942 C 0.71948 0.63976 0.58922 0.0
C1943 C 0.70952 0.66562 0.6332 0.0
C1944 C 0.75623 0.64314 0.53251 0.0
C1945 C 0.74637 0.64399 0.54291 0.0
C1946 C 0.74169 0.66429 0.57527 0.0
C1947 C 0.71231 0.65391 0.60781 0.0
C1948 C 0.72141 0.65296 0.59427 0.0
C1949 C 0.75006 0.65022 0.5594 0.0
C1950 C 0.73977 0.65112 0.57053 0.0
H1951 H 0.67957 0.63448 0.62471 0.0
H1952 H 0.69355 0.6343 0.60053 0.0
H1953 H 0.73419 0.67553 0.59007 0.0
H1954 H 0.78361 0.6579 0.56074 0.0
H1955 H 0.76658 0.65999 0.57835 0.0
C1956 C 0.34749 0.0523 0.63334 0.0
C1957 C 0.33559 0.03891 0.63068 0.0
C1958 C 0.35138 0.06293 0.62115 0.0
C1959 C 0.33626 0.0723 0.58459 0.0
H1960 H 0.37466 0.10212 0.5776 0.0
C1961 C 0.35202 0.11379 0.53163 0.0
C1962 C 0.35957 0.12791 0.53746 0.0
C1963 C 0.3502 0.10287 0.54226 0.0
C1964 C 0.3639 0.09385 0.57948 0.0
H1965 H 0.31895 0.02587 0.61273 0.0
H1966 H 0.32608 0.04408 0.59113 0.0
H1967 H 0.36949 0.0828 0.59707 0.0
H1968 H 0.37157 0.14153 0.55895 0.0
H1969 H 0.36873 0.1224 0.57725 0.0
H1970 H 0.33076 0.08324 0.5667 0.0
C1971 C 0.3321 0.04666 0.60292 0.0
C1972 C 0.3609 0.08281 0.59069 0.0
C1973 C 0.32806 0.03615 0.61524 0.0
C1974 C 0.36582 0.13083 0.55392 0.0
C1975 C 0.36416 0.11988 0.56445 0.0
C1976 C 0.33929 0.08318 0.57319 0.0
C1977 C 0.3436 0.06032 0.60588 0.0
C1978 C 0.34701 0.07189 0.59347 0.0
C1979 C 0.35609 0.10579 0.55885 0.0
C1980 C 0.35311 0.09409 0.57059 0.0
H1981 H 0.35346 0.05476 0.64517 0.0
H1982 H 0.36019 0.07331 0.62405 0.0
H1983 H 0.32542 0.06437 0.58667 0.0
H1984 H 0.34737 0.11113 0.51889 0.0
H1985 H 0.34409 0.09209 0.53754 0.0
C1986 C 0.95973 0.29296 0.6279 0.0
C1987 C 0.96023 0.30556 0.63253 0.0
C1988 C 0.95144 0.28472 0.61401 0.0
C1989 C 0.92024 0.27836 0.59031 0.0
H1990 H 0.92945 0.25713 0.55813 0.0
C1991 C 0.88392 0.24742 0.53392 0.0
C1992 C 0.88111 0.23361 0.53116 0.0
C1993 C 0.89473 0.25669 0.54488 0.0
C1994 C 0.92672 0.26294 0.56711 0.0
H1995 H 0.9534 0.31999 0.62538 0.0
H1996 H 0.93931 0.30587 0.60107 0.0
H1997 H 0.94663 0.27258 0.57975 0.0
H1998 H 0.88765 0.21879 0.53746 0.0
H1999 H 0.90652 0.235 0.55667 0.0
H2000 H 0.90036 0.26872 0.57793 0.0
C2001 C 0.94489 0.30207 0.60846 0.0
C2002 C 0.93654 0.27177 0.57948 0.0
C2003 C 0.95302 0.31019 0.62236 0.0
C2004 C 0.88963 0.22941 0.5392 0.0
C2005 C 0.90046 0.2387 0.55019 0.0
C2006 C 0.91048 0.26961 0.57799 0.0
C2007 C 0.94362 0.28902 0.60446 0.0
C2008 C 0.93341 0.27963 0.59117 0.0
C2009 C 0.90297 0.25236 0.55337 0.0
C2010 C 0.9136 0.26182 0.56621 0.0
H2011 H 0.96519 0.28914 0.6355 0.0
H2012 H 0.95066 0.2747 0.61126 0.0
H2013 H 0.91734 0.28398 0.5994 0.0
H2014 H 0.87771 0.25105 0.52765 0.0
H2015 H 0.89658 0.26724 0.54682 0.0
C2016 C 0.36065 0.30913 0.63184 0.0
C2017 C 0.34794 0.30633 0.63926 0.0
C2018 C 0.3608 0.3011 0.61784 0.0
C2019 C 0.34042 0.266 0.59873 0.0
H2020 H 0.36513 0.28243 0.55944 0.0
C2021 C 0.34185 0.23116 0.54368 0.0
C2022 C 0.355 0.23489 0.53684 0.0
C2023 C 0.34031 0.24037 0.55475 0.0
C2024 C 0.35827 0.27766 0.5704 0.0
H2025 H 0.3254 0.29308 0.63746 0.0
H2026 H 0.32571 0.27893 0.6131 0.0
H2027 H 0.36366 0.29778 0.58129 0.0
H2028 H 0.3768 0.25149 0.53598 0.0
H2029 H 0.37423 0.26728 0.55586 0.0
H2030 H 0.33538 0.24592 0.58834 0.0
C2031 C 0.33554 0.28737 0.61818 0.0
C2032 C 0.35739 0.28647 0.58286 0.0
C2033 C 0.33537 0.29552 0.63207 0.0
C2034 C 0.36654 0.24816 0.54119 0.0
C2035 C 0.36503 0.25733 0.5524 0.0
C2036 C 0.3414 0.2572 0.58639 0.0
C2037 C 0.34826 0.28999 0.61105 0.0
C2038 C 0.34853 0.28072 0.59721 0.0
C2039 C 0.35191 0.25349 0.55945 0.0
C2040 C 0.35041 0.26291 0.57212 0.0
H2041 H 0.37052 0.31743 0.63698 0.0
H2042 H 0.37076 0.30328 0.61269 0.0
H2043 H 0.33366 0.26128 0.6098 0.0
H2044 H 0.33273 0.22097 0.54082 0.0
H2045 H 0.33 0.23714 0.5597 0.0
C2046 C 0.70485 0.05127 0.6312 0.0
C2047 C 0.70412 0.03836 0.62791 0.0
C2048 C 0.71113 0.06219 0.61927 0.0
C2049 C 0.72119 0.07038 0.5739 0.0
H2050 H 0.75187 0.10574 0.59147 0.0
C2051 C 0.76185 0.11287 0.52867 0.0
C2052 C 0.76842 0.12716 0.53371 0.0
C2053 C 0.75262 0.10227 0.53979 0.0
C2054 C 0.74315 0.09609 0.58632 0.0
H2055 H 0.70878 0.02654 0.60918 0.0
H2056 H 0.71947 0.04554 0.58819 0.0
H2057 H 0.73774 0.08678 0.61139 0.0
H2058 H 0.77 0.14139 0.55442 0.0
H2059 H 0.75336 0.12302 0.57331 0.0
H2060 H 0.7264 0.07965 0.54887 0.0
C2061 C 0.7153 0.04723 0.60007 0.0
C2062 C 0.7351 0.0852 0.59778 0.0
C2063 C 0.70926 0.0364 0.61213 0.0
C2064 C 0.76509 0.13055 0.54995 0.0
C2065 C 0.75568 0.11995 0.56096 0.0
C2066 C 0.72909 0.08136 0.56245 0.0
C2067 C 0.71653 0.06031 0.60368 0.0
C2068 C 0.72419 0.07218 0.59164 0.0
C2069 C 0.7495 0.10564 0.55617 0.0
C2070 C 0.74035 0.09429 0.56846 0.0
H2071 H 0.70101 0.05312 0.64326 0.0
H2072 H 0.7119 0.07218 0.62229 0.0
H2073 H 0.71274 0.06046 0.56889 0.0
H2074 H 0.7639 0.10982 0.51614 0.0
H2075 H 0.74823 0.0914 0.53565 0.0
C2076 C 0.96772 0.67303 0.61225 0.0
C2077 C 0.9644 0.66641 0.62836 0.0
C2078 C 0.95755 0.66869 0.59941 0.0
C2079 C 0.9207 0.64064 0.58818 0.0
H2080 H 0.92291 0.67036 0.55982 0.0
C2081 C 0.87433 0.6397 0.55331 0.0
C2082 C 0.87634 0.64325 0.53576 0.0
C2083 C 0.88527 0.64074 0.56316 0.0
C2084 C 0.92226 0.66193 0.56752 0.0
H2085 H 0.94791 0.64991 0.64362 0.0
H2086 H 0.92997 0.64283 0.62169 0.0
H2087 H 0.9417 0.67571 0.57983 0.0
H2088 H 0.89112 0.65049 0.51461 0.0
H2089 H 0.9105 0.65281 0.53207 0.0
H2090 H 0.90068 0.62716 0.57647 0.0
C2091 C 0.94051 0.65102 0.61857 0.0
C2092 C 0.93308 0.66494 0.57896 0.0
C2093 C 0.95079 0.65513 0.63125 0.0
C2094 C 0.88935 0.64762 0.52811 0.0
C2095 C 0.90039 0.64898 0.53806 0.0
C2096 C 0.90972 0.63772 0.57701 0.0
C2097 C 0.94368 0.65789 0.60253 0.0
C2098 C 0.93246 0.65437 0.58956 0.0
C2099 C 0.89846 0.64568 0.5557 0.0
C2100 C 0.9104 0.64837 0.56665 0.0
H2101 H 0.97819 0.68164 0.60962 0.0
H2102 H 0.96058 0.67398 0.5871 0.0
H2103 H 0.9199 0.63212 0.5958 0.0
H2104 H 0.86436 0.63631 0.55944 0.0
H2105 H 0.88358 0.63825 0.57678 0.0
C2106 C 0.96963 0.69294 0.71698 0.0
C2107 C 0.96806 0.68012 0.71098 0.0
C2108 C 0.96181 0.69324 0.73096 0.0
C2109 C 0.92912 0.67108 0.75435 0.0
H2110 H 0.94561 0.70139 0.78843 0.0
C2111 C 0.8969 0.67414 0.81096 0.0
C2112 C 0.89858 0.68746 0.81435 0.0
C2113 C 0.90614 0.67276 0.79998 0.0
C2114 C 0.94083 0.69291 0.77895 0.0
H2115 H 0.95709 0.65754 0.71524 0.0
H2116 H 0.94342 0.6581 0.73971 0.0
H2117 H 0.96031 0.6997 0.76618 0.0
H2118 H 0.91143 0.70981 0.80916 0.0
H2119 H 0.92752 0.7074 0.78994 0.0
H2120 H 0.9096 0.66445 0.76686 0.0
C2121 C 0.95067 0.66791 0.73345 0.0
C2122 C 0.94926 0.69193 0.76622 0.0
C2123 C 0.95855 0.6676 0.71947 0.0
C2124 C 0.90995 0.69942 0.80695 0.0
C2125 C 0.91917 0.69804 0.79594 0.0
C2126 C 0.92069 0.67207 0.76706 0.0
C2127 C 0.95219 0.68073 0.7393 0.0
C2128 C 0.94346 0.68112 0.75364 0.0
C2129 C 0.91725 0.68466 0.79213 0.0
C2130 C 0.92642 0.68309 0.77939 0.0
H2131 H 0.97685 0.7028 0.71081 0.0
H2132 H 0.96309 0.70327 0.73498 0.0
H2133 H 0.9243 0.66274 0.74471 0.0
H2134 H 0.88838 0.66476 0.81671 0.0
H2135 H 0.90451 0.66234 0.79756 0.0
C2136 C 0.3387 0.2997 0.73629 0.0
C2137 C 0.33184 0.29807 0.72053 0.0
C2138 C 0.33353 0.28861 0.74798 0.0
C2139 C 0.3151 0.25069 0.74905 0.0
H2140 H 0.31163 0.25531 0.79824 0.0
C2141 C 0.30134 0.20529 0.79599 0.0
C2142 C 0.30837 0.20895 0.81194 0.0
C2143 C 0.30192 0.21566 0.78528 0.0
C2144 C 0.31269 0.25385 0.78457 0.0
H2145 H 0.314 0.28367 0.70483 0.0
H2146 H 0.30517 0.26413 0.72516 0.0
H2147 H 0.31697 0.27463 0.7788 0.0
H2148 H 0.32102 0.22647 0.82939 0.0
H2149 H 0.32271 0.24452 0.81042 0.0
H2150 H 0.31168 0.2303 0.75471 0.0
C2151 C 0.31447 0.27406 0.72846 0.0
C2152 C 0.31564 0.2649 0.77345 0.0
C2153 C 0.31949 0.28525 0.7169 0.0
C2154 C 0.31571 0.22324 0.81706 0.0
C2155 C 0.31647 0.23362 0.80626 0.0
C2156 C 0.3124 0.23972 0.76018 0.0
C2157 C 0.32154 0.27561 0.74402 0.0
C2158 C 0.31704 0.26348 0.75562 0.0
C2159 C 0.3097 0.23001 0.79013 0.0
C2160 C 0.31136 0.24122 0.77814 0.0
H2161 H 0.3482 0.30948 0.73948 0.0
H2162 H 0.33923 0.29004 0.75984 0.0
H2163 H 0.3163 0.24939 0.73535 0.0
H2164 H 0.29566 0.19443 0.79151 0.0
H2165 H 0.29635 0.21241 0.77312 0.0
C2166 C 0.71248 0.04201 0.7164 0.0
C2167 C 0.71304 0.03063 0.70894 0.0
C2168 C 0.72142 0.04987 0.73 0.0
C2169 C 0.75499 0.05813 0.74954 0.0
H2170 H 0.74372 0.07396 0.78686 0.0
C2171 C 0.79101 0.08741 0.80732 0.0
C2172 C 0.79239 0.10043 0.81194 0.0
C2173 C 0.7806 0.07823 0.79582 0.0
C2174 C 0.74702 0.06965 0.77646 0.0
H2175 H 0.72296 0.01817 0.7105 0.0
H2176 H 0.73822 0.03158 0.7344 0.0
H2177 H 0.72671 0.05898 0.76493 0.0
H2178 H 0.78377 0.1139 0.80816 0.0
H2179 H 0.76551 0.09777 0.78828 0.0
H2180 H 0.77527 0.06875 0.76109 0.0
C2181 C 0.7312 0.03474 0.72944 0.0
C2182 C 0.7373 0.06111 0.76387 0.0
C2183 C 0.72238 0.02699 0.71578 0.0
C2184 C 0.78289 0.10387 0.80511 0.0
C2185 C 0.77243 0.09465 0.79369 0.0
C2186 C 0.76466 0.06657 0.76218 0.0
C2187 C 0.73102 0.04643 0.73653 0.0
C2188 C 0.74118 0.05527 0.75022 0.0
C2189 C 0.77129 0.08181 0.78876 0.0
C2190 C 0.7608 0.07246 0.77573 0.0
H2191 H 0.70543 0.04512 0.71142 0.0
H2192 H 0.72108 0.05889 0.73503 0.0
H2193 H 0.75846 0.05409 0.73903 0.0
H2194 H 0.79798 0.08431 0.81259 0.0
H2195 H 0.77984 0.06831 0.79245 0.0
C2196 C 0.0475 0.35243 0.03057 0.0
C2197 C 0.03339 0.34484 0.03548 0.0
C2198 C 0.05738 0.3506 0.03935 0.0
C2199 C 0.05936 0.32481 0.06763 0.0
H2200 H 0.09724 0.35535 0.07609 0.0
C2201 C 0.09682 0.31963 0.11351 0.0
C2202 C 0.11046 0.32453 0.10747 0.0
C2203 C 0.08775 0.32239 0.10442 0.0
C2204 C 0.08672 0.34671 0.07368 0.0
H2205 H 0.01867 0.32999 0.05396 0.0
H2206 H 0.03584 0.32718 0.06955 0.0
H2207 H 0.08088 0.36008 0.06116 0.0
H2208 H 0.12513 0.3361 0.0869 0.0
H2209 H 0.10934 0.34119 0.0713 0.0
H2210 H 0.06514 0.31152 0.08045 0.0
C2211 C 0.03929 0.33416 0.05859 0.0
C2212 C 0.07735 0.3494 0.0651 0.0
C2213 C 0.02945 0.33587 0.04973 0.0
C2214 C 0.1148 0.33235 0.09213 0.0
C2215 C 0.10576 0.33525 0.08314 0.0
C2216 C 0.06867 0.32217 0.07634 0.0
C2217 C 0.05333 0.34124 0.0533 0.0
C2218 C 0.06351 0.33849 0.06208 0.0
C2219 C 0.09213 0.33025 0.08916 0.0
C2220 C 0.08241 0.33309 0.07954 0.0
H2221 H 0.05083 0.35939 0.01959 0.0
H2222 H 0.06808 0.35617 0.03485 0.0
H2223 H 0.04892 0.31606 0.06515 0.0
H2224 H 0.09319 0.31383 0.12544 0.0
H2225 H 0.07734 0.31855 0.10947 0.0
C2226 C 0.67778 0.69185 0.0523 0.0
C2227 C 0.6681 0.68761 0.03872 0.0
C2228 C 0.68146 0.70412 0.06188 0.0
C2229 C 0.68382 0.73804 0.05779 0.0
H2230 H 0.68149 0.73861 0.10777 0.0
C2231 C 0.68335 0.78324 0.09417 0.0
C2232 C 0.6899 0.78762 0.11036 0.0
C2233 C 0.68212 0.7714 0.0858 0.0
C2234 C 0.68246 0.73871 0.09384 0.0
H2235 H 0.65448 0.69266 0.02474 0.0
H2236 H 0.66106 0.7141 0.04128 0.0
H2237 H 0.67665 0.71694 0.09271 0.0
H2238 H 0.70042 0.78301 0.13039 0.0
H2239 H 0.69866 0.76254 0.11548 0.0
H2240 H 0.68969 0.75972 0.05873 0.0
C2241 C 0.66581 0.70799 0.04448 0.0
C2242 C 0.67964 0.72629 0.08525 0.0
C2243 C 0.662 0.69568 0.0351 0.0
C2244 C 0.69542 0.77999 0.11786 0.0
C2245 C 0.69426 0.76816 0.10941 0.0
C2246 C 0.68679 0.75047 0.06634 0.0
C2247 C 0.67567 0.7124 0.05782 0.0
C2248 C 0.67999 0.72579 0.06713 0.0
C2249 C 0.68754 0.76369 0.0933 0.0
C2250 C 0.68581 0.75087 0.08444 0.0
H2251 H 0.68261 0.68579 0.05538 0.0
H2252 H 0.68909 0.70734 0.07213 0.0
H2253 H 0.68439 0.73796 0.04381 0.0
H2254 H 0.67916 0.78898 0.08791 0.0
H2255 H 0.67668 0.76815 0.07355 0.0
C2256 C 0.306 0.98457 0.04581 0.0
C2257 C 0.31324 0.97975 0.03569 0.0
C2258 C 0.29425 0.97509 0.05527 0.0
C2259 C 0.26791 0.93671 0.05839 0.0
H2260 H 0.25869 0.94847 0.10146 0.0
C2261 C 0.22454 0.89879 0.10544 0.0
C2262 C 0.21449 0.90248 0.10955 0.0
C2263 C 0.23677 0.90816 0.09667 0.0
C2264 C 0.26116 0.9451 0.08941 0.0
H2265 H 0.31423 0.96137 0.02795 0.0
H2266 H 0.29417 0.94489 0.04512 0.0
H2267 H 0.28013 0.9648 0.08627 0.0
H2268 H 0.2096 0.91908 0.10745 0.0
H2269 H 0.23128 0.93562 0.09286 0.0
H2270 H 0.24908 0.9168 0.06203 0.0
C2271 C 0.29717 0.95589 0.04529 0.0
C2272 C 0.27338 0.95446 0.08062 0.0
C2273 C 0.30875 0.96534 0.03553 0.0
C2274 C 0.21715 0.91591 0.10485 0.0
C2275 C 0.22952 0.92538 0.09639 0.0
C2276 C 0.25584 0.92727 0.06738 0.0
C2277 C 0.28964 0.9606 0.05513 0.0
C2278 C 0.27688 0.95045 0.06489 0.0
C2279 C 0.23937 0.92154 0.09214 0.0
C2280 C 0.25231 0.93143 0.08287 0.0
H2281 H 0.30918 0.99563 0.04605 0.0
H2282 H 0.28863 0.97914 0.06237 0.0
H2283 H 0.27002 0.93328 0.04617 0.0
H2284 H 0.22308 0.88871 0.10916 0.0
H2285 H 0.2443 0.90504 0.09365 0.0
C2286 C 0.35595 0.04783 0.98704 0.0
C2287 C 0.34419 0.03417 0.98808 0.0
C2288 C 0.35491 0.05865 0.97927 0.0
C2289 C 0.32972 0.06938 0.96959 0.0
H2290 H 0.35333 0.08965 0.93072 0.0
C2291 C 0.3151 0.09996 0.92341 0.0
C2292 C 0.32576 0.11249 0.91608 0.0
C2293 C 0.31831 0.09146 0.93317 0.0
C2294 C 0.3468 0.0843 0.94176 0.0
H2295 H 0.32213 0.02119 0.98205 0.0
H2296 H 0.32031 0.04002 0.96893 0.0
H2297 H 0.35769 0.07337 0.94665 0.0
H2298 H 0.34822 0.12578 0.91321 0.0
H2299 H 0.35381 0.1113 0.93082 0.0
H2300 H 0.31885 0.08024 0.96494 0.0
C2301 C 0.33032 0.04238 0.97398 0.0
C2302 C 0.34932 0.07497 0.95084 0.0
C2303 C 0.33141 0.03158 0.9814 0.0
C2304 C 0.33972 0.11632 0.91885 0.0
C2305 C 0.34294 0.10789 0.92876 0.0
C2306 C 0.32732 0.07882 0.96068 0.0
C2307 C 0.34203 0.056 0.97281 0.0
C2308 C 0.3406 0.0672 0.96459 0.0
C2309 C 0.33227 0.09533 0.93605 0.0
C2310 C 0.33561 0.08617 0.94639 0.0
H2311 H 0.36593 0.05011 0.99207 0.0
H2312 H 0.36409 0.0691 0.9785 0.0
H2313 H 0.32295 0.06361 0.98028 0.0
H2314 H 0.30423 0.09674 0.92177 0.0
H2315 H 0.30979 0.08175 0.93829 0.0
C2316 C 0.98711 0.30901 0.96812 0.0
C2317 C 0.98224 0.3131 0.98253 0.0
C2318 C 0.97788 0.29719 0.95818 0.0
C2319 C 0.93992 0.27301 0.94982 0.0
H2320 H 0.95172 0.24776 0.93205 0.0
C2321 C 0.90103 0.21667 0.92627 0.0
C2322 C 0.90355 0.21282 0.90984 0.0
C2323 C 0.91112 0.22908 0.93441 0.0
C2324 C 0.94835 0.25479 0.93684 0.0
H2325 H 0.96398 0.30805 0.99793 0.0
H2326 H 0.94805 0.28729 0.98107 0.0
H2327 H 0.96843 0.26933 0.94748 0.0
H2328 H 0.91888 0.21899 0.88927 0.0
H2329 H 0.93667 0.24048 0.90383 0.0
H2330 H 0.91972 0.2582 0.93966 0.0
C2331 C 0.95886 0.29334 0.97704 0.0
C2332 C 0.95791 0.26718 0.9456 0.0
C2333 C 0.96802 0.30521 0.98681 0.0
C2334 C 0.91662 0.2215 0.90201 0.0
C2335 C 0.9268 0.23384 0.91028 0.0
C2336 C 0.93035 0.26056 0.94129 0.0
C2337 C 0.96364 0.28917 0.96257 0.0
C2338 C 0.95377 0.27638 0.95237 0.0
C2339 C 0.92404 0.23784 0.92643 0.0
C2340 C 0.93443 0.25128 0.93486 0.0
H2341 H 0.99802 0.31495 0.96448 0.0
H2342 H 0.98191 0.29441 0.947 0.0
H2343 H 0.93642 0.27999 0.95444 0.0
H2344 H 0.89124 0.2101 0.9329 0.0
H2345 H 0.90883 0.23183 0.947 0.0
C2346 C 0.69469 0.67013 0.97251 0.0
C2347 C 0.68694 0.65814 0.98273 0.0
C2348 C 0.70628 0.67207 0.96324 0.0
C2349 C 0.7325 0.66121 0.96193 0.0
H2350 H 0.74093 0.67911 0.91715 0.0
C2351 C 0.77798 0.66819 0.91821 0.0
C2352 C 0.78615 0.68145 0.91055 0.0
C2353 C 0.76579 0.66491 0.92718 0.0
C2354 C 0.73876 0.67421 0.92971 0.0
H2355 H 0.68511 0.63859 0.99096 0.0
H2356 H 0.70531 0.64184 0.97439 0.0
H2357 H 0.71925 0.67337 0.93173 0.0
H2358 H 0.78805 0.70171 0.90636 0.0
H2359 H 0.76667 0.69596 0.92201 0.0
H2360 H 0.75202 0.66196 0.95971 0.0
C2361 C 0.70251 0.64987 0.97382 0.0
C2362 C 0.72635 0.67091 0.93808 0.0
C2363 C 0.69089 0.64795 0.9832 0.0
C2364 C 0.78198 0.69144 0.91221 0.0
C2365 C 0.7697 0.6881 0.92102 0.0
C2366 C 0.74488 0.6644 0.95346 0.0
C2367 C 0.71041 0.66202 0.96383 0.0
C2368 C 0.72314 0.66454 0.9544 0.0
C2369 C 0.76145 0.67477 0.9285 0.0
C2370 C 0.7482 0.67108 0.93736 0.0
H2371 H 0.69198 0.67823 0.97192 0.0
H2372 H 0.71223 0.68167 0.95596 0.0
H2373 H 0.73046 0.65649 0.97458 0.0
H2374 H 0.78103 0.66035 0.91726 0.0
H2375 H 0.7596 0.65454 0.93274 0.0
C2376 C 0.97432 0.6735 0.97535 0.0
C2377 C 0.97022 0.66127 0.98493 0.0
C2378 C 0.96442 0.67542 0.96697 0.0
C2379 C 0.92914 0.65703 0.94903 0.0
H2380 H 0.93237 0.69358 0.95419 0.0
C2381 C 0.88849 0.66859 0.92011 0.0
C2382 C 0.89359 0.68188 0.91268 0.0
C2383 C 0.89731 0.66573 0.92966 0.0
C2384 C 0.9314 0.68337 0.95243 0.0
H2385 H 0.95253 0.64127 0.99287 0.0
H2386 H 0.93514 0.64459 0.97795 0.0
H2387 H 0.94868 0.68895 0.96918 0.0
H2388 H 0.91193 0.70258 0.90928 0.0
H2389 H 0.92741 0.69756 0.92566 0.0
H2390 H 0.91207 0.65154 0.93194 0.0
C2391 C 0.94607 0.65269 0.97703 0.0
C2392 C 0.94072 0.68071 0.96108 0.0
C2393 C 0.956 0.65081 0.98559 0.0
C2394 C 0.90767 0.69229 0.91505 0.0
C2395 C 0.91652 0.68941 0.92448 0.0
C2396 C 0.91986 0.65973 0.94024 0.0
C2397 C 0.95019 0.66512 0.96785 0.0
C2398 C 0.93978 0.66757 0.95934 0.0
C2399 C 0.91146 0.67608 0.93189 0.0
C2400 C 0.92096 0.67298 0.94172 0.0
H2401 H 0.98519 0.68175 0.97453 0.0
H2402 H 0.96793 0.685 0.95976 0.0
H2403 H 0.92825 0.64685 0.94734 0.0
H2404 H 0.87762 0.66042 0.91869 0.0
H2405 H 0.89299 0.65545 0.93542 0.0
C2406 C 0.34566 0.31387 0.9747 0.0
C2407 C 0.33546 0.31737 0.97842 0.0
C2408 C 0.34264 0.30257 0.96363 0.0
C2409 C 0.31455 0.26854 0.95053 0.0
H2410 H 0.33847 0.27156 0.9122 0.0
C2411 C 0.30386 0.21958 0.91025 0.0
C2412 C 0.31554 0.21884 0.90486 0.0
C2413 C 0.30551 0.23205 0.9174 0.0
C2414 C 0.33176 0.27047 0.92299 0.0
H2415 H 0.3142 0.31197 0.97338 0.0
H2416 H 0.30878 0.29184 0.95438 0.0
H2417 H 0.34305 0.29275 0.92809 0.0
H2418 H 0.33812 0.23089 0.90239 0.0
H2419 H 0.34104 0.25217 0.91577 0.0
H2420 H 0.30371 0.24626 0.94625 0.0
C2421 C 0.31913 0.29799 0.95989 0.0
C2422 C 0.33435 0.28264 0.93196 0.0
C2423 C 0.32225 0.3095 0.97068 0.0
C2424 C 0.32888 0.23092 0.9067 0.0
C2425 C 0.33055 0.24328 0.91409 0.0
C2426 C 0.31211 0.25633 0.94178 0.0
C2427 C 0.32929 0.2944 0.95637 0.0
C2428 C 0.32585 0.28174 0.94591 0.0
C2429 C 0.3189 0.24403 0.91957 0.0
C2430 C 0.32081 0.25711 0.92803 0.0
H2431 H 0.35594 0.31979 0.98046 0.0
H2432 H 0.3506 0.29992 0.96118 0.0
H2433 H 0.30794 0.2676 0.96138 0.0
H2434 H 0.29343 0.21048 0.9092 0.0
H2435 H 0.29627 0.23225 0.92123 0.0
C2436 C 0.69481 0.01844 0.97067 0.0
C2437 C 0.69112 0.02341 0.98539 0.0
C2438 C 0.70675 0.02753 0.96117 0.0
C2439 C 0.74076 0.05989 0.96557 0.0
H2440 H 0.73952 0.06202 0.91572 0.0
C2441 C 0.78658 0.10375 0.9274 0.0
C2442 C 0.78961 0.10058 0.91086 0.0
C2443 C 0.77466 0.09392 0.9363 0.0
C2444 C 0.74013 0.0614 0.9296 0.0
H2445 H 0.69694 0.04177 0.00165 0.0
H2446 H 0.71787 0.05756 0.98519 0.0
H2447 H 0.71845 0.04553 0.93146 0.0
H2448 H 0.7824 0.08443 0.89079 0.0
H2449 H 0.76194 0.06706 0.90661 0.0
H2450 H 0.76242 0.07551 0.96383 0.0
C2451 C 0.71154 0.04665 0.98102 0.0
C2452 C 0.72803 0.05199 0.93861 0.0
C2453 C 0.69953 0.03763 0.99037 0.0
C2454 C 0.7805 0.08721 0.90357 0.0
C2455 C 0.76863 0.0773 0.91256 0.0
C2456 C 0.75289 0.06917 0.95657 0.0
C2457 C 0.7153 0.04169 0.96636 0.0
C2458 C 0.7282 0.05126 0.95669 0.0
C2459 C 0.76551 0.08056 0.92901 0.0
C2460 C 0.75271 0.07018 0.93848 0.0
H2461 H 0.6885 0.00754 0.96652 0.0
H2462 H 0.70945 0.02342 0.94997 0.0
H2463 H 0.74123 0.05938 0.97949 0.0
H2464 H 0.79345 0.11386 0.93356 0.0
H2465 H 0.77254 0.09691 0.94882 0.0
C2466 C 0.66491 0.9737 0.05071 0.0
C2467 C 0.65694 0.97049 0.03556 0.0
C2468 C 0.66575 0.96321 0.05943 0.0
C2469 C 0.66419 0.92984 0.05227 0.0
H2470 H 0.66214 0.92767 0.10226 0.0
C2471 C 0.67106 0.88875 0.08966 0.0
C2472 C 0.67836 0.89313 0.10542 0.0
C2473 C 0.66734 0.89738 0.08105 0.0
C2474 C 0.66291 0.92823 0.08831 0.0
H2475 H 0.64341 0.95372 0.01778 0.0
H2476 H 0.64508 0.93528 0.03296 0.0
H2477 H 0.65707 0.94389 0.08758 0.0
H2478 H 0.68746 0.91014 0.12442 0.0
H2479 H 0.6815 0.92538 0.10912 0.0
H2480 H 0.67052 0.91457 0.05296 0.0
C2481 C 0.65061 0.94597 0.03808 0.0
C2482 C 0.65991 0.93746 0.07991 0.0
C2483 C 0.64958 0.95647 0.02947 0.0
C2484 C 0.68199 0.90645 0.11223 0.0
C2485 C 0.67836 0.91512 0.10356 0.0
C2486 C 0.66733 0.92068 0.06069 0.0
C2487 C 0.6588 0.94927 0.05308 0.0
C2488 C 0.66068 0.93849 0.06182 0.0
C2489 C 0.67089 0.91066 0.08792 0.0
C2490 C 0.66691 0.91989 0.07884 0.0
H2491 H 0.67067 0.9844 0.05575 0.0
H2492 H 0.67225 0.96611 0.07085 0.0
H2493 H 0.66502 0.93054 0.03832 0.0
H2494 H 0.66825 0.87864 0.08389 0.0
H2495 H 0.6615 0.89352 0.06912 0.0
C2496 C 0.01555 0.69829 0.04762 0.0
C2497 C 0.02022 0.6901 0.03926 0.0
C2498 C 0.02484 0.71029 0.05719 0.0
C2499 C 0.06298 0.73546 0.06238 0.0
H2500 H 0.05122 0.74817 0.10251 0.0
C2501 C 0.10133 0.77968 0.10846 0.0
C2502 C 0.09893 0.7909 0.11101 0.0
C2503 C 0.0914 0.76723 0.10023 0.0
C2504 C 0.05458 0.74473 0.09127 0.0
H2505 H 0.03799 0.68753 0.03504 0.0
H2506 H 0.05402 0.70796 0.0524 0.0
H2507 H 0.03448 0.72623 0.08778 0.0
H2508 H 0.08398 0.79762 0.10699 0.0
H2509 H 0.06641 0.77558 0.09321 0.0
H2510 H 0.0832 0.75377 0.06632 0.0
C2511 C 0.04338 0.70557 0.05104 0.0
C2512 C 0.04501 0.73221 0.08276 0.0
C2513 C 0.03416 0.69377 0.04119 0.0
C2514 C 0.08615 0.78917 0.10549 0.0
C2515 C 0.0761 0.77659 0.09753 0.0
C2516 C 0.07257 0.7478 0.07107 0.0
C2517 C 0.03893 0.71419 0.05885 0.0
C2518 C 0.04908 0.72741 0.06818 0.0
C2519 C 0.07873 0.7656 0.09468 0.0
C2520 C 0.06845 0.75255 0.08555 0.0
H2521 H 0.00484 0.69571 0.04625 0.0
H2522 H 0.02104 0.71672 0.06281 0.0
H2523 H 0.06646 0.73236 0.05095 0.0
H2524 H 0.11086 0.78042 0.11292 0.0
H2525 H 0.09358 0.75881 0.09833 0.0
C2526 C 0.3081 0.3319 0.04703 0.0
C2527 C 0.31666 0.3446 0.03836 0.0
C2528 C 0.29654 0.32994 0.05643 0.0
C2529 C 0.2813 0.34819 0.07882 0.0
H2530 H 0.24622 0.31346 0.07021 0.0
C2531 C 0.2292 0.33802 0.10822 0.0
C2532 C 0.21955 0.32424 0.11345 0.0
C2533 C 0.24119 0.34086 0.09907 0.0
C2534 C 0.25595 0.32312 0.07298 0.0
H2535 H 0.3201 0.36538 0.03317 0.0
H2536 H 0.29989 0.36199 0.0499 0.0
H2537 H 0.2671 0.31793 0.05461 0.0
H2538 H 0.21497 0.30267 0.11362 0.0
H2539 H 0.23606 0.30764 0.09806 0.0
H2540 H 0.27026 0.35327 0.09748 0.0
C2541 C 0.30215 0.35356 0.0493 0.0
C2542 C 0.2679 0.3257 0.06397 0.0
C2543 C 0.31367 0.35547 0.03971 0.0
C2544 C 0.22217 0.31337 0.10954 0.0
C2545 C 0.23423 0.31622 0.10056 0.0
C2546 C 0.26937 0.34555 0.08799 0.0
C2547 C 0.29336 0.34068 0.05752 0.0
C2548 C 0.28069 0.33822 0.06685 0.0
C2549 C 0.24385 0.32999 0.0951 0.0
C2550 C 0.25655 0.33295 0.08523 0.0
H2551 H 0.31013 0.32331 0.04627 0.0
H2552 H 0.29003 0.31997 0.06282 0.0
H2553 H 0.29107 0.35788 0.08137 0.0
H2554 H 0.22733 0.34657 0.1109 0.0
H2555 H 0.24824 0.35154 0.09484 0.0
C2556 C 0.69412 0.67221 0.38549 0.0
C2557 C 0.69814 0.68015 0.37029 0.0
C2558 C 0.70371 0.67019 0.39459 0.0
C2559 C 0.73347 0.66633 0.38835 0.0
H2560 H 0.74141 0.67576 0.43696 0.0
C2561 C 0.77526 0.6599 0.42366 0.0
C2562 C 0.77336 0.65664 0.44128 0.0
C2563 C 0.76622 0.663 0.41501 0.0
C2564 C 0.73915 0.67279 0.42347 0.0
H2565 H 0.71533 0.69231 0.35274 0.0
H2566 H 0.73202 0.68838 0.36843 0.0
H2567 H 0.72538 0.68094 0.42216 0.0
H2568 H 0.76038 0.65359 0.46362 0.0
H2569 H 0.74412 0.65821 0.44844 0.0
H2570 H 0.74659 0.65755 0.38963 0.0
C2571 C 0.72149 0.68391 0.37336 0.0
C2572 C 0.73005 0.6759 0.41499 0.0
C2573 C 0.71198 0.68621 0.36448 0.0
C2574 C 0.7621 0.6562 0.45003 0.0
C2575 C 0.75288 0.65899 0.44133 0.0
C2576 C 0.74232 0.66292 0.3969 0.0
C2577 C 0.71739 0.6758 0.38842 0.0
C2578 C 0.72719 0.67275 0.39736 0.0
C2579 C 0.7549 0.66263 0.42373 0.0
C2580 C 0.74534 0.66614 0.41459 0.0
H2581 H 0.68351 0.66742 0.39025 0.0
H2582 H 0.70032 0.66386 0.40615 0.0
H2583 H 0.73126 0.66364 0.37477 0.0
H2584 H 0.78398 0.66043 0.4167 0.0
H2585 H 0.76834 0.66599 0.40159 0.0
C2586 C 0.32923 0.02963 0.37052 0.0
C2587 C 0.33495 0.02132 0.37479 0.0
C2588 C 0.33335 0.04225 0.37934 0.0
C2589 C 0.34695 0.06108 0.41983 0.0
H2590 H 0.35732 0.09415 0.39242 0.0
C2591 C 0.36239 0.11514 0.45114 0.0
C2592 C 0.35718 0.12285 0.44311 0.0
C2593 C 0.36125 0.10318 0.44306 0.0
C2594 C 0.35433 0.085 0.40028 0.0
H2595 H 0.34918 0.0195 0.39194 0.0
H2596 H 0.35619 0.04161 0.40774 0.0
H2597 H 0.35217 0.07221 0.37813 0.0
H2598 H 0.34697 0.12415 0.42008 0.0
H2599 H 0.34449 0.10309 0.40637 0.0
H2600 H 0.34852 0.07367 0.44195 0.0
C2601 C 0.34863 0.03832 0.39741 0.0
C2602 C 0.35146 0.07247 0.39209 0.0
C2603 C 0.34465 0.02573 0.38836 0.0
C2604 C 0.35092 0.11837 0.42676 0.0
C2605 C 0.3497 0.10639 0.41876 0.0
C2606 C 0.34967 0.0736 0.42805 0.0
C2607 C 0.34313 0.04677 0.39278 0.0
C2608 C 0.34751 0.06033 0.40175 0.0
C2609 C 0.35483 0.09862 0.4268 0.0
C2610 C 0.35313 0.08565 0.41833 0.0
H2611 H 0.32172 0.02651 0.36015 0.0
H2612 H 0.32882 0.04847 0.37569 0.0
H2613 H 0.34385 0.05182 0.42754 0.0
H2614 H 0.36714 0.11819 0.46381 0.0
H2615 H 0.36543 0.09753 0.44956 0.0
C2616 C 0.97625 0.30162 0.36614 0.0
C2617 C 0.98394 0.316 0.37063 0.0
C2618 C 0.96448 0.29229 0.3756 0.0
C2619 C 0.9381 0.29079 0.40619 0.0
H2620 H 0.93003 0.2525 0.41177 0.0
C2621 C 0.88418 0.24585 0.42897 0.0
C2622 C 0.88367 0.23513 0.43904 0.0
C2623 C 0.8968 0.25623 0.42181 0.0
C2624 C 0.93217 0.26319 0.4106 0.0
H2625 H 0.98543 0.33189 0.38868 0.0
H2626 H 0.96498 0.31545 0.40562 0.0
H2627 H 0.95161 0.26973 0.39802 0.0
H2628 H 0.89596 0.22713 0.45011 0.0
H2629 H 0.91806 0.24542 0.43809 0.0
H2630 H 0.91882 0.2843 0.4193 0.0
C2631 C 0.96791 0.31145 0.39452 0.0
C2632 C 0.94449 0.27304 0.40243 0.0
C2633 C 0.97967 0.32086 0.3849 0.0
C2634 C 0.89604 0.23514 0.44213 0.0
C2635 C 0.90869 0.24561 0.43519 0.0
C2636 C 0.92582 0.28094 0.41455 0.0
C2637 C 0.96017 0.29703 0.38996 0.0
C2638 C 0.94753 0.28691 0.39985 0.0
C2639 C 0.90923 0.25622 0.42478 0.0
C2640 C 0.9226 0.26696 0.41666 0.0
H2641 H 0.9792 0.29756 0.35512 0.0
H2642 H 0.95864 0.28135 0.37142 0.0
H2643 H 0.94003 0.30133 0.40434 0.0
H2644 H 0.87475 0.24602 0.42633 0.0
H2645 H 0.89674 0.26406 0.41365 0.0
C2646 C 0.0086 0.36482 0.30434 0.0
C2647 C 0.01753 0.36819 0.31857 0.0
C2648 C 0.00834 0.37543 0.29509 0.0
C2649 C 0.02796 0.4141 0.28748 0.0
H2650 H 0.99194 0.40632 0.27099 0.0
C2651 C 0.01791 0.45649 0.25878 0.0
C2652 C 0.00986 0.45255 0.24358 0.0
C2653 C 0.0195 0.44657 0.26792 0.0
C2654 C 0.00209 0.40861 0.27541 0.0
H2655 H 0.03335 0.38534 0.33416 0.0
H2656 H 0.03265 0.40391 0.31829 0.0
H2657 H 0.9935 0.38844 0.28707 0.0
H2658 H 0.99763 0.43515 0.22578 0.0
H2659 H 1.00015 0.41785 0.24195 0.0
H2660 H 0.03642 0.43446 0.27602 0.0
C2661 C 0.02602 0.39307 0.31404 0.0
C2662 C 0.00301 0.39834 0.28457 0.0
C2663 C 0.02638 0.38243 0.3232 0.0
C2664 C 0.00362 0.43851 0.23764 0.0
C2665 C 0.00511 0.42859 0.24686 0.0
C2666 C 0.027 0.42445 0.27844 0.0
C2667 C 0.01688 0.38969 0.29997 0.0
C2668 C 0.01597 0.40087 0.29058 0.0
C2669 C 0.01297 0.43248 0.26215 0.0
C2670 C 0.01407 0.42175 0.27217 0.0
H2671 H 0.00174 0.35395 0.30034 0.0
H2672 H 0.00142 0.37242 0.28408 0.0
H2673 H 0.03814 0.41638 0.29174 0.0
H2674 H 0.02272 0.46716 0.26386 0.0
H2675 H 0.02554 0.44983 0.27975 0.0
C2676 C 0.63462 0.64159 0.31958 0.0
C2677 C 0.64894 0.64931 0.3157 0.0
C2678 C 0.6257 0.62917 0.31054 0.0
C2679 C 0.62067 0.61008 0.27008 0.0
H2680 H 0.59596 0.5772 0.29714 0.0
C2681 C 0.58279 0.55591 0.23814 0.0
C2682 C 0.56948 0.54784 0.24564 0.0
C2683 C 0.59324 0.56806 0.24646 0.0
C2684 C 0.60264 0.5863 0.28935 0.0
H2685 H 0.66511 0.65034 0.29899 0.0
H2686 H 0.64933 0.62862 0.28284 0.0
H2687 H 0.61273 0.59907 0.31172 0.0
H2688 H 0.55688 0.5462 0.26798 0.0
H2689 H 0.5748 0.56762 0.28203 0.0
H2690 H 0.61028 0.59753 0.24771 0.0
C2691 C 0.64511 0.6322 0.29302 0.0
C2692 C 0.6123 0.59881 0.29773 0.0
C2693 C 0.65411 0.64457 0.30227 0.0
C2694 C 0.56692 0.55223 0.26168 0.0
C2695 C 0.57731 0.56443 0.2699 0.0
C2696 C 0.61086 0.5976 0.26167 0.0
C2697 C 0.63086 0.62429 0.29727 0.0
C2698 C 0.6213 0.61085 0.28819 0.0
C2699 C 0.59062 0.57251 0.26242 0.0
C2700 C 0.6016 0.58559 0.27122 0.0
H2701 H 0.6303 0.64497 0.32984 0.0
H2702 H 0.61473 0.62337 0.31392 0.0
H2703 H 0.62744 0.61927 0.26245 0.0
H2704 H 0.58511 0.55298 0.22569 0.0
H2705 H 0.6034 0.57392 0.24039 0.0
C2706 C 0.36017 0.99931 0.31268 0.0
C2707 C 0.35004 0.9869 0.32079 0.0
C2708 C 0.37104 0.99957 0.30333 0.0
C2709 C 0.38127 0.97827 0.27862 0.0
H2710 H 0.4191 0.00702 0.29092 0.0
C2711 C 0.42919 0.98011 0.24664 0.0
C2712 C 0.44116 0.9934 0.24377 0.0
C2713 C 0.41797 0.97889 0.25624 0.0
C2714 C 0.40863 0.99907 0.28707 0.0
H2715 H 0.34312 0.96492 0.32507 0.0
H2716 H 0.36202 0.96529 0.3082 0.0
H2717 H 0.39953 0.00567 0.30678 0.0
H2718 H 0.45059 0.01584 0.24897 0.0
H2719 H 0.4308 0.0138 0.26471 0.0
H2720 H 0.39022 0.97197 0.25847 0.0
C2721 C 0.36156 0.97483 0.30932 0.0
C2722 C 0.39743 0.99825 0.29627 0.0
C2723 C 0.3508 0.97464 0.31899 0.0
C2724 C 0.44151 0.00543 0.25064 0.0
C2725 C 0.4302 0.00423 0.25999 0.0
C2726 C 0.39247 0.97924 0.26918 0.0
C2727 C 0.37187 0.98736 0.30163 0.0
C2728 C 0.38366 0.98788 0.2921 0.0
C2729 C 0.4183 0.99094 0.26304 0.0
C2730 C 0.40632 0.98969 0.27324 0.0
H2731 H 0.35988 0.00894 0.31387 0.0
H2732 H 0.37881 0.00932 0.2974 0.0
H2733 H 0.37072 0.97025 0.2751 0.0
H2734 H 0.42839 0.9706 0.24135 0.0
H2735 H 0.40909 0.96845 0.25846 0.0
C2736 C 0.62044 0.97576 0.32197 0.0
C2737 C 0.63454 0.98491 0.31779 0.0
C2738 C 0.60991 0.97597 0.31252 0.0
C2739 C 0.60453 0.99901 0.28303 0.0
H2740 H 0.56914 0.96492 0.27345 0.0
C2741 C 0.56432 0.99766 0.23568 0.0
C2742 C 0.55041 0.99103 0.24145 0.0
C2743 C 0.57434 0.99645 0.24493 0.0
C2744 C 0.57895 0.97453 0.27615 0.0
H2745 H 0.64868 0.00105 0.30008 0.0
H2746 H 0.63041 0.00111 0.2833 0.0
H2747 H 0.58713 0.9635 0.28948 0.0
H2748 H 0.53617 0.97784 0.26153 0.0
H2749 H 0.55364 0.97549 0.27744 0.0
H2750 H 0.59641 0.00998 0.26942 0.0
C2751 C 0.62741 0.99408 0.29418 0.0
C2752 C 0.58925 0.97373 0.28537 0.0
C2753 C 0.6379 0.99397 0.30373 0.0
C2754 C 0.54673 0.98293 0.25655 0.0
C2755 C 0.55673 0.9816 0.26571 0.0
C2756 C 0.59431 0.99977 0.27367 0.0
C2757 C 0.61328 0.98524 0.29859 0.0
C2758 C 0.60219 0.98597 0.28889 0.0
C2759 C 0.57066 0.98846 0.26007 0.0
C2760 C 0.58143 0.98754 0.2701 0.0
H2761 H 0.61754 0.96869 0.33279 0.0
H2762 H 0.59916 0.96912 0.31641 0.0
H2763 H 0.61422 0.0087 0.28583 0.0
H2764 H 0.56749 0.00373 0.22392 0.0
H2765 H 0.58497 0.00168 0.24015 0.0
C2766 C 0.01682 0.65086 0.30899 0.0
C2767 C 0.00549 0.6526 0.31298 0.0
C2768 C 0.01511 0.64005 0.29787 0.0
C2769 C 0.99023 0.60466 0.2851 0.0
H2770 H 0.01522 0.61112 0.24665 0.0
C2771 C 0.98634 0.55843 0.24456 0.0
C2772 C 0.99887 0.55967 0.23862 0.0
C2773 C 0.98626 0.56996 0.25212 0.0
C2774 C 0.00826 0.60909 0.25747 0.0
H2775 H 0.98353 0.64454 0.30835 0.0
H2776 H 0.98042 0.62517 0.28922 0.0
H2777 H 0.01668 0.63116 0.26228 0.0
H2778 H 0.02116 0.5742 0.23599 0.0
H2779 H 0.02116 0.59394 0.25007 0.0
H2780 H 0.98231 0.58266 0.28111 0.0
C2781 C 0.99064 0.63237 0.29457 0.0
C2782 C 0.00902 0.62058 0.26628 0.0
C2783 C 0.99243 0.64344 0.30543 0.0
C2784 C 0.01133 0.57273 0.24061 0.0
C2785 C 0.01128 0.58418 0.24842 0.0
C2786 C 0.98962 0.59314 0.2765 0.0
C2787 C 0.00198 0.63058 0.29078 0.0
C2788 C 1.00012 0.61846 0.28028 0.0
C2789 C 0.99874 0.58299 0.25421 0.0
C2790 C 0.99876 0.5952 0.2627 0.0
H2791 H 0.02701 0.65778 0.31459 0.0
H2792 H 0.02397 0.63881 0.29525 0.0
H2793 H 0.98337 0.60279 0.29602 0.0
H2794 H 0.97654 0.54851 0.24352 0.0
H2795 H 0.97636 0.56863 0.25622 0.0
C2796 C 0.35792 0.36906 0.31065 0.0
C2797 C 0.35398 0.35496 0.31349 0.0
C2798 C 0.36958 0.37771 0.30054 0.0
C2799 C 0.40325 0.38312 0.28783 0.0
H2800 H 0.40206 0.40673 0.25216 0.0
C2801 C 0.45219 0.42064 0.24783 0.0
C2802 C 0.45402 0.43378 0.24338 0.0
C2803 C 0.4397 0.41023 0.25525 0.0
C2804 C 0.40265 0.40037 0.26223 0.0
H2805 H 0.35902 0.3388 0.30788 0.0
H2806 H 0.3797 0.35411 0.29047 0.0
H2807 H 0.38064 0.38997 0.267 0.0
H2808 H 0.4439 0.44612 0.24315 0.0
H2809 H 0.42256 0.42839 0.25688 0.0
H2810 H 0.4253 0.39385 0.2837 0.0
C2811 C 0.37365 0.35837 0.29599 0.0
C2812 C 0.39034 0.39069 0.27063 0.0
C2813 C 0.36181 0.34962 0.30586 0.0
C2814 C 0.44303 0.43625 0.24664 0.0
C2815 C 0.43063 0.42593 0.25425 0.0
C2816 C 0.41561 0.39294 0.27962 0.0
C2817 C 0.37767 0.37252 0.29331 0.0
C2818 C 0.39054 0.38206 0.28359 0.0
C2819 C 0.42875 0.41275 0.2586 0.0
C2820 C 0.4155 0.4018 0.26681 0.0
H2821 H 0.35207 0.37345 0.31635 0.0
H2822 H 0.37252 0.3886 0.29878 0.0
H2823 H 0.4037 0.37668 0.29793 0.0
H2824 H 0.46046 0.41838 0.24572 0.0
H2825 H 0.43862 0.40017 0.25822 0.0
C2826 C 0.33429 0.3122 0.38465 0.0
C2827 C 0.32473 0.30759 0.37091 0.0
C2828 C 0.33632 0.30259 0.39382 0.0
C2829 C 0.33462 0.26901 0.38829 0.0
H2830 H 0.33566 0.26868 0.43832 0.0
C2831 C 0.34054 0.2271 0.42451 0.0
C2832 C 0.34818 0.23105 0.44003 0.0
C2833 C 0.33735 0.2363 0.41635 0.0
C2834 C 0.33564 0.26876 0.42434 0.0
H2835 H 0.30958 0.28925 0.35622 0.0
H2836 H 0.31331 0.27249 0.37208 0.0
H2837 H 0.33045 0.28495 0.42394 0.0
H2838 H 0.35845 0.24793 0.45905 0.0
H2839 H 0.35355 0.26419 0.44439 0.0
H2840 H 0.34027 0.25325 0.3885 0.0
C2841 C 0.31919 0.28354 0.37576 0.0
C2842 C 0.33255 0.27803 0.41613 0.0
C2843 C 0.317 0.29312 0.36677 0.0
C2844 C 0.35272 0.24455 0.44701 0.0
C2845 C 0.34968 0.25382 0.43873 0.0
C2846 C 0.33791 0.25989 0.39647 0.0
C2847 C 0.32899 0.28821 0.38924 0.0
C2848 C 0.33198 0.27821 0.39803 0.0
C2849 C 0.34187 0.2498 0.42334 0.0
C2850 C 0.33844 0.2596 0.41462 0.0
H2851 H 0.3404 0.32329 0.38813 0.0
H2852 H 0.34399 0.30647 0.4041 0.0
H2853 H 0.33446 0.26909 0.3743 0.0
H2854 H 0.33704 0.21689 0.41856 0.0
H2855 H 0.33116 0.2327 0.40466 0.0
C2856 C 0.69953 0.02271 0.37382 0.0
C2857 C 0.68542 0.01855 0.37199 0.0
C2858 C 0.70849 0.03461 0.3837 0.0
C2859 C 0.71464 0.06871 0.39649 0.0
H2860 H 0.73847 0.06778 0.43195 0.0
C2861 C 0.75387 0.11899 0.43447 0.0
C2862 C 0.76675 0.12047 0.43896 0.0
C2863 C 0.74313 0.10629 0.42754 0.0
C2864 C 0.73205 0.0683 0.42192 0.0
H2865 H 0.66954 0.02344 0.37912 0.0
H2866 H 0.68541 0.04462 0.39605 0.0
H2867 H 0.72118 0.04591 0.41772 0.0
H2868 H 0.77826 0.10952 0.43975 0.0
H2869 H 0.75999 0.08784 0.42674 0.0
H2870 H 0.72589 0.09109 0.3999 0.0
C2871 C 0.68942 0.03852 0.38997 0.0
C2872 C 0.72208 0.05574 0.4139 0.0
C2873 C 0.68037 0.02641 0.38038 0.0
C2874 C 0.76861 0.10893 0.4362 0.0
C2875 C 0.75798 0.09633 0.42902 0.0
C2876 C 0.7248 0.08132 0.40427 0.0
C2877 C 0.70356 0.04273 0.39165 0.0
C2878 C 0.71337 0.05586 0.40104 0.0
C2879 C 0.74505 0.09479 0.42468 0.0
C2880 C 0.73374 0.0813 0.41698 0.0
H2881 H 0.70369 0.01683 0.36753 0.0
H2882 H 0.71937 0.03772 0.38473 0.0
H2883 H 0.70813 0.06906 0.38645 0.0
H2884 H 0.75207 0.12767 0.43618 0.0
H2885 H 0.73329 0.10549 0.42457 0.0
C2886 C 0.98031 0.68872 0.37325 0.0
C2887 C 0.98373 0.67814 0.3723 0.0
C2888 C 0.96847 0.68648 0.38232 0.0
C2889 C 0.9421 0.66295 0.41459 0.0
H2890 H 0.91998 0.67713 0.39463 0.0
C2891 C 0.88647 0.64628 0.43834 0.0
C2892 C 0.88375 0.65725 0.44103 0.0
C2893 C 0.89875 0.64887 0.4301 0.0
C2894 C 0.92611 0.6732 0.40042 0.0
H2895 H 0.97754 0.65699 0.38031 0.0
H2896 H 0.95675 0.65294 0.39576 0.0
H2897 H 0.94146 0.68175 0.38041 0.0
H2898 H 0.89156 0.67943 0.43688 0.0
H2899 H 0.91297 0.68394 0.42239 0.0
H2900 H 0.92651 0.65416 0.43442 0.0
C2901 C 0.96333 0.66309 0.38983 0.0
C2902 C 0.93846 0.6759 0.39233 0.0
C2903 C 0.97523 0.66539 0.38088 0.0
C2904 C 0.89344 0.67081 0.43509 0.0
C2905 C 0.90563 0.67336 0.42669 0.0
C2906 C 0.92967 0.66014 0.42259 0.0
C2907 C 0.9597 0.67355 0.39051 0.0
C2908 C 0.94664 0.67084 0.39932 0.0
C2909 C 0.90846 0.66244 0.42421 0.0
C2910 C 0.92156 0.66526 0.41561 0.0
H2911 H 0.9867 0.69869 0.36684 0.0
H2912 H 0.96617 0.69488 0.38286 0.0
H2913 H 0.94822 0.65907 0.42051 0.0
H2914 H 0.87922 0.63575 0.44289 0.0
H2915 H 0.90061 0.64023 0.42824 0.0
C2916 C 0.38138 0.02813 0.70071 0.0
C2917 C 0.36751 0.01681 0.70123 0.0
C2918 C 0.39184 0.02756 0.70988 0.0
C2919 C 0.40011 0.00212 0.72789 0.0
H2920 H 0.42723 0.0336 0.75586 0.0
C2921 C 0.43705 0.99653 0.77426 0.0
C2922 C 0.45077 0.00796 0.77601 0.0
C2923 C 0.42715 0.99793 0.76498 0.0
C2924 C 0.41987 0.02478 0.74791 0.0
H2925 H 0.35371 0.99613 0.71198 0.0
H2926 H 0.37191 0.99515 0.72786 0.0
H2927 H 0.40963 0.03569 0.73986 0.0
H2928 H 0.46495 0.02975 0.76915 0.0
H2929 H 0.44776 0.03214 0.75267 0.0
H2930 H 0.41036 0.99122 0.73567 0.0
C2931 C 0.37473 0.00441 0.72029 0.0
C2932 C 0.40977 0.02598 0.73878 0.0
C2933 C 0.36429 0.00502 0.71126 0.0
C2934 C 0.4544 0.0208 0.7682 0.0
C2935 C 0.44453 0.02218 0.7588 0.0
C2936 C 0.41026 0.00095 0.73688 0.0
C2937 C 0.38864 0.01561 0.7196 0.0
C2938 C 0.39971 0.01462 0.72881 0.0
C2939 C 0.43076 0.01077 0.75709 0.0
C2940 C 0.4202 0.01221 0.74714 0.0
H2941 H 0.38417 0.03736 0.69309 0.0
H2942 H 0.40248 0.03633 0.70906 0.0
H2943 H 0.39263 0.99326 0.72007 0.0
H2944 H 0.43389 0.98656 0.78035 0.0
H2945 H 0.41659 0.98899 0.76423 0.0
C2946 C 0.00543 0.35834 0.71607 0.0
C2947 C 0.9969 0.35388 0.70132 0.0
C2948 C 0.00666 0.36945 0.72639 0.0
C2949 C 0.00294 0.40052 0.72422 0.0
H2950 H 0.99831 0.39733 0.77395 0.0
C2951 C 0.9941 0.43942 0.7641 0.0
C2952 C 1.00067 0.44395 0.78027 0.0
C2953 C 0.99427 0.4285 0.75501 0.0
C2954 C 0.99983 0.39847 0.76011 0.0
H2955 H 0.98288 0.35744 0.68586 0.0
H2956 H 0.98509 0.37677 0.70371 0.0
H2957 H 0.9979 0.37821 0.75712 0.0
H2958 H 0.0123 0.44029 0.79973 0.0
H2959 H 0.01293 0.42149 0.78363 0.0
H2960 H 0.00492 0.42073 0.72705 0.0
C2961 C 0.9909 0.37178 0.70728 0.0
C2962 C 0.99959 0.38752 0.75049 0.0
C2963 C 0.98958 0.36065 0.69712 0.0
C2964 C 0.0073 0.43719 0.7872 0.0
C2965 C 0.00752 0.42629 0.77806 0.0
C2966 C 0.00328 0.41148 0.7338 0.0
C2967 C 0.99949 0.37636 0.72196 0.0
C2968 C 0.0009 0.38835 0.73242 0.0
C2969 C 0.00108 0.42188 0.7618 0.0
C2970 C 0.00149 0.4105 0.75183 0.0
H2971 H 0.01116 0.35327 0.71963 0.0
H2972 H 0.01338 0.37281 0.73763 0.0
H2973 H 0.00422 0.40154 0.71033 0.0
H2974 H 0.98902 0.44447 0.75828 0.0
H2975 H 0.98899 0.42522 0.74265 0.0
C2976 C 0.64405 0.6511 0.71735 0.0
C2977 C 0.64778 0.64597 0.70284 0.0
C2978 C 0.63247 0.64197 0.72736 0.0
C2979 C 0.60812 0.60377 0.73569 0.0
H2980 H 0.58369 0.6165 0.75308 0.0
C2981 C 0.55204 0.56558 0.75864 0.0
C2982 C 0.54817 0.5686 0.77475 0.0
C2983 C 0.56455 0.57539 0.75078 0.0
C2984 C 0.5905 0.61286 0.74843 0.0
H2985 H 0.64236 0.62732 0.6874 0.0
H2986 H 0.62202 0.61153 0.70443 0.0
H2987 H 0.60509 0.63296 0.73785 0.0
H2988 H 0.55452 0.58445 0.79514 0.0
H2989 H 0.57618 0.60173 0.78106 0.0
H2990 H 0.59324 0.58355 0.74579 0.0
C2991 C 0.62817 0.62249 0.70845 0.0
C2992 C 0.60279 0.62229 0.73977 0.0
C2993 C 0.63979 0.63157 0.69858 0.0
C2994 C 0.55702 0.58183 0.78261 0.0
C2995 C 0.56947 0.59171 0.77462 0.0
C2996 C 0.59576 0.59433 0.74414 0.0
C2997 C 0.62433 0.62755 0.72296 0.0
C2998 C 0.61169 0.61782 0.73313 0.0
C2999 C 0.57341 0.58851 0.75873 0.0
C3000 C 0.58678 0.59874 0.75044 0.0
H3001 H 0.65008 0.66216 0.72097 0.0
H3002 H 0.62994 0.6462 0.73858 0.0
H3003 H 0.61486 0.60003 0.73114 0.0
H3004 H 0.54536 0.55565 0.75202 0.0
H3005 H 0.56726 0.57275 0.73839 0.0
C3006 C 0.67047 0.69378 0.63568 0.0
C3007 C 0.67913 0.69755 0.65024 0.0
C3008 C 0.66881 0.70383 0.62711 0.0
C3009 C 0.68343 0.74235 0.62239 0.0
H3010 H 0.64598 0.72972 0.60613 0.0
C3011 C 0.66568 0.77991 0.59686 0.0
C3012 C 0.65797 0.77566 0.58138 0.0
C3013 C 0.66883 0.77083 0.60541 0.0
C3014 C 0.65651 0.73337 0.61049 0.0
H3015 H 0.6932 0.71489 0.66701 0.0
H3016 H 0.69003 0.73251 0.65228 0.0
H3017 H 0.65068 0.71327 0.62076 0.0
H3018 H 0.64784 0.75855 0.5626 0.0
H3019 H 0.65303 0.74263 0.57777 0.0
H3020 H 0.68909 0.7626 0.61234 0.0
C3021 C 0.68469 0.72179 0.64729 0.0
C3022 C 0.65924 0.72393 0.61881 0.0
C3023 C 0.68649 0.71171 0.65576 0.0
C3024 C 0.65352 0.7621 0.57467 0.0
C3025 C 0.65655 0.75298 0.58331 0.0
C3026 C 0.68064 0.75185 0.61419 0.0
C3027 C 0.67561 0.7179 0.63305 0.0
C3028 C 0.67277 0.72823 0.62468 0.0
C3029 C 0.66422 0.75724 0.59877 0.0
C3030 C 0.66718 0.7474 0.608 0.0
H3031 H 0.66479 0.68297 0.63099 0.0
H3032 H 0.66206 0.70051 0.6159 0.0
H3033 H 0.69398 0.74599 0.6266 0.0
H3034 H 0.66911 0.79019 0.60255 0.0
H3035 H 0.67464 0.77432 0.61741 0.0
C3036 C 0.30279 0.9753 0.65291 0.0
C3037 C 0.31693 0.98347 0.6483 0.0
C3038 C 0.29395 0.96264 0.6443 0.0
C3039 C 0.28807 0.94317 0.60409 0.0
H3040 H 0.26518 0.91052 0.63246 0.0
C3041 C 0.24921 0.88836 0.57434 0.0
C3042 C 0.23625 0.88044 0.58272 0.0
C3043 C 0.26002 0.90062 0.58202 0.0
C3044 C 0.27137 0.91955 0.62433 0.0
H3045 H 0.33285 0.98502 0.63068 0.0
H3046 H 0.31716 0.96284 0.61524 0.0
H3047 H 0.28227 0.93275 0.64607 0.0
H3048 H 0.22465 0.87917 0.60593 0.0
H3049 H 0.24321 0.90076 0.61895 0.0
H3050 H 0.27681 0.93016 0.58237 0.0
C3051 C 0.31304 0.96627 0.62569 0.0
C3052 C 0.28121 0.93225 0.63214 0.0
C3053 C 0.32199 0.9789 0.63452 0.0
C3054 C 0.23441 0.88507 0.59899 0.0
C3055 C 0.24517 0.89738 0.60659 0.0
C3056 C 0.27808 0.93047 0.59625 0.0
C3057 C 0.299 0.95793 0.63072 0.0
C3058 C 0.2895 0.94423 0.62213 0.0
C3059 C 0.25812 0.90532 0.59822 0.0
C3060 C 0.26944 0.91856 0.60632 0.0
H3061 H 0.29855 0.97853 0.66345 0.0
H3062 H 0.28312 0.95651 0.64826 0.0
H3063 H 0.2943 0.9523 0.59611 0.0
H3064 H 0.25095 0.88522 0.56169 0.0
H3065 H 0.26989 0.90638 0.57526 0.0
C3066 C 0.02748 0.31823 0.65528 0.0
C3067 C 0.0202 0.3245 0.64895 0.0
C3068 C 0.03937 0.32006 0.64668 0.0
C3069 C 0.05643 0.32711 0.60484 0.0
H3070 H 0.09143 0.34459 0.62991 0.0
C3071 C 0.1085 0.34686 0.56913 0.0
C3072 C 0.11917 0.34602 0.57743 0.0
C3073 C 0.09644 0.34399 0.57813 0.0
C3074 C 0.08173 0.33946 0.62274 0.0
H3075 H 0.01931 0.33716 0.62843 0.0
H3076 H 0.03979 0.33992 0.61311 0.0
H3077 H 0.06996 0.339 0.64504 0.0
H3078 H 0.12566 0.34146 0.60151 0.0
H3079 H 0.10437 0.33582 0.61713 0.0
H3080 H 0.06791 0.3271 0.58268 0.0
C3081 C 0.03642 0.33379 0.62482 0.0
C3082 C 0.06945 0.33632 0.63143 0.0
C3083 C 0.02475 0.33224 0.63361 0.0
C3084 C 0.1176 0.34229 0.5949 0.0
C3085 C 0.10541 0.33914 0.60384 0.0
C3086 C 0.06863 0.32998 0.59622 0.0
C3087 C 0.04394 0.32789 0.6314 0.0
C3088 C 0.05674 0.33028 0.6225 0.0
C3089 C 0.09462 0.3399 0.59557 0.0
C3090 C 0.08152 0.33638 0.60498 0.0
H3091 H 0.02423 0.31228 0.66713 0.0
H3092 H 0.04501 0.31538 0.65194 0.0
H3093 H 0.0467 0.32235 0.59773 0.0
H3094 H 0.10956 0.34987 0.5557 0.0
H3095 H 0.08859 0.34507 0.57139 0.0
C3096 C 0.29188 0.31497 0.64869 0.0
C3097 C 0.30595 0.32584 0.64935 0.0
C3098 C 0.28213 0.31671 0.6395 0.0
C3099 C 0.27602 0.34434 0.62435 0.0
H3100 H 0.249 0.31547 0.5934 0.0
C3101 C 0.24127 0.35491 0.58002 0.0
C3102 C 0.22746 0.34394 0.57725 0.0
C3103 C 0.25069 0.35242 0.58875 0.0
C3104 C 0.25634 0.32357 0.60218 0.0
H3105 H 0.32088 0.34694 0.64062 0.0
H3106 H 0.30388 0.34996 0.6247 0.0
H3107 H 0.26563 0.3114 0.60871 0.0
H3108 H 0.21259 0.32183 0.58166 0.0
H3109 H 0.22892 0.31751 0.59725 0.0
H3110 H 0.26668 0.35645 0.61816 0.0
C3111 C 0.30037 0.34014 0.63136 0.0
C3112 C 0.26589 0.32124 0.6109 0.0
C3113 C 0.31011 0.33836 0.64039 0.0
C3114 C 0.22323 0.33044 0.58345 0.0
C3115 C 0.23261 0.32797 0.59233 0.0
C3116 C 0.26641 0.34663 0.61577 0.0
C3117 C 0.28626 0.3294 0.63095 0.0
C3118 C 0.27589 0.33165 0.62197 0.0
C3119 C 0.24647 0.33892 0.59507 0.0
C3120 C 0.25651 0.33632 0.60447 0.0
H3121 H 0.28836 0.3052 0.65547 0.0
H3122 H 0.2713 0.30828 0.63946 0.0
H3123 H 0.28347 0.35247 0.63302 0.0
H3124 H 0.24487 0.36537 0.57517 0.0
H3125 H 0.26134 0.36104 0.59032 0.0
C3126 C 0.67732 0.97986 0.63889 0.0
C3127 C 0.66741 0.98371 0.64282 0.0
C3128 C 0.67381 0.96821 0.62826 0.0
C3129 C 0.64518 0.93398 0.61699 0.0
H3130 H 0.66861 0.9356 0.57877 0.0
C3131 C 0.63474 0.88365 0.57972 0.0
C3132 C 0.64653 0.88295 0.57474 0.0
C3133 C 0.63622 0.89624 0.58617 0.0
C3134 C 0.66203 0.93491 0.58952 0.0
H3135 H 0.64612 0.97855 0.6386 0.0
H3136 H 0.63981 0.95774 0.62035 0.0
H3137 H 0.67328 0.95734 0.59326 0.0
H3138 H 0.6691 0.89515 0.57237 0.0
H3139 H 0.67171 0.9167 0.58445 0.0
H3140 H 0.63442 0.91155 0.61405 0.0
C3141 C 0.65034 0.96392 0.62535 0.0
C3142 C 0.66465 0.94738 0.59769 0.0
C3143 C 0.65396 0.97581 0.63571 0.0
C3144 C 0.65979 0.89516 0.57636 0.0
C3145 C 0.66127 0.90766 0.58299 0.0
C3146 C 0.6427 0.92146 0.60902 0.0
C3147 C 0.66024 0.96001 0.62163 0.0
C3148 C 0.65639 0.947 0.61166 0.0
C3149 C 0.64952 0.90841 0.58795 0.0
C3150 C 0.65127 0.92174 0.59539 0.0
H3151 H 0.68777 0.98577 0.64416 0.0
H3152 H 0.68158 0.96532 0.62568 0.0
H3153 H 0.63876 0.93343 0.62787 0.0
H3154 H 0.62436 0.87444 0.57882 0.0
H3155 H 0.6269 0.89643 0.58968 0.0
C3156 C 0.02576 0.68048 0.6399 0.0
C3157 C 0.01789 0.68568 0.64779 0.0
C3158 C 0.03785 0.68952 0.63058 0.0
C3159 C 0.05512 0.72255 0.6068 0.0
H3160 H 0.08989 0.72566 0.62068 0.0
C3161 C 0.10807 0.76889 0.58485 0.0
C3162 C 0.11917 0.76658 0.58167 0.0
C3163 C 0.09561 0.75839 0.59214 0.0
C3164 C 0.08027 0.72477 0.61637 0.0
H3165 H 0.01619 0.70422 0.65166 0.0
H3166 H 0.03702 0.71983 0.635 0.0
H3167 H 0.06802 0.70795 0.63389 0.0
H3168 H 0.12576 0.75129 0.58395 0.0
H3169 H 0.10383 0.73278 0.59581 0.0
H3170 H 0.06717 0.73913 0.58909 0.0
C3171 C 0.03394 0.70885 0.63617 0.0
C3172 C 0.06775 0.71464 0.624 0.0
C3173 C 0.02206 0.69992 0.64575 0.0
C3174 C 0.11741 0.75343 0.58596 0.0
C3175 C 0.10486 0.74285 0.59303 0.0
C3176 C 0.06759 0.73253 0.59897 0.0
C3177 C 0.04205 0.70379 0.62868 0.0
C3178 C 0.0551 0.7136 0.61947 0.0
C3179 C 0.09377 0.74517 0.59622 0.0
C3180 C 0.08038 0.73396 0.60386 0.0
H3181 H 0.0228 0.66955 0.64132 0.0
H3182 H 0.04393 0.68537 0.62486 0.0
H3183 H 0.04547 0.72185 0.60298 0.0
H3184 H 0.1089 0.77877 0.5815 0.0
H3185 H 0.08744 0.76072 0.59468 0.0
C3186 C 0.99249 0.63869 0.71669 0.0
C3187 C 0.98401 0.63526 0.70197 0.0
C3188 C 0.9926 0.6281 0.72623 0.0
C3189 C 0.98732 0.5929 0.72157 0.0
H3190 H 0.98461 0.59173 0.77159 0.0
C3191 C 0.00255 0.56006 0.76372 0.0
C3192 C 0.99287 0.55172 0.77644 0.0
C3193 C 0.00077 0.56983 0.75456 0.0
C3194 C 0.98532 0.59191 0.75762 0.0
H3195 H 0.96889 0.61806 0.68579 0.0
H3196 H 0.96929 0.59956 0.7023 0.0
H3197 H 0.98249 0.60964 0.75591 0.0
H3198 H 0.97386 0.54715 0.78972 0.0
H3199 H 0.97088 0.56447 0.77387 0.0
H3200 H 0.99043 0.57535 0.72329 0.0
C3201 C 0.97579 0.61045 0.70647 0.0
C3202 C 0.98419 0.60218 0.74868 0.0
C3203 C 0.97551 0.62102 0.69709 0.0
C3204 C 0.98142 0.55339 0.77989 0.0
C3205 C 0.97977 0.56334 0.77093 0.0
C3206 C 0.98868 0.58277 0.73053 0.0
C3207 C 0.9844 0.6139 0.72107 0.0
C3208 C 0.98519 0.60278 0.73057 0.0
C3209 C 0.98941 0.57162 0.75814 0.0
C3210 C 0.9877 0.58219 0.74864 0.0
H3211 H 0.99914 0.64958 0.72077 0.0
H3212 H 0.99939 0.63105 0.73736 0.0
H3213 H 0.98824 0.5932 0.70762 0.0
H3214 H 0.01142 0.55892 0.76076 0.0
H3215 H 0.0084 0.57616 0.74484 0.0
C3216 C 0.36709 0.35753 0.71049 0.0
C3217 C 0.35319 0.35378 0.70755 0.0
C3218 C 0.37576 0.36916 0.72093 0.0
C3219 C 0.38191 0.40336 0.73349 0.0
H3220 H 0.40454 0.4019 0.77018 0.0
C3221 C 0.42002 0.45317 0.77286 0.0
C3222 C 0.43278 0.45463 0.7779 0.0
C3223 C 0.40945 0.44052 0.76563 0.0
C3224 C 0.39845 0.40256 0.75982 0.0
H3225 H 0.33738 0.35906 0.71339 0.0
H3226 H 0.35276 0.37974 0.73133 0.0
H3227 H 0.3876 0.38021 0.7553 0.0
H3228 H 0.44425 0.44367 0.77942 0.0
H3229 H 0.42628 0.42205 0.76591 0.0
H3230 H 0.39314 0.4257 0.73725 0.0
C3231 C 0.35683 0.37355 0.72567 0.0
C3232 C 0.38868 0.39011 0.75142 0.0
C3233 C 0.34805 0.36172 0.7155 0.0
C3234 C 0.43469 0.44309 0.77544 0.0
C3235 C 0.42423 0.43053 0.76797 0.0
C3236 C 0.39185 0.41586 0.74167 0.0
C3237 C 0.37078 0.37741 0.72836 0.0
C3238 C 0.3804 0.39042 0.73811 0.0
C3239 C 0.41144 0.42903 0.76301 0.0
C3240 C 0.40036 0.41565 0.75485 0.0
H3241 H 0.37131 0.35157 0.70456 0.0
H3242 H 0.38652 0.372 0.72274 0.0
H3243 H 0.37574 0.40387 0.7231 0.0
H3244 H 0.41819 0.46185 0.77434 0.0
H3245 H 0.3997 0.43975 0.7622 0.0
C3246 C 0.65041 0.02682 0.70285 0.0
C3247 C 0.65231 0.0152 0.70218 0.0
C3248 C 0.63969 0.02637 0.71284 0.0
C3249 C 0.61478 0.00656 0.74828 0.0
H3250 H 0.59386 0.02245 0.7293 0.0
C3251 C 0.56193 0.99521 0.77635 0.0
C3252 C 0.56012 0.00683 0.77845 0.0
C3253 C 0.57348 0.99659 0.7674 0.0
C3254 C 0.59969 0.01808 0.73484 0.0
H3255 H 0.64456 0.99405 0.71158 0.0
H3256 H 0.62574 0.99314 0.72866 0.0
H3257 H 0.61367 0.02439 0.71331 0.0
H3258 H 0.56884 0.02892 0.77255 0.0
H3259 H 0.58902 0.03131 0.75687 0.0
H3260 H 0.60057 0.0 0.76964 0.0
C3261 C 0.63266 0.00272 0.72178 0.0
C3262 C 0.61108 0.01924 0.72571 0.0
C3263 C 0.64342 0.00321 0.71189 0.0
C3264 C 0.57003 0.01981 0.77127 0.0
C3265 C 0.58151 0.02115 0.76217 0.0
C3266 C 0.60332 0.00531 0.75733 0.0
C3267 C 0.63059 0.01425 0.72229 0.0
C3268 C 0.61875 0.01345 0.73229 0.0
C3269 C 0.58338 0.00957 0.76021 0.0
C3270 C 0.59564 0.01103 0.75068 0.0
H3271 H 0.65714 0.03623 0.69556 0.0
H3272 H 0.63855 0.03553 0.71315 0.0
H3273 H 0.62059 0.0022 0.75389 0.0
H3274 H 0.5545 0.98511 0.78185 0.0
H3275 H 0.57459 0.98744 0.76595 0.0
loop_
_geom_bond_atom_site_label_1
_geom_bond_atom_site_label_2
_geom_bond_distance
_geom_bond_site_symmetry_2
_ccdc_geom_bond_type
Co0 O1 2.216 . S
Co0 O2 2.091 . S
Co0 O4 2.004 1_554 S
Co0 O10 2.021 . S
Co0 O12 2.137 1_454 S
Co0 O13 2.244 1_455 S
O1 Co0 2.216 . S
O1 C8 1.247 . S
O2 Co0 2.091 . S
O2 C8 1.261 . S
C3 O12 1.247 . S
C3 O13 1.272 1_556 S
O4 Co0 2.004 1_556 S
O4 C9 1.259 . S
Co5 O6 2.061 1_554 S
Co5 O11 2.052 . S
Co5 O13 2.135 . S
O6 Co5 2.061 1_556 S
O6 C9 1.235 1_655 S
C7 O10 1.238 1_655 S
C7 O11 1.241 . S
C8 O1 1.247 . S
C8 O2 1.261 . S
C9 O4 1.259 . S
C9 O6 1.235 1_455 S
O10 Co0 2.021 . S
O10 C7 1.238 1_455 S
O11 Co5 2.052 . S
O11 C7 1.241 . S
O12 Co0 2.137 1_656 S
O12 C3 1.247 . S
O13 Co0 2.244 1_655 S
O13 C3 1.272 1_554 S
O13 Co5 2.135 . S
Co14 O15 2.216 1_554 S
Co14 O16 2.091 . S
Co14 O18 2.004 . S
Co14 O24 2.021 1_554 S
Co14 O26 2.137 . S
Co14 O27 2.244 . S
O15 Co14 2.216 1_556 S
O15 C22 1.247 . S
O16 Co14 2.091 . S
O16 C22 1.261 1_554 S
C17 O26 1.247 . S
C17 O27 1.272 . S
O18 Co14 2.004 . S
O18 C23 1.259 . S
Co19 O20 2.061 . S
Co19 O25 2.052 1_554 S
Co19 O27 2.135 . S
O20 Co19 2.061 . S
O20 C23 1.235 . S
C21 O24 1.238 . S
C21 O25 1.241 . S
C22 O15 1.247 . S
C22 O16 1.261 1_556 S
C23 O18 1.259 . S
C23 O20 1.235 . S
O24 Co14 2.021 1_556 S
O24 C21 1.238 . S
O25 Co19 2.052 1_556 S
O25 C21 1.241 . S
O26 Co14 2.137 . S
O26 C17 1.247 . S
O27 Co14 2.244 . S
O27 C17 1.272 . S
O27 Co19 2.135 . S
Co28 O29 2.216 1_554 S
Co28 O30 2.091 . S
Co28 O32 2.004 . S
Co28 O38 2.021 1_554 S
Co28 O40 2.136 . S
Co28 O41 2.244 1_545 S
O29 Co28 2.216 1_556 S
O29 C36 1.247 . S
O30 Co28 2.091 . S
O30 C36 1.261 1_554 S
C31 O40 1.200 1_565 S
C31 O41 1.272 . S
O32 Co28 2.004 . S
O32 C37 1.259 . S
Co33 O34 2.061 . S
Co33 O39 2.052 1_554 S
Co33 O41 2.135 . S
O34 Co33 2.061 . S
O34 C37 1.235 1_565 S
C35 O38 1.232 1_565 S
C35 O39 1.246 . S
C36 O29 1.247 . S
C36 O30 1.261 1_556 S
C37 O32 1.259 . S
C37 O34 1.235 1_545 S
O38 Co28 2.021 1_556 S
O38 C35 1.232 1_545 S
O39 Co33 2.052 1_556 S
O39 C35 1.246 . S
O40 Co28 2.136 . S
O40 C31 1.200 1_545 S
O41 Co28 2.244 1_565 S
O41 C31 1.272 . S
O41 Co33 2.135 . S
Co42 O43 2.216 1_554 S
Co42 O44 2.091 . S
Co42 O46 2.004 . S
Co42 O52 2.021 1_554 S
Co42 O54 2.137 1_655 S
Co42 O55 2.244 1_655 S
O43 Co42 2.216 1_556 S
O43 C50 1.247 . S
O44 Co42 2.091 . S
O44 C50 1.261 1_554 S
C45 O54 1.247 . S
C45 O55 1.272 . S
O46 Co42 2.004 . S
O46 C51 1.251 1_655 S
Co47 O48 2.061 . S
Co47 O53 2.052 1_554 S
Co47 O55 2.135 . S
O48 Co47 2.061 . S
O48 C51 1.243 . S
C49 O52 1.238 1_455 S
C49 O53 1.241 . S
C50 O43 1.247 . S
C50 O44 1.261 1_556 S
C51 O46 1.251 1_455 S
C51 O48 1.243 . S
O52 Co42 2.021 1_556 S
O52 C49 1.238 1_655 S
O53 Co47 2.052 1_556 S
O53 C49 1.241 . S
O54 Co42 2.137 1_455 S
O54 C45 1.247 . S
O55 Co42 2.244 1_455 S
O55 C45 1.272 . S
O55 Co47 2.135 . S
Co56 O57 2.216 . S
Co56 O58 2.091 . S
Co56 O60 2.004 1_554 S
Co56 O66 2.021 . S
Co56 O68 2.137 1_554 S
Co56 O69 2.244 . S
O57 Co56 2.216 . S
O57 C64 1.247 . S
O58 Co56 2.091 . S
O58 C64 1.261 . S
C59 O68 1.247 . S
C59 O69 1.272 1_556 S
O60 Co56 2.004 1_556 S
O60 C65 1.259 . S
Co61 O62 2.026 1_554 S
Co61 O67 2.110 . S
Co61 O69 2.138 . S
O62 Co61 2.026 1_556 S
O62 C65 1.235 . S
C63 O66 1.238 . S
C63 O67 1.241 . S
C64 O57 1.247 . S
C64 O58 1.261 . S
C65 O60 1.259 . S
C65 O62 1.235 . S
O66 Co56 2.021 . S
O66 C63 1.238 . S
O67 Co61 2.110 . S
O67 C63 1.241 . S
O68 Co56 2.137 1_556 S
O68 C59 1.247 . S
O69 Co56 2.244 . S
O69 C59 1.272 1_554 S
O69 Co61 2.138 . S
Co70 O71 2.216 . S
Co70 O72 2.091 . S
Co70 O74 2.004 1_554 S
Co70 O80 2.021 . S
Co70 O82 2.137 1_564 S
Co70 O83 2.244 1_565 S
O71 Co70 2.216 . S
O71 C78 1.247 . S
O72 Co70 2.091 . S
O72 C78 1.261 . S
C73 O82 1.247 . S
C73 O83 1.272 1_556 S
O74 Co70 2.004 1_556 S
O74 C79 1.250 1_565 S
Co75 O76 2.061 1_554 S
Co75 O81 2.052 . S
Co75 O83 2.135 . S
O76 Co75 2.061 1_556 S
O76 C79 1.244 . S
C77 O80 1.238 1_545 S
C77 O81 1.241 . S
C78 O71 1.247 . S
C78 O72 1.261 . S
C79 O74 1.250 1_545 S
C79 O76 1.244 . S
O80 Co70 2.021 . S
O80 C77 1.238 1_565 S
O81 Co75 2.052 . S
O81 C77 1.241 . S
O82 Co70 2.137 1_546 S
O82 C73 1.247 . S
O83 Co70 2.244 1_545 S
O83 C73 1.272 1_554 S
O83 Co75 2.135 . S
Co84 O85 2.216 . S
Co84 O86 2.091 . S
Co84 O88 2.004 . S
Co84 O94 2.021 . S
Co84 O96 2.137 . S
Co84 O97 2.244 . S
O85 Co84 2.216 . S
O85 C92 1.247 . S
O86 Co84 2.091 . S
O86 C92 1.261 . S
C87 O96 1.247 . S
C87 O97 1.272 . S
O88 Co84 2.004 . S
O88 C93 1.259 . S
Co89 O90 2.061 . S
Co89 O95 2.052 . S
Co89 O97 2.135 . S
O90 Co89 2.061 . S
O90 C93 1.235 . S
C91 O94 1.238 . S
C91 O95 1.241 . S
C92 O85 1.247 . S
C92 O86 1.261 . S
C93 O88 1.259 . S
C93 O90 1.235 . S
O94 Co84 2.021 . S
O94 C91 1.238 . S
O95 Co89 2.052 . S
O95 C91 1.241 . S
O96 Co84 2.137 . S
O96 C87 1.247 . S
O97 Co84 2.244 . S
O97 C87 1.272 . S
O97 Co89 2.135 . S
Co98 O99 2.216 . S
Co98 O100 2.091 . S
Co98 O102 2.004 . S
Co98 O108 2.021 . S
Co98 O110 2.137 1_565 S
Co98 O111 2.321 . S
O99 Co98 2.216 . S
O99 C106 1.247 . S
O100 Co98 2.091 . S
O100 C106 1.261 . S
C101 O110 1.247 . S
C101 O111 1.261 1_545 S
O102 Co98 2.004 . S
O102 C107 1.259 . S
Co103 O104 2.061 . S
Co103 O109 2.052 . S
Co103 O111 2.144 . S
O104 Co103 2.061 . S
O104 C107 1.235 . S
C105 O108 1.238 . S
C105 O109 1.241 . S
C106 O99 1.247 . S
C106 O100 1.261 . S
C107 O102 1.259 . S
C107 O104 1.235 . S
O108 Co98 2.021 . S
O108 C105 1.238 . S
O109 Co103 2.052 . S
O109 C105 1.241 . S
O110 Co98 2.137 1_545 S
O110 C101 1.247 . S
O111 Co98 2.321 . S
O111 C101 1.261 1_565 S
O111 Co103 2.144 . S
Co112 O113 2.216 . S
Co112 O114 2.091 . S
Co112 O116 2.004 . S
Co112 O122 2.021 . S
Co112 O124 2.137 . S
Co112 O125 2.244 . S
O113 Co112 2.216 . S
O113 C120 1.247 . S
O114 Co112 2.091 . S
O114 C120 1.261 . S
C115 O124 1.247 1_655 S
C115 O125 1.272 1_655 S
O116 Co112 2.004 . S
O116 C121 1.259 . S
Co117 O118 2.061 . S
Co117 O123 2.052 . S
Co117 O125 2.135 . S
O118 Co117 2.061 . S
O118 C121 1.235 . S
C119 O122 1.238 . S
C119 O123 1.241 . S
C120 O113 1.247 . S
C120 O114 1.261 . S
C121 O116 1.259 . S
C121 O118 1.235 . S
O122 Co112 2.021 . S
O122 C119 1.238 . S
O123 Co117 2.052 . S
O123 C119 1.241 . S
O124 Co112 2.137 . S
O124 C115 1.247 1_455 S
O125 Co112 2.244 . S
O125 C115 1.272 1_455 S
O125 Co117 2.135 . S
Co126 O127 2.216 . S
Co126 O128 2.091 . S
Co126 O130 2.004 . S
Co126 O136 2.021 . S
Co126 O138 2.137 1_565 S
Co126 O139 2.244 . S
O127 Co126 2.216 . S
O127 C134 1.247 . S
O128 Co126 2.091 . S
O128 C134 1.261 . S
C129 O138 1.247 . S
C129 O139 1.272 1_545 S
O130 Co126 2.004 . S
O130 C135 1.259 . S
Co131 O132 2.061 . S
Co131 O137 2.052 . S
Co131 O139 2.135 . S
O132 Co131 2.061 . S
O132 C135 1.235 . S
C133 O136 1.238 . S
C133 O137 1.241 . S
C134 O127 1.247 . S
C134 O128 1.261 . S
C135 O130 1.259 . S
C135 O132 1.235 . S
O136 Co126 2.021 . S
O136 C133 1.238 . S
O137 Co131 2.052 . S
O137 C133 1.241 . S
O138 Co126 2.137 1_545 S
O138 C129 1.247 . S
O139 Co126 2.244 . S
O139 C129 1.272 1_565 S
O139 Co131 2.135 . S
Co140 O141 2.216 1_455 S
Co140 O142 2.091 1_455 S
Co140 O144 2.004 . S
Co140 O150 2.021 . S
Co140 O152 2.141 . S
Co140 O153 2.244 . S
O141 Co140 2.216 1_655 S
O141 C148 1.247 . S
O142 Co140 2.091 1_655 S
O142 C148 1.261 . S
C143 O152 1.315 . S
C143 O153 1.272 . S
O144 Co140 2.004 . S
O144 C149 1.259 . S
Co145 O146 2.061 . S
Co145 O151 2.052 . S
Co145 O153 2.135 . S
O146 Co145 2.061 . S
O146 C149 1.235 . S
C147 O150 1.238 . S
C147 O151 1.241 . S
C148 O141 1.247 . S
C148 O142 1.261 . S
C149 O144 1.259 . S
C149 O146 1.235 . S
O150 Co140 2.021 . S
O150 C147 1.238 . S
O151 Co145 2.052 . S
O151 C147 1.241 . S
O152 Co140 2.141 . S
O152 C143 1.315 . S
O153 Co140 2.244 . S
O153 C143 1.272 . S
O153 Co145 2.135 . S
Co154 O155 2.216 . S
Co154 O156 2.091 . S
Co154 O158 2.004 . S
Co154 O164 2.021 . S
Co154 O166 2.137 . S
Co154 O167 2.244 . S
O155 Co154 2.216 . S
O155 C162 1.247 . S
O156 Co154 2.091 . S
O156 C162 1.261 . S
C157 O166 1.247 . S
C157 O167 1.272 . S
O158 Co154 2.004 . S
O158 C163 1.259 . S
Co159 O160 2.061 . S
Co159 O165 2.052 . S
Co159 O167 2.135 . S
O160 Co159 2.061 . S
O160 C163 1.235 . S
C161 O164 1.238 . S
C161 O165 1.241 . S
C162 O155 1.247 . S
C162 O156 1.261 . S
C163 O158 1.259 . S
C163 O160 1.235 . S
O164 Co154 2.021 . S
O164 C161 1.238 . S
O165 Co159 2.052 . S
O165 C161 1.241 . S
O166 Co154 2.137 . S
O166 C157 1.247 . S
O167 Co154 2.244 . S
O167 C157 1.272 . S
O167 Co159 2.135 . S
Co168 O169 2.216 . S
Co168 O170 2.091 . S
Co168 O172 2.004 . S
Co168 O178 2.021 . S
Co168 O180 2.156 . S
Co168 O181 2.244 . S
O169 Co168 2.216 . S
O169 C176 1.247 . S
O170 Co168 2.091 . S
O170 C176 1.261 . S
C171 O180 1.253 1_565 S
C171 O181 1.272 1_565 S
O172 Co168 2.004 . S
O172 C177 1.259 . S
Co173 O174 2.061 . S
Co173 O179 2.052 . S
Co173 O181 2.135 . S
O174 Co173 2.061 . S
O174 C177 1.235 . S
C175 O178 1.238 . S
C175 O179 1.241 . S
C176 O169 1.247 . S
C176 O170 1.261 . S
C177 O172 1.259 . S
C177 O174 1.235 . S
O178 Co168 2.021 . S
O178 C175 1.238 . S
O179 Co173 2.052 . S
O179 C175 1.241 . S
O180 Co168 2.156 . S
O180 C171 1.253 1_545 S
O181 Co168 2.244 . S
O181 C171 1.272 1_545 S
O181 Co173 2.135 . S
Co182 O183 2.216 1_655 S
Co182 O184 2.091 1_655 S
Co182 O186 2.004 . S
Co182 O192 2.021 . S
Co182 O194 2.137 1_655 S
Co182 O195 2.244 . S
O183 Co182 2.216 1_455 S
O183 C190 1.247 . S
O184 Co182 2.091 1_455 S
O184 C190 1.261 . S
C185 O194 1.226 1_655 S
C185 O195 1.272 . S
O186 Co182 2.004 . S
O186 C191 1.259 . S
Co187 O188 2.061 . S
Co187 O193 2.052 . S
Co187 O195 2.135 . S
O188 Co187 2.061 . S
O188 C191 1.235 . S
C189 O192 1.238 . S
C189 O193 1.241 . S
C190 O183 1.247 . S
C190 O184 1.261 . S
C191 O186 1.259 . S
C191 O188 1.235 . S
O192 Co182 2.021 . S
O192 C189 1.238 . S
O193 Co187 2.052 . S
O193 C189 1.241 . S
O194 Co182 2.137 1_455 S
O194 C185 1.226 1_455 S
O195 Co182 2.244 . S
O195 C185 1.272 . S
O195 Co187 2.135 . S
Co196 O197 2.216 . S
Co196 O198 2.091 . S
Co196 O200 2.004 . S
Co196 O206 2.021 . S
Co196 O208 2.137 . S
Co196 O209 2.244 . S
O197 Co196 2.216 . S
O197 C204 1.247 . S
O198 Co196 2.091 . S
O198 C204 1.261 . S
C199 O208 1.247 . S
C199 O209 1.272 . S
O200 Co196 2.004 . S
O200 C205 1.259 . S
Co201 O202 2.061 . S
Co201 O207 2.052 . S
Co201 O209 2.135 . S
O202 Co201 2.061 . S
O202 C205 1.235 . S
C203 O206 1.238 . S
C203 O207 1.241 . S
C204 O197 1.247 . S
C204 O198 1.261 . S
C205 O200 1.259 . S
C205 O202 1.235 . S
O206 Co196 2.021 . S
O206 C203 1.238 . S
O207 Co201 2.052 . S
O207 C203 1.241 . S
O208 Co196 2.137 . S
O208 C199 1.247 . S
O209 Co196 2.244 . S
O209 C199 1.272 . S
O209 Co201 2.135 . S
Co210 O211 2.216 . S
Co210 O212 2.091 . S
Co210 O214 2.004 . S
Co210 O220 2.021 . S
Co210 O222 2.137 . S
Co210 O223 2.244 . S
O211 Co210 2.216 . S
O211 C218 1.247 . S
O212 Co210 2.091 . S
O212 C218 1.261 . S
C213 O222 1.247 . S
C213 O223 1.272 . S
O214 Co210 2.004 . S
O214 C219 1.259 . S
Co215 O216 2.061 . S
Co215 O221 2.052 . S
Co215 O223 2.135 . S
O216 Co215 2.061 . S
O216 C219 1.235 . S
C217 O220 1.238 . S
C217 O221 1.241 . S
C218 O211 1.247 . S
C218 O212 1.261 . S
C219 O214 1.259 . S
C219 O216 1.235 . S
O220 Co210 2.021 . S
O220 C217 1.238 . S
O221 Co215 2.052 . S
O221 C217 1.241 . S
O222 Co210 2.137 . S
O222 C213 1.247 . S
O223 Co210 2.244 . S
O223 C213 1.272 . S
O223 Co215 2.135 . S
Co224 O225 2.216 . S
Co224 O226 2.091 . S
Co224 O228 2.004 . S
Co224 O234 2.021 . S
Co224 O236 2.158 . S
Co224 O237 2.244 . S
O225 Co224 2.216 . S
O225 C232 1.247 . S
O226 Co224 2.091 . S
O226 C232 1.261 . S
C227 O236 1.224 1_565 S
C227 O237 1.272 1_565 S
O228 Co224 2.004 . S
O228 C233 1.259 . S
Co229 O230 2.061 . S
Co229 O235 2.052 . S
Co229 O237 2.135 . S
O230 Co229 2.061 . S
O230 C233 1.235 . S
C231 O234 1.238 . S
C231 O235 1.241 . S
C232 O225 1.247 . S
C232 O226 1.261 . S
C233 O228 1.259 . S
C233 O230 1.235 . S
O234 Co224 2.021 . S
O234 C231 1.238 . S
O235 Co229 2.052 . S
O235 C231 1.241 . S
O236 Co224 2.158 . S
O236 C227 1.224 1_545 S
O237 Co224 2.244 . S
O237 C227 1.272 1_545 S
O237 Co229 2.135 . S
Co238 O239 2.216 . S
Co238 O240 2.091 . S
Co238 O242 2.004 . S
Co238 O248 2.021 . S
Co238 O250 2.188 . S
Co238 O251 2.244 . S
O239 Co238 2.216 . S
O239 C246 1.247 . S
O240 Co238 2.091 . S
O240 C246 1.261 . S
C241 O250 1.264 1_455 S
C241 O251 1.272 1_455 S
O242 Co238 2.004 . S
O242 C247 1.259 . S
Co243 O244 2.061 . S
Co243 O249 2.052 . S
Co243 O251 2.135 . S
O244 Co243 2.061 . S
O244 C247 1.235 . S
C245 O248 1.238 . S
C245 O249 1.241 . S
C246 O239 1.247 . S
C246 O240 1.261 . S
C247 O242 1.259 . S
C247 O244 1.235 . S
O248 Co238 2.021 . S
O248 C245 1.238 . S
O249 Co243 2.052 . S
O249 C245 1.241 . S
O250 Co238 2.188 . S
O250 C241 1.264 1_655 S
O251 Co238 2.244 . S
O251 C241 1.272 1_655 S
O251 Co243 2.135 . S
H252 C271 0.949 . S
H253 C272 0.950 . S
H254 C274 0.950 . S
H255 C275 0.950 . S
H256 C277 0.950 . S
H257 C280 0.950 . S
H258 C281 0.950 . S
H259 C283 0.951 . S
H260 C284 0.949 . S
H261 C286 0.949 . S
H262 C287 0.950 . S
H263 C289 0.950 . S
H264 C290 0.950 . S
H265 C292 0.950 . S
H266 C295 0.950 . S
H267 C296 0.950 . S
H268 C298 0.951 . S
H269 C299 0.949 . S
C270 C271 1.376 . S
C270 C275 1.386 . S
C270 C276 1.483 . S
C271 H252 0.949 . S
C271 C270 1.376 . S
C271 C272 1.397 . S
C272 H253 0.950 . S
C272 C271 1.397 . S
C272 C273 1.391 . S
C273 C272 1.391 . S
C273 C274 1.405 . S
C274 H254 0.950 . S
C274 C273 1.405 . S
C274 C275 1.367 . S
C275 H255 0.950 . S
C275 C270 1.386 . S
C275 C274 1.367 . S
C276 C270 1.483 . S
C276 C277 1.382 . S
C276 C278 1.403 . S
C277 H256 0.950 . S
C277 C276 1.382 . S
C277 C293 1.411 . S
C278 C276 1.403 . S
C278 C279 1.489 . S
C278 C292 1.411 . S
C279 C278 1.489 . S
C279 C280 1.383 . S
C279 C284 1.382 . S
C280 H257 0.950 . S
C280 C279 1.383 . S
C280 C281 1.395 . S
C281 H258 0.950 . S
C281 C280 1.395 . S
C281 C282 1.288 . S
C282 C281 1.288 . S
C282 C283 1.392 . S
C283 H259 0.951 . S
C283 C282 1.392 . S
C283 C284 1.392 . S
C284 H260 0.949 . S
C284 C279 1.382 . S
C284 C283 1.392 . S
C285 C286 1.376 . S
C285 C290 1.386 . S
C285 C291 1.483 . S
C286 H261 0.949 . S
C286 C285 1.376 . S
C286 C287 1.397 . S
C287 H262 0.950 . S
C287 C286 1.397 . S
C287 C288 1.391 . S
C288 C287 1.391 . S
C288 C289 1.405 . S
C289 H263 0.950 . S
C289 C288 1.405 . S
C289 C290 1.367 . S
C290 H264 0.950 . S
C290 C285 1.386 . S
C290 C289 1.367 . S
C291 C285 1.483 . S
C291 C292 1.382 . S
C291 C293 1.403 . S
C292 H265 0.950 . S
C292 C278 1.411 . S
C292 C291 1.382 . S
C293 C277 1.411 . S
C293 C291 1.403 . S
C293 C294 1.489 . S
C294 C293 1.489 . S
C294 C295 1.383 . S
C294 C299 1.382 . S
C295 H266 0.950 . S
C295 C294 1.383 . S
C295 C296 1.395 . S
C296 H267 0.950 . S
C296 C295 1.395 . S
C296 C297 1.288 . S
C297 C296 1.288 . S
C297 C298 1.392 . S
C298 H268 0.951 . S
C298 C297 1.392 . S
C298 C299 1.392 . S
C299 H269 0.949 . S
C299 C294 1.382 . S
C299 C298 1.392 . S
H300 C319 0.949 . S
H301 C320 0.950 . S
H302 C322 0.950 . S
H303 C323 0.950 . S
H304 C325 0.950 . S
H305 C328 0.950 . S
H306 C329 0.950 . S
H307 C331 0.951 . S
H308 C332 0.949 . S
H309 C334 0.949 . S
H310 C335 0.950 . S
H311 C337 0.950 . S
H312 C338 0.950 . S
H313 C340 0.950 . S
H314 C343 0.950 . S
H315 C344 0.950 . S
H316 C346 0.951 . S
H317 C347 0.949 . S
C318 C319 1.376 . S
C318 C323 1.386 . S
C318 C324 1.483 . S
C319 H300 0.949 . S
C319 C318 1.376 . S
C319 C320 1.397 . S
C320 H301 0.950 . S
C320 C319 1.397 . S
C320 C321 1.391 . S
C321 C320 1.391 . S
C321 C322 1.405 . S
C322 H302 0.950 . S
C322 C321 1.405 . S
C322 C323 1.367 . S
C323 H303 0.950 . S
C323 C318 1.386 . S
C323 C322 1.367 . S
C324 C318 1.483 . S
C324 C325 1.382 . S
C324 C326 1.403 . S
C325 H304 0.950 . S
C325 C324 1.382 . S
C325 C341 1.411 . S
C326 C324 1.403 . S
C326 C327 1.489 . S
C326 C340 1.411 . S
C327 C326 1.489 . S
C327 C328 1.383 . S
C327 C332 1.382 . S
C328 H305 0.950 . S
C328 C327 1.383 . S
C328 C329 1.395 . S
C329 H306 0.950 . S
C329 C328 1.395 . S
C329 C330 1.288 . S
C330 C329 1.288 . S
C330 C331 1.392 . S
C331 H307 0.951 . S
C331 C330 1.392 . S
C331 C332 1.392 . S
C332 H308 0.949 . S
C332 C327 1.382 . S
C332 C331 1.392 . S
C333 C334 1.376 . S
C333 C338 1.386 . S
C333 C339 1.483 . S
C334 H309 0.949 . S
C334 C333 1.376 . S
C334 C335 1.397 . S
C335 H310 0.950 . S
C335 C334 1.397 . S
C335 C336 1.391 . S
C336 C335 1.391 . S
C336 C337 1.405 . S
C337 H311 0.950 . S
C337 C336 1.405 . S
C337 C338 1.367 . S
C338 H312 0.950 . S
C338 C333 1.386 . S
C338 C337 1.367 . S
C339 C333 1.483 . S
C339 C340 1.382 . S
C339 C341 1.403 . S
C340 H313 0.950 . S
C340 C326 1.411 . S
C340 C339 1.382 . S
C341 C325 1.411 . S
C341 C339 1.403 . S
C341 C342 1.489 . S
C342 C341 1.489 . S
C342 C343 1.383 . S
C342 C347 1.382 . S
C343 H314 0.950 . S
C343 C342 1.383 . S
C343 C344 1.395 . S
C344 H315 0.950 . S
C344 C343 1.395 . S
C344 C345 1.288 . S
C345 C344 1.288 . S
C345 C346 1.392 . S
C346 H316 0.951 . S
C346 C345 1.392 . S
C346 C347 1.392 . S
C347 H317 0.949 . S
C347 C342 1.382 . S
C347 C346 1.392 . S
H348 C367 0.949 . S
H349 C368 0.950 . S
H350 C370 0.950 . S
H351 C371 0.950 . S
H352 C373 0.950 . S
H353 C376 0.950 . S
H354 C377 0.950 . S
H355 C379 0.951 . S
H356 C380 0.949 . S
H357 C382 0.949 . S
H358 C383 0.950 . S
H359 C385 0.950 . S
H360 C386 0.950 . S
H361 C388 0.950 . S
H362 C391 0.950 . S
H363 C392 0.950 . S
H364 C394 0.951 . S
H365 C395 0.949 . S
C366 C367 1.376 . S
C366 C371 1.386 . S
C366 C372 1.483 . S
C367 H348 0.949 . S
C367 C366 1.376 . S
C367 C368 1.397 . S
C368 H349 0.950 . S
C368 C367 1.397 . S
C368 C369 1.391 . S
C369 C368 1.391 . S
C369 C370 1.405 . S
C370 H350 0.950 . S
C370 C369 1.405 . S
C370 C371 1.367 . S
C371 H351 0.950 . S
C371 C366 1.386 . S
C371 C370 1.367 . S
C372 C366 1.483 . S
C372 C373 1.382 . S
C372 C374 1.403 . S
C373 H352 0.950 . S
C373 C372 1.382 . S
C373 C389 1.411 . S
C374 C372 1.403 . S
C374 C375 1.489 . S
C374 C388 1.411 . S
C375 C374 1.489 . S
C375 C376 1.383 . S
C375 C380 1.382 . S
C376 H353 0.950 . S
C376 C375 1.383 . S
C376 C377 1.395 . S
C377 H354 0.950 . S
C377 C376 1.395 . S
C377 C378 1.288 . S
C378 C377 1.288 . S
C378 C379 1.392 . S
C379 H355 0.951 . S
C379 C378 1.392 . S
C379 C380 1.392 . S
C380 H356 0.949 . S
C380 C375 1.382 . S
C380 C379 1.392 . S
C381 C382 1.376 . S
C381 C386 1.386 . S
C381 C387 1.483 . S
C382 H357 0.949 . S
C382 C381 1.376 . S
C382 C383 1.397 . S
C383 H358 0.950 . S
C383 C382 1.397 . S
C383 C384 1.391 . S
C384 C383 1.391 . S
C384 C385 1.405 . S
C385 H359 0.950 . S
C385 C384 1.405 . S
C385 C386 1.367 . S
C386 H360 0.950 . S
C386 C381 1.386 . S
C386 C385 1.367 . S
C387 C381 1.483 . S
C387 C388 1.382 . S
C387 C389 1.403 . S
C388 H361 0.950 . S
C388 C374 1.411 . S
C388 C387 1.382 . S
C389 C373 1.411 . S
C389 C387 1.403 . S
C389 C390 1.489 . S
C390 C389 1.489 . S
C390 C391 1.383 . S
C390 C395 1.382 . S
C391 H362 0.950 . S
C391 C390 1.383 . S
C391 C392 1.395 . S
C392 H363 0.950 . S
C392 C391 1.395 . S
C392 C393 1.288 . S
C393 C392 1.288 . S
C393 C394 1.392 . S
C394 H364 0.951 . S
C394 C393 1.392 . S
C394 C395 1.392 . S
C395 H365 0.949 . S
C395 C390 1.382 . S
C395 C394 1.392 . S
H396 C415 0.949 . S
H397 C416 0.950 . S
H398 C418 0.950 . S
H399 C419 0.950 . S
H400 C421 0.950 . S
H401 C424 0.950 . S
H402 C425 0.950 . S
H403 C427 0.951 . S
H404 C428 0.949 . S
H405 C430 0.949 . S
H406 C431 0.950 . S
H407 C433 0.950 . S
H408 C434 0.950 . S
H409 C436 0.950 . S
H410 C439 0.950 . S
H411 C440 0.950 . S
H412 C442 0.951 . S
H413 C443 0.949 . S
C414 C415 1.376 . S
C414 C419 1.386 . S
C414 C420 1.483 . S
C415 H396 0.949 . S
C415 C414 1.376 . S
C415 C416 1.397 . S
C416 H397 0.950 . S
C416 C415 1.397 . S
C416 C417 1.391 . S
C417 C416 1.391 . S
C417 C418 1.405 . S
C418 H398 0.950 . S
C418 C417 1.405 . S
C418 C419 1.367 . S
C419 H399 0.950 . S
C419 C414 1.386 . S
C419 C418 1.367 . S
C420 C414 1.483 . S
C420 C421 1.382 . S
C420 C422 1.403 . S
C421 H400 0.950 . S
C421 C420 1.382 . S
C421 C437 1.411 . S
C422 C420 1.403 . S
C422 C423 1.489 . S
C422 C436 1.411 . S
C423 C422 1.489 . S
C423 C424 1.383 . S
C423 C428 1.382 . S
C424 H401 0.950 . S
C424 C423 1.383 . S
C424 C425 1.395 . S
C425 H402 0.950 . S
C425 C424 1.395 . S
C425 C426 1.288 . S
C426 C425 1.288 . S
C426 C427 1.392 . S
C427 H403 0.951 . S
C427 C426 1.392 . S
C427 C428 1.392 . S
C428 H404 0.949 . S
C428 C423 1.382 . S
C428 C427 1.392 . S
C429 C430 1.376 . S
C429 C434 1.386 . S
C429 C435 1.483 . S
C430 H405 0.949 . S
C430 C429 1.376 . S
C430 C431 1.397 . S
C431 H406 0.950 . S
C431 C430 1.397 . S
C431 C432 1.391 . S
C432 C431 1.391 . S
C432 C433 1.405 . S
C433 H407 0.950 . S
C433 C432 1.405 . S
C433 C434 1.367 . S
C434 H408 0.950 . S
C434 C429 1.386 . S
C434 C433 1.367 . S
C435 C429 1.483 . S
C435 C436 1.382 . S
C435 C437 1.403 . S
C436 H409 0.950 . S
C436 C422 1.411 . S
C436 C435 1.382 . S
C437 C421 1.411 . S
C437 C435 1.403 . S
C437 C438 1.489 . S
C438 C437 1.489 . S
C438 C439 1.383 . S
C438 C443 1.382 . S
C439 H410 0.950 . S
C439 C438 1.383 . S
C439 C440 1.395 . S
C440 H411 0.950 . S
C440 C439 1.395 . S
C440 C441 1.288 . S
C441 C440 1.288 . S
C441 C442 1.392 . S
C442 H412 0.951 . S
C442 C441 1.392 . S
C442 C443 1.392 . S
C443 H413 0.949 . S
C443 C438 1.382 . S
C443 C442 1.392 . S
H444 C463 0.949 . S
H445 C464 0.950 . S
H446 C466 0.950 . S
H447 C467 0.950 . S
H448 C469 0.950 . S
H449 C472 0.950 . S
H450 C473 0.950 . S
H451 C475 0.951 . S
H452 C476 0.949 . S
H453 C478 0.949 . S
H454 C479 0.950 . S
H455 C481 0.950 . S
H456 C482 0.950 . S
H457 C484 0.950 . S
H458 C487 0.950 . S
H459 C488 0.950 . S
H460 C490 0.951 . S
H461 C491 0.949 . S
C462 C463 1.376 . S
C462 C467 1.386 . S
C462 C468 1.483 . S
C463 H444 0.949 . S
C463 C462 1.376 . S
C463 C464 1.397 . S
C464 H445 0.950 . S
C464 C463 1.397 . S
C464 C465 1.391 . S
C465 C464 1.391 . S
C465 C466 1.405 . S
C466 H446 0.950 . S
C466 C465 1.405 . S
C466 C467 1.367 . S
C467 H447 0.950 . S
C467 C462 1.386 . S
C467 C466 1.367 . S
C468 C462 1.483 . S
C468 C469 1.382 . S
C468 C470 1.403 . S
C469 H448 0.950 . S
C469 C468 1.382 . S
C469 C485 1.411 . S
C470 C468 1.403 . S
C470 C471 1.489 . S
C470 C484 1.411 . S
C471 C470 1.489 . S
C471 C472 1.383 . S
C471 C476 1.382 . S
C472 H449 0.950 . S
C472 C471 1.383 . S
C472 C473 1.395 . S
C473 H450 0.950 . S
C473 C472 1.395 . S
C473 C474 1.288 . S
C474 C473 1.288 . S
C474 C475 1.392 . S
C475 H451 0.951 . S
C475 C474 1.392 . S
C475 C476 1.392 . S
C476 H452 0.949 . S
C476 C471 1.382 . S
C476 C475 1.392 . S
C477 C478 1.376 . S
C477 C482 1.386 . S
C477 C483 1.483 . S
C478 H453 0.949 . S
C478 C477 1.376 . S
C478 C479 1.397 . S
C479 H454 0.950 . S
C479 C478 1.397 . S
C479 C480 1.391 . S
C480 C479 1.391 . S
C480 C481 1.405 . S
C481 H455 0.950 . S
C481 C480 1.405 . S
C481 C482 1.367 . S
C482 H456 0.950 . S
C482 C477 1.386 . S
C482 C481 1.367 . S
C483 C477 1.483 . S
C483 C484 1.382 . S
C483 C485 1.403 . S
C484 H457 0.950 . S
C484 C470 1.411 . S
C484 C483 1.382 . S
C485 C469 1.411 . S
C485 C483 1.403 . S
C485 C486 1.489 . S
C486 C485 1.489 . S
C486 C487 1.383 . S
C486 C491 1.382 . S
C487 H458 0.950 . S
C487 C486 1.383 . S
C487 C488 1.395 . S
C488 H459 0.950 . S
C488 C487 1.395 . S
C488 C489 1.288 . S
C489 C488 1.288 . S
C489 C490 1.392 . S
C490 H460 0.951 . S
C490 C489 1.392 . S
C490 C491 1.392 . S
C491 H461 0.949 . S
C491 C486 1.382 . S
C491 C490 1.392 . S
H492 C511 0.949 . S
H493 C512 0.950 . S
H494 C514 0.950 . S
H495 C515 0.950 . S
H496 C517 0.950 . S
H497 C520 0.950 . S
H498 C521 0.950 . S
H499 C523 0.951 . S
H500 C524 0.949 . S
H501 C526 0.949 . S
H502 C527 0.950 . S
H503 C529 0.950 . S
H504 C530 0.950 . S
H505 C532 0.950 . S
H506 C535 0.950 . S
H507 C536 0.950 . S
H508 C538 0.951 . S
H509 C539 0.949 . S
C510 C511 1.376 . S
C510 C515 1.386 . S
C510 C516 1.483 . S
C511 H492 0.949 . S
C511 C510 1.376 . S
C511 C512 1.397 . S
C512 H493 0.950 . S
C512 C511 1.397 . S
C512 C513 1.391 . S
C513 C512 1.391 . S
C513 C514 1.405 . S
C514 H494 0.950 . S
C514 C513 1.405 . S
C514 C515 1.367 . S
C515 H495 0.950 . S
C515 C510 1.386 . S
C515 C514 1.367 . S
C516 C510 1.483 . S
C516 C517 1.382 . S
C516 C518 1.403 . S
C517 H496 0.950 . S
C517 C516 1.382 . S
C517 C533 1.411 . S
C518 C516 1.403 . S
C518 C519 1.489 . S
C518 C532 1.411 . S
C519 C518 1.489 . S
C519 C520 1.383 . S
C519 C524 1.382 . S
C520 H497 0.950 . S
C520 C519 1.383 . S
C520 C521 1.395 . S
C521 H498 0.950 . S
C521 C520 1.395 . S
C521 C522 1.288 . S
C522 C521 1.288 . S
C522 C523 1.392 . S
C523 H499 0.951 . S
C523 C522 1.392 . S
C523 C524 1.392 . S
C524 H500 0.949 . S
C524 C519 1.382 . S
C524 C523 1.392 . S
C525 C526 1.376 . S
C525 C530 1.386 . S
C525 C531 1.483 . S
C526 H501 0.949 . S
C526 C525 1.376 . S
C526 C527 1.397 . S
C527 H502 0.950 . S
C527 C526 1.397 . S
C527 C528 1.391 . S
C528 C527 1.391 . S
C528 C529 1.405 . S
C529 H503 0.950 . S
C529 C528 1.405 . S
C529 C530 1.367 . S
C530 H504 0.950 . S
C530 C525 1.386 . S
C530 C529 1.367 . S
C531 C525 1.483 . S
C531 C532 1.382 . S
C531 C533 1.403 . S
C532 H505 0.950 . S
C532 C518 1.411 . S
C532 C531 1.382 . S
C533 C517 1.411 . S
C533 C531 1.403 . S
C533 C534 1.489 . S
C534 C533 1.489 . S
C534 C535 1.383 . S
C534 C539 1.382 . S
C535 H506 0.950 . S
C535 C534 1.383 . S
C535 C536 1.395 . S
C536 H507 0.950 . S
C536 C535 1.395 . S
C536 C537 1.288 . S
C537 C536 1.288 . S
C537 C538 1.392 . S
C538 H508 0.951 . S
C538 C537 1.392 . S
C538 C539 1.392 . S
C539 H509 0.949 . S
C539 C534 1.382 . S
C539 C538 1.392 . S
H540 C559 0.949 . S
H541 C560 0.950 . S
H542 C562 0.950 . S
H543 C563 0.950 . S
H544 C565 0.950 . S
H545 C568 0.950 . S
H546 C569 0.950 . S
H547 C571 0.951 . S
H548 C572 0.949 . S
H549 C574 0.949 . S
H550 C575 0.950 . S
H551 C577 0.950 . S
H552 C578 0.950 . S
H553 C580 0.950 . S
H554 C583 0.950 . S
H555 C584 0.950 . S
H556 C586 0.951 . S
H557 C587 0.949 . S
C558 C559 1.376 . S
C558 C563 1.386 . S
C558 C564 1.483 . S
C559 H540 0.949 . S
C559 C558 1.376 . S
C559 C560 1.397 . S
C560 H541 0.950 . S
C560 C559 1.397 . S
C560 C561 1.391 . S
C561 C560 1.391 . S
C561 C562 1.405 . S
C562 H542 0.950 . S
C562 C561 1.405 . S
C562 C563 1.367 . S
C563 H543 0.950 . S
C563 C558 1.386 . S
C563 C562 1.367 . S
C564 C558 1.483 . S
C564 C565 1.382 . S
C564 C566 1.403 . S
C565 H544 0.950 . S
C565 C564 1.382 . S
C565 C581 1.411 . S
C566 C564 1.403 . S
C566 C567 1.489 . S
C566 C580 1.411 . S
C567 C566 1.489 . S
C567 C568 1.383 . S
C567 C572 1.382 . S
C568 H545 0.950 . S
C568 C567 1.383 . S
C568 C569 1.395 . S
C569 H546 0.950 . S
C569 C568 1.395 . S
C569 C570 1.288 . S
C570 C569 1.288 . S
C570 C571 1.392 . S
C571 H547 0.951 . S
C571 C570 1.392 . S
C571 C572 1.392 . S
C572 H548 0.949 . S
C572 C567 1.382 . S
C572 C571 1.392 . S
C573 C574 1.376 . S
C573 C578 1.386 . S
C573 C579 1.483 . S
C574 H549 0.949 . S
C574 C573 1.376 . S
C574 C575 1.397 . S
C575 H550 0.950 . S
C575 C574 1.397 . S
C575 C576 1.391 . S
C576 C575 1.391 . S
C576 C577 1.405 . S
C577 H551 0.950 . S
C577 C576 1.405 . S
C577 C578 1.367 . S
C578 H552 0.950 . S
C578 C573 1.386 . S
C578 C577 1.367 . S
C579 C573 1.483 . S
C579 C580 1.382 . S
C579 C581 1.403 . S
C580 H553 0.950 . S
C580 C566 1.411 . S
C580 C579 1.382 . S
C581 C565 1.411 . S
C581 C579 1.403 . S
C581 C582 1.489 . S
C582 C581 1.489 . S
C582 C583 1.383 . S
C582 C587 1.382 . S
C583 H554 0.950 . S
C583 C582 1.383 . S
C583 C584 1.395 . S
C584 H555 0.950 . S
C584 C583 1.395 . S
C584 C585 1.288 . S
C585 C584 1.288 . S
C585 C586 1.392 . S
C586 H556 0.951 . S
C586 C585 1.392 . S
C586 C587 1.392 . S
C587 H557 0.949 . S
C587 C582 1.382 . S
C587 C586 1.392 . S
H588 C607 0.949 . S
H589 C608 0.950 . S
H590 C610 0.950 . S
H591 C611 0.950 . S
H592 C613 0.950 . S
H593 C616 0.950 . S
H594 C617 0.950 . S
H595 C619 0.951 . S
H596 C620 0.949 . S
H597 C622 0.949 . S
H598 C623 0.950 . S
H599 C625 0.950 . S
H600 C626 0.950 . S
H601 C628 0.950 . S
H602 C631 0.950 . S
H603 C632 0.950 . S
H604 C634 0.951 . S
H605 C635 0.949 . S
C606 C607 1.376 . S
C606 C611 1.386 . S
C606 C612 1.483 . S
C607 H588 0.949 . S
C607 C606 1.376 . S
C607 C608 1.397 . S
C608 H589 0.950 . S
C608 C607 1.397 . S
C608 C609 1.391 . S
C609 C608 1.391 . S
C609 C610 1.405 . S
C610 H590 0.950 . S
C610 C609 1.405 . S
C610 C611 1.367 . S
C611 H591 0.950 . S
C611 C606 1.386 . S
C611 C610 1.367 . S
C612 C606 1.483 . S
C612 C613 1.382 . S
C612 C614 1.403 . S
C613 H592 0.950 . S
C613 C612 1.382 . S
C613 C629 1.411 . S
C614 C612 1.403 . S
C614 C615 1.489 . S
C614 C628 1.411 . S
C615 C614 1.489 . S
C615 C616 1.383 . S
C615 C620 1.382 . S
C616 H593 0.950 . S
C616 C615 1.383 . S
C616 C617 1.395 . S
C617 H594 0.950 . S
C617 C616 1.395 . S
C617 C618 1.288 . S
C618 C617 1.288 . S
C618 C619 1.392 . S
C619 H595 0.951 . S
C619 C618 1.392 . S
C619 C620 1.392 . S
C620 H596 0.949 . S
C620 C615 1.382 . S
C620 C619 1.392 . S
C621 C622 1.376 . S
C621 C626 1.386 . S
C621 C627 1.483 . S
C622 H597 0.949 . S
C622 C621 1.376 . S
C622 C623 1.397 . S
C623 H598 0.950 . S
C623 C622 1.397 . S
C623 C624 1.391 . S
C624 C623 1.391 . S
C624 C625 1.405 . S
C625 H599 0.950 . S
C625 C624 1.405 . S
C625 C626 1.367 . S
C626 H600 0.950 . S
C626 C621 1.386 . S
C626 C625 1.367 . S
C627 C621 1.483 . S
C627 C628 1.382 . S
C627 C629 1.403 . S
C628 H601 0.950 . S
C628 C614 1.411 . S
C628 C627 1.382 . S
C629 C613 1.411 . S
C629 C627 1.403 . S
C629 C630 1.489 . S
C630 C629 1.489 . S
C630 C631 1.383 . S
C630 C635 1.382 . S
C631 H602 0.950 . S
C631 C630 1.383 . S
C631 C632 1.395 . S
C632 H603 0.950 . S
C632 C631 1.395 . S
C632 C633 1.288 . S
C633 C632 1.288 . S
C633 C634 1.392 . S
C634 H604 0.951 . S
C634 C633 1.392 . S
C634 C635 1.392 . S
C635 H605 0.949 . S
C635 C630 1.382 . S
C635 C634 1.392 . S
H636 C655 0.949 . S
H637 C656 0.950 . S
H638 C658 0.950 . S
H639 C659 0.950 . S
H640 C661 0.950 . S
H641 C664 0.950 . S
H642 C665 0.950 . S
H643 C667 0.951 . S
H644 C668 0.949 . S
H645 C670 0.949 . S
H646 C671 0.950 . S
H647 C673 0.950 . S
H648 C674 0.950 . S
H649 C676 0.950 . S
H650 C679 0.950 . S
H651 C680 0.950 . S
H652 C682 0.951 . S
H653 C683 0.949 . S
C654 C655 1.376 . S
C654 C659 1.386 . S
C654 C660 1.483 . S
C655 H636 0.949 . S
C655 C654 1.376 . S
C655 C656 1.397 . S
C656 H637 0.950 . S
C656 C655 1.397 . S
C656 C657 1.391 . S
C657 C656 1.391 . S
C657 C658 1.405 . S
C658 H638 0.950 . S
C658 C657 1.405 . S
C658 C659 1.367 . S
C659 H639 0.950 . S
C659 C654 1.386 . S
C659 C658 1.367 . S
C660 C654 1.483 . S
C660 C661 1.382 . S
C660 C662 1.403 . S
C661 H640 0.950 . S
C661 C660 1.382 . S
C661 C677 1.411 . S
C662 C660 1.403 . S
C662 C663 1.489 . S
C662 C676 1.411 . S
C663 C662 1.489 . S
C663 C664 1.383 . S
C663 C668 1.382 . S
C664 H641 0.950 . S
C664 C663 1.383 . S
C664 C665 1.395 . S
C665 H642 0.950 . S
C665 C664 1.395 . S
C665 C666 1.288 . S
C666 C665 1.288 . S
C666 C667 1.392 . S
C667 H643 0.951 . S
C667 C666 1.392 . S
C667 C668 1.392 . S
C668 H644 0.949 . S
C668 C663 1.382 . S
C668 C667 1.392 . S
C669 C670 1.376 . S
C669 C674 1.386 . S
C669 C675 1.483 . S
C670 H645 0.949 . S
C670 C669 1.376 . S
C670 C671 1.397 . S
C671 H646 0.950 . S
C671 C670 1.397 . S
C671 C672 1.391 . S
C672 C671 1.391 . S
C672 C673 1.405 . S
C673 H647 0.950 . S
C673 C672 1.405 . S
C673 C674 1.367 . S
C674 H648 0.950 . S
C674 C669 1.386 . S
C674 C673 1.367 . S
C675 C669 1.483 . S
C675 C676 1.382 . S
C675 C677 1.403 . S
C676 H649 0.950 . S
C676 C662 1.411 . S
C676 C675 1.382 . S
C677 C661 1.411 . S
C677 C675 1.403 . S
C677 C678 1.489 . S
C678 C677 1.489 . S
C678 C679 1.383 . S
C678 C683 1.382 . S
C679 H650 0.950 . S
C679 C678 1.383 . S
C679 C680 1.395 . S
C680 H651 0.950 . S
C680 C679 1.395 . S
C680 C681 1.288 . S
C681 C680 1.288 . S
C681 C682 1.392 . S
C682 H652 0.951 . S
C682 C681 1.392 . S
C682 C683 1.392 . S
C683 H653 0.949 . S
C683 C678 1.382 . S
C683 C682 1.392 . S
H684 C703 0.949 . S
H685 C704 0.950 . S
H686 C706 0.950 . S
H687 C707 0.950 . S
H688 C709 0.950 . S
H689 C712 0.950 . S
H690 C713 0.950 . S
H691 C715 0.951 . S
H692 C716 0.949 . S
H693 C718 0.949 . S
H694 C719 0.950 . S
H695 C721 0.950 . S
H696 C722 0.950 . S
H697 C724 0.950 . S
H698 C727 0.950 . S
H699 C728 0.950 . S
H700 C730 0.951 . S
H701 C731 0.949 . S
C702 C703 1.376 . S
C702 C707 1.386 1_655 S
C702 C708 1.483 . S
C703 H684 0.949 . S
C703 C702 1.376 . S
C703 C704 1.397 . S
C704 H685 0.950 . S
C704 C703 1.397 . S
C704 C705 1.391 . S
C705 C704 1.391 . S
C705 C706 1.405 1_655 S
C706 H686 0.950 . S
C706 C705 1.405 1_455 S
C706 C707 1.367 . S
C707 H687 0.950 . S
C707 C702 1.386 1_455 S
C707 C706 1.367 . S
C708 C702 1.483 . S
C708 C709 1.382 . S
C708 C710 1.403 1_655 S
C709 H688 0.950 . S
C709 C708 1.382 . S
C709 C725 1.411 . S
C710 C708 1.403 1_455 S
C710 C711 1.489 . S
C710 C724 1.411 . S
C711 C710 1.489 . S
C711 C712 1.383 1_455 S
C711 C716 1.382 . S
C712 H689 0.950 . S
C712 C711 1.383 1_655 S
C712 C713 1.395 . S
C713 H690 0.950 . S
C713 C712 1.395 . S
C713 C714 1.288 1_655 S
C714 C713 1.288 1_455 S
C714 C715 1.392 . S
C715 H691 0.951 . S
C715 C714 1.392 . S
C715 C716 1.392 . S
C716 H692 0.949 . S
C716 C711 1.382 . S
C716 C715 1.392 . S
C717 C718 1.376 . S
C717 C722 1.386 1_455 S
C717 C723 1.483 . S
C718 H693 0.949 . S
C718 C717 1.376 . S
C718 C719 1.397 . S
C719 H694 0.950 . S
C719 C718 1.397 . S
C719 C720 1.391 . S
C720 C719 1.391 . S
C720 C721 1.405 1_455 S
C721 H695 0.950 . S
C721 C720 1.405 1_655 S
C721 C722 1.367 . S
C722 H696 0.950 . S
C722 C717 1.386 1_655 S
C722 C721 1.367 . S
C723 C717 1.483 . S
C723 C724 1.382 . S
C723 C725 1.403 1_455 S
C724 H697 0.950 . S
C724 C710 1.411 . S
C724 C723 1.382 . S
C725 C709 1.411 . S
C725 C723 1.403 1_655 S
C725 C726 1.489 . S
C726 C725 1.489 . S
C726 C727 1.383 1_655 S
C726 C731 1.382 . S
C727 H698 0.950 . S
C727 C726 1.383 1_455 S
C727 C728 1.395 . S
C728 H699 0.950 . S
C728 C727 1.395 . S
C728 C729 1.288 1_455 S
C729 C728 1.288 1_655 S
C729 C730 1.392 . S
C730 H700 0.951 . S
C730 C729 1.392 . S
C730 C731 1.392 . S
C731 H701 0.949 . S
C731 C726 1.382 . S
C731 C730 1.392 . S
H732 C751 0.949 . S
H733 C752 0.950 . S
H734 C754 0.950 . S
H735 C755 0.950 . S
H736 C757 0.950 . S
H737 C760 0.950 . S
H738 C761 0.950 . S
H739 C763 0.951 . S
H740 C764 0.949 . S
H741 C766 0.949 . S
H742 C767 0.950 . S
H743 C769 0.950 . S
H744 C770 0.950 . S
H745 C772 0.950 . S
H746 C775 0.950 . S
H747 C776 0.950 . S
H748 C778 0.951 . S
H749 C779 0.949 . S
C750 C751 1.376 . S
C750 C755 1.386 . S
C750 C756 1.483 . S
C751 H732 0.949 . S
C751 C750 1.376 . S
C751 C752 1.397 . S
C752 H733 0.950 . S
C752 C751 1.397 . S
C752 C753 1.391 . S
C753 C752 1.391 . S
C753 C754 1.405 . S
C754 H734 0.950 . S
C754 C753 1.405 . S
C754 C755 1.367 . S
C755 H735 0.950 . S
C755 C750 1.386 . S
C755 C754 1.367 . S
C756 C750 1.483 . S
C756 C757 1.382 . S
C756 C758 1.403 . S
C757 H736 0.950 . S
C757 C756 1.382 . S
C757 C773 1.411 . S
C758 C756 1.403 . S
C758 C759 1.489 . S
C758 C772 1.411 . S
C759 C758 1.489 . S
C759 C760 1.383 . S
C759 C764 1.382 . S
C760 H737 0.950 . S
C760 C759 1.383 . S
C760 C761 1.395 . S
C761 H738 0.950 . S
C761 C760 1.395 . S
C761 C762 1.288 . S
C762 C761 1.288 . S
C762 C763 1.392 . S
C763 H739 0.951 . S
C763 C762 1.392 . S
C763 C764 1.392 . S
C764 H740 0.949 . S
C764 C759 1.382 . S
C764 C763 1.392 . S
C765 C766 1.376 . S
C765 C770 1.386 . S
C765 C771 1.483 . S
C766 H741 0.949 . S
C766 C765 1.376 . S
C766 C767 1.397 . S
C767 H742 0.950 . S
C767 C766 1.397 . S
C767 C768 1.391 . S
C768 C767 1.391 . S
C768 C769 1.405 . S
C769 H743 0.950 . S
C769 C768 1.405 . S
C769 C770 1.367 . S
C770 H744 0.950 . S
C770 C765 1.386 . S
C770 C769 1.367 . S
C771 C765 1.483 . S
C771 C772 1.382 . S
C771 C773 1.403 . S
C772 H745 0.950 . S
C772 C758 1.411 . S
C772 C771 1.382 . S
C773 C757 1.411 . S
C773 C771 1.403 . S
C773 C774 1.489 . S
C774 C773 1.489 . S
C774 C775 1.383 . S
C774 C779 1.382 . S
C775 H746 0.950 . S
C775 C774 1.383 . S
C775 C776 1.395 . S
C776 H747 0.950 . S
C776 C775 1.395 . S
C776 C777 1.288 . S
C777 C776 1.288 . S
C777 C778 1.392 . S
C778 H748 0.951 . S
C778 C777 1.392 . S
C778 C779 1.392 . S
C779 H749 0.949 . S
C779 C774 1.382 . S
C779 C778 1.392 . S
H780 C799 0.949 . S
H781 C800 0.950 . S
H782 C802 0.950 . S
H783 C803 0.950 . S
H784 C805 0.950 . S
H785 C808 0.950 . S
H786 C809 0.950 . S
H787 C811 0.951 . S
H788 C812 0.949 . S
H789 C814 0.949 . S
H790 C815 0.950 . S
H791 C817 0.950 . S
H792 C818 0.950 . S
H793 C820 0.950 . S
H794 C823 0.950 . S
H795 C824 0.950 . S
H796 C826 0.951 . S
H797 C827 0.949 . S
C798 C799 1.376 . S
C798 C803 1.386 1_545 S
C798 C804 1.483 . S
C799 H780 0.949 . S
C799 C798 1.376 . S
C799 C800 1.397 . S
C800 H781 0.950 . S
C800 C799 1.397 . S
C800 C801 1.391 . S
C801 C800 1.391 . S
C801 C802 1.405 1_545 S
C802 H782 0.950 . S
C802 C801 1.405 1_565 S
C802 C803 1.367 . S
C803 H783 0.950 . S
C803 C798 1.386 1_565 S
C803 C802 1.367 . S
C804 C798 1.483 . S
C804 C805 1.382 . S
C804 C806 1.403 1_545 S
C805 H784 0.950 . S
C805 C804 1.382 . S
C805 C821 1.411 . S
C806 C804 1.403 1_565 S
C806 C807 1.489 . S
C806 C820 1.411 . S
C807 C806 1.489 . S
C807 C808 1.383 1_565 S
C807 C812 1.382 . S
C808 H785 0.950 . S
C808 C807 1.383 1_545 S
C808 C809 1.395 . S
C809 H786 0.950 . S
C809 C808 1.395 . S
C809 C810 1.288 1_545 S
C810 C809 1.288 1_565 S
C810 C811 1.392 . S
C811 H787 0.951 . S
C811 C810 1.392 . S
C811 C812 1.392 . S
C812 H788 0.949 . S
C812 C807 1.382 . S
C812 C811 1.392 . S
C813 C814 1.376 . S
C813 C818 1.386 1_565 S
C813 C819 1.483 . S
C814 H789 0.949 . S
C814 C813 1.376 . S
C814 C815 1.397 . S
C815 H790 0.950 . S
C815 C814 1.397 . S
C815 C816 1.391 . S
C816 C815 1.391 . S
C816 C817 1.405 1_565 S
C817 H791 0.950 . S
C817 C816 1.405 1_545 S
C817 C818 1.367 . S
C818 H792 0.950 . S
C818 C813 1.386 1_545 S
C818 C817 1.367 . S
C819 C813 1.483 . S
C819 C820 1.382 . S
C819 C821 1.403 1_565 S
C820 H793 0.950 . S
C820 C806 1.411 . S
C820 C819 1.382 . S
C821 C805 1.411 . S
C821 C819 1.403 1_545 S
C821 C822 1.489 . S
C822 C821 1.489 . S
C822 C823 1.383 1_545 S
C822 C827 1.382 . S
C823 H794 0.950 . S
C823 C822 1.383 1_565 S
C823 C824 1.395 . S
C824 H795 0.950 . S
C824 C823 1.395 . S
C824 C825 1.288 1_565 S
C825 C824 1.288 1_545 S
C825 C826 1.392 . S
C826 H796 0.951 . S
C826 C825 1.392 . S
C826 C827 1.392 . S
C827 H797 0.949 . S
C827 C822 1.382 . S
C827 C826 1.392 . S
H828 C847 0.949 . S
H829 C848 0.950 . S
H830 C850 0.950 . S
H831 C851 0.950 . S
H832 C853 0.950 . S
H833 C856 0.950 . S
H834 C857 0.950 . S
H835 C859 0.951 . S
H836 C860 0.949 . S
H837 C862 0.949 . S
H838 C863 0.950 . S
H839 C865 0.950 . S
H840 C866 0.950 . S
H841 C868 0.950 . S
H842 C871 0.950 . S
H843 C872 0.950 . S
H844 C874 0.951 . S
H845 C875 0.949 . S
C846 C847 1.398 . S
C846 C851 1.376 1_545 S
C846 C852 1.500 . S
C847 H828 0.949 . S
C847 C846 1.398 . S
C847 C848 1.397 . S
C848 H829 0.950 . S
C848 C847 1.397 . S
C848 C849 1.391 1_545 S
C849 C848 1.391 1_565 S
C849 C850 1.405 . S
C850 H830 0.950 . S
C850 C849 1.405 . S
C850 C851 1.367 . S
C851 H831 0.950 . S
C851 C846 1.376 1_565 S
C851 C850 1.367 . S
C852 C846 1.500 . S
C852 C853 1.353 . S
C852 C854 1.400 1_545 S
C853 H832 0.950 . S
C853 C852 1.353 . S
C853 C869 1.442 . S
C854 C852 1.400 1_565 S
C854 C855 1.481 . S
C854 C868 1.431 . S
C855 C854 1.481 . S
C855 C856 1.363 1_565 S
C855 C860 1.392 . S
C856 H833 0.950 . S
C856 C855 1.363 1_545 S
C856 C857 1.395 . S
C857 H834 0.950 . S
C857 C856 1.395 . S
C857 C858 1.288 . S
C858 C857 1.288 . S
C858 C859 1.392 1_545 S
C859 H835 0.951 . S
C859 C858 1.392 1_565 S
C859 C860 1.392 . S
C860 H836 0.949 . S
C860 C855 1.392 . S
C860 C859 1.392 . S
C861 C862 1.382 . S
C861 C866 1.383 1_565 S
C861 C867 1.500 . S
C862 H837 0.949 . S
C862 C861 1.382 . S
C862 C863 1.397 . S
C863 H838 0.950 . S
C863 C862 1.397 . S
C863 C864 1.391 1_565 S
C864 C863 1.391 1_545 S
C864 C865 1.405 . S
C865 H839 0.950 . S
C865 C864 1.405 . S
C865 C866 1.367 . S
C866 H840 0.950 . S
C866 C861 1.383 1_545 S
C866 C865 1.367 . S
C867 C861 1.500 . S
C867 C868 1.361 . S
C867 C869 1.400 1_565 S
C868 H841 0.950 . S
C868 C854 1.431 . S
C868 C867 1.361 . S
C869 C853 1.442 . S
C869 C867 1.400 1_545 S
C869 C870 1.481 . S
C870 C869 1.481 . S
C870 C871 1.342 1_545 S
C870 C875 1.403 . S
C871 H842 0.950 . S
C871 C870 1.342 1_565 S
C871 C872 1.395 . S
C872 H843 0.950 . S
C872 C871 1.395 . S
C872 C873 1.288 . S
C873 C872 1.288 . S
C873 C874 1.392 1_565 S
C874 H844 0.951 . S
C874 C873 1.392 1_545 S
C874 C875 1.392 . S
C875 H845 0.949 . S
C875 C870 1.403 . S
C875 C874 1.392 . S
H876 C895 0.949 . S
H877 C896 0.950 . S
H878 C898 0.950 . S
H879 C899 0.950 . S
H880 C901 0.950 . S
H881 C904 0.950 . S
H882 C905 0.950 . S
H883 C907 0.951 . S
H884 C908 0.949 . S
H885 C910 0.949 . S
H886 C911 0.950 . S
H887 C913 0.950 . S
H888 C914 0.950 . S
H889 C916 0.950 . S
H890 C919 0.950 . S
H891 C920 0.950 . S
H892 C922 0.951 . S
H893 C923 0.949 . S
C894 C895 1.376 . S
C894 C899 1.386 1_455 S
C894 C900 1.483 . S
C895 H876 0.949 . S
C895 C894 1.376 . S
C895 C896 1.397 . S
C896 H877 0.950 . S
C896 C895 1.397 . S
C896 C897 1.391 . S
C897 C896 1.391 . S
C897 C898 1.405 1_455 S
C898 H878 0.950 . S
C898 C897 1.405 1_655 S
C898 C899 1.367 . S
C899 H879 0.950 . S
C899 C894 1.386 1_655 S
C899 C898 1.367 . S
C900 C894 1.483 . S
C900 C901 1.382 . S
C900 C902 1.403 1_455 S
C901 H880 0.950 . S
C901 C900 1.382 . S
C901 C917 1.411 . S
C902 C900 1.403 1_655 S
C902 C903 1.489 . S
C902 C916 1.411 . S
C903 C902 1.489 . S
C903 C904 1.383 1_655 S
C903 C908 1.382 . S
C904 H881 0.950 . S
C904 C903 1.383 1_455 S
C904 C905 1.395 . S
C905 H882 0.950 . S
C905 C904 1.395 . S
C905 C906 1.288 1_455 S
C906 C905 1.288 1_655 S
C906 C907 1.392 . S
C907 H883 0.951 . S
C907 C906 1.392 . S
C907 C908 1.392 . S
C908 H884 0.949 . S
C908 C903 1.382 . S
C908 C907 1.392 . S
C909 C910 1.376 . S
C909 C914 1.386 1_655 S
C909 C915 1.483 . S
C910 H885 0.949 . S
C910 C909 1.376 . S
C910 C911 1.397 . S
C911 H886 0.950 . S
C911 C910 1.397 . S
C911 C912 1.391 . S
C912 C911 1.391 . S
C912 C913 1.405 1_655 S
C913 H887 0.950 . S
C913 C912 1.405 1_455 S
C913 C914 1.367 . S
C914 H888 0.950 . S
C914 C909 1.386 1_455 S
C914 C913 1.367 . S
C915 C909 1.483 . S
C915 C916 1.382 . S
C915 C917 1.403 1_655 S
C916 H889 0.950 . S
C916 C902 1.411 . S
C916 C915 1.382 . S
C917 C901 1.411 . S
C917 C915 1.403 1_455 S
C917 C918 1.489 . S
C918 C917 1.489 . S
C918 C919 1.383 1_455 S
C918 C923 1.382 . S
C919 H890 0.950 . S
C919 C918 1.383 1_655 S
C919 C920 1.395 . S
C920 H891 0.950 . S
C920 C919 1.395 . S
C920 C921 1.288 1_655 S
C921 C920 1.288 1_455 S
C921 C922 1.392 . S
C922 H892 0.951 . S
C922 C921 1.392 . S
C922 C923 1.392 . S
C923 H893 0.949 . S
C923 C918 1.382 . S
C923 C922 1.392 . S
H924 C943 0.949 . S
H925 C944 0.950 . S
H926 C946 0.950 . S
H927 C947 0.950 . S
H928 C949 0.950 . S
H929 C952 0.950 . S
H930 C953 0.950 . S
H931 C955 0.951 . S
H932 C956 0.949 . S
H933 C958 0.949 . S
H934 C959 0.950 . S
H935 C961 0.950 . S
H936 C962 0.950 . S
H937 C964 0.950 . S
H938 C967 0.950 . S
H939 C968 0.950 . S
H940 C970 0.951 . S
H941 C971 0.949 . S
C942 C943 1.376 . S
C942 C947 1.386 . S
C942 C948 1.483 . S
C943 H924 0.949 . S
C943 C942 1.376 . S
C943 C944 1.397 . S
C944 H925 0.950 . S
C944 C943 1.397 . S
C944 C945 1.391 . S
C945 C944 1.391 . S
C945 C946 1.405 . S
C946 H926 0.950 . S
C946 C945 1.405 . S
C946 C947 1.367 . S
C947 H927 0.950 . S
C947 C942 1.386 . S
C947 C946 1.367 . S
C948 C942 1.483 . S
C948 C949 1.382 . S
C948 C950 1.403 . S
C949 H928 0.950 . S
C949 C948 1.382 . S
C949 C965 1.411 . S
C950 C948 1.403 . S
C950 C951 1.489 . S
C950 C964 1.411 . S
C951 C950 1.489 . S
C951 C952 1.383 . S
C951 C956 1.382 . S
C952 H929 0.950 . S
C952 C951 1.383 . S
C952 C953 1.395 . S
C953 H930 0.950 . S
C953 C952 1.395 . S
C953 C954 1.288 . S
C954 C953 1.288 . S
C954 C955 1.392 . S
C955 H931 0.951 . S
C955 C954 1.392 . S
C955 C956 1.392 . S
C956 H932 0.949 . S
C956 C951 1.382 . S
C956 C955 1.392 . S
C957 C958 1.376 . S
C957 C962 1.386 . S
C957 C963 1.483 . S
C958 H933 0.949 . S
C958 C957 1.376 . S
C958 C959 1.397 . S
C959 H934 0.950 . S
C959 C958 1.397 . S
C959 C960 1.391 . S
C960 C959 1.391 . S
C960 C961 1.405 . S
C961 H935 0.950 . S
C961 C960 1.405 . S
C961 C962 1.367 . S
C962 H936 0.950 . S
C962 C957 1.386 . S
C962 C961 1.367 . S
C963 C957 1.483 . S
C963 C964 1.382 . S
C963 C965 1.403 . S
C964 H937 0.950 . S
C964 C950 1.411 . S
C964 C963 1.382 . S
C965 C949 1.411 . S
C965 C963 1.403 . S
C965 C966 1.489 . S
C966 C965 1.489 . S
C966 C967 1.383 . S
C966 C971 1.382 . S
C967 H938 0.950 . S
C967 C966 1.383 . S
C967 C968 1.395 . S
C968 H939 0.950 . S
C968 C967 1.395 . S
C968 C969 1.288 . S
C969 C968 1.288 . S
C969 C970 1.392 . S
C970 H940 0.951 . S
C970 C969 1.392 . S
C970 C971 1.392 . S
C971 H941 0.949 . S
C971 C966 1.382 . S
C971 C970 1.392 . S
H972 C991 0.949 . S
H973 C992 0.950 . S
H974 C994 0.950 . S
H975 C995 0.950 . S
H976 C997 0.950 . S
H977 C1000 0.950 . S
H978 C1001 0.950 . S
H979 C1003 0.951 . S
H980 C1004 0.949 . S
H981 C1006 0.949 . S
H982 C1007 0.950 . S
H983 C1009 0.950 . S
H984 C1010 0.950 . S
H985 C1012 0.950 . S
H986 C1015 0.950 . S
H987 C1016 0.950 . S
H988 C1018 0.951 . S
H989 C1019 0.949 . S
C990 C991 1.376 . S
C990 C995 1.386 . S
C990 C996 1.483 . S
C991 H972 0.949 . S
C991 C990 1.376 . S
C991 C992 1.397 . S
C992 H973 0.950 . S
C992 C991 1.397 . S
C992 C993 1.391 . S
C993 C992 1.391 . S
C993 C994 1.405 . S
C994 H974 0.950 . S
C994 C993 1.405 . S
C994 C995 1.367 . S
C995 H975 0.950 . S
C995 C990 1.386 . S
C995 C994 1.367 . S
C996 C990 1.483 . S
C996 C997 1.382 . S
C996 C998 1.403 . S
C997 H976 0.950 . S
C997 C996 1.382 . S
C997 C1013 1.411 . S
C998 C996 1.403 . S
C998 C999 1.489 . S
C998 C1012 1.411 . S
C999 C998 1.489 . S
C999 C1000 1.383 . S
C999 C1004 1.382 . S
C1000 H977 0.950 . S
C1000 C999 1.383 . S
C1000 C1001 1.395 . S
C1001 H978 0.950 . S
C1001 C1000 1.395 . S
C1001 C1002 1.288 . S
C1002 C1001 1.288 . S
C1002 C1003 1.392 . S
C1003 H979 0.951 . S
C1003 C1002 1.392 . S
C1003 C1004 1.392 . S
C1004 H980 0.949 . S
C1004 C999 1.382 . S
C1004 C1003 1.392 . S
C1005 C1006 1.376 . S
C1005 C1010 1.386 . S
C1005 C1011 1.483 . S
C1006 H981 0.949 . S
C1006 C1005 1.376 . S
C1006 C1007 1.397 . S
C1007 H982 0.950 . S
C1007 C1006 1.397 . S
C1007 C1008 1.391 . S
C1008 C1007 1.391 . S
C1008 C1009 1.405 . S
C1009 H983 0.950 . S
C1009 C1008 1.405 . S
C1009 C1010 1.367 . S
C1010 H984 0.950 . S
C1010 C1005 1.386 . S
C1010 C1009 1.367 . S
C1011 C1005 1.483 . S
C1011 C1012 1.382 . S
C1011 C1013 1.403 . S
C1012 H985 0.950 . S
C1012 C998 1.411 . S
C1012 C1011 1.382 . S
C1013 C997 1.411 . S
C1013 C1011 1.403 . S
C1013 C1014 1.489 . S
C1014 C1013 1.489 . S
C1014 C1015 1.383 . S
C1014 C1019 1.382 . S
C1015 H986 0.950 . S
C1015 C1014 1.383 . S
C1015 C1016 1.395 . S
C1016 H987 0.950 . S
C1016 C1015 1.395 . S
C1016 C1017 1.288 . S
C1017 C1016 1.288 . S
C1017 C1018 1.392 . S
C1018 H988 0.951 . S
C1018 C1017 1.392 . S
C1018 C1019 1.392 . S
C1019 H989 0.949 . S
C1019 C1014 1.382 . S
C1019 C1018 1.392 . S
H1020 C1039 0.949 . S
H1021 C1040 0.950 . S
H1022 C1042 0.950 . S
H1023 C1043 0.950 . S
H1024 C1045 0.950 . S
H1025 C1048 0.950 . S
H1026 C1049 0.950 . S
H1027 C1051 0.951 . S
H1028 C1052 0.949 . S
H1029 C1054 0.949 . S
H1030 C1055 0.950 . S
H1031 C1057 0.950 . S
H1032 C1058 0.950 . S
H1033 C1060 0.950 . S
H1034 C1063 0.950 . S
H1035 C1064 0.950 . S
H1036 C1066 0.951 . S
H1037 C1067 0.949 . S
C1038 C1039 1.376 . S
C1038 C1043 1.386 . S
C1038 C1044 1.483 . S
C1039 H1020 0.949 . S
C1039 C1038 1.376 . S
C1039 C1040 1.397 . S
C1040 H1021 0.950 . S
C1040 C1039 1.397 . S
C1040 C1041 1.391 . S
C1041 C1040 1.391 . S
C1041 C1042 1.405 . S
C1042 H1022 0.950 . S
C1042 C1041 1.405 . S
C1042 C1043 1.367 . S
C1043 H1023 0.950 . S
C1043 C1038 1.386 . S
C1043 C1042 1.367 . S
C1044 C1038 1.483 . S
C1044 C1045 1.382 . S
C1044 C1046 1.403 . S
C1045 H1024 0.950 . S
C1045 C1044 1.382 . S
C1045 C1061 1.411 . S
C1046 C1044 1.403 . S
C1046 C1047 1.489 . S
C1046 C1060 1.411 . S
C1047 C1046 1.489 . S
C1047 C1048 1.383 . S
C1047 C1052 1.382 . S
C1048 H1025 0.950 . S
C1048 C1047 1.383 . S
C1048 C1049 1.395 . S
C1049 H1026 0.950 . S
C1049 C1048 1.395 . S
C1049 C1050 1.288 . S
C1050 C1049 1.288 . S
C1050 C1051 1.392 . S
C1051 H1027 0.951 . S
C1051 C1050 1.392 . S
C1051 C1052 1.392 . S
C1052 H1028 0.949 . S
C1052 C1047 1.382 . S
C1052 C1051 1.392 . S
C1053 C1054 1.376 . S
C1053 C1058 1.386 . S
C1053 C1059 1.483 . S
C1054 H1029 0.949 . S
C1054 C1053 1.376 . S
C1054 C1055 1.397 . S
C1055 H1030 0.950 . S
C1055 C1054 1.397 . S
C1055 C1056 1.391 . S
C1056 C1055 1.391 . S
C1056 C1057 1.405 . S
C1057 H1031 0.950 . S
C1057 C1056 1.405 . S
C1057 C1058 1.367 . S
C1058 H1032 0.950 . S
C1058 C1053 1.386 . S
C1058 C1057 1.367 . S
C1059 C1053 1.483 . S
C1059 C1060 1.382 . S
C1059 C1061 1.403 . S
C1060 H1033 0.950 . S
C1060 C1046 1.411 . S
C1060 C1059 1.382 . S
C1061 C1045 1.411 . S
C1061 C1059 1.403 . S
C1061 C1062 1.489 . S
C1062 C1061 1.489 . S
C1062 C1063 1.383 . S
C1062 C1067 1.382 . S
C1063 H1034 0.950 . S
C1063 C1062 1.383 . S
C1063 C1064 1.395 . S
C1064 H1035 0.950 . S
C1064 C1063 1.395 . S
C1064 C1065 1.288 . S
C1065 C1064 1.288 . S
C1065 C1066 1.392 . S
C1066 H1036 0.951 . S
C1066 C1065 1.392 . S
C1066 C1067 1.392 . S
C1067 H1037 0.949 . S
C1067 C1062 1.382 . S
C1067 C1066 1.392 . S
H1068 C1087 0.949 . S
H1069 C1088 0.950 . S
H1070 C1090 0.950 . S
H1071 C1091 0.950 . S
H1072 C1093 0.950 . S
H1073 C1096 0.950 . S
H1074 C1097 0.950 . S
H1075 C1099 0.951 . S
H1076 C1100 0.949 . S
H1077 C1102 0.949 . S
H1078 C1103 0.950 . S
H1079 C1105 0.950 . S
H1080 C1106 0.950 . S
H1081 C1108 0.950 . S
H1082 C1111 0.950 . S
H1083 C1112 0.950 . S
H1084 C1114 0.951 . S
H1085 C1115 0.949 . S
C1086 C1087 1.376 . S
C1086 C1091 1.386 . S
C1086 C1092 1.483 . S
C1087 H1068 0.949 . S
C1087 C1086 1.376 . S
C1087 C1088 1.397 . S
C1088 H1069 0.950 . S
C1088 C1087 1.397 . S
C1088 C1089 1.391 . S
C1089 C1088 1.391 . S
C1089 C1090 1.405 . S
C1090 H1070 0.950 . S
C1090 C1089 1.405 . S
C1090 C1091 1.367 . S
C1091 H1071 0.950 . S
C1091 C1086 1.386 . S
C1091 C1090 1.367 . S
C1092 C1086 1.483 . S
C1092 C1093 1.382 . S
C1092 C1094 1.403 . S
C1093 H1072 0.950 . S
C1093 C1092 1.382 . S
C1093 C1109 1.411 . S
C1094 C1092 1.403 . S
C1094 C1095 1.489 . S
C1094 C1108 1.411 . S
C1095 C1094 1.489 . S
C1095 C1096 1.383 . S
C1095 C1100 1.382 . S
C1096 H1073 0.950 . S
C1096 C1095 1.383 . S
C1096 C1097 1.395 . S
C1097 H1074 0.950 . S
C1097 C1096 1.395 . S
C1097 C1098 1.288 . S
C1098 C1097 1.288 . S
C1098 C1099 1.392 . S
C1099 H1075 0.951 . S
C1099 C1098 1.392 . S
C1099 C1100 1.392 . S
C1100 H1076 0.949 . S
C1100 C1095 1.382 . S
C1100 C1099 1.392 . S
C1101 C1102 1.376 . S
C1101 C1106 1.386 . S
C1101 C1107 1.483 . S
C1102 H1077 0.949 . S
C1102 C1101 1.376 . S
C1102 C1103 1.397 . S
C1103 H1078 0.950 . S
C1103 C1102 1.397 . S
C1103 C1104 1.391 . S
C1104 C1103 1.391 . S
C1104 C1105 1.405 . S
C1105 H1079 0.950 . S
C1105 C1104 1.405 . S
C1105 C1106 1.367 . S
C1106 H1080 0.950 . S
C1106 C1101 1.386 . S
C1106 C1105 1.367 . S
C1107 C1101 1.483 . S
C1107 C1108 1.382 . S
C1107 C1109 1.403 . S
C1108 H1081 0.950 . S
C1108 C1094 1.411 . S
C1108 C1107 1.382 . S
C1109 C1093 1.411 . S
C1109 C1107 1.403 . S
C1109 C1110 1.489 . S
C1110 C1109 1.489 . S
C1110 C1111 1.383 . S
C1110 C1115 1.382 . S
C1111 H1082 0.950 . S
C1111 C1110 1.383 . S
C1111 C1112 1.395 . S
C1112 H1083 0.950 . S
C1112 C1111 1.395 . S
C1112 C1113 1.288 . S
C1113 C1112 1.288 . S
C1113 C1114 1.392 . S
C1114 H1084 0.951 . S
C1114 C1113 1.392 . S
C1114 C1115 1.392 . S
C1115 H1085 0.949 . S
C1115 C1110 1.382 . S
C1115 C1114 1.392 . S
C1116 C1117 1.349 1_455 S
C1116 C1118 1.327 . S
C1116 H1141 0.950 . S
C1117 C1116 1.349 1_655 S
C1117 C1133 1.349 . S
C1118 C1116 1.327 . S
C1118 C1137 1.429 1_455 S
C1118 H1142 0.950 . S
C1119 C1136 1.574 . S
C1119 C1138 1.368 . S
C1119 H1143 0.949 . S
H1120 C1124 0.949 . S
C1121 C1122 1.349 . S
C1121 C1123 1.327 . S
C1121 H1144 0.950 . S
C1122 C1121 1.349 . S
C1122 C1134 1.349 1_655 S
C1123 C1121 1.327 . S
C1123 C1139 1.429 . S
C1123 H1145 0.950 . S
C1124 H1120 0.949 . S
C1124 C1132 1.574 . S
C1124 C1140 1.368 1_455 S
H1125 C1133 0.950 . S
H1126 C1131 0.950 . S
H1127 C1132 0.949 . S
H1128 C1134 0.950 . S
H1129 C1135 0.950 . S
H1130 C1136 0.949 . S
C1131 H1126 0.950 . S
C1131 C1133 1.327 . S
C1131 C1137 1.429 . S
C1132 C1124 1.574 . S
C1132 H1127 0.949 . S
C1132 C1138 1.368 1_455 S
C1133 C1117 1.349 . S
C1133 H1125 0.950 . S
C1133 C1131 1.327 . S
C1134 C1122 1.349 1_455 S
C1134 H1128 0.950 . S
C1134 C1135 1.327 . S
C1135 H1129 0.950 . S
C1135 C1134 1.327 . S
C1135 C1139 1.429 1_455 S
C1136 C1119 1.574 . S
C1136 H1130 0.949 . S
C1136 C1140 1.368 . S
C1137 C1118 1.429 1_655 S
C1137 C1131 1.429 . S
C1137 C1138 1.523 . S
C1138 C1119 1.368 . S
C1138 C1132 1.368 1_655 S
C1138 C1137 1.523 . S
C1139 C1123 1.429 . S
C1139 C1135 1.429 1_655 S
C1139 C1140 1.523 . S
C1140 C1124 1.368 1_655 S
C1140 C1136 1.368 . S
C1140 C1139 1.523 . S
H1141 C1116 0.950 . S
H1142 C1118 0.950 . S
H1143 C1119 0.949 . S
H1144 C1121 0.950 . S
H1145 C1123 0.950 . S
C1146 C1147 1.349 . S
C1146 C1148 1.327 . S
C1146 H1171 0.950 . S
C1147 C1146 1.349 . S
C1147 C1163 1.349 . S
C1148 C1146 1.327 . S
C1148 C1167 1.429 . S
C1148 H1172 0.950 . S
C1149 C1166 1.574 . S
C1149 C1168 1.368 . S
C1149 H1173 0.949 . S
H1150 C1154 0.949 . S
C1151 C1152 1.349 . S
C1151 C1153 1.327 . S
C1151 H1174 0.950 . S
C1152 C1151 1.349 . S
C1152 C1164 1.349 . S
C1153 C1151 1.327 . S
C1153 C1169 1.429 . S
C1153 H1175 0.950 . S
C1154 H1150 0.949 . S
C1154 C1162 1.574 . S
C1154 C1170 1.368 . S
H1155 C1163 0.950 . S
H1156 C1161 0.950 . S
H1157 C1162 0.949 . S
H1158 C1164 0.950 . S
H1159 C1165 0.950 . S
H1160 C1166 0.949 . S
C1161 H1156 0.950 . S
C1161 C1163 1.327 . S
C1161 C1167 1.429 . S
C1162 C1154 1.574 . S
C1162 H1157 0.949 . S
C1162 C1168 1.368 . S
C1163 C1147 1.349 . S
C1163 H1155 0.950 . S
C1163 C1161 1.327 . S
C1164 C1152 1.349 . S
C1164 H1158 0.950 . S
C1164 C1165 1.327 . S
C1165 H1159 0.950 . S
C1165 C1164 1.327 . S
C1165 C1169 1.429 . S
C1166 C1149 1.574 . S
C1166 H1160 0.949 . S
C1166 C1170 1.368 . S
C1167 C1148 1.429 . S
C1167 C1161 1.429 . S
C1167 C1168 1.523 . S
C1168 C1149 1.368 . S
C1168 C1162 1.368 . S
C1168 C1167 1.523 . S
C1169 C1153 1.429 . S
C1169 C1165 1.429 . S
C1169 C1170 1.523 . S
C1170 C1154 1.368 . S
C1170 C1166 1.368 . S
C1170 C1169 1.523 . S
H1171 C1146 0.950 . S
H1172 C1148 0.950 . S
H1173 C1149 0.949 . S
H1174 C1151 0.950 . S
H1175 C1153 0.950 . S
C1176 C1177 1.349 1_565 S
C1176 C1178 1.327 . S
C1176 H1201 0.950 . S
C1177 C1176 1.349 1_545 S
C1177 C1193 1.349 . S
C1178 C1176 1.327 . S
C1178 C1197 1.429 1_565 S
C1178 H1202 0.950 . S
C1179 C1196 1.574 . S
C1179 C1198 1.368 . S
C1179 H1203 0.949 . S
H1180 C1184 0.949 . S
C1181 C1182 1.349 . S
C1181 C1183 1.327 . S
C1181 H1204 0.950 . S
C1182 C1181 1.349 . S
C1182 C1194 1.349 1_545 S
C1183 C1181 1.327 . S
C1183 C1199 1.429 . S
C1183 H1205 0.950 . S
C1184 H1180 0.949 . S
C1184 C1192 1.574 . S
C1184 C1200 1.368 1_565 S
H1185 C1193 0.950 . S
H1186 C1191 0.950 . S
H1187 C1192 0.949 . S
H1188 C1194 0.950 . S
H1189 C1195 0.950 . S
H1190 C1196 0.949 . S
C1191 H1186 0.950 . S
C1191 C1193 1.327 . S
C1191 C1197 1.429 . S
C1192 C1184 1.574 . S
C1192 H1187 0.949 . S
C1192 C1198 1.368 1_565 S
C1193 C1177 1.349 . S
C1193 H1185 0.950 . S
C1193 C1191 1.327 . S
C1194 C1182 1.349 1_565 S
C1194 H1188 0.950 . S
C1194 C1195 1.327 . S
C1195 H1189 0.950 . S
C1195 C1194 1.327 . S
C1195 C1199 1.429 1_565 S
C1196 C1179 1.574 . S
C1196 H1190 0.949 . S
C1196 C1200 1.368 . S
C1197 C1178 1.429 1_545 S
C1197 C1191 1.429 . S
C1197 C1198 1.523 . S
C1198 C1179 1.368 . S
C1198 C1192 1.368 1_545 S
C1198 C1197 1.523 . S
C1199 C1183 1.429 . S
C1199 C1195 1.429 1_545 S
C1199 C1200 1.523 . S
C1200 C1184 1.368 1_545 S
C1200 C1196 1.368 . S
C1200 C1199 1.523 . S
H1201 C1176 0.950 . S
H1202 C1178 0.950 . S
H1203 C1179 0.949 . S
H1204 C1181 0.950 . S
H1205 C1183 0.950 . S
C1206 C1207 1.349 . S
C1206 C1208 1.327 . S
C1206 H1231 0.950 . S
C1207 C1206 1.349 . S
C1207 C1223 1.349 1_545 S
C1208 C1206 1.327 . S
C1208 C1227 1.459 . S
C1208 H1232 0.950 . S
C1209 C1226 1.574 . S
C1209 C1228 1.370 1_565 S
C1209 H1233 0.949 . S
H1210 C1214 0.949 . S
C1211 C1212 1.349 . S
C1211 C1213 1.327 . S
C1211 H1234 0.950 . S
C1212 C1211 1.349 . S
C1212 C1224 1.349 1_565 S
C1213 C1211 1.327 . S
C1213 C1229 1.429 . S
C1213 H1235 0.950 . S
C1214 H1210 0.949 . S
C1214 C1222 1.574 . S
C1214 C1230 1.328 1_545 S
H1215 C1223 0.950 . S
H1216 C1221 0.950 . S
H1217 C1222 0.949 . S
H1218 C1224 0.950 . S
H1219 C1225 0.950 . S
H1220 C1226 0.949 . S
C1221 H1216 0.950 . S
C1221 C1223 1.327 . S
C1221 C1227 1.417 1_565 S
C1222 C1214 1.574 . S
C1222 H1217 0.949 . S
C1222 C1228 1.367 . S
C1223 C1207 1.349 1_565 S
C1223 H1215 0.950 . S
C1223 C1221 1.327 . S
C1224 C1212 1.349 1_545 S
C1224 H1218 0.950 . S
C1224 C1225 1.327 . S
C1225 H1219 0.950 . S
C1225 C1224 1.327 . S
C1225 C1229 1.429 1_545 S
C1226 C1209 1.574 . S
C1226 H1220 0.949 . S
C1226 C1230 1.393 . S
C1227 C1208 1.459 . S
C1227 C1221 1.417 1_545 S
C1227 C1228 1.506 . S
C1228 C1209 1.370 1_545 S
C1228 C1222 1.367 . S
C1228 C1227 1.506 . S
C1229 C1213 1.429 . S
C1229 C1225 1.429 1_565 S
C1229 C1230 1.547 . S
C1230 C1214 1.328 1_565 S
C1230 C1226 1.393 . S
C1230 C1229 1.547 . S
H1231 C1206 0.950 . S
H1232 C1208 0.950 . S
H1233 C1209 0.949 . S
H1234 C1211 0.950 . S
H1235 C1213 0.950 . S
C1236 C1237 1.349 . S
C1236 C1238 1.327 . S
C1236 H1261 0.950 . S
C1237 C1236 1.349 . S
C1237 C1253 1.349 1_455 S
C1238 C1236 1.327 . S
C1238 C1257 1.429 . S
C1238 H1262 0.950 . S
C1239 C1256 1.574 . S
C1239 C1258 1.368 1_655 S
C1239 H1263 0.949 . S
H1240 C1244 0.949 . S
C1241 C1242 1.349 1_655 S
C1241 C1243 1.327 . S
C1241 H1264 0.950 . S
C1242 C1241 1.349 1_455 S
C1242 C1254 1.349 . S
C1243 C1241 1.327 . S
C1243 C1259 1.429 1_655 S
C1243 H1265 0.950 . S
C1244 H1240 0.949 . S
C1244 C1252 1.574 . S
C1244 C1260 1.368 . S
H1245 C1253 0.950 . S
H1246 C1251 0.950 . S
H1247 C1252 0.949 . S
H1248 C1254 0.950 . S
H1249 C1255 0.950 . S
H1250 C1256 0.949 . S
C1251 H1246 0.950 . S
C1251 C1253 1.327 . S
C1251 C1257 1.429 1_655 S
C1252 C1244 1.574 . S
C1252 H1247 0.949 . S
C1252 C1258 1.368 . S
C1253 C1237 1.349 1_655 S
C1253 H1245 0.950 . S
C1253 C1251 1.327 . S
C1254 C1242 1.349 . S
C1254 H1248 0.950 . S
C1254 C1255 1.327 . S
C1255 H1249 0.950 . S
C1255 C1254 1.327 . S
C1255 C1259 1.429 . S
C1256 C1239 1.574 . S
C1256 H1250 0.949 . S
C1256 C1260 1.368 1_655 S
C1257 C1238 1.429 . S
C1257 C1251 1.429 1_455 S
C1257 C1258 1.523 . S
C1258 C1239 1.368 1_455 S
C1258 C1252 1.368 . S
C1258 C1257 1.523 . S
C1259 C1243 1.429 1_455 S
C1259 C1255 1.429 . S
C1259 C1260 1.523 . S
C1260 C1244 1.368 . S
C1260 C1256 1.368 1_455 S
C1260 C1259 1.523 . S
H1261 C1236 0.950 . S
H1262 C1238 0.950 . S
H1263 C1239 0.949 . S
H1264 C1241 0.950 . S
H1265 C1243 0.950 . S
C1266 C1267 1.349 . S
C1266 C1268 1.327 . S
C1266 H1291 0.950 . S
C1267 C1266 1.349 . S
C1267 C1283 1.349 . S
C1268 C1266 1.327 . S
C1268 C1287 1.429 . S
C1268 H1292 0.950 . S
C1269 C1286 1.574 . S
C1269 C1288 1.368 . S
C1269 H1293 0.949 . S
H1270 C1274 0.949 . S
C1271 C1272 1.349 . S
C1271 C1273 1.327 . S
C1271 H1294 0.950 . S
C1272 C1271 1.349 . S
C1272 C1284 1.349 . S
C1273 C1271 1.327 . S
C1273 C1289 1.429 . S
C1273 H1295 0.950 . S
C1274 H1270 0.949 . S
C1274 C1282 1.574 . S
C1274 C1290 1.368 . S
H1275 C1283 0.950 . S
H1276 C1281 0.950 . S
H1277 C1282 0.949 . S
H1278 C1284 0.950 . S
H1279 C1285 0.950 . S
H1280 C1286 0.949 . S
C1281 H1276 0.950 . S
C1281 C1283 1.327 . S
C1281 C1287 1.429 . S
C1282 C1274 1.574 . S
C1282 H1277 0.949 . S
C1282 C1288 1.368 . S
C1283 C1267 1.349 . S
C1283 H1275 0.950 . S
C1283 C1281 1.327 . S
C1284 C1272 1.349 . S
C1284 H1278 0.950 . S
C1284 C1285 1.327 . S
C1285 H1279 0.950 . S
C1285 C1284 1.327 . S
C1285 C1289 1.429 . S
C1286 C1269 1.574 . S
C1286 H1280 0.949 . S
C1286 C1290 1.368 . S
C1287 C1268 1.429 . S
C1287 C1281 1.429 . S
C1287 C1288 1.523 . S
C1288 C1269 1.368 . S
C1288 C1282 1.368 . S
C1288 C1287 1.523 . S
C1289 C1273 1.429 . S
C1289 C1285 1.429 . S
C1289 C1290 1.523 . S
C1290 C1274 1.368 . S
C1290 C1286 1.368 . S
C1290 C1289 1.523 . S
H1291 C1266 0.950 . S
H1292 C1268 0.950 . S
H1293 C1269 0.949 . S
H1294 C1271 0.950 . S
H1295 C1273 0.950 . S
C1296 C1297 1.349 . S
C1296 C1298 1.327 . S
C1296 H1321 0.950 . S
C1297 C1296 1.349 . S
C1297 C1313 1.349 1_455 S
C1298 C1296 1.327 . S
C1298 C1317 1.429 . S
C1298 H1322 0.950 . S
C1299 C1316 1.574 . S
C1299 C1318 1.368 1_655 S
C1299 H1323 0.949 . S
H1300 C1304 0.949 . S
C1301 C1302 1.349 1_655 S
C1301 C1303 1.327 . S
C1301 H1324 0.950 . S
C1302 C1301 1.349 1_455 S
C1302 C1314 1.349 . S
C1303 C1301 1.327 . S
C1303 C1319 1.429 1_655 S
C1303 H1325 0.950 . S
C1304 H1300 0.949 . S
C1304 C1312 1.574 . S
C1304 C1320 1.368 . S
H1305 C1313 0.950 . S
H1306 C1311 0.950 . S
H1307 C1312 0.949 . S
H1308 C1314 0.950 . S
H1309 C1315 0.950 . S
H1310 C1316 0.949 . S
C1311 H1306 0.950 . S
C1311 C1313 1.327 . S
C1311 C1317 1.429 1_655 S
C1312 C1304 1.574 . S
C1312 H1307 0.949 . S
C1312 C1318 1.368 . S
C1313 C1297 1.349 1_655 S
C1313 H1305 0.950 . S
C1313 C1311 1.327 . S
C1314 C1302 1.349 . S
C1314 H1308 0.950 . S
C1314 C1315 1.327 . S
C1315 H1309 0.950 . S
C1315 C1314 1.327 . S
C1315 C1319 1.429 . S
C1316 C1299 1.574 . S
C1316 H1310 0.949 . S
C1316 C1320 1.368 1_655 S
C1317 C1298 1.429 . S
C1317 C1311 1.429 1_455 S
C1317 C1318 1.523 . S
C1318 C1299 1.368 1_455 S
C1318 C1312 1.368 . S
C1318 C1317 1.523 . S
C1319 C1303 1.429 1_455 S
C1319 C1315 1.429 . S
C1319 C1320 1.523 . S
C1320 C1304 1.368 . S
C1320 C1316 1.368 1_455 S
C1320 C1319 1.523 . S
H1321 C1296 0.950 . S
H1322 C1298 0.950 . S
H1323 C1299 0.949 . S
H1324 C1301 0.950 . S
H1325 C1303 0.950 . S
C1326 C1327 1.349 . S
C1326 C1328 1.327 . S
C1326 H1351 0.950 . S
C1327 C1326 1.349 . S
C1327 C1343 1.349 . S
C1328 C1326 1.327 . S
C1328 C1347 1.429 . S
C1328 H1352 0.950 . S
C1329 C1346 1.574 . S
C1329 C1348 1.368 . S
C1329 H1353 0.949 . S
H1330 C1334 0.949 . S
C1331 C1332 1.349 . S
C1331 C1333 1.327 . S
C1331 H1354 0.950 . S
C1332 C1331 1.349 . S
C1332 C1344 1.349 . S
C1333 C1331 1.327 . S
C1333 C1349 1.429 . S
C1333 H1355 0.950 . S
C1334 H1330 0.949 . S
C1334 C1342 1.574 . S
C1334 C1350 1.368 . S
H1335 C1343 0.950 . S
H1336 C1341 0.950 . S
H1337 C1342 0.949 . S
H1338 C1344 0.950 . S
H1339 C1345 0.950 . S
H1340 C1346 0.949 . S
C1341 H1336 0.950 . S
C1341 C1343 1.327 . S
C1341 C1347 1.429 . S
C1342 C1334 1.574 . S
C1342 H1337 0.949 . S
C1342 C1348 1.368 . S
C1343 C1327 1.349 . S
C1343 H1335 0.950 . S
C1343 C1341 1.327 . S
C1344 C1332 1.349 . S
C1344 H1338 0.950 . S
C1344 C1345 1.327 . S
C1345 H1339 0.950 . S
C1345 C1344 1.327 . S
C1345 C1349 1.429 . S
C1346 C1329 1.574 . S
C1346 H1340 0.949 . S
C1346 C1350 1.368 . S
C1347 C1328 1.429 . S
C1347 C1341 1.429 . S
C1347 C1348 1.523 . S
C1348 C1329 1.368 . S
C1348 C1342 1.368 . S
C1348 C1347 1.523 . S
C1349 C1333 1.429 . S
C1349 C1345 1.429 . S
C1349 C1350 1.523 . S
C1350 C1334 1.368 . S
C1350 C1346 1.368 . S
C1350 C1349 1.523 . S
H1351 C1326 0.950 . S
H1352 C1328 0.950 . S
H1353 C1329 0.949 . S
H1354 C1331 0.950 . S
H1355 C1333 0.950 . S
C1356 C1357 1.349 . S
C1356 C1358 1.327 . S
C1356 H1381 0.950 . S
C1357 C1356 1.349 . S
C1357 C1373 1.349 1_565 S
C1358 C1356 1.327 . S
C1358 C1377 1.429 . S
C1358 H1382 0.950 . S
C1359 C1376 1.574 . S
C1359 C1378 1.368 1_545 S
C1359 H1383 0.949 . S
H1360 C1364 0.949 . S
C1361 C1362 1.349 1_545 S
C1361 C1363 1.327 . S
C1361 H1384 0.950 . S
C1362 C1361 1.349 1_565 S
C1362 C1374 1.349 . S
C1363 C1361 1.327 . S
C1363 C1379 1.429 1_545 S
C1363 H1385 0.950 . S
C1364 H1360 0.949 . S
C1364 C1372 1.574 . S
C1364 C1380 1.368 . S
H1365 C1373 0.950 . S
H1366 C1371 0.950 . S
H1367 C1372 0.949 . S
H1368 C1374 0.950 . S
H1369 C1375 0.950 . S
H1370 C1376 0.949 . S
C1371 H1366 0.950 . S
C1371 C1373 1.327 . S
C1371 C1377 1.429 1_545 S
C1372 C1364 1.574 . S
C1372 H1367 0.949 . S
C1372 C1378 1.368 . S
C1373 C1357 1.349 1_545 S
C1373 H1365 0.950 . S
C1373 C1371 1.327 . S
C1374 C1362 1.349 . S
C1374 H1368 0.950 . S
C1374 C1375 1.327 . S
C1375 H1369 0.950 . S
C1375 C1374 1.327 . S
C1375 C1379 1.429 . S
C1376 C1359 1.574 . S
C1376 H1370 0.949 . S
C1376 C1380 1.368 1_545 S
C1377 C1358 1.429 . S
C1377 C1371 1.429 1_565 S
C1377 C1378 1.523 . S
C1378 C1359 1.368 1_565 S
C1378 C1372 1.368 . S
C1378 C1377 1.523 . S
C1379 C1363 1.429 1_565 S
C1379 C1375 1.429 . S
C1379 C1380 1.523 . S
C1380 C1364 1.368 . S
C1380 C1376 1.368 1_565 S
C1380 C1379 1.523 . S
H1381 C1356 0.950 . S
H1382 C1358 0.950 . S
H1383 C1359 0.949 . S
H1384 C1361 0.950 . S
H1385 C1363 0.950 . S
C1386 C1387 1.349 . S
C1386 C1388 1.327 . S
C1386 H1411 0.950 . S
C1387 C1386 1.349 . S
C1387 C1403 1.349 1_545 S
C1388 C1386 1.327 . S
C1388 C1407 1.429 . S
C1388 H1412 0.950 . S
C1389 C1406 1.574 . S
C1389 C1408 1.368 1_565 S
C1389 H1413 0.949 . S
H1390 C1394 0.949 . S
C1391 C1392 1.349 1_565 S
C1391 C1393 1.327 . S
C1391 H1414 0.950 . S
C1392 C1391 1.349 1_545 S
C1392 C1404 1.349 . S
C1393 C1391 1.327 . S
C1393 C1409 1.429 1_565 S
C1393 H1415 0.950 . S
C1394 H1390 0.949 . S
C1394 C1402 1.574 . S
C1394 C1410 1.368 . S
H1395 C1403 0.950 . S
H1396 C1401 0.950 . S
H1397 C1402 0.949 . S
H1398 C1404 0.950 . S
H1399 C1405 0.950 . S
H1400 C1406 0.949 . S
C1401 H1396 0.950 . S
C1401 C1403 1.327 . S
C1401 C1407 1.429 1_565 S
C1402 C1394 1.574 . S
C1402 H1397 0.949 . S
C1402 C1408 1.368 . S
C1403 C1387 1.349 1_565 S
C1403 H1395 0.950 . S
C1403 C1401 1.327 . S
C1404 C1392 1.349 . S
C1404 H1398 0.950 . S
C1404 C1405 1.327 . S
C1405 H1399 0.950 . S
C1405 C1404 1.327 . S
C1405 C1409 1.429 . S
C1406 C1389 1.574 . S
C1406 H1400 0.949 . S
C1406 C1410 1.368 1_565 S
C1407 C1388 1.429 . S
C1407 C1401 1.429 1_545 S
C1407 C1408 1.523 . S
C1408 C1389 1.368 1_545 S
C1408 C1402 1.368 . S
C1408 C1407 1.523 . S
C1409 C1393 1.429 1_545 S
C1409 C1405 1.429 . S
C1409 C1410 1.523 . S
C1410 C1394 1.368 . S
C1410 C1406 1.368 1_545 S
C1410 C1409 1.523 . S
H1411 C1386 0.950 . S
H1412 C1388 0.950 . S
H1413 C1389 0.949 . S
H1414 C1391 0.950 . S
H1415 C1393 0.950 . S
C1416 C1417 1.349 1_455 S
C1416 C1418 1.325 . S
C1416 H1441 0.950 . S
C1417 C1416 1.349 1_655 S
C1417 C1433 1.349 . S
C1418 C1416 1.325 . S
C1418 C1437 1.427 1_455 S
C1418 H1442 0.953 . S
C1419 C1436 1.574 . S
C1419 C1438 1.368 . S
C1419 H1443 0.949 . S
H1420 C1424 0.957 . S
C1421 C1422 1.349 . S
C1421 C1423 1.327 . S
C1421 H1444 0.950 . S
C1422 C1421 1.349 . S
C1422 C1434 1.348 . S
C1423 C1421 1.327 . S
C1423 C1439 1.429 . S
C1423 H1445 0.950 . S
C1424 H1420 0.957 . S
C1424 C1432 1.575 . S
C1424 C1440 1.365 1_455 S
H1425 C1433 0.950 . S
H1426 C1431 0.950 . S
H1427 C1432 0.952 . S
H1428 C1434 0.951 1_455 S
H1429 C1435 0.947 . S
H1430 C1436 0.949 . S
C1431 H1426 0.950 . S
C1431 C1433 1.327 . S
C1431 C1437 1.429 . S
C1432 C1424 1.575 . S
C1432 H1427 0.952 . S
C1432 C1438 1.359 1_455 S
C1433 C1417 1.349 . S
C1433 H1425 0.950 . S
C1433 C1431 1.327 . S
C1434 C1422 1.348 . S
C1434 H1428 0.951 1_655 S
C1434 C1435 1.323 1_655 S
C1435 H1429 0.947 . S
C1435 C1434 1.323 1_455 S
C1435 C1439 1.435 1_455 S
C1436 C1419 1.574 . S
C1436 H1430 0.949 . S
C1436 C1440 1.368 . S
C1437 C1418 1.427 1_655 S
C1437 C1431 1.429 . S
C1437 C1438 1.523 . S
C1438 C1419 1.368 . S
C1438 C1432 1.359 1_655 S
C1438 C1437 1.523 . S
C1439 C1423 1.429 . S
C1439 C1435 1.435 1_655 S
C1439 C1440 1.523 . S
C1440 C1424 1.365 1_655 S
C1440 C1436 1.368 . S
C1440 C1439 1.523 . S
H1441 C1416 0.950 . S
H1442 C1418 0.953 . S
H1443 C1419 0.949 . S
H1444 C1421 0.950 . S
H1445 C1423 0.950 . S
C1446 C1447 1.349 . S
C1446 C1448 1.327 . S
C1446 H1471 0.950 . S
C1447 C1446 1.349 . S
C1447 C1463 1.349 . S
C1448 C1446 1.327 . S
C1448 C1467 1.429 . S
C1448 H1472 0.950 . S
C1449 C1466 1.574 . S
C1449 C1468 1.368 . S
C1449 H1473 0.949 . S
H1450 C1454 0.949 . S
C1451 C1452 1.349 . S
C1451 C1453 1.327 . S
C1451 H1474 0.950 . S
C1452 C1451 1.349 . S
C1452 C1464 1.349 . S
C1453 C1451 1.327 . S
C1453 C1469 1.429 . S
C1453 H1475 0.950 . S
C1454 H1450 0.949 . S
C1454 C1462 1.574 . S
C1454 C1470 1.368 . S
H1455 C1463 0.950 . S
H1456 C1461 0.950 . S
H1457 C1462 0.949 . S
H1458 C1464 0.950 . S
H1459 C1465 0.950 . S
H1460 C1466 0.949 . S
C1461 H1456 0.950 . S
C1461 C1463 1.327 . S
C1461 C1467 1.429 . S
C1462 C1454 1.574 . S
C1462 H1457 0.949 . S
C1462 C1468 1.368 . S
C1463 C1447 1.349 . S
C1463 H1455 0.950 . S
C1463 C1461 1.327 . S
C1464 C1452 1.349 . S
C1464 H1458 0.950 . S
C1464 C1465 1.327 . S
C1465 H1459 0.950 . S
C1465 C1464 1.327 . S
C1465 C1469 1.429 . S
C1466 C1449 1.574 . S
C1466 H1460 0.949 . S
C1466 C1470 1.368 . S
C1467 C1448 1.429 . S
C1467 C1461 1.429 . S
C1467 C1468 1.523 . S
C1468 C1449 1.368 . S
C1468 C1462 1.368 . S
C1468 C1467 1.523 . S
C1469 C1453 1.429 . S
C1469 C1465 1.429 . S
C1469 C1470 1.523 . S
C1470 C1454 1.368 . S
C1470 C1466 1.368 . S
C1470 C1469 1.523 . S
H1471 C1446 0.950 . S
H1472 C1448 0.950 . S
H1473 C1449 0.949 . S
H1474 C1451 0.950 . S
H1475 C1453 0.950 . S
C1476 C1477 1.349 . S
C1476 C1478 1.327 . S
C1476 H1501 0.950 . S
C1477 C1476 1.349 . S
C1477 C1493 1.349 . S
C1478 C1476 1.327 . S
C1478 C1497 1.429 . S
C1478 H1502 0.950 . S
C1479 C1496 1.574 . S
C1479 C1498 1.368 . S
C1479 H1503 0.949 . S
H1480 C1484 0.949 . S
C1481 C1482 1.349 . S
C1481 C1483 1.327 . S
C1481 H1504 0.950 . S
C1482 C1481 1.349 . S
C1482 C1494 1.349 . S
C1483 C1481 1.327 . S
C1483 C1499 1.429 . S
C1483 H1505 0.950 . S
C1484 H1480 0.949 . S
C1484 C1492 1.574 . S
C1484 C1500 1.368 . S
H1485 C1493 0.950 . S
H1486 C1491 0.950 . S
H1487 C1492 0.949 . S
H1488 C1494 0.950 . S
H1489 C1495 0.950 . S
H1490 C1496 0.949 . S
C1491 H1486 0.950 . S
C1491 C1493 1.327 . S
C1491 C1497 1.429 . S
C1492 C1484 1.574 . S
C1492 H1487 0.949 . S
C1492 C1498 1.368 . S
C1493 C1477 1.349 . S
C1493 H1485 0.950 . S
C1493 C1491 1.327 . S
C1494 C1482 1.349 . S
C1494 H1488 0.950 . S
C1494 C1495 1.327 . S
C1495 H1489 0.950 . S
C1495 C1494 1.327 . S
C1495 C1499 1.429 . S
C1496 C1479 1.574 . S
C1496 H1490 0.949 . S
C1496 C1500 1.368 . S
C1497 C1478 1.429 . S
C1497 C1491 1.429 . S
C1497 C1498 1.523 . S
C1498 C1479 1.368 . S
C1498 C1492 1.368 . S
C1498 C1497 1.523 . S
C1499 C1483 1.429 . S
C1499 C1495 1.429 . S
C1499 C1500 1.523 . S
C1500 C1484 1.368 . S
C1500 C1496 1.368 . S
C1500 C1499 1.523 . S
H1501 C1476 0.950 . S
H1502 C1478 0.950 . S
H1503 C1479 0.949 . S
H1504 C1481 0.950 . S
H1505 C1483 0.950 . S
C1506 C1507 1.349 . S
C1506 C1508 1.327 . S
C1506 H1531 0.950 . S
C1507 C1506 1.349 . S
C1507 C1523 1.349 . S
C1508 C1506 1.327 . S
C1508 C1527 1.429 . S
C1508 H1532 0.950 . S
C1509 C1526 1.574 . S
C1509 C1528 1.368 . S
C1509 H1533 0.949 . S
H1510 C1514 0.949 . S
C1511 C1512 1.349 . S
C1511 C1513 1.327 . S
C1511 H1534 0.950 . S
C1512 C1511 1.349 . S
C1512 C1524 1.349 . S
C1513 C1511 1.327 . S
C1513 C1529 1.429 . S
C1513 H1535 0.950 . S
C1514 H1510 0.949 . S
C1514 C1522 1.574 . S
C1514 C1530 1.368 . S
H1515 C1523 0.950 . S
H1516 C1521 0.950 . S
H1517 C1522 0.949 . S
H1518 C1524 0.950 . S
H1519 C1525 0.950 . S
H1520 C1526 0.949 . S
C1521 H1516 0.950 . S
C1521 C1523 1.327 . S
C1521 C1527 1.429 . S
C1522 C1514 1.574 . S
C1522 H1517 0.949 . S
C1522 C1528 1.368 . S
C1523 C1507 1.349 . S
C1523 H1515 0.950 . S
C1523 C1521 1.327 . S
C1524 C1512 1.349 . S
C1524 H1518 0.950 . S
C1524 C1525 1.327 . S
C1525 H1519 0.950 . S
C1525 C1524 1.327 . S
C1525 C1529 1.429 . S
C1526 C1509 1.574 . S
C1526 H1520 0.949 . S
C1526 C1530 1.368 . S
C1527 C1508 1.429 . S
C1527 C1521 1.429 . S
C1527 C1528 1.523 . S
C1528 C1509 1.368 . S
C1528 C1522 1.368 . S
C1528 C1527 1.523 . S
C1529 C1513 1.429 . S
C1529 C1525 1.429 . S
C1529 C1530 1.523 . S
C1530 C1514 1.368 . S
C1530 C1526 1.368 . S
C1530 C1529 1.523 . S
H1531 C1506 0.950 . S
H1532 C1508 0.950 . S
H1533 C1509 0.949 . S
H1534 C1511 0.950 . S
H1535 C1513 0.950 . S
C1536 C1537 1.349 . S
C1536 C1538 1.327 . S
C1536 H1561 0.950 . S
C1537 C1536 1.349 . S
C1537 C1553 1.349 . S
C1538 C1536 1.327 . S
C1538 C1557 1.429 . S
C1538 H1562 0.950 . S
C1539 C1556 1.574 . S
C1539 C1558 1.368 . S
C1539 H1563 0.949 . S
H1540 C1544 0.949 . S
C1541 C1542 1.349 . S
C1541 C1543 1.327 . S
C1541 H1564 0.950 . S
C1542 C1541 1.349 . S
C1542 C1554 1.349 . S
C1543 C1541 1.327 . S
C1543 C1559 1.429 . S
C1543 H1565 0.950 . S
C1544 H1540 0.949 . S
C1544 C1552 1.574 . S
C1544 C1560 1.368 . S
H1545 C1553 0.950 . S
H1546 C1551 0.950 . S
H1547 C1552 0.949 . S
H1548 C1554 0.950 . S
H1549 C1555 0.950 . S
H1550 C1556 0.949 . S
C1551 H1546 0.950 . S
C1551 C1553 1.327 . S
C1551 C1557 1.429 . S
C1552 C1544 1.574 . S
C1552 H1547 0.949 . S
C1552 C1558 1.368 . S
C1553 C1537 1.349 . S
C1553 H1545 0.950 . S
C1553 C1551 1.327 . S
C1554 C1542 1.349 . S
C1554 H1548 0.950 . S
C1554 C1555 1.327 . S
C1555 H1549 0.950 . S
C1555 C1554 1.327 . S
C1555 C1559 1.429 . S
C1556 C1539 1.574 . S
C1556 H1550 0.949 . S
C1556 C1560 1.368 . S
C1557 C1538 1.429 . S
C1557 C1551 1.429 . S
C1557 C1558 1.523 . S
C1558 C1539 1.368 . S
C1558 C1552 1.368 . S
C1558 C1557 1.523 . S
C1559 C1543 1.429 . S
C1559 C1555 1.429 . S
C1559 C1560 1.523 . S
C1560 C1544 1.368 . S
C1560 C1556 1.368 . S
C1560 C1559 1.523 . S
H1561 C1536 0.950 . S
H1562 C1538 0.950 . S
H1563 C1539 0.949 . S
H1564 C1541 0.950 . S
H1565 C1543 0.950 . S
C1566 C1567 1.349 . S
C1566 C1568 1.327 . S
C1566 H1591 0.950 . S
C1567 C1566 1.349 . S
C1567 C1583 1.349 . S
C1568 C1566 1.327 . S
C1568 C1587 1.429 . S
C1568 H1592 0.950 . S
C1569 C1586 1.574 . S
C1569 C1588 1.368 . S
C1569 H1593 0.949 . S
H1570 C1574 0.949 . S
C1571 C1572 1.349 . S
C1571 C1573 1.327 . S
C1571 H1594 0.950 . S
C1572 C1571 1.349 . S
C1572 C1584 1.349 . S
C1573 C1571 1.327 . S
C1573 C1589 1.429 . S
C1573 H1595 0.950 . S
C1574 H1570 0.949 . S
C1574 C1582 1.574 . S
C1574 C1590 1.368 . S
H1575 C1583 0.950 . S
H1576 C1581 0.950 . S
H1577 C1582 0.949 . S
H1578 C1584 0.950 . S
H1579 C1585 0.950 . S
H1580 C1586 0.949 . S
C1581 H1576 0.950 . S
C1581 C1583 1.327 . S
C1581 C1587 1.429 . S
C1582 C1574 1.574 . S
C1582 H1577 0.949 . S
C1582 C1588 1.368 . S
C1583 C1567 1.349 . S
C1583 H1575 0.950 . S
C1583 C1581 1.327 . S
C1584 C1572 1.349 . S
C1584 H1578 0.950 . S
C1584 C1585 1.327 . S
C1585 H1579 0.950 . S
C1585 C1584 1.327 . S
C1585 C1589 1.429 . S
C1586 C1569 1.574 . S
C1586 H1580 0.949 . S
C1586 C1590 1.368 . S
C1587 C1568 1.429 . S
C1587 C1581 1.429 . S
C1587 C1588 1.523 . S
C1588 C1569 1.368 . S
C1588 C1582 1.368 . S
C1588 C1587 1.523 . S
C1589 C1573 1.429 . S
C1589 C1585 1.429 . S
C1589 C1590 1.523 . S
C1590 C1574 1.368 . S
C1590 C1586 1.368 . S
C1590 C1589 1.523 . S
H1591 C1566 0.950 . S
H1592 C1568 0.950 . S
H1593 C1569 0.949 . S
H1594 C1571 0.950 . S
H1595 C1573 0.950 . S
C1596 C1597 1.349 . S
C1596 C1598 1.327 . S
C1596 H1621 0.950 . S
C1597 C1596 1.349 . S
C1597 C1613 1.349 . S
C1598 C1596 1.327 . S
C1598 C1617 1.429 . S
C1598 H1622 0.950 . S
C1599 C1616 1.574 . S
C1599 C1618 1.368 . S
C1599 H1623 0.949 . S
H1600 C1604 0.949 . S
C1601 C1602 1.349 . S
C1601 C1603 1.327 . S
C1601 H1624 0.950 . S
C1602 C1601 1.349 . S
C1602 C1614 1.349 . S
C1603 C1601 1.327 . S
C1603 C1619 1.429 . S
C1603 H1625 0.950 . S
C1604 H1600 0.949 . S
C1604 C1612 1.574 . S
C1604 C1620 1.368 . S
H1605 C1613 0.950 . S
H1606 C1611 0.950 . S
H1607 C1612 0.949 . S
H1608 C1614 0.950 . S
H1609 C1615 0.950 . S
H1610 C1616 0.949 . S
C1611 H1606 0.950 . S
C1611 C1613 1.327 . S
C1611 C1617 1.429 . S
C1612 C1604 1.574 . S
C1612 H1607 0.949 . S
C1612 C1618 1.368 . S
C1613 C1597 1.349 . S
C1613 H1605 0.950 . S
C1613 C1611 1.327 . S
C1614 C1602 1.349 . S
C1614 H1608 0.950 . S
C1614 C1615 1.327 . S
C1615 H1609 0.950 . S
C1615 C1614 1.327 . S
C1615 C1619 1.429 . S
C1616 C1599 1.574 . S
C1616 H1610 0.949 . S
C1616 C1620 1.368 . S
C1617 C1598 1.429 . S
C1617 C1611 1.429 . S
C1617 C1618 1.523 . S
C1618 C1599 1.368 . S
C1618 C1612 1.368 . S
C1618 C1617 1.523 . S
C1619 C1603 1.429 . S
C1619 C1615 1.429 . S
C1619 C1620 1.523 . S
C1620 C1604 1.368 . S
C1620 C1616 1.368 . S
C1620 C1619 1.523 . S
H1621 C1596 0.950 . S
H1622 C1598 0.950 . S
H1623 C1599 0.949 . S
H1624 C1601 0.950 . S
H1625 C1603 0.950 . S
C1626 C1627 1.349 . S
C1626 C1628 1.327 . S
C1626 H1651 0.950 . S
C1627 C1626 1.349 . S
C1627 C1643 1.349 . S
C1628 C1626 1.327 . S
C1628 C1647 1.429 . S
C1628 H1652 0.950 . S
C1629 C1646 1.574 . S
C1629 C1648 1.368 . S
C1629 H1653 0.949 . S
H1630 C1634 0.949 . S
C1631 C1632 1.349 . S
C1631 C1633 1.327 . S
C1631 H1654 0.950 . S
C1632 C1631 1.349 . S
C1632 C1644 1.349 . S
C1633 C1631 1.327 . S
C1633 C1649 1.429 . S
C1633 H1655 0.950 . S
C1634 H1630 0.949 . S
C1634 C1642 1.574 . S
C1634 C1650 1.368 . S
H1635 C1643 0.950 . S
H1636 C1641 0.950 . S
H1637 C1642 0.949 . S
H1638 C1644 0.950 . S
H1639 C1645 0.950 . S
H1640 C1646 0.949 . S
C1641 H1636 0.950 . S
C1641 C1643 1.327 . S
C1641 C1647 1.429 . S
C1642 C1634 1.574 . S
C1642 H1637 0.949 . S
C1642 C1648 1.368 . S
C1643 C1627 1.349 . S
C1643 H1635 0.950 . S
C1643 C1641 1.327 . S
C1644 C1632 1.349 . S
C1644 H1638 0.950 . S
C1644 C1645 1.327 . S
C1645 H1639 0.950 . S
C1645 C1644 1.327 . S
C1645 C1649 1.429 . S
C1646 C1629 1.574 . S
C1646 H1640 0.949 . S
C1646 C1650 1.368 . S
C1647 C1628 1.429 . S
C1647 C1641 1.429 . S
C1647 C1648 1.523 . S
C1648 C1629 1.368 . S
C1648 C1642 1.368 . S
C1648 C1647 1.523 . S
C1649 C1633 1.429 . S
C1649 C1645 1.429 . S
C1649 C1650 1.523 . S
C1650 C1634 1.368 . S
C1650 C1646 1.368 . S
C1650 C1649 1.523 . S
H1651 C1626 0.950 . S
H1652 C1628 0.950 . S
H1653 C1629 0.949 . S
H1654 C1631 0.950 . S
H1655 C1633 0.950 . S
C1656 C1657 1.349 . S
C1656 C1658 1.327 . S
C1656 H1681 0.950 . S
C1657 C1656 1.349 . S
C1657 C1673 1.349 . S
C1658 C1656 1.327 . S
C1658 C1677 1.429 . S
C1658 H1682 0.950 . S
C1659 C1676 1.574 . S
C1659 C1678 1.368 . S
C1659 H1683 0.949 . S
H1660 C1664 0.949 . S
C1661 C1662 1.349 . S
C1661 C1663 1.327 . S
C1661 H1684 0.950 . S
C1662 C1661 1.349 . S
C1662 C1674 1.349 . S
C1663 C1661 1.327 . S
C1663 C1679 1.429 . S
C1663 H1685 0.950 . S
C1664 H1660 0.949 . S
C1664 C1672 1.574 . S
C1664 C1680 1.368 . S
H1665 C1673 0.950 . S
H1666 C1671 0.950 . S
H1667 C1672 0.949 . S
H1668 C1674 0.950 . S
H1669 C1675 0.950 . S
H1670 C1676 0.949 . S
C1671 H1666 0.950 . S
C1671 C1673 1.327 . S
C1671 C1677 1.429 . S
C1672 C1664 1.574 . S
C1672 H1667 0.949 . S
C1672 C1678 1.368 . S
C1673 C1657 1.349 . S
C1673 H1665 0.950 . S
C1673 C1671 1.327 . S
C1674 C1662 1.349 . S
C1674 H1668 0.950 . S
C1674 C1675 1.327 . S
C1675 H1669 0.950 . S
C1675 C1674 1.327 . S
C1675 C1679 1.429 . S
C1676 C1659 1.574 . S
C1676 H1670 0.949 . S
C1676 C1680 1.368 . S
C1677 C1658 1.429 . S
C1677 C1671 1.429 . S
C1677 C1678 1.523 . S
C1678 C1659 1.368 . S
C1678 C1672 1.368 . S
C1678 C1677 1.523 . S
C1679 C1663 1.429 . S
C1679 C1675 1.429 . S
C1679 C1680 1.523 . S
C1680 C1664 1.368 . S
C1680 C1676 1.368 . S
C1680 C1679 1.523 . S
H1681 C1656 0.950 . S
H1682 C1658 0.950 . S
H1683 C1659 0.949 . S
H1684 C1661 0.950 . S
H1685 C1663 0.950 . S
C1686 C1687 1.349 . S
C1686 C1688 1.327 . S
C1686 H1711 0.950 . S
C1687 C1686 1.349 . S
C1687 C1703 1.349 . S
C1688 C1686 1.327 . S
C1688 C1707 1.429 . S
C1688 H1712 0.950 . S
C1689 C1706 1.574 . S
C1689 C1708 1.368 . S
C1689 H1713 0.949 . S
H1690 C1694 0.949 . S
C1691 C1692 1.349 . S
C1691 C1693 1.327 . S
C1691 H1714 0.950 . S
C1692 C1691 1.349 . S
C1692 C1704 1.349 . S
C1693 C1691 1.327 . S
C1693 C1709 1.429 . S
C1693 H1715 0.950 . S
C1694 H1690 0.949 . S
C1694 C1702 1.574 . S
C1694 C1710 1.368 . S
H1695 C1703 0.950 . S
H1696 C1701 0.950 . S
H1697 C1702 0.949 . S
H1698 C1704 0.950 . S
H1699 C1705 0.950 . S
H1700 C1706 0.949 . S
C1701 H1696 0.950 . S
C1701 C1703 1.327 . S
C1701 C1707 1.429 . S
C1702 C1694 1.574 . S
C1702 H1697 0.949 . S
C1702 C1708 1.368 . S
C1703 C1687 1.349 . S
C1703 H1695 0.950 . S
C1703 C1701 1.327 . S
C1704 C1692 1.349 . S
C1704 H1698 0.950 . S
C1704 C1705 1.327 . S
C1705 H1699 0.950 . S
C1705 C1704 1.327 . S
C1705 C1709 1.429 . S
C1706 C1689 1.574 . S
C1706 H1700 0.949 . S
C1706 C1710 1.368 . S
C1707 C1688 1.429 . S
C1707 C1701 1.429 . S
C1707 C1708 1.523 . S
C1708 C1689 1.368 . S
C1708 C1702 1.368 . S
C1708 C1707 1.523 . S
C1709 C1693 1.429 . S
C1709 C1705 1.429 . S
C1709 C1710 1.523 . S
C1710 C1694 1.368 . S
C1710 C1706 1.368 . S
C1710 C1709 1.523 . S
H1711 C1686 0.950 . S
H1712 C1688 0.950 . S
H1713 C1689 0.949 . S
H1714 C1691 0.950 . S
H1715 C1693 0.950 . S
C1716 C1717 1.349 . S
C1716 C1718 1.327 . S
C1716 H1741 0.950 . S
C1717 C1716 1.349 . S
C1717 C1733 1.349 . S
C1718 C1716 1.327 . S
C1718 C1737 1.429 . S
C1718 H1742 0.950 . S
C1719 C1736 1.574 . S
C1719 C1738 1.368 . S
C1719 H1743 0.949 . S
H1720 C1724 0.949 . S
C1721 C1722 1.349 . S
C1721 C1723 1.327 . S
C1721 H1744 0.950 . S
C1722 C1721 1.349 . S
C1722 C1734 1.349 . S
C1723 C1721 1.327 . S
C1723 C1739 1.429 . S
C1723 H1745 0.950 . S
C1724 H1720 0.949 . S
C1724 C1732 1.574 . S
C1724 C1740 1.368 . S
H1725 C1733 0.950 . S
H1726 C1731 0.950 . S
H1727 C1732 0.949 . S
H1728 C1734 0.950 . S
H1729 C1735 0.950 . S
H1730 C1736 0.949 . S
C1731 H1726 0.950 . S
C1731 C1733 1.327 . S
C1731 C1737 1.429 . S
C1732 C1724 1.574 . S
C1732 H1727 0.949 . S
C1732 C1738 1.368 . S
C1733 C1717 1.349 . S
C1733 H1725 0.950 . S
C1733 C1731 1.327 . S
C1734 C1722 1.349 . S
C1734 H1728 0.950 . S
C1734 C1735 1.327 . S
C1735 H1729 0.950 . S
C1735 C1734 1.327 . S
C1735 C1739 1.429 . S
C1736 C1719 1.574 . S
C1736 H1730 0.949 . S
C1736 C1740 1.368 . S
C1737 C1718 1.429 . S
C1737 C1731 1.429 . S
C1737 C1738 1.523 . S
C1738 C1719 1.368 . S
C1738 C1732 1.368 . S
C1738 C1737 1.523 . S
C1739 C1723 1.429 . S
C1739 C1735 1.429 . S
C1739 C1740 1.523 . S
C1740 C1724 1.368 . S
C1740 C1736 1.368 . S
C1740 C1739 1.523 . S
H1741 C1716 0.950 . S
H1742 C1718 0.950 . S
H1743 C1719 0.949 . S
H1744 C1721 0.950 . S
H1745 C1723 0.950 . S
C1746 C1747 1.349 . S
C1746 C1748 1.327 . S
C1746 H1771 0.950 . S
C1747 C1746 1.349 . S
C1747 C1763 1.349 . S
C1748 C1746 1.327 . S
C1748 C1767 1.429 . S
C1748 H1772 0.950 . S
C1749 C1766 1.574 . S
C1749 C1768 1.368 . S
C1749 H1773 0.949 . S
H1750 C1754 0.949 . S
C1751 C1752 1.349 . S
C1751 C1753 1.327 . S
C1751 H1774 0.950 . S
C1752 C1751 1.349 . S
C1752 C1764 1.349 . S
C1753 C1751 1.327 . S
C1753 C1769 1.429 . S
C1753 H1775 0.950 . S
C1754 H1750 0.949 . S
C1754 C1762 1.574 . S
C1754 C1770 1.368 . S
H1755 C1763 0.950 . S
H1756 C1761 0.950 . S
H1757 C1762 0.949 . S
H1758 C1764 0.950 . S
H1759 C1765 0.950 . S
H1760 C1766 0.949 . S
C1761 H1756 0.950 . S
C1761 C1763 1.327 . S
C1761 C1767 1.429 . S
C1762 C1754 1.574 . S
C1762 H1757 0.949 . S
C1762 C1768 1.368 . S
C1763 C1747 1.349 . S
C1763 H1755 0.950 . S
C1763 C1761 1.327 . S
C1764 C1752 1.349 . S
C1764 H1758 0.950 . S
C1764 C1765 1.327 . S
C1765 H1759 0.950 . S
C1765 C1764 1.327 . S
C1765 C1769 1.429 . S
C1766 C1749 1.574 . S
C1766 H1760 0.949 . S
C1766 C1770 1.368 . S
C1767 C1748 1.429 . S
C1767 C1761 1.429 . S
C1767 C1768 1.523 . S
C1768 C1749 1.368 . S
C1768 C1762 1.368 . S
C1768 C1767 1.523 . S
C1769 C1753 1.429 . S
C1769 C1765 1.429 . S
C1769 C1770 1.523 . S
C1770 C1754 1.368 . S
C1770 C1766 1.368 . S
C1770 C1769 1.523 . S
H1771 C1746 0.950 . S
H1772 C1748 0.950 . S
H1773 C1749 0.949 . S
H1774 C1751 0.950 . S
H1775 C1753 0.950 . S
C1776 C1777 1.349 . S
C1776 C1778 1.327 . S
C1776 H1801 0.950 . S
C1777 C1776 1.349 . S
C1777 C1793 1.349 . S
C1778 C1776 1.327 . S
C1778 C1797 1.429 . S
C1778 H1802 0.950 . S
C1779 C1796 1.574 . S
C1779 C1798 1.368 . S
C1779 H1803 0.949 . S
H1780 C1784 0.949 . S
C1781 C1782 1.349 . S
C1781 C1783 1.327 . S
C1781 H1804 0.950 . S
C1782 C1781 1.349 . S
C1782 C1794 1.349 . S
C1783 C1781 1.327 . S
C1783 C1799 1.429 . S
C1783 H1805 0.950 . S
C1784 H1780 0.949 . S
C1784 C1792 1.574 . S
C1784 C1800 1.368 . S
H1785 C1793 0.950 . S
H1786 C1791 0.950 . S
H1787 C1792 0.949 . S
H1788 C1794 0.950 . S
H1789 C1795 0.950 . S
H1790 C1796 0.949 . S
C1791 H1786 0.950 . S
C1791 C1793 1.327 . S
C1791 C1797 1.429 . S
C1792 C1784 1.574 . S
C1792 H1787 0.949 . S
C1792 C1798 1.368 . S
C1793 C1777 1.349 . S
C1793 H1785 0.950 . S
C1793 C1791 1.327 . S
C1794 C1782 1.349 . S
C1794 H1788 0.950 . S
C1794 C1795 1.327 . S
C1795 H1789 0.950 . S
C1795 C1794 1.327 . S
C1795 C1799 1.429 . S
C1796 C1779 1.574 . S
C1796 H1790 0.949 . S
C1796 C1800 1.368 . S
C1797 C1778 1.429 . S
C1797 C1791 1.429 . S
C1797 C1798 1.523 . S
C1798 C1779 1.368 . S
C1798 C1792 1.368 . S
C1798 C1797 1.523 . S
C1799 C1783 1.429 . S
C1799 C1795 1.429 . S
C1799 C1800 1.523 . S
C1800 C1784 1.368 . S
C1800 C1796 1.368 . S
C1800 C1799 1.523 . S
H1801 C1776 0.950 . S
H1802 C1778 0.950 . S
H1803 C1779 0.949 . S
H1804 C1781 0.950 . S
H1805 C1783 0.950 . S
C1806 C1807 1.349 . S
C1806 C1808 1.327 . S
C1806 H1831 0.950 . S
C1807 C1806 1.349 . S
C1807 C1823 1.349 . S
C1808 C1806 1.327 . S
C1808 C1827 1.429 . S
C1808 H1832 0.950 . S
C1809 C1826 1.574 . S
C1809 C1828 1.368 . S
C1809 H1833 0.949 . S
H1810 C1814 0.949 . S
C1811 C1812 1.349 . S
C1811 C1813 1.327 . S
C1811 H1834 0.950 . S
C1812 C1811 1.349 . S
C1812 C1824 1.349 . S
C1813 C1811 1.327 . S
C1813 C1829 1.429 . S
C1813 H1835 0.950 . S
C1814 H1810 0.949 . S
C1814 C1822 1.574 . S
C1814 C1830 1.368 . S
H1815 C1823 0.950 . S
H1816 C1821 0.950 . S
H1817 C1822 0.949 . S
H1818 C1824 0.950 . S
H1819 C1825 0.950 . S
H1820 C1826 0.949 . S
C1821 H1816 0.950 . S
C1821 C1823 1.327 . S
C1821 C1827 1.429 . S
C1822 C1814 1.574 . S
C1822 H1817 0.949 . S
C1822 C1828 1.368 . S
C1823 C1807 1.349 . S
C1823 H1815 0.950 . S
C1823 C1821 1.327 . S
C1824 C1812 1.349 . S
C1824 H1818 0.950 . S
C1824 C1825 1.327 . S
C1825 H1819 0.950 . S
C1825 C1824 1.327 . S
C1825 C1829 1.429 . S
C1826 C1809 1.574 . S
C1826 H1820 0.949 . S
C1826 C1830 1.368 . S
C1827 C1808 1.429 . S
C1827 C1821 1.429 . S
C1827 C1828 1.523 . S
C1828 C1809 1.368 . S
C1828 C1822 1.368 . S
C1828 C1827 1.523 . S
C1829 C1813 1.429 . S
C1829 C1825 1.429 . S
C1829 C1830 1.523 . S
C1830 C1814 1.368 . S
C1830 C1826 1.368 . S
C1830 C1829 1.523 . S
H1831 C1806 0.950 . S
H1832 C1808 0.950 . S
H1833 C1809 0.949 . S
H1834 C1811 0.950 . S
H1835 C1813 0.950 . S
C1836 C1837 1.349 . S
C1836 C1838 1.327 . S
C1836 H1861 0.950 . S
C1837 C1836 1.349 . S
C1837 C1853 1.349 . S
C1838 C1836 1.327 . S
C1838 C1857 1.429 . S
C1838 H1862 0.950 . S
C1839 C1856 1.574 . S
C1839 C1858 1.368 . S
C1839 H1863 0.949 . S
H1840 C1844 0.949 . S
C1841 C1842 1.349 . S
C1841 C1843 1.327 . S
C1841 H1864 0.950 . S
C1842 C1841 1.349 . S
C1842 C1854 1.349 . S
C1843 C1841 1.327 . S
C1843 C1859 1.429 . S
C1843 H1865 0.950 . S
C1844 H1840 0.949 . S
C1844 C1852 1.574 . S
C1844 C1860 1.368 . S
H1845 C1853 0.950 . S
H1846 C1851 0.950 . S
H1847 C1852 0.949 . S
H1848 C1854 0.950 . S
H1849 C1855 0.950 . S
H1850 C1856 0.949 . S
C1851 H1846 0.950 . S
C1851 C1853 1.327 . S
C1851 C1857 1.429 . S
C1852 C1844 1.574 . S
C1852 H1847 0.949 . S
C1852 C1858 1.368 . S
C1853 C1837 1.349 . S
C1853 H1845 0.950 . S
C1853 C1851 1.327 . S
C1854 C1842 1.349 . S
C1854 H1848 0.950 . S
C1854 C1855 1.327 . S
C1855 H1849 0.950 . S
C1855 C1854 1.327 . S
C1855 C1859 1.429 . S
C1856 C1839 1.574 . S
C1856 H1850 0.949 . S
C1856 C1860 1.368 . S
C1857 C1838 1.429 . S
C1857 C1851 1.429 . S
C1857 C1858 1.523 . S
C1858 C1839 1.368 . S
C1858 C1852 1.368 . S
C1858 C1857 1.523 . S
C1859 C1843 1.429 . S
C1859 C1855 1.429 . S
C1859 C1860 1.523 . S
C1860 C1844 1.368 . S
C1860 C1856 1.368 . S
C1860 C1859 1.523 . S
H1861 C1836 0.950 . S
H1862 C1838 0.950 . S
H1863 C1839 0.949 . S
H1864 C1841 0.950 . S
H1865 C1843 0.950 . S
C1866 C1867 1.349 . S
C1866 C1868 1.327 . S
C1866 H1891 0.950 . S
C1867 C1866 1.349 . S
C1867 C1883 1.349 . S
C1868 C1866 1.327 . S
C1868 C1887 1.429 . S
C1868 H1892 0.950 . S
C1869 C1886 1.574 . S
C1869 C1888 1.368 . S
C1869 H1893 0.949 . S
H1870 C1874 0.949 . S
C1871 C1872 1.349 . S
C1871 C1873 1.327 . S
C1871 H1894 0.950 . S
C1872 C1871 1.349 . S
C1872 C1884 1.349 . S
C1873 C1871 1.327 . S
C1873 C1889 1.429 . S
C1873 H1895 0.950 . S
C1874 H1870 0.949 . S
C1874 C1882 1.574 . S
C1874 C1890 1.368 . S
H1875 C1883 0.950 . S
H1876 C1881 0.950 . S
H1877 C1882 0.949 . S
H1878 C1884 0.950 . S
H1879 C1885 0.950 . S
H1880 C1886 0.949 . S
C1881 H1876 0.950 . S
C1881 C1883 1.327 . S
C1881 C1887 1.429 . S
C1882 C1874 1.574 . S
C1882 H1877 0.949 . S
C1882 C1888 1.368 . S
C1883 C1867 1.349 . S
C1883 H1875 0.950 . S
C1883 C1881 1.327 . S
C1884 C1872 1.349 . S
C1884 H1878 0.950 . S
C1884 C1885 1.327 . S
C1885 H1879 0.950 . S
C1885 C1884 1.327 . S
C1885 C1889 1.429 . S
C1886 C1869 1.574 . S
C1886 H1880 0.949 . S
C1886 C1890 1.368 . S
C1887 C1868 1.429 . S
C1887 C1881 1.429 . S
C1887 C1888 1.523 . S
C1888 C1869 1.368 . S
C1888 C1882 1.368 . S
C1888 C1887 1.523 . S
C1889 C1873 1.429 . S
C1889 C1885 1.429 . S
C1889 C1890 1.523 . S
C1890 C1874 1.368 . S
C1890 C1886 1.368 . S
C1890 C1889 1.523 . S
H1891 C1866 0.950 . S
H1892 C1868 0.950 . S
H1893 C1869 0.949 . S
H1894 C1871 0.950 . S
H1895 C1873 0.950 . S
C1896 C1897 1.349 . S
C1896 C1898 1.327 . S
C1896 H1921 0.950 . S
C1897 C1896 1.349 . S
C1897 C1913 1.349 . S
C1898 C1896 1.327 . S
C1898 C1917 1.429 . S
C1898 H1922 0.950 . S
C1899 C1916 1.574 . S
C1899 C1918 1.368 . S
C1899 H1923 0.949 . S
H1900 C1904 0.949 . S
C1901 C1902 1.349 . S
C1901 C1903 1.327 . S
C1901 H1924 0.950 . S
C1902 C1901 1.349 . S
C1902 C1914 1.349 . S
C1903 C1901 1.327 . S
C1903 C1919 1.429 . S
C1903 H1925 0.950 . S
C1904 H1900 0.949 . S
C1904 C1912 1.574 . S
C1904 C1920 1.368 . S
H1905 C1913 0.950 . S
H1906 C1911 0.950 . S
H1907 C1912 0.949 . S
H1908 C1914 0.950 . S
H1909 C1915 0.950 . S
H1910 C1916 0.949 . S
C1911 H1906 0.950 . S
C1911 C1913 1.327 . S
C1911 C1917 1.429 . S
C1912 C1904 1.574 . S
C1912 H1907 0.949 . S
C1912 C1918 1.368 . S
C1913 C1897 1.349 . S
C1913 H1905 0.950 . S
C1913 C1911 1.327 . S
C1914 C1902 1.349 . S
C1914 H1908 0.950 . S
C1914 C1915 1.327 . S
C1915 H1909 0.950 . S
C1915 C1914 1.327 . S
C1915 C1919 1.429 . S
C1916 C1899 1.574 . S
C1916 H1910 0.949 . S
C1916 C1920 1.368 . S
C1917 C1898 1.429 . S
C1917 C1911 1.429 . S
C1917 C1918 1.523 . S
C1918 C1899 1.368 . S
C1918 C1912 1.368 . S
C1918 C1917 1.523 . S
C1919 C1903 1.429 . S
C1919 C1915 1.429 . S
C1919 C1920 1.523 . S
C1920 C1904 1.368 . S
C1920 C1916 1.368 . S
C1920 C1919 1.523 . S
H1921 C1896 0.950 . S
H1922 C1898 0.950 . S
H1923 C1899 0.949 . S
H1924 C1901 0.950 . S
H1925 C1903 0.950 . S
C1926 C1927 1.349 . S
C1926 C1928 1.327 . S
C1926 H1951 0.950 . S
C1927 C1926 1.349 . S
C1927 C1943 1.349 . S
C1928 C1926 1.327 . S
C1928 C1947 1.429 . S
C1928 H1952 0.950 . S
C1929 C1946 1.574 . S
C1929 C1948 1.368 . S
C1929 H1953 0.949 . S
H1930 C1934 0.949 . S
C1931 C1932 1.349 . S
C1931 C1933 1.327 . S
C1931 H1954 0.950 . S
C1932 C1931 1.349 . S
C1932 C1944 1.349 . S
C1933 C1931 1.327 . S
C1933 C1949 1.429 . S
C1933 H1955 0.950 . S
C1934 H1930 0.949 . S
C1934 C1942 1.574 . S
C1934 C1950 1.368 . S
H1935 C1943 0.950 . S
H1936 C1941 0.950 . S
H1937 C1942 0.949 . S
H1938 C1944 0.950 . S
H1939 C1945 0.950 . S
H1940 C1946 0.949 . S
C1941 H1936 0.950 . S
C1941 C1943 1.327 . S
C1941 C1947 1.429 . S
C1942 C1934 1.574 . S
C1942 H1937 0.949 . S
C1942 C1948 1.368 . S
C1943 C1927 1.349 . S
C1943 H1935 0.950 . S
C1943 C1941 1.327 . S
C1944 C1932 1.349 . S
C1944 H1938 0.950 . S
C1944 C1945 1.327 . S
C1945 H1939 0.950 . S
C1945 C1944 1.327 . S
C1945 C1949 1.429 . S
C1946 C1929 1.574 . S
C1946 H1940 0.949 . S
C1946 C1950 1.368 . S
C1947 C1928 1.429 . S
C1947 C1941 1.429 . S
C1947 C1948 1.523 . S
C1948 C1929 1.368 . S
C1948 C1942 1.368 . S
C1948 C1947 1.523 . S
C1949 C1933 1.429 . S
C1949 C1945 1.429 . S
C1949 C1950 1.523 . S
C1950 C1934 1.368 . S
C1950 C1946 1.368 . S
C1950 C1949 1.523 . S
H1951 C1926 0.950 . S
H1952 C1928 0.950 . S
H1953 C1929 0.949 . S
H1954 C1931 0.950 . S
H1955 C1933 0.950 . S
C1956 C1957 1.349 . S
C1956 C1958 1.327 . S
C1956 H1981 0.950 . S
C1957 C1956 1.349 . S
C1957 C1973 1.349 . S
C1958 C1956 1.327 . S
C1958 C1977 1.429 . S
C1958 H1982 0.950 . S
C1959 C1976 1.574 . S
C1959 C1978 1.368 . S
C1959 H1983 0.949 . S
H1960 C1964 0.949 . S
C1961 C1962 1.349 . S
C1961 C1963 1.327 . S
C1961 H1984 0.950 . S
C1962 C1961 1.349 . S
C1962 C1974 1.349 . S
C1963 C1961 1.327 . S
C1963 C1979 1.429 . S
C1963 H1985 0.950 . S
C1964 H1960 0.949 . S
C1964 C1972 1.574 . S
C1964 C1980 1.368 . S
H1965 C1973 0.950 . S
H1966 C1971 0.950 . S
H1967 C1972 0.949 . S
H1968 C1974 0.950 . S
H1969 C1975 0.950 . S
H1970 C1976 0.949 . S
C1971 H1966 0.950 . S
C1971 C1973 1.327 . S
C1971 C1977 1.429 . S
C1972 C1964 1.574 . S
C1972 H1967 0.949 . S
C1972 C1978 1.368 . S
C1973 C1957 1.349 . S
C1973 H1965 0.950 . S
C1973 C1971 1.327 . S
C1974 C1962 1.349 . S
C1974 H1968 0.950 . S
C1974 C1975 1.327 . S
C1975 H1969 0.950 . S
C1975 C1974 1.327 . S
C1975 C1979 1.429 . S
C1976 C1959 1.574 . S
C1976 H1970 0.949 . S
C1976 C1980 1.368 . S
C1977 C1958 1.429 . S
C1977 C1971 1.429 . S
C1977 C1978 1.523 . S
C1978 C1959 1.368 . S
C1978 C1972 1.368 . S
C1978 C1977 1.523 . S
C1979 C1963 1.429 . S
C1979 C1975 1.429 . S
C1979 C1980 1.523 . S
C1980 C1964 1.368 . S
C1980 C1976 1.368 . S
C1980 C1979 1.523 . S
H1981 C1956 0.950 . S
H1982 C1958 0.950 . S
H1983 C1959 0.949 . S
H1984 C1961 0.950 . S
H1985 C1963 0.950 . S
C1986 C1987 1.349 . S
C1986 C1988 1.327 . S
C1986 H2011 0.950 . S
C1987 C1986 1.349 . S
C1987 C2003 1.349 . S
C1988 C1986 1.327 . S
C1988 C2007 1.429 . S
C1988 H2012 0.950 . S
C1989 C2006 1.574 . S
C1989 C2008 1.368 . S
C1989 H2013 0.949 . S
H1990 C1994 0.949 . S
C1991 C1992 1.349 . S
C1991 C1993 1.327 . S
C1991 H2014 0.950 . S
C1992 C1991 1.349 . S
C1992 C2004 1.349 . S
C1993 C1991 1.327 . S
C1993 C2009 1.429 . S
C1993 H2015 0.950 . S
C1994 H1990 0.949 . S
C1994 C2002 1.574 . S
C1994 C2010 1.368 . S
H1995 C2003 0.950 . S
H1996 C2001 0.950 . S
H1997 C2002 0.949 . S
H1998 C2004 0.950 . S
H1999 C2005 0.950 . S
H2000 C2006 0.949 . S
C2001 H1996 0.950 . S
C2001 C2003 1.327 . S
C2001 C2007 1.429 . S
C2002 C1994 1.574 . S
C2002 H1997 0.949 . S
C2002 C2008 1.368 . S
C2003 C1987 1.349 . S
C2003 H1995 0.950 . S
C2003 C2001 1.327 . S
C2004 C1992 1.349 . S
C2004 H1998 0.950 . S
C2004 C2005 1.327 . S
C2005 H1999 0.950 . S
C2005 C2004 1.327 . S
C2005 C2009 1.429 . S
C2006 C1989 1.574 . S
C2006 H2000 0.949 . S
C2006 C2010 1.368 . S
C2007 C1988 1.429 . S
C2007 C2001 1.429 . S
C2007 C2008 1.523 . S
C2008 C1989 1.368 . S
C2008 C2002 1.368 . S
C2008 C2007 1.523 . S
C2009 C1993 1.429 . S
C2009 C2005 1.429 . S
C2009 C2010 1.523 . S
C2010 C1994 1.368 . S
C2010 C2006 1.368 . S
C2010 C2009 1.523 . S
H2011 C1986 0.950 . S
H2012 C1988 0.950 . S
H2013 C1989 0.949 . S
H2014 C1991 0.950 . S
H2015 C1993 0.950 . S
C2016 C2017 1.349 . S
C2016 C2018 1.327 . S
C2016 H2041 0.950 . S
C2017 C2016 1.349 . S
C2017 C2033 1.349 . S
C2018 C2016 1.327 . S
C2018 C2037 1.429 . S
C2018 H2042 0.950 . S
C2019 C2036 1.574 . S
C2019 C2038 1.368 . S
C2019 H2043 0.949 . S
H2020 C2024 0.949 . S
C2021 C2022 1.349 . S
C2021 C2023 1.327 . S
C2021 H2044 0.950 . S
C2022 C2021 1.349 . S
C2022 C2034 1.349 . S
C2023 C2021 1.327 . S
C2023 C2039 1.429 . S
C2023 H2045 0.950 . S
C2024 H2020 0.949 . S
C2024 C2032 1.574 . S
C2024 C2040 1.368 . S
H2025 C2033 0.950 . S
H2026 C2031 0.950 . S
H2027 C2032 0.949 . S
H2028 C2034 0.950 . S
H2029 C2035 0.950 . S
H2030 C2036 0.949 . S
C2031 H2026 0.950 . S
C2031 C2033 1.327 . S
C2031 C2037 1.429 . S
C2032 C2024 1.574 . S
C2032 H2027 0.949 . S
C2032 C2038 1.368 . S
C2033 C2017 1.349 . S
C2033 H2025 0.950 . S
C2033 C2031 1.327 . S
C2034 C2022 1.349 . S
C2034 H2028 0.950 . S
C2034 C2035 1.327 . S
C2035 H2029 0.950 . S
C2035 C2034 1.327 . S
C2035 C2039 1.429 . S
C2036 C2019 1.574 . S
C2036 H2030 0.949 . S
C2036 C2040 1.368 . S
C2037 C2018 1.429 . S
C2037 C2031 1.429 . S
C2037 C2038 1.523 . S
C2038 C2019 1.368 . S
C2038 C2032 1.368 . S
C2038 C2037 1.523 . S
C2039 C2023 1.429 . S
C2039 C2035 1.429 . S
C2039 C2040 1.523 . S
C2040 C2024 1.368 . S
C2040 C2036 1.368 . S
C2040 C2039 1.523 . S
H2041 C2016 0.950 . S
H2042 C2018 0.950 . S
H2043 C2019 0.949 . S
H2044 C2021 0.950 . S
H2045 C2023 0.950 . S
C2046 C2047 1.349 . S
C2046 C2048 1.327 . S
C2046 H2071 0.950 . S
C2047 C2046 1.349 . S
C2047 C2063 1.349 . S
C2048 C2046 1.327 . S
C2048 C2067 1.429 . S
C2048 H2072 0.950 . S
C2049 C2066 1.574 . S
C2049 C2068 1.368 . S
C2049 H2073 0.949 . S
H2050 C2054 0.949 . S
C2051 C2052 1.349 . S
C2051 C2053 1.327 . S
C2051 H2074 0.950 . S
C2052 C2051 1.349 . S
C2052 C2064 1.349 . S
C2053 C2051 1.327 . S
C2053 C2069 1.429 . S
C2053 H2075 0.950 . S
C2054 H2050 0.949 . S
C2054 C2062 1.574 . S
C2054 C2070 1.368 . S
H2055 C2063 0.950 . S
H2056 C2061 0.950 . S
H2057 C2062 0.949 . S
H2058 C2064 0.950 . S
H2059 C2065 0.950 . S
H2060 C2066 0.949 . S
C2061 H2056 0.950 . S
C2061 C2063 1.327 . S
C2061 C2067 1.429 . S
C2062 C2054 1.574 . S
C2062 H2057 0.949 . S
C2062 C2068 1.368 . S
C2063 C2047 1.349 . S
C2063 H2055 0.950 . S
C2063 C2061 1.327 . S
C2064 C2052 1.349 . S
C2064 H2058 0.950 . S
C2064 C2065 1.327 . S
C2065 H2059 0.950 . S
C2065 C2064 1.327 . S
C2065 C2069 1.429 . S
C2066 C2049 1.574 . S
C2066 H2060 0.949 . S
C2066 C2070 1.368 . S
C2067 C2048 1.429 . S
C2067 C2061 1.429 . S
C2067 C2068 1.523 . S
C2068 C2049 1.368 . S
C2068 C2062 1.368 . S
C2068 C2067 1.523 . S
C2069 C2053 1.429 . S
C2069 C2065 1.429 . S
C2069 C2070 1.523 . S
C2070 C2054 1.368 . S
C2070 C2066 1.368 . S
C2070 C2069 1.523 . S
H2071 C2046 0.950 . S
H2072 C2048 0.950 . S
H2073 C2049 0.949 . S
H2074 C2051 0.950 . S
H2075 C2053 0.950 . S
C2076 C2077 1.349 . S
C2076 C2078 1.327 . S
C2076 H2101 0.950 . S
C2077 C2076 1.349 . S
C2077 C2093 1.349 . S
C2078 C2076 1.327 . S
C2078 C2097 1.429 . S
C2078 H2102 0.950 . S
C2079 C2096 1.574 . S
C2079 C2098 1.368 . S
C2079 H2103 0.949 . S
H2080 C2084 0.949 . S
C2081 C2082 1.349 . S
C2081 C2083 1.327 . S
C2081 H2104 0.950 . S
C2082 C2081 1.349 . S
C2082 C2094 1.349 . S
C2083 C2081 1.327 . S
C2083 C2099 1.429 . S
C2083 H2105 0.950 . S
C2084 H2080 0.949 . S
C2084 C2092 1.574 . S
C2084 C2100 1.368 . S
H2085 C2093 0.950 . S
H2086 C2091 0.950 . S
H2087 C2092 0.949 . S
H2088 C2094 0.950 . S
H2089 C2095 0.950 . S
H2090 C2096 0.949 . S
C2091 H2086 0.950 . S
C2091 C2093 1.327 . S
C2091 C2097 1.429 . S
C2092 C2084 1.574 . S
C2092 H2087 0.949 . S
C2092 C2098 1.368 . S
C2093 C2077 1.349 . S
C2093 H2085 0.950 . S
C2093 C2091 1.327 . S
C2094 C2082 1.349 . S
C2094 H2088 0.950 . S
C2094 C2095 1.327 . S
C2095 H2089 0.950 . S
C2095 C2094 1.327 . S
C2095 C2099 1.429 . S
C2096 C2079 1.574 . S
C2096 H2090 0.949 . S
C2096 C2100 1.368 . S
C2097 C2078 1.429 . S
C2097 C2091 1.429 . S
C2097 C2098 1.523 . S
C2098 C2079 1.368 . S
C2098 C2092 1.368 . S
C2098 C2097 1.523 . S
C2099 C2083 1.429 . S
C2099 C2095 1.429 . S
C2099 C2100 1.523 . S
C2100 C2084 1.368 . S
C2100 C2096 1.368 . S
C2100 C2099 1.523 . S
H2101 C2076 0.950 . S
H2102 C2078 0.950 . S
H2103 C2079 0.949 . S
H2104 C2081 0.950 . S
H2105 C2083 0.950 . S
C2106 C2107 1.349 . S
C2106 C2108 1.327 . S
C2106 H2131 0.950 . S
C2107 C2106 1.349 . S
C2107 C2123 1.349 . S
C2108 C2106 1.327 . S
C2108 C2127 1.429 . S
C2108 H2132 0.950 . S
C2109 C2126 1.574 . S
C2109 C2128 1.368 . S
C2109 H2133 0.949 . S
H2110 C2114 0.949 . S
C2111 C2112 1.349 . S
C2111 C2113 1.327 . S
C2111 H2134 0.950 . S
C2112 C2111 1.349 . S
C2112 C2124 1.349 . S
C2113 C2111 1.327 . S
C2113 C2129 1.429 . S
C2113 H2135 0.950 . S
C2114 H2110 0.949 . S
C2114 C2122 1.574 . S
C2114 C2130 1.368 . S
H2115 C2123 0.950 . S
H2116 C2121 0.950 . S
H2117 C2122 0.949 . S
H2118 C2124 0.950 . S
H2119 C2125 0.950 . S
H2120 C2126 0.949 . S
C2121 H2116 0.950 . S
C2121 C2123 1.327 . S
C2121 C2127 1.429 . S
C2122 C2114 1.574 . S
C2122 H2117 0.949 . S
C2122 C2128 1.368 . S
C2123 C2107 1.349 . S
C2123 H2115 0.950 . S
C2123 C2121 1.327 . S
C2124 C2112 1.349 . S
C2124 H2118 0.950 . S
C2124 C2125 1.327 . S
C2125 H2119 0.950 . S
C2125 C2124 1.327 . S
C2125 C2129 1.429 . S
C2126 C2109 1.574 . S
C2126 H2120 0.949 . S
C2126 C2130 1.368 . S
C2127 C2108 1.429 . S
C2127 C2121 1.429 . S
C2127 C2128 1.523 . S
C2128 C2109 1.368 . S
C2128 C2122 1.368 . S
C2128 C2127 1.523 . S
C2129 C2113 1.429 . S
C2129 C2125 1.429 . S
C2129 C2130 1.523 . S
C2130 C2114 1.368 . S
C2130 C2126 1.368 . S
C2130 C2129 1.523 . S
H2131 C2106 0.950 . S
H2132 C2108 0.950 . S
H2133 C2109 0.949 . S
H2134 C2111 0.950 . S
H2135 C2113 0.950 . S
C2136 C2137 1.349 . S
C2136 C2138 1.327 . S
C2136 H2161 0.950 . S
C2137 C2136 1.349 . S
C2137 C2153 1.349 . S
C2138 C2136 1.327 . S
C2138 C2157 1.429 . S
C2138 H2162 0.950 . S
C2139 C2156 1.574 . S
C2139 C2158 1.368 . S
C2139 H2163 0.949 . S
H2140 C2144 0.949 . S
C2141 C2142 1.349 . S
C2141 C2143 1.327 . S
C2141 H2164 0.950 . S
C2142 C2141 1.349 . S
C2142 C2154 1.349 . S
C2143 C2141 1.327 . S
C2143 C2159 1.429 . S
C2143 H2165 0.950 . S
C2144 H2140 0.949 . S
C2144 C2152 1.574 . S
C2144 C2160 1.368 . S
H2145 C2153 0.950 . S
H2146 C2151 0.950 . S
H2147 C2152 0.949 . S
H2148 C2154 0.950 . S
H2149 C2155 0.950 . S
H2150 C2156 0.949 . S
C2151 H2146 0.950 . S
C2151 C2153 1.327 . S
C2151 C2157 1.429 . S
C2152 C2144 1.574 . S
C2152 H2147 0.949 . S
C2152 C2158 1.368 . S
C2153 C2137 1.349 . S
C2153 H2145 0.950 . S
C2153 C2151 1.327 . S
C2154 C2142 1.349 . S
C2154 H2148 0.950 . S
C2154 C2155 1.327 . S
C2155 H2149 0.950 . S
C2155 C2154 1.327 . S
C2155 C2159 1.429 . S
C2156 C2139 1.574 . S
C2156 H2150 0.949 . S
C2156 C2160 1.368 . S
C2157 C2138 1.429 . S
C2157 C2151 1.429 . S
C2157 C2158 1.523 . S
C2158 C2139 1.368 . S
C2158 C2152 1.368 . S
C2158 C2157 1.523 . S
C2159 C2143 1.429 . S
C2159 C2155 1.429 . S
C2159 C2160 1.523 . S
C2160 C2144 1.368 . S
C2160 C2156 1.368 . S
C2160 C2159 1.523 . S
H2161 C2136 0.950 . S
H2162 C2138 0.950 . S
H2163 C2139 0.949 . S
H2164 C2141 0.950 . S
H2165 C2143 0.950 . S
C2166 C2167 1.349 . S
C2166 C2168 1.327 . S
C2166 H2191 0.950 . S
C2167 C2166 1.349 . S
C2167 C2183 1.349 . S
C2168 C2166 1.327 . S
C2168 C2187 1.429 . S
C2168 H2192 0.950 . S
C2169 C2186 1.574 . S
C2169 C2188 1.368 . S
C2169 H2193 0.949 . S
H2170 C2174 0.949 . S
C2171 C2172 1.349 . S
C2171 C2173 1.327 . S
C2171 H2194 0.950 . S
C2172 C2171 1.349 . S
C2172 C2184 1.349 . S
C2173 C2171 1.327 . S
C2173 C2189 1.429 . S
C2173 H2195 0.950 . S
C2174 H2170 0.949 . S
C2174 C2182 1.574 . S
C2174 C2190 1.368 . S
H2175 C2183 0.950 . S
H2176 C2181 0.950 . S
H2177 C2182 0.949 . S
H2178 C2184 0.950 . S
H2179 C2185 0.950 . S
H2180 C2186 0.949 . S
C2181 H2176 0.950 . S
C2181 C2183 1.327 . S
C2181 C2187 1.429 . S
C2182 C2174 1.574 . S
C2182 H2177 0.949 . S
C2182 C2188 1.368 . S
C2183 C2167 1.349 . S
C2183 H2175 0.950 . S
C2183 C2181 1.327 . S
C2184 C2172 1.349 . S
C2184 H2178 0.950 . S
C2184 C2185 1.327 . S
C2185 H2179 0.950 . S
C2185 C2184 1.327 . S
C2185 C2189 1.429 . S
C2186 C2169 1.574 . S
C2186 H2180 0.949 . S
C2186 C2190 1.368 . S
C2187 C2168 1.429 . S
C2187 C2181 1.429 . S
C2187 C2188 1.523 . S
C2188 C2169 1.368 . S
C2188 C2182 1.368 . S
C2188 C2187 1.523 . S
C2189 C2173 1.429 . S
C2189 C2185 1.429 . S
C2189 C2190 1.523 . S
C2190 C2174 1.368 . S
C2190 C2186 1.368 . S
C2190 C2189 1.523 . S
H2191 C2166 0.950 . S
H2192 C2168 0.950 . S
H2193 C2169 0.949 . S
H2194 C2171 0.950 . S
H2195 C2173 0.950 . S
C2196 C2197 1.349 . S
C2196 C2198 1.327 . S
C2196 H2221 0.950 . S
C2197 C2196 1.349 . S
C2197 C2213 1.349 . S
C2198 C2196 1.327 . S
C2198 C2217 1.429 . S
C2198 H2222 0.950 . S
C2199 C2216 1.574 . S
C2199 C2218 1.368 . S
C2199 H2223 0.949 . S
H2200 C2204 0.949 . S
C2201 C2202 1.349 . S
C2201 C2203 1.327 . S
C2201 H2224 0.950 . S
C2202 C2201 1.349 . S
C2202 C2214 1.349 . S
C2203 C2201 1.327 . S
C2203 C2219 1.429 . S
C2203 H2225 0.950 . S
C2204 H2200 0.949 . S
C2204 C2212 1.574 . S
C2204 C2220 1.368 . S
H2205 C2213 0.950 . S
H2206 C2211 0.950 . S
H2207 C2212 0.949 . S
H2208 C2214 0.950 . S
H2209 C2215 0.950 . S
H2210 C2216 0.949 . S
C2211 H2206 0.950 . S
C2211 C2213 1.327 . S
C2211 C2217 1.429 . S
C2212 C2204 1.574 . S
C2212 H2207 0.949 . S
C2212 C2218 1.368 . S
C2213 C2197 1.349 . S
C2213 H2205 0.950 . S
C2213 C2211 1.327 . S
C2214 C2202 1.349 . S
C2214 H2208 0.950 . S
C2214 C2215 1.327 . S
C2215 H2209 0.950 . S
C2215 C2214 1.327 . S
C2215 C2219 1.429 . S
C2216 C2199 1.574 . S
C2216 H2210 0.949 . S
C2216 C2220 1.368 . S
C2217 C2198 1.429 . S
C2217 C2211 1.429 . S
C2217 C2218 1.523 . S
C2218 C2199 1.368 . S
C2218 C2212 1.368 . S
C2218 C2217 1.523 . S
C2219 C2203 1.429 . S
C2219 C2215 1.429 . S
C2219 C2220 1.523 . S
C2220 C2204 1.368 . S
C2220 C2216 1.368 . S
C2220 C2219 1.523 . S
H2221 C2196 0.950 . S
H2222 C2198 0.950 . S
H2223 C2199 0.949 . S
H2224 C2201 0.950 . S
H2225 C2203 0.950 . S
C2226 C2227 1.349 . S
C2226 C2228 1.327 . S
C2226 H2251 0.950 . S
C2227 C2226 1.349 . S
C2227 C2243 1.349 . S
C2228 C2226 1.327 . S
C2228 C2247 1.429 . S
C2228 H2252 0.950 . S
C2229 C2246 1.574 . S
C2229 C2248 1.368 . S
C2229 H2253 0.949 . S
H2230 C2234 0.949 . S
C2231 C2232 1.349 . S
C2231 C2233 1.327 . S
C2231 H2254 0.950 . S
C2232 C2231 1.349 . S
C2232 C2244 1.349 . S
C2233 C2231 1.327 . S
C2233 C2249 1.429 . S
C2233 H2255 0.950 . S
C2234 H2230 0.949 . S
C2234 C2242 1.574 . S
C2234 C2250 1.368 . S
H2235 C2243 0.950 . S
H2236 C2241 0.950 . S
H2237 C2242 0.949 . S
H2238 C2244 0.950 . S
H2239 C2245 0.950 . S
H2240 C2246 0.949 . S
C2241 H2236 0.950 . S
C2241 C2243 1.327 . S
C2241 C2247 1.429 . S
C2242 C2234 1.574 . S
C2242 H2237 0.949 . S
C2242 C2248 1.368 . S
C2243 C2227 1.349 . S
C2243 H2235 0.950 . S
C2243 C2241 1.327 . S
C2244 C2232 1.349 . S
C2244 H2238 0.950 . S
C2244 C2245 1.327 . S
C2245 H2239 0.950 . S
C2245 C2244 1.327 . S
C2245 C2249 1.429 . S
C2246 C2229 1.574 . S
C2246 H2240 0.949 . S
C2246 C2250 1.368 . S
C2247 C2228 1.429 . S
C2247 C2241 1.429 . S
C2247 C2248 1.523 . S
C2248 C2229 1.368 . S
C2248 C2242 1.368 . S
C2248 C2247 1.523 . S
C2249 C2233 1.429 . S
C2249 C2245 1.429 . S
C2249 C2250 1.523 . S
C2250 C2234 1.368 . S
C2250 C2246 1.368 . S
C2250 C2249 1.523 . S
H2251 C2226 0.950 . S
H2252 C2228 0.950 . S
H2253 C2229 0.949 . S
H2254 C2231 0.950 . S
H2255 C2233 0.950 . S
C2256 C2257 1.349 . S
C2256 C2258 1.327 . S
C2256 H2281 0.950 . S
C2257 C2256 1.349 . S
C2257 C2273 1.349 . S
C2258 C2256 1.327 . S
C2258 C2277 1.429 . S
C2258 H2282 0.950 . S
C2259 C2276 1.574 . S
C2259 C2278 1.368 . S
C2259 H2283 0.949 . S
H2260 C2264 0.949 . S
C2261 C2262 1.349 . S
C2261 C2263 1.327 . S
C2261 H2284 0.950 . S
C2262 C2261 1.349 . S
C2262 C2274 1.349 . S
C2263 C2261 1.327 . S
C2263 C2279 1.429 . S
C2263 H2285 0.950 . S
C2264 H2260 0.949 . S
C2264 C2272 1.574 . S
C2264 C2280 1.368 . S
H2265 C2273 0.950 . S
H2266 C2271 0.950 . S
H2267 C2272 0.949 . S
H2268 C2274 0.950 . S
H2269 C2275 0.950 . S
H2270 C2276 0.949 . S
C2271 H2266 0.950 . S
C2271 C2273 1.327 . S
C2271 C2277 1.429 . S
C2272 C2264 1.574 . S
C2272 H2267 0.949 . S
C2272 C2278 1.368 . S
C2273 C2257 1.349 . S
C2273 H2265 0.950 . S
C2273 C2271 1.327 . S
C2274 C2262 1.349 . S
C2274 H2268 0.950 . S
C2274 C2275 1.327 . S
C2275 H2269 0.950 . S
C2275 C2274 1.327 . S
C2275 C2279 1.429 . S
C2276 C2259 1.574 . S
C2276 H2270 0.949 . S
C2276 C2280 1.368 . S
C2277 C2258 1.429 . S
C2277 C2271 1.429 . S
C2277 C2278 1.523 . S
C2278 C2259 1.368 . S
C2278 C2272 1.368 . S
C2278 C2277 1.523 . S
C2279 C2263 1.429 . S
C2279 C2275 1.429 . S
C2279 C2280 1.523 . S
C2280 C2264 1.368 . S
C2280 C2276 1.368 . S
C2280 C2279 1.523 . S
H2281 C2256 0.950 . S
H2282 C2258 0.950 . S
H2283 C2259 0.949 . S
H2284 C2261 0.950 . S
H2285 C2263 0.950 . S
C2286 C2287 1.349 . S
C2286 C2288 1.327 . S
C2286 H2311 0.950 . S
C2287 C2286 1.349 . S
C2287 C2303 1.349 . S
C2288 C2286 1.327 . S
C2288 C2307 1.429 . S
C2288 H2312 0.950 . S
C2289 C2306 1.574 . S
C2289 C2308 1.368 . S
C2289 H2313 0.949 . S
H2290 C2294 0.949 . S
C2291 C2292 1.349 . S
C2291 C2293 1.327 . S
C2291 H2314 0.950 . S
C2292 C2291 1.349 . S
C2292 C2304 1.349 . S
C2293 C2291 1.327 . S
C2293 C2309 1.429 . S
C2293 H2315 0.950 . S
C2294 H2290 0.949 . S
C2294 C2302 1.574 . S
C2294 C2310 1.368 . S
H2295 C2303 0.950 1_554 S
H2296 C2301 0.950 . S
H2297 C2302 0.949 . S
H2298 C2304 0.950 . S
H2299 C2305 0.950 . S
H2300 C2306 0.949 . S
C2301 H2296 0.950 . S
C2301 C2303 1.327 . S
C2301 C2307 1.429 . S
C2302 C2294 1.574 . S
C2302 H2297 0.949 . S
C2302 C2308 1.368 . S
C2303 C2287 1.349 . S
C2303 H2295 0.950 1_556 S
C2303 C2301 1.327 . S
C2304 C2292 1.349 . S
C2304 H2298 0.950 . S
C2304 C2305 1.327 . S
C2305 H2299 0.950 . S
C2305 C2304 1.327 . S
C2305 C2309 1.429 . S
C2306 C2289 1.574 . S
C2306 H2300 0.949 . S
C2306 C2310 1.368 . S
C2307 C2288 1.429 . S
C2307 C2301 1.429 . S
C2307 C2308 1.523 . S
C2308 C2289 1.368 . S
C2308 C2302 1.368 . S
C2308 C2307 1.523 . S
C2309 C2293 1.429 . S
C2309 C2305 1.429 . S
C2309 C2310 1.523 . S
C2310 C2294 1.368 . S
C2310 C2306 1.368 . S
C2310 C2309 1.523 . S
H2311 C2286 0.950 . S
H2312 C2288 0.950 . S
H2313 C2289 0.949 . S
H2314 C2291 0.950 . S
H2315 C2293 0.950 . S
C2316 C2317 1.349 . S
C2316 C2318 1.327 . S
C2316 H2341 0.950 . S
C2317 C2316 1.349 . S
C2317 C2333 1.349 . S
C2318 C2316 1.327 . S
C2318 C2337 1.429 . S
C2318 H2342 0.950 . S
C2319 C2336 1.574 . S
C2319 C2338 1.368 . S
C2319 H2343 0.949 . S
H2320 C2324 0.949 . S
C2321 C2322 1.349 . S
C2321 C2323 1.327 . S
C2321 H2344 0.950 . S
C2322 C2321 1.349 . S
C2322 C2334 1.349 . S
C2323 C2321 1.327 . S
C2323 C2339 1.429 . S
C2323 H2345 0.950 . S
C2324 H2320 0.949 . S
C2324 C2332 1.574 . S
C2324 C2340 1.368 . S
H2325 C2333 0.950 . S
H2326 C2331 0.950 . S
H2327 C2332 0.949 . S
H2328 C2334 0.950 . S
H2329 C2335 0.950 . S
H2330 C2336 0.949 . S
C2331 H2326 0.950 . S
C2331 C2333 1.327 . S
C2331 C2337 1.429 . S
C2332 C2324 1.574 . S
C2332 H2327 0.949 . S
C2332 C2338 1.368 . S
C2333 C2317 1.349 . S
C2333 H2325 0.950 . S
C2333 C2331 1.327 . S
C2334 C2322 1.349 . S
C2334 H2328 0.950 . S
C2334 C2335 1.327 . S
C2335 H2329 0.950 . S
C2335 C2334 1.327 . S
C2335 C2339 1.429 . S
C2336 C2319 1.574 . S
C2336 H2330 0.949 . S
C2336 C2340 1.368 . S
C2337 C2318 1.429 . S
C2337 C2331 1.429 . S
C2337 C2338 1.523 . S
C2338 C2319 1.368 . S
C2338 C2332 1.368 . S
C2338 C2337 1.523 . S
C2339 C2323 1.429 . S
C2339 C2335 1.429 . S
C2339 C2340 1.523 . S
C2340 C2324 1.368 . S
C2340 C2336 1.368 . S
C2340 C2339 1.523 . S
H2341 C2316 0.950 . S
H2342 C2318 0.950 . S
H2343 C2319 0.949 . S
H2344 C2321 0.950 . S
H2345 C2323 0.950 . S
C2346 C2347 1.349 . S
C2346 C2348 1.327 . S
C2346 H2371 0.950 . S
C2347 C2346 1.349 . S
C2347 C2363 1.349 . S
C2348 C2346 1.327 . S
C2348 C2367 1.429 . S
C2348 H2372 0.950 . S
C2349 C2366 1.574 . S
C2349 C2368 1.368 . S
C2349 H2373 0.949 . S
H2350 C2354 0.949 . S
C2351 C2352 1.349 . S
C2351 C2353 1.327 . S
C2351 H2374 0.950 . S
C2352 C2351 1.349 . S
C2352 C2364 1.349 . S
C2353 C2351 1.327 . S
C2353 C2369 1.429 . S
C2353 H2375 0.950 . S
C2354 H2350 0.949 . S
C2354 C2362 1.574 . S
C2354 C2370 1.368 . S
H2355 C2363 0.950 1_554 S
H2356 C2361 0.950 . S
H2357 C2362 0.949 . S
H2358 C2364 0.950 . S
H2359 C2365 0.950 . S
H2360 C2366 0.949 . S
C2361 H2356 0.950 . S
C2361 C2363 1.327 . S
C2361 C2367 1.429 . S
C2362 C2354 1.574 . S
C2362 H2357 0.949 . S
C2362 C2368 1.368 . S
C2363 C2347 1.349 . S
C2363 H2355 0.950 1_556 S
C2363 C2361 1.327 . S
C2364 C2352 1.349 . S
C2364 H2358 0.950 . S
C2364 C2365 1.327 . S
C2365 H2359 0.950 . S
C2365 C2364 1.327 . S
C2365 C2369 1.429 . S
C2366 C2349 1.574 . S
C2366 H2360 0.949 . S
C2366 C2370 1.368 . S
C2367 C2348 1.429 . S
C2367 C2361 1.429 . S
C2367 C2368 1.523 . S
C2368 C2349 1.368 . S
C2368 C2362 1.368 . S
C2368 C2367 1.523 . S
C2369 C2353 1.429 . S
C2369 C2365 1.429 . S
C2369 C2370 1.523 . S
C2370 C2354 1.368 . S
C2370 C2366 1.368 . S
C2370 C2369 1.523 . S
H2371 C2346 0.950 . S
H2372 C2348 0.950 . S
H2373 C2349 0.949 . S
H2374 C2351 0.950 . S
H2375 C2353 0.950 . S
C2376 C2377 1.349 . S
C2376 C2378 1.327 . S
C2376 H2401 0.950 . S
C2377 C2376 1.349 . S
C2377 C2393 1.349 . S
C2378 C2376 1.327 . S
C2378 C2397 1.429 . S
C2378 H2402 0.950 . S
C2379 C2396 1.574 . S
C2379 C2398 1.368 . S
C2379 H2403 0.949 . S
H2380 C2384 0.949 . S
C2381 C2382 1.349 . S
C2381 C2383 1.327 . S
C2381 H2404 0.950 . S
C2382 C2381 1.349 . S
C2382 C2394 1.349 . S
C2383 C2381 1.327 . S
C2383 C2399 1.429 . S
C2383 H2405 0.950 . S
C2384 H2380 0.949 . S
C2384 C2392 1.574 . S
C2384 C2400 1.368 . S
H2385 C2393 0.950 . S
H2386 C2391 0.950 . S
H2387 C2392 0.949 . S
H2388 C2394 0.950 . S
H2389 C2395 0.950 . S
H2390 C2396 0.949 . S
C2391 H2386 0.950 . S
C2391 C2393 1.327 . S
C2391 C2397 1.429 . S
C2392 C2384 1.574 . S
C2392 H2387 0.949 . S
C2392 C2398 1.368 . S
C2393 C2377 1.349 . S
C2393 H2385 0.950 . S
C2393 C2391 1.327 . S
C2394 C2382 1.349 . S
C2394 H2388 0.950 . S
C2394 C2395 1.327 . S
C2395 H2389 0.950 . S
C2395 C2394 1.327 . S
C2395 C2399 1.429 . S
C2396 C2379 1.574 . S
C2396 H2390 0.949 . S
C2396 C2400 1.368 . S
C2397 C2378 1.429 . S
C2397 C2391 1.429 . S
C2397 C2398 1.523 . S
C2398 C2379 1.368 . S
C2398 C2392 1.368 . S
C2398 C2397 1.523 . S
C2399 C2383 1.429 . S
C2399 C2395 1.429 . S
C2399 C2400 1.523 . S
C2400 C2384 1.368 . S
C2400 C2396 1.368 . S
C2400 C2399 1.523 . S
H2401 C2376 0.950 . S
H2402 C2378 0.950 . S
H2403 C2379 0.949 . S
H2404 C2381 0.950 . S
H2405 C2383 0.950 . S
C2406 C2407 1.349 . S
C2406 C2408 1.327 . S
C2406 H2431 0.950 . S
C2407 C2406 1.349 . S
C2407 C2423 1.349 . S
C2408 C2406 1.327 . S
C2408 C2427 1.429 . S
C2408 H2432 0.950 . S
C2409 C2426 1.574 . S
C2409 C2428 1.368 . S
C2409 H2433 0.949 . S
H2410 C2414 0.949 . S
C2411 C2412 1.349 . S
C2411 C2413 1.327 . S
C2411 H2434 0.950 . S
C2412 C2411 1.349 . S
C2412 C2424 1.349 . S
C2413 C2411 1.327 . S
C2413 C2429 1.429 . S
C2413 H2435 0.950 . S
C2414 H2410 0.949 . S
C2414 C2422 1.574 . S
C2414 C2430 1.368 . S
H2415 C2423 0.950 . S
H2416 C2421 0.950 . S
H2417 C2422 0.949 . S
H2418 C2424 0.950 . S
H2419 C2425 0.950 . S
H2420 C2426 0.949 . S
C2421 H2416 0.950 . S
C2421 C2423 1.327 . S
C2421 C2427 1.429 . S
C2422 C2414 1.574 . S
C2422 H2417 0.949 . S
C2422 C2428 1.368 . S
C2423 C2407 1.349 . S
C2423 H2415 0.950 . S
C2423 C2421 1.327 . S
C2424 C2412 1.349 . S
C2424 H2418 0.950 . S
C2424 C2425 1.327 . S
C2425 H2419 0.950 . S
C2425 C2424 1.327 . S
C2425 C2429 1.429 . S
C2426 C2409 1.574 . S
C2426 H2420 0.949 . S
C2426 C2430 1.368 . S
C2427 C2408 1.429 . S
C2427 C2421 1.429 . S
C2427 C2428 1.523 . S
C2428 C2409 1.368 . S
C2428 C2422 1.368 . S
C2428 C2427 1.523 . S
C2429 C2413 1.429 . S
C2429 C2425 1.429 . S
C2429 C2430 1.523 . S
C2430 C2414 1.368 . S
C2430 C2426 1.368 . S
C2430 C2429 1.523 . S
H2431 C2406 0.950 . S
H2432 C2408 0.950 . S
H2433 C2409 0.949 . S
H2434 C2411 0.950 . S
H2435 C2413 0.950 . S
C2436 C2437 1.349 . S
C2436 C2438 1.327 . S
C2436 H2461 0.950 . S
C2437 C2436 1.349 . S
C2437 C2453 1.349 . S
C2438 C2436 1.327 . S
C2438 C2457 1.429 . S
C2438 H2462 0.950 . S
C2439 C2456 1.574 . S
C2439 C2458 1.368 . S
C2439 H2463 0.949 . S
H2440 C2444 0.949 . S
C2441 C2442 1.349 . S
C2441 C2443 1.327 . S
C2441 H2464 0.950 . S
C2442 C2441 1.349 . S
C2442 C2454 1.349 . S
C2443 C2441 1.327 . S
C2443 C2459 1.429 . S
C2443 H2465 0.950 . S
C2444 H2440 0.949 . S
C2444 C2452 1.574 . S
C2444 C2460 1.368 . S
H2445 C2453 0.950 1_554 S
H2446 C2451 0.950 . S
H2447 C2452 0.949 . S
H2448 C2454 0.950 . S
H2449 C2455 0.950 . S
H2450 C2456 0.949 . S
C2451 H2446 0.950 . S
C2451 C2453 1.327 . S
C2451 C2457 1.429 . S
C2452 C2444 1.574 . S
C2452 H2447 0.949 . S
C2452 C2458 1.368 . S
C2453 C2437 1.349 . S
C2453 H2445 0.950 1_556 S
C2453 C2451 1.327 . S
C2454 C2442 1.349 . S
C2454 H2448 0.950 . S
C2454 C2455 1.327 . S
C2455 H2449 0.950 . S
C2455 C2454 1.327 . S
C2455 C2459 1.429 . S
C2456 C2439 1.574 . S
C2456 H2450 0.949 . S
C2456 C2460 1.368 . S
C2457 C2438 1.429 . S
C2457 C2451 1.429 . S
C2457 C2458 1.523 . S
C2458 C2439 1.368 . S
C2458 C2452 1.368 . S
C2458 C2457 1.523 . S
C2459 C2443 1.429 . S
C2459 C2455 1.429 . S
C2459 C2460 1.523 . S
C2460 C2444 1.368 . S
C2460 C2456 1.368 . S
C2460 C2459 1.523 . S
H2461 C2436 0.950 . S
H2462 C2438 0.950 . S
H2463 C2439 0.949 . S
H2464 C2441 0.950 . S
H2465 C2443 0.950 . S
C2466 C2467 1.349 . S
C2466 C2468 1.327 . S
C2466 H2491 0.950 . S
C2467 C2466 1.349 . S
C2467 C2483 1.349 . S
C2468 C2466 1.327 . S
C2468 C2487 1.429 . S
C2468 H2492 0.950 . S
C2469 C2486 1.574 . S
C2469 C2488 1.368 . S
C2469 H2493 0.949 . S
H2470 C2474 0.949 . S
C2471 C2472 1.349 . S
C2471 C2473 1.327 . S
C2471 H2494 0.950 . S
C2472 C2471 1.349 . S
C2472 C2484 1.349 . S
C2473 C2471 1.327 . S
C2473 C2489 1.429 . S
C2473 H2495 0.950 . S
C2474 H2470 0.949 . S
C2474 C2482 1.574 . S
C2474 C2490 1.368 . S
H2475 C2483 0.950 . S
H2476 C2481 0.950 . S
H2477 C2482 0.949 . S
H2478 C2484 0.950 . S
H2479 C2485 0.950 . S
H2480 C2486 0.949 . S
C2481 H2476 0.950 . S
C2481 C2483 1.327 . S
C2481 C2487 1.429 . S
C2482 C2474 1.574 . S
C2482 H2477 0.949 . S
C2482 C2488 1.368 . S
C2483 C2467 1.349 . S
C2483 H2475 0.950 . S
C2483 C2481 1.327 . S
C2484 C2472 1.349 . S
C2484 H2478 0.950 . S
C2484 C2485 1.327 . S
C2485 H2479 0.950 . S
C2485 C2484 1.327 . S
C2485 C2489 1.429 . S
C2486 C2469 1.574 . S
C2486 H2480 0.949 . S
C2486 C2490 1.368 . S
C2487 C2468 1.429 . S
C2487 C2481 1.429 . S
C2487 C2488 1.523 . S
C2488 C2469 1.368 . S
C2488 C2482 1.368 . S
C2488 C2487 1.523 . S
C2489 C2473 1.429 . S
C2489 C2485 1.429 . S
C2489 C2490 1.523 . S
C2490 C2474 1.368 . S
C2490 C2486 1.368 . S
C2490 C2489 1.523 . S
H2491 C2466 0.950 . S
H2492 C2468 0.950 . S
H2493 C2469 0.949 . S
H2494 C2471 0.950 . S
H2495 C2473 0.950 . S
C2496 C2497 1.349 . S
C2496 C2498 1.327 . S
C2496 H2521 0.950 . S
C2497 C2496 1.349 . S
C2497 C2513 1.349 . S
C2498 C2496 1.327 . S
C2498 C2517 1.429 . S
C2498 H2522 0.950 . S
C2499 C2516 1.574 . S
C2499 C2518 1.368 . S
C2499 H2523 0.949 . S
H2500 C2504 0.949 . S
C2501 C2502 1.349 . S
C2501 C2503 1.327 . S
C2501 H2524 0.950 . S
C2502 C2501 1.349 . S
C2502 C2514 1.349 . S
C2503 C2501 1.327 . S
C2503 C2519 1.429 . S
C2503 H2525 0.950 . S
C2504 H2500 0.949 . S
C2504 C2512 1.574 . S
C2504 C2520 1.368 . S
H2505 C2513 0.950 . S
H2506 C2511 0.950 . S
H2507 C2512 0.949 . S
H2508 C2514 0.950 . S
H2509 C2515 0.950 . S
H2510 C2516 0.949 . S
C2511 H2506 0.950 . S
C2511 C2513 1.327 . S
C2511 C2517 1.429 . S
C2512 C2504 1.574 . S
C2512 H2507 0.949 . S
C2512 C2518 1.368 . S
C2513 C2497 1.349 . S
C2513 H2505 0.950 . S
C2513 C2511 1.327 . S
C2514 C2502 1.349 . S
C2514 H2508 0.950 . S
C2514 C2515 1.327 . S
C2515 H2509 0.950 . S
C2515 C2514 1.327 . S
C2515 C2519 1.429 . S
C2516 C2499 1.574 . S
C2516 H2510 0.949 . S
C2516 C2520 1.368 . S
C2517 C2498 1.429 . S
C2517 C2511 1.429 . S
C2517 C2518 1.523 . S
C2518 C2499 1.368 . S
C2518 C2512 1.368 . S
C2518 C2517 1.523 . S
C2519 C2503 1.429 . S
C2519 C2515 1.429 . S
C2519 C2520 1.523 . S
C2520 C2504 1.368 . S
C2520 C2516 1.368 . S
C2520 C2519 1.523 . S
H2521 C2496 0.950 . S
H2522 C2498 0.950 . S
H2523 C2499 0.949 . S
H2524 C2501 0.950 . S
H2525 C2503 0.950 . S
C2526 C2527 1.349 . S
C2526 C2528 1.327 . S
C2526 H2551 0.950 . S
C2527 C2526 1.349 . S
C2527 C2543 1.349 . S
C2528 C2526 1.327 . S
C2528 C2547 1.429 . S
C2528 H2552 0.950 . S
C2529 C2546 1.574 . S
C2529 C2548 1.368 . S
C2529 H2553 0.949 . S
H2530 C2534 0.949 . S
C2531 C2532 1.349 . S
C2531 C2533 1.327 . S
C2531 H2554 0.950 . S
C2532 C2531 1.349 . S
C2532 C2544 1.349 . S
C2533 C2531 1.327 . S
C2533 C2549 1.429 . S
C2533 H2555 0.950 . S
C2534 H2530 0.949 . S
C2534 C2542 1.574 . S
C2534 C2550 1.368 . S
H2535 C2543 0.950 . S
H2536 C2541 0.950 . S
H2537 C2542 0.949 . S
H2538 C2544 0.950 . S
H2539 C2545 0.950 . S
H2540 C2546 0.949 . S
C2541 H2536 0.950 . S
C2541 C2543 1.327 . S
C2541 C2547 1.429 . S
C2542 C2534 1.574 . S
C2542 H2537 0.949 . S
C2542 C2548 1.368 . S
C2543 C2527 1.349 . S
C2543 H2535 0.950 . S
C2543 C2541 1.327 . S
C2544 C2532 1.349 . S
C2544 H2538 0.950 . S
C2544 C2545 1.327 . S
C2545 H2539 0.950 . S
C2545 C2544 1.327 . S
C2545 C2549 1.429 . S
C2546 C2529 1.574 . S
C2546 H2540 0.949 . S
C2546 C2550 1.368 . S
C2547 C2528 1.429 . S
C2547 C2541 1.429 . S
C2547 C2548 1.523 . S
C2548 C2529 1.368 . S
C2548 C2542 1.368 . S
C2548 C2547 1.523 . S
C2549 C2533 1.429 . S
C2549 C2545 1.429 . S
C2549 C2550 1.523 . S
C2550 C2534 1.368 . S
C2550 C2546 1.368 . S
C2550 C2549 1.523 . S
H2551 C2526 0.950 . S
H2552 C2528 0.950 . S
H2553 C2529 0.949 . S
H2554 C2531 0.950 . S
H2555 C2533 0.950 . S
C2556 C2557 1.349 . S
C2556 C2558 1.327 . S
C2556 H2581 0.950 . S
C2557 C2556 1.349 . S
C2557 C2573 1.349 . S
C2558 C2556 1.327 . S
C2558 C2577 1.429 . S
C2558 H2582 0.950 . S
C2559 C2576 1.574 . S
C2559 C2578 1.368 . S
C2559 H2583 0.949 . S
H2560 C2564 0.949 . S
C2561 C2562 1.349 . S
C2561 C2563 1.327 . S
C2561 H2584 0.950 . S
C2562 C2561 1.349 . S
C2562 C2574 1.349 . S
C2563 C2561 1.327 . S
C2563 C2579 1.429 . S
C2563 H2585 0.950 . S
C2564 H2560 0.949 . S
C2564 C2572 1.574 . S
C2564 C2580 1.368 . S
H2565 C2573 0.950 . S
H2566 C2571 0.950 . S
H2567 C2572 0.949 . S
H2568 C2574 0.950 . S
H2569 C2575 0.950 . S
H2570 C2576 0.949 . S
C2571 H2566 0.950 . S
C2571 C2573 1.327 . S
C2571 C2577 1.429 . S
C2572 C2564 1.574 . S
C2572 H2567 0.949 . S
C2572 C2578 1.368 . S
C2573 C2557 1.349 . S
C2573 H2565 0.950 . S
C2573 C2571 1.327 . S
C2574 C2562 1.349 . S
C2574 H2568 0.950 . S
C2574 C2575 1.327 . S
C2575 H2569 0.950 . S
C2575 C2574 1.327 . S
C2575 C2579 1.429 . S
C2576 C2559 1.574 . S
C2576 H2570 0.949 . S
C2576 C2580 1.368 . S
C2577 C2558 1.429 . S
C2577 C2571 1.429 . S
C2577 C2578 1.523 . S
C2578 C2559 1.368 . S
C2578 C2572 1.368 . S
C2578 C2577 1.523 . S
C2579 C2563 1.429 . S
C2579 C2575 1.429 . S
C2579 C2580 1.523 . S
C2580 C2564 1.368 . S
C2580 C2576 1.368 . S
C2580 C2579 1.523 . S
H2581 C2556 0.950 . S
H2582 C2558 0.950 . S
H2583 C2559 0.949 . S
H2584 C2561 0.950 . S
H2585 C2563 0.950 . S
C2586 C2587 1.349 . S
C2586 C2588 1.327 . S
C2586 H2611 0.950 . S
C2587 C2586 1.349 . S
C2587 C2603 1.349 . S
C2588 C2586 1.327 . S
C2588 C2607 1.429 . S
C2588 H2612 0.950 . S
C2589 C2606 1.574 . S
C2589 C2608 1.368 . S
C2589 H2613 0.949 . S
H2590 C2594 0.949 . S
C2591 C2592 1.349 . S
C2591 C2593 1.327 . S
C2591 H2614 0.950 . S
C2592 C2591 1.349 . S
C2592 C2604 1.349 . S
C2593 C2591 1.327 . S
C2593 C2609 1.429 . S
C2593 H2615 0.950 . S
C2594 H2590 0.949 . S
C2594 C2602 1.574 . S
C2594 C2610 1.368 . S
H2595 C2603 0.950 . S
H2596 C2601 0.950 . S
H2597 C2602 0.949 . S
H2598 C2604 0.950 . S
H2599 C2605 0.950 . S
H2600 C2606 0.949 . S
C2601 H2596 0.950 . S
C2601 C2603 1.327 . S
C2601 C2607 1.429 . S
C2602 C2594 1.574 . S
C2602 H2597 0.949 . S
C2602 C2608 1.368 . S
C2603 C2587 1.349 . S
C2603 H2595 0.950 . S
C2603 C2601 1.327 . S
C2604 C2592 1.349 . S
C2604 H2598 0.950 . S
C2604 C2605 1.327 . S
C2605 H2599 0.950 . S
C2605 C2604 1.327 . S
C2605 C2609 1.429 . S
C2606 C2589 1.574 . S
C2606 H2600 0.949 . S
C2606 C2610 1.368 . S
C2607 C2588 1.429 . S
C2607 C2601 1.429 . S
C2607 C2608 1.523 . S
C2608 C2589 1.368 . S
C2608 C2602 1.368 . S
C2608 C2607 1.523 . S
C2609 C2593 1.429 . S
C2609 C2605 1.429 . S
C2609 C2610 1.523 . S
C2610 C2594 1.368 . S
C2610 C2606 1.368 . S
C2610 C2609 1.523 . S
H2611 C2586 0.950 . S
H2612 C2588 0.950 . S
H2613 C2589 0.949 . S
H2614 C2591 0.950 . S
H2615 C2593 0.950 . S
C2616 C2617 1.349 . S
C2616 C2618 1.327 . S
C2616 H2641 0.950 . S
C2617 C2616 1.349 . S
C2617 C2633 1.349 . S
C2618 C2616 1.327 . S
C2618 C2637 1.429 . S
C2618 H2642 0.950 . S
C2619 C2636 1.574 . S
C2619 C2638 1.368 . S
C2619 H2643 0.949 . S
H2620 C2624 0.949 . S
C2621 C2622 1.349 . S
C2621 C2623 1.327 . S
C2621 H2644 0.950 . S
C2622 C2621 1.349 . S
C2622 C2634 1.349 . S
C2623 C2621 1.327 . S
C2623 C2639 1.429 . S
C2623 H2645 0.950 . S
C2624 H2620 0.949 . S
C2624 C2632 1.574 . S
C2624 C2640 1.368 . S
H2625 C2633 0.950 . S
H2626 C2631 0.950 . S
H2627 C2632 0.949 . S
H2628 C2634 0.950 . S
H2629 C2635 0.950 . S
H2630 C2636 0.949 . S
C2631 H2626 0.950 . S
C2631 C2633 1.327 . S
C2631 C2637 1.429 . S
C2632 C2624 1.574 . S
C2632 H2627 0.949 . S
C2632 C2638 1.368 . S
C2633 C2617 1.349 . S
C2633 H2625 0.950 . S
C2633 C2631 1.327 . S
C2634 C2622 1.349 . S
C2634 H2628 0.950 . S
C2634 C2635 1.327 . S
C2635 H2629 0.950 . S
C2635 C2634 1.327 . S
C2635 C2639 1.429 . S
C2636 C2619 1.574 . S
C2636 H2630 0.949 . S
C2636 C2640 1.368 . S
C2637 C2618 1.429 . S
C2637 C2631 1.429 . S
C2637 C2638 1.523 . S
C2638 C2619 1.368 . S
C2638 C2632 1.368 . S
C2638 C2637 1.523 . S
C2639 C2623 1.429 . S
C2639 C2635 1.429 . S
C2639 C2640 1.523 . S
C2640 C2624 1.368 . S
C2640 C2636 1.368 . S
C2640 C2639 1.523 . S
H2641 C2616 0.950 . S
H2642 C2618 0.950 . S
H2643 C2619 0.949 . S
H2644 C2621 0.950 . S
H2645 C2623 0.950 . S
C2646 C2647 1.349 . S
C2646 C2648 1.327 . S
C2646 H2671 0.950 1_455 S
C2647 C2646 1.349 . S
C2647 C2663 1.349 . S
C2648 C2646 1.327 . S
C2648 C2667 1.429 . S
C2648 H2672 0.950 1_455 S
C2649 C2666 1.574 . S
C2649 C2668 1.368 . S
C2649 H2673 0.949 . S
H2650 C2654 0.949 . S
C2651 C2652 1.349 . S
C2651 C2653 1.327 . S
C2651 H2674 0.950 . S
C2652 C2651 1.349 . S
C2652 C2664 1.349 1_455 S
C2653 C2651 1.327 . S
C2653 C2669 1.429 . S
C2653 H2675 0.950 . S
C2654 H2650 0.949 . S
C2654 C2662 1.574 . S
C2654 C2670 1.368 1_655 S
H2655 C2663 0.950 . S
H2656 C2661 0.950 . S
H2657 C2662 0.949 . S
H2658 C2664 0.950 . S
H2659 C2665 0.950 . S
H2660 C2666 0.949 . S
C2661 H2656 0.950 . S
C2661 C2663 1.327 . S
C2661 C2667 1.429 . S
C2662 C2654 1.574 . S
C2662 H2657 0.949 . S
C2662 C2668 1.368 1_655 S
C2663 C2647 1.349 . S
C2663 H2655 0.950 . S
C2663 C2661 1.327 . S
C2664 C2652 1.349 1_655 S
C2664 H2658 0.950 . S
C2664 C2665 1.327 . S
C2665 H2659 0.950 . S
C2665 C2664 1.327 . S
C2665 C2669 1.429 1_655 S
C2666 C2649 1.574 . S
C2666 H2660 0.949 . S
C2666 C2670 1.368 . S
C2667 C2648 1.429 . S
C2667 C2661 1.429 . S
C2667 C2668 1.523 . S
C2668 C2649 1.368 . S
C2668 C2662 1.368 1_455 S
C2668 C2667 1.523 . S
C2669 C2653 1.429 . S
C2669 C2665 1.429 1_455 S
C2669 C2670 1.523 . S
C2670 C2654 1.368 1_455 S
C2670 C2666 1.368 . S
C2670 C2669 1.523 . S
H2671 C2646 0.950 1_655 S
H2672 C2648 0.950 1_655 S
H2673 C2649 0.949 . S
H2674 C2651 0.950 . S
H2675 C2653 0.950 . S
C2676 C2677 1.349 . S
C2676 C2678 1.327 . S
C2676 H2701 0.950 . S
C2677 C2676 1.349 . S
C2677 C2693 1.349 . S
C2678 C2676 1.327 . S
C2678 C2697 1.429 . S
C2678 H2702 0.950 . S
C2679 C2696 1.574 . S
C2679 C2698 1.368 . S
C2679 H2703 0.949 . S
H2680 C2684 0.949 . S
C2681 C2682 1.349 . S
C2681 C2683 1.327 . S
C2681 H2704 0.950 . S
C2682 C2681 1.349 . S
C2682 C2694 1.349 . S
C2683 C2681 1.327 . S
C2683 C2699 1.429 . S
C2683 H2705 0.950 . S
C2684 H2680 0.949 . S
C2684 C2692 1.574 . S
C2684 C2700 1.368 . S
H2685 C2693 0.950 . S
H2686 C2691 0.950 . S
H2687 C2692 0.949 . S
H2688 C2694 0.950 . S
H2689 C2695 0.950 . S
H2690 C2696 0.949 . S
C2691 H2686 0.950 . S
C2691 C2693 1.327 . S
C2691 C2697 1.429 . S
C2692 C2684 1.574 . S
C2692 H2687 0.949 . S
C2692 C2698 1.368 . S
C2693 C2677 1.349 . S
C2693 H2685 0.950 . S
C2693 C2691 1.327 . S
C2694 C2682 1.349 . S
C2694 H2688 0.950 . S
C2694 C2695 1.327 . S
C2695 H2689 0.950 . S
C2695 C2694 1.327 . S
C2695 C2699 1.429 . S
C2696 C2679 1.574 . S
C2696 H2690 0.949 . S
C2696 C2700 1.368 . S
C2697 C2678 1.429 . S
C2697 C2691 1.429 . S
C2697 C2698 1.523 . S
C2698 C2679 1.368 . S
C2698 C2692 1.368 . S
C2698 C2697 1.523 . S
C2699 C2683 1.429 . S
C2699 C2695 1.429 . S
C2699 C2700 1.523 . S
C2700 C2684 1.368 . S
C2700 C2696 1.368 . S
C2700 C2699 1.523 . S
H2701 C2676 0.950 . S
H2702 C2678 0.950 . S
H2703 C2679 0.949 . S
H2704 C2681 0.950 . S
H2705 C2683 0.950 . S
C2706 C2707 1.349 1_545 S
C2706 C2708 1.327 . S
C2706 H2731 0.950 . S
C2707 C2706 1.349 1_565 S
C2707 C2723 1.349 . S
C2708 C2706 1.327 . S
C2708 C2727 1.429 1_545 S
C2708 H2732 0.950 . S
C2709 C2726 1.574 . S
C2709 C2728 1.368 . S
C2709 H2733 0.949 . S
H2710 C2714 0.949 . S
C2711 C2712 1.349 . S
C2711 C2713 1.327 . S
C2711 H2734 0.950 . S
C2712 C2711 1.349 . S
C2712 C2724 1.349 1_565 S
C2713 C2711 1.327 . S
C2713 C2729 1.429 . S
C2713 H2735 0.950 . S
C2714 H2710 0.949 . S
C2714 C2722 1.574 . S
C2714 C2730 1.368 1_545 S
H2715 C2723 0.950 . S
H2716 C2721 0.950 . S
H2717 C2722 0.949 . S
H2718 C2724 0.950 . S
H2719 C2725 0.950 . S
H2720 C2726 0.949 . S
C2721 H2716 0.950 . S
C2721 C2723 1.327 . S
C2721 C2727 1.429 . S
C2722 C2714 1.574 . S
C2722 H2717 0.949 . S
C2722 C2728 1.368 1_545 S
C2723 C2707 1.349 . S
C2723 H2715 0.950 . S
C2723 C2721 1.327 . S
C2724 C2712 1.349 1_545 S
C2724 H2718 0.950 . S
C2724 C2725 1.327 . S
C2725 H2719 0.950 . S
C2725 C2724 1.327 . S
C2725 C2729 1.429 1_545 S
C2726 C2709 1.574 . S
C2726 H2720 0.949 . S
C2726 C2730 1.368 . S
C2727 C2708 1.429 1_565 S
C2727 C2721 1.429 . S
C2727 C2728 1.523 . S
C2728 C2709 1.368 . S
C2728 C2722 1.368 1_565 S
C2728 C2727 1.523 . S
C2729 C2713 1.429 . S
C2729 C2725 1.429 1_565 S
C2729 C2730 1.523 . S
C2730 C2714 1.368 1_565 S
C2730 C2726 1.368 . S
C2730 C2729 1.523 . S
H2731 C2706 0.950 . S
H2732 C2708 0.950 . S
H2733 C2709 0.949 . S
H2734 C2711 0.950 . S
H2735 C2713 0.950 . S
C2736 C2737 1.349 . S
C2736 C2738 1.327 . S
C2736 H2761 0.950 . S
C2737 C2736 1.349 . S
C2737 C2753 1.349 1_565 S
C2738 C2736 1.327 . S
C2738 C2757 1.429 . S
C2738 H2762 0.950 . S
C2739 C2756 1.574 . S
C2739 C2758 1.368 1_545 S
C2739 H2763 0.949 . S
H2740 C2744 0.949 . S
C2741 C2742 1.349 1_545 S
C2741 C2743 1.327 . S
C2741 H2764 0.950 . S
C2742 C2741 1.349 1_565 S
C2742 C2754 1.349 . S
C2743 C2741 1.327 . S
C2743 C2759 1.429 1_545 S
C2743 H2765 0.950 . S
C2744 H2740 0.949 . S
C2744 C2752 1.574 . S
C2744 C2760 1.368 . S
H2745 C2753 0.950 . S
H2746 C2751 0.950 . S
H2747 C2752 0.949 . S
H2748 C2754 0.950 . S
H2749 C2755 0.950 . S
H2750 C2756 0.949 . S
C2751 H2746 0.950 . S
C2751 C2753 1.327 . S
C2751 C2757 1.429 1_545 S
C2752 C2744 1.574 . S
C2752 H2747 0.949 . S
C2752 C2758 1.368 . S
C2753 C2737 1.349 1_545 S
C2753 H2745 0.950 . S
C2753 C2751 1.327 . S
C2754 C2742 1.349 . S
C2754 H2748 0.950 . S
C2754 C2755 1.327 . S
C2755 H2749 0.950 . S
C2755 C2754 1.327 . S
C2755 C2759 1.429 . S
C2756 C2739 1.574 . S
C2756 H2750 0.949 . S
C2756 C2760 1.368 1_545 S
C2757 C2738 1.429 . S
C2757 C2751 1.429 1_565 S
C2757 C2758 1.523 . S
C2758 C2739 1.368 1_565 S
C2758 C2752 1.368 . S
C2758 C2757 1.523 . S
C2759 C2743 1.429 1_565 S
C2759 C2755 1.429 . S
C2759 C2760 1.523 . S
C2760 C2744 1.368 . S
C2760 C2756 1.368 1_565 S
C2760 C2759 1.523 . S
H2761 C2736 0.950 . S
H2762 C2738 0.950 . S
H2763 C2739 0.949 . S
H2764 C2741 0.950 . S
H2765 C2743 0.950 . S
C2766 C2767 1.349 . S
C2766 C2768 1.327 . S
C2766 H2791 0.950 . S
C2767 C2766 1.349 . S
C2767 C2783 1.358 . S
C2768 C2766 1.327 . S
C2768 C2787 1.429 . S
C2768 H2792 0.950 . S
C2769 C2786 1.574 . S
C2769 C2788 1.368 1_655 S
C2769 H2793 0.949 . S
H2770 C2774 0.949 . S
C2771 C2772 1.349 1_655 S
C2771 C2773 1.327 . S
C2771 H2794 0.950 . S
C2772 C2771 1.349 1_455 S
C2772 C2784 1.349 . S
C2773 C2771 1.327 . S
C2773 C2789 1.429 1_655 S
C2773 H2795 0.950 . S
C2774 H2770 0.949 . S
C2774 C2782 1.574 . S
C2774 C2790 1.368 . S
H2775 C2783 0.922 1_655 S
H2776 C2781 0.958 . S
H2777 C2782 0.949 . S
H2778 C2784 0.950 . S
H2779 C2785 0.950 . S
H2780 C2786 0.949 . S
C2781 H2776 0.958 . S
C2781 C2783 1.366 1_655 S
C2781 C2787 1.404 1_655 S
C2782 C2774 1.574 . S
C2782 H2777 0.949 . S
C2782 C2788 1.368 . S
C2783 C2767 1.358 . S
C2783 H2775 0.922 1_455 S
C2783 C2781 1.366 1_455 S
C2784 C2772 1.349 . S
C2784 H2778 0.950 . S
C2784 C2785 1.327 . S
C2785 H2779 0.950 . S
C2785 C2784 1.327 . S
C2785 C2789 1.429 . S
C2786 C2769 1.574 . S
C2786 H2780 0.949 . S
C2786 C2790 1.368 1_655 S
C2787 C2768 1.429 . S
C2787 C2781 1.404 1_455 S
C2787 C2788 1.523 . S
C2788 C2769 1.368 1_455 S
C2788 C2782 1.368 . S
C2788 C2787 1.523 . S
C2789 C2773 1.429 1_455 S
C2789 C2785 1.429 . S
C2789 C2790 1.523 . S
C2790 C2774 1.368 . S
C2790 C2786 1.368 1_455 S
C2790 C2789 1.523 . S
H2791 C2766 0.950 . S
H2792 C2768 0.950 . S
H2793 C2769 0.949 . S
H2794 C2771 0.950 . S
H2795 C2773 0.950 . S
C2796 C2797 1.349 . S
C2796 C2798 1.327 . S
C2796 H2821 0.950 . S
C2797 C2796 1.349 . S
C2797 C2813 1.349 . S
C2798 C2796 1.327 . S
C2798 C2817 1.429 . S
C2798 H2822 0.950 . S
C2799 C2816 1.574 . S
C2799 C2818 1.368 . S
C2799 H2823 0.949 . S
H2800 C2804 0.949 . S
C2801 C2802 1.349 . S
C2801 C2803 1.327 . S
C2801 H2824 0.950 . S
C2802 C2801 1.349 . S
C2802 C2814 1.349 . S
C2803 C2801 1.327 . S
C2803 C2819 1.429 . S
C2803 H2825 0.950 . S
C2804 H2800 0.949 . S
C2804 C2812 1.574 . S
C2804 C2820 1.368 . S
H2805 C2813 0.950 . S
H2806 C2811 0.950 . S
H2807 C2812 0.949 . S
H2808 C2814 0.950 . S
H2809 C2815 0.950 . S
H2810 C2816 0.949 . S
C2811 H2806 0.950 . S
C2811 C2813 1.327 . S
C2811 C2817 1.429 . S
C2812 C2804 1.574 . S
C2812 H2807 0.949 . S
C2812 C2818 1.368 . S
C2813 C2797 1.349 . S
C2813 H2805 0.950 . S
C2813 C2811 1.327 . S
C2814 C2802 1.349 . S
C2814 H2808 0.950 . S
C2814 C2815 1.327 . S
C2815 H2809 0.950 . S
C2815 C2814 1.327 . S
C2815 C2819 1.429 . S
C2816 C2799 1.574 . S
C2816 H2810 0.949 . S
C2816 C2820 1.368 . S
C2817 C2798 1.429 . S
C2817 C2811 1.429 . S
C2817 C2818 1.523 . S
C2818 C2799 1.368 . S
C2818 C2812 1.368 . S
C2818 C2817 1.523 . S
C2819 C2803 1.429 . S
C2819 C2815 1.429 . S
C2819 C2820 1.523 . S
C2820 C2804 1.368 . S
C2820 C2816 1.368 . S
C2820 C2819 1.523 . S
H2821 C2796 0.950 . S
H2822 C2798 0.950 . S
H2823 C2799 0.949 . S
H2824 C2801 0.950 . S
H2825 C2803 0.950 . S
C2826 C2827 1.349 . S
C2826 C2828 1.327 . S
C2826 H2851 0.950 . S
C2827 C2826 1.349 . S
C2827 C2843 1.349 . S
C2828 C2826 1.327 . S
C2828 C2847 1.429 . S
C2828 H2852 0.950 . S
C2829 C2846 1.574 . S
C2829 C2848 1.368 . S
C2829 H2853 0.949 . S
H2830 C2834 0.949 . S
C2831 C2832 1.349 . S
C2831 C2833 1.327 . S
C2831 H2854 0.950 . S
C2832 C2831 1.349 . S
C2832 C2844 1.349 . S
C2833 C2831 1.327 . S
C2833 C2849 1.429 . S
C2833 H2855 0.950 . S
C2834 H2830 0.949 . S
C2834 C2842 1.574 . S
C2834 C2850 1.368 . S
H2835 C2843 0.950 . S
H2836 C2841 0.950 . S
H2837 C2842 0.949 . S
H2838 C2844 0.950 . S
H2839 C2845 0.950 . S
H2840 C2846 0.949 . S
C2841 H2836 0.950 . S
C2841 C2843 1.327 . S
C2841 C2847 1.429 . S
C2842 C2834 1.574 . S
C2842 H2837 0.949 . S
C2842 C2848 1.368 . S
C2843 C2827 1.349 . S
C2843 H2835 0.950 . S
C2843 C2841 1.327 . S
C2844 C2832 1.349 . S
C2844 H2838 0.950 . S
C2844 C2845 1.327 . S
C2845 H2839 0.950 . S
C2845 C2844 1.327 . S
C2845 C2849 1.429 . S
C2846 C2829 1.574 . S
C2846 H2840 0.949 . S
C2846 C2850 1.368 . S
C2847 C2828 1.429 . S
C2847 C2841 1.429 . S
C2847 C2848 1.523 . S
C2848 C2829 1.368 . S
C2848 C2842 1.368 . S
C2848 C2847 1.523 . S
C2849 C2833 1.429 . S
C2849 C2845 1.429 . S
C2849 C2850 1.523 . S
C2850 C2834 1.368 . S
C2850 C2846 1.368 . S
C2850 C2849 1.523 . S
H2851 C2826 0.950 . S
H2852 C2828 0.950 . S
H2853 C2829 0.949 . S
H2854 C2831 0.950 . S
H2855 C2833 0.950 . S
C2856 C2857 1.349 . S
C2856 C2858 1.327 . S
C2856 H2881 0.950 . S
C2857 C2856 1.349 . S
C2857 C2873 1.349 . S
C2858 C2856 1.327 . S
C2858 C2877 1.429 . S
C2858 H2882 0.950 . S
C2859 C2876 1.574 . S
C2859 C2878 1.368 . S
C2859 H2883 0.949 . S
H2860 C2864 0.949 . S
C2861 C2862 1.349 . S
C2861 C2863 1.327 . S
C2861 H2884 0.950 . S
C2862 C2861 1.349 . S
C2862 C2874 1.349 . S
C2863 C2861 1.327 . S
C2863 C2879 1.429 . S
C2863 H2885 0.950 . S
C2864 H2860 0.949 . S
C2864 C2872 1.574 . S
C2864 C2880 1.368 . S
H2865 C2873 0.950 . S
H2866 C2871 0.950 . S
H2867 C2872 0.949 . S
H2868 C2874 0.950 . S
H2869 C2875 0.950 . S
H2870 C2876 0.949 . S
C2871 H2866 0.950 . S
C2871 C2873 1.327 . S
C2871 C2877 1.429 . S
C2872 C2864 1.574 . S
C2872 H2867 0.949 . S
C2872 C2878 1.368 . S
C2873 C2857 1.349 . S
C2873 H2865 0.950 . S
C2873 C2871 1.327 . S
C2874 C2862 1.349 . S
C2874 H2868 0.950 . S
C2874 C2875 1.327 . S
C2875 H2869 0.950 . S
C2875 C2874 1.327 . S
C2875 C2879 1.429 . S
C2876 C2859 1.574 . S
C2876 H2870 0.949 . S
C2876 C2880 1.368 . S
C2877 C2858 1.429 . S
C2877 C2871 1.429 . S
C2877 C2878 1.523 . S
C2878 C2859 1.368 . S
C2878 C2872 1.368 . S
C2878 C2877 1.523 . S
C2879 C2863 1.429 . S
C2879 C2875 1.429 . S
C2879 C2880 1.523 . S
C2880 C2864 1.368 . S
C2880 C2876 1.368 . S
C2880 C2879 1.523 . S
H2881 C2856 0.950 . S
H2882 C2858 0.950 . S
H2883 C2859 0.949 . S
H2884 C2861 0.950 . S
H2885 C2863 0.950 . S
C2886 C2887 1.349 . S
C2886 C2888 1.327 . S
C2886 H2911 0.950 . S
C2887 C2886 1.349 . S
C2887 C2903 1.349 . S
C2888 C2886 1.327 . S
C2888 C2907 1.429 . S
C2888 H2912 0.950 . S
C2889 C2906 1.574 . S
C2889 C2908 1.368 . S
C2889 H2913 0.949 . S
H2890 C2894 0.949 . S
C2891 C2892 1.349 . S
C2891 C2893 1.327 . S
C2891 H2914 0.950 . S
C2892 C2891 1.349 . S
C2892 C2904 1.349 . S
C2893 C2891 1.327 . S
C2893 C2909 1.429 . S
C2893 H2915 0.950 . S
C2894 H2890 0.949 . S
C2894 C2902 1.574 . S
C2894 C2910 1.368 . S
H2895 C2903 0.950 . S
H2896 C2901 0.950 . S
H2897 C2902 0.949 . S
H2898 C2904 0.950 . S
H2899 C2905 0.950 . S
H2900 C2906 0.949 . S
C2901 H2896 0.950 . S
C2901 C2903 1.327 . S
C2901 C2907 1.429 . S
C2902 C2894 1.574 . S
C2902 H2897 0.949 . S
C2902 C2908 1.368 . S
C2903 C2887 1.349 . S
C2903 H2895 0.950 . S
C2903 C2901 1.327 . S
C2904 C2892 1.349 . S
C2904 H2898 0.950 . S
C2904 C2905 1.327 . S
C2905 H2899 0.950 . S
C2905 C2904 1.327 . S
C2905 C2909 1.429 . S
C2906 C2889 1.574 . S
C2906 H2900 0.949 . S
C2906 C2910 1.368 . S
C2907 C2888 1.429 . S
C2907 C2901 1.429 . S
C2907 C2908 1.523 . S
C2908 C2889 1.368 . S
C2908 C2902 1.368 . S
C2908 C2907 1.523 . S
C2909 C2893 1.429 . S
C2909 C2905 1.429 . S
C2909 C2910 1.523 . S
C2910 C2894 1.368 . S
C2910 C2906 1.368 . S
C2910 C2909 1.523 . S
H2911 C2886 0.950 . S
H2912 C2888 0.950 . S
H2913 C2889 0.949 . S
H2914 C2891 0.950 . S
H2915 C2893 0.950 . S
C2916 C2917 1.349 . S
C2916 C2918 1.327 . S
C2916 H2941 0.950 . S
C2917 C2916 1.349 . S
C2917 C2933 1.349 . S
C2918 C2916 1.327 . S
C2918 C2937 1.429 . S
C2918 H2942 0.950 . S
C2919 C2936 1.574 . S
C2919 C2938 1.368 1_565 S
C2919 H2943 0.949 . S
H2920 C2924 0.949 . S
C2921 C2922 1.349 1_565 S
C2921 C2923 1.327 . S
C2921 H2944 0.950 . S
C2922 C2921 1.349 1_545 S
C2922 C2934 1.349 . S
C2923 C2921 1.327 . S
C2923 C2939 1.429 1_565 S
C2923 H2945 0.950 . S
C2924 H2920 0.949 . S
C2924 C2932 1.574 . S
C2924 C2940 1.368 . S
H2925 C2933 0.950 1_565 S
H2926 C2931 0.937 1_565 S
H2927 C2932 0.949 . S
H2928 C2934 0.950 . S
H2929 C2935 0.950 . S
H2930 C2936 0.949 . S
C2931 H2926 0.937 1_545 S
C2931 C2933 1.334 . S
C2931 C2937 1.434 . S
C2932 C2924 1.574 . S
C2932 H2927 0.949 . S
C2932 C2938 1.368 . S
C2933 C2917 1.349 . S
C2933 H2925 0.950 1_545 S
C2933 C2931 1.334 . S
C2934 C2922 1.349 . S
C2934 H2928 0.950 . S
C2934 C2935 1.327 . S
C2935 H2929 0.950 . S
C2935 C2934 1.327 . S
C2935 C2939 1.429 . S
C2936 C2919 1.574 . S
C2936 H2930 0.949 . S
C2936 C2940 1.368 1_565 S
C2937 C2918 1.429 . S
C2937 C2931 1.434 . S
C2937 C2938 1.523 . S
C2938 C2919 1.368 1_545 S
C2938 C2932 1.368 . S
C2938 C2937 1.523 . S
C2939 C2923 1.429 1_545 S
C2939 C2935 1.429 . S
C2939 C2940 1.523 . S
C2940 C2924 1.368 . S
C2940 C2936 1.368 1_545 S
C2940 C2939 1.523 . S
H2941 C2916 0.950 . S
H2942 C2918 0.950 . S
H2943 C2919 0.949 . S
H2944 C2921 0.950 . S
H2945 C2923 0.950 . S
C2946 C2947 1.349 . S
C2946 C2948 1.327 . S
C2946 H2971 0.950 . S
C2947 C2946 1.349 . S
C2947 C2963 1.349 . S
C2948 C2946 1.327 . S
C2948 C2967 1.429 . S
C2948 H2972 0.950 . S
C2949 C2966 1.574 . S
C2949 C2968 1.368 . S
C2949 H2973 0.949 . S
H2950 C2954 0.949 . S
C2951 C2952 1.349 . S
C2951 C2953 1.327 . S
C2951 H2974 0.950 . S
C2952 C2951 1.349 . S
C2952 C2964 1.349 . S
C2953 C2951 1.327 . S
C2953 C2969 1.429 . S
C2953 H2975 0.950 . S
C2954 H2950 0.949 . S
C2954 C2962 1.574 . S
C2954 C2970 1.368 . S
H2955 C2963 0.950 . S
H2956 C2961 0.950 . S
H2957 C2962 0.949 . S
H2958 C2964 0.956 . S
H2959 C2965 0.950 . S
H2960 C2966 0.949 . S
C2961 H2956 0.950 . S
C2961 C2963 1.327 . S
C2961 C2967 1.429 . S
C2962 C2954 1.574 . S
C2962 H2957 0.949 . S
C2962 C2968 1.368 . S
C2963 C2947 1.349 . S
C2963 H2955 0.950 . S
C2963 C2961 1.327 . S
C2964 C2952 1.349 . S
C2964 H2958 0.956 . S
C2964 C2965 1.327 . S
C2965 H2959 0.950 . S
C2965 C2964 1.327 . S
C2965 C2969 1.429 . S
C2966 C2949 1.574 . S
C2966 H2960 0.949 . S
C2966 C2970 1.368 . S
C2967 C2948 1.429 . S
C2967 C2961 1.429 . S
C2967 C2968 1.523 . S
C2968 C2949 1.368 . S
C2968 C2962 1.368 . S
C2968 C2967 1.523 . S
C2969 C2953 1.429 . S
C2969 C2965 1.429 . S
C2969 C2970 1.523 . S
C2970 C2954 1.368 . S
C2970 C2966 1.368 . S
C2970 C2969 1.523 . S
H2971 C2946 0.950 . S
H2972 C2948 0.950 . S
H2973 C2949 0.949 . S
H2974 C2951 0.950 . S
H2975 C2953 0.950 . S
C2976 C2977 1.349 . S
C2976 C2978 1.327 . S
C2976 H3001 0.950 . S
C2977 C2976 1.349 . S
C2977 C2993 1.349 . S
C2978 C2976 1.327 . S
C2978 C2997 1.429 . S
C2978 H3002 0.950 . S
C2979 C2996 1.574 . S
C2979 C2998 1.368 . S
C2979 H3003 0.949 . S
H2980 C2984 0.949 . S
C2981 C2982 1.349 . S
C2981 C2983 1.327 . S
C2981 H3004 0.950 . S
C2982 C2981 1.349 . S
C2982 C2994 1.349 . S
C2983 C2981 1.327 . S
C2983 C2999 1.429 . S
C2983 H3005 0.950 . S
C2984 H2980 0.949 . S
C2984 C2992 1.574 . S
C2984 C3000 1.368 . S
H2985 C2993 0.950 . S
H2986 C2991 0.950 . S
H2987 C2992 0.949 . S
H2988 C2994 0.950 . S
H2989 C2995 0.950 . S
H2990 C2996 0.949 . S
C2991 H2986 0.950 . S
C2991 C2993 1.327 . S
C2991 C2997 1.429 . S
C2992 C2984 1.574 . S
C2992 H2987 0.949 . S
C2992 C2998 1.368 . S
C2993 C2977 1.349 . S
C2993 H2985 0.950 . S
C2993 C2991 1.327 . S
C2994 C2982 1.349 . S
C2994 H2988 0.950 . S
C2994 C2995 1.327 . S
C2995 H2989 0.950 . S
C2995 C2994 1.327 . S
C2995 C2999 1.429 . S
C2996 C2979 1.574 . S
C2996 H2990 0.949 . S
C2996 C3000 1.368 . S
C2997 C2978 1.429 . S
C2997 C2991 1.429 . S
C2997 C2998 1.523 . S
C2998 C2979 1.368 . S
C2998 C2992 1.368 . S
C2998 C2997 1.523 . S
C2999 C2983 1.429 . S
C2999 C2995 1.429 . S
C2999 C3000 1.523 . S
C3000 C2984 1.368 . S
C3000 C2996 1.368 . S
C3000 C2999 1.523 . S
H3001 C2976 0.950 . S
H3002 C2978 0.950 . S
H3003 C2979 0.949 . S
H3004 C2981 0.950 . S
H3005 C2983 0.950 . S
C3006 C3007 1.349 . S
C3006 C3008 1.327 . S
C3006 H3031 0.950 . S
C3007 C3006 1.349 . S
C3007 C3023 1.349 . S
C3008 C3006 1.327 . S
C3008 C3027 1.429 . S
C3008 H3032 0.950 . S
C3009 C3026 1.574 . S
C3009 C3028 1.368 . S
C3009 H3033 0.949 . S
H3010 C3014 0.949 . S
C3011 C3012 1.349 . S
C3011 C3013 1.327 . S
C3011 H3034 0.950 . S
C3012 C3011 1.349 . S
C3012 C3024 1.349 . S
C3013 C3011 1.327 . S
C3013 C3029 1.429 . S
C3013 H3035 0.950 . S
C3014 H3010 0.949 . S
C3014 C3022 1.574 . S
C3014 C3030 1.368 . S
H3015 C3023 0.950 . S
H3016 C3021 0.950 . S
H3017 C3022 0.949 . S
H3018 C3024 0.950 . S
H3019 C3025 0.950 . S
H3020 C3026 0.949 . S
C3021 H3016 0.950 . S
C3021 C3023 1.327 . S
C3021 C3027 1.429 . S
C3022 C3014 1.574 . S
C3022 H3017 0.949 . S
C3022 C3028 1.368 . S
C3023 C3007 1.349 . S
C3023 H3015 0.950 . S
C3023 C3021 1.327 . S
C3024 C3012 1.349 . S
C3024 H3018 0.950 . S
C3024 C3025 1.327 . S
C3025 H3019 0.950 . S
C3025 C3024 1.327 . S
C3025 C3029 1.429 . S
C3026 C3009 1.574 . S
C3026 H3020 0.949 . S
C3026 C3030 1.368 . S
C3027 C3008 1.429 . S
C3027 C3021 1.429 . S
C3027 C3028 1.523 . S
C3028 C3009 1.368 . S
C3028 C3022 1.368 . S
C3028 C3027 1.523 . S
C3029 C3013 1.429 . S
C3029 C3025 1.429 . S
C3029 C3030 1.523 . S
C3030 C3014 1.368 . S
C3030 C3026 1.368 . S
C3030 C3029 1.523 . S
H3031 C3006 0.950 . S
H3032 C3008 0.950 . S
H3033 C3009 0.949 . S
H3034 C3011 0.950 . S
H3035 C3013 0.950 . S
C3036 C3037 1.349 . S
C3036 C3038 1.327 . S
C3036 H3061 0.950 . S
C3037 C3036 1.349 . S
C3037 C3053 1.349 . S
C3038 C3036 1.327 . S
C3038 C3057 1.429 . S
C3038 H3062 0.950 . S
C3039 C3056 1.574 . S
C3039 C3058 1.368 . S
C3039 H3063 0.949 . S
H3040 C3044 0.949 . S
C3041 C3042 1.349 . S
C3041 C3043 1.327 . S
C3041 H3064 0.950 . S
C3042 C3041 1.349 . S
C3042 C3054 1.349 . S
C3043 C3041 1.327 . S
C3043 C3059 1.429 . S
C3043 H3065 0.950 . S
C3044 H3040 0.949 . S
C3044 C3052 1.574 . S
C3044 C3060 1.368 . S
H3045 C3053 0.950 . S
H3046 C3051 0.950 . S
H3047 C3052 0.949 . S
H3048 C3054 0.950 . S
H3049 C3055 0.950 . S
H3050 C3056 0.949 . S
C3051 H3046 0.950 . S
C3051 C3053 1.327 . S
C3051 C3057 1.429 . S
C3052 C3044 1.574 . S
C3052 H3047 0.949 . S
C3052 C3058 1.368 . S
C3053 C3037 1.349 . S
C3053 H3045 0.950 . S
C3053 C3051 1.327 . S
C3054 C3042 1.349 . S
C3054 H3048 0.950 . S
C3054 C3055 1.327 . S
C3055 H3049 0.950 . S
C3055 C3054 1.327 . S
C3055 C3059 1.429 . S
C3056 C3039 1.574 . S
C3056 H3050 0.949 . S
C3056 C3060 1.368 . S
C3057 C3038 1.429 . S
C3057 C3051 1.429 . S
C3057 C3058 1.523 . S
C3058 C3039 1.368 . S
C3058 C3052 1.368 . S
C3058 C3057 1.523 . S
C3059 C3043 1.429 . S
C3059 C3055 1.429 . S
C3059 C3060 1.523 . S
C3060 C3044 1.368 . S
C3060 C3056 1.368 . S
C3060 C3059 1.523 . S
H3061 C3036 0.950 . S
H3062 C3038 0.950 . S
H3063 C3039 0.949 . S
H3064 C3041 0.950 . S
H3065 C3043 0.950 . S
C3066 C3067 1.349 . S
C3066 C3068 1.327 . S
C3066 H3091 0.950 . S
C3067 C3066 1.349 . S
C3067 C3083 1.349 . S
C3068 C3066 1.327 . S
C3068 C3087 1.429 . S
C3068 H3092 0.950 . S
C3069 C3086 1.574 . S
C3069 C3088 1.368 . S
C3069 H3093 0.949 . S
H3070 C3074 0.949 . S
C3071 C3072 1.349 . S
C3071 C3073 1.327 . S
C3071 H3094 0.950 . S
C3072 C3071 1.349 . S
C3072 C3084 1.349 . S
C3073 C3071 1.327 . S
C3073 C3089 1.429 . S
C3073 H3095 0.950 . S
C3074 H3070 0.949 . S
C3074 C3082 1.574 . S
C3074 C3090 1.368 . S
H3075 C3083 0.950 . S
H3076 C3081 0.950 . S
H3077 C3082 0.949 . S
H3078 C3084 0.950 . S
H3079 C3085 0.950 . S
H3080 C3086 0.949 . S
C3081 H3076 0.950 . S
C3081 C3083 1.327 . S
C3081 C3087 1.429 . S
C3082 C3074 1.574 . S
C3082 H3077 0.949 . S
C3082 C3088 1.368 . S
C3083 C3067 1.349 . S
C3083 H3075 0.950 . S
C3083 C3081 1.327 . S
C3084 C3072 1.349 . S
C3084 H3078 0.950 . S
C3084 C3085 1.327 . S
C3085 H3079 0.950 . S
C3085 C3084 1.327 . S
C3085 C3089 1.429 . S
C3086 C3069 1.574 . S
C3086 H3080 0.949 . S
C3086 C3090 1.368 . S
C3087 C3068 1.429 . S
C3087 C3081 1.429 . S
C3087 C3088 1.523 . S
C3088 C3069 1.368 . S
C3088 C3082 1.368 . S
C3088 C3087 1.523 . S
C3089 C3073 1.429 . S
C3089 C3085 1.429 . S
C3089 C3090 1.523 . S
C3090 C3074 1.368 . S
C3090 C3086 1.368 . S
C3090 C3089 1.523 . S
H3091 C3066 0.950 . S
H3092 C3068 0.950 . S
H3093 C3069 0.949 . S
H3094 C3071 0.950 . S
H3095 C3073 0.950 . S
C3096 C3097 1.349 . S
C3096 C3098 1.327 . S
C3096 H3121 0.950 . S
C3097 C3096 1.349 . S
C3097 C3113 1.349 . S
C3098 C3096 1.327 . S
C3098 C3117 1.429 . S
C3098 H3122 0.950 . S
C3099 C3116 1.574 . S
C3099 C3118 1.368 . S
C3099 H3123 0.949 . S
H3100 C3104 0.949 . S
C3101 C3102 1.349 . S
C3101 C3103 1.327 . S
C3101 H3124 0.950 . S
C3102 C3101 1.349 . S
C3102 C3114 1.349 . S
C3103 C3101 1.327 . S
C3103 C3119 1.429 . S
C3103 H3125 0.950 . S
C3104 H3100 0.949 . S
C3104 C3112 1.574 . S
C3104 C3120 1.368 . S
H3105 C3113 0.950 . S
H3106 C3111 0.950 . S
H3107 C3112 0.949 . S
H3108 C3114 0.950 . S
H3109 C3115 0.950 . S
H3110 C3116 0.949 . S
C3111 H3106 0.950 . S
C3111 C3113 1.327 . S
C3111 C3117 1.429 . S
C3112 C3104 1.574 . S
C3112 H3107 0.949 . S
C3112 C3118 1.368 . S
C3113 C3097 1.349 . S
C3113 H3105 0.950 . S
C3113 C3111 1.327 . S
C3114 C3102 1.349 . S
C3114 H3108 0.950 . S
C3114 C3115 1.327 . S
C3115 H3109 0.950 . S
C3115 C3114 1.327 . S
C3115 C3119 1.429 . S
C3116 C3099 1.574 . S
C3116 H3110 0.949 . S
C3116 C3120 1.368 . S
C3117 C3098 1.429 . S
C3117 C3111 1.429 . S
C3117 C3118 1.523 . S
C3118 C3099 1.368 . S
C3118 C3112 1.368 . S
C3118 C3117 1.523 . S
C3119 C3103 1.429 . S
C3119 C3115 1.429 . S
C3119 C3120 1.523 . S
C3120 C3104 1.368 . S
C3120 C3116 1.368 . S
C3120 C3119 1.523 . S
H3121 C3096 0.950 . S
H3122 C3098 0.950 . S
H3123 C3099 0.949 . S
H3124 C3101 0.950 . S
H3125 C3103 0.950 . S
C3126 C3127 1.349 . S
C3126 C3128 1.327 . S
C3126 H3151 0.950 . S
C3127 C3126 1.349 . S
C3127 C3143 1.349 . S
C3128 C3126 1.327 . S
C3128 C3147 1.429 . S
C3128 H3152 0.950 . S
C3129 C3146 1.574 . S
C3129 C3148 1.368 . S
C3129 H3153 0.949 . S
H3130 C3134 0.949 . S
C3131 C3132 1.349 . S
C3131 C3133 1.327 . S
C3131 H3154 0.950 . S
C3132 C3131 1.349 . S
C3132 C3144 1.349 . S
C3133 C3131 1.327 . S
C3133 C3149 1.429 . S
C3133 H3155 0.950 . S
C3134 H3130 0.949 . S
C3134 C3142 1.574 . S
C3134 C3150 1.368 . S
H3135 C3143 0.950 . S
H3136 C3141 0.950 . S
H3137 C3142 0.949 . S
H3138 C3144 0.950 . S
H3139 C3145 0.950 . S
H3140 C3146 0.949 . S
C3141 H3136 0.950 . S
C3141 C3143 1.327 . S
C3141 C3147 1.429 . S
C3142 C3134 1.574 . S
C3142 H3137 0.949 . S
C3142 C3148 1.368 . S
C3143 C3127 1.349 . S
C3143 H3135 0.950 . S
C3143 C3141 1.327 . S
C3144 C3132 1.349 . S
C3144 H3138 0.950 . S
C3144 C3145 1.327 . S
C3145 H3139 0.950 . S
C3145 C3144 1.327 . S
C3145 C3149 1.429 . S
C3146 C3129 1.574 . S
C3146 H3140 0.949 . S
C3146 C3150 1.368 . S
C3147 C3128 1.429 . S
C3147 C3141 1.429 . S
C3147 C3148 1.523 . S
C3148 C3129 1.368 . S
C3148 C3142 1.368 . S
C3148 C3147 1.523 . S
C3149 C3133 1.429 . S
C3149 C3145 1.429 . S
C3149 C3150 1.523 . S
C3150 C3134 1.368 . S
C3150 C3146 1.368 . S
C3150 C3149 1.523 . S
H3151 C3126 0.950 . S
H3152 C3128 0.950 . S
H3153 C3129 0.949 . S
H3154 C3131 0.950 . S
H3155 C3133 0.950 . S
C3156 C3157 1.349 . S
C3156 C3158 1.327 . S
C3156 H3181 0.950 . S
C3157 C3156 1.349 . S
C3157 C3173 1.349 . S
C3158 C3156 1.327 . S
C3158 C3177 1.429 . S
C3158 H3182 0.950 . S
C3159 C3176 1.574 . S
C3159 C3178 1.368 . S
C3159 H3183 0.949 . S
H3160 C3164 0.949 . S
C3161 C3162 1.349 . S
C3161 C3163 1.327 . S
C3161 H3184 0.950 . S
C3162 C3161 1.349 . S
C3162 C3174 1.349 . S
C3163 C3161 1.327 . S
C3163 C3179 1.429 . S
C3163 H3185 0.950 . S
C3164 H3160 0.949 . S
C3164 C3172 1.574 . S
C3164 C3180 1.368 . S
H3165 C3173 0.950 . S
H3166 C3171 0.950 . S
H3167 C3172 0.949 . S
H3168 C3174 0.950 . S
H3169 C3175 0.950 . S
H3170 C3176 0.949 . S
C3171 H3166 0.950 . S
C3171 C3173 1.327 . S
C3171 C3177 1.429 . S
C3172 C3164 1.574 . S
C3172 H3167 0.949 . S
C3172 C3178 1.368 . S
C3173 C3157 1.349 . S
C3173 H3165 0.950 . S
C3173 C3171 1.327 . S
C3174 C3162 1.349 . S
C3174 H3168 0.950 . S
C3174 C3175 1.327 . S
C3175 H3169 0.950 . S
C3175 C3174 1.327 . S
C3175 C3179 1.429 . S
C3176 C3159 1.574 . S
C3176 H3170 0.949 . S
C3176 C3180 1.368 . S
C3177 C3158 1.429 . S
C3177 C3171 1.429 . S
C3177 C3178 1.523 . S
C3178 C3159 1.368 . S
C3178 C3172 1.368 . S
C3178 C3177 1.523 . S
C3179 C3163 1.429 . S
C3179 C3175 1.429 . S
C3179 C3180 1.523 . S
C3180 C3164 1.368 . S
C3180 C3176 1.368 . S
C3180 C3179 1.523 . S
H3181 C3156 0.950 . S
H3182 C3158 0.950 . S
H3183 C3159 0.949 . S
H3184 C3161 0.950 . S
H3185 C3163 0.950 . S
C3186 C3187 1.349 . S
C3186 C3188 1.327 . S
C3186 H3211 0.950 . S
C3187 C3186 1.349 . S
C3187 C3203 1.349 . S
C3188 C3186 1.327 . S
C3188 C3207 1.429 . S
C3188 H3212 0.950 . S
C3189 C3206 1.521 1_655 S
C3189 C3208 1.435 . S
C3189 H3213 0.930 1_655 S
H3190 C3194 0.949 . S
C3191 C3192 1.349 1_455 S
C3191 C3193 1.327 . S
C3191 H3214 0.950 . S
C3192 C3191 1.349 1_655 S
C3192 C3204 1.349 . S
C3193 C3191 1.327 . S
C3193 C3209 1.429 1_455 S
C3193 H3215 0.950 . S
C3194 H3190 0.949 . S
C3194 C3202 1.574 . S
C3194 C3210 1.368 . S
H3195 C3203 0.951 1_455 S
H3196 C3201 0.950 1_455 S
H3197 C3202 0.949 . S
H3198 C3204 0.950 . S
H3199 C3205 0.950 . S
H3200 C3206 0.973 . S
C3201 H3196 0.950 1_655 S
C3201 C3203 1.327 . S
C3201 C3207 1.429 . S
C3202 C3194 1.574 . S
C3202 H3197 0.949 . S
C3202 C3208 1.368 . S
C3203 C3187 1.349 . S
C3203 H3195 0.951 1_655 S
C3203 C3201 1.327 . S
C3204 C3192 1.349 . S
C3204 H3198 0.950 . S
C3204 C3205 1.327 . S
C3205 H3199 0.950 . S
C3205 C3204 1.327 . S
C3205 C3209 1.429 . S
C3206 C3189 1.521 1_455 S
C3206 H3200 0.973 . S
C3206 C3210 1.357 1_455 S
C3207 C3188 1.429 . S
C3207 C3201 1.429 . S
C3207 C3208 1.523 . S
C3208 C3189 1.435 . S
C3208 C3202 1.368 . S
C3208 C3207 1.523 . S
C3209 C3193 1.429 1_655 S
C3209 C3205 1.429 . S
C3209 C3210 1.523 . S
C3210 C3194 1.368 . S
C3210 C3206 1.357 1_655 S
C3210 C3209 1.523 . S
H3211 C3186 0.950 . S
H3212 C3188 0.950 . S
H3213 C3189 0.930 1_455 S
H3214 C3191 0.950 . S
H3215 C3193 0.950 . S
C3216 C3217 1.349 . S
C3216 C3218 1.327 . S
C3216 H3241 0.950 . S
C3217 C3216 1.349 . S
C3217 C3233 1.349 . S
C3218 C3216 1.327 . S
C3218 C3237 1.429 . S
C3218 H3242 0.950 . S
C3219 C3236 1.574 . S
C3219 C3238 1.368 . S
C3219 H3243 0.949 . S
H3220 C3224 0.949 . S
C3221 C3222 1.349 . S
C3221 C3223 1.327 . S
C3221 H3244 0.950 . S
C3222 C3221 1.349 . S
C3222 C3234 1.349 . S
C3223 C3221 1.327 . S
C3223 C3239 1.429 . S
C3223 H3245 0.950 . S
C3224 H3220 0.949 . S
C3224 C3232 1.574 . S
C3224 C3240 1.368 . S
H3225 C3233 0.950 . S
H3226 C3231 0.950 . S
H3227 C3232 0.949 . S
H3228 C3234 0.950 . S
H3229 C3235 0.950 . S
H3230 C3236 0.949 . S
C3231 H3226 0.950 . S
C3231 C3233 1.327 . S
C3231 C3237 1.429 . S
C3232 C3224 1.574 . S
C3232 H3227 0.949 . S
C3232 C3238 1.368 . S
C3233 C3217 1.349 . S
C3233 H3225 0.950 . S
C3233 C3231 1.327 . S
C3234 C3222 1.349 . S
C3234 H3228 0.950 . S
C3234 C3235 1.327 . S
C3235 H3229 0.950 . S
C3235 C3234 1.327 . S
C3235 C3239 1.429 . S
C3236 C3219 1.574 . S
C3236 H3230 0.949 . S
C3236 C3240 1.368 . S
C3237 C3218 1.429 . S
C3237 C3231 1.429 . S
C3237 C3238 1.523 . S
C3238 C3219 1.368 . S
C3238 C3232 1.368 . S
C3238 C3237 1.523 . S
C3239 C3223 1.429 . S
C3239 C3235 1.429 . S
C3239 C3240 1.523 . S
C3240 C3224 1.368 . S
C3240 C3236 1.368 . S
C3240 C3239 1.523 . S
H3241 C3216 0.950 . S
H3242 C3218 0.950 . S
H3243 C3219 0.949 . S
H3244 C3221 0.950 . S
H3245 C3223 0.950 . S
C3246 C3247 1.349 . S
C3246 C3248 1.327 . S
C3246 H3271 0.950 . S
C3247 C3246 1.349 . S
C3247 C3263 1.349 . S
C3248 C3246 1.327 . S
C3248 C3267 1.429 . S
C3248 H3272 0.950 . S
C3249 C3266 1.572 . S
C3249 C3268 1.368 . S
C3249 H3273 0.949 1_545 S
H3250 C3254 0.949 . S
C3251 C3252 1.349 1_565 S
C3251 C3253 1.327 . S
C3251 H3274 0.950 . S
C3252 C3251 1.349 1_545 S
C3252 C3264 1.349 . S
C3253 C3251 1.327 . S
C3253 C3269 1.429 1_565 S
C3253 H3275 0.950 . S
C3254 H3250 0.949 . S
C3254 C3262 1.574 . S
C3254 C3270 1.368 . S
H3255 C3263 0.950 . S
H3256 C3261 0.932 1_565 S
H3257 C3262 0.949 . S
H3258 C3264 0.950 . S
H3259 C3265 0.950 . S
H3260 C3266 0.947 1_565 S
C3261 H3256 0.932 1_545 S
C3261 C3263 1.327 . S
C3261 C3267 1.429 . S
C3262 C3254 1.574 . S
C3262 H3257 0.949 . S
C3262 C3268 1.368 . S
C3263 C3247 1.349 . S
C3263 H3255 0.950 . S
C3263 C3261 1.327 . S
C3264 C3252 1.349 . S
C3264 H3258 0.950 . S
C3264 C3265 1.327 . S
C3265 H3259 0.950 . S
C3265 C3264 1.327 . S
C3265 C3269 1.429 . S
C3266 C3249 1.572 . S
C3266 H3260 0.947 1_545 S
C3266 C3270 1.372 . S
C3267 C3248 1.429 . S
C3267 C3261 1.429 . S
C3267 C3268 1.523 . S
C3268 C3249 1.368 . S
C3268 C3262 1.368 . S
C3268 C3267 1.523 . S
C3269 C3253 1.429 1_545 S
C3269 C3265 1.429 . S
C3269 C3270 1.523 . S
C3270 C3254 1.368 . S
C3270 C3266 1.372 . S
C3270 C3269 1.523 . S
H3271 C3246 0.950 . S
H3272 C3248 0.950 . S
H3273 C3249 0.949 1_565 S
H3274 C3251 0.950 . S
H3275 C3253 0.950 . S
C1117 C7 1.449 . S
C1122 C729 1.469 . S
C1147 C23 1.590 . S
C1152 C777 1.598 . S
C1182 C825 1.495 . S
C1177 C37 1.472 . S
C1207 C35 1.459 1_545 S
C1212 C849 1.484 . S
C1237 C9 1.471 . S
C1242 C921 1.498 . S
C1267 C21 1.567 . S
C1272 C969 1.604 . S
C1297 C49 1.443 . S
C1302 C897 1.465 . S
C1332 C945 1.600 . S
C1327 C65 1.592 . S
C1362 C873 1.510 . S
C1357 C79 1.495 1_565 S
C1387 C77 1.437 . S
C1392 C801 1.459 . S
C1422 C705 1.519 . S
C1417 C51 1.492 1_655 S
C1447 C63 1.566 . S
C1452 C753 1.604 . S
C1477 C91 1.649 . S
C1482 C1017 1.689 . S
C1507 C107 1.663 . S
C1512 C1065 1.663 . S
C1542 C1089 1.656 . S
C1537 C121 1.667 . S
C1567 C119 1.603 . S
C1572 C273 1.624 . S
C1597 C93 1.664 . S
C1602 C345 1.669 . S
C1627 C105 1.614 . S
C1632 C393 1.644 . S
C1657 C133 1.553 . S
C1662 C321 1.587 . S
C1687 C149 1.639 . S
C1692 C369 1.644 . S
C1722 C297 1.636 . S
C1717 C163 1.664 . S
C1752 C1113 1.695 . S
C1747 C161 1.692 . S
C1782 C993 1.651 . S
C1777 C135 1.651 . S
C1812 C1041 1.688 . S
C1807 C147 1.647 . S
C1837 C175 1.556 . S
C1842 C441 1.590 . S
C1867 C191 1.628 . S
C1872 C489 1.633 . S
C1897 C205 1.666 . S
C1902 C513 1.658 . S
C1927 C203 1.692 . S
C1932 C561 1.718 . S
C1962 C633 1.660 . S
C1957 C177 1.659 . S
C1992 C681 1.687 . S
C1987 C189 1.647 . S
C2022 C609 1.701 . S
C2017 C217 1.661 . S
C2052 C657 1.675 . S
C2047 C233 1.674 . S
C2077 C247 1.657 . S
C2082 C585 1.623 . S
C2112 C537 1.590 . S
C2107 C245 1.591 . S
C2137 C219 1.663 . S
C2142 C417 1.668 . S
C2172 C465 1.651 . S
C2167 C231 1.620 . S
C2202 C282 1.602 . S
C2197 C8 1.603 . S
C2227 C17 1.502 . S
C2232 C336 1.482 . S
C2262 C384 1.587 . S
C2257 C31 1.601 . S
C2292 C432 1.599 . S
C2287 C36 1.621 . S
C2322 C480 1.560 . S
C2317 C3 1.576 . S
C2352 C522 1.510 . S
C2347 C22 1.511 . S
C2377 C50 1.617 . S
C2382 C528 1.615 . S
C2407 C59 1.498 . S
C2412 C426 1.469 . S
C2437 C73 1.572 . S
C2442 C474 1.545 . S
C2467 C78 1.642 . S
C2472 C330 1.618 . S
C2502 C378 1.543 . S
C2497 C45 1.567 . S
C2527 C64 1.515 . S
C2532 C288 1.503 . S
C2562 C570 1.568 . S
C2557 C92 1.568 . S
C2587 C101 1.658 . S
C2592 C624 1.636 . S
C2617 C115 1.675 . S
C2622 C672 1.653 . S
C2652 C720 1.432 . S
C2647 C120 1.429 . S
C2677 C87 1.568 . S
C2682 C768 1.550 . S
C2707 C106 1.383 . S
C2712 C816 1.385 . S
C2737 C134 1.405 . S
C2742 C810 1.399 . S
C2767 C143 1.411 . S
C2772 C714 1.409 . S
C2802 C762 1.558 . S
C2797 C157 1.583 . S
C2827 C162 1.587 . S
C2832 C618 1.556 . S
C2857 C129 1.662 . S
C2862 C666 1.630 . S
C2892 C576 1.644 . S
C2887 C148 1.656 . S
C2922 C858 1.414 . S
C2917 C176 1.408 . S
C2947 C185 1.405 . S
C2952 C912 1.405 . S
C2977 C199 1.582 . S
C2982 C960 1.566 . S
C3012 C1008 1.554 . S
C3007 C204 1.575 . S
C3042 C1056 1.641 . S
C3037 C171 1.664 . S
C3067 C190 1.657 . S
C3072 C1098 1.656 . S
C3097 C218 1.581 . S
C3102 C1104 1.571 . S
C3127 C227 1.653 . S
C3132 C1002 1.621 . S
C3162 C1050 1.627 . S
C3157 C241 1.656 . S
C3192 C906 1.414 . S
C3187 C246 1.412 . S
C3222 C954 1.547 . S
C3217 C213 1.575 . S
C3247 C232 1.395 . S
C3252 C864 1.397 . S
