# Generated by pormake.
# Topology rtl, (3,6)-cn, num edge types: 1
# Building blocks:
#     Node 0, Type 0, BuildingBlock: KAKCAD_clean_linker_0, # of connection points: 3
#     Node 1, Type 0, BuildingBlock: KAKCAD_clean_linker_0, # of connection points: 3
#     Node 2, Type 0, BuildingBlock: KAKCAD_clean_linker_0, # of connection points: 3
#     Node 3, Type 0, BuildingBlock: KAKCAD_clean_linker_0, # of connection points: 3
#     Node 4, Type 1, BuildingBlock: KUMBUR_clean_sbu_1, # of connection points: 6
#     Node 5, Type 1, BuildingBlock: KUMBUR_clean_sbu_1, # of connection points: 6
#     Edge 6, Type (0, 1), BuildingBlock: TEMPAE_clean_linker_10, # of connection points: 2
#     Edge 7, Type (0, 1), BuildingBlock: TEMPAE_clean_linker_10, # of connection points: 2
#     Edge 8, Type (0, 1), BuildingBlock: TEMPAE_clean_linker_10, # of connection points: 2
#     Edge 9, Type (0, 1), BuildingBlock: TEMPAE_clean_linker_10, # of connection points: 2
#     Edge 10, Type (0, 1), BuildingBlock: TEMPAE_clean_linker_10, # of connection points: 2
#     Edge 11, Type (0, 1), BuildingBlock: TEMPAE_clean_linker_10, # of connection points: 2
#     Edge 12, Type (0, 1), BuildingBlock: TEMPAE_clean_linker_10, # of connection points: 2
#     Edge 13, Type (0, 1), BuildingBlock: TEMPAE_clean_linker_10, # of connection points: 2
#     Edge 14, Type (0, 1), BuildingBlock: TEMPAE_clean_linker_10, # of connection points: 2
#     Edge 15, Type (0, 1), BuildingBlock: TEMPAE_clean_linker_10, # of connection points: 2
#     Edge 16, Type (0, 1), BuildingBlock: TEMPAE_clean_linker_10, # of connection points: 2
#     Edge 17, Type (0, 1), BuildingBlock: TEMPAE_clean_linker_10, # of connection points: 2
# Relax obj value: 0.018
# Max RMSD: 0.096
# Mean RMSD: 0.058
data_MOF--net-rtl--node1-KUMBUR_clean_sbu_1--node2-KAKCAD_clean_linker_0--edge1-TEMPAE_clean_linker_10
_symmetry_space_group_name_H-M    P1
_symmetry_Int_Tables_number       1
_symmetry_cell_setting            triclinic
loop_
_symmetry_equiv_pos_as_xyz
'x, y, z'
_cell_length_a     40.272558
_cell_length_b     40.868908
_cell_length_c     35.518154
_cell_angle_alpha  80.070453
_cell_angle_beta   99.48677
_cell_angle_gamma 90.772111
loop_
_atom_site_label
_atom_site_type_symbol
_atom_site_fract_x
_atom_site_fract_y
_atom_site_fract_z
_atom_type_partial_charge
C0 C 0.14876 0.87013 0.87575 0.0
C1 C 0.14067 0.90418 0.86711 0.0
C2 C 0.16448 0.85573 0.91276 0.0
C3 C 0.17286 0.87511 0.94198 0.0
C4 C 0.16373 0.90902 0.9337 0.0
C5 C 0.14767 0.92341 0.8966 0.0
C6 C 0.19238 0.86007 0.98022 0.0
C7 C 0.21848 0.83716 0.9819 0.0
C8 C 0.23678 0.82191 0.01746 0.0
C9 C 0.22956 0.83052 0.05183 0.0
C10 C 0.20322 0.85311 0.05109 0.0
C11 C 0.18484 0.86786 0.01498 0.0
C12 C 0.19401 0.85994 0.08806 0.0
C13 C 0.1963 0.83454 0.12066 0.0
C14 C 0.18248 0.8916 0.09109 0.0
C15 C 0.1732 0.89753 0.12564 0.0
C16 C 0.17559 0.87208 0.15823 0.0
C17 C 0.26214 0.79564 0.01854 0.0
C18 C 0.2542 0.7703 0.99651 0.0
C19 C 0.29403 0.79533 0.0417 0.0
C20 C 0.31757 0.77022 0.0426 0.0
C21 C 0.30946 0.74476 0.02075 0.0
C22 C 0.27756 0.74509 0.9977 0.0
C23 C 0.18759 0.84061 0.15529 0.0
H24 H 0.14303 0.8546 0.85375 0.0
H25 H 0.17032 0.82937 0.91839 0.0
H26 H 0.16999 0.92467 0.95548 0.0
H27 H 0.14174 0.94976 0.89062 0.0
H28 H 0.22486 0.83125 0.95533 0.0
H29 H 0.16384 0.88447 0.01388 0.0
H30 H 0.24406 0.81894 0.07922 0.0
H31 H 0.20441 0.80965 0.11946 0.0
H32 H 0.18073 0.91192 0.06683 0.0
H33 H 0.16373 0.922 0.12657 0.0
H34 H 0.22969 0.76972 0.9787 0.0
H35 H 0.30083 0.81465 0.05884 0.0
H36 H 0.19043 0.82049 0.17984 0.0
H37 H 0.27073 0.72595 0.98032 0.0
H38 H 0.34194 0.77042 0.0608 0.0
C39 C 0.63197 0.682 0.72964 0.0
C40 C 0.63876 0.64918 0.74897 0.0
C41 C 0.64525 0.69396 0.69593 0.0
C42 C 0.66481 0.673 0.6806 0.0
C43 C 0.67178 0.6403 0.70006 0.0
C44 C 0.65918 0.6286 0.73422 0.0
C45 C 0.67657 0.68451 0.64333 0.0
C46 C 0.69948 0.7106 0.63953 0.0
C47 C 0.71176 0.72033 0.60448 0.0
C48 C 0.69986 0.70443 0.57287 0.0
C49 C 0.67628 0.67882 0.57596 0.0
C50 C 0.66511 0.66877 0.61157 0.0
C51 C 0.66336 0.66268 0.54201 0.0
C52 C 0.65571 0.68171 0.50462 0.0
C53 C 0.65858 0.62816 0.54667 0.0
C54 C 0.64658 0.61304 0.51472 0.0
C55 C 0.63915 0.63204 0.4773 0.0
C56 C 0.73756 0.74651 0.60081 0.0
C57 C 0.734 0.77676 0.6136 0.0
C58 C 0.76571 0.74154 0.58363 0.0
C59 C 0.7896 0.76637 0.57893 0.0
C60 C 0.78578 0.79688 0.59104 0.0
C61 C 0.75777 0.8018 0.60853 0.0
C62 C 0.6438 0.66658 0.47267 0.0
H63 H 0.61627 0.69828 0.74055 0.0
H64 H 0.63947 0.71922 0.68119 0.0
H65 H 0.68679 0.62375 0.68864 0.0
H66 H 0.66452 0.60314 0.74848 0.0
H67 H 0.70863 0.72244 0.66424 0.0
H68 H 0.64686 0.64915 0.61451 0.0
H69 H 0.70916 0.71197 0.54578 0.0
H70 H 0.65867 0.7084 0.50002 0.0
H71 H 0.6645 0.61269 0.57497 0.0
H72 H 0.64294 0.58643 0.51941 0.0
H73 H 0.71248 0.78132 0.62679 0.0
H74 H 0.76931 0.71836 0.57385 0.0
H75 H 0.63868 0.68194 0.44424 0.0
H76 H 0.75431 0.82497 0.61838 0.0
H77 H 0.81075 0.76194 0.56508 0.0
C78 C 0.81567 0.1091 0.18069 0.0
C79 C 0.84862 0.09601 0.18606 0.0
C80 C 0.79834 0.12122 0.14355 0.0
C81 C 0.81383 0.12175 0.11069 0.0
C82 C 0.84662 0.10826 0.11613 0.0
C83 C 0.86339 0.09498 0.15305 0.0
C84 C 0.79682 0.13771 0.07124 0.0
C85 C 0.77427 0.16465 0.06651 0.0
C86 C 0.76036 0.18147 0.02946 0.0
C87 C 0.77014 0.17205 0.99663 0.0
C88 C 0.79288 0.14543 1.00072 0.0
C89 C 0.80485 0.12764 0.03788 0.0
C90 C 0.80656 0.13758 0.96693 0.0
C91 C 0.78568 0.13643 0.93133 0.0
C92 C 0.84127 0.13143 0.97035 0.0
C93 C 0.85482 0.12404 0.93914 0.0
C94 C 0.8341 0.12278 0.90355 0.0
C95 C 0.73687 0.20988 0.02571 0.0
C96 C 0.71031 0.20704 0.04718 0.0
C97 C 0.74174 0.24038 1.0023 0.0
C98 C 0.72094 0.26778 1.00122 0.0
C99 C 0.6947 0.26503 0.02318 0.0
C100 C 0.68935 0.23429 0.0458 0.0
C101 C 0.79932 0.12893 0.89993 0.0
H102 H 0.80332 0.11082 0.20513 0.0
H103 H 0.77288 0.13053 0.14086 0.0
H104 H 0.86005 0.10859 0.09209 0.0
H105 H 0.88824 0.08425 0.15549 0.0
H106 H 0.76843 0.17372 0.0916 0.0
H107 H 0.82106 0.10617 0.04059 0.0
H108 H 0.76062 0.18585 0.96807 0.0
H109 H 0.75883 0.14098 0.92791 0.0
H110 H 0.85813 0.13262 0.99718 0.0
H111 H 0.88163 0.119 0.94304 0.0
H112 H 0.70592 0.18374 0.0653 0.0
H113 H 0.76219 0.24331 0.98571 0.0
H114 H 0.78278 0.12829 0.87275 0.0
H115 H 0.66948 0.23152 0.06323 0.0
H116 H 0.72543 0.29114 0.98329 0.0
C117 C 0.35135 0.36571 0.31327 0.0
C118 C 0.38563 0.37393 0.31755 0.0
C119 C 0.33636 0.35364 0.34568 0.0
C120 C 0.35526 0.34937 0.38327 0.0
C121 C 0.38964 0.3573 0.38752 0.0
C122 C 0.40462 0.36944 0.35509 0.0
C123 C 0.33903 0.33729 0.41789 0.0
C124 C 0.31471 0.31214 0.41697 0.0
C125 C 0.29842 0.30153 0.44896 0.0
C126 C 0.30712 0.31595 0.48229 0.0
C127 C 0.33102 0.3412 0.48387 0.0
C128 C 0.34706 0.35158 0.45163 0.0
C129 C 0.33831 0.35689 0.51916 0.0
C130 C 0.31183 0.36422 0.53784 0.0
C131 C 0.3715 0.36349 0.53531 0.0
C132 C 0.37805 0.37611 0.57006 0.0
C133 C 0.35154 0.38235 0.58933 0.0
C134 C 0.27184 0.27583 0.44794 0.0
C135 C 0.24265 0.2797 0.4638 0.0
C136 C 0.2758 0.24686 0.43266 0.0
C137 C 0.25155 0.22193 0.43427 0.0
C138 C 0.22277 0.22551 0.45107 0.0
C139 C 0.21854 0.25488 0.46547 0.0
C140 C 0.31836 0.37673 0.57244 0.0
H141 H 0.33585 0.36932 0.28485 0.0
H142 H 0.30971 0.34836 0.34129 0.0
H143 H 0.4051 0.35386 0.41594 0.0
H144 H 0.43119 0.37507 0.3594 0.0
H145 H 0.3082 0.30101 0.39122 0.0
H146 H 0.36491 0.37163 0.45234 0.0
H147 H 0.29545 0.30713 0.50749 0.0
H148 H 0.28591 0.36018 0.52574 0.0
H149 H 0.39246 0.35795 0.52174 0.0
H150 H 0.40391 0.38008 0.58241 0.0
H151 H 0.23854 0.30192 0.47531 0.0
H152 H 0.29805 0.24304 0.42039 0.0
H153 H 0.29731 0.38201 0.58602 0.0
H154 H 0.19697 0.2584 0.47903 0.0
H155 H 0.25543 0.19979 0.42253 0.0
Tb156 Tb 0.03139 0.97265 0.50863 0.0
C157 C 0.96005 0.11434 0.49176 0.0
N158 N 0.98782 0.1011 0.51654 0.0
C159 C 0.01526 0.15368 0.50764 0.0
C160 C 0.95897 0.14786 0.47345 0.0
C161 C 0.01503 0.12035 0.52531 0.0
C162 C 0.98718 0.16747 0.48146 0.0
C163 C 0.90354 0.10671 0.45857 0.0
C164 C 0.9327 0.09402 0.48442 0.0
C165 C 0.90226 0.14015 0.44041 0.0
C166 C 0.92993 0.16065 0.44776 0.0
Tb167 Tb 0.98469 0.04632 0.5426 0.0
N168 N 0.9354 0.0614 0.50129 0.0
C169 C 0.87677 0.08527 0.45135 0.0
C170 C 0.90876 0.04077 0.49558 0.0
C171 C 0.87931 0.05225 0.47017 0.0
H172 H 0.03611 0.11029 0.54684 0.0
H173 H 0.85849 0.03563 0.46529 0.0
H174 H 0.9902 0.90509 0.53811 0.0
H175 H 0.16091 0.00881 0.5482 0.0
H176 H 0.90975 0.01555 0.51056 0.0
H177 H 0.85399 0.094 0.43152 0.0
H178 H 0.10548 0.01189 0.50713 0.0
H179 H 0.03696 0.16878 0.51454 0.0
H180 H 0.88012 0.15031 0.42034 0.0
H181 H 0.92863 0.18633 0.43335 0.0
H182 H 1.00041 0.85516 0.589 0.0
H183 H 0.98739 0.19333 0.4679 0.0
H184 H 0.17434 0.96324 0.60424 0.0
N185 N 0.03851 0.92513 0.55355 0.0
C186 C 0.06914 0.92064 0.57661 0.0
C187 C 0.01992 0.87344 0.58589 0.0
C188 C 0.07618 0.89245 0.60582 0.0
C189 C 0.0141 0.90184 0.55728 0.0
C190 C 0.05104 0.86878 0.61038 0.0
N191 N 0.08504 0.97199 0.54291 0.0
C192 C 0.1097 0.99354 0.53311 0.0
C193 C 0.12515 0.94123 0.59462 0.0
C194 C 0.09304 0.94503 0.57137 0.0
C195 C 0.14936 0.96523 0.58706 0.0
C196 C 0.14178 0.99114 0.55566 0.0
H197 H 0.05542 0.84682 0.63261 0.0
H198 H 0.1138 0.86747 0.65222 0.0
H199 H 0.15684 0.90997 0.64212 0.0
O200 O 0.06004 0.97115 0.46438 0.0
O201 O 0.02493 0.9706 0.56928 0.0
O202 O 0.03116 0.0244 0.57804 0.0
O203 O 0.02722 0.93124 0.48037 0.0
O204 O 0.04599 0.02444 0.49038 0.0
O205 O 0.03864 0.05021 0.54127 0.0
O206 O 0.95708 0.03361 0.58834 0.0
O207 O 0.98044 0.0485 0.47973 0.0
O208 O 0.98765 0.99505 0.46825 0.0
O209 O 0.97924 0.08175 0.57756 0.0
O210 O 0.96347 0.99614 0.5522 0.0
O211 O 0.97722 0.96616 0.50658 0.0
C212 C 0.03499 0.99252 0.59139 0.0
C213 C 0.07561 0.91781 0.45599 0.0
C214 C 0.11017 0.8956 0.41541 0.0
C215 C 0.12283 0.87103 0.44734 0.0
C216 C 0.08864 0.89319 0.4874 0.0
C217 C 0.11227 0.87005 0.48306 0.0
C218 C 0.08673 0.91916 0.42033 0.0
C219 C 0.05227 0.0488 0.51038 0.0
C220 C 0.04971 0.94181 0.45904 0.0
C221 C 0.10788 0.88895 0.62956 0.0
C222 C 0.13233 0.91324 0.62393 0.0
C223 C 0.97777 0.02622 0.45673 0.0
C224 C 0.97582 0.05949 0.64214 0.0
C225 C 0.96466 0.06216 0.70695 0.0
C226 C 0.99928 0.0572 0.72131 0.0
C227 C 0.01028 0.05531 0.65679 0.0
C228 C 0.95311 0.06278 0.66722 0.0
C229 C 0.02188 0.05383 0.69629 0.0
C230 C 0.95881 0.97133 0.53254 0.0
C231 C 0.96328 0.06168 0.60059 0.0
H232 H 0.14035 0.85205 0.44462 0.0
H233 H 0.0803 0.8915 0.51504 0.0
H234 H 0.12205 0.85094 0.50732 0.0
H235 H 0.07691 0.9386 0.3964 0.0
H236 H 0.00906 0.05701 0.75164 0.0
H237 H 0.0282 0.05382 0.6376 0.0
H238 H 0.9265 0.06619 0.65567 0.0
H239 H 0.04854 0.05076 0.70739 0.0
Tb240 Tb 0.47288 0.48911 0.99144 0.0
C241 C 0.61204 0.54443 0.03613 0.0
N242 N 0.59781 0.51745 0.05495 0.0
C243 C 0.648 0.48533 0.05795 0.0
C244 C 0.64409 0.54247 0.02554 0.0
C245 C 0.61644 0.48887 0.06851 0.0
C246 C 0.66158 0.51204 0.03556 0.0
C247 C 0.61035 0.604 0.014 0.0
C248 C 0.59554 0.57471 0.03037 0.0
C249 C 0.64138 0.60198 1.00129 0.0
C250 C 0.65817 0.57123 0.00691 0.0
Tb251 Tb 0.54446 0.52571 0.06692 0.0
N252 N 0.56517 0.57547 0.042 0.0
C253 C 0.59374 0.63437 0.01158 0.0
C254 C 0.54958 0.60505 0.04156 0.0
C255 C 0.56345 0.63492 0.02594 0.0
H256 H 0.60732 0.46883 0.08796 0.0
H257 H 0.55072 0.65831 0.02483 0.0
H258 H 0.40477 0.52862 1.00132 0.0
H259 H 0.50358 0.35752 0.01507 0.0
H260 H 0.5262 0.60544 0.05267 0.0
H261 H 0.60431 0.6575 0.99928 0.0
H262 H 0.50815 0.41621 0.98628 0.0
H263 H 0.66209 0.46221 0.06771 0.0
H264 H 0.65294 0.62412 0.98793 0.0
H265 H 0.68255 0.57015 0.99801 0.0
H266 H 0.35375 0.51545 0.03114 0.0
H267 H 0.68624 0.50942 0.02791 0.0
H268 H 0.45841 0.34003 0.05346 0.0
N269 N 0.42426 0.47917 0.01646 0.0
C270 C 0.41882 0.44719 0.03195 0.0
C271 C 0.37197 0.49605 0.03177 0.0
C272 C 0.39031 0.43852 0.04953 0.0
C273 C 0.4009 0.50348 0.01506 0.0
C274 C 0.36682 0.46349 0.04947 0.0
N275 N 0.46906 0.43297 0.01246 0.0
C276 C 0.48969 0.40945 0.00492 0.0
C277 C 0.43789 0.38984 0.04631 0.0
C278 C 0.44243 0.42339 0.0306 0.0
C279 C 0.46095 0.36608 0.04182 0.0
C280 C 0.48656 0.37587 0.02034 0.0
H281 H 0.34457 0.45787 0.06273 0.0
H282 H 0.3647 0.39817 0.08052 0.0
H283 H 0.40635 0.35546 0.07763 0.0
O284 O 0.45632 0.46485 0.94424 0.0
O285 O 0.46673 0.49112 0.05145 0.0
O286 O 0.51928 0.47959 0.08619 0.0
O287 O 0.44458 0.51643 0.94081 0.0
O288 O 0.52492 0.4706 0.99822 0.0
O289 O 0.54841 0.47299 0.06167 0.0
O290 O 0.52994 0.54379 0.11388 0.0
O291 O 0.53307 0.55061 0.00599 0.0
O292 O 0.51961 0.50784 0.97247 0.0
O293 O 0.58092 0.52843 0.11601 0.0
O294 O 0.49391 0.54851 0.05645 0.0
O295 O 0.46712 0.54188 0.99463 0.0
C296 C 0.48652 0.47691 0.0829 0.0
C297 C 0.40786 0.48576 0.90052 0.0
C298 C 0.3756 0.46867 0.84268 0.0
C299 C 0.34568 0.4754 0.85575 0.0
C300 C 0.37776 0.49248 0.9129 0.0
C301 C 0.34684 0.4872 0.89061 0.0
C302 C 0.40664 0.47388 0.86548 0.0
C303 C 0.54674 0.4601 0.02986 0.0
C304 C 0.44101 0.49102 0.923 0.0
C305 C 0.38628 0.40535 0.06653 0.0
C306 C 0.41006 0.38105 0.06498 0.0
C307 C 0.53264 0.53714 0.97493 0.0
C308 C 0.55993 0.5203 0.1748 0.0
C309 C 0.56717 0.52054 0.2444 0.0
C310 C 0.56086 0.48622 0.25056 0.0
C311 C 0.5543 0.48603 0.18161 0.0
C312 C 0.5663 0.53745 0.20615 0.0
C313 C 0.55449 0.46916 0.21932 0.0
C314 C 0.47127 0.55736 0.02486 0.0
C315 C 0.55943 0.53844 0.13522 0.0
H316 H 0.32136 0.47123 0.83923 0.0
H317 H 0.37806 0.50192 0.93952 0.0
H318 H 0.32366 0.49231 0.90037 0.0
H319 H 0.42998 0.46921 0.85569 0.0
H320 H 0.56167 0.47237 0.27959 0.0
H321 H 0.55007 0.47233 0.15785 0.0
H322 H 0.57053 0.56398 0.20069 0.0
H323 H 0.5501 0.4427 0.2244 0.0
C324 C 0.20841 0.16509 0.46634 0.0
C325 C 0.19774 0.19842 0.45509 0.0
C326 C 0.18525 0.13962 0.47336 0.0
C327 C 0.1506 0.14766 0.46928 0.0
C328 C 0.13954 0.18109 0.45689 0.0
C329 C 0.16319 0.206 0.44977 0.0
C330 C 0.19799 0.10423 0.48634 0.0
C331 C 0.10282 0.1907 0.45229 0.0
C332 C 0.0847 0.0804 0.46189 0.0
C333 C 0.07787 0.07356 0.49989 0.0
C334 C 0.10868 0.10411 0.45156 0.0
C335 C 0.12609 0.12144 0.4799 0.0
C336 C 0.11962 0.11422 0.51844 0.0
C337 C 0.09584 0.09014 0.52802 0.0
C338 C 0.11514 0.11087 0.41028 0.0
C339 C 0.13753 0.13219 0.54951 0.0
H340 H 0.23503 0.15896 0.47097 0.0
H341 H 0.1546 0.23158 0.44041 0.0
H342 H 0.19373 0.09519 0.51643 0.0
H343 H 0.18386 0.08778 0.46774 0.0
H344 H 0.22528 0.10177 0.48542 0.0
H345 H 0.09812 0.21758 0.44085 0.0
H346 H 0.08729 0.17618 0.43241 0.0
H347 H 0.09414 0.1847 0.48073 0.0
H348 H 0.07103 0.06745 0.44009 0.0
H349 H 0.09134 0.08429 0.55768 0.0
H350 H 0.14229 0.10725 0.40967 0.0
H351 H 0.10854 0.13709 0.3972 0.0
H352 H 0.10037 0.09446 0.39206 0.0
H353 H 0.16515 0.12855 0.55256 0.0
H354 H 0.12977 0.12348 0.57813 0.0
H355 H 0.13219 0.15926 0.54113 0.0
C356 C 0.32377 0.68456 0.02665 0.0
C357 C 0.33402 0.71773 0.02199 0.0
C358 C 0.34644 0.65868 0.02715 0.0
C359 C 0.3801 0.66622 0.02252 0.0
C360 C 0.39062 0.69967 0.01783 0.0
C361 C 0.36746 0.72505 0.01784 0.0
C362 C 0.33441 0.62328 0.03272 0.0
C363 C 0.42623 0.70865 0.01247 0.0
C364 C 0.44594 0.59749 0.05823 0.0
C365 C 0.4486 0.5858 0.02392 0.0
C366 C 0.42391 0.62378 0.05813 0.0
C367 C 0.40429 0.639 0.02282 0.0
C368 C 0.40717 0.62767 0.98799 0.0
C369 C 0.42918 0.60108 0.98898 0.0
C370 C 0.42124 0.63493 0.09593 0.0
C371 C 0.38684 0.64348 0.94973 0.0
H372 H 0.29801 0.67882 0.03031 0.0
H373 H 0.37534 0.75072 0.01384 0.0
H374 H 0.33771 0.61172 0.00749 0.0
H375 H 0.34976 0.60844 0.05872 0.0
H376 H 0.3075 0.62162 0.03622 0.0
H377 H 0.43036 0.73586 0.00902 0.0
H378 H 0.44425 0.69616 0.03776 0.0
H379 H 0.43216 0.69973 0.98651 0.0
H380 H 0.46069 0.58573 0.08542 0.0
H381 H 0.4312 0.59233 0.96231 0.0
H382 H 0.3951 0.63174 0.1019 0.0
H383 H 0.427 0.66173 0.09394 0.0
H384 H 0.43861 0.62079 0.12079 0.0
H385 H 0.35957 0.64044 0.95078 0.0
H386 H 0.39284 0.63249 0.92509 0.0
H387 H 0.39161 0.67055 0.94413 0.0
C388 C 0.84529 0.81624 0.59313 0.0
C389 C 0.81066 0.8236 0.58455 0.0
C390 C 0.86908 0.8409 0.58549 0.0
C391 C 0.85797 0.87366 0.56852 0.0
C392 C 0.82305 0.88135 0.56022 0.0
C393 C 0.79982 0.85626 0.56851 0.0
C394 C 0.90611 0.83181 0.59525 0.0
C395 C 0.81023 0.91591 0.54181 0.0
C396 C 0.92052 0.94365 0.57671 0.0
C397 C 0.932 0.94736 0.54102 0.0
C398 C 0.89632 0.91989 0.58599 0.0
C399 C 0.88292 0.89967 0.55871 0.0
C400 C 0.89392 0.90377 0.52233 0.0
C401 C 0.91848 0.92742 0.51401 0.0
C402 C 0.88557 0.916 0.62527 0.0
C403 C 0.87998 0.88295 0.4923 0.0
H404 H 0.8538 0.79112 0.60594 0.0
H405 H 0.77308 0.86199 0.56145 0.0
H406 H 0.9175 0.83592 0.56846 0.0
H407 H 0.91938 0.84804 0.61473 0.0
H408 H 0.91063 0.8055 0.60954 0.0
H409 H 0.78235 0.91801 0.53795 0.0
H410 H 0.82132 0.93418 0.55988 0.0
H411 H 0.81817 0.92286 0.51306 0.0
H412 H 0.93107 0.95878 0.59786 0.0
H413 H 0.92709 0.93032 0.48629 0.0
H414 H 0.89184 0.8905 0.64139 0.0
H415 H 0.85789 0.91936 0.62188 0.0
H416 H 0.89794 0.93408 0.64292 0.0
H417 H 0.8861 0.85634 0.50378 0.0
H418 H 0.89021 0.89009 0.46488 0.0
H419 H 0.85213 0.8855 0.48575 0.0
C420 C 0.68827 0.32483 0.02839 0.0
C421 C 0.67342 0.29431 0.02339 0.0
C422 C 0.66853 0.35242 0.03005 0.0
C423 C 0.63313 0.34942 0.02625 0.0
C424 C 0.61798 0.31875 0.02085 0.0
C425 C 0.63835 0.2915 0.01966 0.0
C426 C 0.68554 0.38469 0.03621 0.0
C427 C 0.58025 0.31476 0.01626 0.0
C428 C 0.58208 0.41054 0.06363 0.0
C429 C 0.56972 0.43241 0.02942 0.0
C430 C 0.60323 0.38368 0.06316 0.0
C431 C 0.61182 0.37845 0.02754 0.0
C432 C 0.59951 0.40059 0.99294 0.0
C433 C 0.57869 0.42739 0.99434 0.0
C434 C 0.61607 0.36069 0.10067 0.0
C435 C 0.60798 0.39574 0.95438 0.0
H436 H 0.71542 0.32694 0.0318 0.0
H437 H 0.62681 0.268 0.01545 0.0
H438 H 0.676 0.40477 0.01171 0.0
H439 H 0.67942 0.39214 0.06291 0.0
H440 H 0.71335 0.38287 0.03881 0.0
H441 H 0.57244 0.28929 0.01208 0.0
H442 H 0.57097 0.32034 0.04222 0.0
H443 H 0.56776 0.33274 0.991 0.0
H444 H 0.57487 0.41422 0.09072 0.0
H445 H 0.56927 0.44439 0.96785 0.0
H446 H 0.64398 0.35922 0.10538 0.0
H447 H 0.60667 0.33524 0.0991 0.0
H448 H 0.60807 0.36895 0.12605 0.0
H449 H 0.63568 0.39563 0.9556 0.0
H450 H 0.59667 0.41545 0.93025 0.0
H451 H 0.59879 0.37129 0.94782 0.0
C452 C 0.14982 0.85279 0.21789 0.0
C453 C 0.16542 0.87799 0.1951 0.0
C454 C 0.14129 0.85728 0.25339 0.0
C455 C 0.14767 0.88804 0.26616 0.0
C456 C 0.16259 0.91393 0.24298 0.0
C457 C 0.1716 0.9085 0.20793 0.0
C458 C 0.12571 0.82891 0.27743 0.0
C459 C 0.1692 0.9473 0.2553 0.0
C460 C 0.09712 0.90427 0.34254 0.0
C461 C 0.1205 0.89591 0.37685 0.0
C462 C 0.10605 0.9032 0.3062 0.0
C463 C 0.13893 0.89275 0.30402 0.0
C464 C 0.16284 0.88484 0.33834 0.0
C465 C 0.15346 0.88685 0.37425 0.0
C466 C 0.07999 0.9124 0.27019 0.0
C467 C 0.19807 0.87324 0.33727 0.0
H468 H 0.1441 0.82942 0.20795 0.0
H469 H 0.18397 0.92804 0.19092 0.0
H470 H 0.14141 0.82247 0.30651 0.0
H471 H 0.10046 0.83646 0.28179 0.0
H472 H 0.12304 0.80632 0.26376 0.0
H473 H 0.17946 0.96535 0.23313 0.0
H474 H 0.14556 0.95781 0.26085 0.0
H475 H 0.18737 0.94434 0.28279 0.0
H476 H 0.07145 0.91082 0.34403 0.0
H477 H 0.17198 0.88103 0.40036 0.0
H478 H 0.07323 0.89004 0.25693 0.0
H479 H 0.09034 0.93072 0.2484 0.0
H480 H 0.05667 0.92306 0.27645 0.0
H481 H 0.19696 0.84968 0.32559 0.0
H482 H 0.214 0.86905 0.3664 0.0
H483 H 0.2104 0.89179 0.31762 0.0
C484 C 0.58822 0.63586 0.78072 0.0
C485 C 0.6233 0.63575 0.78337 0.0
C486 C 0.57296 0.62087 0.81205 0.0
C487 C 0.59336 0.60611 0.84713 0.0
C488 C 0.62888 0.60699 0.85035 0.0
C489 C 0.64344 0.62141 0.8182 0.0
C490 C 0.53502 0.62003 0.8073 0.0
C491 C 0.65145 0.59237 0.88762 0.0
C492 C 0.55283 0.5893 0.93788 0.0
C493 C 0.54763 0.55499 0.94197 0.0
C494 C 0.56811 0.60625 0.90752 0.0
C495 C 0.5775 0.58858 0.87986 0.0
C496 C 0.57144 0.55406 0.88321 0.0
C497 C 0.5568 0.53765 0.91436 0.0
C498 C 0.5747 0.64291 0.90551 0.0
C499 C 0.58039 0.53444 0.85385 0.0
H500 H 0.5727 0.64674 0.75363 0.0
H501 H 0.6706 0.62152 0.82022 0.0
H502 H 0.52659 0.59388 0.81125 0.0
H503 H 0.52617 0.63177 0.82986 0.0
H504 H 0.52278 0.63305 0.77836 0.0
H505 H 0.67853 0.59648 0.88599 0.0
H506 H 0.6451 0.60355 0.91193 0.0
H507 H 0.64731 0.56526 0.89459 0.0
H508 H 0.54479 0.60299 0.95834 0.0
H509 H 0.55273 0.51112 0.91718 0.0
H510 H 0.56564 0.65674 0.87594 0.0
H511 H 0.60224 0.64676 0.91207 0.0
H512 H 0.56242 0.65371 0.92646 0.0
H513 H 0.56758 0.54553 0.82438 0.0
H514 H 0.57317 0.50796 0.86001 0.0
H515 H 0.60789 0.53551 0.85357 0.0
C516 C 0.90318 0.08752 0.23297 0.0
C517 C 0.86796 0.08455 0.22576 0.0
C518 C 0.92181 0.0769 0.26993 0.0
C519 C 0.90478 0.06445 0.30104 0.0
C520 C 0.86932 0.06188 0.29443 0.0
C521 C 0.85142 0.07123 0.25676 0.0
C522 C 0.95972 0.07941 0.27578 0.0
C523 C 0.85026 0.04967 0.32726 0.0
C524 C 0.95214 0.01229 0.39235 0.0
C525 C 0.96017 0.03614 0.41638 0.0
C526 C 0.93462 0.02127 0.35447 0.0
C527 C 0.92412 0.0547 0.34068 0.0
C528 C 0.93245 0.07893 0.36457 0.0
C529 C 0.95103 0.06946 0.40176 0.0
C530 C 0.92747 0.99502 0.32916 0.0
C531 C 0.92102 0.11473 0.35136 0.0
H532 H 0.91644 0.09863 0.20991 0.0
H533 H 0.82441 0.06805 0.25178 0.0
H534 H 0.96804 0.09769 0.29499 0.0
H535 H 0.9715 0.0551 0.29022 0.0
H536 H 0.96928 0.08717 0.24803 0.0
H537 H 0.82257 0.05039 0.31755 0.0
H538 H 0.85811 0.02379 0.34057 0.0
H539 H 0.8563 0.06515 0.35022 0.0
H540 H 0.95948 0.98652 0.40308 0.0
H541 H 0.95828 0.0883 0.41934 0.0
H542 H 0.93753 0.00275 0.30176 0.0
H543 H 0.89991 0.99214 0.32132 0.0
H544 H 0.93876 0.97048 0.34364 0.0
H545 H 0.92655 0.12432 0.32194 0.0
H546 H 0.93315 0.13114 0.37136 0.0
H547 H 0.89333 0.11637 0.3499 0.0
C548 C 0.38117 0.4195 0.63343 0.0
C549 C 0.35814 0.39414 0.62724 0.0
C550 C 0.38614 0.4318 0.66855 0.0
C551 C 0.36774 0.41831 0.6982 0.0
C552 C 0.34513 0.39213 0.69245 0.0
C553 C 0.34062 0.38039 0.65711 0.0
C554 C 0.4105 0.45971 0.67359 0.0
C555 C 0.32522 0.37687 0.7234 0.0
C556 C 0.39637 0.43094 0.80228 0.0
C557 C 0.37441 0.45641 0.80532 0.0
C558 C 0.39499 0.41874 0.7674 0.0
C559 C 0.37105 0.43228 0.73474 0.0
C560 C 0.34917 0.45831 0.73745 0.0
C561 C 0.35112 0.47004 0.77265 0.0
C562 C 0.41869 0.39092 0.76572 0.0
C563 C 0.32335 0.47348 0.70328 0.0
H564 H 0.39465 0.43036 0.61041 0.0
H565 H 0.32326 0.36035 0.65283 0.0
H566 H 0.39671 0.48205 0.67702 0.0
H567 H 0.42928 0.45265 0.7003 0.0
H568 H 0.42404 0.46638 0.64857 0.0
H569 H 0.30957 0.3559 0.71491 0.0
H570 H 0.34248 0.36767 0.75082 0.0
H571 H 0.30843 0.39598 0.72938 0.0
H572 H 0.41421 0.42002 0.82746 0.0
H573 H 0.33445 0.49008 0.77453 0.0
H574 H 0.43291 0.3981 0.74141 0.0
H575 H 0.40407 0.36855 0.76015 0.0
H576 H 0.43693 0.38422 0.79303 0.0
H577 H 0.33587 0.48288 0.67803 0.0
H578 H 0.30898 0.49428 0.70973 0.0
H579 H 0.30532 0.45427 0.6947 0.0
C580 C 0.64124 0.58556 0.43981 0.0
C581 C 0.62702 0.61588 0.44315 0.0
C582 C 0.63049 0.57025 0.40752 0.0
C583 C 0.60499 0.58568 0.37767 0.0
C584 C 0.59038 0.61618 0.38089 0.0
C585 C 0.60151 0.63087 0.41361 0.0
C586 C 0.64669 0.53772 0.40517 0.0
C587 C 0.56316 0.63341 0.34964 0.0
C588 C 0.60165 0.56163 0.27845 0.0
C589 C 0.57571 0.53835 0.27785 0.0
C590 C 0.611 0.57765 0.31044 0.0
C591 C 0.59412 0.57013 0.34276 0.0
C592 C 0.56759 0.54704 0.34215 0.0
C593 C 0.55866 0.53148 0.30969 0.0
C594 C 0.63938 0.60218 0.30994 0.0
C595 C 0.54896 0.53841 0.37604 0.0
H596 H 0.66129 0.57403 0.46217 0.0
H597 H 0.59004 0.65404 0.41618 0.0
H598 H 0.62718 0.51854 0.40177 0.0
H599 H 0.65932 0.54071 0.3793 0.0
H600 H 0.66558 0.52854 0.43127 0.0
H601 H 0.55415 0.65685 0.35669 0.0
H602 H 0.57275 0.63922 0.32173 0.0
H603 H 0.54142 0.61672 0.3453 0.0
H604 H 0.61528 0.56676 0.25425 0.0
H605 H 0.53827 0.51389 0.30923 0.0
H606 H 0.66048 0.59303 0.33355 0.0
H607 H 0.63079 0.62639 0.31529 0.0
H608 H 0.64901 0.60629 0.28196 0.0
H609 H 0.56673 0.5273 0.4023 0.0
H610 H 0.52834 0.52062 0.3706 0.0
H611 H 0.53808 0.56124 0.38242 0.0
C612 C 0.87971 0.12929 0.86308 0.0
C613 C 0.84918 0.1149 0.8707 0.0
C614 C 0.89609 0.12006 0.83458 0.0
C615 C 0.88147 0.096 0.81291 0.0
C616 C 0.85005 0.08221 0.81944 0.0
C617 C 0.83424 0.09183 0.84835 0.0
C618 C 0.92948 0.13551 0.82833 0.0
C619 C 0.83363 0.05666 0.79667 0.0
C620 C 0.91649 0.0939 0.72061 0.0
C621 C 0.94102 0.06854 0.73295 0.0
C622 C 0.89579 0.10212 0.74583 0.0
C623 C 0.89987 0.08471 0.78437 0.0
C624 C 0.92372 0.05828 0.7966 0.0
C625 C 0.94398 0.05049 0.77072 0.0
C626 C 0.87059 0.13039 0.7317 0.0
C627 C 0.92875 0.03909 0.8375 0.0
H628 H 0.89104 0.14759 0.8798 0.0
H629 H 0.81075 0.08049 0.8543 0.0
H630 H 0.94945 0.11595 0.83485 0.0
H631 H 0.92828 0.14731 0.79757 0.0
H632 H 0.93694 0.15454 0.84688 0.0
H633 H 0.8082 0.04996 0.80349 0.0
H634 H 0.83139 0.0661 0.76513 0.0
H635 H 0.84958 0.0338 0.8032 0.0
H636 H 0.9143 0.10824 0.69162 0.0
H637 H 0.9625 0.03051 0.78022 0.0
H638 H 0.87859 0.15159 0.74664 0.0
H639 H 0.8455 0.12273 0.73877 0.0
H640 H 0.86808 0.1391 0.69994 0.0
H641 H 0.93873 0.05581 0.85809 0.0
H642 H 0.94656 0.01776 0.8416 0.0
H643 H 0.90434 0.02963 0.84512 0.0
C644 C 0.42335 0.41456 0.28413 0.0
C645 C 0.40132 0.38769 0.28304 0.0
C646 C 0.4376 0.42842 0.25152 0.0
C647 C 0.42974 0.41507 0.21692 0.0
C648 C 0.40791 0.38768 0.21574 0.0
C649 C 0.39389 0.3744 0.24874 0.0
C650 C 0.46076 0.45764 0.25394 0.0
C651 C 0.39903 0.37265 0.17946 0.0
C652 C 0.44039 0.47116 0.12257 0.0
C653 C 0.47173 0.46054 0.11661 0.0
C654 C 0.42621 0.45627 0.15477 0.0
C655 C 0.44392 0.43021 0.1818 0.0
C656 C 0.47547 0.41915 0.17564 0.0
C657 C 0.48898 0.43445 0.14307 0.0
C658 C 0.39249 0.46877 0.16011 0.0
C659 C 0.49495 0.39118 0.20347 0.0
H660 H 0.42893 0.42526 0.3103 0.0
H661 H 0.37724 0.3534 0.24776 0.0
H662 H 0.48566 0.45152 0.24724 0.0
H663 H 0.45025 0.47929 0.23203 0.0
H664 H 0.46455 0.46498 0.28302 0.0
H665 H 0.38377 0.34991 0.18411 0.0
H666 H 0.38452 0.39103 0.15614 0.0
H667 H 0.42223 0.36631 0.16901 0.0
H668 H 0.42716 0.49157 0.10236 0.0
H669 H 0.51303 0.42589 0.13819 0.0
H670 H 0.39504 0.47817 0.18794 0.0
H671 H 0.37433 0.44812 0.16154 0.0
H672 H 0.38184 0.489 0.13622 0.0
H673 H 0.50026 0.39758 0.23297 0.0
H674 H 0.51921 0.38567 0.19466 0.0
H675 H 0.47966 0.36835 0.20528 0.0
C676 C 0.09728 0.94013 0.8197 0.0
C677 C 0.12595 0.91949 0.82699 0.0
C678 C 0.08232 0.95321 0.78155 0.0
C679 C 0.0968 0.94592 0.75012 0.0
C680 C 0.12636 0.92593 0.75748 0.0
C681 C 0.14039 0.91274 0.79579 0.0
C682 C 0.05089 0.97456 0.77486 0.0
C683 C 0.14272 0.91762 0.72494 0.0
C684 C 0.04183 0.95018 0.65167 0.0
C685 C 0.05057 0.98095 0.63201 0.0
C686 C 0.05656 0.93856 0.69018 0.0
C687 C 0.08054 0.9583 0.70949 0.0
C688 C 0.08954 0.98939 0.68966 0.0
C689 C 0.07451 1.0003 0.65104 0.0
C690 C 0.0465 0.90514 0.71015 0.0
C691 C 0.11549 0.01083 0.70901 0.0
H692 H 0.08607 0.94531 0.84382 0.0
H693 H 0.16281 0.8971 0.8014 0.0
H694 H 0.05641 1.0002 0.76155 0.0
H695 H 0.03078 0.96504 0.75438 0.0
H696 H 0.04122 0.97561 0.80218 0.0
H697 H 0.16836 0.90667 0.73548 0.0
H698 H 0.12706 0.89935 0.71059 0.0
H699 H 0.14448 0.94003 0.70279 0.0
H700 H 0.02326 0.9352 0.63696 0.0
H701 H 0.08175 0.02384 0.63557 0.0
H702 H 0.03699 0.90786 0.73707 0.0
H703 H 0.06879 0.88822 0.71864 0.0
H704 H 0.02676 0.89334 0.69139 0.0
H705 H 0.10825 0.01579 0.73632 0.0
H706 H 0.11861 0.03495 0.69013 0.0
H707 H 0.14016 0.99751 0.71673 0.0
loop_
_geom_bond_atom_site_label_1
_geom_bond_atom_site_label_2
_geom_bond_distance
_geom_bond_site_symmetry_2
_ccdc_geom_bond_type
C0 C1 1.386 . S
C0 C2 1.397 . S
C0 H24 0.931 . S
C1 C0 1.386 . S
C1 C5 1.397 . S
C2 C0 1.397 . S
C2 C3 1.384 . S
C2 H25 0.930 . S
C3 C2 1.384 . S
C3 C4 1.377 . S
C3 C6 1.481 . S
C4 C3 1.377 . S
C4 C5 1.389 . S
C4 H26 0.929 . S
C5 C1 1.397 . S
C5 C4 1.389 . S
C5 H27 0.931 . S
C6 C3 1.481 . S
C6 C7 1.387 . S
C6 C11 1.390 1_556 S
C7 C6 1.387 . S
C7 C8 1.401 1_556 S
C7 H28 0.930 . S
C8 C7 1.401 1_554 S
C8 C9 1.376 . S
C8 C17 1.511 . S
C9 C8 1.376 . S
C9 C10 1.392 . S
C9 H30 0.931 . S
C10 C9 1.392 . S
C10 C11 1.361 . S
C10 C12 1.500 . S
C11 C6 1.390 1_554 S
C11 C10 1.361 . S
C11 H29 0.931 . S
C12 C10 1.500 . S
C12 C13 1.371 . S
C12 C14 1.365 . S
C13 C12 1.371 . S
C13 C23 1.386 . S
C13 H31 0.931 . S
C14 C12 1.365 . S
C14 C15 1.409 . S
C14 H32 0.929 . S
C15 C14 1.409 . S
C15 C16 1.380 . S
C15 H33 0.930 . S
C16 C15 1.380 . S
C16 C23 1.357 . S
C17 C8 1.511 . S
C17 C18 1.340 1_554 S
C17 C19 1.371 . S
C18 C17 1.340 1_556 S
C18 C22 1.394 1_556 S
C18 H34 0.931 . S
C19 C17 1.371 . S
C19 C20 1.392 . S
C19 H35 0.931 . S
C20 C19 1.392 . S
C20 C21 1.331 . S
C20 H38 0.932 . S
C21 C20 1.331 . S
C21 C22 1.336 . S
C22 C18 1.394 1_554 S
C22 C21 1.336 . S
C22 H37 0.929 1_554 S
C23 C13 1.386 . S
C23 C16 1.357 . S
C23 H36 0.928 . S
H24 C0 0.931 . S
H25 C2 0.930 . S
H26 C4 0.929 . S
H27 C5 0.931 . S
H28 C7 0.930 . S
H29 C11 0.931 . S
H30 C9 0.931 . S
H31 C13 0.931 . S
H32 C14 0.929 . S
H33 C15 0.930 . S
H34 C18 0.931 . S
H35 C19 0.931 . S
H36 C23 0.928 . S
H37 C22 0.929 1_556 S
H38 C20 0.932 . S
C39 C40 1.386 . S
C39 C41 1.397 . S
C39 H63 0.931 . S
C40 C39 1.386 . S
C40 C44 1.397 . S
C41 C39 1.397 . S
C41 C42 1.384 . S
C41 H64 0.930 . S
C42 C41 1.384 . S
C42 C43 1.377 . S
C42 C45 1.481 . S
C43 C42 1.377 . S
C43 C44 1.389 . S
C43 H65 0.929 . S
C44 C40 1.397 . S
C44 C43 1.389 . S
C44 H66 0.931 . S
C45 C42 1.481 . S
C45 C46 1.387 . S
C45 C50 1.390 . S
C46 C45 1.387 . S
C46 C47 1.401 . S
C46 H67 0.930 . S
C47 C46 1.401 . S
C47 C48 1.376 . S
C47 C56 1.511 . S
C48 C47 1.376 . S
C48 C49 1.392 . S
C48 H69 0.931 . S
C49 C48 1.392 . S
C49 C50 1.361 . S
C49 C51 1.500 . S
C50 C45 1.390 . S
C50 C49 1.361 . S
C50 H68 0.931 . S
C51 C49 1.500 . S
C51 C52 1.371 . S
C51 C53 1.365 . S
C52 C51 1.371 . S
C52 C62 1.386 . S
C52 H70 0.931 . S
C53 C51 1.365 . S
C53 C54 1.409 . S
C53 H71 0.929 . S
C54 C53 1.409 . S
C54 C55 1.380 . S
C54 H72 0.930 . S
C55 C54 1.380 . S
C55 C62 1.357 . S
C56 C47 1.511 . S
C56 C57 1.341 . S
C56 C58 1.371 . S
C57 C56 1.341 . S
C57 C61 1.394 . S
C57 H73 0.930 . S
C58 C56 1.371 . S
C58 C59 1.392 . S
C58 H74 0.931 . S
C59 C58 1.392 . S
C59 C60 1.331 . S
C59 H77 0.932 . S
C60 C59 1.331 . S
C60 C61 1.336 . S
C61 C57 1.394 . S
C61 C60 1.336 . S
C61 H76 0.929 . S
C62 C52 1.386 . S
C62 C55 1.357 . S
C62 H75 0.928 . S
H63 C39 0.931 . S
H64 C41 0.930 . S
H65 C43 0.929 . S
H66 C44 0.931 . S
H67 C46 0.930 . S
H68 C50 0.931 . S
H69 C48 0.931 . S
H70 C52 0.931 . S
H71 C53 0.929 . S
H72 C54 0.930 . S
H73 C57 0.930 . S
H74 C58 0.931 . S
H75 C62 0.928 . S
H76 C61 0.929 . S
H77 C59 0.932 . S
C78 C79 1.386 . S
C78 C80 1.397 . S
C78 H102 0.931 . S
C79 C78 1.386 . S
C79 C83 1.397 . S
C80 C78 1.397 . S
C80 C81 1.384 . S
C80 H103 0.930 . S
C81 C80 1.384 . S
C81 C82 1.377 . S
C81 C84 1.481 . S
C82 C81 1.377 . S
C82 C83 1.389 . S
C82 H104 0.929 . S
C83 C79 1.397 . S
C83 C82 1.389 . S
C83 H105 0.931 . S
C84 C81 1.481 . S
C84 C85 1.387 . S
C84 C89 1.390 . S
C85 C84 1.387 . S
C85 C86 1.401 . S
C85 H106 0.930 . S
C86 C85 1.401 . S
C86 C87 1.376 . S
C86 C95 1.511 . S
C87 C86 1.376 . S
C87 C88 1.392 . S
C87 H108 0.931 1_554 S
C88 C87 1.392 . S
C88 C89 1.361 . S
C88 C90 1.500 1_554 S
C89 C84 1.390 . S
C89 C88 1.361 . S
C89 H107 0.931 . S
C90 C88 1.500 1_556 S
C90 C91 1.371 . S
C90 C92 1.365 . S
C91 C90 1.371 . S
C91 C101 1.386 . S
C91 H109 0.931 . S
C92 C90 1.365 . S
C92 C93 1.409 . S
C92 H110 0.929 . S
C93 C92 1.409 . S
C93 C94 1.380 . S
C93 H111 0.930 . S
C94 C93 1.380 . S
C94 C101 1.357 . S
C95 C86 1.511 . S
C95 C96 1.341 . S
C95 C97 1.371 1_554 S
C96 C95 1.341 . S
C96 C100 1.394 . S
C96 H112 0.930 . S
C97 C95 1.371 1_556 S
C97 C98 1.392 . S
C97 H113 0.931 . S
C98 C97 1.392 . S
C98 C99 1.331 1_556 S
C98 H116 0.932 . S
C99 C98 1.331 1_554 S
C99 C100 1.336 . S
C100 C96 1.394 . S
C100 C99 1.336 . S
C100 H115 0.929 . S
C101 C91 1.386 . S
C101 C94 1.357 . S
C101 H114 0.928 . S
H102 C78 0.931 . S
H103 C80 0.930 . S
H104 C82 0.929 . S
H105 C83 0.931 . S
H106 C85 0.930 . S
H107 C89 0.931 . S
H108 C87 0.931 1_556 S
H109 C91 0.931 . S
H110 C92 0.929 . S
H111 C93 0.930 . S
H112 C96 0.930 . S
H113 C97 0.931 . S
H114 C101 0.928 . S
H115 C100 0.929 . S
H116 C98 0.932 . S
C117 C118 1.386 . S
C117 C119 1.397 . S
C117 H141 0.931 . S
C118 C117 1.386 . S
C118 C122 1.397 . S
C119 C117 1.397 . S
C119 C120 1.384 . S
C119 H142 0.930 . S
C120 C119 1.384 . S
C120 C121 1.377 . S
C120 C123 1.481 . S
C121 C120 1.377 . S
C121 C122 1.389 . S
C121 H143 0.929 . S
C122 C118 1.397 . S
C122 C121 1.389 . S
C122 H144 0.931 . S
C123 C120 1.481 . S
C123 C124 1.387 . S
C123 C128 1.390 . S
C124 C123 1.387 . S
C124 C125 1.401 . S
C124 H145 0.930 . S
C125 C124 1.401 . S
C125 C126 1.376 . S
C125 C134 1.511 . S
C126 C125 1.376 . S
C126 C127 1.392 . S
C126 H147 0.931 . S
C127 C126 1.392 . S
C127 C128 1.361 . S
C127 C129 1.500 . S
C128 C123 1.390 . S
C128 C127 1.361 . S
C128 H146 0.931 . S
C129 C127 1.500 . S
C129 C130 1.371 . S
C129 C131 1.365 . S
C130 C129 1.371 . S
C130 C140 1.386 . S
C130 H148 0.931 . S
C131 C129 1.365 . S
C131 C132 1.409 . S
C131 H149 0.929 . S
C132 C131 1.409 . S
C132 C133 1.380 . S
C132 H150 0.930 . S
C133 C132 1.380 . S
C133 C140 1.357 . S
C134 C125 1.511 . S
C134 C135 1.341 . S
C134 C136 1.371 . S
C135 C134 1.341 . S
C135 C139 1.394 . S
C135 H151 0.930 . S
C136 C134 1.371 . S
C136 C137 1.392 . S
C136 H152 0.931 . S
C137 C136 1.392 . S
C137 C138 1.331 . S
C137 H155 0.932 . S
C138 C137 1.331 . S
C138 C139 1.336 . S
C139 C135 1.394 . S
C139 C138 1.336 . S
C139 H154 0.929 . S
C140 C130 1.386 . S
C140 C133 1.357 . S
C140 H153 0.928 . S
H141 C117 0.931 . S
H142 C119 0.930 . S
H143 C121 0.929 . S
H144 C122 0.931 . S
H145 C124 0.930 . S
H146 C128 0.931 . S
H147 C126 0.931 . S
H148 C130 0.931 . S
H149 C131 0.929 . S
H150 C132 0.930 . S
H151 C135 0.930 . S
H152 C136 0.931 . S
H153 C140 0.928 . S
H154 C139 0.929 . S
H155 C137 0.932 . S
Tb156 N185 2.617 . S
Tb156 N191 2.572 . S
Tb156 O200 2.465 . S
Tb156 O201 2.387 . S
Tb156 O203 2.428 . S
Tb156 O204 2.308 1_565 S
Tb156 O208 2.349 1_455 S
Tb156 O211 2.393 1_455 S
Tb156 C220 2.802 . S
C157 N158 1.379 . S
C157 C160 1.416 . S
C157 C164 1.424 . S
N158 C157 1.379 . S
N158 C161 1.334 1_655 S
N158 Tb167 2.617 . S
C159 C161 1.390 1_655 S
C159 C162 1.339 . S
C159 H179 0.930 1_655 S
C160 C157 1.416 . S
C160 C162 1.416 . S
C160 C166 1.448 . S
C161 N158 1.334 1_455 S
C161 C159 1.390 1_455 S
C161 H172 0.930 . S
C162 C159 1.339 . S
C162 C160 1.416 . S
C162 H183 0.930 . S
C163 C164 1.413 . S
C163 C165 1.427 . S
C163 C169 1.416 . S
C164 C157 1.424 . S
C164 C163 1.413 . S
C164 N168 1.361 . S
C165 C163 1.427 . S
C165 C166 1.328 . S
C165 H180 0.929 . S
C166 C160 1.448 . S
C166 C165 1.328 . S
C166 H181 0.930 . S
Tb167 N158 2.617 . S
Tb167 N168 2.572 . S
Tb167 O202 2.349 1_655 S
Tb167 O205 2.393 1_655 S
Tb167 O206 2.465 . S
Tb167 O207 2.387 . S
Tb167 O209 2.428 . S
Tb167 O210 2.308 1_545 S
Tb167 C231 2.802 . S
N168 C164 1.361 . S
N168 Tb167 2.572 . S
N168 C170 1.340 . S
C169 C163 1.416 . S
C169 C171 1.332 . S
C169 H177 0.931 . S
C170 N168 1.340 . S
C170 C171 1.407 . S
C170 H176 0.930 . S
C171 C169 1.332 . S
C171 C170 1.407 . S
C171 H173 0.929 . S
H172 C161 0.930 . S
H173 C171 0.929 . S
H174 C189 0.930 1_655 S
H175 C196 0.929 . S
H176 C170 0.930 . S
H177 C169 0.931 . S
H178 C192 0.930 . S
H179 C159 0.930 1_455 S
H180 C165 0.929 . S
H181 C166 0.930 . S
H182 C187 0.930 1_655 S
H183 C162 0.930 . S
H184 C195 0.931 . S
N185 Tb156 2.617 . S
N185 C186 1.379 . S
N185 C189 1.334 . S
C186 N185 1.379 . S
C186 C188 1.416 . S
C186 C194 1.424 . S
C187 H182 0.930 1_455 S
C187 C189 1.390 . S
C187 C190 1.339 . S
C188 C186 1.416 . S
C188 C190 1.416 . S
C188 C221 1.448 . S
C189 H174 0.930 1_455 S
C189 N185 1.334 . S
C189 C187 1.390 . S
C190 C187 1.339 . S
C190 C188 1.416 . S
C190 H197 0.930 . S
N191 Tb156 2.572 . S
N191 C192 1.340 . S
N191 C194 1.361 . S
C192 H178 0.930 . S
C192 N191 1.340 . S
C192 C196 1.407 . S
C193 C194 1.413 . S
C193 C195 1.416 . S
C193 C222 1.427 . S
C194 C186 1.424 . S
C194 N191 1.361 . S
C194 C193 1.413 . S
C195 H184 0.931 . S
C195 C193 1.416 . S
C195 C196 1.332 . S
C196 H175 0.929 . S
C196 C192 1.407 . S
C196 C195 1.332 . S
H197 C190 0.930 . S
H198 C221 0.930 . S
H199 C222 0.929 . S
O200 Tb156 2.465 . S
O200 C220 1.264 . S
O201 Tb156 2.387 . S
O201 C212 1.264 . S
O202 Tb167 2.349 1_455 S
O202 C212 1.243 1_545 S
O203 Tb156 2.428 . S
O203 C220 1.256 . S
O204 Tb156 2.308 1_545 S
O204 C219 1.266 . S
O205 Tb167 2.393 1_455 S
O205 C219 1.248 . S
O206 Tb167 2.465 . S
O206 C231 1.264 . S
O207 Tb167 2.387 . S
O207 C223 1.264 . S
O208 Tb156 2.349 1_655 S
O208 C223 1.243 1_565 S
O209 Tb167 2.428 . S
O209 C231 1.256 . S
O210 Tb167 2.308 1_565 S
O210 C230 1.266 . S
O211 Tb156 2.393 1_655 S
O211 C230 1.248 . S
C212 O201 1.264 . S
C212 O202 1.243 1_565 S
C213 C216 1.399 . S
C213 C218 1.383 . S
C213 C220 1.496 . S
C214 C215 1.399 . S
C214 C218 1.389 . S
C215 C214 1.399 . S
C215 C217 1.380 . S
C215 H232 0.929 . S
C216 C213 1.399 . S
C216 C217 1.392 . S
C216 H233 0.929 . S
C217 C215 1.380 . S
C217 C216 1.392 . S
C217 H234 0.929 . S
C218 C213 1.383 . S
C218 C214 1.389 . S
C218 H235 0.931 . S
C219 O204 1.266 . S
C219 O205 1.248 . S
C220 Tb156 2.802 . S
C220 O200 1.264 . S
C220 O203 1.256 . S
C220 C213 1.496 . S
C221 C188 1.448 . S
C221 H198 0.930 . S
C221 C222 1.328 . S
C222 C193 1.427 . S
C222 H199 0.929 . S
C222 C221 1.328 . S
C223 O207 1.264 . S
C223 O208 1.243 1_545 S
C224 C227 1.399 . S
C224 C228 1.383 . S
C224 C231 1.496 . S
C225 C226 1.399 . S
C225 C228 1.389 . S
C226 C225 1.399 . S
C226 C229 1.380 . S
C226 H236 0.929 . S
C227 C224 1.399 . S
C227 C229 1.392 . S
C227 H237 0.929 . S
C228 C224 1.383 . S
C228 C225 1.389 . S
C228 H238 0.931 . S
C229 C226 1.380 . S
C229 C227 1.392 . S
C229 H239 0.929 . S
C230 O210 1.266 . S
C230 O211 1.248 . S
C231 Tb167 2.802 . S
C231 O206 1.264 . S
C231 O209 1.256 . S
C231 C224 1.496 . S
H232 C215 0.929 . S
H233 C216 0.929 . S
H234 C217 0.929 . S
H235 C218 0.931 . S
H236 C226 0.929 . S
H237 C227 0.929 . S
H238 C228 0.931 . S
H239 C229 0.929 . S
Tb240 N269 2.617 . S
Tb240 N275 2.572 1_556 S
Tb240 O284 2.465 . S
Tb240 O285 2.387 1_556 S
Tb240 O287 2.428 . S
Tb240 O288 2.308 1_556 S
Tb240 O292 2.349 . S
Tb240 O295 2.393 . S
Tb240 C304 2.802 . S
C241 N242 1.379 . S
C241 C244 1.416 . S
C241 C248 1.424 . S
N242 C241 1.379 . S
N242 C245 1.334 . S
N242 Tb251 2.617 . S
C243 C245 1.390 . S
C243 C246 1.339 . S
C243 H263 0.930 . S
C244 C241 1.416 . S
C244 C246 1.416 . S
C244 C250 1.448 . S
C245 N242 1.334 . S
C245 C243 1.390 . S
C245 H256 0.930 . S
C246 C243 1.339 . S
C246 C244 1.416 . S
C246 H267 0.930 . S
C247 C248 1.413 . S
C247 C249 1.427 . S
C247 C253 1.416 . S
C248 C241 1.424 . S
C248 C247 1.413 . S
C248 N252 1.361 . S
C249 C247 1.427 . S
C249 C250 1.328 . S
C249 H264 0.929 . S
C250 C244 1.448 . S
C250 C249 1.328 . S
C250 H265 0.930 . S
Tb251 N242 2.617 . S
Tb251 N252 2.572 . S
Tb251 O286 2.349 . S
Tb251 O289 2.393 . S
Tb251 O290 2.465 . S
Tb251 O291 2.387 1_554 S
Tb251 O293 2.428 . S
Tb251 O294 2.308 . S
Tb251 C315 2.802 . S
N252 C248 1.361 . S
N252 Tb251 2.572 . S
N252 C254 1.340 . S
C253 C247 1.416 . S
C253 C255 1.332 . S
C253 H261 0.931 . S
C254 N252 1.340 . S
C254 C255 1.407 . S
C254 H260 0.930 . S
C255 C253 1.332 . S
C255 C254 1.407 . S
C255 H257 0.929 . S
H256 C245 0.930 . S
H257 C255 0.929 . S
H258 C273 0.930 . S
H259 C280 0.929 . S
H260 C254 0.930 . S
H261 C253 0.931 . S
H262 C276 0.930 . S
H263 C243 0.930 . S
H264 C249 0.929 . S
H265 C250 0.930 . S
H266 C271 0.930 . S
H267 C246 0.930 . S
H268 C279 0.931 . S
N269 Tb240 2.617 . S
N269 C270 1.379 1_556 S
N269 C273 1.334 . S
C270 N269 1.379 1_554 S
C270 C272 1.416 . S
C270 C278 1.424 . S
C271 H266 0.930 . S
C271 C273 1.390 . S
C271 C274 1.339 1_556 S
C272 C270 1.416 . S
C272 C274 1.416 . S
C272 C305 1.448 . S
C273 H258 0.930 . S
C273 N269 1.334 . S
C273 C271 1.390 . S
C274 C271 1.339 1_554 S
C274 C272 1.416 . S
C274 H281 0.930 . S
N275 Tb240 2.572 1_554 S
N275 C276 1.340 . S
N275 C278 1.361 . S
C276 H262 0.930 . S
C276 N275 1.340 . S
C276 C280 1.407 . S
C277 C278 1.413 . S
C277 C279 1.416 . S
C277 C306 1.427 . S
C278 C270 1.424 . S
C278 N275 1.361 . S
C278 C277 1.413 . S
C279 H268 0.931 . S
C279 C277 1.416 . S
C279 C280 1.332 . S
C280 H259 0.929 . S
C280 C276 1.407 . S
C280 C279 1.332 . S
H281 C274 0.930 . S
H282 C305 0.930 . S
H283 C306 0.929 . S
O284 Tb240 2.465 . S
O284 C304 1.264 . S
O285 Tb240 2.387 1_554 S
O285 C296 1.264 . S
O286 Tb251 2.349 . S
O286 C296 1.243 . S
O287 Tb240 2.428 . S
O287 C304 1.256 . S
O288 Tb240 2.308 1_554 S
O288 C303 1.266 . S
O289 Tb251 2.393 . S
O289 C303 1.248 . S
O290 Tb251 2.465 . S
O290 C315 1.264 . S
O291 Tb251 2.387 1_556 S
O291 C307 1.264 . S
O292 Tb240 2.349 . S
O292 C307 1.243 . S
O293 Tb251 2.428 . S
O293 C315 1.256 . S
O294 Tb251 2.308 . S
O294 C314 1.266 . S
O295 Tb240 2.393 . S
O295 C314 1.248 1_556 S
C296 O285 1.264 . S
C296 O286 1.243 . S
C297 C300 1.399 . S
C297 C302 1.383 . S
C297 C304 1.496 . S
C298 C299 1.399 . S
C298 C302 1.389 . S
C299 C298 1.399 . S
C299 C301 1.380 . S
C299 H316 0.929 . S
C300 C297 1.399 . S
C300 C301 1.392 . S
C300 H317 0.929 . S
C301 C299 1.380 . S
C301 C300 1.392 . S
C301 H318 0.929 . S
C302 C297 1.383 . S
C302 C298 1.389 . S
C302 H319 0.931 . S
C303 O288 1.266 . S
C303 O289 1.248 . S
C304 Tb240 2.802 . S
C304 O284 1.264 . S
C304 O287 1.256 . S
C304 C297 1.496 . S
C305 C272 1.448 . S
C305 H282 0.930 . S
C305 C306 1.328 . S
C306 C277 1.427 . S
C306 H283 0.929 . S
C306 C305 1.328 . S
C307 O291 1.264 . S
C307 O292 1.243 . S
C308 C311 1.399 . S
C308 C312 1.383 . S
C308 C315 1.496 . S
C309 C310 1.399 . S
C309 C312 1.389 . S
C310 C309 1.399 . S
C310 C313 1.380 . S
C310 H320 0.929 . S
C311 C308 1.399 . S
C311 C313 1.392 . S
C311 H321 0.929 . S
C312 C308 1.383 . S
C312 C309 1.389 . S
C312 H322 0.931 . S
C313 C310 1.380 . S
C313 C311 1.392 . S
C313 H323 0.929 . S
C314 O294 1.266 . S
C314 O295 1.248 1_554 S
C315 Tb251 2.802 . S
C315 O290 1.264 . S
C315 O293 1.256 . S
C315 C308 1.496 . S
H316 C299 0.929 . S
H317 C300 0.929 . S
H318 C301 0.929 . S
H319 C302 0.931 . S
H320 C310 0.929 . S
H321 C311 0.929 . S
H322 C312 0.931 . S
H323 C313 0.929 . S
C324 C325 1.391 . S
C324 C326 1.394 . S
C324 H340 0.931 . S
C325 C324 1.391 . S
C325 C329 1.376 . S
C326 C324 1.394 . S
C326 C327 1.369 . S
C326 C330 1.531 . S
C327 C326 1.369 . S
C327 C328 1.410 . S
C327 C335 1.503 . S
C328 C327 1.410 . S
C328 C329 1.392 . S
C328 C331 1.511 . S
C329 C325 1.376 . S
C329 C328 1.392 . S
C329 H341 0.929 . S
C330 C326 1.531 . S
C330 H342 0.960 . S
C330 H343 0.962 . S
C330 H344 0.960 . S
C331 C328 1.511 . S
C331 H345 0.961 . S
C331 H346 0.961 . S
C331 H347 0.961 . S
C332 C333 1.370 . S
C332 C334 1.363 . S
C332 H348 0.931 . S
C333 C332 1.370 . S
C333 C337 1.408 . S
C334 C332 1.363 . S
C334 C335 1.370 . S
C334 C338 1.524 . S
C335 C327 1.503 . S
C335 C334 1.370 . S
C335 C336 1.403 . S
C336 C335 1.403 . S
C336 C337 1.404 . S
C336 C339 1.539 . S
C337 C333 1.408 . S
C337 C336 1.404 . S
C337 H349 0.930 . S
C338 C334 1.524 . S
C338 H350 0.956 . S
C338 H351 0.961 . S
C338 H352 0.961 . S
C339 C336 1.539 . S
C339 H353 0.958 . S
C339 H354 0.961 . S
C339 H355 0.960 . S
H340 C324 0.931 . S
H341 C329 0.929 . S
H342 C330 0.960 . S
H343 C330 0.962 . S
H344 C330 0.960 . S
H345 C331 0.961 . S
H346 C331 0.961 . S
H347 C331 0.961 . S
H348 C332 0.931 . S
H349 C337 0.930 . S
H350 C338 0.956 . S
H351 C338 0.961 . S
H352 C338 0.961 . S
H353 C339 0.958 . S
H354 C339 0.961 . S
H355 C339 0.960 . S
C356 C357 1.391 . S
C356 C358 1.394 . S
C356 H372 0.931 . S
C357 C356 1.391 . S
C357 C361 1.376 . S
C358 C356 1.394 . S
C358 C359 1.369 . S
C358 C362 1.531 . S
C359 C358 1.369 . S
C359 C360 1.410 . S
C359 C367 1.503 . S
C360 C359 1.410 . S
C360 C361 1.392 . S
C360 C363 1.511 . S
C361 C357 1.376 . S
C361 C360 1.392 . S
C361 H373 0.929 . S
C362 C358 1.531 . S
C362 H374 0.960 . S
C362 H375 0.962 . S
C362 H376 0.960 . S
C363 C360 1.511 . S
C363 H377 0.961 . S
C363 H378 0.961 . S
C363 H379 0.961 1_554 S
C364 C365 1.370 . S
C364 C366 1.363 . S
C364 H380 0.931 . S
C365 C364 1.370 . S
C365 C369 1.408 1_554 S
C366 C364 1.363 . S
C366 C367 1.370 . S
C366 C370 1.524 . S
C367 C359 1.503 . S
C367 C366 1.370 . S
C367 C368 1.403 1_554 S
C368 C367 1.403 1_556 S
C368 C369 1.404 . S
C368 C371 1.539 . S
C369 C365 1.408 1_556 S
C369 C368 1.404 . S
C369 H381 0.930 . S
C370 C366 1.524 . S
C370 H382 0.956 . S
C370 H383 0.961 . S
C370 H384 0.961 . S
C371 C368 1.539 . S
C371 H385 0.958 . S
C371 H386 0.961 . S
C371 H387 0.960 . S
H372 C356 0.931 . S
H373 C361 0.929 . S
H374 C362 0.960 . S
H375 C362 0.962 . S
H376 C362 0.960 . S
H377 C363 0.961 . S
H378 C363 0.961 . S
H379 C363 0.961 1_556 S
H380 C364 0.931 . S
H381 C369 0.930 . S
H382 C370 0.956 . S
H383 C370 0.961 . S
H384 C370 0.961 . S
H385 C371 0.958 . S
H386 C371 0.961 . S
H387 C371 0.960 . S
C388 C389 1.391 . S
C388 C390 1.394 . S
C388 H404 0.931 . S
C389 C388 1.391 . S
C389 C393 1.376 . S
C390 C388 1.394 . S
C390 C391 1.369 . S
C390 C394 1.531 . S
C391 C390 1.369 . S
C391 C392 1.410 . S
C391 C399 1.503 . S
C392 C391 1.410 . S
C392 C393 1.392 . S
C392 C395 1.511 . S
C393 C389 1.376 . S
C393 C392 1.392 . S
C393 H405 0.929 . S
C394 C390 1.531 . S
C394 H406 0.960 . S
C394 H407 0.962 . S
C394 H408 0.960 . S
C395 C392 1.511 . S
C395 H409 0.961 . S
C395 H410 0.961 . S
C395 H411 0.961 . S
C396 C397 1.370 . S
C396 C398 1.363 . S
C396 H412 0.931 . S
C397 C396 1.370 . S
C397 C401 1.408 . S
C398 C396 1.363 . S
C398 C399 1.370 . S
C398 C402 1.524 . S
C399 C391 1.503 . S
C399 C398 1.370 . S
C399 C400 1.403 . S
C400 C399 1.403 . S
C400 C401 1.404 . S
C400 C403 1.539 . S
C401 C397 1.408 . S
C401 C400 1.404 . S
C401 H413 0.930 . S
C402 C398 1.524 . S
C402 H414 0.956 . S
C402 H415 0.961 . S
C402 H416 0.961 . S
C403 C400 1.539 . S
C403 H417 0.958 . S
C403 H418 0.961 . S
C403 H419 0.960 . S
H404 C388 0.931 . S
H405 C393 0.929 . S
H406 C394 0.960 . S
H407 C394 0.962 . S
H408 C394 0.960 . S
H409 C395 0.961 . S
H410 C395 0.961 . S
H411 C395 0.961 . S
H412 C396 0.931 . S
H413 C401 0.930 . S
H414 C402 0.956 . S
H415 C402 0.961 . S
H416 C402 0.961 . S
H417 C403 0.958 . S
H418 C403 0.961 . S
H419 C403 0.960 . S
C420 C421 1.391 1_556 S
C420 C422 1.394 . S
C420 H436 0.931 . S
C421 C420 1.391 1_554 S
C421 C425 1.376 . S
C422 C420 1.394 . S
C422 C423 1.369 1_556 S
C422 C426 1.531 . S
C423 C422 1.369 1_554 S
C423 C424 1.410 . S
C423 C431 1.503 . S
C424 C423 1.410 . S
C424 C425 1.392 . S
C424 C427 1.511 . S
C425 C421 1.376 . S
C425 C424 1.392 . S
C425 H437 0.929 . S
C426 C422 1.531 . S
C426 H438 0.960 . S
C426 H439 0.962 . S
C426 H440 0.960 . S
C427 C424 1.511 . S
C427 H441 0.961 . S
C427 H442 0.961 . S
C427 H443 0.961 . S
C428 C429 1.370 . S
C428 C430 1.363 . S
C428 H444 0.931 . S
C429 C428 1.370 . S
C429 C433 1.408 1_554 S
C430 C428 1.363 . S
C430 C431 1.370 . S
C430 C434 1.524 . S
C431 C423 1.503 . S
C431 C430 1.370 . S
C431 C432 1.403 1_554 S
C432 C431 1.403 1_556 S
C432 C433 1.404 . S
C432 C435 1.539 . S
C433 C429 1.408 1_556 S
C433 C432 1.404 . S
C433 H445 0.930 . S
C434 C430 1.524 . S
C434 H446 0.956 . S
C434 H447 0.961 . S
C434 H448 0.961 . S
C435 C432 1.539 . S
C435 H449 0.958 . S
C435 H450 0.961 . S
C435 H451 0.960 . S
H436 C420 0.931 . S
H437 C425 0.929 . S
H438 C426 0.960 . S
H439 C426 0.962 . S
H440 C426 0.960 . S
H441 C427 0.961 . S
H442 C427 0.961 . S
H443 C427 0.961 . S
H444 C428 0.931 . S
H445 C433 0.930 . S
H446 C434 0.956 . S
H447 C434 0.961 . S
H448 C434 0.961 . S
H449 C435 0.958 . S
H450 C435 0.961 . S
H451 C435 0.960 . S
C452 C453 1.391 . S
C452 C454 1.394 . S
C452 H468 0.931 . S
C453 C452 1.391 . S
C453 C457 1.376 . S
C454 C452 1.394 . S
C454 C455 1.369 . S
C454 C458 1.531 . S
C455 C454 1.369 . S
C455 C456 1.410 . S
C455 C463 1.503 . S
C456 C455 1.410 . S
C456 C457 1.392 . S
C456 C459 1.511 . S
C457 C453 1.376 . S
C457 C456 1.392 . S
C457 H469 0.929 . S
C458 C454 1.531 . S
C458 H470 0.960 . S
C458 H471 0.962 . S
C458 H472 0.960 . S
C459 C456 1.511 . S
C459 H473 0.961 1_565 S
C459 H474 0.961 . S
C459 H475 0.961 1_565 S
C460 C461 1.370 . S
C460 C462 1.363 . S
C460 H476 0.931 . S
C461 C460 1.370 . S
C461 C465 1.408 . S
C462 C460 1.363 . S
C462 C463 1.370 . S
C462 C466 1.524 . S
C463 C455 1.503 . S
C463 C462 1.370 . S
C463 C464 1.403 . S
C464 C463 1.403 . S
C464 C465 1.404 . S
C464 C467 1.539 . S
C465 C461 1.408 . S
C465 C464 1.404 . S
C465 H477 0.930 . S
C466 C462 1.524 . S
C466 H478 0.956 . S
C466 H479 0.961 . S
C466 H480 0.961 . S
C467 C464 1.539 . S
C467 H481 0.958 . S
C467 H482 0.961 . S
C467 H483 0.960 . S
H468 C452 0.931 . S
H469 C457 0.929 . S
H470 C458 0.960 . S
H471 C458 0.962 . S
H472 C458 0.960 . S
H473 C459 0.961 1_545 S
H474 C459 0.961 . S
H475 C459 0.961 1_545 S
H476 C460 0.931 . S
H477 C465 0.930 . S
H478 C466 0.956 . S
H479 C466 0.961 . S
H480 C466 0.961 . S
H481 C467 0.958 . S
H482 C467 0.961 . S
H483 C467 0.960 . S
C484 C485 1.391 . S
C484 C486 1.394 . S
C484 H500 0.931 . S
C485 C484 1.391 . S
C485 C489 1.376 . S
C486 C484 1.394 . S
C486 C487 1.369 . S
C486 C490 1.531 . S
C487 C486 1.369 . S
C487 C488 1.410 . S
C487 C495 1.503 . S
C488 C487 1.410 . S
C488 C489 1.392 . S
C488 C491 1.511 . S
C489 C485 1.376 . S
C489 C488 1.392 . S
C489 H501 0.929 . S
C490 C486 1.531 . S
C490 H502 0.960 . S
C490 H503 0.962 . S
C490 H504 0.960 . S
C491 C488 1.511 . S
C491 H505 0.961 . S
C491 H506 0.961 . S
C491 H507 0.961 . S
C492 C493 1.370 . S
C492 C494 1.363 . S
C492 H508 0.931 . S
C493 C492 1.370 . S
C493 C497 1.408 . S
C494 C492 1.363 . S
C494 C495 1.370 . S
C494 C498 1.524 . S
C495 C487 1.503 . S
C495 C494 1.370 . S
C495 C496 1.403 . S
C496 C495 1.403 . S
C496 C497 1.404 . S
C496 C499 1.539 . S
C497 C493 1.408 . S
C497 C496 1.404 . S
C497 H509 0.930 . S
C498 C494 1.524 . S
C498 H510 0.956 . S
C498 H511 0.961 . S
C498 H512 0.961 . S
C499 C496 1.539 . S
C499 H513 0.958 . S
C499 H514 0.961 . S
C499 H515 0.960 . S
H500 C484 0.931 . S
H501 C489 0.929 . S
H502 C490 0.960 . S
H503 C490 0.962 . S
H504 C490 0.960 . S
H505 C491 0.961 . S
H506 C491 0.961 . S
H507 C491 0.961 . S
H508 C492 0.931 . S
H509 C497 0.930 . S
H510 C498 0.956 . S
H511 C498 0.961 . S
H512 C498 0.961 . S
H513 C499 0.958 . S
H514 C499 0.961 . S
H515 C499 0.960 . S
C516 C517 1.391 . S
C516 C518 1.394 . S
C516 H532 0.931 . S
C517 C516 1.391 . S
C517 C521 1.376 . S
C518 C516 1.394 . S
C518 C519 1.369 . S
C518 C522 1.531 . S
C519 C518 1.369 . S
C519 C520 1.410 . S
C519 C527 1.503 . S
C520 C519 1.410 . S
C520 C521 1.392 . S
C520 C523 1.511 . S
C521 C517 1.376 . S
C521 C520 1.392 . S
C521 H533 0.929 . S
C522 C518 1.531 . S
C522 H534 0.960 . S
C522 H535 0.962 . S
C522 H536 0.960 . S
C523 C520 1.511 . S
C523 H537 0.961 . S
C523 H538 0.961 . S
C523 H539 0.961 . S
C524 C525 1.370 . S
C524 C526 1.363 . S
C524 H540 0.931 1_545 S
C525 C524 1.370 . S
C525 C529 1.408 . S
C526 C524 1.363 . S
C526 C527 1.370 . S
C526 C530 1.524 1_545 S
C527 C519 1.503 . S
C527 C526 1.370 . S
C527 C528 1.403 . S
C528 C527 1.403 . S
C528 C529 1.404 . S
C528 C531 1.539 . S
C529 C525 1.408 . S
C529 C528 1.404 . S
C529 H541 0.930 . S
C530 C526 1.524 1_565 S
C530 H542 0.956 . S
C530 H543 0.961 . S
C530 H544 0.961 . S
C531 C528 1.539 . S
C531 H545 0.958 . S
C531 H546 0.961 . S
C531 H547 0.960 . S
H532 C516 0.931 . S
H533 C521 0.929 . S
H534 C522 0.960 . S
H535 C522 0.962 . S
H536 C522 0.960 . S
H537 C523 0.961 . S
H538 C523 0.961 . S
H539 C523 0.961 . S
H540 C524 0.931 1_565 S
H541 C529 0.930 . S
H542 C530 0.956 . S
H543 C530 0.961 . S
H544 C530 0.961 . S
H545 C531 0.958 . S
H546 C531 0.961 . S
H547 C531 0.960 . S
C548 C549 1.391 . S
C548 C550 1.394 . S
C548 H564 0.931 . S
C549 C548 1.391 . S
C549 C553 1.376 . S
C550 C548 1.394 . S
C550 C551 1.369 . S
C550 C554 1.531 . S
C551 C550 1.369 . S
C551 C552 1.410 . S
C551 C559 1.503 . S
C552 C551 1.410 . S
C552 C553 1.392 . S
C552 C555 1.511 . S
C553 C549 1.376 . S
C553 C552 1.392 . S
C553 H565 0.929 . S
C554 C550 1.531 . S
C554 H566 0.960 . S
C554 H567 0.962 . S
C554 H568 0.960 . S
C555 C552 1.511 . S
C555 H569 0.961 . S
C555 H570 0.961 . S
C555 H571 0.961 . S
C556 C557 1.370 . S
C556 C558 1.363 . S
C556 H572 0.931 . S
C557 C556 1.370 . S
C557 C561 1.408 . S
C558 C556 1.363 . S
C558 C559 1.370 . S
C558 C562 1.524 . S
C559 C551 1.503 . S
C559 C558 1.370 . S
C559 C560 1.403 . S
C560 C559 1.403 . S
C560 C561 1.404 . S
C560 C563 1.539 . S
C561 C557 1.408 . S
C561 C560 1.404 . S
C561 H573 0.930 . S
C562 C558 1.524 . S
C562 H574 0.956 . S
C562 H575 0.961 . S
C562 H576 0.961 . S
C563 C560 1.539 . S
C563 H577 0.958 . S
C563 H578 0.961 . S
C563 H579 0.960 . S
H564 C548 0.931 . S
H565 C553 0.929 . S
H566 C554 0.960 . S
H567 C554 0.962 . S
H568 C554 0.960 . S
H569 C555 0.961 . S
H570 C555 0.961 . S
H571 C555 0.961 . S
H572 C556 0.931 . S
H573 C561 0.930 . S
H574 C562 0.956 . S
H575 C562 0.961 . S
H576 C562 0.961 . S
H577 C563 0.958 . S
H578 C563 0.961 . S
H579 C563 0.960 . S
C580 C581 1.391 . S
C580 C582 1.394 . S
C580 H596 0.931 . S
C581 C580 1.391 . S
C581 C585 1.376 . S
C582 C580 1.394 . S
C582 C583 1.369 . S
C582 C586 1.531 . S
C583 C582 1.369 . S
C583 C584 1.410 . S
C583 C591 1.503 . S
C584 C583 1.410 . S
C584 C585 1.392 . S
C584 C587 1.511 . S
C585 C581 1.376 . S
C585 C584 1.392 . S
C585 H597 0.929 . S
C586 C582 1.531 . S
C586 H598 0.960 . S
C586 H599 0.962 . S
C586 H600 0.960 . S
C587 C584 1.511 . S
C587 H601 0.961 . S
C587 H602 0.961 . S
C587 H603 0.961 . S
C588 C589 1.370 . S
C588 C590 1.363 . S
C588 H604 0.931 . S
C589 C588 1.370 . S
C589 C593 1.408 . S
C590 C588 1.363 . S
C590 C591 1.370 . S
C590 C594 1.524 . S
C591 C583 1.503 . S
C591 C590 1.370 . S
C591 C592 1.403 . S
C592 C591 1.403 . S
C592 C593 1.404 . S
C592 C595 1.539 . S
C593 C589 1.408 . S
C593 C592 1.404 . S
C593 H605 0.930 . S
C594 C590 1.524 . S
C594 H606 0.956 . S
C594 H607 0.961 . S
C594 H608 0.961 . S
C595 C592 1.539 . S
C595 H609 0.958 . S
C595 H610 0.961 . S
C595 H611 0.960 . S
H596 C580 0.931 . S
H597 C585 0.929 . S
H598 C586 0.960 . S
H599 C586 0.962 . S
H600 C586 0.960 . S
H601 C587 0.961 . S
H602 C587 0.961 . S
H603 C587 0.961 . S
H604 C588 0.931 . S
H605 C593 0.930 . S
H606 C594 0.956 . S
H607 C594 0.961 . S
H608 C594 0.961 . S
H609 C595 0.958 . S
H610 C595 0.961 . S
H611 C595 0.960 . S
C612 C613 1.391 . S
C612 C614 1.394 . S
C612 H628 0.931 . S
C613 C612 1.391 . S
C613 C617 1.376 . S
C614 C612 1.394 . S
C614 C615 1.369 . S
C614 C618 1.531 . S
C615 C614 1.369 . S
C615 C616 1.410 . S
C615 C623 1.503 . S
C616 C615 1.410 . S
C616 C617 1.392 . S
C616 C619 1.511 . S
C617 C613 1.376 . S
C617 C616 1.392 . S
C617 H629 0.929 . S
C618 C614 1.531 . S
C618 H630 0.960 . S
C618 H631 0.962 . S
C618 H632 0.960 . S
C619 C616 1.511 . S
C619 H633 0.961 . S
C619 H634 0.961 . S
C619 H635 0.961 . S
C620 C621 1.370 . S
C620 C622 1.363 . S
C620 H636 0.931 . S
C621 C620 1.370 . S
C621 C625 1.408 . S
C622 C620 1.363 . S
C622 C623 1.370 . S
C622 C626 1.524 . S
C623 C615 1.503 . S
C623 C622 1.370 . S
C623 C624 1.403 . S
C624 C623 1.403 . S
C624 C625 1.404 . S
C624 C627 1.539 1_545 S
C625 C621 1.408 . S
C625 C624 1.404 . S
C625 H637 0.930 1_545 S
C626 C622 1.524 . S
C626 H638 0.956 . S
C626 H639 0.961 . S
C626 H640 0.961 . S
C627 C624 1.539 1_565 S
C627 H641 0.958 . S
C627 H642 0.961 . S
C627 H643 0.960 . S
H628 C612 0.931 . S
H629 C617 0.929 . S
H630 C618 0.960 . S
H631 C618 0.962 . S
H632 C618 0.960 . S
H633 C619 0.961 . S
H634 C619 0.961 . S
H635 C619 0.961 . S
H636 C620 0.931 . S
H637 C625 0.930 1_565 S
H638 C626 0.956 . S
H639 C626 0.961 . S
H640 C626 0.961 . S
H641 C627 0.958 . S
H642 C627 0.961 . S
H643 C627 0.960 . S
C644 C645 1.391 . S
C644 C646 1.394 . S
C644 H660 0.931 . S
C645 C644 1.391 . S
C645 C649 1.376 . S
C646 C644 1.394 . S
C646 C647 1.369 . S
C646 C650 1.531 . S
C647 C646 1.369 . S
C647 C648 1.410 . S
C647 C655 1.503 . S
C648 C647 1.410 . S
C648 C649 1.392 . S
C648 C651 1.511 . S
C649 C645 1.376 . S
C649 C648 1.392 . S
C649 H661 0.929 . S
C650 C646 1.531 . S
C650 H662 0.960 . S
C650 H663 0.962 . S
C650 H664 0.960 . S
C651 C648 1.511 . S
C651 H665 0.961 . S
C651 H666 0.961 . S
C651 H667 0.961 . S
C652 C653 1.370 . S
C652 C654 1.363 . S
C652 H668 0.931 . S
C653 C652 1.370 . S
C653 C657 1.408 . S
C654 C652 1.363 . S
C654 C655 1.370 . S
C654 C658 1.524 . S
C655 C647 1.503 . S
C655 C654 1.370 . S
C655 C656 1.403 . S
C656 C655 1.403 . S
C656 C657 1.404 . S
C656 C659 1.539 . S
C657 C653 1.408 . S
C657 C656 1.404 . S
C657 H669 0.930 . S
C658 C654 1.524 . S
C658 H670 0.956 . S
C658 H671 0.961 . S
C658 H672 0.961 . S
C659 C656 1.539 . S
C659 H673 0.958 . S
C659 H674 0.961 . S
C659 H675 0.960 . S
H660 C644 0.931 . S
H661 C649 0.929 . S
H662 C650 0.960 . S
H663 C650 0.962 . S
H664 C650 0.960 . S
H665 C651 0.961 . S
H666 C651 0.961 . S
H667 C651 0.961 . S
H668 C652 0.931 . S
H669 C657 0.930 . S
H670 C658 0.956 . S
H671 C658 0.961 . S
H672 C658 0.961 . S
H673 C659 0.958 . S
H674 C659 0.961 . S
H675 C659 0.960 . S
C676 C677 1.391 . S
C676 C678 1.394 . S
C676 H692 0.931 . S
C677 C676 1.391 . S
C677 C681 1.376 . S
C678 C676 1.394 . S
C678 C679 1.369 . S
C678 C682 1.531 . S
C679 C678 1.369 . S
C679 C680 1.410 . S
C679 C687 1.503 . S
C680 C679 1.410 . S
C680 C681 1.392 . S
C680 C683 1.511 . S
C681 C677 1.376 . S
C681 C680 1.392 . S
C681 H693 0.929 . S
C682 C678 1.531 . S
C682 H694 0.960 . S
C682 H695 0.962 . S
C682 H696 0.960 . S
C683 C680 1.511 . S
C683 H697 0.961 . S
C683 H698 0.961 . S
C683 H699 0.961 . S
C684 C685 1.370 . S
C684 C686 1.363 . S
C684 H700 0.931 . S
C685 C684 1.370 . S
C685 C689 1.408 1_565 S
C686 C684 1.363 . S
C686 C687 1.370 . S
C686 C690 1.524 . S
C687 C679 1.503 . S
C687 C686 1.370 . S
C687 C688 1.403 . S
C688 C687 1.403 . S
C688 C689 1.404 1_565 S
C688 C691 1.539 1_565 S
C689 C685 1.408 1_545 S
C689 C688 1.404 1_545 S
C689 H701 0.930 . S
C690 C686 1.524 . S
C690 H702 0.956 . S
C690 H703 0.961 . S
C690 H704 0.961 . S
C691 C688 1.539 1_545 S
C691 H705 0.958 . S
C691 H706 0.961 . S
C691 H707 0.960 . S
H692 C676 0.931 . S
H693 C681 0.929 . S
H694 C682 0.960 . S
H695 C682 0.962 . S
H696 C682 0.960 . S
H697 C683 0.961 . S
H698 C683 0.961 . S
H699 C683 0.961 . S
H700 C684 0.931 . S
H701 C689 0.930 . S
H702 C690 0.956 . S
H703 C690 0.961 . S
H704 C690 0.961 . S
H705 C691 0.958 . S
H706 C691 0.961 . S
H707 C691 0.960 . S
C333 C219 1.634 . S
C325 C138 1.605 . S
C357 C21 1.602 . S
C365 C314 1.616 . S
C389 C60 1.612 . S
C397 C230 1.630 . S
C421 C99 1.635 . S
C429 C303 1.627 . S
C461 C214 1.431 . S
C453 C16 1.561 . S
C493 C307 1.614 . S
C485 C40 1.590 . S
C517 C79 1.584 . S
C525 C223 1.622 . S
C549 C133 1.532 . S
C557 C298 1.384 . S
C589 C309 1.401 . S
C581 C55 1.538 . S
C621 C225 1.434 . S
C613 C94 1.554 . S
C653 C296 1.615 . S
C645 C118 1.603 . S
C677 C1 1.612 . S
C685 C212 1.619 . S
