# Generated by pormake.
# Topology pto, (3,4)-cn, num edge types: 1
# Building blocks:
#     Node 0, Type 0, BuildingBlock: OLANEW_clean_sbu_2, # of connection points: 3
#     Node 1, Type 0, BuildingBlock: OLANEW_clean_sbu_2, # of connection points: 3
#     Node 2, Type 0, BuildingBlock: OLANEW_clean_sbu_2, # of connection points: 3
#     Node 3, Type 0, BuildingBlock: OLANEW_clean_sbu_2, # of connection points: 3
#     Node 4, Type 0, BuildingBlock: OLANEW_clean_sbu_2, # of connection points: 3
#     Node 5, Type 0, BuildingBlock: OLANEW_clean_sbu_2, # of connection points: 3
#     Node 6, Type 0, BuildingBlock: OLANEW_clean_sbu_2, # of connection points: 3
#     Node 7, Type 0, BuildingBlock: OLANEW_clean_sbu_2, # of connection points: 3
#     Node 8, Type 1, BuildingBlock: NAHDIM_clean_linker_0, # of connection points: 4
#     Node 9, Type 1, BuildingBlock: NAHDIM_clean_linker_0, # of connection points: 4
#     Node 10, Type 1, BuildingBlock: NAHDIM_clean_linker_0, # of connection points: 4
#     Node 11, Type 1, BuildingBlock: NAHDIM_clean_linker_0, # of connection points: 4
#     Node 12, Type 1, BuildingBlock: NAHDIM_clean_linker_0, # of connection points: 4
#     Node 13, Type 1, BuildingBlock: NAHDIM_clean_linker_0, # of connection points: 4
#     Edge 14, Type (0, 1), BuildingBlock: XUDNAN_clean_linker_2, # of connection points: 2
#     Edge 15, Type (0, 1), BuildingBlock: XUDNAN_clean_linker_2, # of connection points: 2
#     Edge 16, Type (0, 1), BuildingBlock: XUDNAN_clean_linker_2, # of connection points: 2
#     Edge 17, Type (0, 1), BuildingBlock: XUDNAN_clean_linker_2, # of connection points: 2
#     Edge 18, Type (0, 1), BuildingBlock: XUDNAN_clean_linker_2, # of connection points: 2
#     Edge 19, Type (0, 1), BuildingBlock: XUDNAN_clean_linker_2, # of connection points: 2
#     Edge 20, Type (0, 1), BuildingBlock: XUDNAN_clean_linker_2, # of connection points: 2
#     Edge 21, Type (0, 1), BuildingBlock: XUDNAN_clean_linker_2, # of connection points: 2
#     Edge 22, Type (0, 1), BuildingBlock: XUDNAN_clean_linker_2, # of connection points: 2
#     Edge 23, Type (0, 1), BuildingBlock: XUDNAN_clean_linker_2, # of connection points: 2
#     Edge 24, Type (0, 1), BuildingBlock: XUDNAN_clean_linker_2, # of connection points: 2
#     Edge 25, Type (0, 1), BuildingBlock: XUDNAN_clean_linker_2, # of connection points: 2
#     Edge 26, Type (0, 1), BuildingBlock: XUDNAN_clean_linker_2, # of connection points: 2
#     Edge 27, Type (0, 1), BuildingBlock: XUDNAN_clean_linker_2, # of connection points: 2
#     Edge 28, Type (0, 1), BuildingBlock: XUDNAN_clean_linker_2, # of connection points: 2
#     Edge 29, Type (0, 1), BuildingBlock: XUDNAN_clean_linker_2, # of connection points: 2
#     Edge 30, Type (0, 1), BuildingBlock: XUDNAN_clean_linker_2, # of connection points: 2
#     Edge 31, Type (0, 1), BuildingBlock: XUDNAN_clean_linker_2, # of connection points: 2
#     Edge 32, Type (0, 1), BuildingBlock: XUDNAN_clean_linker_2, # of connection points: 2
#     Edge 33, Type (0, 1), BuildingBlock: XUDNAN_clean_linker_2, # of connection points: 2
#     Edge 34, Type (0, 1), BuildingBlock: XUDNAN_clean_linker_2, # of connection points: 2
#     Edge 35, Type (0, 1), BuildingBlock: XUDNAN_clean_linker_2, # of connection points: 2
#     Edge 36, Type (0, 1), BuildingBlock: XUDNAN_clean_linker_2, # of connection points: 2
#     Edge 37, Type (0, 1), BuildingBlock: XUDNAN_clean_linker_2, # of connection points: 2
# Relax obj value: 0.012
# Max RMSD: 0.133
# Mean RMSD: 0.069
data_MOF--net-pto--node1-OLANEW_clean_sbu_2--node2-NAHDIM_clean_linker_0--edge1-XUDNAN_clean_linker_2
_symmetry_space_group_name_H-M    P1
_symmetry_Int_Tables_number       1
_symmetry_cell_setting            triclinic
loop_
_symmetry_equiv_pos_as_xyz
'x, y, z'
_cell_length_a     61.165228
_cell_length_b     60.637563
_cell_length_c     56.47664
_cell_angle_alpha  92.53973
_cell_angle_beta   91.023619
_cell_angle_gamma 102.81951
loop_
_atom_site_label
_atom_site_type_symbol
_atom_site_fract_x
_atom_site_fract_y
_atom_site_fract_z
_atom_type_partial_charge
O0 O 0.31215 0.37501 0.26203 0.0
Cd1 Cd 0.28491 0.3702 0.29359 0.0
O2 O 0.33436 0.40415 0.28113 0.0
Cd3 Cd 0.30631 0.40955 0.30212 0.0
O4 O 0.27253 0.41568 0.30002 0.0
C5 C 0.2673 0.4219 0.27989 0.0
O6 O 0.28231 0.4244 0.26329 0.0
C7 C 0.33086 0.3893 0.26404 0.0
C8 C 0.30273 0.35013 0.33069 0.0
O9 O 0.28876 0.33805 0.3155 0.0
O10 O 0.3077 0.37161 0.3287 0.0
O11 O 0.2867 0.91179 0.81133 0.0
Cd12 Cd 0.26265 0.93126 0.78917 0.0
O13 O 0.27122 0.87984 0.79226 0.0
Cd14 Cd 0.26415 0.84386 0.78153 0.0
O15 O 0.24565 0.80869 0.77937 0.0
C16 C 0.22804 0.80466 0.79151 0.0
O17 O 0.22266 0.82148 0.80383 0.0
C18 C 0.28534 0.89069 0.80781 0.0
C19 C 0.28785 0.95895 0.75687 0.0
O20 O 0.28594 0.96621 0.77822 0.0
O21 O 0.27756 0.93864 0.7507 0.0
O22 O 0.7999 0.78146 0.25343 0.0
Cd23 Cd 0.80175 0.76647 0.2127 0.0
O24 O 0.77323 0.75295 0.26341 0.0
Cd25 Cd 0.76642 0.73969 0.22691 0.0
O26 O 0.7424 0.73757 0.19748 0.0
C27 C 0.73868 0.75624 0.19103 0.0
O28 O 0.75077 0.7752 0.20085 0.0
C29 C 0.78715 0.77142 0.26905 0.0
C30 C 0.82909 0.73522 0.20912 0.0
O31 O 0.83735 0.75652 0.20827 0.0
O32 O 0.80791 0.72868 0.21175 0.0
O33 O 0.7584 0.30854 0.72363 0.0
Cd34 Cd 0.72521 0.27736 0.72245 0.0
O35 O 0.76261 0.30587 0.76207 0.0
Cd36 Cd 0.73041 0.28283 0.76717 0.0
O37 O 0.70256 0.28444 0.79024 0.0
C38 C 0.69725 0.30356 0.79137 0.0
O39 O 0.70728 0.31927 0.77743 0.0
C40 C 0.76952 0.31491 0.74291 0.0
C41 C 0.72917 0.24093 0.69216 0.0
O42 O 0.71969 0.25638 0.68502 0.0
O43 O 0.73697 0.24282 0.71355 0.0
O44 O 0.74996 0.76416 0.70815 0.0
Cd45 Cd 0.7452 0.73515 0.73772 0.0
O46 O 0.71361 0.75926 0.70141 0.0
Cd47 Cd 0.704 0.73807 0.73137 0.0
O48 O 0.68812 0.737 0.76576 0.0
C49 C 0.68146 0.75486 0.77161 0.0
O50 O 0.68457 0.77144 0.75693 0.0
C51 C 0.73362 0.76885 0.69666 0.0
C52 C 0.77747 0.70899 0.7347 0.0
O53 O 0.75905 0.70346 0.72247 0.0
O54 O 0.78068 0.72694 0.74835 0.0
O55 O 0.79509 0.25996 0.21382 0.0
Cd56 Cd 0.75751 0.23987 0.22429 0.0
O57 O 0.78498 0.29241 0.21915 0.0
Cd58 Cd 0.74886 0.27912 0.22 0.0
O59 O 0.72053 0.28921 0.20299 0.0
C60 C 0.72284 0.29321 0.18115 0.0
O61 O 0.74056 0.28909 0.17053 0.0
C62 C 0.8001 0.2815 0.21492 0.0
C63 C 0.75795 0.20459 0.2543 0.0
O64 O 0.75447 0.20068 0.2319 0.0
O65 O 0.76139 0.22516 0.26249 0.0
O66 O 0.29304 0.38817 0.80586 0.0
Cd67 Cd 0.26117 0.3703 0.77973 0.0
O68 O 0.30542 0.41588 0.7823 0.0
Cd69 Cd 0.28658 0.39608 0.75242 0.0
O70 O 0.28935 0.36802 0.7279 0.0
C71 C 0.30906 0.36874 0.72072 0.0
O72 O 0.32504 0.38643 0.7272 0.0
C73 C 0.3064 0.40689 0.8021 0.0
C74 C 0.22722 0.39439 0.78271 0.0
O75 O 0.22872 0.37934 0.79751 0.0
O76 O 0.2417 0.398 0.76639 0.0
O77 O 0.31755 0.89458 0.24334 0.0
Cd78 Cd 0.29196 0.90944 0.26924 0.0
O79 O 0.28705 0.87124 0.22949 0.0
Cd80 Cd 0.26875 0.84089 0.20962 0.0
O81 O 0.24865 0.80669 0.20341 0.0
C82 C 0.25645 0.79034 0.21059 0.0
O83 O 0.27687 0.7946 0.21996 0.0
C84 C 0.3082 0.87835 0.22903 0.0
C85 C 0.31417 0.94179 0.30312 0.0
O86 O 0.30841 0.92088 0.30797 0.0
O87 O 0.30946 0.94729 0.28229 0.0
C88 C 0.91916 0.40334 0.14377 0.0
C89 C 0.92976 0.39479 0.16538 0.0
C90 C 0.95185 0.42917 0.1867 0.0
C91 C 0.95382 0.44216 0.20799 0.0
C92 C 0.97183 0.4608 0.21253 0.0
C93 C 0.98789 0.46701 0.19491 0.0
C94 C 0.98596 0.45403 0.17321 0.0
C95 C 0.96813 0.43507 0.16943 0.0
C96 C 0.97372 0.47374 0.23622 0.0
C97 C 0.00279 0.46016 0.15401 0.0
C98 C 0.16021 0.46293 0.24407 0.0
C99 C 0.14357 0.47149 0.22976 0.0
C100 C 0.10787 0.48286 0.23456 0.0
C101 C 0.10292 0.48293 0.21014 0.0
C102 C 0.08298 0.48832 0.20206 0.0
C103 C 0.06772 0.49369 0.2187 0.0
C104 C 0.07261 0.49349 0.24326 0.0
C105 C 0.09268 0.48813 0.25084 0.0
C106 C 0.07825 0.48842 0.17576 0.0
C107 C 0.05663 0.49902 0.26149 0.0
C108 C 0.09591 0.64644 0.21723 0.0
C109 C 0.08779 0.64019 0.19408 0.0
C110 C 0.06945 0.62193 0.18934 0.0
C111 C 0.05862 0.61001 0.2084 0.0
C112 C 0.06638 0.61659 0.23197 0.0
C113 C 0.0852 0.63445 0.23612 0.0
C114 C 0.06171 0.61535 0.16397 0.0
C115 C 0.05484 0.60475 0.25283 0.0
C116 C 0.88076 0.58426 0.17871 0.0
C117 C 0.89882 0.60323 0.19088 0.0
C118 C 0.93711 0.59822 0.18252 0.0
C119 C 0.95072 0.5953 0.16355 0.0
C120 C 0.97084 0.58823 0.16704 0.0
C121 C 0.97758 0.58413 0.19019 0.0
C122 C 0.96406 0.58728 0.20957 0.0
C123 C 0.94404 0.59444 0.2056 0.0
C124 C 0.98503 0.58537 0.14603 0.0
C125 C 0.97103 0.58346 0.23457 0.0
C126 C 0.00712 0.48662 0.1994 0.0
C127 C 0.02776 0.48214 0.20612 0.0
C128 C 0.04667 0.49966 0.21051 0.0
C129 C 0.04515 0.52235 0.20799 0.0
C130 C 0.06403 0.54032 0.21156 0.0
C131 C 0.06226 0.56264 0.20962 0.0
C132 C 0.04145 0.56789 0.20455 0.0
C133 C 0.03929 0.59057 0.20366 0.0
C134 C 0.01834 0.59519 0.19873 0.0
C135 C 0.99934 0.57772 0.19437 0.0
C136 C 0.00121 0.5549 0.19484 0.0
C137 C 0.98256 0.53688 0.19008 0.0
C138 C 0.98453 0.51448 0.19107 0.0
C139 C 0.0051 0.50927 0.19737 0.0
C140 C 0.02419 0.52719 0.20181 0.0
C141 C 0.02229 0.55 0.20031 0.0
C142 C 0.11533 0.68681 0.25667 0.0
C143 C 0.12648 0.67132 0.24106 0.0
O144 O 0.93395 0.41133 0.18365 0.0
O145 O 0.91806 0.60549 0.17766 0.0
O146 O 0.11383 0.66423 0.22041 0.0
O147 O 0.12698 0.47779 0.24314 0.0
H148 H 0.9457 0.39015 0.16023 0.0
H149 H 0.93072 0.41824 0.13681 0.0
H150 H 0.90336 0.40842 0.14854 0.0
H151 H 0.9154 0.38985 0.12936 0.0
H152 H 0.94126 0.43744 0.22125 0.0
H153 H 0.96702 0.42514 0.15291 0.0
H154 H 0.99091 0.47592 0.24402 0.0
H155 H 0.96146 0.4651 0.24898 0.0
H156 H 0.97067 0.49086 0.23374 0.0
H157 H 0.99746 0.45011 0.13714 0.0
H158 H 0.01917 0.45703 0.15998 0.0
H159 H 0.00535 0.47844 0.15058 0.0
H160 H 0.15076 0.48405 0.21653 0.0
H161 H 0.15499 0.42808 0.23255 0.0
H162 H 0.15841 0.46858 0.2631 0.0
H163 H 0.17658 0.47548 0.2419 0.0
H164 H 0.11452 0.47884 0.19729 0.0
H165 H 0.09661 0.48798 0.26961 0.0
H166 H 0.06248 0.47586 0.17085 0.0
H167 H 0.09202 0.48432 0.16506 0.0
H168 H 0.07577 0.50533 0.17114 0.0
H169 H 0.06254 0.4974 0.27991 0.0
H170 H 0.03985 0.48756 0.25844 0.0
H171 H 0.05462 0.51662 0.2596 0.0
H172 H 0.12812 0.65637 0.25114 0.0
H173 H 0.0961 0.64955 0.17963 0.0
H174 H 0.09121 0.63897 0.25418 0.0
H175 H 0.06025 0.59692 0.16036 0.0
H176 H 0.07332 0.6248 0.15111 0.0
H177 H 0.04484 0.61886 0.16101 0.0
H178 H 0.06052 0.61422 0.26994 0.0
H179 H 0.05852 0.58768 0.25357 0.0
H180 H 0.03637 0.60252 0.25085 0.0
H181 H 0.90138 0.59806 0.20908 0.0
H182 H 0.86622 0.57921 0.19033 0.0
H183 H 0.88771 0.56903 0.17519 0.0
H184 H 0.87506 0.58965 0.16154 0.0
H185 H 0.94546 0.59857 0.14586 0.0
H186 H 0.93444 0.59759 0.22073 0.0
H187 H 0.98806 0.56796 0.14508 0.0
H188 H 0.0016 0.59735 0.14828 0.0
H189 H 0.97706 0.58844 0.12902 0.0
H190 H 0.95843 0.58607 0.24771 0.0
H191 H 0.98729 0.59524 0.23946 0.0
H192 H 0.97354 0.56594 0.23563 0.0
H193 H 0.02908 0.46476 0.2081 0.0
H194 H 0.08041 0.53734 0.21589 0.0
H195 H 0.0774 0.57575 0.21248 0.0
H196 H 0.01675 0.61265 0.19847 0.0
H197 H 0.96625 0.5399 0.18551 0.0
H198 H 0.96963 0.5013 0.18716 0.0
H199 H 0.11295 0.70166 0.24692 0.0
H200 H 0.12587 0.69293 0.27289 0.0
H201 H 0.09864 0.67761 0.26229 0.0
C202 C 0.07852 0.43304 0.8309 0.0
C203 C 0.09086 0.45047 0.81404 0.0
C204 C 0.0785 0.48537 0.8197 0.0
C205 C 0.07456 0.49107 0.7965 0.0
C206 C 0.05798 0.50301 0.79148 0.0
C207 C 0.04497 0.50918 0.8101 0.0
C208 C 0.04969 0.50438 0.83372 0.0
C209 C 0.06668 0.49274 0.83826 0.0
C210 C 0.05383 0.50835 0.76618 0.0
C211 C 0.03621 0.51076 0.85398 0.0
C212 C 0.87813 0.41118 0.76513 0.0
C213 C 0.89557 0.42879 0.77792 0.0
C214 C 0.92912 0.45769 0.77041 0.0
C215 C 0.93156 0.46734 0.7937 0.0
C216 C 0.94983 0.48513 0.80036 0.0
C217 C 0.96585 0.4936 0.78336 0.0
C218 C 0.9631 0.48439 0.75976 0.0
C219 C 0.94476 0.4665 0.75362 0.0
C220 C 0.95229 0.49461 0.82568 0.0
C221 C 0.97979 0.49316 0.74116 0.0
C222 C 0.93605 0.63358 0.7645 0.0
C223 C 0.93929 0.6316 0.78881 0.0
C224 C 0.95664 0.62216 0.79755 0.0
C225 C 0.97129 0.61468 0.78151 0.0
C226 C 0.96812 0.61654 0.75686 0.0
C227 C 0.95044 0.62573 0.74859 0.0
C228 C 0.95941 0.62028 0.82392 0.0
C229 C 0.98356 0.60895 0.73923 0.0
C230 C 0.14386 0.65848 0.85909 0.0
C231 C 0.13137 0.66181 0.8363 0.0
C232 C 0.09068 0.65558 0.83211 0.0
C233 C 0.07197 0.65163 0.84641 0.0
C234 C 0.05128 0.63858 0.83772 0.0
C235 C 0.04925 0.62985 0.81394 0.0
C236 C 0.06767 0.63546 0.79881 0.0
C237 C 0.08829 0.64817 0.80811 0.0
C238 C 0.03188 0.6333 0.85423 0.0
C239 C 0.06581 0.62723 0.77309 0.0
C240 C 0.02524 0.51873 0.80446 0.0
C241 C 0.0053 0.50349 0.7974 0.0
C242 C 0.98623 0.51103 0.79065 0.0
C243 C 0.98693 0.53449 0.79082 0.0
C244 C 0.96814 0.54268 0.78379 0.0
C245 C 0.96911 0.56584 0.78379 0.0
C246 C 0.9889 0.5817 0.79079 0.0
C247 C 0.9902 0.6053 0.79044 0.0
C248 C 0.01004 0.62056 0.79797 0.0
C249 C 0.02878 0.61292 0.80571 0.0
C250 C 0.02793 0.58941 0.80575 0.0
C251 C 0.04662 0.58116 0.81309 0.0
C252 C 0.04583 0.55805 0.81254 0.0
C253 C 0.02619 0.54226 0.80515 0.0
C254 C 0.00699 0.55016 0.79814 0.0
C255 C 0.00793 0.57378 0.79825 0.0
C256 C 0.92961 0.66788 0.72518 0.0
C257 C 0.91327 0.64716 0.73427 0.0
O258 O 0.09305 0.47206 0.82432 0.0
O259 O 0.11079 0.66625 0.8421 0.0
O260 O 0.91914 0.64333 0.75733 0.0
O261 O 0.91218 0.43984 0.76351 0.0
H262 H 0.08008 0.44816 0.79758 0.0
H263 H 0.0609 0.43482 0.83248 0.0
H264 H 0.0865 0.43582 0.84892 0.0
H265 H 0.07824 0.41555 0.82395 0.0
H266 H 0.0842 0.4858 0.78228 0.0
H267 H 0.07007 0.48842 0.85617 0.0
H268 H 0.03753 0.49771 0.75953 0.0
H269 H 0.06718 0.50508 0.75431 0.0
H270 H 0.05282 0.52635 0.76522 0.0
H271 H 0.04213 0.50605 0.87136 0.0
H272 H 0.01828 0.5022 0.85106 0.0
H273 H 0.03726 0.52929 0.85465 0.0
H274 H 0.90218 0.42348 0.79478 0.0
H275 H 0.87968 0.39479 0.77293 0.0
H276 H 0.88532 0.40723 0.7476 0.0
H277 H 0.84851 0.42418 0.76773 0.0
H278 H 0.91943 0.46092 0.80686 0.0
H279 H 0.94269 0.45908 0.73568 0.0
H280 H 0.95295 0.51307 0.82607 0.0
H281 H 0.96833 0.49234 0.83366 0.0
H282 H 0.93829 0.48632 0.83676 0.0
H283 H 0.97421 0.48562 0.72317 0.0
H284 H 0.99614 0.48912 0.74571 0.0
H285 H 0.98253 0.51187 0.74081 0.0
H286 H 0.91381 0.63209 0.72251 0.0
H287 H 0.92814 0.6376 0.80099 0.0
H288 H 0.94822 0.62687 0.7297 0.0
H289 H 0.96016 0.60268 0.82788 0.0
H290 H 0.94552 0.62505 0.8339 0.0
H291 H 0.97548 0.63156 0.83033 0.0
H292 H 0.97991 0.61307 0.72081 0.0
H293 H 0.98178 0.59036 0.73975 0.0
H294 H 0.00128 0.61711 0.74405 0.0
H295 H 0.12906 0.64566 0.82536 0.0
H296 H 0.16038 0.6547 0.85494 0.0
H297 H 0.1339 0.64402 0.86843 0.0
H298 H 0.14657 0.6739 0.87115 0.0
H299 H 0.07393 0.65788 0.86478 0.0
H300 H 0.10257 0.65206 0.79673 0.0
H301 H 0.02649 0.61469 0.85572 0.0
H302 H 0.0174 0.63929 0.84685 0.0
H303 H 0.03621 0.64137 0.87225 0.0
H304 H 0.08029 0.63594 0.76287 0.0
H305 H 0.05009 0.62992 0.76476 0.0
H306 H 0.06515 0.60877 0.77189 0.0
H307 H 0.00467 0.48545 0.79696 0.0
H308 H 0.95251 0.53124 0.77814 0.0
H309 H 0.95414 0.57117 0.77819 0.0
H310 H 0.01096 0.63863 0.79771 0.0
H311 H 0.06217 0.59245 0.81918 0.0
H312 H 0.0608 0.55269 0.8181 0.0
H313 H 0.93017 0.68311 0.73705 0.0
H314 H 0.92437 0.67132 0.70702 0.0
H315 H 0.94684 0.66492 0.72437 0.0
C316 C 0.31203 0.20399 0.69069 0.0
C317 C 0.32345 0.2164 0.66961 0.0
C318 C 0.31851 0.19428 0.63204 0.0
C319 C 0.34091 0.19818 0.62506 0.0
C320 C 0.34795 0.18309 0.60892 0.0
C321 C 0.33219 0.1639 0.59935 0.0
C322 C 0.30938 0.16064 0.60535 0.0
C323 C 0.3028 0.17603 0.62152 0.0
C324 C 0.37231 0.18738 0.60244 0.0
C325 C 0.2921 0.14059 0.59512 0.0
C326 C 0.40091 0.00995 0.62745 0.0
C327 C 0.38213 0.02287 0.62662 0.0
C328 C 0.38176 0.06168 0.61601 0.0
C329 C 0.35874 0.05757 0.61 0.0
C330 C 0.34958 0.07438 0.59987 0.0
C331 C 0.36368 0.09564 0.59574 0.0
C332 C 0.38665 0.10007 0.60263 0.0
C333 C 0.39535 0.08301 0.61273 0.0
C334 C 0.32496 0.06928 0.59298 0.0
C335 C 0.40214 0.12264 0.59873 0.0
C336 C 0.3947 0.06929 0.44869 0.0
C337 C 0.37138 0.06446 0.45167 0.0
C338 C 0.36091 0.08093 0.46167 0.0
C339 C 0.37408 0.10246 0.46918 0.0
C340 C 0.39741 0.10763 0.46522 0.0
C341 C 0.40734 0.091 0.45476 0.0
C342 C 0.3359 0.07509 0.46497 0.0
C343 C 0.41199 0.13043 0.47283 0.0
C344 C 0.34429 0.26334 0.47371 0.0
C345 C 0.35342 0.25683 0.44991 0.0
C346 C 0.3458 0.21544 0.45246 0.0
C347 C 0.32933 0.1956 0.44788 0.0
C348 C 0.33072 0.17533 0.45834 0.0
C349 C 0.34938 0.17484 0.47331 0.0
C350 C 0.3666 0.19461 0.47723 0.0
C351 C 0.36451 0.21474 0.46704 0.0
C352 C 0.3121 0.15456 0.45374 0.0
C353 C 0.38722 0.19459 0.49236 0.0
C354 C 0.33984 0.14661 0.58419 0.0
C355 C 0.34653 0.129 0.59548 0.0
C356 C 0.35495 0.11268 0.58259 0.0
C357 C 0.35646 0.11362 0.5577 0.0
C358 C 0.3648 0.09739 0.54424 0.0
C359 C 0.36703 0.09888 0.5199 0.0
C360 C 0.36104 0.11666 0.50801 0.0
C361 C 0.364 0.1187 0.48335 0.0
C362 C 0.35901 0.13725 0.4723 0.0
C363 C 0.35096 0.15387 0.48524 0.0
C364 C 0.34694 0.15154 0.50972 0.0
C365 C 0.3381 0.16748 0.52311 0.0
C366 C 0.33539 0.16572 0.54745 0.0
C367 C 0.34153 0.14802 0.55933 0.0
C368 C 0.34991 0.13145 0.54606 0.0
C369 C 0.35238 0.13307 0.52119 0.0
C370 C 0.41818 0.0194 0.44082 0.0
C371 C 0.39797 0.03029 0.43902 0.0
O372 O 0.31159 0.20772 0.64886 0.0
O373 O 0.34291 0.23478 0.44267 0.0
O374 O 0.40569 0.05361 0.44011 0.0
O375 O 0.39162 0.04569 0.62489 0.0
H376 H 0.34066 0.21315 0.66968 0.0
H377 H 0.313 0.18591 0.6891 0.0
H378 H 0.29405 0.20466 0.69122 0.0
H379 H 0.32061 0.21155 0.70761 0.0
H380 H 0.35292 0.21295 0.63226 0.0
H381 H 0.28546 0.17343 0.62667 0.0
H382 H 0.37966 0.17327 0.60825 0.0
H383 H 0.3823 0.20352 0.61073 0.0
H384 H 0.37374 0.18791 0.5829 0.0
H385 H 0.27485 0.14107 0.6006 0.0
H386 H 0.29616 0.1247 0.60104 0.0
H387 H 0.29254 0.1401 0.57546 0.0
H388 H 0.37161 0.01634 0.61042 0.0
H389 H 0.39379 0.99148 0.62826 0.0
H390 H 0.41222 0.01582 0.64319 0.0
H391 H 0.41095 0.01281 0.61122 0.0
H392 H 0.34788 0.0413 0.61297 0.0
H393 H 0.41301 0.08609 0.61769 0.0
H394 H 0.32299 0.0699 0.57345 0.0
H395 H 0.31699 0.08239 0.60122 0.0
H396 H 0.31596 0.05237 0.59845 0.0
H397 H 0.41935 0.12374 0.60605 0.0
H398 H 0.39534 0.13648 0.60719 0.0
H399 H 0.40315 0.12543 0.57945 0.0
H400 H 0.38739 0.02507 0.45455 0.0
H401 H 0.36132 0.04788 0.44636 0.0
H402 H 0.42525 0.09464 0.45202 0.0
H403 H 0.33249 0.07298 0.48407 0.0
H404 H 0.32762 0.05915 0.45495 0.0
H405 H 0.3283 0.08904 0.45915 0.0
H406 H 0.42999 0.13144 0.46931 0.0
H407 H 0.41022 0.13399 0.49207 0.0
H408 H 0.40643 0.14387 0.46318 0.0
H409 H 0.37181 0.25833 0.45181 0.0
H410 H 0.35259 0.28098 0.47961 0.0
H411 H 0.34761 0.25199 0.48757 0.0
H412 H 0.32589 0.26195 0.47211 0.0
H413 H 0.31504 0.1962 0.43651 0.0
H414 H 0.37764 0.22973 0.47062 0.0
H415 H 0.30552 0.14788 0.47083 0.0
H416 H 0.31878 0.14113 0.44429 0.0
H417 H 0.29804 0.15809 0.4429 0.0
H418 H 0.40059 0.2101 0.49053 0.0
H419 H 0.39411 0.17957 0.48753 0.0
H420 H 0.38264 0.19365 0.51127 0.0
H421 H 0.34567 0.1283 0.61461 0.0
H422 H 0.36985 0.08341 0.55238 0.0
H423 H 0.3738 0.08599 0.51062 0.0
H424 H 0.36224 0.13923 0.4536 0.0
H425 H 0.33329 0.18158 0.51493 0.0
H426 H 0.3287 0.17858 0.55689 0.0
H427 H 0.42935 0.02387 0.42563 0.0
H428 H 0.41262 0.00067 0.44098 0.0
H429 H 0.4279 0.02553 0.45754 0.0
C430 C 0.41974 0.78973 0.15813 0.0
C431 C 0.41864 0.81063 0.14431 0.0
C432 C 0.43349 0.80727 0.1049 0.0
C433 C 0.44856 0.82822 0.1033 0.0
C434 C 0.46625 0.83072 0.08742 0.0
C435 C 0.46896 0.8118 0.07308 0.0
C436 C 0.45339 0.79079 0.07432 0.0
C437 C 0.43557 0.78896 0.08993 0.0
C438 C 0.48223 0.85347 0.0862 0.0
C439 C 0.45593 0.77012 0.05967 0.0
C440 C 0.59397 0.80105 0.15737 0.0
C441 C 0.59871 0.78911 0.13417 0.0
C442 C 0.58475 0.80589 0.10038 0.0
C443 C 0.57079 0.78665 0.08909 0.0
C444 C 0.55278 0.78866 0.07425 0.0
C445 C 0.54891 0.81039 0.07039 0.0
C446 C 0.56375 0.82988 0.08066 0.0
C447 C 0.58166 0.82736 0.09542 0.0
C448 C 0.53759 0.76757 0.06308 0.0
C449 C 0.5603 0.8533 0.07655 0.0
C450 C 0.58752 0.81969 0.92183 0.0
C451 C 0.57292 0.79903 0.92627 0.0
C452 C 0.55216 0.79859 0.93666 0.0
C453 C 0.54601 0.81924 0.94282 0.0
C454 C 0.56015 0.84001 0.93704 0.0
C455 C 0.58066 0.83991 0.92632 0.0
C456 C 0.53712 0.77611 0.94179 0.0
C457 C 0.55399 0.86232 0.94305 0.0
C458 C 0.38759 0.85485 0.94103 0.0
C459 C 0.39808 0.85452 0.91659 0.0
C460 C 0.42732 0.83334 0.92388 0.0
C461 C 0.43221 0.81187 0.92234 0.0
C462 C 0.45164 0.80777 0.93331 0.0
C463 C 0.46675 0.82576 0.94578 0.0
C464 C 0.46238 0.84772 0.94667 0.0
C465 C 0.44264 0.85124 0.936 0.0
C466 C 0.45581 0.78415 0.93197 0.0
C467 C 0.47844 0.86749 0.95923 0.0
C468 C 0.489 0.81347 0.05823 0.0
C469 C 0.50908 0.81207 0.0696 0.0
C470 C 0.52854 0.81257 0.05691 0.0
C471 C 0.5281 0.81443 0.03208 0.0
C472 C 0.54736 0.81479 0.01878 0.0
C473 C 0.54671 0.8164 0.99431 0.0
C474 C 0.52676 0.8177 0.98216 0.0
C475 C 0.52593 0.81922 0.95724 0.0
C476 C 0.50604 0.82123 0.94582 0.0
C477 C 0.48675 0.82162 0.95865 0.0
C478 C 0.48709 0.81944 0.9835 0.0
C479 C 0.46785 0.8192 0.9969 0.0
C480 C 0.46845 0.81741 0.02139 0.0
C481 C 0.48825 0.81561 0.0334 0.0
C482 C 0.50786 0.81591 0.02027 0.0
C483 C 0.50722 0.81763 0.99528 0.0
C484 C 0.6441 0.82207 0.93108 0.0
C485 C 0.62272 0.80711 0.91971 0.0
O486 O 0.41648 0.80436 0.12031 0.0
O487 O 0.40771 0.83593 0.91368 0.0
O488 O 0.60831 0.82072 0.91331 0.0
O489 O 0.60122 0.80423 0.11618 0.0
H490 H 0.43443 0.82358 0.14831 0.0
H491 H 0.43402 0.78258 0.15202 0.0
H492 H 0.40399 0.77653 0.15524 0.0
H493 H 0.42237 0.79423 0.17741 0.0
H494 H 0.44639 0.84262 0.11431 0.0
H495 H 0.42358 0.77297 0.09113 0.0
H496 H 0.49879 0.8526 0.09401 0.0
H497 H 0.47612 0.86712 0.09599 0.0
H498 H 0.48478 0.85797 0.06744 0.0
H499 H 0.44341 0.75468 0.06408 0.0
H500 H 0.47302 0.76709 0.0625 0.0
H501 H 0.45385 0.77297 0.04057 0.0
H502 H 0.58399 0.77479 0.13054 0.0
H503 H 0.59275 0.7894 0.17218 0.0
H504 H 0.57776 0.80631 0.15556 0.0
H505 H 0.60733 0.81642 0.16181 0.0
H506 H 0.57386 0.77004 0.09194 0.0
H507 H 0.59283 0.84212 0.10386 0.0
H508 H 0.53673 0.76882 0.04355 0.0
H509 H 0.52033 0.76601 0.06965 0.0
H510 H 0.54336 0.75198 0.0671 0.0
H511 H 0.57397 0.86679 0.08479 0.0
H512 H 0.54411 0.85515 0.08406 0.0
H513 H 0.55934 0.85576 0.05722 0.0
H514 H 0.61518 0.79523 0.93336 0.0
H515 H 0.57779 0.78328 0.92178 0.0
H516 H 0.59188 0.85573 0.92234 0.0
H517 H 0.537 0.77402 0.96121 0.0
H518 H 0.54279 0.76165 0.93306 0.0
H519 H 0.51963 0.77557 0.93572 0.0
H520 H 0.56689 0.87699 0.93751 0.0
H521 H 0.55185 0.8642 0.96247 0.0
H522 H 0.53773 0.86265 0.93419 0.0
H523 H 0.4111 0.87036 0.91507 0.0
H524 H 0.37951 0.8695 0.94319 0.0
H525 H 0.40065 0.85649 0.95529 0.0
H526 H 0.3748 0.83896 0.94323 0.0
H527 H 0.42045 0.79817 0.91289 0.0
H528 H 0.43942 0.86805 0.93743 0.0
H529 H 0.45787 0.77846 0.95014 0.0
H530 H 0.47164 0.7842 0.92264 0.0
H531 H 0.44194 0.77178 0.92249 0.0
H532 H 0.47427 0.88395 0.95552 0.0
H533 H 0.49589 0.86799 0.9538 0.0
H534 H 0.47784 0.86545 0.97866 0.0
H535 H 0.5095 0.8103 0.08864 0.0
H536 H 0.56315 0.81381 0.02716 0.0
H537 H 0.5621 0.81664 0.98506 0.0
H538 H 0.50568 0.82291 0.92678 0.0
H539 H 0.45209 0.82038 0.9886 0.0
H540 H 0.45318 0.81742 0.0308 0.0
H541 H 0.65594 0.81155 0.9364 0.0
H542 H 0.63988 0.83129 0.94719 0.0
H543 H 0.6525 0.8347 0.91858 0.0
C544 C 0.73948 0.08068 0.63328 0.0
C545 C 0.75123 0.09832 0.61634 0.0
C546 C 0.75075 0.0743 0.58044 0.0
C547 C 0.77328 0.07287 0.5793 0.0
C548 C 0.77938 0.05509 0.56613 0.0
C549 C 0.76254 0.03827 0.55415 0.0
C550 C 0.73981 0.03982 0.55518 0.0
C551 C 0.7343 0.05813 0.56793 0.0
C552 C 0.80382 0.05423 0.56507 0.0
C553 C 0.72129 0.02196 0.54318 0.0
C554 C 0.79979 0.92749 0.6515 0.0
C555 C 0.78315 0.91695 0.6313 0.0
C556 C 0.78989 0.933 0.59283 0.0
C557 C 0.76794 0.93321 0.5854 0.0
C558 C 0.76389 0.94857 0.5689 0.0
C559 C 0.78221 0.96409 0.55976 0.0
C560 C 0.80441 0.96333 0.5666 0.0
C561 C 0.80796 0.94749 0.58282 0.0
C562 C 0.74003 0.94849 0.56155 0.0
C563 C 0.82434 0.97969 0.55731 0.0
C564 C 0.79584 0.9135 0.41097 0.0
C565 C 0.77394 0.91408 0.41745 0.0
C566 C 0.76908 0.93396 0.42755 0.0
C567 C 0.78657 0.95353 0.43143 0.0
C568 C 0.80849 0.95318 0.42407 0.0
C569 C 0.81276 0.93318 0.41361 0.0
C570 C 0.74533 0.93399 0.43432 0.0
C571 C 0.82749 0.97377 0.42773 0.0
C572 C 0.76015 0.11467 0.40556 0.0
C573 C 0.76946 0.10373 0.38408 0.0
C574 C 0.76401 0.06448 0.39667 0.0
C575 C 0.74739 0.04468 0.39801 0.0
C576 C 0.75025 0.02739 0.41267 0.0
C577 C 0.77066 0.02967 0.42574 0.0
C578 C 0.78792 0.04935 0.42383 0.0
C579 C 0.78428 0.06673 0.40965 0.0
C580 C 0.73138 0.00676 0.41429 0.0
C581 C 0.81027 0.05203 0.43671 0.0
C582 C 0.76861 0.01864 0.54134 0.0
C583 C 0.77276 0.00114 0.5548 0.0
C584 C 0.77806 0.98185 0.54408 0.0
C585 C 0.77912 0.97976 0.51912 0.0
C586 C 0.78398 0.96041 0.50772 0.0
C587 C 0.7851 0.95855 0.48316 0.0
C588 C 0.78121 0.9759 0.46901 0.0
C589 C 0.78211 0.97405 0.444 0.0
C590 C 0.77865 0.99182 0.43051 0.0
C591 C 0.77397 0.01142 0.44126 0.0
C592 C 0.77252 0.01337 0.46624 0.0
C593 C 0.76733 0.03258 0.47766 0.0
C594 C 0.76626 0.03446 0.50224 0.0
C595 C 0.76998 0.01705 0.51636 0.0
C596 C 0.77516 0.99748 0.50522 0.0
C597 C 0.77632 0.99559 0.48014 0.0
C598 C 0.81434 0.87036 0.42801 0.0
C599 C 0.79529 0.87327 0.41136 0.0
O600 O 0.74436 0.0912 0.59317 0.0
O601 O 0.7598 0.08071 0.38248 0.0
O602 O 0.80101 0.89435 0.40169 0.0
O603 O 0.79401 0.91928 0.60992 0.0
H604 H 0.76967 0.10031 0.61859 0.0
H605 H 0.74387 0.06414 0.62913 0.0
H606 H 0.72097 0.07839 0.63152 0.0
H607 H 0.74488 0.08597 0.65195 0.0
H608 H 0.78618 0.08579 0.58831 0.0
H609 H 0.71697 0.05955 0.56881 0.0
H610 H 0.80671 0.03967 0.57496 0.0
H611 H 0.81504 0.06993 0.57287 0.0
H612 H 0.80847 0.0516 0.5464 0.0
H613 H 0.70438 0.02427 0.54798 0.0
H614 H 0.72288 0.00483 0.54807 0.0
H615 H 0.72271 0.02269 0.52366 0.0
H616 H 0.76979 0.92682 0.63196 0.0
H617 H 0.79198 0.92412 0.66897 0.0
H618 H 0.80473 0.94612 0.64989 0.0
H619 H 0.81529 0.92083 0.65076 0.0
H620 H 0.75397 0.92145 0.5926 0.0
H621 H 0.82485 0.94697 0.5885 0.0
H622 H 0.73831 0.94814 0.54192 0.0
H623 H 0.73566 0.96428 0.56864 0.0
H624 H 0.72786 0.93379 0.56818 0.0
H625 H 0.84046 0.97762 0.56527 0.0
H626 H 0.8227 0.99737 0.56112 0.0
H627 H 0.82484 0.97705 0.53778 0.0
H628 H 0.77992 0.87178 0.42197 0.0
H629 H 0.76061 0.89908 0.41443 0.0
H630 H 0.82952 0.93261 0.4081 0.0
H631 H 0.74443 0.93528 0.45393 0.0
H632 H 0.73324 0.91839 0.42759 0.0
H633 H 0.74016 0.94894 0.42729 0.0
H634 H 0.84378 0.97042 0.42198 0.0
H635 H 0.82911 0.9795 0.44676 0.0
H636 H 0.82378 0.98782 0.41756 0.0
H637 H 0.78798 0.10659 0.38615 0.0
H638 H 0.76822 0.13295 0.40795 0.0
H639 H 0.76357 0.10646 0.42199 0.0
H640 H 0.74172 0.11274 0.4033 0.0
H641 H 0.73186 0.04302 0.38783 0.0
H642 H 0.79751 0.08174 0.40858 0.0
H643 H 0.72793 0.0032 0.43315 0.0
H644 H 0.73639 0.99181 0.40587 0.0
H645 H 0.71569 0.00881 0.40533 0.0
H646 H 0.82306 0.0664 0.43037 0.0
H647 H 0.81662 0.03629 0.43441 0.0
H648 H 0.80822 0.05516 0.45596 0.0
H649 H 0.77174 0.00251 0.57396 0.0
H650 H 0.787 0.94647 0.51767 0.0
H651 H 0.78904 0.9433 0.47541 0.0
H652 H 0.77958 0.99034 0.41135 0.0
H653 H 0.76407 0.04643 0.46773 0.0
H654 H 0.76241 0.04974 0.51005 0.0
H655 H 0.83017 0.87175 0.41825 0.0
H656 H 0.81003 0.8536 0.43605 0.0
H657 H 0.81709 0.88373 0.44254 0.0
C658 C 0.40652 0.35836 0.10626 0.0
C659 C 0.42318 0.36884 0.12657 0.0
C660 C 0.45635 0.38983 0.10656 0.0
C661 C 0.46892 0.41143 0.10233 0.0
C662 C 0.48858 0.41437 0.08929 0.0
C663 C 0.49573 0.39513 0.0802 0.0
C664 C 0.48322 0.37319 0.0845 0.0
C665 C 0.46363 0.37073 0.09759 0.0
C666 C 0.5016 0.43799 0.08499 0.0
C667 C 0.49046 0.35232 0.07505 0.0
C668 C 0.65134 0.42419 0.16073 0.0
C669 C 0.63738 0.40559 0.14403 0.0
C670 C 0.61677 0.41019 0.10784 0.0
C671 C 0.60193 0.38889 0.10619 0.0
C672 C 0.58256 0.38503 0.09148 0.0
C673 C 0.57772 0.40303 0.07867 0.0
C674 C 0.59283 0.4245 0.08026 0.0
C675 C 0.61246 0.42756 0.09437 0.0
C676 C 0.56719 0.36177 0.08987 0.0
C677 C 0.58808 0.44444 0.06761 0.0
C678 C 0.61237 0.39657 0.9283 0.0
C679 C 0.5973 0.37658 0.93393 0.0
C680 C 0.57696 0.37739 0.94463 0.0
C681 C 0.57173 0.39863 0.94994 0.0
C682 C 0.5863 0.4187 0.94298 0.0
C683 C 0.60638 0.41735 0.93196 0.0
C684 C 0.5614 0.3556 0.95101 0.0
C685 C 0.5811 0.4416 0.9481 0.0
C686 C 0.41717 0.44429 0.94847 0.0
C687 C 0.4275 0.44167 0.92426 0.0
C688 C 0.45471 0.41826 0.93256 0.0
C689 C 0.45842 0.39632 0.93068 0.0
C690 C 0.47757 0.39111 0.94109 0.0
C691 C 0.49353 0.40842 0.95345 0.0
C692 C 0.49027 0.43082 0.95482 0.0
C693 C 0.47083 0.43548 0.94459 0.0
C694 C 0.48051 0.36705 0.93936 0.0
C695 C 0.50717 0.44985 0.96747 0.0
C696 C 0.51608 0.39779 0.06578 0.0
C697 C 0.53664 0.39896 0.07747 0.0
C698 C 0.55625 0.39991 0.06484 0.0
C699 C 0.55525 0.39911 0.03975 0.0
C700 C 0.57427 0.3985 0.02637 0.0
C701 C 0.57325 0.39853 0.00173 0.0
C702 C 0.55318 0.39931 0.98952 0.0
C703 C 0.55207 0.39992 0.96451 0.0
C704 C 0.53224 0.40215 0.9531 0.0
C705 C 0.51314 0.40312 0.96602 0.0
C706 C 0.5135 0.40094 0.99084 0.0
C707 C 0.49417 0.40032 0.00415 0.0
C708 C 0.49486 0.39888 0.02865 0.0
C709 C 0.51503 0.39855 0.04083 0.0
C710 C 0.53467 0.39903 0.02777 0.0
C711 C 0.53375 0.39963 0.00268 0.0
C712 C 0.66973 0.39546 0.93327 0.0
C713 C 0.6462 0.38173 0.92622 0.0
O714 O 0.43728 0.3883 0.11903 0.0
O715 O 0.4354 0.42191 0.92273 0.0
O716 O 0.63295 0.39643 0.91977 0.0
O717 O 0.63541 0.41461 0.12218 0.0
H718 H 0.433 0.35626 0.13149 0.0
H719 H 0.4156 0.35578 0.0899 0.0
H720 H 0.39508 0.36971 0.10227 0.0
H721 H 0.39661 0.34152 0.11089 0.0
H722 H 0.46319 0.42606 0.10926 0.0
H723 H 0.45408 0.35384 0.10042 0.0
H724 H 0.5191 0.44027 0.09192 0.0
H725 H 0.49398 0.45123 0.09355 0.0
H726 H 0.50236 0.44046 0.06563 0.0
H727 H 0.47913 0.33642 0.0803 0.0
H728 H 0.50773 0.35264 0.08168 0.0
H729 H 0.49081 0.35222 0.05539 0.0
H730 H 0.62052 0.40032 0.15186 0.0
H731 H 0.65254 0.41795 0.17881 0.0
H732 H 0.64328 0.43889 0.16204 0.0
H733 H 0.66853 0.42997 0.15399 0.0
H734 H 0.60553 0.37523 0.11622 0.0
H735 H 0.62418 0.44388 0.09569 0.0
H736 H 0.55199 0.36209 0.1002 0.0
H737 H 0.57537 0.34876 0.09707 0.0
H738 H 0.56172 0.35672 0.07118 0.0
H739 H 0.59919 0.46069 0.07425 0.0
H740 H 0.57037 0.44564 0.06975 0.0
H741 H 0.59085 0.44218 0.04838 0.0
H742 H 0.63964 0.37273 0.9423 0.0
H743 H 0.60152 0.36037 0.93021 0.0
H744 H 0.61798 0.43264 0.92712 0.0
H745 H 0.56158 0.35442 0.97057 0.0
H746 H 0.56637 0.34047 0.94292 0.0
H747 H 0.54393 0.35541 0.94514 0.0
H748 H 0.59429 0.45561 0.94177 0.0
H749 H 0.57939 0.44439 0.96748 0.0
H750 H 0.56484 0.44218 0.93938 0.0
H751 H 0.44151 0.45653 0.92188 0.0
H752 H 0.41048 0.4599 0.94951 0.0
H753 H 0.43003 0.44566 0.9629 0.0
H754 H 0.40334 0.42945 0.95145 0.0
H755 H 0.44598 0.38314 0.92132 0.0
H756 H 0.46842 0.45259 0.9463 0.0
H757 H 0.48224 0.36098 0.95742 0.0
H758 H 0.49615 0.36641 0.92995 0.0
H759 H 0.4662 0.35537 0.92978 0.0
H760 H 0.5038 0.46673 0.96415 0.0
H761 H 0.5244 0.44959 0.96176 0.0
H762 H 0.50665 0.44754 0.98686 0.0
H763 H 0.53738 0.3992 0.0967 0.0
H764 H 0.59018 0.39803 0.03482 0.0
H765 H 0.5885 0.39825 0.99241 0.0
H766 H 0.53178 0.40354 0.93402 0.0
H767 H 0.47825 0.40083 0.99575 0.0
H768 H 0.47946 0.39844 0.03795 0.0
H769 H 0.68074 0.38399 0.93831 0.0
H770 H 0.66879 0.40713 0.94876 0.0
H771 H 0.67736 0.40572 0.91848 0.0
H772 H 0.25219 0.43631 0.23902 0.0
H773 H 0.23126 0.41557 0.30907 0.0
H774 H 0.19311 0.42051 0.29964 0.0
H775 H 0.22114 0.47925 0.23313 0.0
H776 H 0.21646 0.47308 0.20168 0.0
H777 H 0.24125 0.46803 0.21618 0.0
H778 H 0.23125 0.42644 0.2002 0.0
H779 H 0.2063 0.43097 0.18566 0.0
H780 H 0.20431 0.40883 0.20633 0.0
H781 H 0.14997 0.42311 0.28473 0.0
H782 H 0.1131 0.43282 0.25686 0.0
H783 H 0.16905 0.45478 0.18971 0.0
C784 C 0.23952 0.43292 0.25233 0.0
C785 C 0.24459 0.42557 0.27474 0.0
C786 C 0.22772 0.42127 0.2918 0.0
C787 C 0.20602 0.424 0.28659 0.0
C788 C 0.20138 0.43111 0.26432 0.0
C789 C 0.21787 0.43567 0.24701 0.0
C790 C 0.21042 0.44309 0.22292 0.0
C791 C 0.22307 0.46729 0.21821 0.0
C792 C 0.21324 0.42634 0.20259 0.0
C793 C 0.18617 0.44238 0.22647 0.0
C794 C 0.18023 0.4344 0.25534 0.0
C795 C 0.15271 0.42923 0.2671 0.0
C796 C 0.12951 0.43397 0.24952 0.0
C797 C 0.13808 0.44879 0.22159 0.0
C798 C 0.16495 0.44778 0.20677 0.0
H799 H 0.19198 0.79049 0.81924 0.0
H800 H 0.23287 0.76629 0.76632 0.0
H801 H 0.21038 0.7273 0.76953 0.0
H802 H 0.18755 0.74487 0.85617 0.0
H803 H 0.15905 0.74428 0.86422 0.0
H804 H 0.17703 0.77038 0.85609 0.0
H805 H 0.14801 0.77454 0.8235 0.0
H806 H 0.12993 0.74838 0.83152 0.0
H807 H 0.1387 0.7519 0.80136 0.0
H808 H 0.18496 0.69065 0.78058 0.0
H809 H 0.15921 0.65921 0.79921 0.0
H810 H 0.13552 0.70769 0.84504 0.0
C811 C 0.19606 0.77707 0.80807 0.0
C812 C 0.21414 0.78144 0.79248 0.0
C813 C 0.21907 0.76333 0.77838 0.0
C814 C 0.20634 0.74116 0.78002 0.0
C815 C 0.18876 0.73743 0.79578 0.0
C816 C 0.18363 0.75491 0.80954 0.0
C817 C 0.16478 0.74632 0.82609 0.0
C818 C 0.17258 0.75178 0.85218 0.0
C819 C 0.14413 0.75585 0.82026 0.0
C820 C 0.16041 0.72119 0.81988 0.0
C821 C 0.17421 0.7164 0.80217 0.0
C822 C 0.17387 0.69423 0.79422 0.0
C823 C 0.1592 0.67651 0.80485 0.0
C824 C 0.1451 0.68109 0.82318 0.0
C825 C 0.14572 0.70375 0.83067 0.0
H826 H 0.81589 0.68896 0.20377 0.0
H827 H 0.87501 0.74406 0.20945 0.0
H828 H 0.89915 0.71645 0.20558 0.0
H829 H 0.83835 0.64914 0.23663 0.0
H830 H 0.82474 0.62505 0.21779 0.0
H831 H 0.81222 0.64917 0.22135 0.0
H832 H 0.81155 0.65268 0.17578 0.0
H833 H 0.82413 0.62861 0.17208 0.0
H834 H 0.83724 0.65515 0.15993 0.0
H835 H 0.9168 0.68264 0.20167 0.0
H836 H 0.92665 0.64545 0.19662 0.0
H837 H 0.85571 0.61282 0.19284 0.0
C838 C 0.83391 0.69524 0.2043 0.0
C839 C 0.84357 0.71868 0.20698 0.0
C840 C 0.86723 0.72619 0.2074 0.0
C841 C 0.88108 0.71063 0.20524 0.0
C842 C 0.87101 0.68765 0.20256 0.0
C843 C 0.84797 0.67998 0.20201 0.0
C844 C 0.84135 0.65444 0.19854 0.0
C845 C 0.82841 0.64383 0.21985 0.0
C846 C 0.82777 0.64731 0.1752 0.0
C847 C 0.86428 0.64892 0.19733 0.0
C848 C 0.88116 0.66828 0.1997 0.0
C849 C 0.9037 0.66738 0.19946 0.0
C850 C 0.90911 0.64614 0.19644 0.0
C851 C 0.8921 0.626 0.19327 0.0
C852 C 0.86935 0.62761 0.19431 0.0
H853 H 0.79404 0.33444 0.78205 0.0
H854 H 0.78912 0.33922 0.70589 0.0
H855 H 0.81935 0.3739 0.70842 0.0
H856 H 0.79979 0.3905 0.7985 0.0
H857 H 0.81837 0.39008 0.82355 0.0
H858 H 0.79855 0.36465 0.8135 0.0
H859 H 0.83039 0.34332 0.80844 0.0
H860 H 0.85053 0.36842 0.81892 0.0
H861 H 0.85397 0.35482 0.79062 0.0
H862 H 0.84883 0.41624 0.71518 0.0
H863 H 0.87935 0.45574 0.73749 0.0
H864 H 0.86276 0.41847 0.81777 0.0
C865 C 0.79962 0.34266 0.7659 0.0
C866 C 0.7893 0.33417 0.74378 0.0
C867 C 0.79685 0.34538 0.72302 0.0
C868 C 0.81398 0.3651 0.7243 0.0
C869 C 0.82346 0.37346 0.7464 0.0
C870 C 0.81655 0.36245 0.76735 0.0
C871 C 0.82756 0.37405 0.79082 0.0
C872 C 0.81003 0.38017 0.80756 0.0
C873 C 0.84143 0.35928 0.80291 0.0
C874 C 0.84254 0.395 0.78257 0.0
C875 C 0.83988 0.3942 0.75172 0.0
C876 C 0.85232 0.41724 0.73408 0.0
C877 C 0.87019 0.44234 0.74788 0.0
C878 C 0.87758 0.43942 0.77979 0.0
C879 C 0.85968 0.41872 0.79887 0.0
H880 H 0.28876 0.30756 0.34749 0.0
H881 H 0.34112 0.36896 0.35613 0.0
H882 H 0.36018 0.35123 0.38642 0.0
H883 H 0.28657 0.2956 0.40962 0.0
H884 H 0.28135 0.26534 0.40417 0.0
H885 H 0.2721 0.28264 0.38269 0.0
H886 H 0.29415 0.26599 0.35029 0.0
H887 H 0.30359 0.24875 0.37171 0.0
H888 H 0.32373 0.26775 0.35497 0.0
H889 H 0.37392 0.32684 0.41508 0.0
H890 H 0.38017 0.29812 0.44256 0.0
H891 H 0.31799 0.25319 0.41696 0.0
C892 C 0.30424 0.31725 0.35576 0.0
C893 C 0.31351 0.33961 0.34943 0.0
C894 C 0.33368 0.35184 0.36079 0.0
C895 C 0.34468 0.34188 0.37793 0.0
C896 C 0.33517 0.31979 0.3837 0.0
C897 C 0.31528 0.30769 0.3732 0.0
C898 C 0.30829 0.28448 0.38327 0.0
C899 C 0.28574 0.28187 0.39568 0.0
C900 C 0.30739 0.26563 0.3639 0.0
C901 C 0.32743 0.28542 0.40097 0.0
C902 C 0.34283 0.30587 0.40075 0.0
C903 C 0.362 0.31075 0.41541 0.0
C904 C 0.36545 0.29433 0.43086 0.0
C905 C 0.34983 0.27329 0.43161 0.0
C906 C 0.33047 0.26891 0.41652 0.0
H907 H 0.32567 0.91077 0.82851 0.0
H908 H 0.27824 0.84598 0.82011 0.0
H909 H 0.30346 0.82857 0.84403 0.0
H910 H 0.37694 0.89008 0.82804 0.0
H911 H 0.39058 0.91066 0.8507 0.0
H912 H 0.36972 0.91731 0.831 0.0
H913 H 0.3471 0.9265 0.86712 0.0
H914 H 0.36789 0.91993 0.8869 0.0
H915 H 0.33889 0.90553 0.88884 0.0
H916 H 0.33345 0.81887 0.87115 0.0
H917 H 0.36454 0.81827 0.89977 0.0
H918 H 0.3909 0.88989 0.89132 0.0
C919 C 0.32066 0.89284 0.83143 0.0
C920 C 0.3003 0.87958 0.82167 0.0
C921 C 0.29421 0.85628 0.82633 0.0
C922 C 0.30834 0.8463 0.84021 0.0
C923 C 0.32838 0.8599 0.84946 0.0
C924 C 0.33442 0.88272 0.84532 0.0
C925 C 0.35604 0.89406 0.85841 0.0
C926 C 0.37441 0.90358 0.84099 0.0
C927 C 0.35224 0.91259 0.87638 0.0
C928 C 0.36121 0.87413 0.87074 0.0
C929 C 0.3452 0.8545 0.86529 0.0
C930 C 0.34619 0.83411 0.87533 0.0
C931 C 0.3639 0.83389 0.89148 0.0
C932 C 0.38034 0.85393 0.89739 0.0
C933 C 0.37886 0.87421 0.88677 0.0
H934 H 0.81221 0.81258 0.28616 0.0
H935 H 0.76151 0.75473 0.3063 0.0
H936 H 0.75862 0.77415 0.34505 0.0
H937 H 0.83944 0.82644 0.34483 0.0
H938 H 0.84447 0.85652 0.34123 0.0
H939 H 0.84351 0.83741 0.31569 0.0
H940 H 0.81263 0.85438 0.29626 0.0
H941 H 0.8133 0.87335 0.32184 0.0
H942 H 0.78726 0.85461 0.31195 0.0
H943 H 0.75963 0.80073 0.38068 0.0
H944 H 0.76578 0.83206 0.41138 0.0
H945 H 0.81605 0.87223 0.36816 0.0
C946 C 0.80074 0.80381 0.29884 0.0
C947 C 0.78712 0.78208 0.29316 0.0
C948 C 0.77218 0.77134 0.31022 0.0
C949 C 0.77038 0.78225 0.33228 0.0
C950 C 0.7837 0.80385 0.33708 0.0
C951 C 0.79874 0.81444 0.32094 0.0
C952 C 0.81065 0.83793 0.33021 0.0
C953 C 0.83602 0.83967 0.33317 0.0
C954 C 0.80565 0.85613 0.3141 0.0
C955 C 0.79978 0.83899 0.35398 0.0
C956 C 0.78427 0.81916 0.3576 0.0
C957 C 0.77177 0.81632 0.37806 0.0
C958 C 0.77527 0.8342 0.39531 0.0
C959 C 0.79103 0.8547 0.39194 0.0
C960 C 0.8036 0.85693 0.37107 0.0
H961 H 0.68666 0.34444 0.80096 0.0
H962 H 0.67621 0.27614 0.82545 0.0
H963 H 0.65726 0.28778 0.86059 0.0
H964 H 0.70157 0.37187 0.85493 0.0
H965 H 0.68801 0.39497 0.85055 0.0
H966 H 0.69711 0.3805 0.82541 0.0
H967 H 0.65682 0.37173 0.80699 0.0
H968 H 0.64759 0.38638 0.83205 0.0
H969 H 0.63369 0.35751 0.82401 0.0
H970 H 0.64474 0.30814 0.8957 0.0
H971 H 0.63878 0.3354 0.92748 0.0
H972 H 0.657 0.39023 0.87985 0.0
C973 C 0.67983 0.33173 0.81334 0.0
C974 C 0.68286 0.30935 0.81041 0.0
C975 C 0.67399 0.29335 0.82725 0.0
C976 C 0.66317 0.2998 0.84725 0.0
C977 C 0.66116 0.32223 0.85001 0.0
C978 C 0.66904 0.33789 0.83336 0.0
C979 C 0.66673 0.36138 0.84149 0.0
C980 C 0.68972 0.37815 0.8432 0.0
C981 C 0.65022 0.36974 0.82516 0.0
C982 C 0.65717 0.35668 0.86574 0.0
C983 C 0.65379 0.33395 0.87022 0.0
C984 C 0.64685 0.32588 0.89221 0.0
C985 C 0.64355 0.34146 0.91015 0.0
C986 C 0.64722 0.36484 0.90599 0.0
C987 C 0.65373 0.3724 0.88335 0.0
H988 H 0.29162 0.9502 0.70924 0.0
H989 H 0.31647 1.00004 0.76658 0.0
H990 H 0.3419 0.02302 0.73905 0.0
H991 H 0.34331 0.95255 0.68183 0.0
H992 H 0.33183 0.94959 0.65194 0.0
H993 H 0.31464 0.93774 0.6758 0.0
H994 H 0.28506 0.96045 0.6645 0.0
H995 H 0.30217 0.97237 0.64056 0.0
H996 H 0.29352 0.99075 0.6627 0.0
H997 H 0.36679 0.03887 0.70619 0.0
H998 H 0.38814 0.04743 0.66976 0.0
H999 H 0.34605 0.98814 0.63344 0.0
C1000 C 0.30224 0.96606 0.71597 0.0
C1001 C 0.30207 0.97333 0.74006 0.0
C1002 C 0.31626 0.99417 0.74817 0.0
C1003 C 0.33077 0.00734 0.73268 0.0
C1004 C 0.3307 0.99955 0.7091 0.0
C1005 C 0.31667 0.9795 0.70071 0.0
C1006 C 0.32026 0.97467 0.6747 0.0
C1007 C 0.32797 0.95232 0.67086 0.0
C1008 C 0.29898 0.97456 0.65973 0.0
C1009 C 0.33883 0.9949 0.66991 0.0
C1010 C 0.34458 0.00907 0.68996 0.0
C1011 C 0.36214 0.02817 0.69024 0.0
C1012 C 0.37413 0.03292 0.66946 0.0
C1013 C 0.36828 0.01878 0.6486 0.0
C1014 C 0.35044 0.99953 0.64896 0.0
H1015 H 0.72408 0.79343 0.17747 0.0
H1016 H 0.70792 0.71996 0.17101 0.0
H1017 H 0.67185 0.72065 0.1511 0.0
H1018 H 0.67198 0.79973 0.19298 0.0
H1019 H 0.67206 0.82471 0.17679 0.0
H1020 H 0.69813 0.81879 0.1868 0.0
H1021 H 0.71234 0.82034 0.14382 0.0
H1022 H 0.68633 0.82652 0.13367 0.0
H1023 H 0.69572 0.80273 0.12052 0.0
H1024 H 0.63549 0.72905 0.13761 0.0
H1025 H 0.60213 0.74466 0.13007 0.0
H1026 H 0.64222 0.81266 0.14431 0.0
C1027 C 0.71326 0.77748 0.17128 0.0
C1028 C 0.71885 0.75663 0.17577 0.0
C1029 C 0.70406 0.73615 0.16768 0.0
C1030 C 0.68353 0.73637 0.15632 0.0
C1031 C 0.67818 0.75721 0.15294 0.0
C1032 C 0.69276 0.77742 0.1599 0.0
C1033 C 0.68225 0.79741 0.15607 0.0
C1034 C 0.68103 0.81094 0.17956 0.0
C1035 C 0.69491 0.81265 0.1374 0.0
C1036 C 0.65915 0.78524 0.14683 0.0
C1037 C 0.65722 0.76208 0.1449 0.0
C1038 C 0.63692 0.74718 0.13861 0.0
C1039 C 0.61806 0.75618 0.13444 0.0
C1040 C 0.6196 0.77984 0.13667 0.0
C1041 C 0.64058 0.79452 0.14241 0.0
H1042 H 0.75492 0.20987 0.69878 0.0
H1043 H 0.70656 0.22733 0.64992 0.0
H1044 H 0.70758 0.19341 0.62443 0.0
H1045 H 0.78805 0.1889 0.65371 0.0
H1046 H 0.79346 0.16661 0.67148 0.0
H1047 H 0.78922 0.1925 0.6856 0.0
H1048 H 0.75715 0.16952 0.70986 0.0
H1049 H 0.76126 0.14358 0.69577 0.0
H1050 H 0.734 0.15028 0.69452 0.0
H1051 H 0.71181 0.15611 0.60589 0.0
H1052 H 0.72095 0.11965 0.59406 0.0
H1053 H 0.76836 0.12776 0.65364 0.0
C1054 C 0.74462 0.20663 0.68266 0.0
C1055 C 0.73059 0.2212 0.67636 0.0
C1056 C 0.71746 0.21642 0.65507 0.0
C1057 C 0.7179 0.19718 0.6405 0.0
C1058 C 0.73176 0.18306 0.64733 0.0
C1059 C 0.74507 0.18768 0.66777 0.0
C1060 C 0.75848 0.16978 0.6711 0.0
C1061 C 0.78381 0.18007 0.67042 0.0
C1062 C 0.75235 0.15757 0.69418 0.0
C1063 C 0.75042 0.15422 0.6495 0.0
C1064 C 0.73492 0.1621 0.63608 0.0
C1065 C 0.72424 0.14997 0.616 0.0
C1066 C 0.72961 0.12927 0.60939 0.0
C1067 C 0.74584 0.12109 0.62261 0.0
C1068 C 0.75627 0.13383 0.64293 0.0
H1069 H 0.32529 0.36835 0.21979 0.0
H1070 H 0.37561 0.40953 0.26811 0.0
H1071 H 0.40453 0.40887 0.23821 0.0
H1072 H 0.35955 0.33314 0.19462 0.0
H1073 H 0.34758 0.33244 0.16513 0.0
H1074 H 0.33105 0.33604 0.19047 0.0
H1075 H 0.32355 0.37299 0.17396 0.0
H1076 H 0.34012 0.36952 0.14859 0.0
H1077 H 0.34693 0.39535 0.16691 0.0
H1078 H 0.42802 0.40282 0.20324 0.0
H1079 H 0.44407 0.39317 0.16537 0.0
H1080 H 0.37765 0.35702 0.14002 0.0
C1081 C 0.34241 0.37714 0.22415 0.0
C1082 C 0.34825 0.38888 0.24631 0.0
C1083 C 0.37078 0.40043 0.25122 0.0
C1084 C 0.38731 0.40012 0.23437 0.0
C1085 C 0.38096 0.3884 0.21267 0.0
C1086 C 0.35903 0.37724 0.20748 0.0
C1087 C 0.35646 0.36629 0.1827 0.0
C1088 C 0.34818 0.34045 0.18328 0.0
C1089 C 0.34084 0.37666 0.16713 0.0
C1090 C 0.38045 0.37274 0.17485 0.0
C1091 C 0.39433 0.38549 0.19236 0.0
C1092 C 0.41725 0.39307 0.1893 0.0
C1093 C 0.42618 0.38756 0.16771 0.0
C1094 C 0.41225 0.37483 0.14925 0.0
C1095 C 0.38903 0.36716 0.1532 0.0
H1096 H 0.81726 0.71505 0.76014 0.0
H1097 H 0.77659 0.67185 0.705 0.0
H1098 H 0.80574 0.64967 0.70087 0.0
H1099 H 0.86966 0.71743 0.73402 0.0
H1100 H 0.88478 0.71673 0.76157 0.0
H1101 H 0.86014 0.72834 0.76122 0.0
H1102 H 0.84232 0.70041 0.79262 0.0
H1103 H 0.86693 0.68868 0.79305 0.0
H1104 H 0.83969 0.67044 0.78692 0.0
H1105 H 0.84037 0.63391 0.70073 0.0
H1106 H 0.87791 0.62547 0.70489 0.0
H1107 H 0.89558 0.67801 0.761 0.0
C1108 C 0.81438 0.70081 0.74733 0.0
C1109 C 0.79462 0.6952 0.73288 0.0
C1110 C 0.79156 0.67647 0.71629 0.0
C1111 C 0.80801 0.66373 0.71384 0.0
C1112 C 0.82734 0.66981 0.72823 0.0
C1113 C 0.83056 0.68783 0.74474 0.0
C1114 C 0.85317 0.69127 0.75749 0.0
C1115 C 0.8678 0.71484 0.75331 0.0
C1116 C 0.85035 0.68747 0.7841 0.0
C1117 C 0.86237 0.67269 0.74519 0.0
C1118 C 0.84716 0.66044 0.72846 0.0
C1119 C 0.85231 0.64318 0.71399 0.0
C1120 C 0.87365 0.63849 0.7165 0.0
C1121 C 0.88958 0.65093 0.73341 0.0
C1122 C 0.88365 0.66805 0.74812 0.0
H1123 H 0.81599 0.3273 0.21858 0.0
H1124 H 0.83573 0.26464 0.19884 0.0
H1125 H 0.87236 0.28671 0.18621 0.0
H1126 H 0.83885 0.35738 0.17044 0.0
H1127 H 0.84777 0.38414 0.18689 0.0
H1128 H 0.82421 0.36342 0.19652 0.0
H1129 H 0.84347 0.36438 0.23794 0.0
H1130 H 0.86706 0.38526 0.22849 0.0
H1131 H 0.87137 0.35931 0.24017 0.0
H1132 H 0.90546 0.31607 0.17228 0.0
H1133 H 0.93261 0.35003 0.15987 0.0
H1134 H 0.89068 0.39284 0.18926 0.0
C1135 C 0.8281 0.31812 0.21198 0.0
C1136 C 0.82298 0.29421 0.20973 0.0
C1137 C 0.83931 0.28294 0.20084 0.0
C1138 C 0.86015 0.29533 0.1936 0.0
C1139 C 0.86439 0.31893 0.19556 0.0
C1140 C 0.84886 0.33016 0.20475 0.0
C1141 C 0.8569 0.35556 0.20399 0.0
C1142 C 0.84099 0.36571 0.18854 0.0
C1143 C 0.85988 0.36678 0.22914 0.0
C1144 C 0.87924 0.35694 0.19249 0.0
C1145 C 0.88338 0.33569 0.18783 0.0
C1146 C 0.90254 0.33279 0.17619 0.0
C1147 C 0.91784 0.35213 0.1692 0.0
C1148 C 0.91389 0.37404 0.17396 0.0
C1149 C 0.89431 0.37633 0.18577 0.0
H1150 H 0.19922 0.3967 0.81967 0.0
H1151 H 0.21419 0.42041 0.74911 0.0
H1152 H 0.18274 0.43987 0.75084 0.0
H1153 H 0.14066 0.38512 0.81367 0.0
H1154 H 0.13605 0.39491 0.84337 0.0
H1155 H 0.16067 0.38425 0.83725 0.0
H1156 H 0.18585 0.42178 0.85476 0.0
H1157 H 0.16125 0.43256 0.86096 0.0
H1158 H 0.18299 0.44829 0.84325 0.0
H1159 H 0.14781 0.45402 0.75896 0.0
H1160 H 0.11225 0.4621 0.77304 0.0
H1161 H 0.12149 0.43088 0.83915 0.0
C1162 C 0.19602 0.40615 0.80466 0.0
C1163 C 0.20911 0.40699 0.78422 0.0
C1164 C 0.20441 0.41959 0.76498 0.0
C1165 C 0.18661 0.43072 0.7658 0.0
C1166 C 0.17389 0.42937 0.78614 0.0
C1167 C 0.17851 0.41759 0.80531 0.0
C1168 C 0.16191 0.41824 0.82477 0.0
C1169 C 0.14906 0.3942 0.83006 0.0
C1170 C 0.17371 0.43098 0.84726 0.0
C1171 C 0.14672 0.43149 0.81319 0.0
C1172 C 0.15401 0.4379 0.79099 0.0
C1173 C 0.14204 0.44924 0.7764 0.0
C1174 C 0.12186 0.45372 0.78453 0.0
C1175 C 0.11368 0.44674 0.80695 0.0
C1176 C 0.12682 0.43617 0.82174 0.0
H1177 H 0.2133 0.77618 0.19322 0.0
H1178 H 0.2657 0.75344 0.23158 0.0
H1179 H 0.23887 0.71786 0.23945 0.0
H1180 H 0.17138 0.75806 0.23122 0.0
H1181 H 0.14914 0.74896 0.20918 0.0
H1182 H 0.17314 0.77074 0.20283 0.0
H1183 H 0.18054 0.74741 0.16546 0.0
H1184 H 0.15633 0.72559 0.17152 0.0
H1185 H 0.1833 0.71863 0.16814 0.0
H1186 H 0.20515 0.68804 0.24888 0.0
H1187 H 0.16748 0.66509 0.25689 0.0
H1188 H 0.13739 0.70668 0.21146 0.0
C1189 C 0.21931 0.76346 0.2027 0.0
C1190 C 0.24158 0.76761 0.21182 0.0
C1191 C 0.24873 0.75062 0.22435 0.0
C1192 C 0.23362 0.73033 0.22889 0.0
C1193 C 0.21154 0.72716 0.22046 0.0
C1194 C 0.20449 0.74309 0.20727 0.0
C1195 C 0.17949 0.73648 0.20193 0.0
C1196 C 0.16761 0.75464 0.2119 0.0
C1197 C 0.17463 0.73174 0.17517 0.0
C1198 C 0.17339 0.71495 0.2152 0.0
C1199 C 0.19213 0.70967 0.22553 0.0
C1200 C 0.19041 0.69166 0.2404 0.0
C1201 C 0.16899 0.67878 0.24492 0.0
C1202 C 0.1496 0.68398 0.23458 0.0
C1203 C 0.15197 0.70213 0.21929 0.0
H1204 H 0.77392 0.79588 0.68476 0.0
H1205 H 0.70209 0.78388 0.67079 0.0
H1206 H 0.70779 0.81814 0.64783 0.0
H1207 H 0.78332 0.85293 0.69528 0.0
H1208 H 0.8099 0.86027 0.68101 0.0
H1209 H 0.80094 0.83276 0.69276 0.0
H1210 H 0.80524 0.81368 0.65167 0.0
H1211 H 0.8145 0.84122 0.63979 0.0
H1212 H 0.79103 0.82115 0.62601 0.0
H1213 H 0.72026 0.85659 0.63247 0.0
H1214 H 0.73901 0.89572 0.62409 0.0
H1215 H 0.80305 0.88221 0.64573 0.0
C1216 C 0.75945 0.80006 0.67626 0.0
C1217 C 0.73756 0.78713 0.67961 0.0
C1218 C 0.71905 0.79342 0.66847 0.0
C1219 C 0.7221 0.81286 0.65531 0.0
C1220 C 0.7438 0.82569 0.65311 0.0
C1221 C 0.76223 0.81938 0.66291 0.0
C1222 C 0.78353 0.83715 0.65957 0.0
C1223 C 0.79508 0.84631 0.68358 0.0
C1224 C 0.79952 0.82774 0.64329 0.0
C1225 C 0.774 0.85496 0.64756 0.0
C1226 C 0.7511 0.84788 0.64374 0.0
C1227 C 0.73826 0.86217 0.63493 0.0
C1228 C 0.74905 0.8844 0.63031 0.0
C1229 C 0.77243 0.89224 0.63461 0.0
C1230 C 0.78512 0.87695 0.64252 0.0
H1231 H 0.68698 0.30817 0.19919 0.0
H1232 H 0.72559 0.30682 0.13558 0.0
H1233 H 0.70472 0.33225 0.11703 0.0
H1234 H 0.63318 0.31178 0.16841 0.0
H1235 H 0.62682 0.33059 0.19159 0.0
H1236 H 0.64247 0.30965 0.19853 0.0
H1237 H 0.6743 0.34125 0.21767 0.0
H1238 H 0.6589 0.36226 0.21064 0.0
H1239 H 0.68706 0.36481 0.20044 0.0
H1240 H 0.68425 0.36247 0.108 0.0
H1241 H 0.66373 0.3932 0.10813 0.0
H1242 H 0.63702 0.37371 0.17665 0.0
C1243 C 0.69063 0.31271 0.18112 0.0
C1244 C 0.70793 0.30548 0.16885 0.0
C1245 C 0.71238 0.31208 0.14534 0.0
C1246 C 0.70059 0.32651 0.13461 0.0
C1247 C 0.68417 0.33396 0.14749 0.0
C1248 C 0.67893 0.32701 0.17009 0.0
C1249 C 0.66176 0.33879 0.18078 0.0
C1250 C 0.63975 0.32168 0.18507 0.0
C1251 C 0.67107 0.35259 0.20373 0.0
C1252 C 0.65884 0.35406 0.16103 0.0
C1253 C 0.67179 0.35093 0.14191 0.0
C1254 C 0.67353 0.36465 0.12255 0.0
C1255 C 0.66181 0.38209 0.1228 0.0
C1256 C 0.64831 0.38548 0.14218 0.0
C1257 C 0.64672 0.37107 0.16135 0.0
H1258 H 0.28082 0.32787 0.70742 0.0
H1259 H 0.35019 0.36482 0.70537 0.0
H1260 H 0.36072 0.33072 0.68822 0.0
H1261 H 0.29154 0.27752 0.72557 0.0
H1262 H 0.26957 0.25906 0.70782 0.0
H1263 H 0.26677 0.28705 0.71702 0.0
H1264 H 0.26088 0.29605 0.67324 0.0
H1265 H 0.2635 0.26797 0.66388 0.0
H1266 H 0.28142 0.29235 0.6518 0.0
H1267 H 0.36461 0.2917 0.67609 0.0
H1268 H 0.36123 0.25063 0.66854 0.0
H1269 H 0.28925 0.23915 0.67678 0.0
C1270 C 0.29813 0.32894 0.70286 0.0
C1271 C 0.31467 0.34905 0.70774 0.0
C1272 C 0.33719 0.34965 0.70176 0.0
C1273 C 0.34336 0.33036 0.69196 0.0
C1274 C 0.32678 0.31065 0.68795 0.0
C1275 C 0.30457 0.30985 0.69293 0.0
C1276 C 0.29031 0.28615 0.68832 0.0
C1277 C 0.27889 0.27691 0.71104 0.0
C1278 C 0.27301 0.28561 0.6681 0.0
C1279 C 0.30811 0.27362 0.68089 0.0
C1280 C 0.329 0.28811 0.6806 0.0
C1281 C 0.3483 0.28023 0.67591 0.0
C1282 C 0.34623 0.25688 0.67174 0.0
C1283 C 0.32504 0.24167 0.67239 0.0
C1284 C 0.30569 0.25032 0.67637 0.0
H1285 H 0.35066 0.87196 0.23671 0.0
H1286 H 0.2965 0.86142 0.18392 0.0
H1287 H 0.3186 0.84289 0.15646 0.0
H1288 H 0.39598 0.88496 0.19647 0.0
H1289 H 0.41379 0.8702 0.21227 0.0
H1290 H 0.39352 0.88222 0.22803 0.0
H1291 H 0.37621 0.84304 0.24424 0.0
H1292 H 0.39646 0.83091 0.22856 0.0
H1293 H 0.36692 0.81896 0.22377 0.0
H1294 H 0.3462 0.82488 0.13509 0.0
H1295 H 0.37779 0.80946 0.12071 0.0
H1296 H 0.41502 0.83333 0.18655 0.0
C1297 C 0.34351 0.86577 0.21935 0.0
C1298 C 0.32168 0.86763 0.21259 0.0
C1299 C 0.31288 0.85943 0.18973 0.0
C1300 C 0.3254 0.8491 0.17393 0.0
C1301 C 0.34675 0.84723 0.18123 0.0
C1302 C 0.35578 0.85535 0.20336 0.0
C1303 C 0.37909 0.8511 0.20681 0.0
C1304 C 0.39663 0.87346 0.21114 0.0
C1305 C 0.3797 0.83505 0.22705 0.0
C1306 C 0.38189 0.83971 0.18298 0.0
C1307 C 0.36295 0.83743 0.1686 0.0
C1308 C 0.36122 0.82673 0.14609 0.0
C1309 C 0.37935 0.81808 0.13805 0.0
C1310 C 0.39912 0.82049 0.15238 0.0
C1311 C 0.40026 0.8315 0.17511 0.0
H1312 H 0.77811 0.20696 0.29831 0.0
H1313 H 0.73706 0.16007 0.24636 0.0
H1314 H 0.73522 0.12902 0.27374 0.0
H1315 H 0.81047 0.1675 0.31806 0.0
H1316 H 0.81227 0.17822 0.34849 0.0
H1317 H 0.81002 0.19672 0.32492 0.0
H1318 H 0.77497 0.2065 0.34415 0.0
H1319 H 0.77705 0.18794 0.36771 0.0
H1320 H 0.75138 0.18398 0.35026 0.0
H1321 H 0.73622 0.10365 0.30774 0.0
H1322 H 0.74264 0.08493 0.34418 0.0
H1323 H 0.78579 0.14773 0.3726 0.0
C1324 C 0.76873 0.19015 0.29271 0.0
C1325 C 0.75759 0.1859 0.27031 0.0
C1326 C 0.74573 0.16365 0.26346 0.0
C1327 C 0.74454 0.14595 0.27891 0.0
C1328 C 0.75561 0.15072 0.30095 0.0
C1329 C 0.76775 0.17221 0.3077 0.0
C1330 C 0.77866 0.1727 0.33206 0.0
C1331 C 0.80438 0.17916 0.3308 0.0
C1332 C 0.76999 0.18873 0.34957 0.0
C1333 C 0.77052 0.14821 0.33808 0.0
C1334 C 0.75707 0.13586 0.32002 0.0
C1335 C 0.74693 0.11308 0.32191 0.0
C1336 C 0.75071 0.10259 0.34279 0.0
C1337 C 0.7648 0.11483 0.36145 0.0
C1338 C 0.77487 0.13792 0.35879 0.0
H1339 H 0.32106 0.38672 0.83979 0.0
H1340 H 0.33203 0.45023 0.80446 0.0
H1341 H 0.36337 0.4665 0.83275 0.0
H1342 H 0.3347 0.41049 0.90008 0.0
H1343 H 0.34866 0.38849 0.90792 0.0
H1344 H 0.32606 0.38253 0.88604 0.0
H1345 H 0.35206 0.36849 0.85593 0.0
H1346 H 0.37478 0.37456 0.87762 0.0
H1347 H 0.37836 0.38697 0.84914 0.0
H1348 H 0.39432 0.47532 0.86398 0.0
H1349 H 0.42298 0.47593 0.89558 0.0
H1350 H 0.39237 0.40628 0.90962 0.0
C1351 C 0.32979 0.40418 0.83823 0.0
C1352 C 0.324 0.41729 0.82003 0.0
C1353 C 0.33614 0.43991 0.81831 0.0
C1354 C 0.35394 0.4493 0.8343 0.0
C1355 C 0.35943 0.43578 0.85179 0.0
C1356 C 0.34772 0.41371 0.85385 0.0
C1357 C 0.35772 0.40238 0.87339 0.0
C1358 C 0.34078 0.39558 0.89302 0.0
C1359 C 0.36624 0.3819 0.86341 0.0
C1360 C 0.37696 0.42151 0.88196 0.0
C1361 C 0.37759 0.44066 0.86936 0.0
C1362 C 0.39401 0.46042 0.87393 0.0
C1363 C 0.41025 0.46058 0.89181 0.0
C1364 C 0.41011 0.44104 0.90472 0.0
C1365 C 0.39306 0.42136 0.89981 0.0
H1366 H 0.32109 0.93696 0.35064 0.0
H1367 H 0.33449 0.98569 0.2957 0.0
H1368 H 0.35578 0.01432 0.32484 0.0
H1369 H 0.31419 0.97745 0.39836 0.0
H1370 H 0.32753 0.9639 0.42045 0.0
H1371 H 0.31259 0.94739 0.3955 0.0
H1372 H 0.34813 0.93286 0.38488 0.0
H1373 H 0.36317 0.94931 0.40977 0.0
H1374 H 0.37406 0.95299 0.38041 0.0
H1375 H 0.37811 0.03658 0.35893 0.0
H1376 H 0.39835 0.05173 0.39635 0.0
H1377 H 0.36875 0.98948 0.42987 0.0
C1378 C 0.32839 0.9537 0.34477 0.0
C1379 C 0.3262 0.95909 0.32087 0.0
C1380 C 0.33594 0.98119 0.31392 0.0
C1381 C 0.34806 0.99757 0.33033 0.0
C1382 C 0.35006 0.99167 0.35369 0.0
C1383 C 0.34034 0.97035 0.36099 0.0
C1384 C 0.3453 0.96831 0.38708 0.0
C1385 C 0.32361 0.96402 0.40117 0.0
C1386 C 0.35845 0.94977 0.39074 0.0
C1387 C 0.3597 0.99168 0.39315 0.0
C1388 C 0.36225 0.00487 0.37363 0.0
C1389 C 0.3759 0.0266 0.37448 0.0
C1390 C 0.3873 0.03508 0.39586 0.0
C1391 C 0.38466 0.02198 0.41622 0.0
C1392 C 0.37062 1.00003 0.41473 0.0
H1393 H 0.66798 0.79212 0.7896 0.0
H1394 H 0.6711 0.72352 0.80574 0.0
H1395 H 0.65424 0.72858 0.84454 0.0
H1396 H 0.68314 0.81677 0.84712 0.0
H1397 H 0.6647 0.83615 0.84597 0.0
H1398 H 0.67573 0.82657 0.81904 0.0
H1399 H 0.63531 0.81224 0.80159 0.0
H1400 H 0.62415 0.82175 0.82852 0.0
H1401 H 0.61512 0.79266 0.81772 0.0
H1402 H 0.63864 0.74192 0.88238 0.0
H1403 H 0.62606 0.76264 0.91639 0.0
H1404 H 0.63339 0.82234 0.87515 0.0
C1405 C 0.66497 0.77805 0.80116 0.0
C1406 C 0.67082 0.75739 0.7946 0.0
C1407 C 0.66673 0.73949 0.81038 0.0
C1408 C 0.65712 0.74219 0.83242 0.0
C1409 C 0.65167 0.76285 0.83836 0.0
C1410 C 0.65546 0.78046 0.82317 0.0
C1411 C 0.64894 0.80126 0.83406 0.0
C1412 C 0.66934 0.82136 0.83671 0.0
C1413 C 0.62973 0.80732 0.81961 0.0
C1414 C 0.64113 0.79272 0.85791 0.0
C1415 C 0.64268 0.77049 0.86002 0.0
C1416 C 0.63712 0.75924 0.88082 0.0
C1417 C 0.62996 0.7711 0.89999 0.0
C1418 C 0.62836 0.79391 0.8982 0.0
C1419 C 0.634 0.80477 0.87682 0.0
loop_
_geom_bond_atom_site_label_1
_geom_bond_atom_site_label_2
_geom_bond_distance
_geom_bond_site_symmetry_2
_ccdc_geom_bond_type
O0 Cd1 2.300 . S
O0 C7 1.275 . S
Cd1 O0 2.300 . S
Cd1 O9 2.381 . S
Cd1 O10 2.378 . S
O2 Cd3 2.385 . S
O2 C7 1.255 . S
Cd3 O2 2.385 . S
Cd3 O4 2.317 . S
O4 Cd3 2.317 . S
O4 C5 1.232 . S
C5 O4 1.232 . S
C5 O6 1.218 . S
O6 C5 1.218 . S
C7 O0 1.275 . S
C7 O2 1.255 . S
C8 O9 1.258 . S
C8 O10 1.256 . S
O9 Cd1 2.381 . S
O9 C8 1.258 . S
O10 Cd1 2.378 . S
O10 C8 1.256 . S
O11 Cd12 2.300 . S
O11 C18 1.275 . S
Cd12 O11 2.300 . S
Cd12 O20 2.381 . S
Cd12 O21 2.378 . S
O13 Cd14 2.385 . S
O13 C18 1.255 . S
Cd14 O13 2.385 . S
Cd14 O15 2.317 . S
O15 Cd14 2.317 . S
O15 C16 1.232 . S
C16 O15 1.232 . S
C16 O17 1.218 . S
O17 C16 1.218 . S
C18 O11 1.275 . S
C18 O13 1.255 . S
C19 O20 1.258 . S
C19 O21 1.256 . S
O20 Cd12 2.381 . S
O20 C19 1.258 . S
O21 Cd12 2.378 . S
O21 C19 1.256 . S
O22 Cd23 2.300 . S
O22 C29 1.275 . S
Cd23 O22 2.300 . S
Cd23 O31 2.381 . S
Cd23 O32 2.378 . S
O24 Cd25 2.385 . S
O24 C29 1.255 . S
Cd25 O24 2.385 . S
Cd25 O26 2.317 . S
O26 Cd25 2.317 . S
O26 C27 1.232 . S
C27 O26 1.232 . S
C27 O28 1.218 . S
O28 C27 1.218 . S
C29 O22 1.275 . S
C29 O24 1.255 . S
C30 O31 1.258 . S
C30 O32 1.256 . S
O31 Cd23 2.381 . S
O31 C30 1.258 . S
O32 Cd23 2.378 . S
O32 C30 1.256 . S
O33 Cd34 2.300 . S
O33 C40 1.275 . S
Cd34 O33 2.300 . S
Cd34 O42 2.381 . S
Cd34 O43 2.378 . S
O35 Cd36 2.385 . S
O35 C40 1.255 . S
Cd36 O35 2.385 . S
Cd36 O37 2.317 . S
O37 Cd36 2.317 . S
O37 C38 1.232 . S
C38 O37 1.232 . S
C38 O39 1.218 . S
O39 C38 1.218 . S
C40 O33 1.275 . S
C40 O35 1.255 . S
C41 O42 1.258 . S
C41 O43 1.256 . S
O42 Cd34 2.381 . S
O42 C41 1.258 . S
O43 Cd34 2.378 . S
O43 C41 1.256 . S
O44 Cd45 2.300 . S
O44 C51 1.275 . S
Cd45 O44 2.300 . S
Cd45 O53 2.381 . S
Cd45 O54 2.378 . S
O46 Cd47 2.385 . S
O46 C51 1.255 . S
Cd47 O46 2.385 . S
Cd47 O48 2.317 . S
O48 Cd47 2.317 . S
O48 C49 1.232 . S
C49 O48 1.232 . S
C49 O50 1.218 . S
O50 C49 1.218 . S
C51 O44 1.275 . S
C51 O46 1.255 . S
C52 O53 1.258 . S
C52 O54 1.256 . S
O53 Cd45 2.381 . S
O53 C52 1.258 . S
O54 Cd45 2.378 . S
O54 C52 1.256 . S
O55 Cd56 2.300 . S
O55 C62 1.275 . S
Cd56 O55 2.300 . S
Cd56 O64 2.381 . S
Cd56 O65 2.378 . S
O57 Cd58 2.385 . S
O57 C62 1.255 . S
Cd58 O57 2.385 . S
Cd58 O59 2.317 . S
O59 Cd58 2.317 . S
O59 C60 1.232 . S
C60 O59 1.232 . S
C60 O61 1.218 . S
O61 C60 1.218 . S
C62 O55 1.275 . S
C62 O57 1.255 . S
C63 O64 1.258 . S
C63 O65 1.256 . S
O64 Cd56 2.381 . S
O64 C63 1.258 . S
O65 Cd56 2.378 . S
O65 C63 1.256 . S
O66 Cd67 2.300 . S
O66 C73 1.275 . S
Cd67 O66 2.300 . S
Cd67 O75 2.381 . S
Cd67 O76 2.378 . S
O68 Cd69 2.385 . S
O68 C73 1.255 . S
Cd69 O68 2.385 . S
Cd69 O70 2.317 . S
O70 Cd69 2.317 . S
O70 C71 1.232 . S
C71 O70 1.232 . S
C71 O72 1.218 . S
O72 C71 1.218 . S
C73 O66 1.275 . S
C73 O68 1.255 . S
C74 O75 1.258 . S
C74 O76 1.256 . S
O75 Cd67 2.381 . S
O75 C74 1.258 . S
O76 Cd67 2.378 . S
O76 C74 1.256 . S
O77 Cd78 2.300 . S
O77 C84 1.275 . S
Cd78 O77 2.300 . S
Cd78 O86 2.381 . S
Cd78 O87 2.378 . S
O79 Cd80 2.385 . S
O79 C84 1.255 . S
Cd80 O79 2.385 . S
Cd80 O81 2.317 . S
O81 Cd80 2.317 . S
O81 C82 1.232 . S
C82 O81 1.232 . S
C82 O83 1.218 . S
O83 C82 1.218 . S
C84 O77 1.275 . S
C84 O79 1.255 . S
C85 O86 1.258 . S
C85 O87 1.256 . S
O86 Cd78 2.381 . S
O86 C85 1.258 . S
O87 Cd78 2.378 . S
O87 C85 1.256 . S
C88 C89 1.560 . S
C88 H149 0.959 . S
C88 H150 0.959 . S
C88 H151 0.960 . S
C89 C88 1.560 . S
C89 O144 1.426 . S
C89 H148 0.980 . S
C90 C91 1.407 . S
C90 C95 1.418 . S
C90 O144 1.334 . S
C91 C90 1.407 . S
C91 C92 1.360 . S
C91 H152 0.929 . S
C92 C91 1.360 . S
C92 C93 1.401 . S
C92 C96 1.527 . S
C93 C92 1.401 . S
C93 C94 1.405 . S
C93 C126 1.587 1_655 S
C94 C93 1.405 . S
C94 C95 1.332 . S
C94 C97 1.496 1_655 S
C95 C90 1.418 . S
C95 C94 1.332 . S
C95 H153 0.929 . S
C96 C92 1.527 . S
C96 H154 0.959 . S
C96 H155 0.961 . S
C96 H156 0.961 . S
C97 C94 1.496 1_455 S
C97 H157 0.960 . S
C97 H158 0.960 . S
C97 H159 0.961 . S
C98 C99 1.517 . S
C98 H161 0.961 . S
C98 H162 0.960 . S
C98 H163 0.959 . S
C99 C98 1.517 . S
C99 O147 1.468 . S
C99 H160 0.980 . S
C100 C101 1.349 . S
C100 C105 1.367 . S
C100 O147 1.408 . S
C101 C100 1.349 . S
C101 C102 1.407 . S
C101 H164 0.930 . S
C102 C101 1.407 . S
C102 C103 1.449 . S
C102 C106 1.535 . S
C103 C102 1.449 . S
C103 C104 1.384 . S
C103 C128 1.553 . S
C104 C103 1.384 . S
C104 C105 1.364 . S
C104 C107 1.450 . S
C105 C100 1.367 . S
C105 C104 1.364 . S
C105 H165 0.931 . S
C106 C102 1.535 . S
C106 H166 0.959 . S
C106 H167 0.961 . S
C106 H168 0.959 . S
C107 C104 1.450 . S
C107 H169 0.960 . S
C107 H170 0.960 . S
C107 H171 0.960 . S
C108 C109 1.309 . S
C108 C113 1.304 . S
C108 O146 1.435 . S
C109 C108 1.309 . S
C109 C110 1.476 . S
C109 H173 0.930 . S
C110 C109 1.476 . S
C110 C111 1.400 . S
C110 C114 1.567 . S
C111 C110 1.400 . S
C111 C112 1.373 . S
C111 C133 1.432 . S
C112 C111 1.373 . S
C112 C113 1.339 . S
C112 C115 1.530 . S
C113 C108 1.304 . S
C113 C112 1.339 . S
C113 H174 0.930 . S
C114 C110 1.567 . S
C114 H175 0.961 . S
C114 H176 0.960 . S
C114 H177 0.958 . S
C115 C112 1.530 . S
C115 H178 0.961 . S
C115 H179 0.960 . S
C115 H180 0.960 . S
C116 C117 1.530 . S
C116 H182 0.961 . S
C116 H183 0.961 . S
C116 H184 0.959 . S
C117 C116 1.530 . S
C117 O145 1.412 . S
C117 H181 0.980 . S
C118 C119 1.288 . S
C118 C123 1.377 . S
C118 O145 1.393 . S
C119 C118 1.288 . S
C119 C120 1.369 . S
C119 H185 0.932 . S
C120 C119 1.369 . S
C120 C121 1.398 . S
C120 C124 1.527 1_655 S
C121 C120 1.398 . S
C121 C122 1.380 . S
C121 C135 1.497 1_655 S
C122 C121 1.380 . S
C122 C123 1.383 . S
C122 C125 1.603 . S
C123 C118 1.377 . S
C123 C122 1.383 . S
C123 H186 0.929 . S
C124 C120 1.527 1_455 S
C124 H187 0.961 . S
C124 H188 0.959 . S
C124 H189 0.959 . S
C125 C122 1.603 . S
C125 H190 0.960 . S
C125 H191 0.962 . S
C125 H192 0.961 . S
C126 C93 1.587 1_455 S
C126 C127 1.360 . S
C126 C139 1.412 . S
C127 C126 1.360 . S
C127 C128 1.365 . S
C127 H193 0.929 . S
C128 C103 1.553 . S
C128 C127 1.365 . S
C128 C129 1.404 . S
C129 C128 1.404 . S
C129 C130 1.395 . S
C129 C140 1.451 . S
C130 C129 1.395 . S
C130 C131 1.322 . S
C130 H194 0.930 . S
C131 C130 1.322 . S
C131 C132 1.459 . S
C131 H195 0.929 . S
C132 C131 1.459 . S
C132 C133 1.445 . S
C132 C141 1.395 . S
C133 C111 1.432 . S
C133 C132 1.445 . S
C133 C134 1.370 . S
C134 C133 1.370 . S
C134 C135 1.438 . S
C134 H196 0.930 . S
C135 C121 1.497 1_455 S
C135 C134 1.438 . S
C135 C136 1.360 . S
C136 C135 1.360 . S
C136 C137 1.401 1_455 S
C136 C141 1.446 . S
C137 C136 1.401 1_655 S
C137 C138 1.347 . S
C137 H197 0.929 . S
C138 C137 1.347 . S
C138 C139 1.455 1_655 S
C138 H198 0.930 . S
C139 C126 1.412 . S
C139 C138 1.455 1_455 S
C139 C140 1.331 . S
C140 C129 1.451 . S
C140 C139 1.331 . S
C140 C141 1.497 . S
C141 C132 1.395 . S
C141 C136 1.446 . S
C141 C140 1.497 . S
C142 C143 1.582 . S
C142 H199 0.962 . S
C142 H200 0.959 . S
C142 H201 0.958 . S
C143 C142 1.582 . S
C143 O146 1.458 . S
C143 H172 0.980 . S
O144 C89 1.426 . S
O144 C90 1.334 . S
O145 C117 1.412 . S
O145 C118 1.393 . S
O146 C108 1.435 . S
O146 C143 1.458 . S
O147 C99 1.468 . S
O147 C100 1.408 . S
H148 C89 0.980 . S
H149 C88 0.959 . S
H150 C88 0.959 . S
H151 C88 0.960 . S
H152 C91 0.929 . S
H153 C95 0.929 . S
H154 C96 0.959 . S
H155 C96 0.961 . S
H156 C96 0.961 . S
H157 C97 0.960 . S
H158 C97 0.960 . S
H159 C97 0.961 . S
H160 C99 0.980 . S
H161 C98 0.961 . S
H162 C98 0.960 . S
H163 C98 0.959 . S
H164 C101 0.930 . S
H165 C105 0.931 . S
H166 C106 0.959 . S
H167 C106 0.961 . S
H168 C106 0.959 . S
H169 C107 0.960 . S
H170 C107 0.960 . S
H171 C107 0.960 . S
H172 C143 0.980 . S
H173 C109 0.930 . S
H174 C113 0.930 . S
H175 C114 0.961 . S
H176 C114 0.960 . S
H177 C114 0.958 . S
H178 C115 0.961 . S
H179 C115 0.960 . S
H180 C115 0.960 . S
H181 C117 0.980 . S
H182 C116 0.961 . S
H183 C116 0.961 . S
H184 C116 0.959 . S
H185 C119 0.932 . S
H186 C123 0.929 . S
H187 C124 0.961 . S
H188 C124 0.959 . S
H189 C124 0.959 . S
H190 C125 0.960 . S
H191 C125 0.962 . S
H192 C125 0.961 . S
H193 C127 0.929 . S
H194 C130 0.930 . S
H195 C131 0.929 . S
H196 C134 0.930 . S
H197 C137 0.929 . S
H198 C138 0.930 . S
H199 C142 0.962 . S
H200 C142 0.959 . S
H201 C142 0.958 . S
C202 C203 1.560 . S
C202 H263 0.959 . S
C202 H264 0.959 . S
C202 H265 0.960 . S
C203 C202 1.560 . S
C203 O258 1.426 . S
C203 H262 0.980 . S
C204 C205 1.407 . S
C204 C209 1.418 . S
C204 O258 1.334 . S
C205 C204 1.407 . S
C205 C206 1.360 . S
C205 H266 0.929 . S
C206 C205 1.360 . S
C206 C207 1.401 . S
C206 C210 1.527 . S
C207 C206 1.401 . S
C207 C208 1.405 . S
C207 C240 1.587 . S
C208 C207 1.405 . S
C208 C209 1.332 . S
C208 C211 1.496 . S
C209 C204 1.418 . S
C209 C208 1.332 . S
C209 H267 0.929 . S
C210 C206 1.527 . S
C210 H268 0.959 . S
C210 H269 0.961 . S
C210 H270 0.961 . S
C211 C208 1.496 . S
C211 H271 0.960 . S
C211 H272 0.960 . S
C211 H273 0.961 . S
C212 C213 1.517 . S
C212 H275 0.961 . S
C212 H276 0.960 . S
C212 H277 0.959 . S
C213 C212 1.517 . S
C213 O261 1.468 . S
C213 H274 0.980 . S
C214 C215 1.349 . S
C214 C219 1.367 . S
C214 O261 1.408 . S
C215 C214 1.349 . S
C215 C216 1.407 . S
C215 H278 0.930 . S
C216 C215 1.407 . S
C216 C217 1.449 . S
C216 C220 1.535 . S
C217 C216 1.449 . S
C217 C218 1.384 . S
C217 C242 1.553 . S
C218 C217 1.384 . S
C218 C219 1.364 . S
C218 C221 1.450 . S
C219 C214 1.367 . S
C219 C218 1.364 . S
C219 H279 0.931 . S
C220 C216 1.535 . S
C220 H280 0.959 . S
C220 H281 0.961 . S
C220 H282 0.959 . S
C221 C218 1.450 . S
C221 H283 0.960 . S
C221 H284 0.960 . S
C221 H285 0.960 . S
C222 C223 1.309 . S
C222 C227 1.304 . S
C222 O260 1.435 . S
C223 C222 1.309 . S
C223 C224 1.476 . S
C223 H287 0.930 . S
C224 C223 1.476 . S
C224 C225 1.400 . S
C224 C228 1.567 . S
C225 C224 1.400 . S
C225 C226 1.373 . S
C225 C247 1.432 . S
C226 C225 1.373 . S
C226 C227 1.339 . S
C226 C229 1.530 . S
C227 C222 1.304 . S
C227 C226 1.339 . S
C227 H288 0.930 . S
C228 C224 1.567 . S
C228 H289 0.961 . S
C228 H290 0.960 . S
C228 H291 0.958 . S
C229 C226 1.530 . S
C229 H292 0.961 . S
C229 H293 0.960 . S
C229 H294 0.960 . S
C230 C231 1.530 . S
C230 H296 0.961 . S
C230 H297 0.961 . S
C230 H298 0.959 . S
C231 C230 1.530 . S
C231 O259 1.412 . S
C231 H295 0.980 . S
C232 C233 1.288 . S
C232 C237 1.377 . S
C232 O259 1.393 . S
C233 C232 1.288 . S
C233 C234 1.369 . S
C233 H299 0.932 . S
C234 C233 1.369 . S
C234 C235 1.398 . S
C234 C238 1.527 . S
C235 C234 1.398 . S
C235 C236 1.380 . S
C235 C249 1.497 . S
C236 C235 1.380 . S
C236 C237 1.383 . S
C236 C239 1.603 . S
C237 C232 1.377 . S
C237 C236 1.383 . S
C237 H300 0.929 . S
C238 C234 1.527 . S
C238 H301 0.961 . S
C238 H302 0.959 . S
C238 H303 0.959 . S
C239 C236 1.603 . S
C239 H304 0.960 . S
C239 H305 0.962 . S
C239 H306 0.961 . S
C240 C207 1.587 . S
C240 C241 1.360 . S
C240 C253 1.412 . S
C241 C240 1.360 . S
C241 C242 1.365 1_455 S
C241 H307 0.929 . S
C242 C217 1.553 . S
C242 C241 1.365 1_655 S
C242 C243 1.404 . S
C243 C242 1.404 . S
C243 C244 1.395 . S
C243 C254 1.451 1_655 S
C244 C243 1.395 . S
C244 C245 1.322 . S
C244 H308 0.930 . S
C245 C244 1.322 . S
C245 C246 1.459 . S
C245 H309 0.929 . S
C246 C245 1.459 . S
C246 C247 1.445 . S
C246 C255 1.395 1_655 S
C247 C225 1.432 . S
C247 C246 1.445 . S
C247 C248 1.370 1_655 S
C248 C247 1.370 1_455 S
C248 C249 1.438 . S
C248 H310 0.930 . S
C249 C235 1.497 . S
C249 C248 1.438 . S
C249 C250 1.360 . S
C250 C249 1.360 . S
C250 C251 1.401 . S
C250 C255 1.446 . S
C251 C250 1.401 . S
C251 C252 1.347 . S
C251 H311 0.929 . S
C252 C251 1.347 . S
C252 C253 1.455 . S
C252 H312 0.930 . S
C253 C240 1.412 . S
C253 C252 1.455 . S
C253 C254 1.331 . S
C254 C243 1.451 1_455 S
C254 C253 1.331 . S
C254 C255 1.497 . S
C255 C246 1.395 1_455 S
C255 C250 1.446 . S
C255 C254 1.497 . S
C256 C257 1.582 . S
C256 H313 0.962 . S
C256 H314 0.959 . S
C256 H315 0.958 . S
C257 C256 1.582 . S
C257 O260 1.458 . S
C257 H286 0.980 . S
O258 C203 1.426 . S
O258 C204 1.334 . S
O259 C231 1.412 . S
O259 C232 1.393 . S
O260 C222 1.435 . S
O260 C257 1.458 . S
O261 C213 1.468 . S
O261 C214 1.408 . S
H262 C203 0.980 . S
H263 C202 0.959 . S
H264 C202 0.959 . S
H265 C202 0.960 . S
H266 C205 0.929 . S
H267 C209 0.929 . S
H268 C210 0.959 . S
H269 C210 0.961 . S
H270 C210 0.961 . S
H271 C211 0.960 . S
H272 C211 0.960 . S
H273 C211 0.961 . S
H274 C213 0.980 . S
H275 C212 0.961 . S
H276 C212 0.960 . S
H277 C212 0.959 . S
H278 C215 0.930 . S
H279 C219 0.931 . S
H280 C220 0.959 . S
H281 C220 0.961 . S
H282 C220 0.959 . S
H283 C221 0.960 . S
H284 C221 0.960 . S
H285 C221 0.960 . S
H286 C257 0.980 . S
H287 C223 0.930 . S
H288 C227 0.930 . S
H289 C228 0.961 . S
H290 C228 0.960 . S
H291 C228 0.958 . S
H292 C229 0.961 . S
H293 C229 0.960 . S
H294 C229 0.960 . S
H295 C231 0.980 . S
H296 C230 0.961 . S
H297 C230 0.961 . S
H298 C230 0.959 . S
H299 C233 0.932 . S
H300 C237 0.929 . S
H301 C238 0.961 . S
H302 C238 0.959 . S
H303 C238 0.959 . S
H304 C239 0.960 . S
H305 C239 0.962 . S
H306 C239 0.961 . S
H307 C241 0.929 . S
H308 C244 0.930 . S
H309 C245 0.929 . S
H310 C248 0.930 . S
H311 C251 0.929 . S
H312 C252 0.930 . S
H313 C256 0.962 . S
H314 C256 0.959 . S
H315 C256 0.958 . S
C316 C317 1.560 . S
C316 H377 0.959 . S
C316 H378 0.959 . S
C316 H379 0.960 . S
C317 C316 1.560 . S
C317 O372 1.426 . S
C317 H376 0.980 . S
C318 C319 1.407 . S
C318 C323 1.418 . S
C318 O372 1.334 . S
C319 C318 1.407 . S
C319 C320 1.360 . S
C319 H380 0.929 . S
C320 C319 1.360 . S
C320 C321 1.401 . S
C320 C324 1.527 . S
C321 C320 1.401 . S
C321 C322 1.405 . S
C321 C354 1.587 . S
C322 C321 1.405 . S
C322 C323 1.332 . S
C322 C325 1.496 . S
C323 C318 1.418 . S
C323 C322 1.332 . S
C323 H381 0.929 . S
C324 C320 1.527 . S
C324 H382 0.959 . S
C324 H383 0.961 . S
C324 H384 0.961 . S
C325 C322 1.496 . S
C325 H385 0.960 . S
C325 H386 0.960 . S
C325 H387 0.961 . S
C326 C327 1.517 . S
C326 H389 0.961 1_545 S
C326 H390 0.960 . S
C326 H391 0.959 1_545 S
C327 C326 1.517 . S
C327 O375 1.468 . S
C327 H388 0.980 . S
C328 C329 1.349 . S
C328 C333 1.367 . S
C328 O375 1.408 . S
C329 C328 1.349 . S
C329 C330 1.407 . S
C329 H392 0.930 . S
C330 C329 1.407 . S
C330 C331 1.449 . S
C330 C334 1.535 . S
C331 C330 1.449 . S
C331 C332 1.384 . S
C331 C356 1.553 . S
C332 C331 1.384 . S
C332 C333 1.364 . S
C332 C335 1.450 . S
C333 C328 1.367 . S
C333 C332 1.364 . S
C333 H393 0.931 . S
C334 C330 1.535 . S
C334 H394 0.959 . S
C334 H395 0.961 . S
C334 H396 0.959 . S
C335 C332 1.450 . S
C335 H397 0.960 . S
C335 H398 0.960 . S
C335 H399 0.960 . S
C336 C337 1.309 . S
C336 C341 1.304 . S
C336 O374 1.435 . S
C337 C336 1.309 . S
C337 C338 1.476 . S
C337 H401 0.930 . S
C338 C337 1.476 . S
C338 C339 1.400 . S
C338 C342 1.567 . S
C339 C338 1.400 . S
C339 C340 1.373 . S
C339 C361 1.432 . S
C340 C339 1.373 . S
C340 C341 1.339 . S
C340 C343 1.530 . S
C341 C336 1.304 . S
C341 C340 1.339 . S
C341 H402 0.930 . S
C342 C338 1.567 . S
C342 H403 0.961 . S
C342 H404 0.960 . S
C342 H405 0.958 . S
C343 C340 1.530 . S
C343 H406 0.961 . S
C343 H407 0.960 . S
C343 H408 0.960 . S
C344 C345 1.530 . S
C344 H410 0.961 . S
C344 H411 0.961 . S
C344 H412 0.959 . S
C345 C344 1.530 . S
C345 O373 1.412 . S
C345 H409 0.980 . S
C346 C347 1.288 . S
C346 C351 1.377 . S
C346 O373 1.393 . S
C347 C346 1.288 . S
C347 C348 1.369 . S
C347 H413 0.932 . S
C348 C347 1.369 . S
C348 C349 1.398 . S
C348 C352 1.527 . S
C349 C348 1.398 . S
C349 C350 1.380 . S
C349 C363 1.497 . S
C350 C349 1.380 . S
C350 C351 1.383 . S
C350 C353 1.603 . S
C351 C346 1.377 . S
C351 C350 1.383 . S
C351 H414 0.929 . S
C352 C348 1.527 . S
C352 H415 0.961 . S
C352 H416 0.959 . S
C352 H417 0.959 . S
C353 C350 1.603 . S
C353 H418 0.960 . S
C353 H419 0.962 . S
C353 H420 0.961 . S
C354 C321 1.587 . S
C354 C355 1.360 . S
C354 C367 1.412 . S
C355 C354 1.360 . S
C355 C356 1.365 . S
C355 H421 0.929 . S
C356 C331 1.553 . S
C356 C355 1.365 . S
C356 C357 1.404 . S
C357 C356 1.404 . S
C357 C358 1.395 . S
C357 C368 1.451 . S
C358 C357 1.395 . S
C358 C359 1.322 . S
C358 H422 0.930 . S
C359 C358 1.322 . S
C359 C360 1.459 . S
C359 H423 0.929 . S
C360 C359 1.459 . S
C360 C361 1.445 . S
C360 C369 1.395 . S
C361 C339 1.432 . S
C361 C360 1.445 . S
C361 C362 1.370 . S
C362 C361 1.370 . S
C362 C363 1.438 . S
C362 H424 0.930 . S
C363 C349 1.497 . S
C363 C362 1.438 . S
C363 C364 1.360 . S
C364 C363 1.360 . S
C364 C365 1.401 . S
C364 C369 1.446 . S
C365 C364 1.401 . S
C365 C366 1.347 . S
C365 H425 0.929 . S
C366 C365 1.347 . S
C366 C367 1.455 . S
C366 H426 0.930 . S
C367 C354 1.412 . S
C367 C366 1.455 . S
C367 C368 1.331 . S
C368 C357 1.451 . S
C368 C367 1.331 . S
C368 C369 1.497 . S
C369 C360 1.395 . S
C369 C364 1.446 . S
C369 C368 1.497 . S
C370 C371 1.582 1_565 S
C370 H427 0.962 . S
C370 H428 0.959 . S
C370 H429 0.958 1_565 S
C371 C370 1.582 1_545 S
C371 O374 1.458 . S
C371 H400 0.980 . S
O372 C317 1.426 . S
O372 C318 1.334 . S
O373 C345 1.412 . S
O373 C346 1.393 . S
O374 C336 1.435 . S
O374 C371 1.458 . S
O375 C327 1.468 . S
O375 C328 1.408 . S
H376 C317 0.980 . S
H377 C316 0.959 . S
H378 C316 0.959 . S
H379 C316 0.960 . S
H380 C319 0.929 . S
H381 C323 0.929 . S
H382 C324 0.959 . S
H383 C324 0.961 . S
H384 C324 0.961 . S
H385 C325 0.960 . S
H386 C325 0.960 . S
H387 C325 0.961 . S
H388 C327 0.980 . S
H389 C326 0.961 1_565 S
H390 C326 0.960 . S
H391 C326 0.959 1_565 S
H392 C329 0.930 . S
H393 C333 0.931 . S
H394 C334 0.959 . S
H395 C334 0.961 . S
H396 C334 0.959 . S
H397 C335 0.960 . S
H398 C335 0.960 . S
H399 C335 0.960 . S
H400 C371 0.980 . S
H401 C337 0.930 . S
H402 C341 0.930 . S
H403 C342 0.961 . S
H404 C342 0.960 . S
H405 C342 0.958 . S
H406 C343 0.961 . S
H407 C343 0.960 . S
H408 C343 0.960 . S
H409 C345 0.980 . S
H410 C344 0.961 . S
H411 C344 0.961 . S
H412 C344 0.959 . S
H413 C347 0.932 . S
H414 C351 0.929 . S
H415 C352 0.961 . S
H416 C352 0.959 . S
H417 C352 0.959 . S
H418 C353 0.960 . S
H419 C353 0.962 . S
H420 C353 0.961 . S
H421 C355 0.929 . S
H422 C358 0.930 . S
H423 C359 0.929 . S
H424 C362 0.930 . S
H425 C365 0.929 . S
H426 C366 0.930 . S
H427 C370 0.962 . S
H428 C370 0.959 . S
H429 C370 0.958 1_545 S
C430 C431 1.560 . S
C430 H491 0.959 . S
C430 H492 0.959 . S
C430 H493 0.960 . S
C431 C430 1.560 . S
C431 O486 1.426 . S
C431 H490 0.980 . S
C432 C433 1.407 . S
C432 C437 1.418 . S
C432 O486 1.334 . S
C433 C432 1.407 . S
C433 C434 1.360 . S
C433 H494 0.929 . S
C434 C433 1.360 . S
C434 C435 1.401 . S
C434 C438 1.527 . S
C435 C434 1.401 . S
C435 C436 1.405 . S
C435 C468 1.587 . S
C436 C435 1.405 . S
C436 C437 1.332 . S
C436 C439 1.496 . S
C437 C432 1.418 . S
C437 C436 1.332 . S
C437 H495 0.929 . S
C438 C434 1.527 . S
C438 H496 0.959 . S
C438 H497 0.961 . S
C438 H498 0.961 . S
C439 C436 1.496 . S
C439 H499 0.960 . S
C439 H500 0.960 . S
C439 H501 0.961 . S
C440 C441 1.517 . S
C440 H503 0.961 . S
C440 H504 0.960 . S
C440 H505 0.959 . S
C441 C440 1.517 . S
C441 O489 1.468 . S
C441 H502 0.980 . S
C442 C443 1.349 . S
C442 C447 1.367 . S
C442 O489 1.408 . S
C443 C442 1.349 . S
C443 C444 1.407 . S
C443 H506 0.930 . S
C444 C443 1.407 . S
C444 C445 1.449 . S
C444 C448 1.535 . S
C445 C444 1.449 . S
C445 C446 1.384 . S
C445 C470 1.553 . S
C446 C445 1.384 . S
C446 C447 1.364 . S
C446 C449 1.450 . S
C447 C442 1.367 . S
C447 C446 1.364 . S
C447 H507 0.931 . S
C448 C444 1.535 . S
C448 H508 0.959 . S
C448 H509 0.961 . S
C448 H510 0.959 . S
C449 C446 1.450 . S
C449 H511 0.960 . S
C449 H512 0.960 . S
C449 H513 0.960 . S
C450 C451 1.309 . S
C450 C455 1.304 . S
C450 O488 1.435 . S
C451 C450 1.309 . S
C451 C452 1.476 . S
C451 H515 0.930 . S
C452 C451 1.476 . S
C452 C453 1.400 . S
C452 C456 1.567 . S
C453 C452 1.400 . S
C453 C454 1.373 . S
C453 C475 1.432 . S
C454 C453 1.373 . S
C454 C455 1.339 . S
C454 C457 1.530 . S
C455 C450 1.304 . S
C455 C454 1.339 . S
C455 H516 0.930 . S
C456 C452 1.567 . S
C456 H517 0.961 . S
C456 H518 0.960 . S
C456 H519 0.958 . S
C457 C454 1.530 . S
C457 H520 0.961 . S
C457 H521 0.960 . S
C457 H522 0.960 . S
C458 C459 1.530 . S
C458 H524 0.961 . S
C458 H525 0.961 . S
C458 H526 0.959 . S
C459 C458 1.530 . S
C459 O487 1.412 . S
C459 H523 0.980 . S
C460 C461 1.288 . S
C460 C465 1.377 . S
C460 O487 1.393 . S
C461 C460 1.288 . S
C461 C462 1.369 . S
C461 H527 0.932 . S
C462 C461 1.369 . S
C462 C463 1.398 . S
C462 C466 1.527 . S
C463 C462 1.398 . S
C463 C464 1.380 . S
C463 C477 1.497 . S
C464 C463 1.380 . S
C464 C465 1.383 . S
C464 C467 1.603 . S
C465 C460 1.377 . S
C465 C464 1.383 . S
C465 H528 0.929 . S
C466 C462 1.527 . S
C466 H529 0.961 . S
C466 H530 0.959 . S
C466 H531 0.959 . S
C467 C464 1.603 . S
C467 H532 0.960 . S
C467 H533 0.962 . S
C467 H534 0.961 . S
C468 C435 1.587 . S
C468 C469 1.360 . S
C468 C481 1.412 . S
C469 C468 1.360 . S
C469 C470 1.365 . S
C469 H535 0.929 . S
C470 C445 1.553 . S
C470 C469 1.365 . S
C470 C471 1.404 . S
C471 C470 1.404 . S
C471 C472 1.395 . S
C471 C482 1.451 . S
C472 C471 1.395 . S
C472 C473 1.322 1_554 S
C472 H536 0.930 . S
C473 C472 1.322 1_556 S
C473 C474 1.459 . S
C473 H537 0.929 . S
C474 C473 1.459 . S
C474 C475 1.445 . S
C474 C483 1.395 . S
C475 C453 1.432 . S
C475 C474 1.445 . S
C475 C476 1.370 . S
C476 C475 1.370 . S
C476 C477 1.438 . S
C476 H538 0.930 . S
C477 C463 1.497 . S
C477 C476 1.438 . S
C477 C478 1.360 . S
C478 C477 1.360 . S
C478 C479 1.388 1_556 S
C478 C483 1.446 . S
C479 C478 1.388 1_554 S
C479 C480 1.369 . S
C479 H539 0.920 1_554 S
C480 C479 1.369 . S
C480 C481 1.455 . S
C480 H540 0.930 . S
C481 C468 1.412 . S
C481 C480 1.455 . S
C481 C482 1.331 . S
C482 C471 1.451 . S
C482 C481 1.331 . S
C482 C483 1.497 1_554 S
C483 C474 1.395 . S
C483 C478 1.446 . S
C483 C482 1.497 1_556 S
C484 C485 1.582 . S
C484 H541 0.962 . S
C484 H542 0.959 . S
C484 H543 0.958 . S
C485 C484 1.582 . S
C485 O488 1.458 . S
C485 H514 0.980 . S
O486 C431 1.426 . S
O486 C432 1.334 . S
O487 C459 1.412 . S
O487 C460 1.393 . S
O488 C450 1.435 . S
O488 C485 1.458 . S
O489 C441 1.468 . S
O489 C442 1.408 . S
H490 C431 0.980 . S
H491 C430 0.959 . S
H492 C430 0.959 . S
H493 C430 0.960 . S
H494 C433 0.929 . S
H495 C437 0.929 . S
H496 C438 0.959 . S
H497 C438 0.961 . S
H498 C438 0.961 . S
H499 C439 0.960 . S
H500 C439 0.960 . S
H501 C439 0.961 . S
H502 C441 0.980 . S
H503 C440 0.961 . S
H504 C440 0.960 . S
H505 C440 0.959 . S
H506 C443 0.930 . S
H507 C447 0.931 . S
H508 C448 0.959 . S
H509 C448 0.961 . S
H510 C448 0.959 . S
H511 C449 0.960 . S
H512 C449 0.960 . S
H513 C449 0.960 . S
H514 C485 0.980 . S
H515 C451 0.930 . S
H516 C455 0.930 . S
H517 C456 0.961 . S
H518 C456 0.960 . S
H519 C456 0.958 . S
H520 C457 0.961 . S
H521 C457 0.960 . S
H522 C457 0.960 . S
H523 C459 0.980 . S
H524 C458 0.961 . S
H525 C458 0.961 . S
H526 C458 0.959 . S
H527 C461 0.932 . S
H528 C465 0.929 . S
H529 C466 0.961 . S
H530 C466 0.959 . S
H531 C466 0.959 . S
H532 C467 0.960 . S
H533 C467 0.962 . S
H534 C467 0.961 . S
H535 C469 0.929 . S
H536 C472 0.930 . S
H537 C473 0.929 . S
H538 C476 0.930 . S
H539 C479 0.920 1_556 S
H540 C480 0.930 . S
H541 C484 0.962 . S
H542 C484 0.959 . S
H543 C484 0.958 . S
C544 C545 1.560 . S
C544 H605 0.959 . S
C544 H606 0.959 . S
C544 H607 0.960 . S
C545 C544 1.560 . S
C545 O600 1.426 . S
C545 H604 0.980 . S
C546 C547 1.407 . S
C546 C551 1.418 . S
C546 O600 1.334 . S
C547 C546 1.407 . S
C547 C548 1.360 . S
C547 H608 0.929 . S
C548 C547 1.360 . S
C548 C549 1.401 . S
C548 C552 1.527 . S
C549 C548 1.401 . S
C549 C550 1.405 . S
C549 C582 1.587 . S
C550 C549 1.405 . S
C550 C551 1.332 . S
C550 C553 1.496 . S
C551 C546 1.418 . S
C551 C550 1.332 . S
C551 H609 0.929 . S
C552 C548 1.527 . S
C552 H610 0.959 . S
C552 H611 0.961 . S
C552 H612 0.961 . S
C553 C550 1.496 . S
C553 H613 0.960 . S
C553 H614 0.960 . S
C553 H615 0.961 . S
C554 C555 1.517 . S
C554 H617 0.961 . S
C554 H618 0.960 . S
C554 H619 0.959 . S
C555 C554 1.517 . S
C555 O603 1.468 . S
C555 H616 0.980 . S
C556 C557 1.349 . S
C556 C561 1.367 . S
C556 O603 1.408 . S
C557 C556 1.349 . S
C557 C558 1.407 . S
C557 H620 0.930 . S
C558 C557 1.407 . S
C558 C559 1.449 . S
C558 C562 1.535 . S
C559 C558 1.449 . S
C559 C560 1.384 . S
C559 C584 1.553 . S
C560 C559 1.384 . S
C560 C561 1.364 . S
C560 C563 1.450 . S
C561 C556 1.367 . S
C561 C560 1.364 . S
C561 H621 0.931 . S
C562 C558 1.535 . S
C562 H622 0.959 . S
C562 H623 0.961 . S
C562 H624 0.959 . S
C563 C560 1.450 . S
C563 H625 0.960 . S
C563 H626 0.960 . S
C563 H627 0.960 . S
C564 C565 1.309 . S
C564 C569 1.304 . S
C564 O602 1.435 . S
C565 C564 1.309 . S
C565 C566 1.476 . S
C565 H629 0.930 . S
C566 C565 1.476 . S
C566 C567 1.400 . S
C566 C570 1.567 . S
C567 C566 1.400 . S
C567 C568 1.373 . S
C567 C589 1.432 . S
C568 C567 1.373 . S
C568 C569 1.339 . S
C568 C571 1.530 . S
C569 C564 1.304 . S
C569 C568 1.339 . S
C569 H630 0.930 . S
C570 C566 1.567 . S
C570 H631 0.961 . S
C570 H632 0.960 . S
C570 H633 0.958 . S
C571 C568 1.530 . S
C571 H634 0.961 . S
C571 H635 0.960 . S
C571 H636 0.960 . S
C572 C573 1.530 . S
C572 H638 0.961 . S
C572 H639 0.961 . S
C572 H640 0.959 . S
C573 C572 1.530 . S
C573 O601 1.412 . S
C573 H637 0.980 . S
C574 C575 1.288 . S
C574 C579 1.377 . S
C574 O601 1.393 . S
C575 C574 1.288 . S
C575 C576 1.369 . S
C575 H641 0.932 . S
C576 C575 1.369 . S
C576 C577 1.398 . S
C576 C580 1.527 . S
C577 C576 1.398 . S
C577 C578 1.380 . S
C577 C591 1.497 . S
C578 C577 1.380 . S
C578 C579 1.383 . S
C578 C581 1.603 . S
C579 C574 1.377 . S
C579 C578 1.383 . S
C579 H642 0.929 . S
C580 C576 1.527 . S
C580 H643 0.961 . S
C580 H644 0.959 . S
C580 H645 0.959 . S
C581 C578 1.603 . S
C581 H646 0.960 . S
C581 H647 0.962 . S
C581 H648 0.961 . S
C582 C549 1.587 . S
C582 C583 1.360 . S
C582 C595 1.412 . S
C583 C582 1.360 . S
C583 C584 1.365 1_545 S
C583 H649 0.929 . S
C584 C559 1.553 . S
C584 C583 1.365 1_565 S
C584 C585 1.404 . S
C585 C584 1.404 . S
C585 C586 1.395 . S
C585 C596 1.451 1_565 S
C586 C585 1.395 . S
C586 C587 1.322 . S
C586 H650 0.930 . S
C587 C586 1.322 . S
C587 C588 1.459 . S
C587 H651 0.929 . S
C588 C587 1.459 . S
C588 C589 1.445 . S
C588 C597 1.395 1_565 S
C589 C567 1.432 . S
C589 C588 1.445 . S
C589 C590 1.381 . S
C590 C589 1.381 . S
C590 C591 1.427 1_565 S
C590 H652 0.931 . S
C591 C577 1.497 . S
C591 C590 1.427 1_545 S
C591 C592 1.360 . S
C592 C591 1.360 . S
C592 C593 1.401 . S
C592 C597 1.446 . S
C593 C592 1.401 . S
C593 C594 1.347 . S
C593 H653 0.929 . S
C594 C593 1.347 . S
C594 C595 1.455 . S
C594 H654 0.930 . S
C595 C582 1.412 . S
C595 C594 1.455 . S
C595 C596 1.331 . S
C596 C585 1.451 1_545 S
C596 C595 1.331 . S
C596 C597 1.497 . S
C597 C588 1.395 1_545 S
C597 C592 1.446 . S
C597 C596 1.497 . S
C598 C599 1.582 . S
C598 H655 0.962 . S
C598 H656 0.959 . S
C598 H657 0.958 . S
C599 C598 1.582 . S
C599 O602 1.458 . S
C599 H628 0.980 . S
O600 C545 1.426 . S
O600 C546 1.334 . S
O601 C573 1.412 . S
O601 C574 1.393 . S
O602 C564 1.435 . S
O602 C599 1.458 . S
O603 C555 1.468 . S
O603 C556 1.408 . S
H604 C545 0.980 . S
H605 C544 0.959 . S
H606 C544 0.959 . S
H607 C544 0.960 . S
H608 C547 0.929 . S
H609 C551 0.929 . S
H610 C552 0.959 . S
H611 C552 0.961 . S
H612 C552 0.961 . S
H613 C553 0.960 . S
H614 C553 0.960 . S
H615 C553 0.961 . S
H616 C555 0.980 . S
H617 C554 0.961 . S
H618 C554 0.960 . S
H619 C554 0.959 . S
H620 C557 0.930 . S
H621 C561 0.931 . S
H622 C562 0.959 . S
H623 C562 0.961 . S
H624 C562 0.959 . S
H625 C563 0.960 . S
H626 C563 0.960 . S
H627 C563 0.960 . S
H628 C599 0.980 . S
H629 C565 0.930 . S
H630 C569 0.930 . S
H631 C570 0.961 . S
H632 C570 0.960 . S
H633 C570 0.958 . S
H634 C571 0.961 . S
H635 C571 0.960 . S
H636 C571 0.960 . S
H637 C573 0.980 . S
H638 C572 0.961 . S
H639 C572 0.961 . S
H640 C572 0.959 . S
H641 C575 0.932 . S
H642 C579 0.929 . S
H643 C580 0.961 . S
H644 C580 0.959 . S
H645 C580 0.959 . S
H646 C581 0.960 . S
H647 C581 0.962 . S
H648 C581 0.961 . S
H649 C583 0.929 . S
H650 C586 0.930 . S
H651 C587 0.929 . S
H652 C590 0.931 . S
H653 C593 0.929 . S
H654 C594 0.930 . S
H655 C598 0.962 . S
H656 C598 0.959 . S
H657 C598 0.958 . S
C658 C659 1.560 . S
C658 H719 0.959 . S
C658 H720 0.959 . S
C658 H721 0.960 . S
C659 C658 1.560 . S
C659 O714 1.426 . S
C659 H718 0.980 . S
C660 C661 1.407 . S
C660 C665 1.418 . S
C660 O714 1.334 . S
C661 C660 1.407 . S
C661 C662 1.360 . S
C661 H722 0.929 . S
C662 C661 1.360 . S
C662 C663 1.401 . S
C662 C666 1.527 . S
C663 C662 1.401 . S
C663 C664 1.405 . S
C663 C696 1.587 . S
C664 C663 1.405 . S
C664 C665 1.332 . S
C664 C667 1.496 . S
C665 C660 1.418 . S
C665 C664 1.332 . S
C665 H723 0.929 . S
C666 C662 1.527 . S
C666 H724 0.959 . S
C666 H725 0.961 . S
C666 H726 0.961 . S
C667 C664 1.496 . S
C667 H727 0.960 . S
C667 H728 0.960 . S
C667 H729 0.961 . S
C668 C669 1.517 . S
C668 H731 0.961 . S
C668 H732 0.960 . S
C668 H733 0.959 . S
C669 C668 1.517 . S
C669 O717 1.468 . S
C669 H730 0.980 . S
C670 C671 1.349 . S
C670 C675 1.367 . S
C670 O717 1.408 . S
C671 C670 1.349 . S
C671 C672 1.407 . S
C671 H734 0.930 . S
C672 C671 1.407 . S
C672 C673 1.449 . S
C672 C676 1.535 . S
C673 C672 1.449 . S
C673 C674 1.384 . S
C673 C698 1.553 . S
C674 C673 1.384 . S
C674 C675 1.364 . S
C674 C677 1.450 . S
C675 C670 1.367 . S
C675 C674 1.364 . S
C675 H735 0.931 . S
C676 C672 1.535 . S
C676 H736 0.959 . S
C676 H737 0.961 . S
C676 H738 0.959 . S
C677 C674 1.450 . S
C677 H739 0.960 . S
C677 H740 0.960 . S
C677 H741 0.960 . S
C678 C679 1.309 . S
C678 C683 1.304 . S
C678 O716 1.435 . S
C679 C678 1.309 . S
C679 C680 1.476 . S
C679 H743 0.930 . S
C680 C679 1.476 . S
C680 C681 1.400 . S
C680 C684 1.567 . S
C681 C680 1.400 . S
C681 C682 1.373 . S
C681 C703 1.432 . S
C682 C681 1.373 . S
C682 C683 1.339 . S
C682 C685 1.530 . S
C683 C678 1.304 . S
C683 C682 1.339 . S
C683 H744 0.930 . S
C684 C680 1.567 . S
C684 H745 0.961 . S
C684 H746 0.960 . S
C684 H747 0.958 . S
C685 C682 1.530 . S
C685 H748 0.961 . S
C685 H749 0.960 . S
C685 H750 0.960 . S
C686 C687 1.530 . S
C686 H752 0.961 . S
C686 H753 0.961 . S
C686 H754 0.959 . S
C687 C686 1.530 . S
C687 O715 1.412 . S
C687 H751 0.980 . S
C688 C689 1.288 . S
C688 C693 1.377 . S
C688 O715 1.393 . S
C689 C688 1.288 . S
C689 C690 1.369 . S
C689 H755 0.932 . S
C690 C689 1.369 . S
C690 C691 1.398 . S
C690 C694 1.527 . S
C691 C690 1.398 . S
C691 C692 1.380 . S
C691 C705 1.497 . S
C692 C691 1.380 . S
C692 C693 1.383 . S
C692 C695 1.603 . S
C693 C688 1.377 . S
C693 C692 1.383 . S
C693 H756 0.929 . S
C694 C690 1.527 . S
C694 H757 0.961 . S
C694 H758 0.959 . S
C694 H759 0.959 . S
C695 C692 1.603 . S
C695 H760 0.960 . S
C695 H761 0.962 . S
C695 H762 0.961 . S
C696 C663 1.587 . S
C696 C697 1.360 . S
C696 C709 1.412 . S
C697 C696 1.360 . S
C697 C698 1.365 . S
C697 H763 0.929 . S
C698 C673 1.553 . S
C698 C697 1.365 . S
C698 C699 1.404 . S
C699 C698 1.404 . S
C699 C700 1.395 . S
C699 C710 1.451 . S
C700 C699 1.395 . S
C700 C701 1.322 . S
C700 H764 0.930 . S
C701 C700 1.322 . S
C701 C702 1.459 1_554 S
C701 H765 0.929 1_554 S
C702 C701 1.459 1_556 S
C702 C703 1.445 . S
C702 C711 1.395 1_556 S
C703 C681 1.432 . S
C703 C702 1.445 . S
C703 C704 1.370 . S
C704 C703 1.370 . S
C704 C705 1.438 . S
C704 H766 0.930 . S
C705 C691 1.497 . S
C705 C704 1.438 . S
C705 C706 1.360 . S
C706 C705 1.360 . S
C706 C707 1.401 1_556 S
C706 C711 1.446 1_556 S
C707 C706 1.401 1_554 S
C707 C708 1.347 . S
C707 H767 0.929 . S
C708 C707 1.347 . S
C708 C709 1.455 . S
C708 H768 0.930 . S
C709 C696 1.412 . S
C709 C708 1.455 . S
C709 C710 1.331 . S
C710 C699 1.451 . S
C710 C709 1.331 . S
C710 C711 1.497 . S
C711 C702 1.395 1_554 S
C711 C706 1.446 1_554 S
C711 C710 1.497 . S
C712 C713 1.582 . S
C712 H769 0.962 . S
C712 H770 0.959 . S
C712 H771 0.958 . S
C713 C712 1.582 . S
C713 O716 1.458 . S
C713 H742 0.980 . S
O714 C659 1.426 . S
O714 C660 1.334 . S
O715 C687 1.412 . S
O715 C688 1.393 . S
O716 C678 1.435 . S
O716 C713 1.458 . S
O717 C669 1.468 . S
O717 C670 1.408 . S
H718 C659 0.980 . S
H719 C658 0.959 . S
H720 C658 0.959 . S
H721 C658 0.960 . S
H722 C661 0.929 . S
H723 C665 0.929 . S
H724 C666 0.959 . S
H725 C666 0.961 . S
H726 C666 0.961 . S
H727 C667 0.960 . S
H728 C667 0.960 . S
H729 C667 0.961 . S
H730 C669 0.980 . S
H731 C668 0.961 . S
H732 C668 0.960 . S
H733 C668 0.959 . S
H734 C671 0.930 . S
H735 C675 0.931 . S
H736 C676 0.959 . S
H737 C676 0.961 . S
H738 C676 0.959 . S
H739 C677 0.960 . S
H740 C677 0.960 . S
H741 C677 0.960 . S
H742 C713 0.980 . S
H743 C679 0.930 . S
H744 C683 0.930 . S
H745 C684 0.961 . S
H746 C684 0.960 . S
H747 C684 0.958 . S
H748 C685 0.961 . S
H749 C685 0.960 . S
H750 C685 0.960 . S
H751 C687 0.980 . S
H752 C686 0.961 . S
H753 C686 0.961 . S
H754 C686 0.959 . S
H755 C689 0.932 . S
H756 C693 0.929 . S
H757 C694 0.961 . S
H758 C694 0.959 . S
H759 C694 0.959 . S
H760 C695 0.960 . S
H761 C695 0.962 . S
H762 C695 0.961 . S
H763 C697 0.929 . S
H764 C700 0.930 . S
H765 C701 0.929 1_556 S
H766 C704 0.930 . S
H767 C707 0.929 . S
H768 C708 0.930 . S
H769 C712 0.962 . S
H770 C712 0.959 . S
H771 C712 0.958 . S
H772 C784 0.930 . S
H773 C786 0.930 . S
H774 C787 0.930 . S
H775 C791 0.959 . S
H776 C791 0.959 . S
H777 C791 0.961 . S
H778 C792 0.960 . S
H779 C792 0.961 . S
H780 C792 0.959 . S
H781 C795 0.929 . S
H782 C796 0.931 . S
H783 C798 0.930 . S
C784 H772 0.930 . S
C784 C785 1.399 . S
C784 C789 1.399 . S
C785 C784 1.399 . S
C785 C786 1.376 . S
C786 H773 0.930 . S
C786 C785 1.376 . S
C786 C787 1.388 . S
C787 H774 0.930 . S
C787 C786 1.388 . S
C787 C788 1.390 . S
C788 C787 1.390 . S
C788 C789 1.394 . S
C788 C794 1.465 . S
C789 C784 1.399 . S
C789 C788 1.394 . S
C789 C790 1.516 . S
C790 C789 1.516 . S
C790 C791 1.502 . S
C790 C792 1.561 . S
C790 C793 1.526 . S
C791 H775 0.959 . S
C791 H776 0.959 . S
C791 H777 0.961 . S
C791 C790 1.502 . S
C792 H778 0.960 . S
C792 H779 0.961 . S
C792 H780 0.959 . S
C792 C790 1.561 . S
C793 C790 1.526 . S
C793 C794 1.396 . S
C793 C798 1.390 . S
C794 C788 1.465 . S
C794 C793 1.396 . S
C794 C795 1.399 . S
C795 H781 0.929 . S
C795 C794 1.399 . S
C795 C796 1.385 . S
C796 H782 0.931 . S
C796 C795 1.385 . S
C796 C797 1.389 . S
C797 C796 1.389 . S
C797 C798 1.387 . S
C798 H783 0.930 . S
C798 C793 1.390 . S
C798 C797 1.387 . S
H799 C811 0.930 . S
H800 C813 0.930 . S
H801 C814 0.930 . S
H802 C818 0.959 . S
H803 C818 0.959 . S
H804 C818 0.961 . S
H805 C819 0.960 . S
H806 C819 0.961 . S
H807 C819 0.959 . S
H808 C822 0.929 . S
H809 C823 0.931 . S
H810 C825 0.930 . S
C811 H799 0.930 . S
C811 C812 1.399 . S
C811 C816 1.399 . S
C812 C811 1.399 . S
C812 C813 1.376 . S
C813 H800 0.930 . S
C813 C812 1.376 . S
C813 C814 1.388 . S
C814 H801 0.930 . S
C814 C813 1.388 . S
C814 C815 1.390 . S
C815 C814 1.390 . S
C815 C816 1.394 . S
C815 C821 1.465 . S
C816 C811 1.399 . S
C816 C815 1.394 . S
C816 C817 1.516 . S
C817 C816 1.516 . S
C817 C818 1.502 . S
C817 C819 1.561 . S
C817 C820 1.526 . S
C818 H802 0.959 . S
C818 H803 0.959 . S
C818 H804 0.961 . S
C818 C817 1.502 . S
C819 H805 0.960 . S
C819 H806 0.961 . S
C819 H807 0.959 . S
C819 C817 1.561 . S
C820 C817 1.526 . S
C820 C821 1.396 . S
C820 C825 1.390 . S
C821 C815 1.465 . S
C821 C820 1.396 . S
C821 C822 1.399 . S
C822 H808 0.929 . S
C822 C821 1.399 . S
C822 C823 1.385 . S
C823 H809 0.931 . S
C823 C822 1.385 . S
C823 C824 1.389 . S
C824 C823 1.389 . S
C824 C825 1.387 . S
C825 H810 0.930 . S
C825 C820 1.390 . S
C825 C824 1.387 . S
H826 C838 0.930 . S
H827 C840 0.930 . S
H828 C841 0.930 . S
H829 C845 0.959 . S
H830 C845 0.959 . S
H831 C845 0.961 . S
H832 C846 0.960 . S
H833 C846 0.961 . S
H834 C846 0.959 . S
H835 C849 0.929 . S
H836 C850 0.931 . S
H837 C852 0.930 . S
C838 H826 0.930 . S
C838 C839 1.399 . S
C838 C843 1.399 . S
C839 C838 1.399 . S
C839 C840 1.376 . S
C840 H827 0.930 . S
C840 C839 1.376 . S
C840 C841 1.388 . S
C841 H828 0.930 . S
C841 C840 1.388 . S
C841 C842 1.390 . S
C842 C841 1.390 . S
C842 C843 1.394 . S
C842 C848 1.465 . S
C843 C838 1.399 . S
C843 C842 1.394 . S
C843 C844 1.516 . S
C844 C843 1.516 . S
C844 C845 1.502 . S
C844 C846 1.561 . S
C844 C847 1.526 . S
C845 H829 0.959 . S
C845 H830 0.959 . S
C845 H831 0.961 . S
C845 C844 1.502 . S
C846 H832 0.960 . S
C846 H833 0.961 . S
C846 H834 0.959 . S
C846 C844 1.561 . S
C847 C844 1.526 . S
C847 C848 1.396 . S
C847 C852 1.390 . S
C848 C842 1.465 . S
C848 C847 1.396 . S
C848 C849 1.399 . S
C849 H835 0.929 . S
C849 C848 1.399 . S
C849 C850 1.385 . S
C850 H836 0.931 . S
C850 C849 1.385 . S
C850 C851 1.389 . S
C851 C850 1.389 . S
C851 C852 1.387 . S
C852 H837 0.930 . S
C852 C847 1.390 . S
C852 C851 1.387 . S
H853 C865 0.930 . S
H854 C867 0.930 . S
H855 C868 0.930 . S
H856 C872 0.959 . S
H857 C872 0.959 . S
H858 C872 0.961 . S
H859 C873 0.960 . S
H860 C873 0.961 . S
H861 C873 0.959 . S
H862 C876 0.929 . S
H863 C877 0.931 . S
H864 C879 0.930 . S
C865 H853 0.930 . S
C865 C866 1.399 . S
C865 C870 1.399 . S
C866 C865 1.399 . S
C866 C867 1.376 . S
C867 H854 0.930 . S
C867 C866 1.376 . S
C867 C868 1.388 . S
C868 H855 0.930 . S
C868 C867 1.388 . S
C868 C869 1.390 . S
C869 C868 1.390 . S
C869 C870 1.394 . S
C869 C875 1.465 . S
C870 C865 1.399 . S
C870 C869 1.394 . S
C870 C871 1.516 . S
C871 C870 1.516 . S
C871 C872 1.502 . S
C871 C873 1.561 . S
C871 C874 1.526 . S
C872 H856 0.959 . S
C872 H857 0.959 . S
C872 H858 0.961 . S
C872 C871 1.502 . S
C873 H859 0.960 . S
C873 H860 0.961 . S
C873 H861 0.959 . S
C873 C871 1.561 . S
C874 C871 1.526 . S
C874 C875 1.396 . S
C874 C879 1.390 . S
C875 C869 1.465 . S
C875 C874 1.396 . S
C875 C876 1.399 . S
C876 H862 0.929 . S
C876 C875 1.399 . S
C876 C877 1.385 . S
C877 H863 0.931 . S
C877 C876 1.385 . S
C877 C878 1.389 . S
C878 C877 1.389 . S
C878 C879 1.387 . S
C879 H864 0.930 . S
C879 C874 1.390 . S
C879 C878 1.387 . S
H880 C892 0.930 . S
H881 C894 0.930 . S
H882 C895 0.930 . S
H883 C899 0.959 . S
H884 C899 0.959 . S
H885 C899 0.961 . S
H886 C900 0.960 . S
H887 C900 0.961 . S
H888 C900 0.959 . S
H889 C903 0.929 . S
H890 C904 0.931 . S
H891 C906 0.930 . S
C892 H880 0.930 . S
C892 C893 1.399 . S
C892 C897 1.399 . S
C893 C892 1.399 . S
C893 C894 1.376 . S
C894 H881 0.930 . S
C894 C893 1.376 . S
C894 C895 1.388 . S
C895 H882 0.930 . S
C895 C894 1.388 . S
C895 C896 1.390 . S
C896 C895 1.390 . S
C896 C897 1.394 . S
C896 C902 1.465 . S
C897 C892 1.399 . S
C897 C896 1.394 . S
C897 C898 1.516 . S
C898 C897 1.516 . S
C898 C899 1.502 . S
C898 C900 1.561 . S
C898 C901 1.526 . S
C899 H883 0.959 . S
C899 H884 0.959 . S
C899 H885 0.961 . S
C899 C898 1.502 . S
C900 H886 0.960 . S
C900 H887 0.961 . S
C900 H888 0.959 . S
C900 C898 1.561 . S
C901 C898 1.526 . S
C901 C902 1.396 . S
C901 C906 1.390 . S
C902 C896 1.465 . S
C902 C901 1.396 . S
C902 C903 1.399 . S
C903 H889 0.929 . S
C903 C902 1.399 . S
C903 C904 1.385 . S
C904 H890 0.931 . S
C904 C903 1.385 . S
C904 C905 1.389 . S
C905 C904 1.389 . S
C905 C906 1.387 . S
C906 H891 0.930 . S
C906 C901 1.390 . S
C906 C905 1.387 . S
H907 C919 0.930 . S
H908 C921 0.930 . S
H909 C922 0.930 . S
H910 C926 0.959 . S
H911 C926 0.959 . S
H912 C926 0.961 . S
H913 C927 0.960 . S
H914 C927 0.961 . S
H915 C927 0.959 . S
H916 C930 0.929 . S
H917 C931 0.931 . S
H918 C933 0.930 . S
C919 H907 0.930 . S
C919 C920 1.399 . S
C919 C924 1.399 . S
C920 C919 1.399 . S
C920 C921 1.376 . S
C921 H908 0.930 . S
C921 C920 1.376 . S
C921 C922 1.388 . S
C922 H909 0.930 . S
C922 C921 1.388 . S
C922 C923 1.390 . S
C923 C922 1.390 . S
C923 C924 1.394 . S
C923 C929 1.465 . S
C924 C919 1.399 . S
C924 C923 1.394 . S
C924 C925 1.516 . S
C925 C924 1.516 . S
C925 C926 1.502 . S
C925 C927 1.561 . S
C925 C928 1.526 . S
C926 H910 0.959 . S
C926 H911 0.959 . S
C926 H912 0.961 . S
C926 C925 1.502 . S
C927 H913 0.960 . S
C927 H914 0.961 . S
C927 H915 0.959 . S
C927 C925 1.561 . S
C928 C925 1.526 . S
C928 C929 1.396 . S
C928 C933 1.390 . S
C929 C923 1.465 . S
C929 C928 1.396 . S
C929 C930 1.399 . S
C930 H916 0.929 . S
C930 C929 1.399 . S
C930 C931 1.385 . S
C931 H917 0.931 . S
C931 C930 1.385 . S
C931 C932 1.389 . S
C932 C931 1.389 . S
C932 C933 1.387 . S
C933 H918 0.930 . S
C933 C928 1.390 . S
C933 C932 1.387 . S
H934 C946 0.930 . S
H935 C948 0.930 . S
H936 C949 0.930 . S
H937 C953 0.959 . S
H938 C953 0.959 . S
H939 C953 0.961 . S
H940 C954 0.960 . S
H941 C954 0.961 . S
H942 C954 0.959 . S
H943 C957 0.929 . S
H944 C958 0.931 . S
H945 C960 0.930 . S
C946 H934 0.930 . S
C946 C947 1.399 . S
C946 C951 1.399 . S
C947 C946 1.399 . S
C947 C948 1.376 . S
C948 H935 0.930 . S
C948 C947 1.376 . S
C948 C949 1.388 . S
C949 H936 0.930 . S
C949 C948 1.388 . S
C949 C950 1.390 . S
C950 C949 1.390 . S
C950 C951 1.394 . S
C950 C956 1.465 . S
C951 C946 1.399 . S
C951 C950 1.394 . S
C951 C952 1.516 . S
C952 C951 1.516 . S
C952 C953 1.502 . S
C952 C954 1.561 . S
C952 C955 1.526 . S
C953 H937 0.959 . S
C953 H938 0.959 . S
C953 H939 0.961 . S
C953 C952 1.502 . S
C954 H940 0.960 . S
C954 H941 0.961 . S
C954 H942 0.959 . S
C954 C952 1.561 . S
C955 C952 1.526 . S
C955 C956 1.396 . S
C955 C960 1.390 . S
C956 C950 1.465 . S
C956 C955 1.396 . S
C956 C957 1.399 . S
C957 H943 0.929 . S
C957 C956 1.399 . S
C957 C958 1.385 . S
C958 H944 0.931 . S
C958 C957 1.385 . S
C958 C959 1.389 . S
C959 C958 1.389 . S
C959 C960 1.387 . S
C960 H945 0.930 . S
C960 C955 1.390 . S
C960 C959 1.387 . S
H961 C973 0.930 . S
H962 C975 0.930 . S
H963 C976 0.930 . S
H964 C980 0.959 . S
H965 C980 0.959 . S
H966 C980 0.961 . S
H967 C981 0.960 . S
H968 C981 0.961 . S
H969 C981 0.959 . S
H970 C984 0.929 . S
H971 C985 0.931 . S
H972 C987 0.930 . S
C973 H961 0.930 . S
C973 C974 1.399 . S
C973 C978 1.399 . S
C974 C973 1.399 . S
C974 C975 1.376 . S
C975 H962 0.930 . S
C975 C974 1.376 . S
C975 C976 1.388 . S
C976 H963 0.930 . S
C976 C975 1.388 . S
C976 C977 1.390 . S
C977 C976 1.390 . S
C977 C978 1.394 . S
C977 C983 1.465 . S
C978 C973 1.399 . S
C978 C977 1.394 . S
C978 C979 1.516 . S
C979 C978 1.516 . S
C979 C980 1.502 . S
C979 C981 1.561 . S
C979 C982 1.526 . S
C980 H964 0.959 . S
C980 H965 0.959 . S
C980 H966 0.961 . S
C980 C979 1.502 . S
C981 H967 0.960 . S
C981 H968 0.961 . S
C981 H969 0.959 . S
C981 C979 1.561 . S
C982 C979 1.526 . S
C982 C983 1.396 . S
C982 C987 1.390 . S
C983 C977 1.465 . S
C983 C982 1.396 . S
C983 C984 1.399 . S
C984 H970 0.929 . S
C984 C983 1.399 . S
C984 C985 1.385 . S
C985 H971 0.931 . S
C985 C984 1.385 . S
C985 C986 1.389 . S
C986 C985 1.389 . S
C986 C987 1.387 . S
C987 H972 0.930 . S
C987 C982 1.390 . S
C987 C986 1.387 . S
H988 C1000 0.930 . S
H989 C1002 0.930 . S
H990 C1003 0.930 . S
H991 C1007 0.959 . S
H992 C1007 0.959 . S
H993 C1007 0.961 . S
H994 C1008 0.960 . S
H995 C1008 0.961 . S
H996 C1008 0.959 . S
H997 C1011 0.929 . S
H998 C1012 0.931 . S
H999 C1014 0.930 . S
C1000 H988 0.930 . S
C1000 C1001 1.399 . S
C1000 C1005 1.399 . S
C1001 C1000 1.399 . S
C1001 C1002 1.376 . S
C1002 H989 0.930 . S
C1002 C1001 1.376 . S
C1002 C1003 1.388 . S
C1003 H990 0.930 . S
C1003 C1002 1.388 . S
C1003 C1004 1.390 . S
C1004 C1003 1.390 . S
C1004 C1005 1.394 . S
C1004 C1010 1.465 . S
C1005 C1000 1.399 . S
C1005 C1004 1.394 . S
C1005 C1006 1.516 . S
C1006 C1005 1.516 . S
C1006 C1007 1.502 . S
C1006 C1008 1.561 . S
C1006 C1009 1.526 . S
C1007 H991 0.959 . S
C1007 H992 0.959 . S
C1007 H993 0.961 . S
C1007 C1006 1.502 . S
C1008 H994 0.960 . S
C1008 H995 0.961 . S
C1008 H996 0.959 . S
C1008 C1006 1.561 . S
C1009 C1006 1.526 . S
C1009 C1010 1.396 . S
C1009 C1014 1.390 . S
C1010 C1004 1.465 . S
C1010 C1009 1.396 . S
C1010 C1011 1.399 . S
C1011 H997 0.929 . S
C1011 C1010 1.399 . S
C1011 C1012 1.385 1_565 S
C1012 H998 0.931 . S
C1012 C1011 1.385 1_545 S
C1012 C1013 1.389 . S
C1013 C1012 1.389 . S
C1013 C1014 1.387 1_545 S
C1014 H999 0.930 . S
C1014 C1009 1.390 . S
C1014 C1013 1.387 1_565 S
H1015 C1027 0.930 . S
H1016 C1029 0.930 . S
H1017 C1030 0.930 . S
H1018 C1034 0.959 . S
H1019 C1034 0.959 . S
H1020 C1034 0.961 . S
H1021 C1035 0.960 . S
H1022 C1035 0.961 . S
H1023 C1035 0.959 . S
H1024 C1038 0.929 . S
H1025 C1039 0.931 . S
H1026 C1041 0.930 . S
C1027 H1015 0.930 . S
C1027 C1028 1.399 . S
C1027 C1032 1.399 . S
C1028 C1027 1.399 . S
C1028 C1029 1.376 . S
C1029 H1016 0.930 . S
C1029 C1028 1.376 . S
C1029 C1030 1.388 . S
C1030 H1017 0.930 . S
C1030 C1029 1.388 . S
C1030 C1031 1.390 . S
C1031 C1030 1.390 . S
C1031 C1032 1.394 . S
C1031 C1037 1.465 . S
C1032 C1027 1.399 . S
C1032 C1031 1.394 . S
C1032 C1033 1.516 . S
C1033 C1032 1.516 . S
C1033 C1034 1.502 . S
C1033 C1035 1.561 . S
C1033 C1036 1.526 . S
C1034 H1018 0.959 . S
C1034 H1019 0.959 . S
C1034 H1020 0.961 . S
C1034 C1033 1.502 . S
C1035 H1021 0.960 . S
C1035 H1022 0.961 . S
C1035 H1023 0.959 . S
C1035 C1033 1.561 . S
C1036 C1033 1.526 . S
C1036 C1037 1.396 . S
C1036 C1041 1.390 . S
C1037 C1031 1.465 . S
C1037 C1036 1.396 . S
C1037 C1038 1.399 . S
C1038 H1024 0.929 . S
C1038 C1037 1.399 . S
C1038 C1039 1.385 . S
C1039 H1025 0.931 . S
C1039 C1038 1.385 . S
C1039 C1040 1.389 . S
C1040 C1039 1.389 . S
C1040 C1041 1.387 . S
C1041 H1026 0.930 . S
C1041 C1036 1.390 . S
C1041 C1040 1.387 . S
H1042 C1054 0.930 . S
H1043 C1056 0.930 . S
H1044 C1057 0.930 . S
H1045 C1061 0.959 . S
H1046 C1061 0.959 . S
H1047 C1061 0.961 . S
H1048 C1062 0.960 . S
H1049 C1062 0.961 . S
H1050 C1062 0.959 . S
H1051 C1065 0.929 . S
H1052 C1066 0.931 . S
H1053 C1068 0.930 . S
C1054 H1042 0.930 . S
C1054 C1055 1.399 . S
C1054 C1059 1.399 . S
C1055 C1054 1.399 . S
C1055 C1056 1.376 . S
C1056 H1043 0.930 . S
C1056 C1055 1.376 . S
C1056 C1057 1.388 . S
C1057 H1044 0.930 . S
C1057 C1056 1.388 . S
C1057 C1058 1.390 . S
C1058 C1057 1.390 . S
C1058 C1059 1.394 . S
C1058 C1064 1.465 . S
C1059 C1054 1.399 . S
C1059 C1058 1.394 . S
C1059 C1060 1.516 . S
C1060 C1059 1.516 . S
C1060 C1061 1.502 . S
C1060 C1062 1.561 . S
C1060 C1063 1.526 . S
C1061 H1045 0.959 . S
C1061 H1046 0.959 . S
C1061 H1047 0.961 . S
C1061 C1060 1.502 . S
C1062 H1048 0.960 . S
C1062 H1049 0.961 . S
C1062 H1050 0.959 . S
C1062 C1060 1.561 . S
C1063 C1060 1.526 . S
C1063 C1064 1.396 . S
C1063 C1068 1.390 . S
C1064 C1058 1.465 . S
C1064 C1063 1.396 . S
C1064 C1065 1.399 . S
C1065 H1051 0.929 . S
C1065 C1064 1.399 . S
C1065 C1066 1.385 . S
C1066 H1052 0.931 . S
C1066 C1065 1.385 . S
C1066 C1067 1.389 . S
C1067 C1066 1.389 . S
C1067 C1068 1.387 . S
C1068 H1053 0.930 . S
C1068 C1063 1.390 . S
C1068 C1067 1.387 . S
H1069 C1081 0.930 . S
H1070 C1083 0.930 . S
H1071 C1084 0.930 . S
H1072 C1088 0.959 . S
H1073 C1088 0.959 . S
H1074 C1088 0.961 . S
H1075 C1089 0.960 . S
H1076 C1089 0.961 . S
H1077 C1089 0.959 . S
H1078 C1092 0.929 . S
H1079 C1093 0.931 . S
H1080 C1095 0.930 . S
C1081 H1069 0.930 . S
C1081 C1082 1.399 . S
C1081 C1086 1.399 . S
C1082 C1081 1.399 . S
C1082 C1083 1.376 . S
C1083 H1070 0.930 . S
C1083 C1082 1.376 . S
C1083 C1084 1.388 . S
C1084 H1071 0.930 . S
C1084 C1083 1.388 . S
C1084 C1085 1.390 . S
C1085 C1084 1.390 . S
C1085 C1086 1.394 . S
C1085 C1091 1.465 . S
C1086 C1081 1.399 . S
C1086 C1085 1.394 . S
C1086 C1087 1.516 . S
C1087 C1086 1.516 . S
C1087 C1088 1.502 . S
C1087 C1089 1.561 . S
C1087 C1090 1.526 . S
C1088 H1072 0.959 . S
C1088 H1073 0.959 . S
C1088 H1074 0.961 . S
C1088 C1087 1.502 . S
C1089 H1075 0.960 . S
C1089 H1076 0.961 . S
C1089 H1077 0.959 . S
C1089 C1087 1.561 . S
C1090 C1087 1.526 . S
C1090 C1091 1.396 . S
C1090 C1095 1.390 . S
C1091 C1085 1.465 . S
C1091 C1090 1.396 . S
C1091 C1092 1.399 . S
C1092 H1078 0.929 . S
C1092 C1091 1.399 . S
C1092 C1093 1.385 . S
C1093 H1079 0.931 . S
C1093 C1092 1.385 . S
C1093 C1094 1.389 . S
C1094 C1093 1.389 . S
C1094 C1095 1.387 . S
C1095 H1080 0.930 . S
C1095 C1090 1.390 . S
C1095 C1094 1.387 . S
H1096 C1108 0.930 . S
H1097 C1110 0.930 . S
H1098 C1111 0.930 . S
H1099 C1115 0.959 . S
H1100 C1115 0.959 . S
H1101 C1115 0.961 . S
H1102 C1116 0.960 . S
H1103 C1116 0.961 . S
H1104 C1116 0.959 . S
H1105 C1119 0.929 . S
H1106 C1120 0.931 . S
H1107 C1122 0.930 . S
C1108 H1096 0.930 . S
C1108 C1109 1.399 . S
C1108 C1113 1.399 . S
C1109 C1108 1.399 . S
C1109 C1110 1.376 . S
C1110 H1097 0.930 . S
C1110 C1109 1.376 . S
C1110 C1111 1.388 . S
C1111 H1098 0.930 . S
C1111 C1110 1.388 . S
C1111 C1112 1.390 . S
C1112 C1111 1.390 . S
C1112 C1113 1.394 . S
C1112 C1118 1.465 . S
C1113 C1108 1.399 . S
C1113 C1112 1.394 . S
C1113 C1114 1.516 . S
C1114 C1113 1.516 . S
C1114 C1115 1.502 . S
C1114 C1116 1.561 . S
C1114 C1117 1.526 . S
C1115 H1099 0.959 . S
C1115 H1100 0.959 . S
C1115 H1101 0.961 . S
C1115 C1114 1.502 . S
C1116 H1102 0.960 . S
C1116 H1103 0.961 . S
C1116 H1104 0.959 . S
C1116 C1114 1.561 . S
C1117 C1114 1.526 . S
C1117 C1118 1.396 . S
C1117 C1122 1.390 . S
C1118 C1112 1.465 . S
C1118 C1117 1.396 . S
C1118 C1119 1.399 . S
C1119 H1105 0.929 . S
C1119 C1118 1.399 . S
C1119 C1120 1.385 . S
C1120 H1106 0.931 . S
C1120 C1119 1.385 . S
C1120 C1121 1.389 . S
C1121 C1120 1.389 . S
C1121 C1122 1.387 . S
C1122 H1107 0.930 . S
C1122 C1117 1.390 . S
C1122 C1121 1.387 . S
H1123 C1135 0.930 . S
H1124 C1137 0.930 . S
H1125 C1138 0.930 . S
H1126 C1142 0.959 . S
H1127 C1142 0.959 . S
H1128 C1142 0.961 . S
H1129 C1143 0.960 . S
H1130 C1143 0.961 . S
H1131 C1143 0.959 . S
H1132 C1146 0.929 . S
H1133 C1147 0.931 . S
H1134 C1149 0.930 . S
C1135 H1123 0.930 . S
C1135 C1136 1.399 . S
C1135 C1140 1.399 . S
C1136 C1135 1.399 . S
C1136 C1137 1.376 . S
C1137 H1124 0.930 . S
C1137 C1136 1.376 . S
C1137 C1138 1.388 . S
C1138 H1125 0.930 . S
C1138 C1137 1.388 . S
C1138 C1139 1.390 . S
C1139 C1138 1.390 . S
C1139 C1140 1.394 . S
C1139 C1145 1.465 . S
C1140 C1135 1.399 . S
C1140 C1139 1.394 . S
C1140 C1141 1.516 . S
C1141 C1140 1.516 . S
C1141 C1142 1.502 . S
C1141 C1143 1.561 . S
C1141 C1144 1.526 . S
C1142 H1126 0.959 . S
C1142 H1127 0.959 . S
C1142 H1128 0.961 . S
C1142 C1141 1.502 . S
C1143 H1129 0.960 . S
C1143 H1130 0.961 . S
C1143 H1131 0.959 . S
C1143 C1141 1.561 . S
C1144 C1141 1.526 . S
C1144 C1145 1.396 . S
C1144 C1149 1.390 . S
C1145 C1139 1.465 . S
C1145 C1144 1.396 . S
C1145 C1146 1.399 . S
C1146 H1132 0.929 . S
C1146 C1145 1.399 . S
C1146 C1147 1.385 . S
C1147 H1133 0.931 . S
C1147 C1146 1.385 . S
C1147 C1148 1.389 . S
C1148 C1147 1.389 . S
C1148 C1149 1.387 . S
C1149 H1134 0.930 . S
C1149 C1144 1.390 . S
C1149 C1148 1.387 . S
H1150 C1162 0.930 . S
H1151 C1164 0.930 . S
H1152 C1165 0.930 . S
H1153 C1169 0.959 . S
H1154 C1169 0.959 . S
H1155 C1169 0.961 . S
H1156 C1170 0.960 . S
H1157 C1170 0.961 . S
H1158 C1170 0.959 . S
H1159 C1173 0.929 . S
H1160 C1174 0.931 . S
H1161 C1176 0.930 . S
C1162 H1150 0.930 . S
C1162 C1163 1.399 . S
C1162 C1167 1.399 . S
C1163 C1162 1.399 . S
C1163 C1164 1.376 . S
C1164 H1151 0.930 . S
C1164 C1163 1.376 . S
C1164 C1165 1.388 . S
C1165 H1152 0.930 . S
C1165 C1164 1.388 . S
C1165 C1166 1.390 . S
C1166 C1165 1.390 . S
C1166 C1167 1.394 . S
C1166 C1172 1.465 . S
C1167 C1162 1.399 . S
C1167 C1166 1.394 . S
C1167 C1168 1.516 . S
C1168 C1167 1.516 . S
C1168 C1169 1.502 . S
C1168 C1170 1.561 . S
C1168 C1171 1.526 . S
C1169 H1153 0.959 . S
C1169 H1154 0.959 . S
C1169 H1155 0.961 . S
C1169 C1168 1.502 . S
C1170 H1156 0.960 . S
C1170 H1157 0.961 . S
C1170 H1158 0.959 . S
C1170 C1168 1.561 . S
C1171 C1168 1.526 . S
C1171 C1172 1.396 . S
C1171 C1176 1.390 . S
C1172 C1166 1.465 . S
C1172 C1171 1.396 . S
C1172 C1173 1.399 . S
C1173 H1159 0.929 . S
C1173 C1172 1.399 . S
C1173 C1174 1.385 . S
C1174 H1160 0.931 . S
C1174 C1173 1.385 . S
C1174 C1175 1.389 . S
C1175 C1174 1.389 . S
C1175 C1176 1.387 . S
C1176 H1161 0.930 . S
C1176 C1171 1.390 . S
C1176 C1175 1.387 . S
H1177 C1189 0.930 . S
H1178 C1191 0.930 . S
H1179 C1192 0.930 . S
H1180 C1196 0.959 . S
H1181 C1196 0.959 . S
H1182 C1196 0.961 . S
H1183 C1197 0.960 . S
H1184 C1197 0.961 . S
H1185 C1197 0.959 . S
H1186 C1200 0.929 . S
H1187 C1201 0.931 . S
H1188 C1203 0.930 . S
C1189 H1177 0.930 . S
C1189 C1190 1.399 . S
C1189 C1194 1.399 . S
C1190 C1189 1.399 . S
C1190 C1191 1.376 . S
C1191 H1178 0.930 . S
C1191 C1190 1.376 . S
C1191 C1192 1.388 . S
C1192 H1179 0.930 . S
C1192 C1191 1.388 . S
C1192 C1193 1.390 . S
C1193 C1192 1.390 . S
C1193 C1194 1.394 . S
C1193 C1199 1.465 . S
C1194 C1189 1.399 . S
C1194 C1193 1.394 . S
C1194 C1195 1.516 . S
C1195 C1194 1.516 . S
C1195 C1196 1.502 . S
C1195 C1197 1.561 . S
C1195 C1198 1.526 . S
C1196 H1180 0.959 . S
C1196 H1181 0.959 . S
C1196 H1182 0.961 . S
C1196 C1195 1.502 . S
C1197 H1183 0.960 . S
C1197 H1184 0.961 . S
C1197 H1185 0.959 . S
C1197 C1195 1.561 . S
C1198 C1195 1.526 . S
C1198 C1199 1.396 . S
C1198 C1203 1.390 . S
C1199 C1193 1.465 . S
C1199 C1198 1.396 . S
C1199 C1200 1.399 . S
C1200 H1186 0.929 . S
C1200 C1199 1.399 . S
C1200 C1201 1.385 . S
C1201 H1187 0.931 . S
C1201 C1200 1.385 . S
C1201 C1202 1.389 . S
C1202 C1201 1.389 . S
C1202 C1203 1.387 . S
C1203 H1188 0.930 . S
C1203 C1198 1.390 . S
C1203 C1202 1.387 . S
H1204 C1216 0.930 . S
H1205 C1218 0.930 . S
H1206 C1219 0.930 . S
H1207 C1223 0.959 . S
H1208 C1223 0.959 . S
H1209 C1223 0.961 . S
H1210 C1224 0.960 . S
H1211 C1224 0.961 . S
H1212 C1224 0.959 . S
H1213 C1227 0.929 . S
H1214 C1228 0.931 . S
H1215 C1230 0.930 . S
C1216 H1204 0.930 . S
C1216 C1217 1.399 . S
C1216 C1221 1.399 . S
C1217 C1216 1.399 . S
C1217 C1218 1.376 . S
C1218 H1205 0.930 . S
C1218 C1217 1.376 . S
C1218 C1219 1.388 . S
C1219 H1206 0.930 . S
C1219 C1218 1.388 . S
C1219 C1220 1.390 . S
C1220 C1219 1.390 . S
C1220 C1221 1.394 . S
C1220 C1226 1.465 . S
C1221 C1216 1.399 . S
C1221 C1220 1.394 . S
C1221 C1222 1.516 . S
C1222 C1221 1.516 . S
C1222 C1223 1.502 . S
C1222 C1224 1.561 . S
C1222 C1225 1.526 . S
C1223 H1207 0.959 . S
C1223 H1208 0.959 . S
C1223 H1209 0.961 . S
C1223 C1222 1.502 . S
C1224 H1210 0.960 . S
C1224 H1211 0.961 . S
C1224 H1212 0.959 . S
C1224 C1222 1.561 . S
C1225 C1222 1.526 . S
C1225 C1226 1.396 . S
C1225 C1230 1.390 . S
C1226 C1220 1.465 . S
C1226 C1225 1.396 . S
C1226 C1227 1.399 . S
C1227 H1213 0.929 . S
C1227 C1226 1.399 . S
C1227 C1228 1.385 . S
C1228 H1214 0.931 . S
C1228 C1227 1.385 . S
C1228 C1229 1.389 . S
C1229 C1228 1.389 . S
C1229 C1230 1.387 . S
C1230 H1215 0.930 . S
C1230 C1225 1.390 . S
C1230 C1229 1.387 . S
H1231 C1243 0.930 . S
H1232 C1245 0.930 . S
H1233 C1246 0.930 . S
H1234 C1250 0.959 . S
H1235 C1250 0.959 . S
H1236 C1250 0.961 . S
H1237 C1251 0.960 . S
H1238 C1251 0.961 . S
H1239 C1251 0.959 . S
H1240 C1254 0.929 . S
H1241 C1255 0.931 . S
H1242 C1257 0.930 . S
C1243 H1231 0.930 . S
C1243 C1244 1.399 . S
C1243 C1248 1.399 . S
C1244 C1243 1.399 . S
C1244 C1245 1.376 . S
C1245 H1232 0.930 . S
C1245 C1244 1.376 . S
C1245 C1246 1.388 . S
C1246 H1233 0.930 . S
C1246 C1245 1.388 . S
C1246 C1247 1.390 . S
C1247 C1246 1.390 . S
C1247 C1248 1.394 . S
C1247 C1253 1.465 . S
C1248 C1243 1.399 . S
C1248 C1247 1.394 . S
C1248 C1249 1.516 . S
C1249 C1248 1.516 . S
C1249 C1250 1.502 . S
C1249 C1251 1.561 . S
C1249 C1252 1.526 . S
C1250 H1234 0.959 . S
C1250 H1235 0.959 . S
C1250 H1236 0.961 . S
C1250 C1249 1.502 . S
C1251 H1237 0.960 . S
C1251 H1238 0.961 . S
C1251 H1239 0.959 . S
C1251 C1249 1.561 . S
C1252 C1249 1.526 . S
C1252 C1253 1.396 . S
C1252 C1257 1.390 . S
C1253 C1247 1.465 . S
C1253 C1252 1.396 . S
C1253 C1254 1.399 . S
C1254 H1240 0.929 . S
C1254 C1253 1.399 . S
C1254 C1255 1.385 . S
C1255 H1241 0.931 . S
C1255 C1254 1.385 . S
C1255 C1256 1.389 . S
C1256 C1255 1.389 . S
C1256 C1257 1.387 . S
C1257 H1242 0.930 . S
C1257 C1252 1.390 . S
C1257 C1256 1.387 . S
H1258 C1270 0.930 . S
H1259 C1272 0.930 . S
H1260 C1273 0.930 . S
H1261 C1277 0.959 . S
H1262 C1277 0.959 . S
H1263 C1277 0.961 . S
H1264 C1278 0.960 . S
H1265 C1278 0.961 . S
H1266 C1278 0.959 . S
H1267 C1281 0.929 . S
H1268 C1282 0.931 . S
H1269 C1284 0.930 . S
C1270 H1258 0.930 . S
C1270 C1271 1.399 . S
C1270 C1275 1.399 . S
C1271 C1270 1.399 . S
C1271 C1272 1.376 . S
C1272 H1259 0.930 . S
C1272 C1271 1.376 . S
C1272 C1273 1.388 . S
C1273 H1260 0.930 . S
C1273 C1272 1.388 . S
C1273 C1274 1.390 . S
C1274 C1273 1.390 . S
C1274 C1275 1.394 . S
C1274 C1280 1.465 . S
C1275 C1270 1.399 . S
C1275 C1274 1.394 . S
C1275 C1276 1.516 . S
C1276 C1275 1.516 . S
C1276 C1277 1.502 . S
C1276 C1278 1.561 . S
C1276 C1279 1.526 . S
C1277 H1261 0.959 . S
C1277 H1262 0.959 . S
C1277 H1263 0.961 . S
C1277 C1276 1.502 . S
C1278 H1264 0.960 . S
C1278 H1265 0.961 . S
C1278 H1266 0.959 . S
C1278 C1276 1.561 . S
C1279 C1276 1.526 . S
C1279 C1280 1.396 . S
C1279 C1284 1.390 . S
C1280 C1274 1.465 . S
C1280 C1279 1.396 . S
C1280 C1281 1.399 . S
C1281 H1267 0.929 . S
C1281 C1280 1.399 . S
C1281 C1282 1.385 . S
C1282 H1268 0.931 . S
C1282 C1281 1.385 . S
C1282 C1283 1.389 . S
C1283 C1282 1.389 . S
C1283 C1284 1.387 . S
C1284 H1269 0.930 . S
C1284 C1279 1.390 . S
C1284 C1283 1.387 . S
H1285 C1297 0.930 . S
H1286 C1299 0.930 . S
H1287 C1300 0.930 . S
H1288 C1304 0.959 . S
H1289 C1304 0.959 . S
H1290 C1304 0.961 . S
H1291 C1305 0.960 . S
H1292 C1305 0.961 . S
H1293 C1305 0.959 . S
H1294 C1308 0.929 . S
H1295 C1309 0.931 . S
H1296 C1311 0.930 . S
C1297 H1285 0.930 . S
C1297 C1298 1.399 . S
C1297 C1302 1.399 . S
C1298 C1297 1.399 . S
C1298 C1299 1.376 . S
C1299 H1286 0.930 . S
C1299 C1298 1.376 . S
C1299 C1300 1.388 . S
C1300 H1287 0.930 . S
C1300 C1299 1.388 . S
C1300 C1301 1.390 . S
C1301 C1300 1.390 . S
C1301 C1302 1.394 . S
C1301 C1307 1.465 . S
C1302 C1297 1.399 . S
C1302 C1301 1.394 . S
C1302 C1303 1.516 . S
C1303 C1302 1.516 . S
C1303 C1304 1.502 . S
C1303 C1305 1.561 . S
C1303 C1306 1.526 . S
C1304 H1288 0.959 . S
C1304 H1289 0.959 . S
C1304 H1290 0.961 . S
C1304 C1303 1.502 . S
C1305 H1291 0.960 . S
C1305 H1292 0.961 . S
C1305 H1293 0.959 . S
C1305 C1303 1.561 . S
C1306 C1303 1.526 . S
C1306 C1307 1.396 . S
C1306 C1311 1.390 . S
C1307 C1301 1.465 . S
C1307 C1306 1.396 . S
C1307 C1308 1.399 . S
C1308 H1294 0.929 . S
C1308 C1307 1.399 . S
C1308 C1309 1.385 . S
C1309 H1295 0.931 . S
C1309 C1308 1.385 . S
C1309 C1310 1.389 . S
C1310 C1309 1.389 . S
C1310 C1311 1.387 . S
C1311 H1296 0.930 . S
C1311 C1306 1.390 . S
C1311 C1310 1.387 . S
H1312 C1324 0.930 . S
H1313 C1326 0.930 . S
H1314 C1327 0.930 . S
H1315 C1331 0.959 . S
H1316 C1331 0.959 . S
H1317 C1331 0.961 . S
H1318 C1332 0.960 . S
H1319 C1332 0.961 . S
H1320 C1332 0.959 . S
H1321 C1335 0.929 . S
H1322 C1336 0.931 . S
H1323 C1338 0.930 . S
C1324 H1312 0.930 . S
C1324 C1325 1.399 . S
C1324 C1329 1.399 . S
C1325 C1324 1.399 . S
C1325 C1326 1.376 . S
C1326 H1313 0.930 . S
C1326 C1325 1.376 . S
C1326 C1327 1.388 . S
C1327 H1314 0.930 . S
C1327 C1326 1.388 . S
C1327 C1328 1.390 . S
C1328 C1327 1.390 . S
C1328 C1329 1.394 . S
C1328 C1334 1.465 . S
C1329 C1324 1.399 . S
C1329 C1328 1.394 . S
C1329 C1330 1.516 . S
C1330 C1329 1.516 . S
C1330 C1331 1.502 . S
C1330 C1332 1.561 . S
C1330 C1333 1.526 . S
C1331 H1315 0.959 . S
C1331 H1316 0.959 . S
C1331 H1317 0.961 . S
C1331 C1330 1.502 . S
C1332 H1318 0.960 . S
C1332 H1319 0.961 . S
C1332 H1320 0.959 . S
C1332 C1330 1.561 . S
C1333 C1330 1.526 . S
C1333 C1334 1.396 . S
C1333 C1338 1.390 . S
C1334 C1328 1.465 . S
C1334 C1333 1.396 . S
C1334 C1335 1.399 . S
C1335 H1321 0.929 . S
C1335 C1334 1.399 . S
C1335 C1336 1.385 . S
C1336 H1322 0.931 . S
C1336 C1335 1.385 . S
C1336 C1337 1.389 . S
C1337 C1336 1.389 . S
C1337 C1338 1.387 . S
C1338 H1323 0.930 . S
C1338 C1333 1.390 . S
C1338 C1337 1.387 . S
H1339 C1351 0.930 . S
H1340 C1353 0.930 . S
H1341 C1354 0.930 . S
H1342 C1358 0.959 . S
H1343 C1358 0.959 . S
H1344 C1358 0.961 . S
H1345 C1359 0.960 . S
H1346 C1359 0.961 . S
H1347 C1359 0.959 . S
H1348 C1362 0.929 . S
H1349 C1363 0.931 . S
H1350 C1365 0.930 . S
C1351 H1339 0.930 . S
C1351 C1352 1.399 . S
C1351 C1356 1.399 . S
C1352 C1351 1.399 . S
C1352 C1353 1.376 . S
C1353 H1340 0.930 . S
C1353 C1352 1.376 . S
C1353 C1354 1.388 . S
C1354 H1341 0.930 . S
C1354 C1353 1.388 . S
C1354 C1355 1.390 . S
C1355 C1354 1.390 . S
C1355 C1356 1.394 . S
C1355 C1361 1.465 . S
C1356 C1351 1.399 . S
C1356 C1355 1.394 . S
C1356 C1357 1.516 . S
C1357 C1356 1.516 . S
C1357 C1358 1.502 . S
C1357 C1359 1.561 . S
C1357 C1360 1.526 . S
C1358 H1342 0.959 . S
C1358 H1343 0.959 . S
C1358 H1344 0.961 . S
C1358 C1357 1.502 . S
C1359 H1345 0.960 . S
C1359 H1346 0.961 . S
C1359 H1347 0.959 . S
C1359 C1357 1.561 . S
C1360 C1357 1.526 . S
C1360 C1361 1.396 . S
C1360 C1365 1.390 . S
C1361 C1355 1.465 . S
C1361 C1360 1.396 . S
C1361 C1362 1.399 . S
C1362 H1348 0.929 . S
C1362 C1361 1.399 . S
C1362 C1363 1.385 . S
C1363 H1349 0.931 . S
C1363 C1362 1.385 . S
C1363 C1364 1.389 . S
C1364 C1363 1.389 . S
C1364 C1365 1.387 . S
C1365 H1350 0.930 . S
C1365 C1360 1.390 . S
C1365 C1364 1.387 . S
H1366 C1378 0.930 . S
H1367 C1380 0.930 . S
H1368 C1381 0.930 . S
H1369 C1385 0.959 . S
H1370 C1385 0.959 . S
H1371 C1385 0.961 . S
H1372 C1386 0.960 . S
H1373 C1386 0.961 . S
H1374 C1386 0.959 . S
H1375 C1389 0.929 1_545 S
H1376 C1390 0.931 . S
H1377 C1392 0.930 . S
C1378 H1366 0.930 . S
C1378 C1379 1.399 . S
C1378 C1383 1.399 . S
C1379 C1378 1.399 . S
C1379 C1380 1.376 . S
C1380 H1367 0.930 . S
C1380 C1379 1.376 . S
C1380 C1381 1.388 . S
C1381 H1368 0.930 . S
C1381 C1380 1.388 . S
C1381 C1382 1.390 . S
C1382 C1381 1.390 . S
C1382 C1383 1.394 . S
C1382 C1388 1.465 . S
C1383 C1378 1.399 . S
C1383 C1382 1.394 . S
C1383 C1384 1.516 . S
C1384 C1383 1.516 . S
C1384 C1385 1.502 . S
C1384 C1386 1.561 . S
C1384 C1387 1.526 . S
C1385 H1369 0.959 . S
C1385 H1370 0.959 . S
C1385 H1371 0.961 . S
C1385 C1384 1.502 . S
C1386 H1372 0.960 . S
C1386 H1373 0.961 . S
C1386 H1374 0.959 . S
C1386 C1384 1.561 . S
C1387 C1384 1.526 . S
C1387 C1388 1.396 . S
C1387 C1392 1.390 . S
C1388 C1382 1.465 . S
C1388 C1387 1.396 . S
C1388 C1389 1.399 . S
C1389 H1375 0.929 1_565 S
C1389 C1388 1.399 . S
C1389 C1390 1.385 1_565 S
C1390 H1376 0.931 . S
C1390 C1389 1.385 1_545 S
C1390 C1391 1.389 . S
C1391 C1390 1.389 . S
C1391 C1392 1.387 1_545 S
C1392 H1377 0.930 . S
C1392 C1387 1.390 . S
C1392 C1391 1.387 1_565 S
H1393 C1405 0.930 . S
H1394 C1407 0.930 . S
H1395 C1408 0.930 . S
H1396 C1412 0.959 . S
H1397 C1412 0.959 . S
H1398 C1412 0.961 . S
H1399 C1413 0.960 . S
H1400 C1413 0.961 . S
H1401 C1413 0.959 . S
H1402 C1416 0.929 . S
H1403 C1417 0.931 . S
H1404 C1419 0.930 . S
C1405 H1393 0.930 . S
C1405 C1406 1.399 . S
C1405 C1410 1.399 . S
C1406 C1405 1.399 . S
C1406 C1407 1.376 . S
C1407 H1394 0.930 . S
C1407 C1406 1.376 . S
C1407 C1408 1.388 . S
C1408 H1395 0.930 . S
C1408 C1407 1.388 . S
C1408 C1409 1.390 . S
C1409 C1408 1.390 . S
C1409 C1410 1.394 . S
C1409 C1415 1.465 . S
C1410 C1405 1.399 . S
C1410 C1409 1.394 . S
C1410 C1411 1.516 . S
C1411 C1410 1.516 . S
C1411 C1412 1.502 . S
C1411 C1413 1.561 . S
C1411 C1414 1.526 . S
C1412 H1396 0.959 . S
C1412 H1397 0.959 . S
C1412 H1398 0.961 . S
C1412 C1411 1.502 . S
C1413 H1399 0.960 . S
C1413 H1400 0.961 . S
C1413 H1401 0.959 . S
C1413 C1411 1.561 . S
C1414 C1411 1.526 . S
C1414 C1415 1.396 . S
C1414 C1419 1.390 . S
C1415 C1409 1.465 . S
C1415 C1414 1.396 . S
C1415 C1416 1.399 . S
C1416 H1402 0.929 . S
C1416 C1415 1.399 . S
C1416 C1417 1.385 . S
C1417 H1403 0.931 . S
C1417 C1416 1.385 . S
C1417 C1418 1.389 . S
C1418 C1417 1.389 . S
C1418 C1419 1.387 . S
C1419 H1404 0.930 . S
C1419 C1414 1.390 . S
C1419 C1418 1.387 . S
C797 C99 0.974 . S
C785 C5 1.717 . S
C824 C231 1.260 . S
C812 C16 1.228 . S
C851 C117 1.739 . S
C839 C30 1.905 . S
C878 C213 0.852 . S
C866 C40 1.608 . S
C905 C345 1.204 . S
C893 C8 1.524 . S
C932 C459 1.056 . S
C920 C18 1.382 . S
C947 C29 1.791 . S
C959 C599 1.405 . S
C986 C713 1.374 . S
C974 C38 1.440 . S
C1013 C327 0.944 . S
C1001 C19 1.443 . S
C1028 C27 1.602 . S
C1040 C441 1.201 . S
C1067 C545 1.284 . S
C1055 C41 1.579 . S
C1094 C659 1.040 . S
C1082 C7 1.486 . S
C1109 C52 1.694 . S
C1121 C257 1.019 . S
C1148 C89 1.412 . S
C1136 C62 1.748 . S
C1163 C74 1.302 . S
C1175 C203 1.098 . S
C1190 C82 1.412 . S
C1202 C143 0.978 . S
C1229 C555 1.325 . S
C1217 C51 1.877 . S
C1256 C669 1.575 . S
C1244 C60 1.612 . S
C1283 C317 1.075 . S
C1271 C71 1.069 . S
C1298 C84 1.326 . S
C1310 C431 1.131 . S
C1337 C573 1.359 . S
C1325 C63 1.691 . S
C1364 C687 1.154 . S
C1352 C73 1.494 . S
C1391 C371 1.376 . S
C1379 C85 1.602 . S
C1406 C49 1.472 . S
C1418 C485 1.385 . S
