# Generated by pormake.
# Topology tsx, (6,3)-cn, num edge types: 1
# Building blocks:
#     Node 0, Type 0, BuildingBlock: JUFBIX_clean_sbu_0, # of connection points: 6
#     Node 1, Type 0, BuildingBlock: JUFBIX_clean_sbu_0, # of connection points: 6
#     Node 2, Type 1, BuildingBlock: PAMTOO_clean_linker_0, # of connection points: 3
#     Node 3, Type 1, BuildingBlock: PAMTOO_clean_linker_0, # of connection points: 3
#     Node 4, Type 1, BuildingBlock: PAMTOO_clean_linker_0, # of connection points: 3
#     Node 5, Type 1, BuildingBlock: PAMTOO_clean_linker_0, # of connection points: 3
#     Edge 6, Type (0, 1), BuildingBlock: MIFKUJ_clean_linker_0, # of connection points: 2
#     Edge 7, Type (0, 1), BuildingBlock: MIFKUJ_clean_linker_0, # of connection points: 2
#     Edge 8, Type (0, 1), BuildingBlock: MIFKUJ_clean_linker_0, # of connection points: 2
#     Edge 9, Type (0, 1), BuildingBlock: MIFKUJ_clean_linker_0, # of connection points: 2
#     Edge 10, Type (0, 1), BuildingBlock: MIFKUJ_clean_linker_0, # of connection points: 2
#     Edge 11, Type (0, 1), BuildingBlock: MIFKUJ_clean_linker_0, # of connection points: 2
#     Edge 12, Type (0, 1), BuildingBlock: MIFKUJ_clean_linker_0, # of connection points: 2
#     Edge 13, Type (0, 1), BuildingBlock: MIFKUJ_clean_linker_0, # of connection points: 2
#     Edge 14, Type (0, 1), BuildingBlock: MIFKUJ_clean_linker_0, # of connection points: 2
#     Edge 15, Type (0, 1), BuildingBlock: MIFKUJ_clean_linker_0, # of connection points: 2
#     Edge 16, Type (0, 1), BuildingBlock: MIFKUJ_clean_linker_0, # of connection points: 2
#     Edge 17, Type (0, 1), BuildingBlock: MIFKUJ_clean_linker_0, # of connection points: 2
# Relax obj value: 0.109
# Max RMSD: 0.123
# Mean RMSD: 0.120
data_MOF--net-tsx--node1-JUFBIX_clean_sbu_0--node2-PAMTOO_clean_linker_0--edge1-MIFKUJ_clean_linker_0
_symmetry_space_group_name_H-M    P1
_symmetry_Int_Tables_number       1
_symmetry_cell_setting            triclinic
loop_
_symmetry_equiv_pos_as_xyz
'x, y, z'
_cell_length_a     25.987538
_cell_length_b     30.390884
_cell_length_c     42.778299
_cell_angle_alpha  84.303317
_cell_angle_beta   90.043832
_cell_angle_gamma 97.141844
loop_
_atom_site_label
_atom_site_type_symbol
_atom_site_fract_x
_atom_site_fract_y
_atom_site_fract_z
_atom_type_partial_charge
Co0 Co 0.06149 1.00727 -0.00237 0.0
C1 C 0.01722 0.03644 0.94023 0.0
Co2 Co 0.99521 0.04631 0.00074 0.0
C3 C 0.12971 0.93707 0.00124 0.0
C4 C 0.15893 0.99532 0.97121 0.0
N5 N 0.11929 0.97857 0.99089 0.0
N6 N 0.17433 0.92729 0.98868 0.0
C7 C 0.19257 0.96417 0.96981 0.0
H8 H 0.10441 0.91428 0.01717 0.0
H9 H 0.16223 0.02763 0.95775 0.0
C10 C 0.04006 0.01776 0.05813 0.0
N11 N 0.93662 0.0738 0.00788 0.0
C12 C 0.92006 0.11214 -0.00478 0.0
C13 C 0.89986 0.05627 0.02939 0.0
N14 N 0.87416 0.11867 0.00793 0.0
C15 C 0.86172 0.08353 0.02946 0.0
C16 C 0.96918 0.9531 0.00155 0.0
O17 O 0.07103 1.0001 0.04166 0.0
O18 O 1.00489 0.03797 0.04466 0.0
O19 O 0.95217 0.99047 0.00194 0.0
O20 O 0.01781 0.95202 3e-05 0.0
O21 O 0.98685 0.05479 0.95668 0.0
H22 H 0.90085 0.02551 0.04432 0.0
H23 H 0.94089 0.13443 0.97688 0.0
O24 O 0.05122 0.01468 0.95365 0.0
O25 O 0.10453 0.06347 -0.00455 0.0
O26 O 0.03863 0.10144 -0.00064 0.0
C27 C 0.08729 0.10067 -0.00314 0.0
H28 H 0.22662 0.96796 0.9548 0.0
H29 H 0.82778 0.07818 0.04467 0.0
Co30 Co 0.56341 0.51434 0.49866 0.0
C31 C 0.52478 0.55294 0.44233 0.0
Co32 Co 0.49547 0.55105 0.50327 0.0
C33 C 0.6321 0.4446 0.50016 0.0
C34 C 0.66371 0.50594 0.47436 0.0
N35 N 0.62201 0.48676 0.49159 0.0
N36 N 0.67861 0.43687 0.48898 0.0
C37 C 0.69835 0.47561 0.47275 0.0
H38 H 0.60562 0.42004 0.5141 0.0
H39 H 0.6681 0.53962 0.46297 0.0
C40 C 0.53433 0.51299 0.55967 0.0
N41 N 0.43629 0.57755 0.5108 0.0
C42 C 0.42463 0.61952 0.50351 0.0
C43 C 0.39494 0.55635 0.52751 0.0
N44 N 0.37762 0.62515 0.51517 0.0
C45 C 0.35899 0.58518 0.53007 0.0
C46 C 0.47058 0.46048 0.49523 0.0
O47 O 0.568 0.4997 0.54252 0.0
O48 O 0.49994 0.53491 0.54694 0.0
O49 O 0.45316 0.49694 0.4985 0.0
O50 O 0.51938 0.45951 0.49505 0.0
O51 O 0.49159 0.56672 0.45959 0.0
H52 H 0.39133 0.52205 0.53766 0.0
H53 H 0.45067 0.64558 0.49059 0.0
O54 O 0.55838 0.52982 0.45481 0.0
O55 O 0.60626 0.56956 0.50239 0.0
O56 O 0.53877 0.60518 0.50761 0.0
C57 C 0.58773 0.60556 0.50619 0.0
H58 H 0.73451 0.48134 0.45959 0.0
H59 H 0.32179 0.57699 0.54193 0.0
H60 H 0.10713 0.97196 0.3966 0.0
H61 H 0.996 0.06523 0.39592 0.0
H62 H 0.0388 0.99847 0.48355 0.0
H63 H 0.91245 0.01654 0.46971 0.0
C64 C 0.92655 0.0469 0.45398 0.0
O65 O 0.97989 0.05572 0.45638 0.0
H66 H 0.91551 0.04039 0.42958 0.0
C67 C 0.08218 0.99017 0.40937 0.0
C68 C 0.07897 0.98299 0.44234 0.0
C69 C 0.05215 0.01925 0.39245 0.0
C70 C 0.01871 0.04192 0.40869 0.0
C71 C 0.01298 0.03371 0.44136 0.0
C72 C 0.04276 1.00397 0.45823 0.0
H73 H 0.11183 0.11254 0.5985 0.0
H74 H 0.98427 1.00727 0.603 0.0
H75 H 0.04719 0.06541 0.51337 0.0
H76 H 0.92267 0.03948 0.52005 0.0
C77 C 0.92553 0.01263 0.53916 0.0
O78 O 0.9767 1.0052 0.54263 0.0
H79 H 0.91108 0.02388 0.56118 0.0
C80 C 0.08405 0.09025 0.58678 0.0
C81 C 0.08494 0.09174 0.55387 0.0
C82 C 0.04752 0.06027 0.60467 0.0
C83 C 0.01252 0.03086 0.58948 0.0
C84 C 0.01179 0.03316 0.55668 0.0
C85 C 0.04761 0.06394 0.53876 0.0
H86 H 0.59288 0.46062 0.89875 0.0
H87 H 0.48146 0.55447 0.89767 0.0
H88 H 0.51598 0.48022 0.9842 0.0
H89 H 0.39394 0.50064 0.97214 0.0
C90 C 0.40712 0.53029 0.95548 0.0
O91 O 0.46033 0.54048 0.95741 0.0
H92 H 0.39594 0.52216 0.93141 0.0
C93 C 0.56618 0.47794 0.91092 0.0
C94 C 0.55913 0.46795 0.94344 0.0
C95 C 0.53782 0.50844 0.89392 0.0
C96 C 0.50283 0.52989 0.91012 0.0
C97 C 0.49417 0.5192 0.94244 0.0
C98 C 0.52201 0.48788 0.95914 0.0
H99 H 0.61664 0.59585 0.10578 0.0
H100 H 0.49014 0.48942 0.10838 0.0
H101 H 0.56684 0.53932 0.02084 0.0
H102 H 0.44888 0.51505 0.01671 0.0
C103 C 0.44408 0.49225 0.03861 0.0
O104 O 0.4921 0.482 0.04854 0.0
H105 H 0.42608 0.5097 0.0567 0.0
C106 C 0.59169 0.57137 0.09411 0.0
C107 C 0.5973 0.57007 0.06162 0.0
C108 C 0.55266 0.54293 0.11123 0.0
C109 C 0.52008 0.51216 0.09558 0.0
C110 C 0.52511 0.51092 0.06315 0.0
C111 C 0.56345 0.54009 0.04603 0.0
H112 H 0.19262 0.11035 0.98938 0.0
H113 H 0.25377 0.17737 0.99304 0.0
H114 H 0.12687 0.25186 0.00863 0.0
H115 H 0.06514 0.18494 0.00451 0.0
H116 H 0.20011 0.30089 0.97005 0.0
H117 H 0.19644 0.2132 0.06978 0.0
H118 H 0.20167 0.14527 0.10569 0.0
H119 H 0.35892 0.14268 0.07587 0.0
H120 H 0.35436 0.21028 0.03942 0.0
H121 H 0.33882 0.47831 0.04395 0.0
H122 H 0.2798 0.41225 0.03339 0.0
H123 H 0.4102 0.34728 0.00852 0.0
H124 H 0.46938 0.41355 0.01862 0.0
H125 H 0.33727 0.29345 0.05058 0.0
H126 H 0.34086 0.38355 0.95188 0.0
H127 H 0.33563 0.45363 0.9184 0.0
H128 H 0.17809 0.45358 0.9486 0.0
H129 H 0.18253 0.38359 0.98254 0.0
C130 C 0.17757 0.14102 -0.00662 0.0
C131 C 0.12395 0.14215 -0.00306 0.0
C132 C 0.21266 0.17932 -0.00446 0.0
C133 C 0.19499 0.2195 0.0016 0.0
C134 C 0.1414 0.2212 0.00402 0.0
C135 C 0.10618 0.18287 0.00176 0.0
C136 C 0.23259 0.25913 0.00668 0.0
C137 C 0.22974 0.29934 0.98786 0.0
C138 C 0.27188 0.25703 0.02958 0.0
C139 C 0.27487 0.21654 0.05163 0.0
C140 C 0.23201 0.19796 0.07071 0.0
C141 C 0.23487 0.15954 0.09118 0.0
C142 C 0.28055 0.1396 0.093 0.0
C143 C 0.32353 0.15812 0.0744 0.0
C144 C 0.32084 0.19651 0.05384 0.0
C145 C 0.35484 0.44983 0.03637 0.0
C146 C 0.40869 0.45069 0.03282 0.0
C147 C 0.32116 0.41224 0.03024 0.0
C148 C 0.34069 0.37486 0.02028 0.0
C149 C 0.39444 0.37568 0.01644 0.0
C150 C 0.42816 0.41351 0.02225 0.0
C151 C 0.30475 0.33497 0.01396 0.0
C152 C 0.30783 0.2948 0.03262 0.0
C153 C 0.26559 0.33721 0.99108 0.0
C154 C 0.26215 0.37849 0.96994 0.0
C155 C 0.30516 0.39858 0.9515 0.0
C156 C 0.30235 0.43829 0.93245 0.0
C157 C 0.25664 0.45818 0.93149 0.0
C158 C 0.21351 0.43817 0.94941 0.0
C159 C 0.2161 0.39841 0.96851 0.0
H160 H 0.25461 0.48902 0.9168 0.0
H161 H 0.2827 0.10986 0.10887 0.0
H162 H 0.27317 0.91418 0.97503 0.0
H163 H 0.3071 0.84329 0.97396 0.0
H164 H 0.16155 0.77353 0.00999 0.0
H165 H 0.12588 0.8445 0.00985 0.0
H166 H 0.27015 0.74579 0.03683 0.0
H167 H 0.16457 0.76549 0.94356 0.0
H168 H 0.13604 0.80985 0.89678 0.0
H169 H 0.29171 0.83024 0.85981 0.0
H170 H 0.32129 0.78657 0.90666 0.0
H171 H 0.32549 0.53315 -0.00406 0.0
H172 H 0.28228 0.5979 0.00576 0.0
H173 H 0.38643 0.68111 0.93955 0.0
H174 H 0.42881 0.61628 0.92934 0.0
H175 H 0.29178 0.69946 0.93005 0.0
H176 H 0.39993 0.68256 0.01975 0.0
H177 H 0.43526 0.64232 0.06619 0.0
H178 H 0.28451 0.62107 0.11011 0.0
H179 H 0.24805 0.66056 0.06366 0.0
C180 C 0.24793 0.88401 0.98264 0.0
C181 C 0.19618 0.88545 0.99191 0.0
C182 C 0.26777 0.84343 0.98232 0.0
C183 C 0.23678 0.80326 0.99176 0.0
C184 C 0.18611 0.8043 0.00272 0.0
C185 C 0.16583 0.84503 0.00263 0.0
C186 C 0.25652 0.76048 0.9875 0.0
C187 C 0.27398 0.735 0.01361 0.0
C188 C 0.26301 0.7474 0.9571 0.0
C189 C 0.2452 0.77316 0.92874 0.0
C190 C 0.19279 0.77978 0.92559 0.0
C191 C 0.17641 0.80473 0.89904 0.0
C192 C 0.21207 0.82295 0.87537 0.0
C193 C 0.26415 0.81615 0.87817 0.0
C194 C 0.28072 0.79127 0.90471 0.0
C195 C 0.33934 0.56539 0.98377 0.0
C196 C 0.38115 0.57001 0.9624 0.0
C197 C 0.31472 0.60237 0.98939 0.0
C198 C 0.33153 0.64462 0.97374 0.0
C199 C 0.37283 0.64898 0.95202 0.0
C200 C 0.39723 0.61204 0.94632 0.0
C201 C 0.3057 0.68426 0.9794 0.0
C202 C 0.28736 0.70953 0.95343 0.0
C203 C 0.29923 0.69737 0.00993 0.0
C204 C 0.32112 0.67409 0.03807 0.0
C205 C 0.37421 0.66901 0.03921 0.0
C206 C 0.39446 0.64637 0.06554 0.0
C207 C 0.36212 0.62903 0.09105 0.0
C208 C 0.30949 0.63445 0.09031 0.0
C209 C 0.28901 0.65697 0.06398 0.0
H210 H 0.37787 0.6115 0.11141 0.0
H211 H 0.19932 0.84226 0.85483 0.0
H212 H 0.99052 0.86664 0.01107 0.0
H213 H 0.92839 0.79877 0.01493 0.0
H214 H 0.80273 0.8782 -0.00208 0.0
H215 H 0.86424 0.94596 -0.00491 0.0
H216 H 0.77706 0.81834 0.04388 0.0
H217 H 0.84844 0.81588 0.94119 0.0
H218 H 0.91767 0.81792 0.9015 0.0
H219 H 0.9667 0.6991 0.94873 0.0
H220 H 0.89816 0.69668 0.98898 0.0
H221 H 0.58191 0.64224 0.02175 0.0
H222 H 0.64753 0.705 0.00378 0.0
H223 H 0.76738 0.63366 0.04635 0.0
H224 H 0.70165 0.57135 0.06488 0.0
H225 H 0.79483 0.68818 0.985 0.0
H226 H 0.7239 0.69529 0.08924 0.0
H227 H 0.65154 0.6935 0.12679 0.0
H228 H 0.59893 0.80611 0.07318 0.0
H229 H 0.6704 0.80793 0.03492 0.0
C230 C 0.94966 0.86958 0.00802 0.0
C231 C 0.93231 0.91168 0.00283 0.0
C232 C 0.91417 0.83074 0.01005 0.0
C233 C 0.8608 0.83325 0.00636 0.0
C234 C 0.84362 0.87531 0.00089 0.0
C235 C 0.87891 0.91407 -0.00077 0.0
C236 C 0.82249 0.79233 0.00944 0.0
C237 C 0.78071 0.79027 0.03058 0.0
C238 C 0.82742 0.75519 0.99254 0.0
C239 C 0.86847 0.75635 0.96827 0.0
C240 C 0.87422 0.79036 0.94325 0.0
C241 C 0.9133 0.79156 0.92063 0.0
C242 C 0.94665 0.75873 0.92264 0.0
C243 C 0.94087 0.72454 0.94723 0.0
C244 C 0.90188 0.72321 0.96993 0.0
C245 C 0.62248 0.63952 0.02629 0.0
C246 C 0.63711 0.60223 0.04449 0.0
C247 C 0.6598 0.67528 0.01615 0.0
C248 C 0.71217 0.67391 0.02389 0.0
C249 C 0.72722 0.63517 0.04001 0.0
C250 C 0.68981 0.59973 0.05058 0.0
C251 C 0.74981 0.7148 0.01913 0.0
C252 C 0.79136 0.71662 -0.00204 0.0
C253 C 0.74452 0.752 0.03571 0.0
C254 C 0.70213 0.75142 0.05903 0.0
C255 C 0.69664 0.71942 0.08531 0.0
C256 C 0.65582 0.71843 0.10675 0.0
C257 C 0.62061 0.74963 0.10233 0.0
C258 C 0.62621 0.78193 0.07653 0.0
C259 C 0.66684 0.78294 0.05496 0.0
H260 H 0.58903 0.74886 0.11892 0.0
H261 H 0.9769 0.75972 0.90511 0.0
H262 H 0.77002 0.11476 0.01238 0.0
H263 H 0.71839 0.1764 0.00492 0.0
H264 H 0.85643 0.26707 0.97939 0.0
H265 H 0.90901 0.20505 0.98782 0.0
H266 H 0.79459 0.30126 0.02038 0.0
H267 H 0.77179 0.23559 0.92364 0.0
H268 H 0.75224 0.17495 0.88957 0.0
H269 H 0.59795 0.14655 0.92833 0.0
H270 H 0.61682 0.20664 0.96299 0.0
H271 H 0.66374 0.47668 0.94687 0.0
H272 H 0.71778 0.41826 0.96309 0.0
H273 H 0.58062 0.32796 0.99145 0.0
H274 H 0.52631 0.38678 0.97507 0.0
H275 H 0.64245 0.29416 0.95009 0.0
H276 H 0.66559 0.36317 0.04563 0.0
H277 H 0.68581 0.42596 0.07775 0.0
H278 H 0.84055 0.45029 0.03943 0.0
H279 H 0.821 0.38809 0.00663 0.0
C280 C 0.7896 0.14779 0.0053 0.0
C281 C 0.84376 0.155 0.00088 0.0
C282 C 0.75989 0.18301 0.00079 0.0
C283 C 0.7834 0.22637 0.9914 0.0
C284 C 0.83745 0.23384 0.98664 0.0
C285 C 0.86738 0.19837 0.99115 0.0
C286 C 0.75107 0.26356 0.98693 0.0
C287 C 0.76178 0.30006 0.00467 0.0
C288 C 0.70746 0.26149 0.967 0.0
C289 C 0.6959 0.22537 0.94613 0.0
C290 C 0.73383 0.21619 0.92509 0.0
C291 C 0.72284 0.18195 0.90563 0.0
C292 C 0.67392 0.15684 0.90684 0.0
C293 C 0.63584 0.166 0.92745 0.0
C294 C 0.64665 0.20017 0.94699 0.0
C295 C 0.64534 0.44473 0.95746 0.0
C296 C 0.59105 0.43613 0.95994 0.0
C297 C 0.67618 0.41139 0.9667 0.0
C298 C 0.65329 0.36872 0.97851 0.0
C299 C 0.59907 0.36069 0.98243 0.0
C300 C 0.56813 0.3943 0.9734 0.0
C301 C 0.68568 0.33172 0.98369 0.0
C302 C 0.6751 0.29529 0.96594 0.0
C303 C 0.72952 0.3341 0.00341 0.0
C304 C 0.74167 0.37115 0.02345 0.0
C305 C 0.70382 0.3821 0.04386 0.0
C306 C 0.71518 0.41757 0.06222 0.0
C307 C 0.7644 0.44216 0.06058 0.0
C308 C 0.80242 0.43123 0.04065 0.0
C309 C 0.79124 0.39584 0.02219 0.0
H310 H 0.7731 0.46964 0.07479 0.0
H311 H 0.66549 0.13036 0.89175 0.0
H312 H 0.56144 0.68783 0.51568 0.0
H313 H 0.61959 0.75685 0.51902 0.0
H314 H 0.75153 0.68759 0.50478 0.0
H315 H 0.69373 0.61824 0.50198 0.0
H316 H 0.77079 0.74046 0.55005 0.0
H317 H 0.70671 0.75751 0.44536 0.0
H318 H 0.6401 0.75831 0.4043 0.0
H319 H 0.57633 0.86385 0.44465 0.0
H320 H 0.64225 0.86333 0.4862 0.0
H321 H 0.95341 0.93417 0.51897 0.0
H322 H 0.89637 0.86603 0.51108 0.0
H323 H 0.76333 0.92889 0.53417 0.0
H324 H 0.82041 0.99729 0.54239 0.0
H325 H 0.74628 0.87919 0.48321 0.0
H326 H 0.81064 0.85973 0.5888 0.0
H327 H 0.87868 0.85854 0.62897 0.0
H328 H 0.94396 0.75669 0.58512 0.0
H329 H 0.87662 0.75769 0.54442 0.0
C330 C 0.60284 0.68723 0.51327 0.0
C331 C 0.62288 0.64747 0.5085 0.0
C332 C 0.63606 0.72682 0.51502 0.0
C333 C 0.68999 0.72763 0.51173 0.0
C334 C 0.7101 0.68787 0.50733 0.0
C335 C 0.67694 0.64823 0.50567 0.0
C336 C 0.72544 0.7698 0.51324 0.0
C337 C 0.76583 0.77057 0.53508 0.0
C338 C 0.7186 0.80942 0.49412 0.0
C339 C 0.67913 0.8101 0.46905 0.0
C340 C 0.67827 0.78069 0.4456 0.0
C341 C 0.64069 0.78113 0.42221 0.0
C342 C 0.60394 0.81105 0.4219 0.0
C343 C 0.6048 0.84068 0.44493 0.0
C344 C 0.64231 0.84037 0.46838 0.0
C345 C 0.91208 0.93354 0.52256 0.0
C346 C 0.8914 0.9707 0.53233 0.0
C347 C 0.8795 0.89454 0.51794 0.0
C348 C 0.82567 0.8921 0.52259 0.0
C349 C 0.80477 0.9299 0.5307 0.0
C350 C 0.83735 0.96881 0.53554 0.0
C351 C 0.79136 0.84971 0.52003 0.0
C352 C 0.75122 0.84896 0.49804 0.0
C353 C 0.79863 0.81 0.53884 0.0
C354 C 0.8389 0.80908 0.56341 0.0
C355 C 0.83972 0.83731 0.5876 0.0
C356 C 0.87812 0.83663 0.61048 0.0
C357 C 0.91569 0.80763 0.60956 0.0
C358 C 0.91486 0.77916 0.58579 0.0
C359 C 0.87656 0.77974 0.56282 0.0
H360 H 0.94538 0.80715 0.6273 0.0
H361 H 0.57486 0.81133 0.40378 0.0
H362 H 0.78075 0.42788 0.48426 0.0
H363 H 0.81914 0.35904 0.48232 0.0
H364 H 0.66875 0.28268 0.49848 0.0
H365 H 0.62943 0.35188 0.4997 0.0
H366 H 0.75462 0.2457 0.53261 0.0
H367 H 0.70777 0.2981 0.42752 0.0
H368 H 0.70546 0.35447 0.38208 0.0
H369 H 0.8718 0.3712 0.37614 0.0
H370 H 0.87512 0.31539 0.42187 0.0
H371 H 0.83025 0.04644 0.47991 0.0
H372 H 0.78527 0.11027 0.48937 0.0
H373 H 0.91915 0.19998 0.45428 0.0
H374 H 0.9632 0.13641 0.44374 0.0
H375 H 0.83648 0.22831 0.43051 0.0
H376 H 0.88634 0.17811 0.53441 0.0
H377 H 0.89224 0.12244 0.57987 0.0
H378 H 0.72628 0.10323 0.58946 0.0
H379 H 0.71932 0.15818 0.54362 0.0
C380 C 0.75558 0.39659 0.48735 0.0
C381 C 0.7017 0.3957 0.49155 0.0
C382 C 0.77776 0.35717 0.48648 0.0
C383 C 0.74677 0.31575 0.4899 0.0
C384 C 0.69339 0.31433 0.49579 0.0
C385 C 0.67098 0.35396 0.49651 0.0
C386 C 0.77004 0.27461 0.48503 0.0
C387 C 0.77187 0.24146 0.51019 0.0
C388 C 0.79362 0.26963 0.45599 0.0
C389 C 0.79169 0.30285 0.42828 0.0
C390 C 0.74386 0.31404 0.41667 0.0
C391 C 0.74237 0.34586 0.39084 0.0
C392 C 0.78845 0.36648 0.37628 0.0
C393 C 0.83613 0.35524 0.38746 0.0
C394 C 0.83784 0.32349 0.41332 0.0
C395 C 0.85016 0.07984 0.47459 0.0
C396 C 0.90073 0.08639 0.46193 0.0
C397 C 0.82454 0.1163 0.48007 0.0
C398 C 0.84907 0.16011 0.47307 0.0
C399 C 0.89943 0.16661 0.46008 0.0
C400 C 0.9248 0.13021 0.45432 0.0
C401 C 0.82187 0.19929 0.47819 0.0
C402 C 0.81919 0.23221 0.45299 0.0
C403 C 0.79816 0.20416 0.5073 0.0
C404 C 0.80227 0.17197 0.53538 0.0
C405 C 0.85107 0.16184 0.54609 0.0
C406 C 0.85462 0.1304 0.57192 0.0
C407 C 0.80966 0.10924 0.5875 0.0
C408 C 0.76107 0.11961 0.57734 0.0
C409 C 0.7573 0.15091 0.55143 0.0
H410 H 0.81247 0.08488 0.60747 0.0
H411 H 0.78722 0.39111 0.35628 0.0
H412 H 0.4873 0.37258 0.50504 0.0
H413 H 0.42201 0.30689 0.50511 0.0
H414 H 0.30517 0.39208 0.47784 0.0
H415 H 0.36946 0.45741 0.47876 0.0
H416 H 0.27011 0.33709 0.52426 0.0
H417 H 0.35214 0.3225 0.42721 0.0
H418 H 0.4248 0.31819 0.3911 0.0
H419 H 0.46049 0.1991 0.44493 0.0
H420 H 0.38851 0.20307 0.4817 0.0
H421 H 0.0713 0.16017 0.50949 0.0
H422 H 0.13824 0.22005 0.48822 0.0
H423 H 0.25585 0.15294 0.53732 0.0
H424 H 0.1891 0.09368 0.55896 0.0
H425 H 0.28722 0.19872 0.47464 0.0
H426 H 0.20871 0.22191 0.57448 0.0
H427 H 0.13315 0.22677 0.60824 0.0
H428 H 0.08808 0.33285 0.54423 0.0
H429 H 0.16292 0.32798 0.50977 0.0
C430 C 0.4478 0.37713 0.49871 0.0
C431 C 0.43342 0.42013 0.49219 0.0
C432 C 0.41053 0.33959 0.49859 0.0
C433 C 0.35853 0.34444 0.49138 0.0
C434 C 0.34482 0.38737 0.4837 0.0
C435 C 0.38172 0.42474 0.48421 0.0
C436 C 0.31751 0.30538 0.49406 0.0
C437 C 0.27364 0.30727 0.51283 0.0
C438 C 0.32204 0.26605 0.47956 0.0
C439 C 0.36517 0.26331 0.4574 0.0
C440 C 0.37571 0.29557 0.4315 0.0
C441 C 0.41675 0.29317 0.41089 0.0
C442 C 0.44731 0.25845 0.41576 0.0
C443 C 0.43681 0.226 0.44121 0.0
C444 C 0.39586 0.22829 0.46194 0.0
C445 C 0.11163 0.15773 0.51494 0.0
C446 C 0.12526 0.12273 0.53597 0.0
C447 C 0.14975 0.19181 0.50283 0.0
C448 C 0.20191 0.19091 0.51134 0.0
C449 C 0.21591 0.15411 0.53035 0.0
C450 C 0.17781 0.12049 0.54282 0.0
C451 C 0.24047 0.23096 0.50463 0.0
C452 C 0.28379 0.22903 0.48547 0.0
C453 C 0.23528 0.27064 0.51834 0.0
C454 C 0.19102 0.27425 0.5394 0.0
C455 C 0.18246 0.24604 0.5675 0.0
C456 C 0.1398 0.24881 0.58677 0.0
C457 C 0.10576 0.28003 0.57835 0.0
C458 C 0.11443 0.30863 0.55069 0.0
C459 C 0.15695 0.30588 0.53129 0.0
H460 H 0.07275 0.28213 0.59329 0.0
H461 H 0.47907 0.25664 0.39977 0.0
H462 H 0.39438 0.69725 0.47146 0.0
H463 H 0.34688 0.76233 0.46646 0.0
H464 H 0.25455 0.70827 0.54822 0.0
H465 H 0.30233 0.6441 0.55394 0.0
H466 H 0.19514 0.73502 0.49776 0.0
H467 H 0.34424 0.79429 0.55414 0.0
H468 H 0.43801 0.81197 0.56294 0.0
H469 H 0.45388 0.89474 0.47526 0.0
H470 H 0.36026 0.87711 0.46575 0.0
H471 H 0.05638 0.92087 0.49372 0.0
H472 H 0.11056 0.86493 0.51532 0.0
H473 H 0.2323 0.91991 0.44887 0.0
H474 H 0.18054 0.97761 0.42924 0.0
H475 H 0.27603 0.89171 0.49768 0.0
H476 H 0.1344 0.82637 0.43659 0.0
H477 H 0.04227 0.80744 0.42364 0.0
H478 H 0.01415 0.73519 0.51472 0.0
H479 H 0.1061 0.75403 0.52828 0.0
C480 C 0.36454 0.69946 0.48865 0.0
C481 C 0.35198 0.66495 0.51289 0.0
C482 C 0.3373 0.73666 0.48572 0.0
C483 C 0.29709 0.74007 0.50697 0.0
C484 C 0.28513 0.70616 0.53143 0.0
C485 C 0.31244 0.66925 0.53451 0.0
C486 C 0.26616 0.77815 0.50319 0.0
C487 C 0.21265 0.76928 0.49821 0.0
C488 C 0.28918 0.82281 0.50318 0.0
C489 C 0.3453 0.8341 0.50913 0.0
C490 C 0.36778 0.81606 0.53665 0.0
C491 C 0.42089 0.82611 0.54178 0.0
C492 C 0.45191 0.85439 0.51964 0.0
C493 C 0.42981 0.87283 0.49238 0.0
C494 C 0.37671 0.86287 0.48713 0.0
C495 C 0.09522 0.92171 0.48433 0.0
C496 C 0.11349 0.95299 0.45911 0.0
C497 C 0.12598 0.88932 0.4964 0.0
C498 C 0.17499 0.88705 0.483 0.0
C499 C 0.19452 0.92033 0.45945 0.0
C500 C 0.16445 0.95309 0.44792 0.0
C501 C 0.20486 0.8488 0.49158 0.0
C502 C 0.25825 0.85749 0.49751 0.0
C503 C 0.18193 0.80391 0.49184 0.0
C504 C 0.12691 0.79198 0.48355 0.0
C505 C 0.10849 0.80658 0.45387 0.0
C506 C 0.05634 0.79586 0.44643 0.0
C507 C 0.02235 0.77023 0.46837 0.0
C508 C 0.04051 0.75509 0.49776 0.0
C509 C 0.09264 0.76573 0.50533 0.0
H510 H 0.98197 0.76202 0.46258 0.0
H511 H 0.49304 0.86207 0.52362 0.0
H512 H 0.09507 0.96456 0.09769 0.0
H513 H 0.10289 0.96505 0.15496 0.0
H514 H 1.00657 0.07109 0.15264 0.0
H515 H 0.99797 0.07049 0.096 0.0
H516 H 0.09716 0.08522 0.18901 0.0
H517 H 0.95214 0.97272 0.17389 0.0
H518 H 0.9107 0.90393 0.15361 0.0
H519 H 0.01823 0.82849 0.20476 0.0
H520 H 0.0608 0.89704 0.22498 0.0
H521 H 0.97043 0.01412 0.35263 0.0
H522 H 0.97324 0.01481 0.29535 0.0
H523 H 0.14049 0.03377 0.29688 0.0
H524 H 0.13792 0.03327 0.35421 0.0
H525 H 0.01916 0.95589 0.26085 0.0
H526 H 0.17908 0.10214 0.22795 0.0
H527 H 0.21654 0.17257 0.24779 0.0
H528 H 0.07144 0.18328 0.29259 0.0
H529 H 0.03295 0.11331 0.27265 0.0
C530 C 0.07566 0.98793 0.10946 0.0
C531 C 0.04567 0.01727 0.09245 0.0
C532 C 0.08018 0.9882 0.14205 0.0
C533 C 0.05533 0.01818 0.15783 0.0
C534 C 0.02618 0.04789 0.14079 0.0
C535 C 0.02105 0.04723 0.10846 0.0
C536 C 0.05796 0.01813 0.19228 0.0
C537 C 0.08061 0.05682 0.20478 0.0
C538 C 0.03572 0.98125 0.21265 0.0
C539 C 1.01002 0.94005 0.20063 0.0
C540 C 0.96724 0.94153 0.18057 0.0
C541 C 0.94349 0.90258 0.16914 0.0
C542 C 0.96193 0.86189 0.17781 0.0
C543 C 1.00406 0.86005 0.19801 0.0
C544 C 0.028 0.89893 0.20947 0.0
C545 C 1.00774 0.01912 0.34067 0.0
C546 C 0.05396 0.02375 0.35773 0.0
C547 C 1.0093 0.01906 0.30808 0.0
C548 C 0.05705 0.02423 0.29203 0.0
C549 C 0.10329 0.02985 0.30891 0.0
C550 C 0.10177 0.02949 0.34155 0.0
C551 C 0.05831 0.02303 0.25763 0.0
C552 C 0.03645 0.98406 0.24514 0.0
C553 C 0.08088 0.05983 0.23726 0.0
C554 C 0.10339 0.1022 0.24913 0.0
C555 C 0.15516 0.1196 0.24197 0.0
C556 C 0.17656 0.15944 0.25323 0.0
C557 C 0.14645 0.18229 0.27155 0.0
C558 C 0.0948 0.16544 0.27853 0.0
C559 C 0.0732 0.12565 0.2673 0.0
H560 H 0.16309 0.21311 0.28025 0.0
H561 H 0.94348 0.83176 0.16894 0.0
H562 H 0.9848 0.10407 0.90105 0.0
H563 H 0.9881 0.11228 0.84345 0.0
H564 H 0.04413 0.98414 0.84459 0.0
H565 H 0.04347 0.9771 0.90182 0.0
H566 H 0.09951 0.03861 0.80607 0.0
H567 H 0.91527 1.00476 0.82352 0.0
H568 H 0.82991 0.01473 0.84499 0.0
H569 H 0.84089 0.14619 0.79636 0.0
H570 H 0.92666 0.13719 0.77489 0.0
H571 H 0.04686 0.98952 0.6491 0.0
H572 H 0.0402 0.98999 0.70628 0.0
H573 H 0.0337 0.1318 0.69474 0.0
H574 H 0.04115 0.13163 0.63752 0.0
H575 H 0.95467 0.0771 0.7372 0.0
H576 H 0.13916 0.10587 0.71773 0.0
H577 H 0.22219 0.09115 0.69561 0.0
H578 H 0.20675 0.96215 0.74812 0.0
H579 H 0.12316 0.97582 0.77018 0.0
C580 C 0.99732 0.07759 0.88887 0.0
C581 C 0.01407 0.04007 0.90574 0.0
C582 C 0.99903 0.08218 0.856 0.0
C583 C 0.01607 0.04867 0.8396 0.0
C584 C 0.03124 0.01061 0.85663 0.0
C585 C 0.03068 1.00653 0.88934 0.0
C586 C 0.02046 0.05364 0.8048 0.0
C587 C 0.06749 0.04651 0.79112 0.0
C588 C 0.97928 0.0651 0.78512 0.0
C589 C 0.92762 0.07048 0.79788 0.0
C590 C 0.89965 0.03591 0.81759 0.0
C591 C 0.85116 0.04137 0.82973 0.0
C592 C 0.83006 0.08112 0.82212 0.0
C593 C 0.85732 0.11544 0.80227 0.0
C594 C 0.90585 0.11017 0.79009 0.0
C595 C 0.04408 0.02073 0.65884 0.0
C596 C 0.04476 0.06056 0.63911 0.0
C597 C 0.04032 0.02098 0.69136 0.0
C598 C 0.03649 0.06094 0.70453 0.0
C599 C 0.03658 0.1007 0.68487 0.0
C600 C 0.04121 0.10059 0.65236 0.0
C601 C 0.03304 0.06104 0.73894 0.0
C602 C 0.98646 0.06933 0.75238 0.0
C603 C 0.07423 0.04989 0.75847 0.0
C604 C 0.12465 0.04172 0.74537 0.0
C605 C 0.15323 0.0742 0.72434 0.0
C606 C 0.20044 0.06608 0.71185 0.0
C607 C 0.21967 0.0257 0.72039 0.0
C608 C 0.19178 0.99339 0.74149 0.0
C609 C 0.1445 1.00133 0.75402 0.0
H610 H 0.25624 0.01947 0.7107 0.0
H611 H 0.79253 0.08529 0.83156 0.0
H612 H 0.61649 0.49263 0.59608 0.0
H613 H 0.6227 0.49221 0.65326 0.0
H614 H 0.46336 0.51788 0.65809 0.0
H615 H 0.45738 0.51951 0.60116 0.0
H616 H 0.5223 0.57369 0.68968 0.0
H617 H 0.50204 0.41522 0.68342 0.0
H618 H 0.52344 0.34489 0.66558 0.0
H619 H 0.67481 0.36654 0.70579 0.0
H620 H 0.65454 0.43735 0.72352 0.0
H621 H 0.46042 0.51752 0.85135 0.0
H622 H 0.46702 0.52138 0.79422 0.0
H623 H 0.63188 0.51663 0.80053 0.0
H624 H 0.6261 0.51437 0.85776 0.0
H625 H 0.57923 0.45329 0.76354 0.0
H626 H 0.59489 0.60994 0.77316 0.0
H627 H 0.57038 0.67872 0.79185 0.0
H628 H 0.42366 0.65851 0.74583 0.0
H629 H 0.44698 0.58921 0.72723 0.0
C630 C 0.58261 0.49745 0.60945 0.0
C631 C 0.53657 0.50634 0.59421 0.0
C632 C 0.58618 0.4972 0.64208 0.0
C633 C 0.54348 0.50508 0.65992 0.0
C634 C 0.4969 0.51211 0.64476 0.0
C635 C 0.4935 0.51285 0.61224 0.0
C636 C 0.54764 0.50843 0.69414 0.0
C637 C 0.53422 0.54712 0.70585 0.0
C638 C 0.56473 0.47439 0.71511 0.0
C639 C 0.57699 0.43184 0.70447 0.0
C640 C 0.54005 0.40518 0.68821 0.0
C641 C 0.55194 0.36519 0.67818 0.0
C642 C 0.60051 0.35132 0.68446 0.0
C643 C 0.63724 0.37736 0.70089 0.0
C644 C 0.62557 0.41741 0.71095 0.0
C645 C 0.49832 0.51846 0.84063 0.0
C646 C 0.54271 0.5155 0.85917 0.0
C647 C 0.50195 0.52035 0.80799 0.0
C648 C 0.54992 0.51919 0.7933 0.0
C649 C 0.5945 0.51728 0.81156 0.0
C650 C 0.59103 0.51586 0.84421 0.0
C651 C 0.55281 0.51803 0.75894 0.0
C652 C 0.5677 0.47991 0.74726 0.0
C653 C 0.53662 0.55238 0.73798 0.0
C654 C 0.52253 0.59416 0.74902 0.0
C655 C 0.55722 0.61995 0.76724 0.0
C656 C 0.54357 0.65908 0.77777 0.0
C657 C 0.49545 0.67292 0.77009 0.0
C658 C 0.46091 0.64772 0.75178 0.0
C659 C 0.47435 0.60854 0.74121 0.0
H660 H 0.48496 0.70323 0.77827 0.0
H661 H 0.60964 0.32034 0.67668 0.0
H662 H 0.44195 0.5694 0.40553 0.0
H663 H 0.43931 0.57561 0.34787 0.0
H664 H 0.6027 0.56324 0.3443 0.0
H665 H 0.60544 0.5561 0.40167 0.0
H666 H 0.567 0.63105 0.29871 0.0
H667 H 0.52908 0.47494 0.33974 0.0
H668 H 0.47966 0.41284 0.37284 0.0
H669 H 0.33939 0.43977 0.32562 0.0
H670 H 0.38795 0.50251 0.29255 0.0
H671 H 0.62669 0.553 0.15618 0.0
H672 H 0.61386 0.56221 0.2116 0.0
H673 H 0.44829 0.55043 0.19838 0.0
H674 H 0.46084 0.54158 0.14273 0.0
H675 H 0.47369 0.50146 0.25154 0.0
H676 H 0.51185 0.65067 0.2056 0.0
H677 H 0.5596 0.71327 0.1723 0.0
H678 H 0.69581 0.70183 0.2279 0.0
H679 H 0.64896 0.63873 0.2614 0.0
C680 C 0.47738 0.5687 0.39237 0.0
C681 C 0.52381 0.56194 0.40793 0.0
C682 C 0.4758 0.57218 0.35956 0.0
C683 C 0.5208 0.56973 0.34205 0.0
C684 C 0.56768 0.56531 0.35752 0.0
C685 C 0.56908 0.56099 0.39022 0.0
C686 C 0.51871 0.56818 0.30773 0.0
C687 C 0.54675 0.60277 0.28831 0.0
C688 C 0.49109 0.53173 0.29434 0.0
C689 C 0.462 0.49375 0.31397 0.0
C690 C 0.48762 0.46787 0.33662 0.0
C691 C 0.45979 0.43252 0.35533 0.0
C692 C 0.40638 0.42247 0.35142 0.0
C693 C 0.38074 0.44766 0.32868 0.0
C694 C 0.4084 0.48311 0.30994 0.0
C695 C 0.58758 0.55263 0.16503 0.0
C696 C 0.5448 0.54666 0.14512 0.0
C697 C 0.58029 0.55789 0.19666 0.0
C698 C 0.53016 0.55758 0.20893 0.0
C699 C 0.48727 0.5508 0.1893 0.0
C700 C 0.49452 0.54554 0.15761 0.0
C701 C 0.52292 0.56398 0.2424 0.0
C702 C 0.49319 0.53024 0.26174 0.0
C703 C 0.54866 0.60143 0.25567 0.0
C704 C 0.57697 0.63973 0.23588 0.0
C705 C 0.55209 0.6613 0.21062 0.0
C706 C 0.57899 0.69691 0.19171 0.0
C707 C 0.63078 0.71145 0.1979 0.0
C708 C 0.6557 0.6905 0.22311 0.0
C709 C 0.62895 0.65486 0.24212 0.0
H710 H 0.65156 0.73899 0.18319 0.0
H711 H 0.3849 0.3951 0.36593 0.0
loop_
_geom_bond_atom_site_label_1
_geom_bond_atom_site_label_2
_geom_bond_distance
_geom_bond_site_symmetry_2
_ccdc_geom_bond_type
Co0 N5 2.067 . S
Co0 O17 2.021 . S
Co0 O20 2.075 . S
Co0 O24 2.117 1_564 S
Co0 O25 2.020 1_565 S
C1 O21 1.259 1_455 S
C1 O24 1.258 . S
Co2 N11 2.057 . S
Co2 O18 2.112 1_655 S
Co2 O19 2.020 1_545 S
Co2 O21 2.021 1_554 S
Co2 O26 2.062 1_655 S
C3 N5 1.338 . S
C3 N6 1.347 . S
C3 H8 0.931 . S
C4 N5 1.341 1_556 S
C4 C7 1.350 . S
C4 H9 0.930 . S
N5 Co0 2.067 . S
N5 C3 1.338 . S
N5 C4 1.341 1_554 S
N6 C3 1.347 . S
N6 C7 1.373 1_554 S
C7 C4 1.350 . S
C7 N6 1.373 1_556 S
C7 H28 0.931 . S
H8 C3 0.931 . S
H9 C4 0.930 . S
C10 O17 1.259 1_545 S
C10 O18 1.270 . S
N11 Co2 2.057 . S
N11 C12 1.316 1_554 S
N11 C13 1.375 . S
C12 N11 1.316 1_556 S
C12 N14 1.347 1_556 S
C12 H23 0.931 . S
C13 N11 1.375 . S
C13 C15 1.350 . S
C13 H22 0.930 . S
N14 C12 1.347 1_554 S
N14 C15 1.373 . S
C15 C13 1.350 . S
C15 N14 1.373 . S
C15 H29 0.931 . S
C16 O19 1.256 . S
C16 O20 1.237 1_655 S
O17 Co0 2.021 . S
O17 C10 1.259 1_565 S
O18 Co2 2.112 1_455 S
O18 C10 1.270 . S
O19 Co2 2.020 1_565 S
O19 C16 1.256 . S
O20 Co0 2.075 . S
O20 C16 1.237 1_455 S
O21 C1 1.259 1_655 S
O21 Co2 2.021 1_556 S
H22 C13 0.930 . S
H23 C12 0.931 . S
O24 Co0 2.117 1_546 S
O24 C1 1.258 . S
O25 Co0 2.020 1_545 S
O25 C27 1.256 . S
O26 Co2 2.062 1_455 S
O26 C27 1.255 . S
C27 O25 1.256 . S
C27 O26 1.255 . S
H28 C7 0.931 . S
H29 C15 0.931 . S
Co30 N35 2.057 . S
Co30 O47 2.021 . S
Co30 O50 2.062 . S
Co30 O54 2.117 . S
Co30 O55 2.020 . S
C31 O51 1.259 . S
C31 O54 1.258 . S
Co32 N41 2.057 . S
Co32 O48 2.117 . S
Co32 O49 2.020 . S
Co32 O51 2.021 . S
Co32 O56 2.062 . S
C33 N35 1.316 . S
C33 N36 1.347 . S
C33 H38 0.931 . S
C34 N35 1.375 . S
C34 C37 1.350 . S
C34 H39 0.930 . S
N35 Co30 2.057 . S
N35 C33 1.316 . S
N35 C34 1.375 . S
N36 C33 1.347 . S
N36 C37 1.373 . S
C37 C34 1.350 . S
C37 N36 1.373 . S
C37 H58 0.931 . S
H38 C33 0.931 . S
H39 C34 0.930 . S
C40 O47 1.259 . S
C40 O48 1.258 . S
N41 Co32 2.057 . S
N41 C42 1.316 . S
N41 C43 1.375 . S
C42 N41 1.316 . S
C42 N44 1.347 . S
C42 H53 0.931 . S
C43 N41 1.375 . S
C43 C45 1.350 . S
C43 H52 0.930 . S
N44 C42 1.347 . S
N44 C45 1.373 . S
C45 C43 1.350 . S
C45 N44 1.373 . S
C45 H59 0.931 . S
C46 O49 1.256 . S
C46 O50 1.255 . S
O47 Co30 2.021 . S
O47 C40 1.259 . S
O48 Co32 2.117 . S
O48 C40 1.258 . S
O49 Co32 2.020 . S
O49 C46 1.256 . S
O50 Co30 2.062 . S
O50 C46 1.255 . S
O51 C31 1.259 . S
O51 Co32 2.021 . S
H52 C43 0.930 . S
H53 C42 0.931 . S
O54 Co30 2.117 . S
O54 C31 1.258 . S
O55 Co30 2.020 . S
O55 C57 1.256 . S
O56 Co32 2.062 . S
O56 C57 1.255 . S
C57 O55 1.256 . S
C57 O56 1.255 . S
H58 C37 0.931 . S
H59 C45 0.931 . S
H60 C67 0.929 . S
H61 C70 0.930 . S
H62 C72 0.929 . S
H63 C64 0.969 . S
C64 H63 0.969 . S
C64 O65 1.550 . S
C64 H66 0.973 . S
O65 C64 1.550 . S
O65 C71 1.412 . S
H66 C64 0.973 . S
C67 H60 0.929 . S
C67 C68 1.400 . S
C67 C69 1.364 . S
C68 C67 1.400 . S
C68 C72 1.377 . S
C69 C67 1.364 . S
C69 C70 1.374 1_465 S
C70 H61 0.930 . S
C70 C69 1.374 1_645 S
C70 C71 1.383 . S
C71 O65 1.412 . S
C71 C70 1.383 . S
C71 C72 1.394 1_645 S
C72 H62 0.929 . S
C72 C68 1.377 . S
C72 C71 1.394 1_465 S
H73 C80 0.929 . S
H74 C83 0.930 1_565 S
H75 C85 0.929 . S
H76 C77 0.969 . S
C77 H76 0.969 . S
C77 O78 1.550 . S
C77 H79 0.973 . S
O78 C77 1.550 . S
O78 C84 1.412 1_565 S
H79 C77 0.973 . S
C80 H73 0.929 . S
C80 C81 1.400 . S
C80 C82 1.364 . S
C81 C80 1.400 . S
C81 C85 1.377 . S
C82 C80 1.364 . S
C82 C83 1.374 1_455 S
C83 H74 0.930 1_545 S
C83 C82 1.374 1_655 S
C83 C84 1.383 . S
C84 O78 1.412 1_545 S
C84 C83 1.383 . S
C84 C85 1.394 1_655 S
C85 H75 0.929 . S
C85 C81 1.377 . S
C85 C84 1.394 1_455 S
H86 C93 0.929 . S
H87 C96 0.930 . S
H88 C98 0.929 . S
H89 C90 0.969 . S
C90 H89 0.969 . S
C90 O91 1.550 . S
C90 H92 0.973 . S
O91 C90 1.550 . S
O91 C97 1.412 . S
H92 C90 0.973 . S
C93 H86 0.929 . S
C93 C94 1.400 . S
C93 C95 1.364 . S
C94 C93 1.400 . S
C94 C98 1.377 . S
C95 C93 1.364 . S
C95 C96 1.374 . S
C96 H87 0.930 . S
C96 C95 1.374 . S
C96 C97 1.383 . S
C97 O91 1.412 . S
C97 C96 1.383 . S
C97 C98 1.394 . S
C98 H88 0.929 . S
C98 C94 1.377 . S
C98 C97 1.394 . S
H99 C106 0.929 . S
H100 C109 0.930 . S
H101 C111 0.929 . S
H102 C103 0.969 . S
C103 H102 0.969 . S
C103 O104 1.550 . S
C103 H105 0.973 . S
O104 C103 1.550 . S
O104 C110 1.412 . S
H105 C103 0.973 . S
C106 H99 0.929 . S
C106 C107 1.400 . S
C106 C108 1.364 . S
C107 C106 1.400 . S
C107 C111 1.377 . S
C108 C106 1.364 . S
C108 C109 1.374 . S
C109 H100 0.930 . S
C109 C108 1.374 . S
C109 C110 1.383 . S
C110 O104 1.412 . S
C110 C109 1.383 . S
C110 C111 1.394 . S
C111 H101 0.929 . S
C111 C107 1.377 . S
C111 C110 1.394 . S
H112 C130 0.951 . S
H113 C132 0.951 1_556 S
H114 C134 0.950 . S
H115 C135 0.950 . S
H116 C137 0.964 . S
H117 C140 0.950 . S
H118 C141 0.950 . S
H119 C143 0.950 . S
H120 C144 0.950 . S
H121 C145 0.951 . S
H122 C147 0.951 . S
H123 C149 0.950 . S
H124 C150 0.950 . S
H125 C152 0.950 . S
H126 C155 0.950 . S
H127 C156 0.950 . S
H128 C158 0.950 . S
H129 C159 0.950 . S
C130 H112 0.951 . S
C130 C131 1.366 1_556 S
C130 C132 1.388 1_556 S
C131 C130 1.366 1_554 S
C131 C135 1.385 . S
C132 H113 0.951 1_554 S
C132 C130 1.388 1_554 S
C132 C133 1.366 . S
C133 C132 1.366 . S
C133 C134 1.414 . S
C133 C136 1.499 . S
C134 H114 0.950 . S
C134 C133 1.414 . S
C134 C135 1.374 . S
C135 H115 0.950 . S
C135 C131 1.385 . S
C135 C134 1.374 . S
C136 C133 1.499 . S
C136 C137 1.363 1_554 S
C136 C138 1.389 . S
C137 H116 0.964 . S
C137 C136 1.363 1_556 S
C137 C153 1.374 1_556 S
C138 C136 1.389 . S
C138 C139 1.524 . S
C138 C152 1.377 . S
C139 C138 1.524 . S
C139 C140 1.397 . S
C139 C144 1.363 . S
C140 H117 0.950 . S
C140 C139 1.397 . S
C140 C141 1.334 . S
C141 H118 0.950 . S
C141 C140 1.334 . S
C141 C142 1.287 . S
C142 C141 1.287 . S
C142 C143 1.524 . S
C142 H161 0.913 . S
C143 H119 0.950 . S
C143 C142 1.524 . S
C143 C144 1.415 . S
C144 H120 0.950 . S
C144 C139 1.363 . S
C144 C143 1.415 . S
C145 H121 0.951 . S
C145 C146 1.366 . S
C145 C147 1.388 . S
C146 C145 1.366 . S
C146 C150 1.385 . S
C147 H122 0.951 . S
C147 C145 1.388 . S
C147 C148 1.366 . S
C148 C147 1.366 . S
C148 C149 1.414 . S
C148 C151 1.499 . S
C149 H123 0.950 . S
C149 C148 1.414 . S
C149 C150 1.374 . S
C150 H124 0.950 . S
C150 C146 1.385 . S
C150 C149 1.374 . S
C151 C148 1.499 . S
C151 C152 1.373 . S
C151 C153 1.388 . S
C152 H125 0.950 . S
C152 C138 1.377 . S
C152 C151 1.373 . S
C153 C137 1.374 1_554 S
C153 C151 1.388 . S
C153 C154 1.526 1_554 S
C154 C153 1.526 1_556 S
C154 C155 1.397 . S
C154 C159 1.363 . S
C155 H126 0.950 . S
C155 C154 1.397 . S
C155 C156 1.334 . S
C156 H127 0.950 . S
C156 C155 1.334 . S
C156 C157 1.287 . S
C157 C156 1.287 . S
C157 C158 1.524 . S
C157 H160 0.999 . S
C158 H128 0.950 . S
C158 C157 1.524 . S
C158 C159 1.415 . S
C159 H129 0.950 . S
C159 C154 1.363 . S
C159 C158 1.415 . S
H160 C157 0.999 . S
H161 C142 0.913 . S
H162 C180 0.951 . S
H163 C182 0.951 . S
H164 C184 0.950 . S
H165 C185 0.950 . S
H166 C187 0.950 . S
H167 C190 0.950 . S
H168 C191 0.950 . S
H169 C193 0.950 . S
H170 C194 0.950 . S
H171 C195 0.951 . S
H172 C197 0.951 . S
H173 C199 0.950 . S
H174 C200 0.950 . S
H175 C202 0.950 . S
H176 C205 0.950 . S
H177 C206 0.950 . S
H178 C208 0.950 . S
H179 C209 0.950 . S
C180 H162 0.951 . S
C180 C181 1.366 1_556 S
C180 C182 1.388 . S
C181 C180 1.366 1_554 S
C181 C185 1.385 . S
C182 H163 0.951 . S
C182 C180 1.388 . S
C182 C183 1.366 1_556 S
C183 C182 1.366 1_554 S
C183 C184 1.414 . S
C183 C186 1.503 . S
C184 H164 0.950 . S
C184 C183 1.414 . S
C184 C185 1.374 . S
C185 H165 0.950 . S
C185 C181 1.385 . S
C185 C184 1.374 . S
C186 C183 1.503 . S
C186 C187 1.389 . S
C186 C188 1.370 1_554 S
C187 H166 0.950 . S
C187 C186 1.389 . S
C187 C203 1.377 . S
C188 C186 1.370 1_556 S
C188 C189 1.524 . S
C188 C202 1.377 . S
C189 C188 1.524 . S
C189 C190 1.397 . S
C189 C194 1.363 . S
C190 H167 0.950 . S
C190 C189 1.397 . S
C190 C191 1.334 . S
C191 H168 0.950 . S
C191 C190 1.334 . S
C191 C192 1.287 . S
C192 C191 1.287 . S
C192 C193 1.524 . S
C192 H211 0.913 . S
C193 H169 0.950 . S
C193 C192 1.524 . S
C193 C194 1.415 . S
C194 H170 0.950 . S
C194 C189 1.363 . S
C194 C193 1.415 . S
C195 H171 0.951 . S
C195 C196 1.366 1_554 S
C195 C197 1.388 . S
C196 C195 1.366 1_556 S
C196 C200 1.385 . S
C197 H172 0.951 . S
C197 C195 1.388 . S
C197 C198 1.366 1_554 S
C198 C197 1.366 1_556 S
C198 C199 1.414 . S
C198 C201 1.499 . S
C199 H173 0.950 . S
C199 C198 1.414 . S
C199 C200 1.374 . S
C200 H174 0.950 . S
C200 C196 1.385 . S
C200 C199 1.374 . S
C201 C198 1.499 . S
C201 C202 1.373 . S
C201 C203 1.389 1_556 S
C202 H175 0.950 . S
C202 C188 1.377 . S
C202 C201 1.373 . S
C203 C187 1.377 . S
C203 C201 1.389 1_554 S
C203 C204 1.524 . S
C204 C203 1.524 . S
C204 C205 1.397 . S
C204 C209 1.363 . S
C205 H176 0.950 . S
C205 C204 1.397 . S
C205 C206 1.334 . S
C206 H177 0.950 . S
C206 C205 1.334 . S
C206 C207 1.287 . S
C207 C206 1.287 . S
C207 C208 1.524 . S
C207 H210 0.999 . S
C208 H178 0.950 . S
C208 C207 1.524 . S
C208 C209 1.415 . S
C209 H179 0.950 . S
C209 C204 1.363 . S
C209 C208 1.415 . S
H210 C207 0.999 . S
H211 C192 0.913 . S
H212 C230 0.951 . S
H213 C232 0.951 . S
H214 C234 0.950 . S
H215 C235 0.950 1_556 S
H216 C237 0.950 . S
H217 C240 0.950 . S
H218 C241 0.950 . S
H219 C243 0.950 . S
H220 C244 0.922 1_554 S
H221 C245 0.951 . S
H222 C247 0.951 . S
H223 C249 0.950 . S
H224 C250 0.950 . S
H225 C252 0.950 . S
H226 C255 0.950 . S
H227 C256 0.950 . S
H228 C258 0.950 . S
H229 C259 0.950 . S
C230 H212 0.951 . S
C230 C231 1.366 . S
C230 C232 1.388 . S
C231 C230 1.366 . S
C231 C235 1.385 . S
C232 H213 0.951 . S
C232 C230 1.388 . S
C232 C233 1.366 . S
C233 C232 1.366 . S
C233 C234 1.414 . S
C233 C236 1.499 . S
C234 H214 0.950 . S
C234 C233 1.414 . S
C234 C235 1.374 . S
C235 H215 0.950 1_554 S
C235 C231 1.385 . S
C235 C234 1.374 . S
C236 C233 1.499 . S
C236 C237 1.373 . S
C236 C238 1.389 . S
C237 H216 0.950 . S
C237 C236 1.373 . S
C237 C253 1.377 . S
C238 C236 1.389 . S
C238 C239 1.524 1_554 S
C238 C252 1.377 . S
C239 C238 1.524 1_556 S
C239 C240 1.397 . S
C239 C244 1.368 . S
C240 H217 0.950 . S
C240 C239 1.397 . S
C240 C241 1.334 . S
C241 H218 0.950 . S
C241 C240 1.334 . S
C241 C242 1.287 . S
C242 C241 1.287 . S
C242 C243 1.524 . S
C242 H261 0.913 . S
C243 H219 0.950 . S
C243 C242 1.524 . S
C243 C244 1.438 . S
C244 H220 0.922 1_556 S
C244 C239 1.368 . S
C244 C243 1.438 . S
C245 H221 0.951 . S
C245 C246 1.366 . S
C245 C247 1.388 . S
C246 C245 1.366 . S
C246 C250 1.385 . S
C247 H222 0.951 . S
C247 C245 1.388 . S
C247 C248 1.366 . S
C248 C247 1.366 . S
C248 C249 1.414 . S
C248 C251 1.499 . S
C249 H223 0.950 . S
C249 C248 1.414 . S
C249 C250 1.374 . S
C250 H224 0.950 . S
C250 C246 1.385 . S
C250 C249 1.374 . S
C251 C248 1.499 . S
C251 C252 1.373 . S
C251 C253 1.389 . S
C252 H225 0.950 . S
C252 C238 1.377 . S
C252 C251 1.373 . S
C253 C237 1.377 . S
C253 C251 1.389 . S
C253 C254 1.524 . S
C254 C253 1.524 . S
C254 C255 1.397 . S
C254 C259 1.363 . S
C255 H226 0.950 . S
C255 C254 1.397 . S
C255 C256 1.334 . S
C256 H227 0.950 . S
C256 C255 1.334 . S
C256 C257 1.287 . S
C257 C256 1.287 . S
C257 C258 1.524 . S
C257 H260 0.999 . S
C258 H228 0.950 . S
C258 C257 1.524 . S
C258 C259 1.415 . S
C259 H229 0.950 . S
C259 C254 1.363 . S
C259 C258 1.415 . S
H260 C257 0.999 . S
H261 C242 0.913 . S
H262 C280 0.951 . S
H263 C282 0.951 1_554 S
H264 C284 0.950 . S
H265 C285 0.950 . S
H266 C287 0.950 1_554 S
H267 C290 0.950 . S
H268 C291 0.950 . S
H269 C293 0.950 . S
H270 C294 0.950 . S
H271 C295 0.951 . S
H272 C297 0.951 . S
H273 C299 0.950 . S
H274 C300 0.950 . S
H275 C302 0.950 . S
H276 C305 0.950 . S
H277 C306 0.950 . S
H278 C308 0.950 . S
H279 C309 0.950 1_556 S
C280 H262 0.951 . S
C280 C281 1.366 1_554 S
C280 C282 1.388 1_554 S
C281 C280 1.366 1_556 S
C281 C285 1.385 . S
C282 H263 0.951 1_556 S
C282 C280 1.388 1_556 S
C282 C283 1.366 . S
C283 C282 1.366 . S
C283 C284 1.414 . S
C283 C286 1.499 . S
C284 H264 0.950 . S
C284 C283 1.414 . S
C284 C285 1.374 . S
C285 H265 0.950 . S
C285 C281 1.385 . S
C285 C284 1.374 . S
C286 C283 1.499 . S
C286 C287 1.373 . S
C286 C288 1.389 . S
C287 H266 0.950 1_556 S
C287 C286 1.373 . S
C287 C303 1.377 . S
C288 C286 1.389 . S
C288 C289 1.524 . S
C288 C302 1.377 . S
C289 C288 1.524 . S
C289 C290 1.397 . S
C289 C294 1.363 . S
C290 H267 0.950 . S
C290 C289 1.397 . S
C290 C291 1.334 . S
C291 H268 0.950 . S
C291 C290 1.334 . S
C291 C292 1.287 . S
C292 C291 1.287 . S
C292 C293 1.524 . S
C292 H311 0.913 . S
C293 H269 0.950 . S
C293 C292 1.524 . S
C293 C294 1.415 . S
C294 H270 0.950 . S
C294 C289 1.363 . S
C294 C293 1.415 . S
C295 H271 0.951 . S
C295 C296 1.366 . S
C295 C297 1.388 . S
C296 C295 1.366 . S
C296 C300 1.385 . S
C297 H272 0.951 . S
C297 C295 1.388 . S
C297 C298 1.366 . S
C298 C297 1.366 . S
C298 C299 1.414 . S
C298 C301 1.499 . S
C299 H273 0.950 . S
C299 C298 1.414 . S
C299 C300 1.374 . S
C300 H274 0.950 . S
C300 C296 1.385 . S
C300 C299 1.374 . S
C301 C298 1.499 . S
C301 C302 1.373 . S
C301 C303 1.389 . S
C302 H275 0.950 . S
C302 C288 1.377 . S
C302 C301 1.373 . S
C303 C287 1.377 . S
C303 C301 1.389 . S
C303 C304 1.524 1_556 S
C304 C303 1.524 1_554 S
C304 C305 1.397 . S
C304 C309 1.363 . S
C305 H276 0.950 . S
C305 C304 1.397 . S
C305 C306 1.334 . S
C306 H277 0.950 . S
C306 C305 1.334 . S
C306 C307 1.287 . S
C307 C306 1.287 . S
C307 C308 1.524 . S
C307 H310 0.999 . S
C308 H278 0.950 . S
C308 C307 1.524 . S
C308 C309 1.415 . S
C309 H279 0.950 1_554 S
C309 C304 1.363 . S
C309 C308 1.415 . S
H310 C307 0.999 . S
H311 C292 0.913 . S
H312 C330 0.951 . S
H313 C332 0.951 . S
H314 C334 0.950 . S
H315 C335 0.950 . S
H316 C337 0.950 . S
H317 C340 0.950 . S
H318 C341 0.950 . S
H319 C343 0.950 . S
H320 C344 0.950 . S
H321 C345 0.951 . S
H322 C347 0.951 . S
H323 C349 0.950 . S
H324 C350 0.950 . S
H325 C352 0.950 . S
H326 C355 0.950 . S
H327 C356 0.950 . S
H328 C358 0.950 . S
H329 C359 0.950 . S
C330 H312 0.951 . S
C330 C331 1.366 . S
C330 C332 1.388 . S
C331 C330 1.366 . S
C331 C335 1.385 . S
C332 H313 0.951 . S
C332 C330 1.388 . S
C332 C333 1.366 . S
C333 C332 1.366 . S
C333 C334 1.414 . S
C333 C336 1.499 . S
C334 H314 0.950 . S
C334 C333 1.414 . S
C334 C335 1.374 . S
C335 H315 0.950 . S
C335 C331 1.385 . S
C335 C334 1.374 . S
C336 C333 1.499 . S
C336 C337 1.373 . S
C336 C338 1.389 . S
C337 H316 0.950 . S
C337 C336 1.373 . S
C337 C353 1.377 . S
C338 C336 1.389 . S
C338 C339 1.524 . S
C338 C352 1.377 . S
C339 C338 1.524 . S
C339 C340 1.397 . S
C339 C344 1.363 . S
C340 H317 0.950 . S
C340 C339 1.397 . S
C340 C341 1.334 . S
C341 H318 0.950 . S
C341 C340 1.334 . S
C341 C342 1.287 . S
C342 C341 1.287 . S
C342 C343 1.524 . S
C342 H361 0.913 . S
C343 H319 0.950 . S
C343 C342 1.524 . S
C343 C344 1.415 . S
C344 H320 0.950 . S
C344 C339 1.363 . S
C344 C343 1.415 . S
C345 H321 0.951 . S
C345 C346 1.366 . S
C345 C347 1.388 . S
C346 C345 1.366 . S
C346 C350 1.385 . S
C347 H322 0.951 . S
C347 C345 1.388 . S
C347 C348 1.366 . S
C348 C347 1.366 . S
C348 C349 1.414 . S
C348 C351 1.499 . S
C349 H323 0.950 . S
C349 C348 1.414 . S
C349 C350 1.374 . S
C350 H324 0.950 . S
C350 C346 1.385 . S
C350 C349 1.374 . S
C351 C348 1.499 . S
C351 C352 1.373 . S
C351 C353 1.389 . S
C352 H325 0.950 . S
C352 C338 1.377 . S
C352 C351 1.373 . S
C353 C337 1.377 . S
C353 C351 1.389 . S
C353 C354 1.524 . S
C354 C353 1.524 . S
C354 C355 1.397 . S
C354 C359 1.363 . S
C355 H326 0.950 . S
C355 C354 1.397 . S
C355 C356 1.334 . S
C356 H327 0.950 . S
C356 C355 1.334 . S
C356 C357 1.287 . S
C357 C356 1.287 . S
C357 C358 1.524 . S
C357 H360 0.999 . S
C358 H328 0.950 . S
C358 C357 1.524 . S
C358 C359 1.415 . S
C359 H329 0.950 . S
C359 C354 1.363 . S
C359 C358 1.415 . S
H360 C357 0.999 . S
H361 C342 0.913 . S
H362 C380 0.951 . S
H363 C382 0.951 . S
H364 C384 0.950 . S
H365 C385 0.950 . S
H366 C387 0.950 . S
H367 C390 0.950 . S
H368 C391 0.950 . S
H369 C393 0.950 . S
H370 C394 0.950 . S
H371 C395 0.951 . S
H372 C397 0.951 . S
H373 C399 0.950 . S
H374 C400 0.950 . S
H375 C402 0.950 . S
H376 C405 0.950 . S
H377 C406 0.950 . S
H378 C408 0.950 . S
H379 C409 0.950 . S
C380 H362 0.951 . S
C380 C381 1.366 . S
C380 C382 1.388 . S
C381 C380 1.366 . S
C381 C385 1.385 . S
C382 H363 0.951 . S
C382 C380 1.388 . S
C382 C383 1.366 . S
C383 C382 1.366 . S
C383 C384 1.414 . S
C383 C386 1.499 . S
C384 H364 0.950 . S
C384 C383 1.414 . S
C384 C385 1.374 . S
C385 H365 0.950 . S
C385 C381 1.385 . S
C385 C384 1.374 . S
C386 C383 1.499 . S
C386 C387 1.373 . S
C386 C388 1.389 . S
C387 H366 0.950 . S
C387 C386 1.373 . S
C387 C403 1.377 . S
C388 C386 1.389 . S
C388 C389 1.524 . S
C388 C402 1.377 . S
C389 C388 1.524 . S
C389 C390 1.397 . S
C389 C394 1.363 . S
C390 H367 0.950 . S
C390 C389 1.397 . S
C390 C391 1.334 . S
C391 H368 0.950 . S
C391 C390 1.334 . S
C391 C392 1.287 . S
C392 C391 1.287 . S
C392 C393 1.524 . S
C392 H411 0.913 . S
C393 H369 0.950 . S
C393 C392 1.524 . S
C393 C394 1.415 . S
C394 H370 0.950 . S
C394 C389 1.363 . S
C394 C393 1.415 . S
C395 H371 0.951 . S
C395 C396 1.366 . S
C395 C397 1.388 . S
C396 C395 1.366 . S
C396 C400 1.385 . S
C397 H372 0.951 . S
C397 C395 1.388 . S
C397 C398 1.366 . S
C398 C397 1.366 . S
C398 C399 1.414 . S
C398 C401 1.499 . S
C399 H373 0.950 . S
C399 C398 1.414 . S
C399 C400 1.374 . S
C400 H374 0.950 . S
C400 C396 1.385 . S
C400 C399 1.374 . S
C401 C398 1.499 . S
C401 C402 1.373 . S
C401 C403 1.389 . S
C402 H375 0.950 . S
C402 C388 1.377 . S
C402 C401 1.373 . S
C403 C387 1.377 . S
C403 C401 1.389 . S
C403 C404 1.524 . S
C404 C403 1.524 . S
C404 C405 1.397 . S
C404 C409 1.363 . S
C405 H376 0.950 . S
C405 C404 1.397 . S
C405 C406 1.334 . S
C406 H377 0.950 . S
C406 C405 1.334 . S
C406 C407 1.287 . S
C407 C406 1.287 . S
C407 C408 1.524 . S
C407 H410 0.999 . S
C408 H378 0.950 . S
C408 C407 1.524 . S
C408 C409 1.415 . S
C409 H379 0.950 . S
C409 C404 1.363 . S
C409 C408 1.415 . S
H410 C407 0.999 . S
H411 C392 0.913 . S
H412 C430 0.951 . S
H413 C432 0.951 . S
H414 C434 0.950 . S
H415 C435 0.950 . S
H416 C437 0.950 . S
H417 C440 0.950 . S
H418 C441 0.950 . S
H419 C443 0.950 . S
H420 C444 0.950 . S
H421 C445 0.951 . S
H422 C447 0.951 . S
H423 C449 0.950 . S
H424 C450 0.950 . S
H425 C452 0.950 . S
H426 C455 0.950 . S
H427 C456 0.950 . S
H428 C458 0.950 . S
H429 C459 0.950 . S
C430 H412 0.951 . S
C430 C431 1.366 . S
C430 C432 1.388 . S
C431 C430 1.366 . S
C431 C435 1.385 . S
C432 H413 0.951 . S
C432 C430 1.388 . S
C432 C433 1.366 . S
C433 C432 1.366 . S
C433 C434 1.414 . S
C433 C436 1.499 . S
C434 H414 0.950 . S
C434 C433 1.414 . S
C434 C435 1.374 . S
C435 H415 0.950 . S
C435 C431 1.385 . S
C435 C434 1.374 . S
C436 C433 1.499 . S
C436 C437 1.373 . S
C436 C438 1.389 . S
C437 H416 0.950 . S
C437 C436 1.373 . S
C437 C453 1.377 . S
C438 C436 1.389 . S
C438 C439 1.524 . S
C438 C452 1.377 . S
C439 C438 1.524 . S
C439 C440 1.397 . S
C439 C444 1.363 . S
C440 H417 0.950 . S
C440 C439 1.397 . S
C440 C441 1.334 . S
C441 H418 0.950 . S
C441 C440 1.334 . S
C441 C442 1.287 . S
C442 C441 1.287 . S
C442 C443 1.524 . S
C442 H461 0.913 . S
C443 H419 0.950 . S
C443 C442 1.524 . S
C443 C444 1.415 . S
C444 H420 0.950 . S
C444 C439 1.363 . S
C444 C443 1.415 . S
C445 H421 0.951 . S
C445 C446 1.366 . S
C445 C447 1.388 . S
C446 C445 1.366 . S
C446 C450 1.385 . S
C447 H422 0.951 . S
C447 C445 1.388 . S
C447 C448 1.366 . S
C448 C447 1.366 . S
C448 C449 1.414 . S
C448 C451 1.499 . S
C449 H423 0.950 . S
C449 C448 1.414 . S
C449 C450 1.374 . S
C450 H424 0.950 . S
C450 C446 1.385 . S
C450 C449 1.374 . S
C451 C448 1.499 . S
C451 C452 1.373 . S
C451 C453 1.389 . S
C452 H425 0.950 . S
C452 C438 1.377 . S
C452 C451 1.373 . S
C453 C437 1.377 . S
C453 C451 1.389 . S
C453 C454 1.524 . S
C454 C453 1.524 . S
C454 C455 1.397 . S
C454 C459 1.363 . S
C455 H426 0.950 . S
C455 C454 1.397 . S
C455 C456 1.334 . S
C456 H427 0.950 . S
C456 C455 1.334 . S
C456 C457 1.287 . S
C457 C456 1.287 . S
C457 C458 1.524 . S
C457 H460 0.999 . S
C458 H428 0.950 . S
C458 C457 1.524 . S
C458 C459 1.415 . S
C459 H429 0.950 . S
C459 C454 1.363 . S
C459 C458 1.415 . S
H460 C457 0.999 . S
H461 C442 0.913 . S
H462 C480 0.951 . S
H463 C482 0.951 . S
H464 C484 0.950 . S
H465 C485 0.950 . S
H466 C487 0.950 . S
H467 C490 0.950 . S
H468 C491 0.950 . S
H469 C493 0.950 . S
H470 C494 0.950 . S
H471 C495 0.951 . S
H472 C497 0.951 . S
H473 C499 0.950 . S
H474 C500 0.950 . S
H475 C502 0.950 . S
H476 C505 0.950 . S
H477 C506 0.950 . S
H478 C508 0.950 . S
H479 C509 0.950 . S
C480 H462 0.951 . S
C480 C481 1.366 . S
C480 C482 1.388 . S
C481 C480 1.366 . S
C481 C485 1.385 . S
C482 H463 0.951 . S
C482 C480 1.388 . S
C482 C483 1.366 . S
C483 C482 1.366 . S
C483 C484 1.414 . S
C483 C486 1.499 . S
C484 H464 0.950 . S
C484 C483 1.414 . S
C484 C485 1.374 . S
C485 H465 0.950 . S
C485 C481 1.385 . S
C485 C484 1.374 . S
C486 C483 1.499 . S
C486 C487 1.373 . S
C486 C488 1.389 . S
C487 H466 0.950 . S
C487 C486 1.373 . S
C487 C503 1.377 . S
C488 C486 1.389 . S
C488 C489 1.524 . S
C488 C502 1.377 . S
C489 C488 1.524 . S
C489 C490 1.397 . S
C489 C494 1.363 . S
C490 H467 0.950 . S
C490 C489 1.397 . S
C490 C491 1.334 . S
C491 H468 0.950 . S
C491 C490 1.334 . S
C491 C492 1.287 . S
C492 C491 1.287 . S
C492 C493 1.524 . S
C492 H511 0.913 . S
C493 H469 0.950 . S
C493 C492 1.524 . S
C493 C494 1.415 . S
C494 H470 0.950 . S
C494 C489 1.363 . S
C494 C493 1.415 . S
C495 H471 0.951 . S
C495 C496 1.366 . S
C495 C497 1.388 . S
C496 C495 1.366 . S
C496 C500 1.385 . S
C497 H472 0.951 . S
C497 C495 1.388 . S
C497 C498 1.366 . S
C498 C497 1.366 . S
C498 C499 1.414 . S
C498 C501 1.499 . S
C499 H473 0.950 . S
C499 C498 1.414 . S
C499 C500 1.374 . S
C500 H474 0.950 . S
C500 C496 1.385 . S
C500 C499 1.374 . S
C501 C498 1.499 . S
C501 C502 1.373 . S
C501 C503 1.389 . S
C502 H475 0.950 . S
C502 C488 1.377 . S
C502 C501 1.373 . S
C503 C487 1.377 . S
C503 C501 1.389 . S
C503 C504 1.524 . S
C504 C503 1.524 . S
C504 C505 1.397 . S
C504 C509 1.363 . S
C505 H476 0.950 . S
C505 C504 1.397 . S
C505 C506 1.334 . S
C506 H477 0.950 . S
C506 C505 1.334 . S
C506 C507 1.287 . S
C507 C506 1.287 . S
C507 C508 1.524 . S
C507 H510 0.999 1_455 S
C508 H478 0.950 . S
C508 C507 1.524 . S
C508 C509 1.415 . S
C509 H479 0.950 . S
C509 C504 1.363 . S
C509 C508 1.415 . S
H510 C507 0.999 1_655 S
H511 C492 0.913 . S
H512 C530 0.951 . S
H513 C532 0.951 . S
H514 C534 0.950 . S
H515 C535 0.950 . S
H516 C537 0.950 . S
H517 C540 0.950 . S
H518 C541 0.950 . S
H519 C543 0.950 . S
H520 C544 0.950 1_455 S
H521 C545 0.951 . S
H522 C547 0.951 . S
H523 C549 0.950 . S
H524 C550 0.950 . S
H525 C552 0.949 1_655 S
H526 C555 0.950 . S
H527 C556 0.950 . S
H528 C558 0.950 . S
H529 C559 0.950 . S
C530 H512 0.951 . S
C530 C531 1.366 1_565 S
C530 C532 1.388 . S
C531 C530 1.366 1_545 S
C531 C535 1.384 1_455 S
C532 H513 0.951 . S
C532 C530 1.388 . S
C532 C533 1.366 1_565 S
C533 C532 1.366 1_545 S
C533 C534 1.414 1_455 S
C533 C536 1.499 . S
C534 H514 0.950 . S
C534 C533 1.414 1_655 S
C534 C535 1.374 . S
C535 H515 0.950 . S
C535 C531 1.384 1_655 S
C535 C534 1.374 . S
C536 C533 1.499 . S
C536 C537 1.373 . S
C536 C538 1.389 1_445 S
C537 H516 0.950 . S
C537 C536 1.373 . S
C537 C553 1.377 . S
C538 C536 1.389 1_665 S
C538 C539 1.524 . S
C538 C552 1.376 1_655 S
C539 C538 1.524 . S
C539 C540 1.397 . S
C539 C544 1.363 . S
C540 H517 0.950 . S
C540 C539 1.397 . S
C540 C541 1.334 . S
C541 H518 0.950 . S
C541 C540 1.334 . S
C541 C542 1.287 . S
C542 C541 1.287 . S
C542 C543 1.524 . S
C542 H561 0.913 . S
C543 H519 0.950 . S
C543 C542 1.524 . S
C543 C544 1.415 . S
C544 H520 0.950 1_655 S
C544 C539 1.363 . S
C544 C543 1.415 . S
C545 H521 0.951 . S
C545 C546 1.366 1_645 S
C545 C547 1.388 . S
C546 C545 1.366 1_465 S
C546 C550 1.385 . S
C547 H522 0.951 . S
C547 C545 1.388 . S
C547 C548 1.354 1_645 S
C548 C547 1.354 1_465 S
C548 C549 1.425 . S
C548 C551 1.501 1_565 S
C549 H523 0.950 . S
C549 C548 1.425 . S
C549 C550 1.374 . S
C550 H524 0.950 . S
C550 C546 1.385 . S
C550 C549 1.374 . S
C551 C548 1.501 1_545 S
C551 C552 1.372 1_545 S
C551 C553 1.392 . S
C552 H525 0.949 1_455 S
C552 C538 1.376 1_455 S
C552 C551 1.372 1_565 S
C553 C537 1.377 . S
C553 C551 1.392 . S
C553 C554 1.524 . S
C554 C553 1.524 . S
C554 C555 1.397 . S
C554 C559 1.363 . S
C555 H526 0.950 . S
C555 C554 1.397 . S
C555 C556 1.334 . S
C556 H527 0.950 . S
C556 C555 1.334 . S
C556 C557 1.287 . S
C557 C556 1.287 . S
C557 C558 1.524 . S
C557 H560 0.999 . S
C558 H528 0.950 . S
C558 C557 1.524 . S
C558 C559 1.415 . S
C559 H529 0.950 . S
C559 C554 1.363 . S
C559 C558 1.415 . S
H560 C557 0.999 . S
H561 C542 0.913 . S
H562 C580 0.951 . S
H563 C582 0.951 . S
H564 C584 0.950 . S
H565 C585 0.950 . S
H566 C587 0.950 1_565 S
H567 C590 0.950 . S
H568 C591 0.950 . S
H569 C593 0.950 . S
H570 C594 0.950 . S
H571 C595 0.951 1_565 S
H572 C597 0.951 1_565 S
H573 C599 0.950 . S
H574 C600 0.950 . S
H575 C602 0.950 . S
H576 C605 0.950 . S
H577 C606 0.950 . S
H578 C608 0.950 . S
H579 C609 0.950 . S
C580 H562 0.951 . S
C580 C581 1.366 . S
C580 C582 1.388 . S
C581 C580 1.366 . S
C581 C585 1.385 1_545 S
C582 H563 0.951 . S
C582 C580 1.388 . S
C582 C583 1.366 . S
C583 C582 1.366 . S
C583 C584 1.414 1_545 S
C583 C586 1.499 . S
C584 H564 0.950 . S
C584 C583 1.414 1_565 S
C584 C585 1.374 . S
C585 H565 0.950 . S
C585 C581 1.385 1_565 S
C585 C584 1.374 . S
C586 C583 1.499 . S
C586 C587 1.373 . S
C586 C588 1.389 1_455 S
C587 H566 0.950 1_545 S
C587 C586 1.373 . S
C587 C603 1.377 . S
C588 C586 1.389 1_655 S
C588 C589 1.524 . S
C588 C602 1.377 . S
C589 C588 1.524 . S
C589 C590 1.397 . S
C589 C594 1.363 . S
C590 H567 0.950 . S
C590 C589 1.397 . S
C590 C591 1.334 . S
C591 H568 0.950 . S
C591 C590 1.334 . S
C591 C592 1.287 . S
C592 C591 1.287 . S
C592 C593 1.524 . S
C592 H611 0.913 . S
C593 H569 0.950 . S
C593 C592 1.524 . S
C593 C594 1.415 . S
C594 H570 0.950 . S
C594 C589 1.363 . S
C594 C593 1.415 . S
C595 H571 0.951 1_545 S
C595 C596 1.366 . S
C595 C597 1.388 . S
C596 C595 1.366 . S
C596 C600 1.385 . S
C597 H572 0.951 1_545 S
C597 C595 1.388 . S
C597 C598 1.366 . S
C598 C597 1.366 . S
C598 C599 1.414 . S
C598 C601 1.499 . S
C599 H573 0.950 . S
C599 C598 1.414 . S
C599 C600 1.374 . S
C600 H574 0.950 . S
C600 C596 1.385 . S
C600 C599 1.374 . S
C601 C598 1.499 . S
C601 C602 1.373 1_455 S
C601 C603 1.389 . S
C602 H575 0.950 . S
C602 C588 1.377 . S
C602 C601 1.373 1_655 S
C603 C587 1.377 . S
C603 C601 1.389 . S
C603 C604 1.524 1_545 S
C604 C603 1.524 1_565 S
C604 C605 1.397 1_565 S
C604 C609 1.363 . S
C605 H576 0.950 . S
C605 C604 1.397 1_545 S
C605 C606 1.334 . S
C606 H577 0.950 . S
C606 C605 1.334 . S
C606 C607 1.287 1_545 S
C607 C606 1.287 1_565 S
C607 C608 1.524 . S
C607 H610 0.999 . S
C608 H578 0.950 . S
C608 C607 1.524 . S
C608 C609 1.415 . S
C609 H579 0.950 . S
C609 C604 1.363 . S
C609 C608 1.415 . S
H610 C607 0.999 . S
H611 C592 0.913 . S
H612 C630 0.951 . S
H613 C632 0.951 . S
H614 C634 0.950 . S
H615 C635 0.950 . S
H616 C637 0.950 . S
H617 C640 0.950 . S
H618 C641 0.950 . S
H619 C643 0.950 . S
H620 C644 0.950 . S
H621 C645 0.951 . S
H622 C647 0.951 . S
H623 C649 0.950 . S
H624 C650 0.950 . S
H625 C652 0.950 . S
H626 C655 0.950 . S
H627 C656 0.950 . S
H628 C658 0.950 . S
H629 C659 0.950 . S
C630 H612 0.951 . S
C630 C631 1.366 . S
C630 C632 1.388 . S
C631 C630 1.366 . S
C631 C635 1.385 . S
C632 H613 0.951 . S
C632 C630 1.388 . S
C632 C633 1.366 . S
C633 C632 1.366 . S
C633 C634 1.414 . S
C633 C636 1.499 . S
C634 H614 0.950 . S
C634 C633 1.414 . S
C634 C635 1.374 . S
C635 H615 0.950 . S
C635 C631 1.385 . S
C635 C634 1.374 . S
C636 C633 1.499 . S
C636 C637 1.373 . S
C636 C638 1.389 . S
C637 H616 0.950 . S
C637 C636 1.373 . S
C637 C653 1.377 . S
C638 C636 1.389 . S
C638 C639 1.524 . S
C638 C652 1.377 . S
C639 C638 1.524 . S
C639 C640 1.397 . S
C639 C644 1.363 . S
C640 H617 0.950 . S
C640 C639 1.397 . S
C640 C641 1.334 . S
C641 H618 0.950 . S
C641 C640 1.334 . S
C641 C642 1.287 . S
C642 C641 1.287 . S
C642 C643 1.524 . S
C642 H661 0.913 . S
C643 H619 0.950 . S
C643 C642 1.524 . S
C643 C644 1.415 . S
C644 H620 0.950 . S
C644 C639 1.363 . S
C644 C643 1.415 . S
C645 H621 0.951 . S
C645 C646 1.366 . S
C645 C647 1.388 . S
C646 C645 1.366 . S
C646 C650 1.385 . S
C647 H622 0.951 . S
C647 C645 1.388 . S
C647 C648 1.366 . S
C648 C647 1.366 . S
C648 C649 1.414 . S
C648 C651 1.499 . S
C649 H623 0.950 . S
C649 C648 1.414 . S
C649 C650 1.374 . S
C650 H624 0.950 . S
C650 C646 1.385 . S
C650 C649 1.374 . S
C651 C648 1.499 . S
C651 C652 1.373 . S
C651 C653 1.389 . S
C652 H625 0.950 . S
C652 C638 1.377 . S
C652 C651 1.373 . S
C653 C637 1.377 . S
C653 C651 1.389 . S
C653 C654 1.524 . S
C654 C653 1.524 . S
C654 C655 1.397 . S
C654 C659 1.363 . S
C655 H626 0.950 . S
C655 C654 1.397 . S
C655 C656 1.334 . S
C656 H627 0.950 . S
C656 C655 1.334 . S
C656 C657 1.287 . S
C657 C656 1.287 . S
C657 C658 1.524 . S
C657 H660 0.999 . S
C658 H628 0.950 . S
C658 C657 1.524 . S
C658 C659 1.415 . S
C659 H629 0.950 . S
C659 C654 1.363 . S
C659 C658 1.415 . S
H660 C657 0.999 . S
H661 C642 0.913 . S
H662 C680 0.951 . S
H663 C682 0.951 . S
H664 C684 0.950 . S
H665 C685 0.950 . S
H666 C687 0.950 . S
H667 C690 0.950 . S
H668 C691 0.950 . S
H669 C693 0.950 . S
H670 C694 0.950 . S
H671 C695 0.951 . S
H672 C697 0.951 . S
H673 C699 0.950 . S
H674 C700 0.950 . S
H675 C702 0.950 . S
H676 C705 0.950 . S
H677 C706 0.950 . S
H678 C708 0.950 . S
H679 C709 0.950 . S
C680 H662 0.951 . S
C680 C681 1.366 . S
C680 C682 1.388 . S
C681 C680 1.366 . S
C681 C685 1.385 . S
C682 H663 0.951 . S
C682 C680 1.388 . S
C682 C683 1.366 . S
C683 C682 1.366 . S
C683 C684 1.414 . S
C683 C686 1.499 . S
C684 H664 0.950 . S
C684 C683 1.414 . S
C684 C685 1.374 . S
C685 H665 0.950 . S
C685 C681 1.385 . S
C685 C684 1.374 . S
C686 C683 1.499 . S
C686 C687 1.373 . S
C686 C688 1.389 . S
C687 H666 0.950 . S
C687 C686 1.373 . S
C687 C703 1.377 . S
C688 C686 1.389 . S
C688 C689 1.524 . S
C688 C702 1.377 . S
C689 C688 1.524 . S
C689 C690 1.397 . S
C689 C694 1.363 . S
C690 H667 0.950 . S
C690 C689 1.397 . S
C690 C691 1.334 . S
C691 H668 0.950 . S
C691 C690 1.334 . S
C691 C692 1.287 . S
C692 C691 1.287 . S
C692 C693 1.524 . S
C692 H711 0.913 . S
C693 H669 0.950 . S
C693 C692 1.524 . S
C693 C694 1.415 . S
C694 H670 0.950 . S
C694 C689 1.363 . S
C694 C693 1.415 . S
C695 H671 0.951 . S
C695 C696 1.366 . S
C695 C697 1.388 . S
C696 C695 1.366 . S
C696 C700 1.385 . S
C697 H672 0.951 . S
C697 C695 1.388 . S
C697 C698 1.366 . S
C698 C697 1.366 . S
C698 C699 1.414 . S
C698 C701 1.499 . S
C699 H673 0.950 . S
C699 C698 1.414 . S
C699 C700 1.374 . S
C700 H674 0.950 . S
C700 C696 1.385 . S
C700 C699 1.374 . S
C701 C698 1.499 . S
C701 C702 1.373 . S
C701 C703 1.389 . S
C702 H675 0.950 . S
C702 C688 1.377 . S
C702 C701 1.373 . S
C703 C687 1.377 . S
C703 C701 1.389 . S
C703 C704 1.524 . S
C704 C703 1.524 . S
C704 C705 1.397 . S
C704 C709 1.363 . S
C705 H676 0.950 . S
C705 C704 1.397 . S
C705 C706 1.334 . S
C706 H677 0.950 . S
C706 C705 1.334 . S
C706 C707 1.287 . S
C707 C706 1.287 . S
C707 C708 1.524 . S
C707 H710 0.999 . S
C708 H678 0.950 . S
C708 C707 1.524 . S
C708 C709 1.415 . S
C709 H679 0.950 . S
C709 C704 1.363 . S
C709 C708 1.415 . S
H710 C707 0.999 . S
H711 C692 0.913 . S
C146 C103 1.260 . S
C131 C27 1.377 . S
C181 N6 1.315 . S
C196 C90 1.256 . S
C231 C16 1.476 . S
C246 C107 1.457 . S
C281 N14 1.423 1_556 S
C296 C94 1.433 . S
C331 C57 1.377 . S
C346 C77 1.262 . S
C381 N36 1.315 . S
C396 C64 1.256 . S
C446 C81 1.457 . S
C431 C46 1.476 . S
C496 C68 1.433 . S
C481 N44 1.422 . S
C531 C10 1.472 . S
C546 C69 1.471 . S
C581 C1 1.551 . S
C596 C82 1.552 . S
C646 C95 1.471 . S
C631 C40 1.472 . S
C681 C31 1.550 . S
C696 C108 1.552 . S
