# Generated by pormake.
# Topology pyr, (3,6)-cn, num edge types: 1
# Building blocks:
#     Node 0, Type 0, BuildingBlock: BELTOD_clean_linker_0, # of connection points: 3
#     Node 1, Type 0, BuildingBlock: BELTOD_clean_linker_0, # of connection points: 3
#     Node 2, Type 0, BuildingBlock: BELTOD_clean_linker_0, # of connection points: 3
#     Node 3, Type 0, BuildingBlock: BELTOD_clean_linker_0, # of connection points: 3
#     Node 4, Type 0, BuildingBlock: BELTOD_clean_linker_0, # of connection points: 3
#     Node 5, Type 0, BuildingBlock: BELTOD_clean_linker_0, # of connection points: 3
#     Node 6, Type 0, BuildingBlock: BELTOD_clean_linker_0, # of connection points: 3
#     Node 7, Type 0, BuildingBlock: BELTOD_clean_linker_0, # of connection points: 3
#     Node 8, Type 1, BuildingBlock: BETDIP_clean_sbu_0, # of connection points: 6
#     Node 9, Type 1, BuildingBlock: BETDIP_clean_sbu_0, # of connection points: 6
#     Node 10, Type 1, BuildingBlock: BETDIP_clean_sbu_0, # of connection points: 6
#     Node 11, Type 1, BuildingBlock: BETDIP_clean_sbu_0, # of connection points: 6
#     Edge 12, Type (0, 1), BuildingBlock: UVAHIK_clean_linker_0, # of connection points: 2
#     Edge 13, Type (0, 1), BuildingBlock: UVAHIK_clean_linker_0, # of connection points: 2
#     Edge 14, Type (0, 1), BuildingBlock: UVAHIK_clean_linker_0, # of connection points: 2
#     Edge 15, Type (0, 1), BuildingBlock: UVAHIK_clean_linker_0, # of connection points: 2
#     Edge 16, Type (0, 1), BuildingBlock: UVAHIK_clean_linker_0, # of connection points: 2
#     Edge 17, Type (0, 1), BuildingBlock: UVAHIK_clean_linker_0, # of connection points: 2
#     Edge 18, Type (0, 1), BuildingBlock: UVAHIK_clean_linker_0, # of connection points: 2
#     Edge 19, Type (0, 1), BuildingBlock: UVAHIK_clean_linker_0, # of connection points: 2
#     Edge 20, Type (0, 1), BuildingBlock: UVAHIK_clean_linker_0, # of connection points: 2
#     Edge 21, Type (0, 1), BuildingBlock: UVAHIK_clean_linker_0, # of connection points: 2
#     Edge 22, Type (0, 1), BuildingBlock: UVAHIK_clean_linker_0, # of connection points: 2
#     Edge 23, Type (0, 1), BuildingBlock: UVAHIK_clean_linker_0, # of connection points: 2
#     Edge 24, Type (0, 1), BuildingBlock: UVAHIK_clean_linker_0, # of connection points: 2
#     Edge 25, Type (0, 1), BuildingBlock: UVAHIK_clean_linker_0, # of connection points: 2
#     Edge 26, Type (0, 1), BuildingBlock: UVAHIK_clean_linker_0, # of connection points: 2
#     Edge 27, Type (0, 1), BuildingBlock: UVAHIK_clean_linker_0, # of connection points: 2
#     Edge 28, Type (0, 1), BuildingBlock: UVAHIK_clean_linker_0, # of connection points: 2
#     Edge 29, Type (0, 1), BuildingBlock: UVAHIK_clean_linker_0, # of connection points: 2
#     Edge 30, Type (0, 1), BuildingBlock: UVAHIK_clean_linker_0, # of connection points: 2
#     Edge 31, Type (0, 1), BuildingBlock: UVAHIK_clean_linker_0, # of connection points: 2
#     Edge 32, Type (0, 1), BuildingBlock: UVAHIK_clean_linker_0, # of connection points: 2
#     Edge 33, Type (0, 1), BuildingBlock: UVAHIK_clean_linker_0, # of connection points: 2
#     Edge 34, Type (0, 1), BuildingBlock: UVAHIK_clean_linker_0, # of connection points: 2
#     Edge 35, Type (0, 1), BuildingBlock: UVAHIK_clean_linker_0, # of connection points: 2
# Relax obj value: 0.104
# Max RMSD: 0.181
# Mean RMSD: 0.084
data_MOF--net-pyr--node1-BETDIP_clean_sbu_0--node2-BELTOD_clean_linker_0--edge1-UVAHIK_clean_linker_0
_symmetry_space_group_name_H-M    P1
_symmetry_Int_Tables_number       1
_symmetry_cell_setting            triclinic
loop_
_symmetry_equiv_pos_as_xyz
'x, y, z'
_cell_length_a     50.964162
_cell_length_b     56.378308
_cell_length_c     54.769349
_cell_angle_alpha  88.73735
_cell_angle_beta   92.923283
_cell_angle_gamma 102.94383
loop_
_atom_site_label
_atom_site_type_symbol
_atom_site_fract_x
_atom_site_fract_y
_atom_site_fract_z
_atom_type_partial_charge
P0 P 0.3591 0.3003 0.23442 0.0
H1 H 0.40864 0.30152 0.20936 0.0
H2 H 0.42603 0.26996 0.18971 0.0
H3 H 0.35575 0.21617 0.21038 0.0
H4 H 0.33816 0.2478 0.22896 0.0
H5 H 0.34937 0.34926 0.22992 0.0
H6 H 0.32203 0.36795 0.20068 0.0
H7 H 0.30338 0.3018 0.15862 0.0
H8 H 0.33018 0.28309 0.18824 0.0
H9 H 0.36687 0.27453 0.27974 0.0
H10 H 0.30059 0.29528 0.23909 0.0
O11 O 0.38432 0.32072 0.24767 0.0
H12 H 0.33539 0.25148 0.30862 0.0
H13 H 0.26919 0.27234 0.26779 0.0
C14 C 0.37246 0.27692 0.22108 0.0
C15 C 0.39714 0.28288 0.20976 0.0
C16 C 0.40707 0.26481 0.19863 0.0
C17 C 0.39234 0.24049 0.19855 0.0
C18 C 0.3675 0.23472 0.20986 0.0
C19 C 0.35756 0.25279 0.2208 0.0
C20 C 0.34221 0.31499 0.211 0.0
C21 C 0.33981 0.33898 0.21414 0.0
C22 C 0.32423 0.34965 0.19736 0.0
C23 C 0.31059 0.33639 0.17725 0.0
C24 C 0.31347 0.31244 0.17399 0.0
C25 C 0.32901 0.3018 0.19081 0.0
C26 C 0.33615 0.28668 0.25735 0.0
C27 C 0.34563 0.27445 0.27727 0.0
C28 C 0.32762 0.26115 0.29361 0.0
C29 C 0.29983 0.26003 0.29037 0.0
C30 C 0.29052 0.27305 0.27086 0.0
C31 C 0.30852 0.28616 0.2544 0.0
P32 P 0.23085 0.79585 0.69946 0.0
H33 H 0.28018 0.79318 0.72668 0.0
H34 H 0.29245 0.79257 0.77029 0.0
H35 H 0.20999 0.79083 0.78677 0.0
H36 H 0.19787 0.79149 0.74293 0.0
H37 H 0.24868 0.78633 0.6518 0.0
H38 H 0.25832 0.7501 0.63428 0.0
H39 H 0.22541 0.7077 0.69687 0.0
H40 H 0.21641 0.74444 0.71458 0.0
H41 H 0.21128 0.83705 0.71532 0.0
H42 H 0.18251 0.77549 0.66817 0.0
O43 O 0.25518 0.81799 0.68879 0.0
H44 H 0.1731 0.85411 0.7015 0.0
H45 H 0.14386 0.79222 0.65451 0.0
C46 C 0.23834 0.79305 0.73166 0.0
C47 C 0.26471 0.79248 0.7397 0.0
C48 C 0.27162 0.79187 0.76463 0.0
C49 C 0.2522 0.79176 0.78199 0.0
C50 C 0.22544 0.79121 0.77381 0.0
C51 C 0.21852 0.79167 0.74878 0.0
C52 C 0.23256 0.76813 0.68474 0.0
C53 C 0.24319 0.76917 0.66159 0.0
C54 C 0.24845 0.74833 0.65148 0.0
C55 C 0.24293 0.72599 0.6643 0.0
C56 C 0.23037 0.72471 0.68675 0.0
C57 C 0.22515 0.74565 0.69686 0.0
C58 C 0.19966 0.80503 0.69284 0.0
C59 C 0.19629 0.82688 0.70248 0.0
C60 C 0.17434 0.83655 0.69463 0.0
C61 C 0.15543 0.82457 0.67682 0.0
C62 C 0.15823 0.80202 0.66805 0.0
C63 C 0.18025 0.79236 0.67595 0.0
P64 P 0.65787 0.34172 0.81869 0.0
H65 H 0.71518 0.34293 0.82727 0.0
H66 H 0.75037 0.36662 0.85432 0.0
H67 H 0.69238 0.40258 0.88318 0.0
H68 H 0.65703 0.37888 0.8556 0.0
H69 H 0.64418 0.28924 0.81019 0.0
H70 H 0.62108 0.25454 0.83398 0.0
H71 H 0.60439 0.30336 0.88784 0.0
H72 H 0.62728 0.33824 0.86353 0.0
H73 H 0.67073 0.3927 0.80285 0.0
H74 H 0.60338 0.33117 0.79548 0.0
O75 O 0.67371 0.33025 0.79744 0.0
H76 H 0.64871 0.4156 0.77316 0.0
H77 H 0.58093 0.35411 0.76584 0.0
C78 C 0.68349 0.35932 0.83918 0.0
C79 C 0.70995 0.35599 0.83925 0.0
C80 C 0.73013 0.36961 0.85472 0.0
C81 C 0.72423 0.38663 0.87075 0.0
C82 C 0.69753 0.38956 0.87107 0.0
C83 C 0.67734 0.37607 0.85532 0.0
C84 C 0.63784 0.31643 0.8352 0.0
C85 C 0.63545 0.2926 0.82702 0.0
C86 C 0.62234 0.27267 0.84078 0.0
C87 C 0.61121 0.27606 0.86308 0.0
C88 C 0.61268 0.30004 0.87076 0.0
C89 C 0.62588 0.32004 0.85692 0.0
C90 C 0.63841 0.36041 0.80197 0.0
C91 C 0.65073 0.38439 0.79551 0.0
C92 C 0.63811 0.39749 0.77839 0.0
C93 C 0.613 0.38675 0.76698 0.0
C94 C 0.60035 0.36291 0.77405 0.0
C95 C 0.613 0.34985 0.79128 0.0
P96 P 0.8457 0.70383 0.31089 0.0
H97 H 0.89425 0.74187 0.30207 0.0
H98 H 0.91769 0.77732 0.32601 0.0
H99 H 0.86788 0.75112 0.38665 0.0
H100 H 0.84489 0.71587 0.36299 0.0
H101 H 0.82218 0.66948 0.27315 0.0
H102 H 0.84078 0.64751 0.24291 0.0
H103 H 0.92075 0.67513 0.27485 0.0
H104 H 0.90178 0.69711 0.30538 0.0
H105 H 0.79106 0.70827 0.32012 0.0
H106 H 0.8422 0.65909 0.34084 0.0
O107 O 0.83099 0.7206 0.29141 0.0
H108 H 0.75584 0.6852 0.34513 0.0
H109 H 0.80706 0.63603 0.36671 0.0
C110 C 0.86804 0.72578 0.3307 0.0
C111 C 0.88902 0.7433 0.32081 0.0
C112 C 0.9023 0.76368 0.33449 0.0
C113 C 0.89447 0.76724 0.35819 0.0
C114 C 0.8742 0.74916 0.36836 0.0
C115 C 0.86118 0.72873 0.35481 0.0
C116 C 0.86051 0.68505 0.29154 0.0
C117 C 0.84371 0.67062 0.27389 0.0
C118 C 0.85443 0.65821 0.2564 0.0
C119 C 0.88235 0.65976 0.25611 0.0
C120 C 0.89915 0.67348 0.2745 0.0
C121 C 0.88833 0.68612 0.29198 0.0
C122 C 0.81914 0.68519 0.32823 0.0
C123 C 0.79466 0.69234 0.32993 0.0
C124 C 0.77457 0.67923 0.34455 0.0
C125 C 0.77852 0.65874 0.35816 0.0
C126 C 0.80311 0.65151 0.3563 0.0
C127 C 0.82327 0.66469 0.34155 0.0
P128 P 0.71953 0.81923 0.887 0.0
H129 H 0.69084 0.82302 0.93061 0.0
H130 H 0.64702 0.83165 0.93714 0.0
H131 H 0.62994 0.8319 0.85904 0.0
H132 H 0.674 0.82328 0.85262 0.0
H133 H 0.75278 0.79129 0.86311 0.0
H134 H 0.76043 0.75063 0.87054 0.0
H135 H 0.70029 0.73773 0.92492 0.0
H136 H 0.69204 0.77838 0.91694 0.0
H137 H 0.75676 0.86527 0.87615 0.0
H138 H 0.70989 0.80406 0.83579 0.0
O139 O 0.7394 0.83322 0.90997 0.0
H140 H 0.77633 0.88324 0.83841 0.0
H141 H 0.72949 0.82199 0.79783 0.0
C142 C 0.68594 0.82302 0.89115 0.0
C143 C 0.67758 0.82468 0.91488 0.0
C144 C 0.65237 0.82936 0.91859 0.0
C145 C 0.63502 0.83249 0.89857 0.0
C146 C 0.64299 0.82978 0.87479 0.0
C147 C 0.66822 0.82489 0.87111 0.0
C148 C 0.72123 0.78772 0.88892 0.0
C149 C 0.74037 0.77947 0.8759 0.0
C150 C 0.74482 0.75618 0.8802 0.0
C151 C 0.73077 0.74099 0.89814 0.0
C152 C 0.71123 0.74906 0.91087 0.0
C153 C 0.70646 0.77225 0.90624 0.0
C154 C 0.7322 0.83316 0.85878 0.0
C155 C 0.75063 0.8557 0.85916 0.0
C156 C 0.76187 0.86593 0.83759 0.0
C157 C 0.75463 0.85389 0.81523 0.0
C158 C 0.73535 0.83172 0.81478 0.0
C159 C 0.72423 0.82143 0.83643 0.0
P160 P 0.84974 0.30531 0.32461 0.0
H161 H 0.85012 0.35249 0.34645 0.0
H162 H 0.81656 0.36725 0.36845 0.0
H163 H 0.76325 0.29589 0.36338 0.0
H164 H 0.79743 0.28114 0.34244 0.0
H165 H 0.8977 0.30532 0.3565 0.0
H166 H 0.91426 0.2727 0.37809 0.0
H167 H 0.84387 0.22045 0.3507 0.0
H168 H 0.82715 0.25319 0.33002 0.0
H169 H 0.7995 0.30981 0.29748 0.0
H170 H 0.86545 0.27493 0.28812 0.0
O171 O 0.87579 0.32816 0.31874 0.0
H172 H 0.77528 0.28852 0.26213 0.0
H173 H 0.8418 0.2543 0.25189 0.0
C174 C 0.82615 0.31577 0.34269 0.0
C175 C 0.83133 0.33998 0.35035 0.0
C176 C 0.81199 0.34844 0.36276 0.0
C177 C 0.787 0.33286 0.36753 0.0
C178 C 0.78232 0.30837 0.36038 0.0
C179 C 0.80181 0.2999 0.34826 0.0
C180 C 0.8615 0.28157 0.34129 0.0
C181 C 0.88585 0.28683 0.35524 0.0
C182 C 0.89535 0.26813 0.36746 0.0
C183 C 0.88053 0.24388 0.36597 0.0
C184 C 0.85571 0.2389 0.35248 0.0
C185 C 0.84621 0.2576 0.34044 0.0
C186 C 0.83386 0.29323 0.29599 0.0
C187 C 0.80892 0.29771 0.28773 0.0
C188 C 0.79518 0.28571 0.26722 0.0
C189 C 0.80638 0.26935 0.25434 0.0
C190 C 0.83228 0.26628 0.26174 0.0
C191 C 0.8459 0.27818 0.28235 0.0
P192 P 0.38545 0.68205 0.1909 0.0
H193 H 0.35019 0.70161 0.15602 0.0
H194 H 0.30494 0.6849 0.1388 0.0
H195 H 0.2981 0.62312 0.18806 0.0
H196 H 0.34313 0.64036 0.20572 0.0
H197 H 0.43098 0.71117 0.16563 0.0
H198 H 0.44382 0.75385 0.1546 0.0
H199 H 0.37996 0.76832 0.19708 0.0
H200 H 0.36628 0.72476 0.20702 0.0
H201 H 0.40055 0.63691 0.20525 0.0
H202 H 0.3884 0.70024 0.24186 0.0
O203 O 0.40054 0.66895 0.17031 0.0
H204 H 0.41293 0.61984 0.24412 0.0
H205 H 0.40111 0.68312 0.28135 0.0
C206 C 0.34993 0.67261 0.18263 0.0
C207 C 0.33866 0.68488 0.16372 0.0
C208 C 0.31286 0.67508 0.15359 0.0
C209 C 0.29788 0.65251 0.16185 0.0
C210 C 0.30886 0.64066 0.18142 0.0
C211 C 0.3347 0.65055 0.19159 0.0
C212 C 0.39751 0.71462 0.18704 0.0
C213 C 0.4198 0.72345 0.17281 0.0
C214 C 0.42731 0.74814 0.16663 0.0
C215 C 0.41299 0.76487 0.17483 0.0
C216 C 0.39125 0.75606 0.19001 0.0
C217 C 0.38358 0.73117 0.19601 0.0
C218 C 0.39416 0.67016 0.22048 0.0
C219 C 0.4008 0.64733 0.22167 0.0
C220 C 0.40797 0.63755 0.24401 0.0
C221 C 0.40851 0.65025 0.2659 0.0
C222 C 0.40098 0.67287 0.26483 0.0
C223 C 0.39385 0.68275 0.24227 0.0
P224 P 0.16417 0.33651 0.73222 0.0
H225 H 0.17111 0.28646 0.73037 0.0
H226 H 0.14817 0.25086 0.70741 0.0
H227 H 0.09228 0.29146 0.67527 0.0
H228 H 0.11503 0.32708 0.69938 0.0
H229 H 0.2071 0.38027 0.73918 0.0
H230 H 0.24099 0.40311 0.71227 0.0
H231 H 0.2034 0.35809 0.65177 0.0
H232 H 0.16963 0.33547 0.67859 0.0
H233 H 0.12641 0.31804 0.76991 0.0
H234 H 0.15864 0.38774 0.73664 0.0
O235 O 0.18561 0.32718 0.75227 0.0
H236 H 0.10619 0.33789 0.8009 0.0
H237 H 0.13916 0.40784 0.76795 0.0
C238 C 0.14467 0.30949 0.71689 0.0
C239 C 0.15367 0.28773 0.71873 0.0
C240 C 0.14065 0.26731 0.70522 0.0
C241 C 0.11844 0.26814 0.68909 0.0
C242 C 0.10912 0.28993 0.68761 0.0
C243 C 0.12211 0.31038 0.70138 0.0
C244 C 0.18543 0.35631 0.711 0.0
C245 C 0.20569 0.37573 0.71998 0.0
C246 C 0.22515 0.38876 0.70455 0.0
C247 C 0.22506 0.38237 0.67984 0.0
C248 C 0.20427 0.36334 0.67075 0.0
C249 C 0.1847 0.35048 0.68613 0.0
C250 C 0.14404 0.35127 0.75079 0.0
C251 C 0.12873 0.33761 0.76897 0.0
C252 C 0.11748 0.34907 0.78696 0.0
C253 C 0.12132 0.37461 0.78732 0.0
C254 C 0.13561 0.38817 0.76832 0.0
C255 C 0.14689 0.37664 0.75032 0.0
Tb256 Tb 0.97339 1.01125 0.52534 0.0
Tb257 Tb 0.02985 0.03192 0.51274 0.0
C258 C 0.92868 0.98376 0.53426 0.0
C259 C 0.91625 0.97178 0.55618 0.0
C260 C 0.89363 0.95249 0.55376 0.0
C261 C 0.88087 0.94166 0.57449 0.0
C262 C 0.89048 0.95006 0.59801 0.0
C263 C 0.91355 0.96918 0.60029 0.0
C264 C 0.92639 0.97987 0.57955 0.0
C265 C 0.99669 0.05163 0.54911 0.0
C266 C 0.02143 0.99302 0.55398 0.0
C267 C 0.07449 0.05979 0.50437 0.0
C268 C 0.08715 0.07551 0.48439 0.0
C269 C 0.09938 0.0999 0.48927 0.0
C270 C 0.11318 0.11481 0.4712 0.0
C271 C 0.11518 0.10553 0.44793 0.0
C272 C 0.10238 0.08123 0.44287 0.0
C273 C 0.08839 0.06636 0.4609 0.0
C274 C 0.00681 0.99115 0.4896 0.0
C275 C 0.98185 0.04997 0.48402 0.0
O276 O 0.94911 0.97587 0.52676 0.0
O277 O 0.93314 1.0075 0.53392 0.0
O278 O 0.00755 0.03453 0.54394 0.0
O279 O 0.97128 0.04526 0.5431 0.0
O280 O 0.99556 0.98816 0.547 0.0
O281 O 0.03827 1.01252 0.54575 0.0
O282 O 0.05519 0.06683 0.51505 0.0
O283 O 0.06907 0.03628 0.50093 0.0
O284 O 0.99576 1.00834 0.49423 0.0
O285 O 0.03217 0.99762 0.4959 0.0
O286 O 0.00766 0.05493 0.49113 0.0
O287 O 0.96511 0.03028 0.492 0.0
H288 H 0.8857 0.94595 0.53581 0.0
H289 H 0.86347 0.92671 0.57208 0.0
H290 H 0.92133 0.9763 0.61806 0.0
H291 H 0.94394 0.99474 0.58173 0.0
H292 H 0.09875 0.10729 0.50727 0.0
H293 H 0.12308 0.13338 0.47571 0.0
H294 H 0.10337 0.07369 0.42501 0.0
H295 H 0.07897 0.04765 0.45655 0.0
Tb296 Tb 0.52231 0.03972 0.03547 0.0
Tb297 Tb 0.46055 0.02059 1.02069 0.0
C298 C 0.56885 0.0663 0.037 0.0
C299 C 0.58739 0.08102 0.05519 0.0
C300 C 0.57811 0.09544 0.07192 0.0
C301 C 0.59632 0.11045 0.08802 0.0
C302 C 0.62404 0.11112 0.08781 0.0
C303 C 0.63316 0.09619 0.07148 0.0
C304 C 0.61496 0.08133 0.05524 0.0
C305 C 0.4987 1.00319 0.06424 0.0
C306 C 0.477 0.05842 0.06287 0.0
C307 C 0.41443 0.9955 1.0101 0.0
C308 C 0.40328 0.97187 0.99818 0.0
C309 C 0.40263 0.94956 1.01048 0.0
C310 C 0.39239 0.92751 0.99843 0.0
C311 C 0.38287 0.92747 0.97389 0.0
C312 C 0.38317 0.94975 0.96183 0.0
C313 C 0.39311 0.97166 0.97387 0.0
C314 C 0.48592 0.06161 1.0003 0.0
C315 C 0.50519 0.9969 0.99807 0.0
O316 O 0.5471 0.07412 0.03038 0.0
O317 O 0.56404 0.04259 0.04019 0.0
O318 O 0.48925 1.01337 0.04647 0.0
O319 O 0.52372 1.01472 0.06737 0.0
O320 O 0.50255 0.06239 0.0568 0.0
O321 O 0.45761 0.04096 0.05316 0.0
O322 O 0.42641 0.99522 0.0319 0.0
O323 O 0.42743 1.01274 0.99588 0.0
O324 O 0.49534 0.0431 1.0051 0.0
O325 O 0.46081 0.05704 1.00581 0.0
O326 O 0.4795 0.99495 1.0027 0.0
O327 O 0.52483 1.01477 1.00658 0.0
H328 H 0.55688 0.09537 0.07236 0.0
H329 H 0.58871 0.12153 0.10064 0.0
H330 H 0.65443 0.09648 0.0708 0.0
H331 H 0.62248 0.07035 0.04244 0.0
H332 H 0.41009 0.94908 0.02931 0.0
H333 H 0.39229 0.91055 1.00814 0.0
H334 H 0.37543 0.95024 0.94307 0.0
H335 H 0.39294 0.98853 0.96404 0.0
Tb336 Tb 0.49921 0.54106 0.52614 0.0
Tb337 Tb 0.50709 0.49234 0.5107 0.0
C338 C 0.49016 0.58279 0.5292 0.0
C339 C 0.46959 0.59133 0.54215 0.0
C340 C 0.46283 0.61337 0.53537 0.0
C341 C 0.44178 0.62057 0.54645 0.0
C342 C 0.42717 0.60576 0.56444 0.0
C343 C 0.43427 0.58377 0.57131 0.0
C344 C 0.45526 0.57661 0.56022 0.0
C345 C 0.51612 0.51517 0.56175 0.0
C346 C 0.45441 0.49584 0.53886 0.0
C347 C 0.51457 0.45003 0.50688 0.0
C348 C 0.53201 0.43862 0.49269 0.0
C349 C 0.54214 0.41947 0.50329 0.0
C350 C 0.56095 0.40991 0.49133 0.0
C351 C 0.56991 0.41926 0.46842 0.0
C352 C 0.55916 0.43814 0.4576 0.0
C353 C 0.54051 0.44785 0.46971 0.0
C354 C 0.48965 0.51854 0.47559 0.0
C355 C 0.55241 0.5376 0.49876 0.0
O356 O 0.48069 0.56802 0.51115 0.0
O357 O 0.50837 0.57514 0.54303 0.0
O358 O 0.52318 0.51635 0.53987 0.0
O359 O 0.5015 0.53082 0.56477 0.0
O360 O 0.45981 0.51961 0.53494 0.0
O361 O 0.4712 0.48227 0.53279 0.0
O362 O 0.52741 0.46568 0.52305 0.0
O363 O 0.49525 0.45782 0.49476 0.0
O364 O 0.48262 0.51667 0.49743 0.0
O365 O 0.50562 0.50406 0.47243 0.0
O366 O 0.54658 0.51371 0.5019 0.0
O367 O 0.53586 0.55125 0.50519 0.0
H368 H 0.47358 0.62484 0.52131 0.0
H369 H 0.43698 0.63775 0.54097 0.0
H370 H 0.42319 0.57181 0.58485 0.0
H371 H 0.46001 0.55936 0.56549 0.0
H372 H 0.53608 0.41238 0.52118 0.0
H373 H 0.5691 0.39574 0.50048 0.0
H374 H 0.5653 0.44557 0.43986 0.0
H375 H 0.53313 0.46284 0.46133 0.0
Tb376 Tb 0.00193 0.53587 1.00728 0.0
Tb377 Tb 0.00776 0.49564 0.04197 0.0
C378 C 0.9841 0.56573 0.98016 0.0
C379 C 0.95972 0.57578 0.978 0.0
C380 C 0.93408 0.56075 0.97296 0.0
C381 C 0.91164 0.5709 0.96866 0.0
C382 C 0.91433 0.59624 0.96943 0.0
C383 C 0.93982 0.61111 0.97549 0.0
C384 C 0.96229 0.60098 0.97959 0.0
C385 C 0.05053 0.54097 0.02868 0.0
C386 C 0.98154 0.53581 0.06158 0.0
C387 C 0.02398 0.46506 0.06951 0.0
C388 C 0.04668 0.45302 0.07137 0.0
C389 C 0.06876 0.46019 0.05648 0.0
C390 C 0.09144 0.45022 0.06037 0.0
C391 C 0.09236 0.43314 0.07933 0.0
C392 C 0.06974 0.42542 0.09355 0.0
C393 C 0.0471 0.4353 0.08958 0.0
C394 C 0.95926 0.49119 1.02045 0.0
C395 C 0.0286 0.49596 0.98765 0.0
O396 O 0.98091 0.54265 0.97514 0.0
O397 O 1.0005 0.57223 0.99923 0.0
O398 O 0.02836 0.5327 0.03824 0.0
O399 O 0.04578 0.54856 1.00675 0.0
O400 O 0.97821 0.54213 0.03832 0.0
O401 O 0.99534 0.51919 0.06781 0.0
O402 O 0.03022 0.48853 0.07315 0.0
O403 O 0.00663 0.45903 0.05103 0.0
O404 O 0.98157 0.49895 1.01107 0.0
O405 O 0.96361 0.48384 0.04255 0.0
O406 O 0.03106 0.48888 1.0108 0.0
O407 O 0.01536 0.51299 0.98149 0.0
H408 H 0.93138 0.54121 0.97167 0.0
H409 H 0.89239 0.55892 0.96383 0.0
H410 H 0.94252 0.63066 0.97672 0.0
H411 H 0.98182 0.61292 0.98352 0.0
H412 H 0.06879 0.47399 0.0424 0.0
H413 H 0.10865 0.45661 0.04925 0.0
H414 H 0.06974 0.41204 0.10805 0.0
H415 H 0.03018 0.42959 0.10121 0.0
C416 C 0.28294 0.22056 0.31224 0.0
C417 C 0.28049 0.24439 0.30652 0.0
C418 C 0.26431 0.20544 0.32681 0.0
C419 C 0.19563 0.19805 0.34972 0.0
H420 H 0.22068 0.15453 0.39663 0.0
C421 C 0.13036 0.14518 0.42555 0.0
C422 C 0.13183 0.12079 0.42954 0.0
C423 C 0.14743 0.15997 0.40942 0.0
C424 C 0.21335 0.16641 0.38343 0.0
H425 H 0.25686 0.27123 0.31178 0.0
H426 H 0.2246 0.24502 0.33772 0.0
H427 H 0.25292 0.18134 0.37136 0.0
H428 H 0.15209 0.09269 0.41958 0.0
H429 H 0.18188 0.11852 0.39138 0.0
H430 H 0.15607 0.18331 0.3623 0.0
C431 C 0.24056 0.2378 0.33052 0.0
C432 C 0.23181 0.18176 0.3689 0.0
C433 C 0.2591 0.25286 0.31576 0.0
C434 C 0.15034 0.11136 0.41672 0.0
C435 C 0.16756 0.1262 0.40077 0.0
C436 C 0.17719 0.18281 0.36442 0.0
C437 C 0.24291 0.21387 0.33618 0.0
C438 C 0.22319 0.19773 0.3518 0.0
C439 C 0.16649 0.15072 0.39717 0.0
C440 C 0.18587 0.16679 0.38136 0.0
H441 H 0.29894 0.21339 0.30501 0.0
H442 H 0.26646 0.18698 0.33037 0.0
H443 H 0.18821 0.20982 0.33648 0.0
H444 H 0.11614 0.15287 0.43506 0.0
H445 H 0.14626 0.17884 0.40707 0.0
C446 C 0.25199 0.8118 0.82223 0.0
C447 C 0.26064 0.79463 0.80829 0.0
C448 C 0.26349 0.81785 0.84557 0.0
C449 C 0.28697 0.8253 0.89729 0.0
H450 H 0.36497 0.83803 0.89763 0.0
C451 C 0.35275 0.88568 0.97082 0.0
C452 C 0.3722 0.90445 0.96063 0.0
C453 C 0.34001 0.86555 0.95674 0.0
C454 C 0.3432 0.83442 0.89794 0.0
H455 H 0.28641 0.7688 0.80868 0.0
H456 H 0.30639 0.77922 0.84962 0.0
H457 H 0.33831 0.81447 0.86472 0.0
H458 H 0.39506 0.91611 0.92855 0.0
H459 H 0.37279 0.88137 0.90397 0.0
H460 H 0.29201 0.84688 0.92953 0.0
C461 C 0.29112 0.78839 0.84228 0.0
C462 C 0.32785 0.82064 0.87921 0.0
C463 C 0.27968 0.7824 0.81886 0.0
C464 C 0.37988 0.90203 0.93673 0.0
C465 C 0.36731 0.88195 0.92276 0.0
C466 C 0.30234 0.83918 0.91599 0.0
C467 C 0.28385 0.8068 0.85556 0.0
C468 C 0.29958 0.81675 0.87812 0.0
C469 C 0.34673 0.86378 0.93235 0.0
C470 C 0.33064 0.84474 0.91593 0.0
H471 H 0.2376 0.82174 0.81451 0.0
H472 H 0.25764 0.83235 0.85507 0.0
H473 H 0.26522 0.82225 0.89723 0.0
H474 H 0.34645 0.88714 0.98921 0.0
H475 H 0.32439 0.85174 0.9647 0.0
C476 C 0.60278 0.42502 0.74769 0.0
C477 C 0.6011 0.39979 0.74669 0.0
C478 C 0.59316 0.43745 0.72796 0.0
C479 C 0.57701 0.43249 0.66116 0.0
H480 H 0.53958 0.48389 0.67163 0.0
C481 C 0.52564 0.47712 0.58126 0.0
C482 C 0.52721 0.50223 0.58219 0.0
C483 C 0.53483 0.46475 0.60125 0.0
C484 C 0.5503 0.46981 0.66834 0.0
H485 H 0.58776 0.36794 0.72394 0.0
H486 H 0.57058 0.38947 0.68983 0.0
H487 H 0.55464 0.46208 0.70664 0.0
H488 H 0.53875 0.53405 0.60501 0.0
H489 H 0.55528 0.51271 0.63983 0.0
H490 H 0.57278 0.44025 0.62289 0.0
C491 C 0.5796 0.39972 0.70579 0.0
C492 C 0.55892 0.45725 0.68847 0.0
C493 C 0.58914 0.38729 0.72554 0.0
C494 C 0.53766 0.51471 0.6037 0.0
C495 C 0.54693 0.5024 0.6237 0.0
C496 C 0.56844 0.44507 0.64104 0.0
C497 C 0.58169 0.42501 0.70662 0.0
C498 C 0.57236 0.43839 0.68517 0.0
C499 C 0.5456 0.47721 0.6228 0.0
C500 C 0.55494 0.46391 0.64432 0.0
H501 H 0.61166 0.43524 0.76373 0.0
H502 H 0.59531 0.45694 0.72922 0.0
H503 H 0.5877 0.41839 0.65789 0.0
H504 H 0.51616 0.46679 0.56559 0.0
H505 H 0.53273 0.44526 0.60006 0.0
C506 C 0.88367 0.64873 0.21181 0.0
C507 C 0.89362 0.64768 0.2362 0.0
C508 C 0.89351 0.63705 0.19308 0.0
C509 C 0.9277 0.58712 0.18174 0.0
H510 H 0.94119 0.61888 0.11867 0.0
C511 C 0.97777 0.54454 0.10604 0.0
C512 C 0.97044 0.5481 0.08132 0.0
C513 C 0.9684 0.55665 0.12472 0.0
C514 C 0.93716 0.60948 0.13599 0.0
H515 H 0.92202 0.63343 0.25977 0.0
H516 H 0.93916 0.61292 0.22708 0.0
H517 H 0.92551 0.64003 0.1514 0.0
H518 H 0.94702 0.56719 0.05709 0.0
H519 H 0.93003 0.58776 0.08961 0.0
H520 H 0.93877 0.55639 0.16634 0.0
C521 C 0.92359 0.62278 0.2225 0.0
C522 C 0.92824 0.62174 0.15488 0.0
C523 C 0.91394 0.63473 0.24124 0.0
C524 C 0.95319 0.564 0.07587 0.0
C525 C 0.94359 0.57599 0.09462 0.0
C526 C 0.93638 0.57477 0.1628 0.0
C527 C 0.91349 0.62374 0.19813 0.0
C528 C 0.92342 0.61077 0.17806 0.0
C529 C 0.95114 0.57262 0.1194 0.0
C530 C 0.94135 0.58574 0.13958 0.0
H531 H 0.86826 0.65875 0.20712 0.0
H532 H 0.88505 0.63809 0.17465 0.0
H533 H 0.92381 0.5779 0.19917 0.0
H534 H 0.99122 0.53265 0.11105 0.0
H535 H 0.97522 0.55379 0.14337 0.0
C536 C 0.38465 0.20284 0.17318 0.0
C537 C 0.40253 0.22121 0.18649 0.0
C538 C 0.394 0.18445 0.16216 0.0
C539 C 0.45428 0.17046 0.13801 0.0
H540 H 0.41395 0.10357 0.14254 0.0
C541 C 0.48967 0.09227 0.09312 0.0
C542 C 0.46962 0.07503 0.08052 0.0
C543 C 0.48265 0.10908 0.10847 0.0
C544 C 0.42532 0.12218 0.14094 0.0
H545 H 0.44434 0.23455 0.19868 0.0
H546 H 0.46074 0.20256 0.17897 0.0
H547 H 0.3995 0.13527 0.16444 0.0
H548 H 0.42643 0.06165 0.07463 0.0
H549 H 0.41424 0.09119 0.10098 0.0
H550 H 0.47967 0.15758 0.11399 0.0
C551 C 0.43947 0.20252 0.1771 0.0
C552 C 0.41707 0.14031 0.15351 0.0
C553 C 0.43008 0.22087 0.1883 0.0
C554 C 0.44241 0.0746 0.08411 0.0
C555 C 0.4354 0.09149 0.09935 0.0
C556 C 0.46244 0.15236 0.1253 0.0
C557 C 0.42149 0.18408 0.16402 0.0
C558 C 0.43127 0.16467 0.15193 0.0
C559 C 0.45543 0.10911 0.11149 0.0
C560 C 0.44787 0.12804 0.12638 0.0
H561 H 0.3634 0.20282 0.17098 0.0
H562 H 0.37976 0.17072 0.1518 0.0
H563 H 0.46544 0.18913 0.13627 0.0
H564 H 0.51083 0.09299 0.09096 0.0
H565 H 0.49858 0.12215 0.11787 0.0
C566 C 0.12189 0.85091 0.67995 0.0
C567 C 0.13483 0.83696 0.66565 0.0
C568 C 0.10588 0.86566 0.66888 0.0
C569 C 0.06526 0.88963 0.64006 0.0
H570 H 0.09879 0.92704 0.58514 0.0
C571 C 0.01502 0.95406 0.57831 0.0
C572 C 0.03194 0.97595 0.57065 0.0
C573 C 0.02572 0.93671 0.59169 0.0
C574 C 0.08924 0.91686 0.60055 0.0
H575 H 0.13991 0.82665 0.62853 0.0
H576 H 0.11157 0.8519 0.60934 0.0
H577 H 0.11946 0.89607 0.60442 0.0
H578 H 0.0731 0.99731 0.57221 0.0
H579 H 0.0916 0.96719 0.59562 0.0
H580 H 0.03522 0.91093 0.63627 0.0
C581 C 0.11414 0.85172 0.6291 0.0
C582 C 0.10088 0.89886 0.61139 0.0
C583 C 0.13011 0.837 0.64014 0.0
C584 C 0.05951 0.98058 0.57761 0.0
C585 C 0.07017 0.96325 0.59092 0.0
C586 C 0.05348 0.90764 0.62908 0.0
C587 C 0.10255 0.86679 0.64328 0.0
C588 C 0.08911 0.88508 0.6313 0.0
C589 C 0.05352 0.9409 0.59759 0.0
C590 C 0.06552 0.92158 0.60934 0.0
H591 H 0.12485 0.85103 0.69968 0.0
H592 H 0.09725 0.87709 0.68031 0.0
H593 H 0.05569 0.87924 0.65533 0.0
H594 H 0.99366 0.94995 0.5733 0.0
H595 H 0.01241 0.91961 0.59652 0.0
C596 C 0.74229 0.40363 0.91196 0.0
C597 C 0.74604 0.40112 0.88697 0.0
C598 C 0.76353 0.41595 0.92741 0.0
C599 C 0.82926 0.46024 0.92759 0.0
H600 H 0.84487 0.42799 0.98807 0.0
C601 C 0.93208 0.48727 0.98082 0.0
C602 C 0.93313 0.4848 1.00639 0.0
C603 C 0.90777 0.47947 0.96726 0.0
C604 C 0.84059 0.43756 0.97151 0.0
H605 H 0.77466 0.4104 0.85844 0.0
H606 H 0.81159 0.43196 0.8853 0.0
H607 H 0.80492 0.41028 0.9627 0.0
H608 H 0.90943 0.47312 0.03795 0.0
H609 H 0.86677 0.45996 1.01438 0.0
H610 H 0.86486 0.48753 0.9363 0.0
C611 C 0.7923 0.42436 0.893 0.0
C612 C 0.81766 0.42732 0.95691 0.0
C613 C 0.77121 0.41183 0.87765 0.0
C614 C 0.90922 0.47508 1.01822 0.0
C615 C 0.88483 0.46739 1.00467 0.0
C616 C 0.85206 0.4706 0.94228 0.0
C617 C 0.78884 0.42633 0.91812 0.0
C618 C 0.81196 0.43832 0.93459 0.0
C619 C 0.88382 0.46912 0.97894 0.0
C620 C 0.85832 0.4592 0.96426 0.0
H621 H 0.72317 0.39548 0.9197 0.0
H622 H 0.76018 0.4173 0.94665 0.0
H623 H 0.82521 0.46935 0.91066 0.0
H624 H 0.95023 0.49458 0.97118 0.0
H625 H 0.90801 0.48083 0.94752 0.0
C626 C 0.74197 0.65823 0.3877 0.0
C627 C 0.75714 0.6454 0.3744 0.0
C628 C 0.72129 0.64591 0.40224 0.0
C629 C 0.67545 0.5853 0.41125 0.0
H630 H 0.66201 0.61356 0.472 0.0
C631 C 0.59377 0.5353 0.47633 0.0
C632 C 0.57758 0.54939 0.4865 0.0
C633 C 0.61665 0.54637 0.46366 0.0
C634 C 0.66532 0.60549 0.45498 0.0
H635 H 0.76238 0.60929 0.36641 0.0
H636 H 0.72672 0.58782 0.39221 0.0
H637 H 0.70015 0.63368 0.44842 0.0
H638 H 0.57319 0.58636 0.49145 0.0
H639 H 0.61295 0.60557 0.46945 0.0
H640 H 0.64055 0.5571 0.41789 0.0
C641 C 0.73057 0.60749 0.39106 0.0
C642 C 0.68723 0.61707 0.44139 0.0
C643 C 0.75129 0.61984 0.37646 0.0
C644 C 0.58515 0.57488 0.48396 0.0
C645 C 0.60809 0.58594 0.47141 0.0
C646 C 0.65358 0.57367 0.4249 0.0
C647 C 0.71515 0.62035 0.40408 0.0
C648 C 0.6925 0.6073 0.41918 0.0
C649 C 0.62407 0.57185 0.46092 0.0
C650 C 0.64805 0.58371 0.44686 0.0
H651 H 0.74608 0.67792 0.38695 0.0
H652 H 0.70977 0.65652 0.4117 0.0
H653 H 0.67854 0.57735 0.39411 0.0
H654 H 0.5886 0.51563 0.47784 0.0
H655 H 0.62861 0.53494 0.45608 0.0
C656 C 0.26668 0.33279 0.15323 0.0
C657 C 0.29204 0.34697 0.16076 0.0
C658 C 0.24809 0.34324 0.13975 0.0
C659 C 0.22999 0.40204 0.13091 0.0
H660 H 0.17941 0.36781 0.08126 0.0
C661 C 0.12679 0.42379 0.10988 0.0
C662 C 0.11734 0.42449 0.08539 0.0
C663 C 0.15031 0.41586 0.11595 0.0
C664 C 0.19361 0.37774 0.09486 0.0
H665 H 0.31832 0.38292 0.15883 0.0
H666 H 0.28574 0.40122 0.13537 0.0
H667 H 0.2175 0.35088 0.09621 0.0
H668 H 0.12514 0.41744 0.04801 0.0
H669 H 0.16651 0.40337 0.05869 0.0
H670 H 0.20592 0.42865 0.12991 0.0
C671 C 0.28015 0.38208 0.1402 0.0
C672 C 0.21526 0.36795 0.10357 0.0
C673 C 0.29877 0.37162 0.15367 0.0
C674 C 0.13203 0.41715 0.06703 0.0
C675 C 0.15555 0.40899 0.07314 0.0
C676 C 0.20834 0.41174 0.1223 0.0
C677 C 0.2544 0.36811 0.13353 0.0
C678 C 0.23337 0.37976 0.12204 0.0
C679 C 0.16495 0.40835 0.09768 0.0
C680 C 0.18958 0.39943 0.10459 0.0
H681 H 0.26069 0.31383 0.15866 0.0
H682 H 0.22829 0.33205 0.13522 0.0
H683 H 0.24342 0.4115 0.14529 0.0
H684 H 0.11609 0.42963 0.1244 0.0
H685 H 0.15684 0.41527 0.13504 0.0
C686 C 0.57504 0.25386 0.89057 0.0
C687 C 0.59887 0.25458 0.87841 0.0
C688 C 0.56339 0.23339 0.90453 0.0
C689 C 0.56298 0.16758 0.91312 0.0
H690 H 0.52965 0.17479 0.97376 0.0
C691 C 0.52516 0.08553 0.97772 0.0
C692 C 0.50015 0.08417 0.98798 0.0
C693 C 0.53787 0.1066 0.96518 0.0
C694 C 0.53867 0.17243 0.95676 0.0
H695 H 0.6296 0.23455 0.87226 0.0
H696 H 0.6095 0.19912 0.89656 0.0
H697 H 0.55022 0.21091 0.95035 0.0
H698 H 0.46896 0.1038 0.99336 0.0
H699 H 0.49098 0.14046 0.97144 0.0
H700 H 0.55145 0.12911 0.91952 0.0
C701 C 0.59936 0.21408 0.89487 0.0
C702 C 0.55044 0.19318 0.94328 0.0
C703 C 0.61094 0.23446 0.8809 0.0
C704 C 0.48826 0.10435 0.98569 0.0
C705 C 0.50099 0.12543 0.97324 0.0
C706 C 0.55128 0.14686 0.92662 0.0
C707 C 0.57532 0.21314 0.90677 0.0
C708 C 0.56275 0.19106 0.92124 0.0
C709 C 0.52588 0.12679 0.96266 0.0
C710 C 0.53891 0.14897 0.9486 0.0
H711 H 0.56506 0.26891 0.88889 0.0
H712 H 0.54471 0.23326 0.91315 0.0
H713 H 0.5718 0.16513 0.89604 0.0
H714 H 0.53475 0.07021 0.97912 0.0
H715 H 0.55716 0.10708 0.95752 0.0
C716 C 0.88901 0.80249 0.38348 0.0
C717 C 0.90602 0.79032 0.37172 0.0
C718 C 0.89947 0.82435 0.39583 0.0
C719 C 0.96154 0.87479 0.40252 0.0
H720 H 0.92683 0.8899 0.45975 0.0
C721 C 0.01062 0.95348 0.46803 0.0
C722 C 0.99432 0.96871 0.47574 0.0
C723 C 0.99941 0.93223 0.45499 0.0
C724 C 0.93661 0.88607 0.44367 0.0
H725 H 0.94757 0.79164 0.36403 0.0
H726 H 0.96602 0.82927 0.3862 0.0
H727 H 0.9089 0.85176 0.43843 0.0
H728 H 0.95333 0.97346 0.47585 0.0
H729 H 0.93353 0.93588 0.45346 0.0
H730 H 0.98975 0.90887 0.40838 0.0
C731 C 0.94441 0.82235 0.38538 0.0
C732 C 0.92628 0.86415 0.4313 0.0
C733 C 0.93386 0.80061 0.37272 0.0
C734 C 0.96641 0.96208 0.47022 0.0
C735 C 0.95509 0.94053 0.45746 0.0
C736 C 0.97207 0.89653 0.4151 0.0
C737 C 0.92738 0.83466 0.3971 0.0
C738 C 0.93854 0.85811 0.41047 0.0
C739 C 0.9715 0.92539 0.44957 0.0
C740 C 0.95976 0.90248 0.43584 0.0
H741 H 0.86741 0.79535 0.38272 0.0
H742 H 0.88548 0.83334 0.40401 0.0
H743 H 0.97135 0.87128 0.38634 0.0
H744 H 0.03219 0.95802 0.47203 0.0
H745 H 0.01262 0.92091 0.44947 0.0
C746 C 0.25312 0.70058 0.6304 0.0
C747 C 0.25316 0.70514 0.65554 0.0
C748 C 0.26744 0.68424 0.62192 0.0
C749 C 0.32698 0.66089 0.64077 0.0
H750 H 0.30879 0.62294 0.58166 0.0
C751 C 0.40107 0.61003 0.60111 0.0
C752 C 0.40442 0.61306 0.57583 0.0
C753 C 0.3799 0.61726 0.61188 0.0
C754 C 0.31414 0.63351 0.59817 0.0
H755 H 0.2667 0.69468 0.69158 0.0
H756 H 0.29087 0.66564 0.67685 0.0
H757 H 0.27499 0.64141 0.59906 0.0
H758 H 0.38769 0.62536 0.54192 0.0
H759 H 0.35104 0.63844 0.5608 0.0
H760 H 0.36624 0.65355 0.63962 0.0
C761 C 0.2803 0.67514 0.66364 0.0
C762 C 0.2948 0.64407 0.60814 0.0
C763 C 0.2661 0.69157 0.6721 0.0
C764 C 0.38586 0.6231 0.56149 0.0
C765 C 0.36465 0.63027 0.57226 0.0
C766 C 0.34624 0.65031 0.63086 0.0
C767 C 0.28202 0.67201 0.63843 0.0
C768 C 0.30116 0.65824 0.62933 0.0
C769 C 0.36157 0.62763 0.5976 0.0
C770 C 0.34021 0.63688 0.60921 0.0
H771 H 0.24296 0.71042 0.61718 0.0
H772 H 0.26836 0.68232 0.60238 0.0
H773 H 0.33278 0.67208 0.65683 0.0
H774 H 0.41513 0.60249 0.61266 0.0
H775 H 0.37794 0.61483 0.63142 0.0
C776 C 0.79598 0.87298 0.79309 0.0
C777 C 0.76793 0.86405 0.79265 0.0
C778 C 0.80875 0.88226 0.77187 0.0
C779 C 0.79927 0.88177 0.70441 0.0
H780 H 0.85918 0.93798 0.70856 0.0
C781 C 0.84781 0.933 0.6195 0.0
C782 C 0.87615 0.93937 0.62002 0.0
C783 C 0.8343 0.92355 0.64035 0.0
C784 C 0.84263 0.92214 0.70717 0.0
H785 H 0.73118 0.85808 0.76973 0.0
H786 H 0.75341 0.87469 0.73262 0.0
H787 H 0.83577 0.92251 0.74532 0.0
H788 H 0.91246 0.94025 0.64281 0.0
H789 H 0.8888 0.92413 0.6793 0.0
H790 H 0.80603 0.8817 0.66613 0.0
C791 C 0.76563 0.87409 0.74929 0.0
C792 C 0.82923 0.91324 0.72822 0.0
C793 C 0.75287 0.86463 0.77053 0.0
C794 C 0.89063 0.93594 0.64187 0.0
C795 C 0.8771 0.92666 0.66276 0.0
C796 C 0.81256 0.8908 0.68332 0.0
C797 C 0.79375 0.88299 0.7497 0.0
C798 C 0.80748 0.89284 0.72714 0.0
C799 C 0.84881 0.92045 0.66223 0.0
C800 C 0.83447 0.91099 0.68452 0.0
H801 H 0.80817 0.87237 0.80979 0.0
H802 H 0.83048 0.88849 0.77277 0.0
H803 H 0.78288 0.86581 0.70297 0.0
H804 H 0.836 0.9358 0.60313 0.0
H805 H 0.81246 0.91919 0.6395 0.0
C806 C 0.79098 0.22973 0.23229 0.0
C807 C 0.79037 0.25443 0.23437 0.0
C808 C 0.77432 0.21508 0.21488 0.0
C809 C 0.71019 0.20989 0.18025 0.0
H810 H 0.73529 0.16332 0.14161 0.0
C811 C 0.64148 0.15211 0.10649 0.0
C812 C 0.64348 0.12783 0.10413 0.0
C813 C 0.66003 0.16805 0.1215 0.0
C814 C 0.72787 0.17601 0.15248 0.0
H815 H 0.7725 0.28328 0.21899 0.0
H816 H 0.74308 0.25754 0.18884 0.0
H817 H 0.7671 0.19054 0.1689 0.0
H818 H 0.6662 0.10107 0.11587 0.0
H819 H 0.69832 0.12873 0.14252 0.0
H820 H 0.67089 0.1951 0.16441 0.0
C821 C 0.75634 0.24954 0.20089 0.0
C822 C 0.74613 0.19166 0.16802 0.0
C823 C 0.77315 0.26425 0.21819 0.0
C824 C 0.66436 0.11977 0.11716 0.0
C825 C 0.6828 0.13566 0.13234 0.0
C826 C 0.69189 0.19413 0.16488 0.0
C827 C 0.75653 0.22474 0.19927 0.0
C828 C 0.73746 0.20873 0.18208 0.0
C829 C 0.6809 0.16002 0.13465 0.0
C830 C 0.70048 0.17696 0.15083 0.0
H831 H 0.8036 0.22142 0.24471 0.0
H832 H 0.77467 0.19597 0.21424 0.0
H833 H 0.70284 0.2226 0.19118 0.0
H834 H 0.62583 0.15892 0.09636 0.0
H835 H 0.65822 0.18677 0.12249 0.0
C836 C 0.43904 0.62818 0.29013 0.0
C837 C 0.41719 0.63967 0.28942 0.0
C838 C 0.44611 0.6164 0.31136 0.0
C839 C 0.43827 0.61021 0.37846 0.0
H840 H 0.45782 0.54861 0.36867 0.0
C841 C 0.459 0.54514 0.45863 0.0
C842 C 0.4806 0.53382 0.45592 0.0
C843 C 0.45039 0.55885 0.43931 0.0
C844 C 0.4527 0.56589 0.3718 0.0
H845 H 0.38624 0.64844 0.31101 0.0
H846 H 0.39861 0.62773 0.34826 0.0
H847 H 0.44474 0.57123 0.33362 0.0
H848 H 0.51038 0.52834 0.43106 0.0
H849 H 0.49563 0.55215 0.39765 0.0
H850 H 0.44633 0.60467 0.41682 0.0
C851 C 0.41033 0.62797 0.33228 0.0
C852 C 0.44519 0.57893 0.35162 0.0
C853 C 0.40324 0.63986 0.31093 0.0
C854 C 0.49354 0.53668 0.43367 0.0
C855 C 0.48498 0.55027 0.41444 0.0
C856 C 0.44582 0.5971 0.39876 0.0
C857 C 0.43156 0.61566 0.33261 0.0
C858 C 0.43825 0.60145 0.35457 0.0
C859 C 0.4631 0.56135 0.41683 0.0
C860 C 0.45353 0.57492 0.39563 0.0
H861 H 0.45068 0.62816 0.27413 0.0
H862 H 0.46304 0.60774 0.31105 0.0
H863 H 0.43316 0.62753 0.38145 0.0
H864 H 0.44842 0.54301 0.47547 0.0
H865 H 0.43336 0.56696 0.44175 0.0
C866 C 0.11327 0.37822 0.83221 0.0
C867 C 0.11159 0.38699 0.80801 0.0
C868 C 0.10477 0.38994 0.85171 0.0
C869 C 0.06201 0.4331 0.86596 0.0
H870 H 0.10282 0.43918 0.92809 0.0
C871 C 0.03835 0.4923 0.94343 0.0
C872 C 0.04004 0.48408 0.96781 0.0
C873 C 0.04761 0.48059 0.92439 0.0
C874 C 0.09093 0.43742 0.911 0.0
H875 H 0.09925 0.41516 0.78565 0.0
H876 H 0.08475 0.43572 0.81958 0.0
H877 H 0.11756 0.41874 0.89424 0.0
H878 H 0.05335 0.45705 0.99109 0.0
H879 H 0.06926 0.43644 0.95786 0.0
H880 H 0.03531 0.45162 0.88266 0.0
C881 C 0.09246 0.41957 0.82348 0.0
C882 C 0.09943 0.42566 0.89148 0.0
C883 C 0.10107 0.40789 0.80397 0.0
C884 C 0.05174 0.46398 0.97261 0.0
C885 C 0.06099 0.45219 0.95348 0.0
C886 C 0.05349 0.4448 0.88546 0.0
C887 C 0.09424 0.41083 0.84769 0.0
C888 C 0.08515 0.42336 0.86861 0.0
C889 C 0.05882 0.46017 0.929 0.0
C890 C 0.06785 0.44726 0.9083 0.0
H891 H 0.12159 0.36242 0.83624 0.0
H892 H 0.10624 0.38243 0.86996 0.0
H893 H 0.05013 0.43136 0.84886 0.0
H894 H 0.02966 0.50779 0.9389 0.0
H895 H 0.04605 0.48771 0.90598 0.0
C896 C 0.59418 0.83179 0.92245 0.0
C897 C 0.61018 0.84107 0.90276 0.0
C898 C 0.57455 0.8435 0.92982 0.0
C899 C 0.55997 0.88588 0.95408 0.0
H900 H 0.51615 0.92109 0.91394 0.0
C901 C 0.53953 0.97578 0.98367 0.0
C902 C 0.51249 0.97757 0.98381 0.0
C903 C 0.54642 0.95632 0.97229 0.0
C904 C 0.52804 0.91111 0.92535 0.0
H905 H 0.61652 0.86856 0.87403 0.0
H906 H 0.58234 0.88902 0.88692 0.0
H907 H 0.53472 0.8894 0.89555 0.0
H908 H 0.47155 0.96083 0.97121 0.0
H909 H 0.48393 0.9269 0.95076 0.0
H910 H 0.55439 0.90823 0.98356 0.0
C911 C 0.58481 0.87262 0.89658 0.0
C912 C 0.53871 0.8931 0.91486 0.0
C913 C 0.60444 0.8609 0.8892 0.0
C914 C 0.49258 0.95992 0.97148 0.0
C915 C 0.49959 0.94056 0.95975 0.0
C916 C 0.54961 0.90398 0.96442 0.0
C917 C 0.57057 0.86471 0.91765 0.0
C918 C 0.55528 0.88069 0.92905 0.0
C919 C 0.52651 0.93839 0.96056 0.0
C920 C 0.53417 0.91717 0.95003 0.0
H921 H 0.59781 0.81623 0.93294 0.0
H922 H 0.56352 0.83675 0.94587 0.0
H923 H 0.57294 0.87693 0.96545 0.0
H924 H 0.55539 0.989 0.99297 0.0
H925 H 0.56738 0.95515 0.97287 0.0
C926 C 0.91864 0.22366 0.37784 0.0
C927 C 0.89107 0.22373 0.37795 0.0
C928 C 0.92838 0.20429 0.3883 0.0
C929 C 0.91057 0.15222 0.4315 0.0
H930 H 0.96651 0.12918 0.40002 0.0
C931 C 0.94343 0.06511 0.46394 0.0
C932 C 0.97135 0.06739 0.46782 0.0
C933 C 0.9334 0.08323 0.45128 0.0
C934 C 0.95097 0.13551 0.40905 0.0
H935 H 0.85223 0.2036 0.38968 0.0
H936 H 0.86901 0.16953 0.40715 0.0
H937 H 0.94948 0.16305 0.38184 0.0
H938 H 0.01067 0.08993 0.46043 0.0
H939 H 0.99309 0.12143 0.43815 0.0
H940 H 0.91193 0.12451 0.45858 0.0
C941 C 0.88323 0.1846 0.39929 0.0
C942 C 0.94129 0.15498 0.39873 0.0
C943 C 0.87353 0.20403 0.38897 0.0
C944 C 0.98904 0.08763 0.4578 0.0
C945 C 0.97899 0.10565 0.44495 0.0
C946 C 0.92009 0.13265 0.44169 0.0
C947 C 0.91076 0.18444 0.39903 0.0
C948 C 0.92102 0.16363 0.40988 0.0
C949 C 0.95107 0.10389 0.44206 0.0
C950 C 0.94043 0.12413 0.43062 0.0
H951 H 0.93269 0.23838 0.36927 0.0
H952 H 0.94976 0.20495 0.38807 0.0
H953 H 0.89532 0.15865 0.44085 0.0
H954 H 0.92924 0.04976 0.4714 0.0
H955 H 0.91178 0.08125 0.44902 0.0
C956 C 0.26898 0.64186 0.12333 0.0
C957 C 0.27185 0.64067 0.14899 0.0
C958 C 0.24498 0.63035 0.11099 0.0
C959 C 0.18329 0.58177 0.11756 0.0
H960 H 0.15675 0.61455 0.06177 0.0
C961 C 0.07829 0.54624 0.0682 0.0
C962 C 0.07651 0.54919 0.04267 0.0
C963 C 0.10228 0.55619 0.08157 0.0
C964 C 0.16403 0.60497 0.07711 0.0
H965 H 0.2514 0.6264 0.18174 0.0
H966 H 0.20939 0.6063 0.16016 0.0
H967 H 0.19761 0.63467 0.08453 0.0
H968 H 0.09869 0.56391 1.011 0.0
H969 H 0.14056 0.581 0.03419 0.0
H970 H 0.14954 0.55205 0.11007 0.0
C971 C 0.22593 0.61598 0.14958 0.0
C972 C 0.18749 0.61655 0.09021 0.0
C973 C 0.25001 0.62754 0.16197 0.0
C974 C 0.09941 0.56151 0.03069 0.0
C975 C 0.12335 0.57145 0.04402 0.0
C976 C 0.15975 0.57016 0.10442 0.0
C977 C 0.2231 0.61727 0.12392 0.0
C978 C 0.19756 0.60507 0.11052 0.0
C979 C 0.12497 0.56933 0.06968 0.0
C980 C 0.14992 0.58155 0.08391 0.0
H981 H 0.28554 0.65128 0.11264 0.0
H982 H 0.24378 0.63134 0.09121 0.0
H983 H 0.19061 0.57226 0.13293 0.0
H984 H 0.06092 0.53688 0.07794 0.0
H985 H 0.10272 0.55432 0.1013 0.0
C986 C 0.25756 0.41985 0.66464 0.0
C987 C 0.24738 0.3945 0.66403 0.0
C988 C 0.2791 0.43098 0.65032 0.0
C989 C 0.33713 0.41799 0.61957 0.0
H990 H 0.33634 0.47771 0.58341 0.0
C991 C 0.42105 0.45879 0.55331 0.0
C992 C 0.4295 0.48426 0.5516 0.0
C993 C 0.39828 0.44794 0.56623 0.0
C994 C 0.33716 0.46122 0.59364 0.0
H995 H 0.25218 0.36102 0.64793 0.0
H996 H 0.28964 0.38038 0.62307 0.0
H997 H 0.29811 0.45903 0.60767 0.0
H998 H 0.42042 0.51827 0.56228 0.0
H999 H 0.38136 0.49949 0.58524 0.0
H1000 H 0.37631 0.42032 0.60614 0.0
C1001 C 0.28096 0.39168 0.6346 0.0
C1002 C 0.31512 0.45047 0.60752 0.0
C1003 C 0.25927 0.38061 0.64868 0.0
C1004 C 0.41445 0.49859 0.56301 0.0
C1005 C 0.39185 0.48775 0.57613 0.0
C1006 C 0.35927 0.42885 0.60591 0.0
C1007 C 0.29124 0.417 0.63527 0.0
C1008 C 0.31477 0.42865 0.6206 0.0
C1009 C 0.38344 0.46224 0.57807 0.0
C1010 C 0.35964 0.45062 0.59264 0.0
H1011 H 0.24881 0.43112 0.67615 0.0
H1012 H 0.2866 0.4505 0.65141 0.0
H1013 H 0.33774 0.4014 0.62971 0.0
H1014 H 0.43203 0.44715 0.54467 0.0
H1015 H 0.39227 0.42827 0.56679 0.0
C1016 C 0.74325 0.70205 0.88775 0.0
C1017 C 0.73913 0.71828 0.90547 0.0
C1018 C 0.75593 0.68314 0.89429 0.0
C1019 C 0.78333 0.65199 0.94775 0.0
H1020 H 0.83824 0.64776 0.90264 0.0
C1021 C 0.86484 0.59613 0.96924 0.0
C1022 C 0.89106 0.60724 0.96248 0.0
C1023 C 0.84295 0.60611 0.96166 0.0
C1024 C 0.82309 0.64878 0.9155 0.0
H1025 H 0.74369 0.72682 0.94404 0.0
H1026 H 0.76649 0.6944 0.9554 0.0
H1027 H 0.80444 0.67048 0.89086 0.0
H1028 H 0.9147 0.63748 0.94231 0.0
H1029 H 0.87693 0.65532 0.93002 0.0
H1030 H 0.80328 0.63154 0.97298 0.0
C1031 C 0.75942 0.69572 0.93655 0.0
C1032 C 0.80333 0.66148 0.90857 0.0
C1033 C 0.74639 0.71439 0.93005 0.0
C1034 C 0.89488 0.62862 0.94818 0.0
C1035 C 0.8731 0.63863 0.94075 0.0
C1036 C 0.80331 0.63944 0.95478 0.0
C1037 C 0.7652 0.68038 0.91862 0.0
C1038 C 0.78355 0.66375 0.9248 0.0
C1039 C 0.84683 0.62741 0.94718 0.0
C1040 C 0.82383 0.63826 0.93894 0.0
H1041 H 0.73755 0.70456 0.8687 0.0
H1042 H 0.75943 0.6713 0.8801 0.0
H1043 H 0.76815 0.65303 0.96057 0.0
H1044 H 0.86123 0.57976 0.98043 0.0
H1045 H 0.82296 0.59697 0.96687 0.0
C1046 C 0.40041 0.80452 0.16186 0.0
C1047 C 0.4203 0.79103 0.1667 0.0
C1048 C 0.40722 0.82843 0.1526 0.0
C1049 C 0.46682 0.88006 0.14228 0.0
H1050 H 0.41668 0.90261 0.09684 0.0
C1051 C 0.4943 0.97713 0.10179 0.0
C1052 C 0.48553 0.98103 0.07767 0.0
C1053 C 0.48413 0.95516 0.11397 0.0
C1054 C 0.43113 0.89661 0.10928 0.0
H1055 H 0.46333 0.793 0.16633 0.0
H1056 H 0.47485 0.8336 0.14906 0.0
H1057 H 0.40408 0.8622 0.11503 0.0
H1058 H 0.45937 0.96507 0.04721 0.0
H1059 H 0.4423 0.92629 0.0679 0.0
H1060 H 0.49456 0.9136 0.1354 0.0
C1061 C 0.45397 0.8261 0.15286 0.0
C1062 C 0.42367 0.87343 0.12012 0.0
C1063 C 0.44724 0.80242 0.16244 0.0
C1064 C 0.46603 0.96269 0.06601 0.0
C1065 C 0.45627 0.94041 0.07798 0.0
C1066 C 0.47444 0.90298 0.13113 0.0
C1067 C 0.43409 0.83952 0.14764 0.0
C1068 C 0.44147 0.8647 0.13673 0.0
C1069 C 0.46548 0.93612 0.10209 0.0
C1070 C 0.45678 0.91171 0.11441 0.0
H1071 H 0.3794 0.79646 0.16461 0.0
H1072 H 0.3913 0.83815 0.14931 0.0
H1073 H 0.48102 0.87445 0.15528 0.0
H1074 H 0.50927 0.99105 0.11122 0.0
H1075 H 0.49122 0.95312 0.13269 0.0
C1076 C 0.07768 0.24022 0.66835 0.0
C1077 C 0.10569 0.24647 0.67367 0.0
C1078 C 0.06593 0.21957 0.65443 0.0
C1079 C 0.08288 0.17446 0.61181 0.0
H1080 H 0.01284 0.13599 0.62813 0.0
C1081 C 0.03719 0.07889 0.57023 0.0
C1082 C 0.00963 0.07385 0.5631 0.0
C1083 C 0.04906 0.10005 0.58336 0.0
C1084 C 0.03232 0.14662 0.62316 0.0
H1085 H 0.14323 0.23589 0.66754 0.0
H1086 H 0.12283 0.19975 0.6443 0.0
H1087 H 0.03286 0.17255 0.65127 0.0
H1088 H 0.97295 0.08709 0.56419 0.0
H1089 H 0.99348 0.12374 0.58715 0.0
H1090 H 0.08242 0.1482 0.58392 0.0
C1091 C 0.10982 0.2109 0.65057 0.0
C1092 C 0.04382 0.16773 0.63642 0.0
C1093 C 0.12155 0.23157 0.66433 0.0
C1094 C 0.99422 0.09038 0.56947 0.0
C1095 C 0.00598 0.11136 0.58276 0.0
C1096 C 0.07146 0.15324 0.59868 0.0
C1097 C 0.0818 0.20447 0.64542 0.0
C1098 C 0.0693 0.18204 0.63098 0.0
C1099 C 0.03357 0.11654 0.5899 0.0
C1100 C 0.04599 0.13903 0.60413 0.0
H1101 H 0.06468 0.25105 0.67527 0.0
H1102 H 0.04434 0.21556 0.65062 0.0
H1103 H 0.10227 0.1851 0.60665 0.0
H1104 H 0.04958 0.06645 0.56572 0.0
H1105 H 0.0703 0.10329 0.58873 0.0
C1106 C 0.74795 0.32759 0.39508 0.0
C1107 C 0.76548 0.34225 0.37896 0.0
C1108 C 0.72682 0.33594 0.40466 0.0
C1109 C 0.68595 0.38246 0.39373 0.0
H1110 H 0.66415 0.3648 0.4597 0.0
C1111 C 0.61147 0.42602 0.44394 0.0
C1112 C 0.5912 0.41 0.45648 0.0
C1113 C 0.63227 0.41757 0.43385 0.0
C1114 C 0.6699 0.3697 0.44117 0.0
H1115 H 0.77449 0.37744 0.36054 0.0
H1116 H 0.73859 0.3924 0.37815 0.0
H1117 H 0.70212 0.35104 0.44414 0.0
H1118 H 0.5766 0.37229 0.46746 0.0
H1119 H 0.61332 0.35776 0.45038 0.0
H1120 H 0.65402 0.40163 0.39112 0.0
C1121 C 0.74072 0.37416 0.38292 0.0
C1122 C 0.69161 0.36177 0.4322 0.0
C1123 C 0.76166 0.36571 0.37312 0.0
C1124 C 0.59211 0.38525 0.45837 0.0
C1125 C 0.61309 0.37688 0.44854 0.0
C1126 C 0.66445 0.39063 0.40283 0.0
C1127 C 0.72282 0.35929 0.39861 0.0
C1128 C 0.69989 0.36798 0.40832 0.0
C1129 C 0.63345 0.39299 0.43632 0.0
C1130 C 0.65617 0.38426 0.4266 0.0
H1131 H 0.75046 0.30956 0.40028 0.0
H1132 H 0.71331 0.32385 0.41647 0.0
H1133 H 0.69135 0.38722 0.3751 0.0
H1134 H 0.61175 0.44526 0.44247 0.0
H1135 H 0.64787 0.43042 0.42472 0.0
loop_
_geom_bond_atom_site_label_1
_geom_bond_atom_site_label_2
_geom_bond_distance
_geom_bond_site_symmetry_2
_ccdc_geom_bond_type
P0 O11 1.490 . S
P0 C14 1.812 . S
P0 C20 1.803 . S
P0 C26 1.819 . S
H1 C15 0.941 . S
H2 C16 0.939 . S
H3 C18 0.940 . S
H4 C19 0.940 . S
H5 C21 0.939 . S
H6 C22 0.942 . S
H7 C24 0.940 . S
H8 C25 0.939 . S
H9 C27 0.941 . S
H10 C31 0.939 . S
O11 P0 1.490 . S
H12 C28 0.939 . S
H13 C30 0.940 . S
C14 P0 1.812 . S
C14 C15 1.389 . S
C14 C19 1.391 . S
C15 H1 0.941 . S
C15 C14 1.389 . S
C15 C16 1.397 . S
C16 H2 0.939 . S
C16 C15 1.397 . S
C16 C17 1.378 . S
C17 C16 1.378 . S
C17 C18 1.378 . S
C18 H3 0.940 . S
C18 C17 1.378 . S
C18 C19 1.396 . S
C19 H4 0.940 . S
C19 C14 1.391 . S
C19 C18 1.396 . S
C20 P0 1.803 . S
C20 C21 1.378 . S
C20 C25 1.400 . S
C21 H5 0.939 . S
C21 C20 1.378 . S
C21 C22 1.361 . S
C22 H6 0.942 . S
C22 C21 1.361 . S
C22 C23 1.369 . S
C23 C22 1.369 . S
C23 C24 1.404 . S
C24 H7 0.940 . S
C24 C23 1.404 . S
C24 C25 1.389 . S
C25 H8 0.939 . S
C25 C20 1.400 . S
C25 C24 1.389 . S
C26 P0 1.819 . S
C26 C27 1.391 . S
C26 C31 1.391 . S
C27 H9 0.941 . S
C27 C26 1.391 . S
C27 C28 1.396 . S
C28 H12 0.939 . S
C28 C27 1.396 . S
C28 C29 1.397 . S
C29 C28 1.397 . S
C29 C30 1.385 . S
C30 H13 0.940 . S
C30 C29 1.385 . S
C30 C31 1.388 . S
C31 H10 0.939 . S
C31 C26 1.391 . S
C31 C30 1.388 . S
P32 O43 1.490 . S
P32 C46 1.812 . S
P32 C52 1.803 . S
P32 C58 1.819 . S
H33 C47 0.941 . S
H34 C48 0.939 . S
H35 C50 0.940 . S
H36 C51 0.940 . S
H37 C53 0.939 . S
H38 C54 0.942 . S
H39 C56 0.940 . S
H40 C57 0.939 . S
H41 C59 0.941 . S
H42 C63 0.939 . S
O43 P32 1.490 . S
H44 C60 0.939 . S
H45 C62 0.940 . S
C46 P32 1.812 . S
C46 C47 1.389 . S
C46 C51 1.391 . S
C47 H33 0.941 . S
C47 C46 1.389 . S
C47 C48 1.397 . S
C48 H34 0.939 . S
C48 C47 1.397 . S
C48 C49 1.378 . S
C49 C48 1.378 . S
C49 C50 1.378 . S
C50 H35 0.940 . S
C50 C49 1.378 . S
C50 C51 1.396 . S
C51 H36 0.940 . S
C51 C46 1.391 . S
C51 C50 1.396 . S
C52 P32 1.803 . S
C52 C53 1.378 . S
C52 C57 1.400 . S
C53 H37 0.939 . S
C53 C52 1.378 . S
C53 C54 1.361 . S
C54 H38 0.942 . S
C54 C53 1.361 . S
C54 C55 1.369 . S
C55 C54 1.369 . S
C55 C56 1.404 . S
C56 H39 0.940 . S
C56 C55 1.404 . S
C56 C57 1.389 . S
C57 H40 0.939 . S
C57 C52 1.400 . S
C57 C56 1.389 . S
C58 P32 1.819 . S
C58 C59 1.391 . S
C58 C63 1.391 . S
C59 H41 0.941 . S
C59 C58 1.391 . S
C59 C60 1.396 . S
C60 H44 0.939 . S
C60 C59 1.396 . S
C60 C61 1.397 . S
C61 C60 1.397 . S
C61 C62 1.385 . S
C62 H45 0.940 . S
C62 C61 1.385 . S
C62 C63 1.388 . S
C63 H42 0.939 . S
C63 C58 1.391 . S
C63 C62 1.388 . S
P64 O75 1.490 . S
P64 C78 1.812 . S
P64 C84 1.803 . S
P64 C90 1.819 . S
H65 C79 0.941 . S
H66 C80 0.939 . S
H67 C82 0.940 . S
H68 C83 0.940 . S
H69 C85 0.939 . S
H70 C86 0.942 . S
H71 C88 0.940 . S
H72 C89 0.939 . S
H73 C91 0.941 . S
H74 C95 0.939 . S
O75 P64 1.490 . S
H76 C92 0.939 . S
H77 C94 0.940 . S
C78 P64 1.812 . S
C78 C79 1.389 . S
C78 C83 1.391 . S
C79 H65 0.941 . S
C79 C78 1.389 . S
C79 C80 1.397 . S
C80 H66 0.939 . S
C80 C79 1.397 . S
C80 C81 1.378 . S
C81 C80 1.378 . S
C81 C82 1.378 . S
C82 H67 0.940 . S
C82 C81 1.378 . S
C82 C83 1.396 . S
C83 H68 0.940 . S
C83 C78 1.391 . S
C83 C82 1.396 . S
C84 P64 1.803 . S
C84 C85 1.378 . S
C84 C89 1.400 . S
C85 H69 0.939 . S
C85 C84 1.378 . S
C85 C86 1.361 . S
C86 H70 0.942 . S
C86 C85 1.361 . S
C86 C87 1.369 . S
C87 C86 1.369 . S
C87 C88 1.404 . S
C88 H71 0.940 . S
C88 C87 1.404 . S
C88 C89 1.389 . S
C89 H72 0.939 . S
C89 C84 1.400 . S
C89 C88 1.389 . S
C90 P64 1.819 . S
C90 C91 1.391 . S
C90 C95 1.391 . S
C91 H73 0.941 . S
C91 C90 1.391 . S
C91 C92 1.396 . S
C92 H76 0.939 . S
C92 C91 1.396 . S
C92 C93 1.397 . S
C93 C92 1.397 . S
C93 C94 1.385 . S
C94 H77 0.940 . S
C94 C93 1.385 . S
C94 C95 1.388 . S
C95 H74 0.939 . S
C95 C90 1.391 . S
C95 C94 1.388 . S
P96 O107 1.490 . S
P96 C110 1.812 . S
P96 C116 1.803 . S
P96 C122 1.819 . S
H97 C111 0.941 . S
H98 C112 0.939 . S
H99 C114 0.940 . S
H100 C115 0.940 . S
H101 C117 0.939 . S
H102 C118 0.942 . S
H103 C120 0.940 . S
H104 C121 0.939 . S
H105 C123 0.941 . S
H106 C127 0.939 . S
O107 P96 1.490 . S
H108 C124 0.939 . S
H109 C126 0.940 . S
C110 P96 1.812 . S
C110 C111 1.389 . S
C110 C115 1.391 . S
C111 H97 0.941 . S
C111 C110 1.389 . S
C111 C112 1.397 . S
C112 H98 0.939 . S
C112 C111 1.397 . S
C112 C113 1.378 . S
C113 C112 1.378 . S
C113 C114 1.378 . S
C114 H99 0.940 . S
C114 C113 1.378 . S
C114 C115 1.396 . S
C115 H100 0.940 . S
C115 C110 1.391 . S
C115 C114 1.396 . S
C116 P96 1.803 . S
C116 C117 1.378 . S
C116 C121 1.400 . S
C117 H101 0.939 . S
C117 C116 1.378 . S
C117 C118 1.361 . S
C118 H102 0.942 . S
C118 C117 1.361 . S
C118 C119 1.369 . S
C119 C118 1.369 . S
C119 C120 1.404 . S
C120 H103 0.940 . S
C120 C119 1.404 . S
C120 C121 1.389 . S
C121 H104 0.939 . S
C121 C116 1.400 . S
C121 C120 1.389 . S
C122 P96 1.819 . S
C122 C123 1.391 . S
C122 C127 1.391 . S
C123 H105 0.941 . S
C123 C122 1.391 . S
C123 C124 1.396 . S
C124 H108 0.939 . S
C124 C123 1.396 . S
C124 C125 1.397 . S
C125 C124 1.397 . S
C125 C126 1.385 . S
C126 H109 0.940 . S
C126 C125 1.385 . S
C126 C127 1.388 . S
C127 H106 0.939 . S
C127 C122 1.391 . S
C127 C126 1.388 . S
P128 O139 1.490 . S
P128 C142 1.812 . S
P128 C148 1.803 . S
P128 C154 1.819 . S
H129 C143 0.941 . S
H130 C144 0.939 . S
H131 C146 0.940 . S
H132 C147 0.940 . S
H133 C149 0.939 . S
H134 C150 0.942 . S
H135 C152 0.940 . S
H136 C153 0.939 . S
H137 C155 0.941 . S
H138 C159 0.939 . S
O139 P128 1.490 . S
H140 C156 0.939 . S
H141 C158 0.940 . S
C142 P128 1.812 . S
C142 C143 1.389 . S
C142 C147 1.391 . S
C143 H129 0.941 . S
C143 C142 1.389 . S
C143 C144 1.397 . S
C144 H130 0.939 . S
C144 C143 1.397 . S
C144 C145 1.378 . S
C145 C144 1.378 . S
C145 C146 1.378 . S
C146 H131 0.940 . S
C146 C145 1.378 . S
C146 C147 1.396 . S
C147 H132 0.940 . S
C147 C142 1.391 . S
C147 C146 1.396 . S
C148 P128 1.803 . S
C148 C149 1.378 . S
C148 C153 1.400 . S
C149 H133 0.939 . S
C149 C148 1.378 . S
C149 C150 1.361 . S
C150 H134 0.942 . S
C150 C149 1.361 . S
C150 C151 1.369 . S
C151 C150 1.369 . S
C151 C152 1.404 . S
C152 H135 0.940 . S
C152 C151 1.404 . S
C152 C153 1.389 . S
C153 H136 0.939 . S
C153 C148 1.400 . S
C153 C152 1.389 . S
C154 P128 1.819 . S
C154 C155 1.391 . S
C154 C159 1.391 . S
C155 H137 0.941 . S
C155 C154 1.391 . S
C155 C156 1.396 . S
C156 H140 0.939 . S
C156 C155 1.396 . S
C156 C157 1.397 . S
C157 C156 1.397 . S
C157 C158 1.385 . S
C158 H141 0.940 . S
C158 C157 1.385 . S
C158 C159 1.388 . S
C159 H138 0.939 . S
C159 C154 1.391 . S
C159 C158 1.388 . S
P160 O171 1.490 . S
P160 C174 1.812 . S
P160 C180 1.803 . S
P160 C186 1.819 . S
H161 C175 0.941 . S
H162 C176 0.939 . S
H163 C178 0.940 . S
H164 C179 0.940 . S
H165 C181 0.939 . S
H166 C182 0.942 . S
H167 C184 0.940 . S
H168 C185 0.939 . S
H169 C187 0.941 . S
H170 C191 0.939 . S
O171 P160 1.490 . S
H172 C188 0.939 . S
H173 C190 0.940 . S
C174 P160 1.812 . S
C174 C175 1.389 . S
C174 C179 1.391 . S
C175 H161 0.941 . S
C175 C174 1.389 . S
C175 C176 1.397 . S
C176 H162 0.939 . S
C176 C175 1.397 . S
C176 C177 1.378 . S
C177 C176 1.378 . S
C177 C178 1.378 . S
C178 H163 0.940 . S
C178 C177 1.378 . S
C178 C179 1.396 . S
C179 H164 0.940 . S
C179 C174 1.391 . S
C179 C178 1.396 . S
C180 P160 1.803 . S
C180 C181 1.378 . S
C180 C185 1.400 . S
C181 H165 0.939 . S
C181 C180 1.378 . S
C181 C182 1.361 . S
C182 H166 0.942 . S
C182 C181 1.361 . S
C182 C183 1.369 . S
C183 C182 1.369 . S
C183 C184 1.404 . S
C184 H167 0.940 . S
C184 C183 1.404 . S
C184 C185 1.389 . S
C185 H168 0.939 . S
C185 C180 1.400 . S
C185 C184 1.389 . S
C186 P160 1.819 . S
C186 C187 1.391 . S
C186 C191 1.391 . S
C187 H169 0.941 . S
C187 C186 1.391 . S
C187 C188 1.396 . S
C188 H172 0.939 . S
C188 C187 1.396 . S
C188 C189 1.397 . S
C189 C188 1.397 . S
C189 C190 1.385 . S
C190 H173 0.940 . S
C190 C189 1.385 . S
C190 C191 1.388 . S
C191 H170 0.939 . S
C191 C186 1.391 . S
C191 C190 1.388 . S
P192 O203 1.490 . S
P192 C206 1.812 . S
P192 C212 1.803 . S
P192 C218 1.819 . S
H193 C207 0.941 . S
H194 C208 0.939 . S
H195 C210 0.940 . S
H196 C211 0.940 . S
H197 C213 0.939 . S
H198 C214 0.942 . S
H199 C216 0.940 . S
H200 C217 0.939 . S
H201 C219 0.941 . S
H202 C223 0.939 . S
O203 P192 1.490 . S
H204 C220 0.939 . S
H205 C222 0.940 . S
C206 P192 1.812 . S
C206 C207 1.389 . S
C206 C211 1.391 . S
C207 H193 0.941 . S
C207 C206 1.389 . S
C207 C208 1.397 . S
C208 H194 0.939 . S
C208 C207 1.397 . S
C208 C209 1.378 . S
C209 C208 1.378 . S
C209 C210 1.378 . S
C210 H195 0.940 . S
C210 C209 1.378 . S
C210 C211 1.396 . S
C211 H196 0.940 . S
C211 C206 1.391 . S
C211 C210 1.396 . S
C212 P192 1.803 . S
C212 C213 1.378 . S
C212 C217 1.400 . S
C213 H197 0.939 . S
C213 C212 1.378 . S
C213 C214 1.361 . S
C214 H198 0.942 . S
C214 C213 1.361 . S
C214 C215 1.369 . S
C215 C214 1.369 . S
C215 C216 1.404 . S
C216 H199 0.940 . S
C216 C215 1.404 . S
C216 C217 1.389 . S
C217 H200 0.939 . S
C217 C212 1.400 . S
C217 C216 1.389 . S
C218 P192 1.819 . S
C218 C219 1.391 . S
C218 C223 1.391 . S
C219 H201 0.941 . S
C219 C218 1.391 . S
C219 C220 1.396 . S
C220 H204 0.939 . S
C220 C219 1.396 . S
C220 C221 1.397 . S
C221 C220 1.397 . S
C221 C222 1.385 . S
C222 H205 0.940 . S
C222 C221 1.385 . S
C222 C223 1.388 . S
C223 H202 0.939 . S
C223 C218 1.391 . S
C223 C222 1.388 . S
P224 O235 1.490 . S
P224 C238 1.812 . S
P224 C244 1.803 . S
P224 C250 1.819 . S
H225 C239 0.941 . S
H226 C240 0.939 . S
H227 C242 0.940 . S
H228 C243 0.940 . S
H229 C245 0.939 . S
H230 C246 0.942 . S
H231 C248 0.940 . S
H232 C249 0.939 . S
H233 C251 0.941 . S
H234 C255 0.939 . S
O235 P224 1.490 . S
H236 C252 0.939 . S
H237 C254 0.940 . S
C238 P224 1.812 . S
C238 C239 1.389 . S
C238 C243 1.391 . S
C239 H225 0.941 . S
C239 C238 1.389 . S
C239 C240 1.397 . S
C240 H226 0.939 . S
C240 C239 1.397 . S
C240 C241 1.378 . S
C241 C240 1.378 . S
C241 C242 1.378 . S
C242 H227 0.940 . S
C242 C241 1.378 . S
C242 C243 1.396 . S
C243 H228 0.940 . S
C243 C238 1.391 . S
C243 C242 1.396 . S
C244 P224 1.803 . S
C244 C245 1.378 . S
C244 C249 1.400 . S
C245 H229 0.939 . S
C245 C244 1.378 . S
C245 C246 1.361 . S
C246 H230 0.942 . S
C246 C245 1.361 . S
C246 C247 1.369 . S
C247 C246 1.369 . S
C247 C248 1.404 . S
C248 H231 0.940 . S
C248 C247 1.404 . S
C248 C249 1.389 . S
C249 H232 0.939 . S
C249 C244 1.400 . S
C249 C248 1.389 . S
C250 P224 1.819 . S
C250 C251 1.391 . S
C250 C255 1.391 . S
C251 H233 0.941 . S
C251 C250 1.391 . S
C251 C252 1.396 . S
C252 H236 0.939 . S
C252 C251 1.396 . S
C252 C253 1.397 . S
C253 C252 1.397 . S
C253 C254 1.385 . S
C254 H237 0.940 . S
C254 C253 1.385 . S
C254 C255 1.388 . S
C255 H234 0.939 . S
C255 C250 1.391 . S
C255 C254 1.388 . S
Tb256 C258 2.809 1_545 S
Tb256 O276 2.484 1_545 S
Tb256 O277 2.440 1_545 S
Tb256 O278 2.658 1_655 S
Tb256 O279 2.409 1_655 S
Tb256 O280 2.378 1_645 S
Tb256 O284 2.325 1_545 S
Tb256 O287 2.341 . S
Tb257 C267 2.809 . S
Tb257 O278 2.325 . S
Tb257 O281 2.341 1_545 S
Tb257 O282 2.484 . S
Tb257 O283 2.440 . S
Tb257 O284 2.658 1_445 S
Tb257 O285 2.409 1_545 S
Tb257 O286 2.381 1_455 S
C258 Tb256 2.809 1_565 S
C258 C259 1.514 . S
C258 O276 1.248 . S
C258 O277 1.266 . S
C259 C258 1.514 . S
C259 C260 1.359 . S
C259 C264 1.348 . S
C260 C259 1.359 . S
C260 C261 1.380 . S
C260 H288 0.929 . S
C261 C260 1.380 . S
C261 C262 1.347 . S
C261 H289 0.931 . S
C262 C261 1.347 . S
C262 C263 1.369 . S
C263 C262 1.369 . S
C263 C264 1.408 . S
C263 H290 0.930 . S
C264 C259 1.348 . S
C264 C263 1.408 . S
C264 H291 0.930 . S
C265 O278 1.281 . S
C265 O279 1.254 . S
C266 O280 1.236 . S
C266 O281 1.266 . S
C267 Tb257 2.809 . S
C267 C268 1.514 . S
C267 O282 1.248 . S
C267 O283 1.266 . S
C268 C267 1.514 . S
C268 C269 1.359 . S
C268 C273 1.348 . S
C269 C268 1.359 . S
C269 C270 1.380 . S
C269 H292 0.929 . S
C270 C269 1.380 . S
C270 C271 1.347 . S
C270 H293 0.931 . S
C271 C270 1.347 . S
C271 C272 1.369 . S
C272 C271 1.369 . S
C272 C273 1.408 . S
C272 H294 0.930 . S
C273 C268 1.348 . S
C273 C272 1.408 . S
C273 H295 0.930 . S
C274 O284 1.281 . S
C274 O285 1.254 1_655 S
C275 O286 1.234 . S
C275 O287 1.266 . S
O276 Tb256 2.484 1_565 S
O276 C258 1.248 . S
O277 Tb256 2.440 1_565 S
O277 C258 1.266 . S
O278 Tb256 2.658 1_455 S
O278 Tb257 2.325 . S
O278 C265 1.281 . S
O279 Tb256 2.409 1_455 S
O279 C265 1.254 . S
O280 Tb256 2.378 1_465 S
O280 C266 1.236 . S
O281 Tb257 2.341 1_565 S
O281 C266 1.266 . S
O282 Tb257 2.484 . S
O282 C267 1.248 . S
O283 Tb257 2.440 . S
O283 C267 1.266 . S
O284 Tb256 2.325 1_565 S
O284 Tb257 2.658 1_665 S
O284 C274 1.281 . S
O285 Tb257 2.409 1_565 S
O285 C274 1.254 1_455 S
O286 Tb257 2.381 1_655 S
O286 C275 1.234 . S
O287 Tb256 2.341 . S
O287 C275 1.266 . S
H288 C260 0.929 . S
H289 C261 0.931 . S
H290 C263 0.930 . S
H291 C264 0.930 . S
H292 C269 0.929 . S
H293 C270 0.931 . S
H294 C272 0.930 . S
H295 C273 0.930 . S
Tb296 C298 2.809 . S
Tb296 O316 2.484 . S
Tb296 O317 2.440 . S
Tb296 O318 2.658 1_545 S
Tb296 O319 2.409 1_545 S
Tb296 O320 2.378 . S
Tb296 O324 2.325 1_554 S
Tb296 O327 2.341 1_544 S
Tb297 C307 2.809 1_545 S
Tb297 O318 2.325 1_546 S
Tb297 O321 2.341 1_556 S
Tb297 O322 2.484 1_545 S
Tb297 O323 2.440 1_545 S
Tb297 O324 2.658 . S
Tb297 O325 2.409 . S
Tb297 O326 2.378 1_545 S
C298 Tb296 2.809 . S
C298 C299 1.514 . S
C298 O316 1.248 . S
C298 O317 1.266 . S
C299 C298 1.514 . S
C299 C300 1.359 . S
C299 C304 1.348 . S
C300 C299 1.359 . S
C300 C301 1.380 . S
C300 H328 0.929 . S
C301 C300 1.380 . S
C301 C302 1.347 . S
C301 H329 0.931 . S
C302 C301 1.347 . S
C302 C303 1.369 . S
C303 C302 1.369 . S
C303 C304 1.408 . S
C303 H330 0.930 . S
C304 C299 1.348 . S
C304 C303 1.408 . S
C304 H331 0.930 . S
C305 O318 1.281 . S
C305 O319 1.254 . S
C306 O320 1.236 . S
C306 O321 1.266 . S
C307 Tb297 2.809 1_565 S
C307 C308 1.514 . S
C307 O322 1.248 . S
C307 O323 1.266 . S
C308 C307 1.514 . S
C308 C309 1.359 . S
C308 C313 1.348 . S
C309 C308 1.359 . S
C309 C310 1.380 . S
C309 H332 0.929 . S
C310 C309 1.380 . S
C310 C311 1.347 . S
C310 H333 0.931 . S
C311 C310 1.347 . S
C311 C312 1.369 . S
C312 C311 1.369 . S
C312 C313 1.408 . S
C312 H334 0.930 . S
C313 C308 1.348 . S
C313 C312 1.408 . S
C313 H335 0.930 . S
C314 O324 1.281 . S
C314 O325 1.254 . S
C315 O326 1.236 . S
C315 O327 1.266 . S
O316 Tb296 2.484 . S
O316 C298 1.248 . S
O317 Tb296 2.440 . S
O317 C298 1.266 . S
O318 Tb296 2.658 1_565 S
O318 Tb297 2.325 1_564 S
O318 C305 1.281 . S
O319 Tb296 2.409 1_565 S
O319 C305 1.254 . S
O320 Tb296 2.378 . S
O320 C306 1.236 . S
O321 Tb297 2.341 1_554 S
O321 C306 1.266 . S
O322 Tb297 2.484 1_565 S
O322 C307 1.248 . S
O323 Tb297 2.440 1_565 S
O323 C307 1.266 . S
O324 Tb296 2.325 1_556 S
O324 Tb297 2.658 . S
O324 C314 1.281 . S
O325 Tb297 2.409 . S
O325 C314 1.254 . S
O326 Tb297 2.378 1_565 S
O326 C315 1.236 . S
O327 Tb296 2.341 1_566 S
O327 C315 1.266 . S
H328 C300 0.929 . S
H329 C301 0.931 . S
H330 C303 0.930 . S
H331 C304 0.930 . S
H332 C309 0.929 . S
H333 C310 0.931 . S
H334 C312 0.930 . S
H335 C313 0.930 . S
Tb336 C338 2.809 . S
Tb336 O356 2.484 . S
Tb336 O357 2.440 . S
Tb336 O358 2.658 . S
Tb336 O359 2.409 . S
Tb336 O360 2.378 . S
Tb336 O364 2.325 . S
Tb336 O367 2.341 . S
Tb337 C347 2.809 . S
Tb337 O358 2.325 . S
Tb337 O361 2.341 . S
Tb337 O362 2.484 . S
Tb337 O363 2.440 . S
Tb337 O364 2.658 . S
Tb337 O365 2.409 . S
Tb337 O366 2.378 . S
C338 Tb336 2.809 . S
C338 C339 1.514 . S
C338 O356 1.248 . S
C338 O357 1.266 . S
C339 C338 1.514 . S
C339 C340 1.359 . S
C339 C344 1.348 . S
C340 C339 1.359 . S
C340 C341 1.380 . S
C340 H368 0.929 . S
C341 C340 1.380 . S
C341 C342 1.347 . S
C341 H369 0.931 . S
C342 C341 1.347 . S
C342 C343 1.369 . S
C343 C342 1.369 . S
C343 C344 1.408 . S
C343 H370 0.930 . S
C344 C339 1.348 . S
C344 C343 1.408 . S
C344 H371 0.930 . S
C345 O358 1.281 . S
C345 O359 1.254 . S
C346 O360 1.236 . S
C346 O361 1.266 . S
C347 Tb337 2.809 . S
C347 C348 1.514 . S
C347 O362 1.248 . S
C347 O363 1.266 . S
C348 C347 1.514 . S
C348 C349 1.359 . S
C348 C353 1.348 . S
C349 C348 1.359 . S
C349 C350 1.380 . S
C349 H372 0.929 . S
C350 C349 1.380 . S
C350 C351 1.347 . S
C350 H373 0.931 . S
C351 C350 1.347 . S
C351 C352 1.369 . S
C352 C351 1.369 . S
C352 C353 1.408 . S
C352 H374 0.930 . S
C353 C348 1.348 . S
C353 C352 1.408 . S
C353 H375 0.930 . S
C354 O364 1.281 . S
C354 O365 1.254 . S
C355 O366 1.236 . S
C355 O367 1.266 . S
O356 Tb336 2.484 . S
O356 C338 1.248 . S
O357 Tb336 2.440 . S
O357 C338 1.266 . S
O358 Tb336 2.658 . S
O358 Tb337 2.325 . S
O358 C345 1.281 . S
O359 Tb336 2.409 . S
O359 C345 1.254 . S
O360 Tb336 2.378 . S
O360 C346 1.236 . S
O361 Tb337 2.341 . S
O361 C346 1.266 . S
O362 Tb337 2.484 . S
O362 C347 1.248 . S
O363 Tb337 2.440 . S
O363 C347 1.266 . S
O364 Tb336 2.325 . S
O364 Tb337 2.658 . S
O364 C354 1.281 . S
O365 Tb337 2.409 . S
O365 C354 1.254 . S
O366 Tb337 2.378 . S
O366 C355 1.236 . S
O367 Tb336 2.341 . S
O367 C355 1.266 . S
H368 C340 0.929 . S
H369 C341 0.931 . S
H370 C343 0.930 . S
H371 C344 0.930 . S
H372 C349 0.929 . S
H373 C350 0.931 . S
H374 C352 0.930 . S
H375 C353 0.930 . S
Tb376 C378 2.809 1_455 S
Tb376 O396 2.484 1_455 S
Tb376 O397 2.440 1_455 S
Tb376 O398 2.658 1_556 S
Tb376 O399 2.409 1_556 S
Tb376 O400 2.378 1_456 S
Tb376 O404 2.325 1_455 S
Tb376 O407 2.341 . S
Tb377 C387 2.809 . S
Tb377 O398 2.325 . S
Tb377 O401 2.341 1_455 S
Tb377 O402 2.484 . S
Tb377 O403 2.440 . S
Tb377 O404 2.658 1_454 S
Tb377 O405 2.409 1_455 S
Tb377 O406 2.378 1_554 S
C378 Tb376 2.809 1_655 S
C378 C379 1.514 . S
C378 O396 1.248 . S
C378 O397 1.266 . S
C379 C378 1.514 . S
C379 C380 1.359 . S
C379 C384 1.348 . S
C380 C379 1.359 . S
C380 C381 1.380 . S
C380 H408 0.929 . S
C381 C380 1.380 . S
C381 C382 1.347 . S
C381 H409 0.931 . S
C382 C381 1.347 . S
C382 C383 1.369 . S
C383 C382 1.369 . S
C383 C384 1.408 . S
C383 H410 0.930 . S
C384 C379 1.348 . S
C384 C383 1.408 . S
C384 H411 0.930 . S
C385 O398 1.281 . S
C385 O399 1.254 . S
C386 O400 1.236 . S
C386 O401 1.266 . S
C387 Tb377 2.809 . S
C387 C388 1.514 . S
C387 O402 1.248 . S
C387 O403 1.266 . S
C388 C387 1.514 . S
C388 C389 1.359 . S
C388 C393 1.348 . S
C389 C388 1.359 . S
C389 C390 1.380 . S
C389 H412 0.929 . S
C390 C389 1.380 . S
C390 C391 1.347 . S
C390 H413 0.931 . S
C391 C390 1.347 . S
C391 C392 1.369 . S
C392 C391 1.369 . S
C392 C393 1.408 . S
C392 H414 0.930 . S
C393 C388 1.348 . S
C393 C392 1.408 . S
C393 H415 0.930 . S
C394 O404 1.281 . S
C394 O405 1.254 1_556 S
C395 O406 1.236 . S
C395 O407 1.266 . S
O396 Tb376 2.484 1_655 S
O396 C378 1.248 . S
O397 Tb376 2.440 1_655 S
O397 C378 1.266 . S
O398 Tb376 2.658 1_554 S
O398 Tb377 2.325 . S
O398 C385 1.281 . S
O399 Tb376 2.409 1_554 S
O399 C385 1.254 . S
O400 Tb376 2.378 1_654 S
O400 C386 1.236 . S
O401 Tb377 2.341 1_655 S
O401 C386 1.266 . S
O402 Tb377 2.484 . S
O402 C387 1.248 . S
O403 Tb377 2.440 . S
O403 C387 1.266 . S
O404 Tb376 2.325 1_655 S
O404 Tb377 2.658 1_656 S
O404 C394 1.281 . S
O405 Tb377 2.409 1_655 S
O405 C394 1.254 1_554 S
O406 Tb377 2.378 1_556 S
O406 C395 1.236 . S
O407 Tb376 2.341 . S
O407 C395 1.266 . S
H408 C380 0.929 . S
H409 C381 0.931 . S
H410 C383 0.930 . S
H411 C384 0.930 . S
H412 C389 0.929 . S
H413 C390 0.931 . S
H414 C392 0.930 . S
H415 C393 0.930 . S
C416 C417 1.349 . S
C416 C418 1.327 . S
C416 H441 0.950 . S
C417 C416 1.349 . S
C417 C433 1.349 . S
C418 C416 1.327 . S
C418 C437 1.429 . S
C418 H442 0.950 . S
C419 C436 1.574 . S
C419 C438 1.368 . S
C419 H443 0.949 . S
H420 C424 0.949 . S
C421 C422 1.349 . S
C421 C423 1.327 . S
C421 H444 0.950 . S
C422 C421 1.349 . S
C422 C434 1.349 . S
C423 C421 1.327 . S
C423 C439 1.429 . S
C423 H445 0.950 . S
C424 H420 0.949 . S
C424 C432 1.574 . S
C424 C440 1.368 . S
H425 C433 0.950 . S
H426 C431 0.950 . S
H427 C432 0.949 . S
H428 C434 0.950 . S
H429 C435 0.950 . S
H430 C436 0.949 . S
C431 H426 0.950 . S
C431 C433 1.327 . S
C431 C437 1.429 . S
C432 C424 1.574 . S
C432 H427 0.949 . S
C432 C438 1.368 . S
C433 C417 1.349 . S
C433 H425 0.950 . S
C433 C431 1.327 . S
C434 C422 1.349 . S
C434 H428 0.950 . S
C434 C435 1.327 . S
C435 H429 0.950 . S
C435 C434 1.327 . S
C435 C439 1.429 . S
C436 C419 1.574 . S
C436 H430 0.949 . S
C436 C440 1.368 . S
C437 C418 1.429 . S
C437 C431 1.429 . S
C437 C438 1.523 . S
C438 C419 1.368 . S
C438 C432 1.368 . S
C438 C437 1.523 . S
C439 C423 1.429 . S
C439 C435 1.429 . S
C439 C440 1.523 . S
C440 C424 1.368 . S
C440 C436 1.368 . S
C440 C439 1.523 . S
H441 C416 0.950 . S
H442 C418 0.950 . S
H443 C419 0.949 . S
H444 C421 0.950 . S
H445 C423 0.950 . S
C446 C447 1.349 . S
C446 C448 1.327 . S
C446 H471 0.950 . S
C447 C446 1.349 . S
C447 C463 1.349 . S
C448 C446 1.327 . S
C448 C467 1.429 . S
C448 H472 0.950 . S
C449 C466 1.574 . S
C449 C468 1.368 . S
C449 H473 0.949 . S
H450 C454 0.949 . S
C451 C452 1.349 . S
C451 C453 1.327 . S
C451 H474 0.950 . S
C452 C451 1.349 . S
C452 C464 1.349 . S
C453 C451 1.327 . S
C453 C469 1.429 . S
C453 H475 0.950 . S
C454 H450 0.949 . S
C454 C462 1.574 . S
C454 C470 1.368 . S
H455 C463 0.950 . S
H456 C461 0.950 . S
H457 C462 0.949 . S
H458 C464 0.950 . S
H459 C465 0.950 . S
H460 C466 0.949 . S
C461 H456 0.950 . S
C461 C463 1.327 . S
C461 C467 1.429 . S
C462 C454 1.574 . S
C462 H457 0.949 . S
C462 C468 1.368 . S
C463 C447 1.349 . S
C463 H455 0.950 . S
C463 C461 1.327 . S
C464 C452 1.349 . S
C464 H458 0.950 . S
C464 C465 1.327 . S
C465 H459 0.950 . S
C465 C464 1.327 . S
C465 C469 1.429 . S
C466 C449 1.574 . S
C466 H460 0.949 . S
C466 C470 1.368 . S
C467 C448 1.429 . S
C467 C461 1.429 . S
C467 C468 1.523 . S
C468 C449 1.368 . S
C468 C462 1.368 . S
C468 C467 1.523 . S
C469 C453 1.429 . S
C469 C465 1.429 . S
C469 C470 1.523 . S
C470 C454 1.368 . S
C470 C466 1.368 . S
C470 C469 1.523 . S
H471 C446 0.950 . S
H472 C448 0.950 . S
H473 C449 0.949 . S
H474 C451 0.950 . S
H475 C453 0.950 . S
C476 C477 1.349 . S
C476 C478 1.327 . S
C476 H501 0.950 . S
C477 C476 1.349 . S
C477 C493 1.349 . S
C478 C476 1.327 . S
C478 C497 1.429 . S
C478 H502 0.950 . S
C479 C496 1.574 . S
C479 C498 1.368 . S
C479 H503 0.949 . S
H480 C484 0.949 . S
C481 C482 1.349 . S
C481 C483 1.327 . S
C481 H504 0.950 . S
C482 C481 1.349 . S
C482 C494 1.349 . S
C483 C481 1.327 . S
C483 C499 1.429 . S
C483 H505 0.950 . S
C484 H480 0.949 . S
C484 C492 1.574 . S
C484 C500 1.368 . S
H485 C493 0.950 . S
H486 C491 0.950 . S
H487 C492 0.949 . S
H488 C494 0.950 . S
H489 C495 0.950 . S
H490 C496 0.949 . S
C491 H486 0.950 . S
C491 C493 1.327 . S
C491 C497 1.429 . S
C492 C484 1.574 . S
C492 H487 0.949 . S
C492 C498 1.368 . S
C493 C477 1.349 . S
C493 H485 0.950 . S
C493 C491 1.327 . S
C494 C482 1.349 . S
C494 H488 0.950 . S
C494 C495 1.327 . S
C495 H489 0.950 . S
C495 C494 1.327 . S
C495 C499 1.429 . S
C496 C479 1.574 . S
C496 H490 0.949 . S
C496 C500 1.368 . S
C497 C478 1.429 . S
C497 C491 1.429 . S
C497 C498 1.523 . S
C498 C479 1.368 . S
C498 C492 1.368 . S
C498 C497 1.523 . S
C499 C483 1.429 . S
C499 C495 1.429 . S
C499 C500 1.523 . S
C500 C484 1.368 . S
C500 C496 1.368 . S
C500 C499 1.523 . S
H501 C476 0.950 . S
H502 C478 0.950 . S
H503 C479 0.949 . S
H504 C481 0.950 . S
H505 C483 0.950 . S
C506 C507 1.349 . S
C506 C508 1.327 . S
C506 H531 0.950 . S
C507 C506 1.349 . S
C507 C523 1.349 . S
C508 C506 1.327 . S
C508 C527 1.429 . S
C508 H532 0.950 . S
C509 C526 1.574 . S
C509 C528 1.368 . S
C509 H533 0.949 . S
H510 C514 0.949 . S
C511 C512 1.349 . S
C511 C513 1.327 . S
C511 H534 0.950 . S
C512 C511 1.349 . S
C512 C524 1.349 . S
C513 C511 1.327 . S
C513 C529 1.429 . S
C513 H535 0.950 . S
C514 H510 0.949 . S
C514 C522 1.574 . S
C514 C530 1.368 . S
H515 C523 0.950 . S
H516 C521 0.950 . S
H517 C522 0.949 . S
H518 C524 0.950 . S
H519 C525 0.950 . S
H520 C526 0.949 . S
C521 H516 0.950 . S
C521 C523 1.327 . S
C521 C527 1.429 . S
C522 C514 1.574 . S
C522 H517 0.949 . S
C522 C528 1.368 . S
C523 C507 1.349 . S
C523 H515 0.950 . S
C523 C521 1.327 . S
C524 C512 1.349 . S
C524 H518 0.950 . S
C524 C525 1.327 . S
C525 H519 0.950 . S
C525 C524 1.327 . S
C525 C529 1.429 . S
C526 C509 1.574 . S
C526 H520 0.949 . S
C526 C530 1.368 . S
C527 C508 1.429 . S
C527 C521 1.429 . S
C527 C528 1.523 . S
C528 C509 1.368 . S
C528 C522 1.368 . S
C528 C527 1.523 . S
C529 C513 1.429 . S
C529 C525 1.429 . S
C529 C530 1.523 . S
C530 C514 1.368 . S
C530 C526 1.368 . S
C530 C529 1.523 . S
H531 C506 0.950 . S
H532 C508 0.950 . S
H533 C509 0.949 . S
H534 C511 0.950 . S
H535 C513 0.950 . S
C536 C537 1.349 . S
C536 C538 1.327 . S
C536 H561 0.950 . S
C537 C536 1.349 . S
C537 C553 1.349 . S
C538 C536 1.327 . S
C538 C557 1.429 . S
C538 H562 0.950 . S
C539 C556 1.574 . S
C539 C558 1.368 . S
C539 H563 0.949 . S
H540 C544 0.949 . S
C541 C542 1.349 . S
C541 C543 1.327 . S
C541 H564 0.950 . S
C542 C541 1.349 . S
C542 C554 1.349 . S
C543 C541 1.327 . S
C543 C559 1.429 . S
C543 H565 0.950 . S
C544 H540 0.949 . S
C544 C552 1.574 . S
C544 C560 1.368 . S
H545 C553 0.950 . S
H546 C551 0.950 . S
H547 C552 0.949 . S
H548 C554 0.950 . S
H549 C555 0.950 . S
H550 C556 0.949 . S
C551 H546 0.950 . S
C551 C553 1.327 . S
C551 C557 1.429 . S
C552 C544 1.574 . S
C552 H547 0.949 . S
C552 C558 1.368 . S
C553 C537 1.349 . S
C553 H545 0.950 . S
C553 C551 1.327 . S
C554 C542 1.349 . S
C554 H548 0.950 . S
C554 C555 1.327 . S
C555 H549 0.950 . S
C555 C554 1.327 . S
C555 C559 1.429 . S
C556 C539 1.574 . S
C556 H550 0.949 . S
C556 C560 1.368 . S
C557 C538 1.429 . S
C557 C551 1.429 . S
C557 C558 1.523 . S
C558 C539 1.368 . S
C558 C552 1.368 . S
C558 C557 1.523 . S
C559 C543 1.429 . S
C559 C555 1.429 . S
C559 C560 1.523 . S
C560 C544 1.368 . S
C560 C556 1.368 . S
C560 C559 1.523 . S
H561 C536 0.950 . S
H562 C538 0.950 . S
H563 C539 0.949 . S
H564 C541 0.950 . S
H565 C543 0.950 . S
C566 C567 1.349 . S
C566 C568 1.327 . S
C566 H591 0.950 . S
C567 C566 1.349 . S
C567 C583 1.349 . S
C568 C566 1.327 . S
C568 C587 1.429 . S
C568 H592 0.950 . S
C569 C586 1.574 . S
C569 C588 1.368 . S
C569 H593 0.949 . S
H570 C574 0.949 . S
C571 C572 1.349 . S
C571 C573 1.327 . S
C571 H594 0.950 . S
C572 C571 1.349 . S
C572 C584 1.349 . S
C573 C571 1.327 . S
C573 C589 1.429 . S
C573 H595 0.950 . S
C574 H570 0.949 . S
C574 C582 1.574 . S
C574 C590 1.368 . S
H575 C583 0.950 . S
H576 C581 0.950 . S
H577 C582 0.949 . S
H578 C584 0.950 . S
H579 C585 0.950 . S
H580 C586 0.949 . S
C581 H576 0.950 . S
C581 C583 1.327 . S
C581 C587 1.429 . S
C582 C574 1.574 . S
C582 H577 0.949 . S
C582 C588 1.368 . S
C583 C567 1.349 . S
C583 H575 0.950 . S
C583 C581 1.327 . S
C584 C572 1.349 . S
C584 H578 0.950 . S
C584 C585 1.327 . S
C585 H579 0.950 . S
C585 C584 1.327 . S
C585 C589 1.429 . S
C586 C569 1.574 . S
C586 H580 0.949 . S
C586 C590 1.368 . S
C587 C568 1.429 . S
C587 C581 1.429 . S
C587 C588 1.523 . S
C588 C569 1.368 . S
C588 C582 1.368 . S
C588 C587 1.523 . S
C589 C573 1.429 . S
C589 C585 1.429 . S
C589 C590 1.523 . S
C590 C574 1.368 . S
C590 C586 1.368 . S
C590 C589 1.523 . S
H591 C566 0.950 . S
H592 C568 0.950 . S
H593 C569 0.949 . S
H594 C571 0.950 . S
H595 C573 0.950 . S
C596 C597 1.349 . S
C596 C598 1.327 . S
C596 H621 0.950 . S
C597 C596 1.349 . S
C597 C613 1.349 . S
C598 C596 1.327 . S
C598 C617 1.429 . S
C598 H622 0.950 . S
C599 C616 1.574 . S
C599 C618 1.368 . S
C599 H623 0.949 . S
H600 C604 0.949 . S
C601 C602 1.349 . S
C601 C603 1.327 . S
C601 H624 0.950 . S
C602 C601 1.349 . S
C602 C614 1.349 . S
C603 C601 1.327 . S
C603 C619 1.429 . S
C603 H625 0.950 . S
C604 H600 0.949 . S
C604 C612 1.574 . S
C604 C620 1.368 . S
H605 C613 0.950 . S
H606 C611 0.950 . S
H607 C612 0.949 . S
H608 C614 0.950 . S
H609 C615 0.950 . S
H610 C616 0.949 . S
C611 H606 0.950 . S
C611 C613 1.327 . S
C611 C617 1.429 . S
C612 C604 1.574 . S
C612 H607 0.949 . S
C612 C618 1.368 . S
C613 C597 1.349 . S
C613 H605 0.950 . S
C613 C611 1.327 . S
C614 C602 1.349 . S
C614 H608 0.950 . S
C614 C615 1.327 . S
C615 H609 0.950 . S
C615 C614 1.327 . S
C615 C619 1.429 . S
C616 C599 1.574 . S
C616 H610 0.949 . S
C616 C620 1.368 . S
C617 C598 1.429 . S
C617 C611 1.429 . S
C617 C618 1.523 . S
C618 C599 1.368 . S
C618 C612 1.368 . S
C618 C617 1.523 . S
C619 C603 1.429 . S
C619 C615 1.429 . S
C619 C620 1.523 . S
C620 C604 1.368 . S
C620 C616 1.368 . S
C620 C619 1.523 . S
H621 C596 0.950 . S
H622 C598 0.950 . S
H623 C599 0.949 . S
H624 C601 0.950 . S
H625 C603 0.950 . S
C626 C627 1.349 . S
C626 C628 1.327 . S
C626 H651 0.950 . S
C627 C626 1.349 . S
C627 C643 1.349 . S
C628 C626 1.327 . S
C628 C647 1.429 . S
C628 H652 0.950 . S
C629 C646 1.574 . S
C629 C648 1.368 . S
C629 H653 0.949 . S
H630 C634 0.949 . S
C631 C632 1.349 . S
C631 C633 1.327 . S
C631 H654 0.950 . S
C632 C631 1.349 . S
C632 C644 1.349 . S
C633 C631 1.327 . S
C633 C649 1.429 . S
C633 H655 0.950 . S
C634 H630 0.949 . S
C634 C642 1.574 . S
C634 C650 1.368 . S
H635 C643 0.950 . S
H636 C641 0.950 . S
H637 C642 0.949 . S
H638 C644 0.950 . S
H639 C645 0.950 . S
H640 C646 0.949 . S
C641 H636 0.950 . S
C641 C643 1.327 . S
C641 C647 1.429 . S
C642 C634 1.574 . S
C642 H637 0.949 . S
C642 C648 1.368 . S
C643 C627 1.349 . S
C643 H635 0.950 . S
C643 C641 1.327 . S
C644 C632 1.349 . S
C644 H638 0.950 . S
C644 C645 1.327 . S
C645 H639 0.950 . S
C645 C644 1.327 . S
C645 C649 1.429 . S
C646 C629 1.574 . S
C646 H640 0.949 . S
C646 C650 1.368 . S
C647 C628 1.429 . S
C647 C641 1.429 . S
C647 C648 1.523 . S
C648 C629 1.368 . S
C648 C642 1.368 . S
C648 C647 1.523 . S
C649 C633 1.429 . S
C649 C645 1.429 . S
C649 C650 1.523 . S
C650 C634 1.368 . S
C650 C646 1.368 . S
C650 C649 1.523 . S
H651 C626 0.950 . S
H652 C628 0.950 . S
H653 C629 0.949 . S
H654 C631 0.950 . S
H655 C633 0.950 . S
C656 C657 1.349 . S
C656 C658 1.327 . S
C656 H681 0.950 . S
C657 C656 1.349 . S
C657 C673 1.349 . S
C658 C656 1.327 . S
C658 C677 1.429 . S
C658 H682 0.950 . S
C659 C676 1.574 . S
C659 C678 1.368 . S
C659 H683 0.949 . S
H660 C664 0.949 . S
C661 C662 1.349 . S
C661 C663 1.327 . S
C661 H684 0.950 . S
C662 C661 1.349 . S
C662 C674 1.349 . S
C663 C661 1.327 . S
C663 C679 1.429 . S
C663 H685 0.950 . S
C664 H660 0.949 . S
C664 C672 1.574 . S
C664 C680 1.368 . S
H665 C673 0.950 . S
H666 C671 0.950 . S
H667 C672 0.949 . S
H668 C674 0.950 . S
H669 C675 0.950 . S
H670 C676 0.949 . S
C671 H666 0.950 . S
C671 C673 1.327 . S
C671 C677 1.429 . S
C672 C664 1.574 . S
C672 H667 0.949 . S
C672 C678 1.368 . S
C673 C657 1.349 . S
C673 H665 0.950 . S
C673 C671 1.327 . S
C674 C662 1.349 . S
C674 H668 0.950 . S
C674 C675 1.327 . S
C675 H669 0.950 . S
C675 C674 1.327 . S
C675 C679 1.429 . S
C676 C659 1.574 . S
C676 H670 0.949 . S
C676 C680 1.368 . S
C677 C658 1.429 . S
C677 C671 1.429 . S
C677 C678 1.523 . S
C678 C659 1.368 . S
C678 C672 1.368 . S
C678 C677 1.523 . S
C679 C663 1.429 . S
C679 C675 1.429 . S
C679 C680 1.523 . S
C680 C664 1.368 . S
C680 C676 1.368 . S
C680 C679 1.523 . S
H681 C656 0.950 . S
H682 C658 0.950 . S
H683 C659 0.949 . S
H684 C661 0.950 . S
H685 C663 0.950 . S
C686 C687 1.349 . S
C686 C688 1.327 . S
C686 H711 0.950 . S
C687 C686 1.349 . S
C687 C703 1.349 . S
C688 C686 1.327 . S
C688 C707 1.429 . S
C688 H712 0.950 . S
C689 C706 1.574 . S
C689 C708 1.368 . S
C689 H713 0.949 . S
H690 C694 0.949 . S
C691 C692 1.349 . S
C691 C693 1.327 . S
C691 H714 0.950 . S
C692 C691 1.349 . S
C692 C704 1.349 . S
C693 C691 1.327 . S
C693 C709 1.429 . S
C693 H715 0.950 . S
C694 H690 0.949 . S
C694 C702 1.574 . S
C694 C710 1.368 . S
H695 C703 0.950 . S
H696 C701 0.950 . S
H697 C702 0.949 . S
H698 C704 0.950 . S
H699 C705 0.950 . S
H700 C706 0.949 . S
C701 H696 0.950 . S
C701 C703 1.327 . S
C701 C707 1.429 . S
C702 C694 1.574 . S
C702 H697 0.949 . S
C702 C708 1.368 . S
C703 C687 1.349 . S
C703 H695 0.950 . S
C703 C701 1.327 . S
C704 C692 1.349 . S
C704 H698 0.950 . S
C704 C705 1.327 . S
C705 H699 0.950 . S
C705 C704 1.327 . S
C705 C709 1.429 . S
C706 C689 1.574 . S
C706 H700 0.949 . S
C706 C710 1.368 . S
C707 C688 1.429 . S
C707 C701 1.429 . S
C707 C708 1.523 . S
C708 C689 1.368 . S
C708 C702 1.368 . S
C708 C707 1.523 . S
C709 C693 1.429 . S
C709 C705 1.429 . S
C709 C710 1.523 . S
C710 C694 1.368 . S
C710 C706 1.368 . S
C710 C709 1.523 . S
H711 C686 0.950 . S
H712 C688 0.950 . S
H713 C689 0.949 . S
H714 C691 0.950 . S
H715 C693 0.950 . S
C716 C717 1.349 . S
C716 C718 1.327 . S
C716 H741 0.950 . S
C717 C716 1.349 . S
C717 C733 1.349 . S
C718 C716 1.327 . S
C718 C737 1.429 . S
C718 H742 0.950 . S
C719 C736 1.574 . S
C719 C738 1.368 . S
C719 H743 0.949 . S
H720 C724 0.949 . S
C721 C722 1.349 . S
C721 C723 1.327 . S
C721 H744 0.950 . S
C722 C721 1.349 . S
C722 C734 1.349 . S
C723 C721 1.327 . S
C723 C739 1.429 . S
C723 H745 0.950 . S
C724 H720 0.949 . S
C724 C732 1.574 . S
C724 C740 1.368 . S
H725 C733 0.950 . S
H726 C731 0.950 . S
H727 C732 0.949 . S
H728 C734 0.950 . S
H729 C735 0.950 . S
H730 C736 0.949 . S
C731 H726 0.950 . S
C731 C733 1.327 . S
C731 C737 1.429 . S
C732 C724 1.574 . S
C732 H727 0.949 . S
C732 C738 1.368 . S
C733 C717 1.349 . S
C733 H725 0.950 . S
C733 C731 1.327 . S
C734 C722 1.349 . S
C734 H728 0.950 . S
C734 C735 1.327 . S
C735 H729 0.950 . S
C735 C734 1.327 . S
C735 C739 1.429 . S
C736 C719 1.574 . S
C736 H730 0.949 . S
C736 C740 1.368 . S
C737 C718 1.429 . S
C737 C731 1.429 . S
C737 C738 1.523 . S
C738 C719 1.368 . S
C738 C732 1.368 . S
C738 C737 1.523 . S
C739 C723 1.429 . S
C739 C735 1.429 . S
C739 C740 1.523 . S
C740 C724 1.368 . S
C740 C736 1.368 . S
C740 C739 1.523 . S
H741 C716 0.950 . S
H742 C718 0.950 . S
H743 C719 0.949 . S
H744 C721 0.950 . S
H745 C723 0.950 . S
C746 C747 1.349 . S
C746 C748 1.327 . S
C746 H771 0.950 . S
C747 C746 1.349 . S
C747 C763 1.349 . S
C748 C746 1.327 . S
C748 C767 1.429 . S
C748 H772 0.950 . S
C749 C766 1.574 . S
C749 C768 1.368 . S
C749 H773 0.949 . S
H750 C754 0.949 . S
C751 C752 1.349 . S
C751 C753 1.327 . S
C751 H774 0.950 . S
C752 C751 1.349 . S
C752 C764 1.349 . S
C753 C751 1.327 . S
C753 C769 1.429 . S
C753 H775 0.950 . S
C754 H750 0.949 . S
C754 C762 1.574 . S
C754 C770 1.368 . S
H755 C763 0.950 . S
H756 C761 0.950 . S
H757 C762 0.949 . S
H758 C764 0.950 . S
H759 C765 0.950 . S
H760 C766 0.949 . S
C761 H756 0.950 . S
C761 C763 1.327 . S
C761 C767 1.429 . S
C762 C754 1.574 . S
C762 H757 0.949 . S
C762 C768 1.368 . S
C763 C747 1.349 . S
C763 H755 0.950 . S
C763 C761 1.327 . S
C764 C752 1.349 . S
C764 H758 0.950 . S
C764 C765 1.327 . S
C765 H759 0.950 . S
C765 C764 1.327 . S
C765 C769 1.429 . S
C766 C749 1.574 . S
C766 H760 0.949 . S
C766 C770 1.368 . S
C767 C748 1.429 . S
C767 C761 1.429 . S
C767 C768 1.523 . S
C768 C749 1.368 . S
C768 C762 1.368 . S
C768 C767 1.523 . S
C769 C753 1.429 . S
C769 C765 1.429 . S
C769 C770 1.523 . S
C770 C754 1.368 . S
C770 C766 1.368 . S
C770 C769 1.523 . S
H771 C746 0.950 . S
H772 C748 0.950 . S
H773 C749 0.949 . S
H774 C751 0.950 . S
H775 C753 0.950 . S
C776 C777 1.349 . S
C776 C778 1.327 . S
C776 H801 0.950 . S
C777 C776 1.349 . S
C777 C793 1.349 . S
C778 C776 1.327 . S
C778 C797 1.429 . S
C778 H802 0.950 . S
C779 C796 1.574 . S
C779 C798 1.368 . S
C779 H803 0.949 . S
H780 C784 0.949 . S
C781 C782 1.349 . S
C781 C783 1.327 . S
C781 H804 0.950 . S
C782 C781 1.349 . S
C782 C794 1.349 . S
C783 C781 1.327 . S
C783 C799 1.429 . S
C783 H805 0.950 . S
C784 H780 0.949 . S
C784 C792 1.574 . S
C784 C800 1.368 . S
H785 C793 0.950 . S
H786 C791 0.950 . S
H787 C792 0.949 . S
H788 C794 0.950 . S
H789 C795 0.950 . S
H790 C796 0.949 . S
C791 H786 0.950 . S
C791 C793 1.327 . S
C791 C797 1.429 . S
C792 C784 1.574 . S
C792 H787 0.949 . S
C792 C798 1.368 . S
C793 C777 1.349 . S
C793 H785 0.950 . S
C793 C791 1.327 . S
C794 C782 1.349 . S
C794 H788 0.950 . S
C794 C795 1.327 . S
C795 H789 0.950 . S
C795 C794 1.327 . S
C795 C799 1.429 . S
C796 C779 1.574 . S
C796 H790 0.949 . S
C796 C800 1.368 . S
C797 C778 1.429 . S
C797 C791 1.429 . S
C797 C798 1.523 . S
C798 C779 1.368 . S
C798 C792 1.368 . S
C798 C797 1.523 . S
C799 C783 1.429 . S
C799 C795 1.429 . S
C799 C800 1.523 . S
C800 C784 1.368 . S
C800 C796 1.368 . S
C800 C799 1.523 . S
H801 C776 0.950 . S
H802 C778 0.950 . S
H803 C779 0.949 . S
H804 C781 0.950 . S
H805 C783 0.950 . S
C806 C807 1.349 . S
C806 C808 1.327 . S
C806 H831 0.950 . S
C807 C806 1.349 . S
C807 C823 1.349 . S
C808 C806 1.327 . S
C808 C827 1.429 . S
C808 H832 0.950 . S
C809 C826 1.574 . S
C809 C828 1.368 . S
C809 H833 0.949 . S
H810 C814 0.949 . S
C811 C812 1.349 . S
C811 C813 1.327 . S
C811 H834 0.950 . S
C812 C811 1.349 . S
C812 C824 1.349 . S
C813 C811 1.327 . S
C813 C829 1.429 . S
C813 H835 0.950 . S
C814 H810 0.949 . S
C814 C822 1.574 . S
C814 C830 1.368 . S
H815 C823 0.950 . S
H816 C821 0.950 . S
H817 C822 0.949 . S
H818 C824 0.950 . S
H819 C825 0.950 . S
H820 C826 0.949 . S
C821 H816 0.950 . S
C821 C823 1.327 . S
C821 C827 1.429 . S
C822 C814 1.574 . S
C822 H817 0.949 . S
C822 C828 1.368 . S
C823 C807 1.349 . S
C823 H815 0.950 . S
C823 C821 1.327 . S
C824 C812 1.349 . S
C824 H818 0.950 . S
C824 C825 1.327 . S
C825 H819 0.950 . S
C825 C824 1.327 . S
C825 C829 1.429 . S
C826 C809 1.574 . S
C826 H820 0.949 . S
C826 C830 1.368 . S
C827 C808 1.429 . S
C827 C821 1.429 . S
C827 C828 1.523 . S
C828 C809 1.368 . S
C828 C822 1.368 . S
C828 C827 1.523 . S
C829 C813 1.429 . S
C829 C825 1.429 . S
C829 C830 1.523 . S
C830 C814 1.368 . S
C830 C826 1.368 . S
C830 C829 1.523 . S
H831 C806 0.950 . S
H832 C808 0.950 . S
H833 C809 0.949 . S
H834 C811 0.950 . S
H835 C813 0.950 . S
C836 C837 1.349 . S
C836 C838 1.327 . S
C836 H861 0.950 . S
C837 C836 1.349 . S
C837 C853 1.349 . S
C838 C836 1.327 . S
C838 C857 1.429 . S
C838 H862 0.950 . S
C839 C856 1.574 . S
C839 C858 1.368 . S
C839 H863 0.949 . S
H840 C844 0.949 . S
C841 C842 1.349 . S
C841 C843 1.327 . S
C841 H864 0.950 . S
C842 C841 1.349 . S
C842 C854 1.349 . S
C843 C841 1.327 . S
C843 C859 1.429 . S
C843 H865 0.950 . S
C844 H840 0.949 . S
C844 C852 1.574 . S
C844 C860 1.368 . S
H845 C853 0.950 . S
H846 C851 0.950 . S
H847 C852 0.949 . S
H848 C854 0.950 . S
H849 C855 0.950 . S
H850 C856 0.949 . S
C851 H846 0.950 . S
C851 C853 1.327 . S
C851 C857 1.429 . S
C852 C844 1.574 . S
C852 H847 0.949 . S
C852 C858 1.368 . S
C853 C837 1.349 . S
C853 H845 0.950 . S
C853 C851 1.327 . S
C854 C842 1.349 . S
C854 H848 0.950 . S
C854 C855 1.327 . S
C855 H849 0.950 . S
C855 C854 1.327 . S
C855 C859 1.429 . S
C856 C839 1.574 . S
C856 H850 0.949 . S
C856 C860 1.368 . S
C857 C838 1.429 . S
C857 C851 1.429 . S
C857 C858 1.523 . S
C858 C839 1.368 . S
C858 C852 1.368 . S
C858 C857 1.523 . S
C859 C843 1.429 . S
C859 C855 1.429 . S
C859 C860 1.523 . S
C860 C844 1.368 . S
C860 C856 1.368 . S
C860 C859 1.523 . S
H861 C836 0.950 . S
H862 C838 0.950 . S
H863 C839 0.949 . S
H864 C841 0.950 . S
H865 C843 0.950 . S
C866 C867 1.349 . S
C866 C868 1.327 . S
C866 H891 0.950 . S
C867 C866 1.349 . S
C867 C883 1.349 . S
C868 C866 1.327 . S
C868 C887 1.429 . S
C868 H892 0.950 . S
C869 C886 1.574 . S
C869 C888 1.368 . S
C869 H893 0.949 . S
H870 C874 0.949 . S
C871 C872 1.349 . S
C871 C873 1.327 . S
C871 H894 0.950 . S
C872 C871 1.349 . S
C872 C884 1.349 . S
C873 C871 1.327 . S
C873 C889 1.429 . S
C873 H895 0.950 . S
C874 H870 0.949 . S
C874 C882 1.574 . S
C874 C890 1.368 . S
H875 C883 0.950 . S
H876 C881 0.950 . S
H877 C882 0.949 . S
H878 C884 0.950 . S
H879 C885 0.950 . S
H880 C886 0.949 . S
C881 H876 0.950 . S
C881 C883 1.327 . S
C881 C887 1.429 . S
C882 C874 1.574 . S
C882 H877 0.949 . S
C882 C888 1.368 . S
C883 C867 1.349 . S
C883 H875 0.950 . S
C883 C881 1.327 . S
C884 C872 1.349 . S
C884 H878 0.950 . S
C884 C885 1.327 . S
C885 H879 0.950 . S
C885 C884 1.327 . S
C885 C889 1.429 . S
C886 C869 1.574 . S
C886 H880 0.949 . S
C886 C890 1.368 . S
C887 C868 1.429 . S
C887 C881 1.429 . S
C887 C888 1.523 . S
C888 C869 1.368 . S
C888 C882 1.368 . S
C888 C887 1.523 . S
C889 C873 1.429 . S
C889 C885 1.429 . S
C889 C890 1.523 . S
C890 C874 1.368 . S
C890 C886 1.368 . S
C890 C889 1.523 . S
H891 C866 0.950 . S
H892 C868 0.950 . S
H893 C869 0.949 . S
H894 C871 0.950 . S
H895 C873 0.950 . S
C896 C897 1.349 . S
C896 C898 1.327 . S
C896 H921 0.950 . S
C897 C896 1.349 . S
C897 C913 1.349 . S
C898 C896 1.327 . S
C898 C917 1.429 . S
C898 H922 0.950 . S
C899 C916 1.574 . S
C899 C918 1.368 . S
C899 H923 0.949 . S
H900 C904 0.949 . S
C901 C902 1.349 . S
C901 C903 1.327 . S
C901 H924 0.950 . S
C902 C901 1.349 . S
C902 C914 1.349 . S
C903 C901 1.327 . S
C903 C919 1.429 . S
C903 H925 0.950 . S
C904 H900 0.949 . S
C904 C912 1.574 . S
C904 C920 1.368 . S
H905 C913 0.950 . S
H906 C911 0.950 . S
H907 C912 0.949 . S
H908 C914 0.950 . S
H909 C915 0.950 . S
H910 C916 0.949 . S
C911 H906 0.950 . S
C911 C913 1.327 . S
C911 C917 1.429 . S
C912 C904 1.574 . S
C912 H907 0.949 . S
C912 C918 1.368 . S
C913 C897 1.349 . S
C913 H905 0.950 . S
C913 C911 1.327 . S
C914 C902 1.349 . S
C914 H908 0.950 . S
C914 C915 1.327 . S
C915 H909 0.950 . S
C915 C914 1.327 . S
C915 C919 1.429 . S
C916 C899 1.574 . S
C916 H910 0.949 . S
C916 C920 1.368 . S
C917 C898 1.429 . S
C917 C911 1.429 . S
C917 C918 1.523 . S
C918 C899 1.368 . S
C918 C912 1.368 . S
C918 C917 1.523 . S
C919 C903 1.429 . S
C919 C915 1.429 . S
C919 C920 1.523 . S
C920 C904 1.368 . S
C920 C916 1.368 . S
C920 C919 1.523 . S
H921 C896 0.950 . S
H922 C898 0.950 . S
H923 C899 0.949 . S
H924 C901 0.950 . S
H925 C903 0.950 . S
C926 C927 1.349 . S
C926 C928 1.327 . S
C926 H951 0.950 . S
C927 C926 1.349 . S
C927 C943 1.349 . S
C928 C926 1.327 . S
C928 C947 1.429 . S
C928 H952 0.950 . S
C929 C946 1.574 . S
C929 C948 1.368 . S
C929 H953 0.949 . S
H930 C934 0.949 . S
C931 C932 1.349 . S
C931 C933 1.327 . S
C931 H954 0.950 . S
C932 C931 1.349 . S
C932 C944 1.349 . S
C933 C931 1.327 . S
C933 C949 1.429 . S
C933 H955 0.950 . S
C934 H930 0.949 . S
C934 C942 1.574 . S
C934 C950 1.368 . S
H935 C943 0.950 . S
H936 C941 0.950 . S
H937 C942 0.949 . S
H938 C944 0.950 . S
H939 C945 0.950 . S
H940 C946 0.949 . S
C941 H936 0.950 . S
C941 C943 1.327 . S
C941 C947 1.429 . S
C942 C934 1.574 . S
C942 H937 0.949 . S
C942 C948 1.368 . S
C943 C927 1.349 . S
C943 H935 0.950 . S
C943 C941 1.327 . S
C944 C932 1.349 . S
C944 H938 0.950 . S
C944 C945 1.327 . S
C945 H939 0.950 . S
C945 C944 1.327 . S
C945 C949 1.429 . S
C946 C929 1.574 . S
C946 H940 0.949 . S
C946 C950 1.368 . S
C947 C928 1.429 . S
C947 C941 1.429 . S
C947 C948 1.523 . S
C948 C929 1.368 . S
C948 C942 1.368 . S
C948 C947 1.523 . S
C949 C933 1.429 . S
C949 C945 1.429 . S
C949 C950 1.523 . S
C950 C934 1.368 . S
C950 C946 1.368 . S
C950 C949 1.523 . S
H951 C926 0.950 . S
H952 C928 0.950 . S
H953 C929 0.949 . S
H954 C931 0.950 . S
H955 C933 0.950 . S
C956 C957 1.349 . S
C956 C958 1.327 . S
C956 H981 0.950 . S
C957 C956 1.349 . S
C957 C973 1.349 . S
C958 C956 1.327 . S
C958 C977 1.429 . S
C958 H982 0.950 . S
C959 C976 1.574 . S
C959 C978 1.368 . S
C959 H983 0.949 . S
H960 C964 0.949 . S
C961 C962 1.349 . S
C961 C963 1.327 . S
C961 H984 0.950 . S
C962 C961 1.349 . S
C962 C974 1.349 . S
C963 C961 1.327 . S
C963 C979 1.429 . S
C963 H985 0.950 . S
C964 H960 0.949 . S
C964 C972 1.574 . S
C964 C980 1.368 . S
H965 C973 0.950 . S
H966 C971 0.950 . S
H967 C972 0.949 . S
H968 C974 0.950 . S
H969 C975 0.950 . S
H970 C976 0.949 . S
C971 H966 0.950 . S
C971 C973 1.327 . S
C971 C977 1.429 . S
C972 C964 1.574 . S
C972 H967 0.949 . S
C972 C978 1.368 . S
C973 C957 1.349 . S
C973 H965 0.950 . S
C973 C971 1.327 . S
C974 C962 1.349 . S
C974 H968 0.950 . S
C974 C975 1.327 . S
C975 H969 0.950 . S
C975 C974 1.327 . S
C975 C979 1.429 . S
C976 C959 1.574 . S
C976 H970 0.949 . S
C976 C980 1.368 . S
C977 C958 1.429 . S
C977 C971 1.429 . S
C977 C978 1.523 . S
C978 C959 1.368 . S
C978 C972 1.368 . S
C978 C977 1.523 . S
C979 C963 1.429 . S
C979 C975 1.429 . S
C979 C980 1.523 . S
C980 C964 1.368 . S
C980 C976 1.368 . S
C980 C979 1.523 . S
H981 C956 0.950 . S
H982 C958 0.950 . S
H983 C959 0.949 . S
H984 C961 0.950 . S
H985 C963 0.950 . S
C986 C987 1.349 . S
C986 C988 1.327 . S
C986 H1011 0.950 . S
C987 C986 1.349 . S
C987 C1003 1.349 . S
C988 C986 1.327 . S
C988 C1007 1.429 . S
C988 H1012 0.950 . S
C989 C1006 1.574 . S
C989 C1008 1.368 . S
C989 H1013 0.949 . S
H990 C994 0.949 . S
C991 C992 1.349 . S
C991 C993 1.327 . S
C991 H1014 0.950 . S
C992 C991 1.349 . S
C992 C1004 1.349 . S
C993 C991 1.327 . S
C993 C1009 1.429 . S
C993 H1015 0.950 . S
C994 H990 0.949 . S
C994 C1002 1.574 . S
C994 C1010 1.368 . S
H995 C1003 0.950 . S
H996 C1001 0.950 . S
H997 C1002 0.949 . S
H998 C1004 0.950 . S
H999 C1005 0.950 . S
H1000 C1006 0.949 . S
C1001 H996 0.950 . S
C1001 C1003 1.327 . S
C1001 C1007 1.429 . S
C1002 C994 1.574 . S
C1002 H997 0.949 . S
C1002 C1008 1.368 . S
C1003 C987 1.349 . S
C1003 H995 0.950 . S
C1003 C1001 1.327 . S
C1004 C992 1.349 . S
C1004 H998 0.950 . S
C1004 C1005 1.327 . S
C1005 H999 0.950 . S
C1005 C1004 1.327 . S
C1005 C1009 1.429 . S
C1006 C989 1.574 . S
C1006 H1000 0.949 . S
C1006 C1010 1.368 . S
C1007 C988 1.429 . S
C1007 C1001 1.429 . S
C1007 C1008 1.523 . S
C1008 C989 1.368 . S
C1008 C1002 1.368 . S
C1008 C1007 1.523 . S
C1009 C993 1.429 . S
C1009 C1005 1.429 . S
C1009 C1010 1.523 . S
C1010 C994 1.368 . S
C1010 C1006 1.368 . S
C1010 C1009 1.523 . S
H1011 C986 0.950 . S
H1012 C988 0.950 . S
H1013 C989 0.949 . S
H1014 C991 0.950 . S
H1015 C993 0.950 . S
C1016 C1017 1.349 . S
C1016 C1018 1.327 . S
C1016 H1041 0.950 . S
C1017 C1016 1.349 . S
C1017 C1033 1.349 . S
C1018 C1016 1.327 . S
C1018 C1037 1.429 . S
C1018 H1042 0.950 . S
C1019 C1036 1.574 . S
C1019 C1038 1.368 . S
C1019 H1043 0.949 . S
H1020 C1024 0.949 . S
C1021 C1022 1.349 . S
C1021 C1023 1.327 . S
C1021 H1044 0.950 . S
C1022 C1021 1.349 . S
C1022 C1034 1.349 . S
C1023 C1021 1.327 . S
C1023 C1039 1.429 . S
C1023 H1045 0.950 . S
C1024 H1020 0.949 . S
C1024 C1032 1.574 . S
C1024 C1040 1.368 . S
H1025 C1033 0.950 . S
H1026 C1031 0.950 . S
H1027 C1032 0.949 . S
H1028 C1034 0.950 . S
H1029 C1035 0.950 . S
H1030 C1036 0.949 . S
C1031 H1026 0.950 . S
C1031 C1033 1.327 . S
C1031 C1037 1.429 . S
C1032 C1024 1.574 . S
C1032 H1027 0.949 . S
C1032 C1038 1.368 . S
C1033 C1017 1.349 . S
C1033 H1025 0.950 . S
C1033 C1031 1.327 . S
C1034 C1022 1.349 . S
C1034 H1028 0.950 . S
C1034 C1035 1.327 . S
C1035 H1029 0.950 . S
C1035 C1034 1.327 . S
C1035 C1039 1.429 . S
C1036 C1019 1.574 . S
C1036 H1030 0.949 . S
C1036 C1040 1.368 . S
C1037 C1018 1.429 . S
C1037 C1031 1.429 . S
C1037 C1038 1.523 . S
C1038 C1019 1.368 . S
C1038 C1032 1.368 . S
C1038 C1037 1.523 . S
C1039 C1023 1.429 . S
C1039 C1035 1.429 . S
C1039 C1040 1.523 . S
C1040 C1024 1.368 . S
C1040 C1036 1.368 . S
C1040 C1039 1.523 . S
H1041 C1016 0.950 . S
H1042 C1018 0.950 . S
H1043 C1019 0.949 . S
H1044 C1021 0.950 . S
H1045 C1023 0.950 . S
C1046 C1047 1.349 . S
C1046 C1048 1.327 . S
C1046 H1071 0.950 . S
C1047 C1046 1.349 . S
C1047 C1063 1.349 . S
C1048 C1046 1.327 . S
C1048 C1067 1.429 . S
C1048 H1072 0.950 . S
C1049 C1066 1.574 . S
C1049 C1068 1.368 . S
C1049 H1073 0.949 . S
H1050 C1054 0.949 . S
C1051 C1052 1.349 . S
C1051 C1053 1.327 . S
C1051 H1074 0.950 . S
C1052 C1051 1.349 . S
C1052 C1064 1.349 . S
C1053 C1051 1.327 . S
C1053 C1069 1.429 . S
C1053 H1075 0.950 . S
C1054 H1050 0.949 . S
C1054 C1062 1.574 . S
C1054 C1070 1.368 . S
H1055 C1063 0.950 . S
H1056 C1061 0.950 . S
H1057 C1062 0.949 . S
H1058 C1064 0.950 . S
H1059 C1065 0.950 . S
H1060 C1066 0.949 . S
C1061 H1056 0.950 . S
C1061 C1063 1.327 . S
C1061 C1067 1.429 . S
C1062 C1054 1.574 . S
C1062 H1057 0.949 . S
C1062 C1068 1.368 . S
C1063 C1047 1.349 . S
C1063 H1055 0.950 . S
C1063 C1061 1.327 . S
C1064 C1052 1.349 . S
C1064 H1058 0.950 . S
C1064 C1065 1.327 . S
C1065 H1059 0.950 . S
C1065 C1064 1.327 . S
C1065 C1069 1.429 . S
C1066 C1049 1.574 . S
C1066 H1060 0.949 . S
C1066 C1070 1.368 . S
C1067 C1048 1.429 . S
C1067 C1061 1.429 . S
C1067 C1068 1.523 . S
C1068 C1049 1.368 . S
C1068 C1062 1.368 . S
C1068 C1067 1.523 . S
C1069 C1053 1.429 . S
C1069 C1065 1.429 . S
C1069 C1070 1.523 . S
C1070 C1054 1.368 . S
C1070 C1066 1.368 . S
C1070 C1069 1.523 . S
H1071 C1046 0.950 . S
H1072 C1048 0.950 . S
H1073 C1049 0.949 . S
H1074 C1051 0.950 . S
H1075 C1053 0.950 . S
C1076 C1077 1.349 . S
C1076 C1078 1.327 . S
C1076 H1101 0.950 . S
C1077 C1076 1.349 . S
C1077 C1093 1.349 . S
C1078 C1076 1.327 . S
C1078 C1097 1.429 . S
C1078 H1102 0.950 . S
C1079 C1096 1.574 . S
C1079 C1098 1.368 . S
C1079 H1103 0.949 . S
H1080 C1084 0.949 . S
C1081 C1082 1.349 . S
C1081 C1083 1.327 . S
C1081 H1104 0.950 . S
C1082 C1081 1.349 . S
C1082 C1094 1.349 . S
C1083 C1081 1.327 . S
C1083 C1099 1.429 . S
C1083 H1105 0.950 . S
C1084 H1080 0.949 . S
C1084 C1092 1.574 . S
C1084 C1100 1.368 . S
H1085 C1093 0.950 . S
H1086 C1091 0.950 . S
H1087 C1092 0.949 . S
H1088 C1094 0.950 . S
H1089 C1095 0.950 . S
H1090 C1096 0.949 . S
C1091 H1086 0.950 . S
C1091 C1093 1.327 . S
C1091 C1097 1.429 . S
C1092 C1084 1.574 . S
C1092 H1087 0.949 . S
C1092 C1098 1.368 . S
C1093 C1077 1.349 . S
C1093 H1085 0.950 . S
C1093 C1091 1.327 . S
C1094 C1082 1.349 . S
C1094 H1088 0.950 . S
C1094 C1095 1.327 . S
C1095 H1089 0.950 . S
C1095 C1094 1.327 . S
C1095 C1099 1.429 . S
C1096 C1079 1.574 . S
C1096 H1090 0.949 . S
C1096 C1100 1.368 . S
C1097 C1078 1.429 . S
C1097 C1091 1.429 . S
C1097 C1098 1.523 . S
C1098 C1079 1.368 . S
C1098 C1092 1.368 . S
C1098 C1097 1.523 . S
C1099 C1083 1.429 . S
C1099 C1095 1.429 . S
C1099 C1100 1.523 . S
C1100 C1084 1.368 . S
C1100 C1096 1.368 . S
C1100 C1099 1.523 . S
H1101 C1076 0.950 . S
H1102 C1078 0.950 . S
H1103 C1079 0.949 . S
H1104 C1081 0.950 . S
H1105 C1083 0.950 . S
C1106 C1107 1.349 . S
C1106 C1108 1.327 . S
C1106 H1131 0.950 . S
C1107 C1106 1.349 . S
C1107 C1123 1.349 . S
C1108 C1106 1.327 . S
C1108 C1127 1.429 . S
C1108 H1132 0.950 . S
C1109 C1126 1.574 . S
C1109 C1128 1.368 . S
C1109 H1133 0.949 . S
H1110 C1114 0.949 . S
C1111 C1112 1.349 . S
C1111 C1113 1.327 . S
C1111 H1134 0.950 . S
C1112 C1111 1.349 . S
C1112 C1124 1.349 . S
C1113 C1111 1.327 . S
C1113 C1129 1.429 . S
C1113 H1135 0.950 . S
C1114 H1110 0.949 . S
C1114 C1122 1.574 . S
C1114 C1130 1.368 . S
H1115 C1123 0.950 . S
H1116 C1121 0.950 . S
H1117 C1122 0.949 . S
H1118 C1124 0.950 . S
H1119 C1125 0.950 . S
H1120 C1126 0.949 . S
C1121 H1116 0.950 . S
C1121 C1123 1.327 . S
C1121 C1127 1.429 . S
C1122 C1114 1.574 . S
C1122 H1117 0.949 . S
C1122 C1128 1.368 . S
C1123 C1107 1.349 . S
C1123 H1115 0.950 . S
C1123 C1121 1.327 . S
C1124 C1112 1.349 . S
C1124 H1118 0.950 . S
C1124 C1125 1.327 . S
C1125 H1119 0.950 . S
C1125 C1124 1.327 . S
C1125 C1129 1.429 . S
C1126 C1109 1.574 . S
C1126 H1120 0.949 . S
C1126 C1130 1.368 . S
C1127 C1108 1.429 . S
C1127 C1121 1.429 . S
C1127 C1128 1.523 . S
C1128 C1109 1.368 . S
C1128 C1122 1.368 . S
C1128 C1127 1.523 . S
C1129 C1113 1.429 . S
C1129 C1125 1.429 . S
C1129 C1130 1.523 . S
C1130 C1114 1.368 . S
C1130 C1126 1.368 . S
C1130 C1129 1.523 . S
H1131 C1106 0.950 . S
H1132 C1108 0.950 . S
H1133 C1109 0.949 . S
H1134 C1111 0.950 . S
H1135 C1113 0.950 . S
C417 C29 1.295 . S
C422 C271 1.295 . S
C447 C49 1.045 . S
C452 C311 1.131 . S
C482 C345 2.208 . S
C477 C93 2.223 . S
C507 C119 2.576 . S
C512 C386 2.537 . S
C542 C306 1.322 . S
C537 C17 1.329 . S
C572 C266 2.112 . S
C567 C61 1.918 . S
C602 C394 1.466 . S
C597 C81 1.465 . S
C632 C355 1.799 . S
C627 C125 1.858 . S
C657 C23 1.161 . S
C662 C391 1.140 . S
C692 C314 1.904 . S
C687 C87 1.931 . S
C717 C113 2.484 . S
C722 C274 2.408 . S
C747 C55 1.394 . S
C752 C342 1.515 . S
C782 C262 1.274 . S
C777 C157 1.196 . S
C807 C189 1.220 . S
C812 C302 1.198 . S
C837 C221 2.135 . S
C842 C354 2.169 . S
C867 C253 2.638 . S
C872 C395 2.612 . S
C897 C145 1.353 . S
C902 C315 1.430 . S
C932 C275 2.057 . S
C927 C183 2.051 . S
C962 C385 1.504 . S
C957 C209 1.467 . S
C992 C346 1.760 . S
C987 C247 1.810 . S
C1017 C151 1.071 . S
C1022 C382 1.138 . S
C1052 C305 1.888 . S
C1047 C215 1.879 . S
C1082 C265 2.380 . S
C1077 C241 2.431 . S
C1107 C177 1.536 . S
C1112 C351 1.531 . S
