# Generated by pormake.
# Topology zzz, (3,6)-cn, num edge types: 1
# Building blocks:
#     Node 0, Type 0, BuildingBlock: CUQRIR_clean_linker_1, # of connection points: 3
#     Node 1, Type 0, BuildingBlock: CUQRIR_clean_linker_1, # of connection points: 3
#     Node 2, Type 0, BuildingBlock: CUQRIR_clean_linker_1, # of connection points: 3
#     Node 3, Type 0, BuildingBlock: CUQRIR_clean_linker_1, # of connection points: 3
#     Node 4, Type 0, BuildingBlock: CUQRIR_clean_linker_1, # of connection points: 3
#     Node 5, Type 0, BuildingBlock: CUQRIR_clean_linker_1, # of connection points: 3
#     Node 6, Type 0, BuildingBlock: CUQRIR_clean_linker_1, # of connection points: 3
#     Node 7, Type 0, BuildingBlock: CUQRIR_clean_linker_1, # of connection points: 3
#     Node 8, Type 1, BuildingBlock: HISSIN_clean_sbu_0, # of connection points: 6
#     Node 9, Type 1, BuildingBlock: HISSIN_clean_sbu_0, # of connection points: 6
#     Node 10, Type 1, BuildingBlock: HISSIN_clean_sbu_0, # of connection points: 6
#     Node 11, Type 1, BuildingBlock: HISSIN_clean_sbu_0, # of connection points: 6
#     Edge 12, Type (0, 1), BuildingBlock: KIFKEQ_clean_linker_1, # of connection points: 2
#     Edge 13, Type (0, 1), BuildingBlock: KIFKEQ_clean_linker_1, # of connection points: 2
#     Edge 14, Type (0, 1), BuildingBlock: KIFKEQ_clean_linker_1, # of connection points: 2
#     Edge 15, Type (0, 1), BuildingBlock: KIFKEQ_clean_linker_1, # of connection points: 2
#     Edge 16, Type (0, 1), BuildingBlock: KIFKEQ_clean_linker_1, # of connection points: 2
#     Edge 17, Type (0, 1), BuildingBlock: KIFKEQ_clean_linker_1, # of connection points: 2
#     Edge 18, Type (0, 1), BuildingBlock: KIFKEQ_clean_linker_1, # of connection points: 2
#     Edge 19, Type (0, 1), BuildingBlock: KIFKEQ_clean_linker_1, # of connection points: 2
#     Edge 20, Type (0, 1), BuildingBlock: KIFKEQ_clean_linker_1, # of connection points: 2
#     Edge 21, Type (0, 1), BuildingBlock: KIFKEQ_clean_linker_1, # of connection points: 2
#     Edge 22, Type (0, 1), BuildingBlock: KIFKEQ_clean_linker_1, # of connection points: 2
#     Edge 23, Type (0, 1), BuildingBlock: KIFKEQ_clean_linker_1, # of connection points: 2
#     Edge 24, Type (0, 1), BuildingBlock: KIFKEQ_clean_linker_1, # of connection points: 2
#     Edge 25, Type (0, 1), BuildingBlock: KIFKEQ_clean_linker_1, # of connection points: 2
#     Edge 26, Type (0, 1), BuildingBlock: KIFKEQ_clean_linker_1, # of connection points: 2
#     Edge 27, Type (0, 1), BuildingBlock: KIFKEQ_clean_linker_1, # of connection points: 2
#     Edge 28, Type (0, 1), BuildingBlock: KIFKEQ_clean_linker_1, # of connection points: 2
#     Edge 29, Type (0, 1), BuildingBlock: KIFKEQ_clean_linker_1, # of connection points: 2
#     Edge 30, Type (0, 1), BuildingBlock: KIFKEQ_clean_linker_1, # of connection points: 2
#     Edge 31, Type (0, 1), BuildingBlock: KIFKEQ_clean_linker_1, # of connection points: 2
#     Edge 32, Type (0, 1), BuildingBlock: KIFKEQ_clean_linker_1, # of connection points: 2
#     Edge 33, Type (0, 1), BuildingBlock: KIFKEQ_clean_linker_1, # of connection points: 2
#     Edge 34, Type (0, 1), BuildingBlock: KIFKEQ_clean_linker_1, # of connection points: 2
#     Edge 35, Type (0, 1), BuildingBlock: KIFKEQ_clean_linker_1, # of connection points: 2
# Relax obj value: 0.313
# Max RMSD: 0.201
# Mean RMSD: 0.108
data_MOF--net-zzz--node1-HISSIN_clean_sbu_0--node2-CUQRIR_clean_linker_1--edge1-KIFKEQ_clean_linker_1
_symmetry_space_group_name_H-M    P1
_symmetry_Int_Tables_number       1
_symmetry_cell_setting            triclinic
loop_
_symmetry_equiv_pos_as_xyz
'x, y, z'
_cell_length_a     47.261617
_cell_length_b     47.345324
_cell_length_c     14.909839
_cell_angle_alpha  90.078974
_cell_angle_beta   91.324769
_cell_angle_gamma 90.629154
loop_
_atom_site_label
_atom_site_type_symbol
_atom_site_fract_x
_atom_site_fract_y
_atom_site_fract_z
_atom_type_partial_charge
C0 C 0.76 0.52499 0.37507 0.0
N1 N 0.78602 0.51435 0.3951 0.0
N2 N 0.74798 0.51152 0.30222 0.0
C3 C 0.74626 0.54797 0.42716 0.0
C4 C 0.76801 0.49274 0.27852 0.0
N5 N 0.79072 0.49438 0.33496 0.0
C6 C 0.76673 0.47482 0.19493 0.0
H7 H 0.72289 0.54535 0.42465 0.0
H8 H 0.75174 0.56864 0.39682 0.0
H9 H 0.75409 0.54803 0.49792 0.0
H10 H 0.75438 0.48537 0.14062 0.0
H11 H 0.75625 0.45438 0.21042 0.0
H12 H 0.78822 0.47032 0.17063 0.0
C13 C 0.03231 0.753 0.32941 0.0
N14 N 1.02082 0.77858 0.34879 0.0
N15 N 1.01829 0.74031 0.25863 0.0
C16 C 0.05859 0.74169 0.37367 0.0
C17 C 0.99804 0.7593 0.23606 0.0
N18 N 0.99944 0.78223 0.29057 0.0
C19 C 0.97711 0.75561 0.15937 0.0
H20 H 0.0771 0.74801 0.33358 0.0
H21 H 0.05769 0.71827 0.37616 0.0
H22 H 0.06149 0.75042 0.44243 0.0
H23 H 0.97108 0.73301 0.15127 0.0
H24 H 0.98703 0.76276 0.09648 0.0
H25 H 0.95789 0.76831 0.17012 0.0
C26 C 0.79912 0.02177 0.3168 0.0
N27 N 0.77531 0.03661 0.33655 0.0
N28 N 0.81497 0.03557 0.25414 0.0
C29 C 0.80736 0.99452 0.36054 0.0
C30 C 0.79954 0.05896 0.23586 0.0
N31 N 0.77604 0.05975 0.28604 0.0
C32 C 0.80576 0.07948 0.16141 0.0
H33 H 0.83071 0.99232 0.36284 0.0
H34 H 0.79815 0.97676 0.32052 0.0
H35 H 0.79898 0.99324 0.42936 0.0
H36 H 0.81798 0.06934 0.10776 0.0
H37 H 0.81837 0.09749 0.18929 0.0
H38 H 0.78594 0.0879 0.13104 0.0
C39 C 0.52999 0.79054 0.32318 0.0
N40 N 0.51513 0.76667 0.34465 0.0
N41 N 0.51661 0.80507 0.25564 0.0
C42 C 0.55686 0.80013 0.36974 0.0
C43 C 0.49345 0.78886 0.23612 0.0
N44 N 0.49236 0.76602 0.29042 0.0
C45 C 0.47374 0.79354 0.15661 0.0
H46 H 0.55881 0.82351 0.36822 0.0
H47 H 0.57507 0.79114 0.33426 0.0
H48 H 0.55765 0.79261 0.4402 0.0
H49 H 0.48438 0.80555 0.10292 0.0
H50 H 0.45521 0.80571 0.17864 0.0
H51 H 0.46596 0.77317 0.12802 0.0
C52 C 0.30342 0.5202 0.13725 0.0
N53 N 0.28047 0.53463 0.10633 0.0
N54 N 0.31947 0.53646 0.19459 0.0
C55 C 0.30848 0.48955 0.11915 0.0
C56 C 0.30531 0.56117 0.19716 0.0
N57 N 0.28168 0.5601 0.144 0.0
C58 C 0.31452 0.58627 0.2529 0.0
H59 H 0.29753 0.47676 0.1704 0.0
H60 H 0.33142 0.48486 0.12361 0.0
H61 H 0.29978 0.48347 0.052 0.0
H62 H 0.33796 0.58814 0.2551 0.0
H63 H 0.30733 0.58331 0.3226 0.0
H64 H 0.3053 0.60603 0.22565 0.0
C65 C 0.0453 0.295 0.11436 0.0
N66 N 0.04503 0.26624 0.10667 0.0
N67 N 0.04684 0.30318 0.20273 0.0
C68 C 0.04487 0.31492 0.03645 0.0
C69 C 0.04723 0.27814 0.2474 0.0
N70 N 0.04638 0.25621 0.18948 0.0
C71 C 0.0471 0.27491 0.34772 0.0
H72 H 0.05793 0.33399 0.05219 0.0
H73 H 1.02278 0.32172 0.02329 0.0
H74 H 0.05265 0.30444 0.97525 0.0
H75 H 0.03608 0.2928 0.3794 0.0
H76 H 0.06926 0.27451 0.3738 0.0
H77 H 0.03663 0.25479 0.36687 0.0
C78 C 0.27209 0.02531 0.18713 0.0
N79 N 0.29636 0.03782 0.15764 0.0
N80 N 0.2584 0.04246 0.24576 0.0
C81 C 0.26289 0.99571 0.16439 0.0
C82 C 0.27542 0.06579 0.24995 0.0
N83 N 0.29821 0.063 0.19723 0.0
C84 C 0.26957 0.0918 0.30419 0.0
H85 H 0.24579 0.99647 0.11225 0.0
H86 H 0.25424 0.98513 0.22438 0.0
H87 H 0.28066 0.98328 0.13809 0.0
H88 H 0.24645 0.09496 0.30987 0.0
H89 H 0.2793 0.11074 0.27312 0.0
H90 H 0.27892 0.08939 0.37263 0.0
C91 C 0.5369 0.25925 0.16854 0.0
N92 N 0.55282 0.28219 0.1451 0.0
N93 N 0.55025 0.24397 0.23411 0.0
C94 C 0.50817 0.2521 0.12967 0.0
C95 C 0.57477 0.25843 0.24948 0.0
N96 N 0.57638 0.28141 0.19576 0.0
C97 C 0.59641 0.25125 0.3215 0.0
H98 H 0.49192 0.26246 0.17051 0.0
H99 H 0.50429 0.22895 0.13151 0.0
H100 H 0.50605 0.25985 0.05965 0.0
H101 H 0.6167 0.24608 0.28982 0.0
H102 H 0.58994 0.23292 0.36264 0.0
H103 H 0.60023 0.26982 0.3658 0.0
Eu104 Eu 1.01392 0.02671 0.6644 0.0
Eu105 Eu 0.05435 1.01038 0.83105 0.0
C106 C 0.03667 0.07711 0.7994 0.0
C107 C 0.9902 0.03474 0.42461 0.0
C108 C 0.97347 0.051 0.36652 0.0
C109 C 0.02871 0.03729 0.32025 0.0
C110 C 0.98507 0.06215 0.28889 0.0
C111 C 1.01706 0.0261 0.39782 0.0
C112 C 1.01374 0.05753 0.26981 0.0
C113 C 0.98256 0.03256 0.51895 0.0
O114 O 1.0089 1.0016 0.87596 0.0
O115 O 0.98474 0.03119 0.78218 0.0
C116 C 0.98608 1.01635 0.85648 0.0
O117 O 1.01226 0.97886 0.68352 0.0
O118 O 0.08069 0.02148 0.94881 0.0
O119 O 0.07063 0.9777 0.92036 0.0
O120 O 0.05746 0.97393 0.73167 0.0
C121 C 0.03508 0.96336 0.68961 0.0
O122 O 0.05805 0.02657 0.60354 0.0
O123 O 0.08738 0.02175 0.72794 0.0
O124 O 0.04767 0.05746 0.85158 0.0
O125 O 0.98719 1.00837 0.55741 0.0
O126 O 0.99133 0.05362 0.56889 0.0
O127 O 0.02442 0.07055 0.72153 0.0
C128 C 0.06664 0.99225 0.06818 0.0
C129 C 0.03999 1.00416 0.0825 0.0
C130 C 0.05914 0.96032 0.19226 0.0
C131 C 1.0222 0.99273 0.14685 0.0
C132 C 0.07678 0.97151 0.12699 0.0
C133 C 0.03095 0.96943 0.19822 0.0
C134 C 0.07975 0.99584 0.9805 0.0
C135 C 0.0837 0.02542 0.64062 0.0
H136 H 0.95259 0.0576 0.3859 0.0
H137 H 0.05055 0.0327 0.3058 0.0
H138 H 0.9727 0.07743 0.25139 0.0
H139 H 0.03014 1.01309 0.44133 0.0
H140 H 0.03177 0.02034 0.038 0.0
H141 H 0.06651 0.94227 0.23037 0.0
H142 H 1.00073 1.00037 0.15065 0.0
H143 H 0.09719 0.96197 0.11665 0.0
Eu144 Eu 0.54483 0.04097 0.82634 0.0
Eu145 Eu 0.52033 1.00474 0.65553 0.0
C146 C 0.53868 0.97278 0.84217 0.0
C147 C 0.5751 0.09744 0.99011 0.0
C148 C 0.60137 0.10284 0.95174 0.0
C149 C 0.58485 0.13417 0.1004 0.0
C150 C 0.62009 0.12233 0.9916 0.0
C151 C 0.56625 0.11437 0.06109 0.0
C152 C 0.61279 0.13676 0.07052 0.0
C153 C 0.55852 0.0721 0.96541 0.0
O154 O 0.48095 0.02079 0.7258 0.0
O155 O 0.50133 0.02428 0.86489 0.0
C156 C 0.47851 0.02206 0.81347 0.0
O157 O 0.53549 0.07496 0.72169 0.0
O158 O 0.48518 0.98905 0.57127 0.0
O159 O 0.52782 0.97782 0.53907 0.0
O160 O 0.5232 0.04857 0.59744 0.0
C161 C 0.52874 0.07302 0.63569 0.0
O162 O 0.5841 0.0389 0.74042 0.0
O163 O 0.56834 1.006 0.63673 0.0
O164 O 0.52256 0.97255 0.76876 0.0
O165 O 0.53548 0.07577 0.91721 0.0
O166 O 0.57274 0.05 0.94067 0.0
O167 O 0.55318 0.99552 0.86693 0.0
C168 C 0.4972 0.99263 0.42116 0.0
C169 C 0.51331 1.01658 0.39773 0.0
C170 C 0.46293 1.00418 0.30383 0.0
C171 C 0.50332 0.03512 0.33167 0.0
C172 C 0.47281 0.98573 0.37034 0.0
C173 C 0.47718 0.02991 0.28825 0.0
C174 C 0.50172 0.97954 0.50978 0.0
C175 C 0.58871 0.02232 0.67111 0.0
H176 H 0.60838 0.09036 0.89563 0.0
H177 H 0.57828 0.14542 0.15942 0.0
H178 H 0.6413 0.12358 0.96587 0.0
H179 H 0.54575 0.11083 0.09046 0.0
H180 H 0.53227 0.02237 0.43593 0.0
H181 H 0.44258 0.99975 0.27155 0.0
H182 H 0.51475 0.05469 0.31998 0.0
H183 H 0.45998 0.96751 0.38768 0.0
Eu184 Eu 0.51291 0.53485 0.83098 0.0
Eu185 Eu 0.55551 0.51592 0.67098 0.0
C186 C 0.57965 0.52815 0.87387 0.0
C187 C 0.45388 0.56275 0.98083 0.0
C188 C 0.45159 0.58975 0.94333 0.0
C189 C 0.41696 0.57398 0.08475 0.0
C190 C 0.4334 0.60936 0.98042 0.0
C191 C 0.43537 0.55443 0.04813 0.0
C192 C 0.41723 0.60221 0.0556 0.0
C193 C 0.47776 0.54463 0.95967 0.0
O194 O 0.54562 0.47311 0.73253 0.0
O195 O 0.52261 0.48858 0.8573 0.0
C196 C 0.53391 0.46814 0.81045 0.0
O197 O 0.48392 0.53162 0.7081 0.0
O198 O 0.59745 0.52342 0.61603 0.0
O199 O 0.56719 0.49582 0.54647 0.0
O200 O 0.51258 0.51343 0.6 0.0
C201 C 0.48774 0.52206 0.62639 0.0
O202 O 0.51674 0.5763 0.75558 0.0
O203 O 0.55026 0.56343 0.65425 0.0
O204 O 0.58118 0.51271 0.80089 0.0
O205 O 0.47338 0.52522 0.89871 0.0
O206 O 0.50233 0.55722 0.95267 0.0
O207 O 0.55701 0.54307 0.88962 0.0
C208 C 0.61548 0.48654 0.52765 0.0
C209 C 0.6153 0.45906 0.56225 0.0
C210 C 0.65241 0.47357 0.42583 0.0
C211 C 0.63238 0.4385 0.52486 0.0
C212 C 0.63516 0.49409 0.46288 0.0
C213 C 0.64983 0.44518 0.45228 0.0
C214 C 0.5929 0.50624 0.54873 0.0
C215 C 0.5335 0.58245 0.68878 0.0
H216 H 0.46549 0.59639 0.89034 0.0
H217 H 0.40446 0.56775 0.14133 0.0
H218 H 0.43441 0.63085 0.9559 0.0
H219 H 0.43661 0.53346 0.07693 0.0
H220 H 0.60039 0.45298 0.61307 0.0
H221 H 0.66593 0.47947 0.37129 0.0
H222 H 0.62961 0.41688 0.54687 0.0
H223 H 0.63577 0.51538 0.4363 0.0
Eu224 Eu 0.04413 0.54675 0.64669 0.0
Eu225 Eu 0.03034 0.49996 0.80019 0.0
C226 C 0.0932 0.52045 0.77334 0.0
C227 C 0.06344 0.5891 0.43348 0.0
C228 C 0.07539 0.56683 0.3859 0.0
C229 C 0.07807 0.62183 0.31793 0.0
C230 C 0.09021 0.57236 0.30777 0.0
C231 C 0.06335 0.61628 0.39632 0.0
C232 C 0.09334 0.60027 0.27651 0.0
C233 C 0.05611 0.58558 0.52796 0.0
O234 O 0.03431 0.54154 0.87878 0.0
O235 O 0.02826 0.57289 0.76291 0.0
C236 C 0.03031 0.56755 0.84955 0.0
O237 O 0.99874 0.53297 0.61935 0.0
O238 O 0.04377 0.47999 0.92528 0.0
O239 O 1.00726 0.46341 0.85122 0.0
O240 O 0.98694 0.51678 0.75847 0.0
C241 C 0.97949 0.52556 0.67741 0.0
O242 O 0.0517 0.50521 0.57248 0.0
O243 O 0.03185 0.47409 0.67216 0.0
O244 O 0.07705 0.49789 0.7751 0.0
O245 O 0.03035 0.5779 0.54618 0.0
O246 O 0.07488 0.57279 0.57828 0.0
O247 O 0.08291 0.544 0.74031 0.0
C248 C 1.00899 0.45598 1.00706 0.0
C249 C 0.99976 0.47841 0.05971 0.0
C250 C 0.98664 0.42263 0.10707 0.0
C251 C 0.98344 0.47299 0.13455 0.0
C252 C 1.00315 0.42808 0.03253 0.0
C253 C 0.9759 0.44507 0.15727 0.0
C254 C 0.02339 0.46122 0.92297 0.0
C255 C 0.04273 0.47956 0.59343 0.0
H256 H 0.07548 0.54565 0.41338 0.0
H257 H 0.07962 0.64343 0.29444 0.0
H258 H 0.1017 0.55521 0.27789 0.0
H259 H 0.05395 0.63368 0.43184 0.0
H260 H 1.00415 0.50008 0.0408 0.0
H261 H 0.98118 0.40095 0.12294 0.0
H262 H 0.97507 0.49081 0.17061 0.0
H263 H 1.01039 0.41055 0.99263 0.0
H264 H 0.20524 0.02525 0.19129 0.0
H265 H 0.25529 0.04683 0.42653 0.0
H266 H 0.16322 0.01982 0.28403 0.0
H267 H 0.21363 0.04323 0.51853 0.0
H268 H 0.0863 0.03899 0.45994 0.0
H269 H 0.12767 0.04145 0.36497 0.0
H270 H 0.18076 1.01657 0.59038 0.0
H271 H 0.13966 1.01532 0.68535 0.0
C272 C 0.20731 0.0287 0.26293 0.0
C273 C 0.23376 0.03667 0.30098 0.0
C274 C 0.18304 0.02601 0.31651 0.0
C275 C 0.18435 0.03122 0.4102 0.0
C276 C 0.21117 0.03858 0.44772 0.0
C277 C 0.23529 0.04104 0.39443 0.0
C278 C 0.10682 0.03418 0.48953 0.0
C279 C 0.10931 0.0272 0.58143 0.0
C280 C 0.13078 0.03534 0.43438 0.0
C281 C 0.15824 0.02935 0.46859 0.0
C282 C 0.16049 0.02205 0.56046 0.0
C283 C 0.13663 0.02115 0.61561 0.0
H284 H 0.5307 0.24468 0.40242 0.0
H285 H 0.54922 0.18912 0.18389 0.0
H286 H 0.52282 0.20393 0.50046 0.0
H287 H 0.54178 0.148 0.28127 0.0
H288 H 0.50829 0.07827 0.46333 0.0
H289 H 0.50976 0.11919 0.36445 0.0
H290 H 0.54945 0.16828 0.57778 0.0
H291 H 0.54777 0.12714 0.6766 0.0
C292 C 0.53239 0.22359 0.37501 0.0
C293 C 0.54016 0.22 0.2853 0.0
C294 C 0.52835 0.20017 0.43144 0.0
C295 C 0.53195 0.17238 0.39979 0.0
C296 C 0.53857 0.16889 0.30849 0.0
C297 C 0.54273 0.1924 0.25224 0.0
C298 C 0.51741 0.09773 0.48914 0.0
C299 C 0.52814 0.09907 0.57802 0.0
C300 C 0.51831 0.12134 0.43215 0.0
C301 C 0.52987 0.14733 0.46214 0.0
C302 C 0.54005 0.14888 0.5519 0.0
C303 C 0.53919 0.12516 0.60888 0.0
H304 H 0.31843 0.53035 0.37371 0.0
H305 H 0.3734 0.52567 0.14878 0.0
H306 H 0.3587 0.52413 0.47693 0.0
H307 H 0.4145 0.52102 0.25131 0.0
H308 H 0.48273 0.49614 0.46025 0.0
H309 H 0.44212 0.49597 0.35571 0.0
H310 H 0.39657 0.54862 0.5389 0.0
H311 H 0.43644 0.54767 0.64402 0.0
C312 C 0.33931 0.52776 0.34662 0.0
C313 C 0.34287 0.52852 0.25349 0.0
C314 C 0.36259 0.52462 0.40571 0.0
C315 C 0.39037 0.52265 0.37359 0.0
C316 C 0.39367 0.52227 0.27957 0.0
C317 C 0.37016 0.52501 0.22039 0.0
C318 C 0.46396 0.50754 0.47838 0.0
C319 C 0.46299 0.52174 0.56138 0.0
C320 C 0.44059 0.50761 0.41789 0.0
C321 C 0.41555 0.5221 0.43807 0.0
C322 C 0.41488 0.53651 0.5209 0.0
C323 C 0.43803 0.53616 0.58153 0.0
H324 H 1.01189 0.34841 0.17591 0.0
H325 H 0.0862 0.32183 0.32394 0.0
H326 H 1.01183 0.39274 0.2635 0.0
H327 H 0.08575 0.36533 0.41234 0.0
H328 H 0.04961 0.42364 0.63169 0.0
H329 H 0.05183 0.38352 0.52943 0.0
H330 H 0.04161 0.43945 0.30332 0.0
H331 H 0.04023 0.48015 0.40665 0.0
C332 C 0.02851 0.35223 0.22574 0.0
C333 C 0.04891 0.3313 0.24328 0.0
C334 C 0.02844 0.37762 0.27619 0.0
C335 C 0.04859 0.38265 0.34602 0.0
C336 C 0.06961 0.36218 0.36042 0.0
C337 C 0.0699 0.33716 0.30955 0.0
C338 C 0.04803 0.42759 0.56021 0.0
C339 C 0.04496 0.45538 0.52801 0.0
C340 C 0.04938 0.40445 0.50126 0.0
C341 C 0.04704 0.40801 0.40759 0.0
C342 C 0.04351 0.43577 0.37488 0.0
C343 C 0.04291 0.45917 0.43418 0.0
H344 H 0.86134 0.06929 0.24632 0.0
H345 H 0.83016 0.98692 0.16811 0.0
H346 H 0.9029 0.06307 0.15374 0.0
H347 H 0.87263 0.98009 0.07724 0.0
H348 H 0.97019 0.97659 0.98271 0.0
H349 H 0.93033 0.97837 0.08646 0.0
H350 H 0.90714 0.05961 0.97941 0.0
H351 H 0.94622 0.0575 0.87506 0.0
C352 C 0.86365 0.04956 0.2106 0.0
C353 C 0.84214 0.02874 0.21449 0.0
C354 C 0.88748 0.04603 0.15701 0.0
C355 C 0.89115 0.02123 0.10654 0.0
C356 C 0.87062 0.9995 0.11496 0.0
C357 C 0.84632 1.00329 0.16763 0.0
C358 C 0.95652 0.99478 0.98124 0.0
C359 C 0.96158 1.01684 0.91986 0.0
C360 C 0.93354 0.99575 0.04051 0.0
C361 C 0.91535 1.01918 0.04192 0.0
C362 C 0.92064 0.04127 0.98099 0.0
C363 C 0.94308 0.03998 0.92053 0.0
H364 H 0.56603 0.81939 0.17477 0.0
H365 H 0.48322 0.85037 0.23396 0.0
H366 H 0.57397 0.86049 0.07634 0.0
H367 H 0.49054 0.89057 0.13392 0.0
H368 H 0.49849 0.93081 0.85173 0.0
H369 H 0.49582 0.89187 0.95874 0.0
H370 H 0.57576 0.91801 0.07866 0.0
H371 H 0.57819 0.95766 0.9726 0.0
C372 C 0.54983 0.83528 0.16841 0.0
C373 C 0.52394 0.83155 0.21196 0.0
C374 C 0.55424 0.8587 0.11151 0.0
C375 C 0.53267 0.87861 0.09586 0.0
C376 C 0.50741 0.87547 0.14306 0.0
C377 C 0.50327 0.85252 0.20083 0.0
C378 C 0.5157 0.92821 0.90017 0.0
C379 C 0.53859 0.9475 0.90294 0.0
C380 C 0.51406 0.90593 0.96209 0.0
C381 C 0.53551 0.9018 0.02775 0.0
C382 C 0.55891 0.92049 0.02892 0.0
C383 C 0.56025 0.94325 0.96813 0.0
H384 H 0.70898 0.47172 0.25678 0.0
H385 H 0.72597 0.56109 0.24068 0.0
H386 H 0.6678 0.47692 0.15642 0.0
H387 H 0.68392 0.56663 0.14191 0.0
H388 H 0.59053 0.56372 1.01839 0.0
H389 H 0.62963 0.5613 0.12955 0.0
H390 H 0.66197 0.4883 0.99395 0.0
H391 H 0.62339 0.49079 0.88323 0.0
C392 C 0.70366 0.49258 0.23251 0.0
C393 C 0.72094 0.51592 0.25615 0.0
C394 C 0.68005 0.49558 0.17486 0.0
C395 C 0.67262 0.52214 0.13989 0.0
C396 C 0.68893 0.54586 0.16765 0.0
C397 C 0.71293 0.54275 0.22469 0.0
C398 C 0.60603 0.5472 1.01218 0.0
C399 C 0.60366 0.52746 0.9414 0.0
C400 C 0.62852 0.54589 0.07581 0.0
C401 C 0.64893 0.52448 0.07135 0.0
C402 C 0.64652 0.50486 1.00045 0.0
C403 C 0.6244 0.50642 0.93634 0.0
H404 H 1.0136 0.68545 0.31219 0.0
H405 H 0.03683 0.73751 0.08916 0.0
H406 H 1.01716 0.64303 0.21787 0.0
H407 H 0.04125 0.69563 0.99504 0.0
H408 H 1.01493 0.62237 0.81536 0.0
H409 H 1.01413 0.66246 0.91682 0.0
H410 H 0.043 0.60939 0.13496 0.0
H411 H 0.04289 0.56876 0.03284 0.0
C412 C 1.02015 0.68773 0.24345 0.0
C413 C 0.02503 0.71489 0.20832 0.0
C414 C 1.02214 0.66337 0.18883 0.0
C415 C 0.02901 0.66544 0.09712 0.0
C416 C 0.03509 0.69274 0.0639 0.0
C417 C 0.03297 0.71693 0.11826 0.0
C418 C 1.02106 0.61904 0.88495 0.0
C419 C 0.02894 0.59197 0.91495 0.0
C420 C 1.02089 0.64235 0.94369 0.0
C421 C 0.02886 0.63979 0.0352 0.0
C422 C 0.03647 0.61257 0.06569 0.0
C423 C 0.03647 0.5891 1.00669 0.0
H424 H 1.00054 0.22344 0.20217 0.0
H425 H 0.09151 0.22294 0.21094 0.0
H426 H 0.99941 0.17189 0.19252 0.0
H427 H 0.09092 0.17114 0.19962 0.0
H428 H 0.06443 0.08162 0.31802 0.0
H429 H 0.07705 0.13012 0.28836 0.0
H430 H 1.01091 0.1343 0.08425 0.0
H431 H 0.99802 0.08514 0.11403 0.0
C432 C 1.02024 0.21197 0.20476 0.0
C433 C 0.04605 0.22665 0.20947 0.0
C434 C 1.01973 0.18267 0.19653 0.0
C435 C 0.04513 0.16753 0.19281 0.0
C436 C 0.07104 0.18225 0.20177 0.0
C437 C 0.07145 0.21166 0.21001 0.0
C438 C 0.05341 0.09217 0.26332 0.0
C439 C 0.02935 0.07984 0.22092 0.0
C440 C 0.06062 0.12026 0.24682 0.0
C441 C 0.04406 0.13632 0.18716 0.0
C442 C 0.02326 0.12259 0.13343 0.0
C443 C 1.01606 0.09441 0.14981 0.0
H444 H 0.32571 0.08719 0.05917 0.0
H445 H 0.32925 0.07492 0.34512 0.0
H446 H 0.37675 0.09696 0.06036 0.0
H447 H 0.37944 0.08525 0.348 0.0
H448 H 0.46554 0.0807 0.36182 0.0
H449 H 0.42417 0.10879 0.32403 0.0
H450 H 0.41084 0.05969 0.08236 0.0
H451 H 0.45199 0.03125 0.12175 0.0
C452 C 0.33722 0.08802 0.12275 0.0
C453 C 0.32387 0.07973 0.20183 0.0
C454 C 0.36639 0.09356 0.12355 0.0
C455 C 0.38241 0.09131 0.20391 0.0
C456 C 0.36798 0.08735 0.28467 0.0
C457 C 0.33902 0.08146 0.28346 0.0
C458 C 0.4546 0.07682 0.29835 0.0
C459 C 0.46127 0.05325 0.2458 0.0
C460 C 0.43074 0.09284 0.27693 0.0
C461 C 0.41327 0.08539 0.20285 0.0
C462 C 0.42321 0.06533 0.14164 0.0
C463 C 0.44679 0.04899 0.16385 0.0
H464 H 0.63377 0.28112 0.18862 0.0
H465 H 0.5622 0.33424 0.23738 0.0
H466 H 0.66611 0.3206 0.23012 0.0
H467 H 0.59397 0.37377 0.27163 0.0
H468 H 0.6717 0.39323 0.49725 0.0
H469 H 0.66368 0.35074 0.40668 0.0
H470 H 0.63918 0.40216 0.18026 0.0
H471 H 0.64648 0.4444 0.26985 0.0
C472 C 0.62508 0.30135 0.20662 0.0
C473 C 0.5956 0.30487 0.20965 0.0
C474 C 0.64345 0.32382 0.22923 0.0
C475 C 0.63238 0.35016 0.25211 0.0
C476 C 0.60295 0.35379 0.25197 0.0
C477 C 0.58478 0.33128 0.2322 0.0
C478 C 0.66598 0.39553 0.42688 0.0
C479 C 0.65873 0.42213 0.3918 0.0
C480 C 0.66169 0.37121 0.37486 0.0
C481 C 0.6503 0.3734 0.28747 0.0
C482 C 0.64794 0.40009 0.24773 0.0
C483 C 0.65222 0.42435 0.29948 0.0
H484 H 0.25521 0.57724 0.29127 0.0
H485 H 0.25388 0.58418 1.00306 0.0
H486 H 0.20868 0.59863 0.2959 0.0
H487 H 0.2058 0.6035 1.00679 0.0
H488 H 0.13107 0.64364 0.29866 0.0
H489 H 0.17911 0.64467 0.24472 0.0
H490 H 0.15999 0.57322 0.07324 0.0
H491 H 0.1114 0.57218 0.12657 0.0
C492 C 0.24536 0.58433 0.22915 0.0
C493 C 0.25798 0.57895 0.14685 0.0
C494 C 0.21863 0.59635 0.23157 0.0
C495 C 0.20372 0.60262 0.15158 0.0
C496 C 0.21696 0.59887 0.06924 0.0
C497 C 0.24424 0.5877 0.06714 0.0
C498 C 0.13645 0.62904 0.24591 0.0
C499 C 0.11754 0.60736 0.21844 0.0
C500 C 0.16412 0.62962 0.21544 0.0
C501 C 0.17324 0.60878 0.15625 0.0
C502 C 0.15337 0.58955 0.11901 0.0
C503 C 0.12565 0.58883 0.15002 0.0
H504 H 0.96832 0.81176 0.40777 0.0
H505 H 1.00142 0.81351 0.14116 0.0
H506 H 0.96248 0.86327 0.40315 0.0
H507 H 0.99337 0.86414 0.13295 0.0
H508 H 0.03353 0.94174 0.36024 0.0
H509 H 1.00964 0.89684 0.38965 0.0
H510 H 0.95756 0.90729 0.15118 0.0
H511 H 0.98112 0.95203 0.12166 0.0
C512 C 0.97315 0.82306 0.3469 0.0
C513 C 0.98596 0.80901 0.27561 0.0
C514 C 0.96962 0.85235 0.34406 0.0
C515 C 0.97754 0.86758 0.26785 0.0
C516 C 0.98678 0.85285 0.19221 0.0
C517 C 0.99125 0.82383 0.19645 0.0
C518 C 1.01602 0.93514 0.31665 0.0
C519 C 1.0097 0.95008 0.23747 0.0
C520 C 1.00223 0.90951 0.33378 0.0
C521 C 0.98221 0.89846 0.27162 0.0
C522 C 0.97303 0.91535 0.19978 0.0
C523 C 0.98654 0.94109 0.18322 0.0
H524 H 0.72151 0.04796 0.24861 0.0
H525 H 0.78023 0.11669 0.30027 0.0
H526 H 0.68308 0.08139 0.23002 0.0
H527 H 0.74165 0.15082 0.27574 0.0
H528 H 0.66292 0.16404 0.02953 0.0
H529 H 0.70691 0.1548 0.11248 0.0
H530 H 0.65935 0.12406 0.33595 0.0
H531 H 0.61566 0.13214 0.25362 0.0
C532 C 0.72598 0.07027 0.25756 0.0
C533 C 0.75354 0.07984 0.27706 0.0
C534 C 0.7041 0.0894 0.24706 0.0
C535 C 0.70945 0.11858 0.25348 0.0
C536 C 0.73707 0.12838 0.27216 0.0
C537 C 0.75899 0.10901 0.28522 0.0
C538 C 0.66176 0.15656 0.09798 0.0
C539 C 0.63582 0.14712 0.13242 0.0
C540 C 0.687 0.1516 0.14582 0.0
C541 C 0.68626 0.13778 0.22887 0.0
C542 C 0.66029 0.13435 0.27116 0.0
C543 C 0.63513 0.13906 0.22331 0.0
H544 H 0.50534 0.71167 0.26506 0.0
H545 H 0.43519 0.76829 0.29123 0.0
H546 H 0.47255 0.67236 0.23935 0.0
H547 H 0.40187 0.72887 0.25893 0.0
H548 H 0.39342 0.65334 1.0097 0.0
H549 H 0.40192 0.6963 0.09719 0.0
H550 H 0.4277 0.64625 0.32541 0.0
H551 H 0.42011 0.60355 0.23894 0.0
C552 C 0.48283 0.71547 0.26742 0.0
C553 C 0.47268 0.74275 0.28119 0.0
C554 C 0.46406 0.69308 0.25274 0.0
C555 C 0.43473 0.69765 0.2489 0.0
C556 C 0.42439 0.72489 0.26314 0.0
C557 C 0.44332 0.74729 0.28066 0.0
C558 C 0.39963 0.65142 0.0798 0.0
C559 C 0.40754 0.6251 0.11561 0.0
C560 C 0.40417 0.67604 0.13015 0.0
C561 C 0.41629 0.67435 0.21672 0.0
C562 C 0.41865 0.64792 0.25818 0.0
C563 C 0.41423 0.62337 0.20802 0.0
H564 H 0.80354 0.4392 0.353 0.0
H565 H 0.83823 0.52113 0.29092 0.0
H566 H 0.85119 0.41855 0.34329 0.0
H567 H 0.8855 0.50131 0.28479 0.0
H568 H 0.93067 0.40937 0.13653 0.0
H569 H 0.88525 0.41514 0.20657 0.0
H570 H 0.92243 0.47661 0.38933 0.0
H571 H 0.96833 0.47053 0.3201 0.0
C572 C 0.82147 0.45261 0.33749 0.0
C573 C 0.81772 0.48159 0.32299 0.0
C574 C 0.84854 0.44103 0.3332 0.0
C575 C 0.87201 0.45854 0.31602 0.0
C576 C 0.86793 0.4875 0.30113 0.0
C577 C 0.841 0.4988 0.30356 0.0
C578 C 0.92964 0.42298 0.19479 0.0
C579 C 0.95281 0.44024 0.22101 0.0
C580 C 0.90352 0.42626 0.2349 0.0
C581 C 0.90032 0.44688 0.30134 0.0
C582 C 0.92441 0.46094 0.33685 0.0
C583 C 0.95058 0.45754 0.29708 0.0
H584 H 0.08942 0.24147 0.03005 0.0
H585 H 0.99871 0.24557 1.01738 0.0
H586 H 0.08766 0.19669 0.94746 0.0
H587 H 0.99659 0.20087 0.93329 0.0
H588 H 1.00671 0.12369 0.73734 0.0
H589 H 1.00867 0.17247 0.79417 0.0
H590 H 0.07198 0.14835 0.99144 0.0
H591 H 0.06975 0.09987 0.93613 0.0
C592 C 0.06913 0.23357 1.00516 0.0
C593 C 0.04428 0.24768 0.02842 0.0
C594 C 0.06801 0.20746 0.95954 0.0
C595 C 0.04194 0.19464 0.93422 0.0
C596 C 1.01712 0.20994 0.95084 0.0
C597 C 1.01829 0.23592 0.9978 0.0
C598 C 1.02116 0.12878 0.79256 0.0
C599 C 0.03815 0.10749 0.83137 0.0
C600 C 1.0222 0.15684 0.82554 0.0
C601 C 0.0407 0.16475 0.89722 0.0
C602 C 0.05781 0.14347 0.93529 0.0
C603 C 0.05638 0.11542 0.90362 0.0
H604 H 0.29859 0.0339 0.97621 0.0
H605 H 0.3465 1.0178 0.21851 0.0
H606 H 0.34081 0.02618 0.88753 0.0
H607 H 0.38898 1.01105 0.13273 0.0
H608 H 0.46511 0.99421 0.96773 0.0
H609 H 0.4201 0.99115 0.04283 0.0
H610 H 0.38223 0.04387 0.83717 0.0
H611 H 0.42705 0.04461 0.75851 0.0
C612 C 0.31806 0.02782 1.01027 0.0
C613 C 0.31895 0.02592 0.10443 0.0
C614 C 0.34269 0.02401 0.95959 0.0
C615 C 0.36929 1.0184 1.00134 0.0
C616 C 0.36948 1.01499 0.09579 0.0
C617 C 0.34488 1.0187 0.14601 0.0
C618 C 0.44707 1.00492 0.93797 0.0
C619 C 0.44999 0.01976 0.85686 0.0
C620 C 0.42095 1.00341 0.98181 0.0
C621 C 0.39672 1.01761 0.94844 0.0
C622 C 0.39971 0.03217 0.86604 0.0
C623 C 0.42571 0.03287 0.82058 0.0
H624 H 0.50548 0.31462 0.13548 0.0
H625 H 0.58617 0.30223 1.01452 0.0
H626 H 0.4987 0.35765 0.04681 0.0
H627 H 0.58028 0.34571 0.92843 0.0
H628 H 0.55646 0.41879 0.74259 0.0
H629 H 0.5582 0.37208 0.81262 0.0
H630 H 0.51489 0.40472 0.04191 0.0
H631 H 0.51248 0.4508 0.97126 0.0
C632 C 0.52146 0.32072 0.08822 0.0
C633 C 0.54623 0.30474 0.08149 0.0
C634 C 0.51791 0.3458 0.03836 0.0
C635 C 0.53906 0.35578 0.9803 0.0
C636 C 0.56327 0.33896 0.97106 0.0
C637 C 0.56674 0.31392 0.02069 0.0
C638 C 0.54708 0.41596 0.8076 0.0
C639 C 0.53429 0.4389 0.8506 0.0
C640 C 0.54824 0.38907 0.8484 0.0
C641 C 0.53666 0.38415 0.93368 0.0
C642 C 0.52362 0.40711 0.97584 0.0
C643 C 0.52244 0.43387 0.93517 0.0
H644 H 0.23119 0.51497 0.17017 0.0
H645 H 0.27434 0.53365 0.92627 0.0
H646 H 0.18629 0.50953 0.08523 0.0
H647 H 0.22944 0.52877 0.84047 0.0
H648 H 0.13702 0.55916 0.75996 0.0
H649 H 0.18355 0.55832 0.83646 0.0
H650 H 0.16127 0.47952 0.96273 0.0
H651 H 0.1151 0.48006 0.88568 0.0
C652 C 0.23115 0.51682 0.09778 0.0
C653 C 0.25628 0.52408 0.05441 0.0
C654 C 0.20544 0.51404 0.04912 0.0
C655 C 0.20415 0.51893 0.95592 0.0
C656 C 0.22959 0.52507 0.91213 0.0
C657 C 0.25538 0.52736 0.96078 0.0
C658 C 0.14213 0.54152 0.80332 0.0
C659 C 0.12221 0.51963 0.81597 0.0
C660 C 0.16887 0.54097 0.84695 0.0
C661 C 0.17624 0.5188 0.9057 0.0
C662 C 0.15633 0.49695 0.91828 0.0
C663 C 0.12985 0.49722 0.87352 0.0
H664 H 0.0553 0.8229 0.31203 0.0
H665 H 1.00636 0.78579 0.52162 0.0
H666 H 0.06099 0.8666 0.40047 0.0
H667 H 1.01106 0.82973 0.60931 0.0
H668 H 0.99027 0.92731 0.65013 0.0
H669 H 0.99094 0.8808 0.57752 0.0
H670 H 0.0815 0.88747 0.55507 0.0
H671 H 0.08099 0.93363 0.63064 0.0
C672 C 0.04675 0.82371 0.37872 0.0
C673 C 0.03103 0.80053 0.41074 0.0
C674 C 0.04968 0.84889 0.42911 0.0
C675 C 0.03633 0.85196 0.51217 0.0
C676 C 1.02156 0.82831 0.5457 0.0
C677 C 1.01926 0.8029 0.49624 0.0
C678 C 1.01041 0.9188 0.63072 0.0
C679 C 0.0356 0.93436 0.64735 0.0
C680 C 1.01081 0.89197 0.58933 0.0
C681 C 0.03631 0.88008 0.56065 0.0
C682 C 0.06147 0.89579 0.57624 0.0
C683 C 0.06117 0.92228 0.62002 0.0
H684 H 0.75705 0.0702 0.46966 0.0
H685 H 0.74082 0.98983 0.34318 0.0
H686 H 0.71326 0.06587 0.55166 0.0
H687 H 0.69728 0.98441 0.42854 0.0
H688 H 0.60481 0.99685 0.51332 0.0
H689 H 0.65058 0.99811 0.44141 0.0
H690 H 0.68508 0.04803 0.66142 0.0
H691 H 0.63891 0.04762 0.73117 0.0
C692 C 0.74446 0.05108 0.46154 0.0
C693 C 0.75279 0.03032 0.39996 0.0
C694 C 0.71907 0.04849 0.50896 0.0
C695 C 0.70086 0.02481 0.49767 0.0
C696 C 0.71 1.00332 0.43889 0.0
C697 C 0.73544 1.00606 0.39087 0.0
C698 C 0.62214 1.00807 0.54681 0.0
C699 C 0.61767 0.02218 0.62874 0.0
C700 C 0.64878 1.00864 0.50543 0.0
C701 C 0.67232 0.02319 0.54432 0.0
C702 C 0.66785 0.03695 0.62715 0.0
C703 C 0.64113 0.03657 0.66813 0.0
H704 H 0.48086 0.74689 0.47332 0.0
H705 H 0.56339 0.73605 0.36361 0.0
H706 H 0.48644 0.7038 0.56079 0.0
H707 H 0.57009 0.69355 0.45495 0.0
H708 H 0.55923 0.60058 0.53529 0.0
H709 H 0.55692 0.64641 0.4629 0.0
H710 H 0.50536 0.67724 0.67681 0.0
H711 H 0.50675 0.63073 0.74731 0.0
C712 C 0.50064 0.73565 0.47014 0.0
C713 C 0.52166 0.74502 0.4114 0.0
C714 C 0.50396 0.71079 0.52071 0.0
C715 C 0.52866 0.69444 0.51533 0.0
C716 C 0.55043 0.70486 0.46019 0.0
C717 C 0.54693 0.72968 0.40888 0.0
C718 C 0.54747 0.6171 0.56751 0.0
C719 C 0.53315 0.61157 0.6477 0.0
C720 C 0.54631 0.64375 0.52592 0.0
C721 C 0.53099 0.66617 0.56309 0.0
C722 C 0.51705 0.66074 0.64436 0.0
C723 C 0.518 0.63392 0.68561 0.0
H724 H 0.81633 0.56315 0.40788 0.0
H725 H 0.80478 0.48196 0.53098 0.0
H726 H 0.86221 0.56871 0.4871 0.0
H727 H 0.85047 0.48701 0.60983 0.0
H728 H 0.93193 0.5087 0.76969 0.0
H729 H 0.88227 0.51018 0.71867 0.0
H730 H 0.90789 0.54664 0.46774 0.0
H731 H 0.9571 0.54549 0.51865 0.0
C732 C 0.823 0.54713 0.45535 0.0
C733 C 0.80673 0.52233 0.46434 0.0
C734 C 0.84961 0.54993 0.49932 0.0
C735 C 0.86051 0.52809 0.55418 0.0
C736 C 0.84297 0.5044 0.56898 0.0
C737 C 0.81655 0.50157 0.52451 0.0
C738 C 0.92697 0.51721 0.70388 0.0
C739 C 0.94881 0.52693 0.64864 0.0
C740 C 0.89841 0.51799 0.67437 0.0
C741 C 0.89076 0.52875 0.58901 0.0
C742 C 0.91263 0.53875 0.53448 0.0
C743 C 0.94108 0.53782 0.56364 0.0
loop_
_geom_bond_atom_site_label_1
_geom_bond_atom_site_label_2
_geom_bond_distance
_geom_bond_site_symmetry_2
_ccdc_geom_bond_type
C0 N1 1.317 . S
C0 N2 1.348 . S
C0 C3 1.485 . S
N1 C0 1.317 . S
N1 N5 1.370 . S
N2 C0 1.348 . S
N2 C4 1.346 . S
C3 C0 1.485 . S
C3 H7 0.960 . S
C3 H8 0.961 . S
C3 H9 0.960 . S
C4 N2 1.346 . S
C4 N5 1.307 . S
C4 C6 1.486 . S
N5 N1 1.370 . S
N5 C4 1.307 . S
C6 C4 1.486 . S
C6 H10 0.960 . S
C6 H11 0.960 . S
C6 H12 0.959 . S
H7 C3 0.960 . S
H8 C3 0.961 . S
H9 C3 0.960 . S
H10 C6 0.960 . S
H11 C6 0.960 . S
H12 C6 0.959 . S
C13 N14 1.317 . S
C13 N15 1.348 . S
C13 C16 1.485 . S
N14 C13 1.317 . S
N14 N18 1.370 . S
N15 C13 1.348 . S
N15 C17 1.346 . S
C16 C13 1.485 . S
C16 H20 0.960 . S
C16 H21 0.961 . S
C16 H22 0.960 . S
C17 N15 1.346 . S
C17 N18 1.307 . S
C17 C19 1.486 . S
N18 N14 1.370 . S
N18 C17 1.307 . S
C19 C17 1.486 . S
C19 H23 0.960 . S
C19 H24 0.960 . S
C19 H25 0.959 . S
H20 C16 0.960 . S
H21 C16 0.961 . S
H22 C16 0.960 . S
H23 C19 0.960 . S
H24 C19 0.960 . S
H25 C19 0.959 . S
C26 N27 1.317 . S
C26 N28 1.348 . S
C26 C29 1.485 . S
N27 C26 1.317 . S
N27 N31 1.370 . S
N28 C26 1.348 . S
N28 C30 1.346 . S
C29 C26 1.485 . S
C29 H33 0.960 . S
C29 H34 0.961 . S
C29 H35 0.960 . S
C30 N28 1.346 . S
C30 N31 1.307 . S
C30 C32 1.486 . S
N31 N27 1.370 . S
N31 C30 1.307 . S
C32 C30 1.486 . S
C32 H36 0.960 . S
C32 H37 0.960 . S
C32 H38 0.959 . S
H33 C29 0.960 . S
H34 C29 0.961 . S
H35 C29 0.960 . S
H36 C32 0.960 . S
H37 C32 0.960 . S
H38 C32 0.959 . S
C39 N40 1.317 . S
C39 N41 1.348 . S
C39 C42 1.485 . S
N40 C39 1.317 . S
N40 N44 1.370 . S
N41 C39 1.348 . S
N41 C43 1.346 . S
C42 C39 1.485 . S
C42 H46 0.960 . S
C42 H47 0.961 . S
C42 H48 0.960 . S
C43 N41 1.346 . S
C43 N44 1.307 . S
C43 C45 1.486 . S
N44 N40 1.370 . S
N44 C43 1.307 . S
C45 C43 1.486 . S
C45 H49 0.960 . S
C45 H50 0.960 . S
C45 H51 0.959 . S
H46 C42 0.960 . S
H47 C42 0.961 . S
H48 C42 0.960 . S
H49 C45 0.960 . S
H50 C45 0.960 . S
H51 C45 0.959 . S
C52 N53 1.317 . S
C52 N54 1.348 . S
C52 C55 1.485 1_554 S
N53 C52 1.317 . S
N53 N57 1.370 . S
N54 C52 1.348 . S
N54 C56 1.346 . S
C55 C52 1.485 1_556 S
C55 H59 0.960 . S
C55 H60 0.961 . S
C55 H61 0.960 . S
C56 N54 1.346 . S
C56 N57 1.307 . S
C56 C58 1.486 . S
N57 N53 1.370 . S
N57 C56 1.307 . S
C58 C56 1.486 . S
C58 H62 0.960 . S
C58 H63 0.960 . S
C58 H64 0.959 . S
H59 C55 0.960 . S
H60 C55 0.961 . S
H61 C55 0.960 . S
H62 C58 0.960 . S
H63 C58 0.960 . S
H64 C58 0.959 . S
C65 N66 1.317 1_556 S
C65 N67 1.348 1_556 S
C65 C68 1.485 . S
N66 C65 1.317 1_554 S
N66 N70 1.370 . S
N67 C65 1.348 1_554 S
N67 C69 1.346 . S
C68 C65 1.485 . S
C68 H72 0.960 . S
C68 H73 0.961 . S
C68 H74 0.960 . S
C69 N67 1.346 . S
C69 N70 1.307 . S
C69 C71 1.486 . S
N70 N66 1.370 . S
N70 C69 1.307 . S
C71 C69 1.486 . S
C71 H75 0.960 . S
C71 H76 0.960 . S
C71 H77 0.959 . S
H72 C68 0.960 . S
H73 C68 0.961 . S
H74 C68 0.960 . S
H75 C71 0.960 . S
H76 C71 0.960 . S
H77 C71 0.959 . S
C78 N79 1.317 . S
C78 N80 1.348 1_556 S
C78 C81 1.485 . S
N79 C78 1.317 . S
N79 N83 1.370 1_556 S
N80 C78 1.348 1_554 S
N80 C82 1.346 . S
C81 C78 1.485 . S
C81 H85 0.960 . S
C81 H86 0.961 . S
C81 H87 0.960 . S
C82 N80 1.346 . S
C82 N83 1.307 . S
C82 C84 1.486 . S
N83 N79 1.370 1_554 S
N83 C82 1.307 . S
C84 C82 1.486 . S
C84 H88 0.960 . S
C84 H89 0.960 . S
C84 H90 0.959 . S
H85 C81 0.960 . S
H86 C81 0.961 . S
H87 C81 0.960 . S
H88 C84 0.960 . S
H89 C84 0.960 . S
H90 C84 0.959 . S
C91 N92 1.317 . S
C91 N93 1.348 . S
C91 C94 1.485 1_554 S
N92 C91 1.317 . S
N92 N96 1.370 . S
N93 C91 1.348 . S
N93 C95 1.346 . S
C94 C91 1.485 1_556 S
C94 H98 0.960 . S
C94 H99 0.961 . S
C94 H100 0.960 . S
C95 N93 1.346 . S
C95 N96 1.307 . S
C95 C97 1.486 . S
N96 N92 1.370 . S
N96 C95 1.307 . S
C97 C95 1.486 . S
C97 H101 0.960 . S
C97 H102 0.960 . S
C97 H103 0.959 . S
H98 C94 0.960 . S
H99 C94 0.961 . S
H100 C94 0.960 . S
H101 C97 0.960 . S
H102 C97 0.960 . S
H103 C97 0.959 . S
Eu104 C113 2.828 . S
Eu104 O115 2.392 . S
Eu104 O117 2.418 1_545 S
Eu104 O122 2.373 1_655 S
Eu104 O125 2.488 . S
Eu104 O126 2.482 . S
Eu104 O127 2.349 1_655 S
Eu105 O114 2.373 1_455 S
Eu105 O118 2.488 . S
Eu105 O119 2.471 . S
Eu105 O120 2.349 . S
Eu105 O123 2.392 1_565 S
Eu105 O124 2.418 1_565 S
Eu105 C134 2.828 . S
C106 O124 1.244 . S
C106 O127 1.265 . S
C107 C108 1.379 1_655 S
C107 C111 1.373 . S
C107 C113 1.505 . S
C108 C107 1.379 1_455 S
C108 C110 1.369 . S
C108 H136 0.930 . S
C109 C111 1.383 . S
C109 C112 1.382 1_655 S
C109 H137 0.930 . S
C110 C108 1.369 . S
C110 C112 1.392 . S
C110 H138 0.930 . S
C111 C107 1.373 . S
C111 C109 1.383 . S
C111 H139 0.931 . S
C112 C109 1.382 1_455 S
C112 C110 1.392 . S
C113 Eu104 2.828 . S
C113 C107 1.505 . S
C113 O125 1.249 . S
C113 O126 1.253 . S
O114 Eu105 2.373 1_655 S
O114 C116 1.258 1_565 S
O115 Eu104 2.392 . S
O115 C116 1.242 . S
C116 O114 1.258 1_545 S
C116 O115 1.242 . S
O117 Eu104 2.418 1_565 S
O117 C121 1.244 . S
O118 Eu105 2.488 . S
O118 C134 1.249 . S
O119 Eu105 2.471 . S
O119 C134 1.244 . S
O120 Eu105 2.349 . S
O120 C121 1.265 1_455 S
C121 O117 1.244 . S
C121 O120 1.265 1_655 S
O122 Eu104 2.373 1_455 S
O122 C135 1.258 . S
O123 Eu105 2.392 1_545 S
O123 C135 1.242 . S
O124 Eu105 2.418 1_545 S
O124 C106 1.244 . S
O125 Eu104 2.488 . S
O125 C113 1.249 . S
O126 Eu104 2.482 . S
O126 C113 1.253 . S
O127 Eu104 2.349 1_455 S
O127 C106 1.265 . S
C128 C129 1.379 . S
C128 C132 1.373 . S
C128 C134 1.505 1_554 S
C129 C128 1.379 . S
C129 C131 1.369 . S
C129 H140 0.930 1_454 S
C130 C132 1.383 . S
C130 C133 1.382 . S
C130 H141 0.930 . S
C131 C129 1.369 . S
C131 C133 1.392 . S
C131 H142 0.930 1_455 S
C132 C128 1.373 . S
C132 C130 1.383 . S
C132 H143 0.931 . S
C133 C130 1.382 . S
C133 C131 1.392 . S
C134 Eu105 2.828 . S
C134 O118 1.249 . S
C134 O119 1.244 . S
C134 C128 1.505 1_556 S
C135 O122 1.258 . S
C135 O123 1.242 . S
H136 C108 0.930 . S
H137 C109 0.930 . S
H138 C110 0.930 . S
H139 C111 0.931 . S
H140 C129 0.930 1_656 S
H141 C130 0.930 . S
H142 C131 0.930 1_655 S
H143 C132 0.931 . S
Eu144 C153 2.828 . S
Eu144 O155 2.392 . S
Eu144 O157 2.418 . S
Eu144 O162 2.373 . S
Eu144 O165 2.488 . S
Eu144 O166 2.471 . S
Eu144 O167 2.349 1_545 S
Eu145 O154 2.373 1_565 S
Eu145 O158 2.488 . S
Eu145 O159 2.471 1_565 S
Eu145 O160 2.349 1_565 S
Eu145 O163 2.392 . S
Eu145 O164 2.418 . S
Eu145 C174 2.828 . S
C146 O164 1.244 . S
C146 O167 1.265 . S
C147 C148 1.379 . S
C147 C151 1.373 . S
C147 C153 1.505 . S
C148 C147 1.379 . S
C148 C150 1.369 1_556 S
C148 H176 0.930 1_545 S
C149 C151 1.383 1_554 S
C149 C152 1.382 . S
C149 H177 0.930 . S
C150 C148 1.369 1_554 S
C150 C152 1.392 . S
C150 H178 0.930 1_545 S
C151 C147 1.373 . S
C151 C149 1.383 1_556 S
C151 H179 0.931 . S
C152 C149 1.382 . S
C152 C150 1.392 . S
C153 Eu144 2.828 . S
C153 C147 1.505 . S
C153 O165 1.249 . S
C153 O166 1.244 . S
O154 Eu145 2.373 1_545 S
O154 C156 1.258 . S
O155 Eu144 2.392 . S
O155 C156 1.242 . S
C156 O154 1.258 . S
C156 O155 1.242 . S
O157 Eu144 2.418 . S
O157 C161 1.244 . S
O158 Eu145 2.488 . S
O158 C174 1.249 . S
O159 Eu145 2.471 1_545 S
O159 C174 1.244 1_545 S
O160 Eu145 2.349 1_545 S
O160 C161 1.265 . S
C161 O157 1.244 . S
C161 O160 1.265 . S
O162 Eu144 2.373 . S
O162 C175 1.258 1_545 S
O163 Eu145 2.392 . S
O163 C175 1.242 . S
O164 Eu145 2.418 . S
O164 C146 1.244 . S
O165 Eu144 2.488 . S
O165 C153 1.249 . S
O166 Eu144 2.471 . S
O166 C153 1.244 . S
O167 Eu144 2.349 1_565 S
O167 C146 1.265 . S
C168 C169 1.379 1_565 S
C168 C172 1.373 . S
C168 C174 1.505 . S
C169 C168 1.379 1_545 S
C169 C171 1.369 . S
C169 H180 0.930 . S
C170 C172 1.383 . S
C170 C173 1.382 . S
C170 H181 0.930 . S
C171 C169 1.369 . S
C171 C173 1.392 1_545 S
C171 H182 0.930 . S
C172 C168 1.373 . S
C172 C170 1.383 . S
C172 H183 0.931 . S
C173 C170 1.382 . S
C173 C171 1.392 1_565 S
C174 Eu145 2.828 . S
C174 O158 1.249 . S
C174 O159 1.244 1_565 S
C174 C168 1.505 . S
C175 O162 1.258 1_565 S
C175 O163 1.242 . S
H176 C148 0.930 1_565 S
H177 C149 0.930 . S
H178 C150 0.930 1_565 S
H179 C151 0.931 . S
H180 C169 0.930 . S
H181 C170 0.930 . S
H182 C171 0.930 . S
H183 C172 0.931 . S
Eu184 C193 2.828 . S
Eu184 O195 2.392 . S
Eu184 O197 2.418 . S
Eu184 O202 2.373 . S
Eu184 O205 2.488 . S
Eu184 O206 2.471 . S
Eu184 O207 2.349 . S
Eu185 O194 2.373 . S
Eu185 O198 2.488 . S
Eu185 O199 2.471 . S
Eu185 O200 2.349 . S
Eu185 O203 2.392 . S
Eu185 O204 2.418 . S
Eu185 C214 2.828 . S
C186 O204 1.244 . S
C186 O207 1.265 . S
C187 C188 1.379 . S
C187 C191 1.373 . S
C187 C193 1.505 . S
C188 C187 1.379 . S
C188 C190 1.369 1_556 S
C188 H216 0.930 . S
C189 C191 1.383 . S
C189 C192 1.382 1_556 S
C189 H217 0.930 1_556 S
C190 C188 1.369 1_554 S
C190 C192 1.392 . S
C190 H218 0.930 . S
C191 C187 1.373 . S
C191 C189 1.383 . S
C191 H219 0.931 . S
C192 C189 1.382 1_554 S
C192 C190 1.392 . S
C193 Eu184 2.828 . S
C193 C187 1.505 . S
C193 O205 1.249 . S
C193 O206 1.244 . S
O194 Eu185 2.373 . S
O194 C196 1.258 . S
O195 Eu184 2.392 . S
O195 C196 1.242 . S
C196 O194 1.258 . S
C196 O195 1.242 . S
O197 Eu184 2.418 . S
O197 C201 1.244 . S
O198 Eu185 2.488 . S
O198 C214 1.249 . S
O199 Eu185 2.471 . S
O199 C214 1.244 . S
O200 Eu185 2.349 . S
O200 C201 1.265 . S
C201 O197 1.244 . S
C201 O200 1.265 . S
O202 Eu184 2.373 . S
O202 C215 1.258 . S
O203 Eu185 2.392 . S
O203 C215 1.242 . S
O204 Eu185 2.418 . S
O204 C186 1.244 . S
O205 Eu184 2.488 . S
O205 C193 1.249 . S
O206 Eu184 2.471 . S
O206 C193 1.244 . S
O207 Eu184 2.349 . S
O207 C186 1.265 . S
C208 C209 1.379 . S
C208 C212 1.373 . S
C208 C214 1.505 . S
C209 C208 1.379 . S
C209 C211 1.369 . S
C209 H220 0.930 . S
C210 C212 1.383 . S
C210 C213 1.382 . S
C210 H221 0.930 . S
C211 C209 1.369 . S
C211 C213 1.392 . S
C211 H222 0.930 . S
C212 C208 1.373 . S
C212 C210 1.383 . S
C212 H223 0.931 . S
C213 C210 1.382 . S
C213 C211 1.392 . S
C214 Eu185 2.828 . S
C214 O198 1.249 . S
C214 O199 1.244 . S
C214 C208 1.505 . S
C215 O202 1.258 . S
C215 O203 1.242 . S
H216 C188 0.930 . S
H217 C189 0.930 1_554 S
H218 C190 0.930 . S
H219 C191 0.931 . S
H220 C209 0.930 . S
H221 C210 0.930 . S
H222 C211 0.930 . S
H223 C212 0.931 . S
Eu224 C233 2.828 . S
Eu224 O235 2.392 . S
Eu224 O237 2.418 1_455 S
Eu224 O242 2.373 . S
Eu224 O245 2.488 . S
Eu224 O246 2.471 . S
Eu224 O247 2.349 . S
Eu225 O234 2.373 . S
Eu225 O238 2.488 . S
Eu225 O239 2.471 . S
Eu225 O240 2.349 . S
Eu225 O243 2.392 1_655 S
Eu225 O244 2.418 1_655 S
Eu225 C254 2.828 . S
C226 O244 1.244 . S
C226 O247 1.265 . S
C227 C228 1.379 . S
C227 C231 1.373 . S
C227 C233 1.505 . S
C228 C227 1.379 . S
C228 C230 1.369 . S
C228 H256 0.930 . S
C229 C231 1.383 . S
C229 C232 1.382 . S
C229 H257 0.930 . S
C230 C228 1.369 . S
C230 C232 1.392 . S
C230 H258 0.930 . S
C231 C227 1.373 . S
C231 C229 1.383 . S
C231 H259 0.931 . S
C232 C229 1.382 . S
C232 C230 1.392 . S
C233 Eu224 2.828 . S
C233 C227 1.505 . S
C233 O245 1.249 . S
C233 O246 1.244 . S
O234 Eu225 2.373 . S
O234 C236 1.258 1_655 S
O235 Eu224 2.392 . S
O235 C236 1.242 . S
C236 O234 1.258 1_455 S
C236 O235 1.242 . S
O237 Eu224 2.418 1_655 S
O237 C241 1.244 . S
O238 Eu225 2.488 . S
O238 C254 1.249 . S
O239 Eu225 2.471 . S
O239 C254 1.244 . S
O240 Eu225 2.349 . S
O240 C241 1.265 . S
C241 O237 1.244 . S
C241 O240 1.265 . S
O242 Eu224 2.373 . S
O242 C255 1.258 . S
O243 Eu225 2.392 1_455 S
O243 C255 1.242 . S
O244 Eu225 2.418 1_455 S
O244 C226 1.244 . S
O245 Eu224 2.488 . S
O245 C233 1.249 . S
O246 Eu224 2.471 . S
O246 C233 1.244 . S
O247 Eu224 2.349 . S
O247 C226 1.265 . S
C248 C249 1.379 1_554 S
C248 C252 1.373 . S
C248 C254 1.505 1_554 S
C249 C248 1.379 1_556 S
C249 C251 1.369 1_556 S
C249 H260 0.930 . S
C250 C252 1.383 . S
C250 C253 1.382 . S
C250 H261 0.930 . S
C251 C249 1.369 1_554 S
C251 C253 1.392 . S
C251 H262 0.930 . S
C252 C248 1.373 . S
C252 C250 1.383 . S
C252 H263 0.931 . S
C253 C250 1.382 . S
C253 C251 1.392 . S
C254 Eu225 2.828 . S
C254 O238 1.249 . S
C254 O239 1.244 . S
C254 C248 1.505 1_556 S
C255 O242 1.258 . S
C255 O243 1.242 . S
H256 C228 0.930 . S
H257 C229 0.930 . S
H258 C230 0.930 . S
H259 C231 0.931 . S
H260 C249 0.930 . S
H261 C250 0.930 . S
H262 C251 0.930 . S
H263 C252 0.931 . S
H264 C272 0.950 . S
H265 C277 0.950 . S
H266 C274 0.950 . S
H267 C276 0.950 . S
H268 C278 0.950 . S
H269 C280 0.950 . S
H270 C282 0.950 . S
H271 C283 0.950 . S
C272 H264 0.950 . S
C272 C273 1.386 . S
C272 C274 1.391 . S
C273 C272 1.386 . S
C273 C277 1.393 . S
C274 H266 0.950 . S
C274 C272 1.391 . S
C274 C275 1.400 . S
C275 C274 1.400 . S
C275 C276 1.398 . S
C275 C281 1.491 . S
C276 H267 0.950 . S
C276 C275 1.398 . S
C276 C277 1.391 . S
C277 H265 0.950 . S
C277 C273 1.393 . S
C277 C276 1.391 . S
C278 H268 0.950 . S
C278 C279 1.386 . S
C278 C280 1.391 . S
C279 C278 1.386 . S
C279 C283 1.393 . S
C280 H269 0.950 . S
C280 C278 1.391 . S
C280 C281 1.400 . S
C281 C275 1.491 . S
C281 C280 1.400 . S
C281 C282 1.398 . S
C282 H270 0.950 . S
C282 C281 1.398 . S
C282 C283 1.391 . S
C283 H271 0.950 . S
C283 C279 1.393 . S
C283 C282 1.391 . S
H284 C292 0.950 . S
H285 C297 0.950 . S
H286 C294 0.950 . S
H287 C296 0.950 . S
H288 C298 0.950 . S
H289 C300 0.950 . S
H290 C302 0.950 . S
H291 C303 0.950 . S
C292 H284 0.950 . S
C292 C293 1.386 . S
C292 C294 1.391 . S
C293 C292 1.386 . S
C293 C297 1.393 . S
C294 H286 0.950 . S
C294 C292 1.391 . S
C294 C295 1.400 . S
C295 C294 1.400 . S
C295 C296 1.398 . S
C295 C301 1.491 . S
C296 H287 0.950 . S
C296 C295 1.398 . S
C296 C297 1.391 . S
C297 H285 0.950 . S
C297 C293 1.393 . S
C297 C296 1.391 . S
C298 H288 0.950 . S
C298 C299 1.386 . S
C298 C300 1.391 . S
C299 C298 1.386 . S
C299 C303 1.393 . S
C300 H289 0.950 . S
C300 C298 1.391 . S
C300 C301 1.400 . S
C301 C295 1.491 . S
C301 C300 1.400 . S
C301 C302 1.398 . S
C302 H290 0.950 . S
C302 C301 1.398 . S
C302 C303 1.391 . S
C303 H291 0.950 . S
C303 C299 1.393 . S
C303 C302 1.391 . S
H304 C312 0.950 . S
H305 C317 0.950 . S
H306 C314 0.950 . S
H307 C316 0.950 . S
H308 C318 0.950 . S
H309 C320 0.950 . S
H310 C322 0.950 . S
H311 C323 0.950 . S
C312 H304 0.950 . S
C312 C313 1.386 . S
C312 C314 1.391 . S
C313 C312 1.386 . S
C313 C317 1.393 . S
C314 H306 0.950 . S
C314 C312 1.391 . S
C314 C315 1.400 . S
C315 C314 1.400 . S
C315 C316 1.398 . S
C315 C321 1.491 . S
C316 H307 0.950 . S
C316 C315 1.398 . S
C316 C317 1.391 . S
C317 H305 0.950 . S
C317 C313 1.393 . S
C317 C316 1.391 . S
C318 H308 0.950 . S
C318 C319 1.386 . S
C318 C320 1.391 . S
C319 C318 1.386 . S
C319 C323 1.393 . S
C320 H309 0.950 . S
C320 C318 1.391 . S
C320 C321 1.400 . S
C321 C315 1.491 . S
C321 C320 1.400 . S
C321 C322 1.398 . S
C322 H310 0.950 . S
C322 C321 1.398 . S
C322 C323 1.391 . S
C323 H311 0.950 . S
C323 C319 1.393 . S
C323 C322 1.391 . S
H324 C332 0.950 . S
H325 C337 0.950 . S
H326 C334 0.950 . S
H327 C336 0.950 . S
H328 C338 0.950 . S
H329 C340 0.950 . S
H330 C342 0.950 . S
H331 C343 0.950 . S
C332 H324 0.950 . S
C332 C333 1.386 . S
C332 C334 1.391 . S
C333 C332 1.386 . S
C333 C337 1.393 . S
C334 H326 0.950 . S
C334 C332 1.391 . S
C334 C335 1.400 . S
C335 C334 1.400 . S
C335 C336 1.398 . S
C335 C341 1.491 . S
C336 H327 0.950 . S
C336 C335 1.398 . S
C336 C337 1.391 . S
C337 H325 0.950 . S
C337 C333 1.393 . S
C337 C336 1.391 . S
C338 H328 0.950 . S
C338 C339 1.386 . S
C338 C340 1.391 . S
C339 C338 1.386 . S
C339 C343 1.393 . S
C340 H329 0.950 . S
C340 C338 1.391 . S
C340 C341 1.400 . S
C341 C335 1.491 . S
C341 C340 1.400 . S
C341 C342 1.398 . S
C342 H330 0.950 . S
C342 C341 1.398 . S
C342 C343 1.391 . S
C343 H331 0.950 . S
C343 C339 1.393 . S
C343 C342 1.391 . S
H344 C352 0.950 . S
H345 C357 0.950 . S
H346 C354 0.950 . S
H347 C356 0.950 . S
H348 C358 0.950 . S
H349 C360 0.950 . S
H350 C362 0.950 . S
H351 C363 0.950 . S
C352 H344 0.950 . S
C352 C353 1.386 1_545 S
C352 C354 1.391 . S
C353 C352 1.386 1_565 S
C353 C357 1.393 . S
C354 H346 0.950 . S
C354 C352 1.391 . S
C354 C355 1.400 1_545 S
C355 C354 1.400 1_565 S
C355 C356 1.398 . S
C355 C361 1.491 . S
C356 H347 0.950 . S
C356 C355 1.398 . S
C356 C357 1.391 . S
C357 H345 0.950 . S
C357 C353 1.393 . S
C357 C356 1.391 . S
C358 H348 0.950 . S
C358 C359 1.386 . S
C358 C360 1.391 1_556 S
C359 C358 1.386 . S
C359 C363 1.393 1_565 S
C360 H349 0.950 . S
C360 C358 1.391 1_554 S
C360 C361 1.400 . S
C361 C355 1.491 . S
C361 C360 1.400 . S
C361 C362 1.398 1_565 S
C362 H350 0.950 . S
C362 C361 1.398 1_545 S
C362 C363 1.391 1_554 S
C363 H351 0.950 . S
C363 C359 1.393 1_545 S
C363 C362 1.391 1_556 S
H364 C372 0.950 . S
H365 C377 0.950 . S
H366 C374 0.950 . S
H367 C376 0.950 . S
H368 C378 0.950 . S
H369 C380 0.950 1_554 S
H370 C382 0.950 . S
H371 C383 0.950 . S
C372 H364 0.950 . S
C372 C373 1.386 . S
C372 C374 1.391 . S
C373 C372 1.386 . S
C373 C377 1.393 . S
C374 H366 0.950 . S
C374 C372 1.391 . S
C374 C375 1.400 . S
C375 C374 1.400 . S
C375 C376 1.398 . S
C375 C381 1.491 . S
C376 H367 0.950 . S
C376 C375 1.398 . S
C376 C377 1.391 . S
C377 H365 0.950 . S
C377 C373 1.393 . S
C377 C376 1.391 . S
C378 H368 0.950 . S
C378 C379 1.386 . S
C378 C380 1.391 . S
C379 C378 1.386 . S
C379 C383 1.393 . S
C380 H369 0.950 1_556 S
C380 C378 1.391 . S
C380 C381 1.400 1_556 S
C381 C375 1.491 . S
C381 C380 1.400 1_554 S
C381 C382 1.398 . S
C382 H370 0.950 . S
C382 C381 1.398 . S
C382 C383 1.391 1_554 S
C383 H371 0.950 . S
C383 C379 1.393 . S
C383 C382 1.391 1_556 S
H384 C392 0.950 . S
H385 C397 0.950 . S
H386 C394 0.950 . S
H387 C396 0.950 . S
H388 C398 0.950 . S
H389 C400 0.950 . S
H390 C402 0.950 . S
H391 C403 0.950 . S
C392 H384 0.950 . S
C392 C393 1.386 . S
C392 C394 1.391 . S
C393 C392 1.386 . S
C393 C397 1.393 . S
C394 H386 0.950 . S
C394 C392 1.391 . S
C394 C395 1.400 . S
C395 C394 1.400 . S
C395 C396 1.398 . S
C395 C401 1.491 . S
C396 H387 0.950 . S
C396 C395 1.398 . S
C396 C397 1.391 . S
C397 H385 0.950 . S
C397 C393 1.393 . S
C397 C396 1.391 . S
C398 H388 0.950 . S
C398 C399 1.386 . S
C398 C400 1.391 1_556 S
C399 C398 1.386 . S
C399 C403 1.393 . S
C400 H389 0.950 . S
C400 C398 1.391 1_554 S
C400 C401 1.400 . S
C401 C395 1.491 . S
C401 C400 1.400 . S
C401 C402 1.398 1_554 S
C402 H390 0.950 . S
C402 C401 1.398 1_556 S
C402 C403 1.391 . S
C403 H391 0.950 . S
C403 C399 1.393 . S
C403 C402 1.391 . S
H404 C412 0.950 . S
H405 C417 0.920 1_455 S
H406 C414 0.950 . S
H407 C416 0.950 . S
H408 C418 0.950 . S
H409 C420 0.950 . S
H410 C422 0.950 . S
H411 C423 0.950 . S
C412 H404 0.950 . S
C412 C413 1.386 . S
C412 C414 1.391 . S
C413 C412 1.386 . S
C413 C417 1.430 . S
C414 H406 0.950 . S
C414 C412 1.391 . S
C414 C415 1.400 . S
C415 C414 1.400 . S
C415 C416 1.398 1_655 S
C415 C421 1.491 . S
C416 H407 0.950 . S
C416 C415 1.398 1_455 S
C416 C417 1.384 1_455 S
C417 H405 0.920 1_655 S
C417 C413 1.430 . S
C417 C416 1.384 1_655 S
C418 H408 0.950 . S
C418 C419 1.386 1_455 S
C418 C420 1.391 1_556 S
C419 C418 1.386 1_655 S
C419 C423 1.393 . S
C420 H409 0.950 . S
C420 C418 1.391 1_554 S
C420 C421 1.400 1_455 S
C421 C415 1.491 . S
C421 C420 1.400 1_655 S
C421 C422 1.398 . S
C422 H410 0.950 . S
C422 C421 1.398 . S
C422 C423 1.391 1_554 S
C423 H411 0.950 . S
C423 C419 1.393 . S
C423 C422 1.391 1_556 S
H424 C432 0.950 . S
H425 C437 0.950 . S
H426 C434 0.950 . S
H427 C436 0.950 . S
H428 C438 0.950 . S
H429 C440 0.950 . S
H430 C442 0.950 1_655 S
H431 C443 0.950 . S
C432 H424 0.950 . S
C432 C433 1.386 . S
C432 C434 1.391 . S
C433 C432 1.386 . S
C433 C437 1.393 . S
C434 H426 0.950 . S
C434 C432 1.391 . S
C434 C435 1.400 . S
C435 C434 1.400 . S
C435 C436 1.398 . S
C435 C441 1.491 . S
C436 H427 0.950 . S
C436 C435 1.398 . S
C436 C437 1.391 . S
C437 H425 0.950 . S
C437 C433 1.393 . S
C437 C436 1.391 . S
C438 H428 0.950 . S
C438 C439 1.386 . S
C438 C440 1.391 . S
C439 C438 1.386 . S
C439 C443 1.393 1_455 S
C440 H429 0.950 . S
C440 C438 1.391 . S
C440 C441 1.400 . S
C441 C435 1.491 . S
C441 C440 1.400 . S
C441 C442 1.398 . S
C442 H430 0.950 1_455 S
C442 C441 1.398 . S
C442 C443 1.391 1_455 S
C443 H431 0.950 . S
C443 C439 1.393 1_655 S
C443 C442 1.391 1_655 S
H444 C452 0.950 1_556 S
H445 C457 0.950 . S
H446 C454 0.950 . S
H447 C456 0.950 . S
H448 C458 0.950 . S
H449 C460 0.950 . S
H450 C462 0.949 1_545 S
H451 C463 0.950 . S
C452 H444 0.950 1_554 S
C452 C453 1.386 . S
C452 C454 1.391 . S
C453 C452 1.386 . S
C453 C457 1.393 . S
C454 H446 0.950 . S
C454 C452 1.391 . S
C454 C455 1.400 . S
C455 C454 1.400 . S
C455 C456 1.398 . S
C455 C461 1.491 . S
C456 H447 0.950 . S
C456 C455 1.398 . S
C456 C457 1.391 . S
C457 H445 0.950 . S
C457 C453 1.393 . S
C457 C456 1.391 . S
C458 H448 0.950 . S
C458 C459 1.386 . S
C458 C460 1.391 1_565 S
C459 C458 1.386 . S
C459 C463 1.393 . S
C460 H449 0.950 . S
C460 C458 1.391 1_545 S
C460 C461 1.400 . S
C461 C455 1.491 . S
C461 C460 1.400 . S
C461 C462 1.394 1_545 S
C462 H450 0.949 1_565 S
C462 C461 1.394 1_565 S
C462 C463 1.396 . S
C463 H451 0.950 . S
C463 C459 1.393 . S
C463 C462 1.396 . S
H464 C472 0.950 . S
H465 C477 0.950 . S
H466 C474 0.950 . S
H467 C476 0.950 . S
H468 C478 0.950 . S
H469 C480 0.950 . S
H470 C482 0.950 . S
H471 C483 0.950 . S
C472 H464 0.950 . S
C472 C473 1.386 . S
C472 C474 1.391 . S
C473 C472 1.386 . S
C473 C477 1.393 . S
C474 H466 0.950 . S
C474 C472 1.391 . S
C474 C475 1.400 . S
C475 C474 1.400 . S
C475 C476 1.398 . S
C475 C481 1.491 . S
C476 H467 0.950 . S
C476 C475 1.398 . S
C476 C477 1.391 . S
C477 H465 0.950 . S
C477 C473 1.393 . S
C477 C476 1.391 . S
C478 H468 0.950 . S
C478 C479 1.386 . S
C478 C480 1.391 . S
C479 C478 1.386 . S
C479 C483 1.393 . S
C480 H469 0.950 . S
C480 C478 1.391 . S
C480 C481 1.400 . S
C481 C475 1.491 . S
C481 C480 1.400 . S
C481 C482 1.398 . S
C482 H470 0.950 . S
C482 C481 1.398 . S
C482 C483 1.391 . S
C483 H471 0.950 . S
C483 C479 1.393 . S
C483 C482 1.391 . S
H484 C492 0.950 . S
H485 C497 0.950 . S
H486 C494 0.950 . S
H487 C496 0.950 . S
H488 C498 0.950 . S
H489 C500 0.950 . S
H490 C502 0.950 . S
H491 C503 0.950 . S
C492 H484 0.950 . S
C492 C493 1.386 . S
C492 C494 1.391 . S
C493 C492 1.386 . S
C493 C497 1.393 . S
C494 H486 0.950 . S
C494 C492 1.391 . S
C494 C495 1.400 . S
C495 C494 1.400 . S
C495 C496 1.398 . S
C495 C501 1.491 . S
C496 H487 0.950 . S
C496 C495 1.398 . S
C496 C497 1.391 . S
C497 H485 0.950 . S
C497 C493 1.393 . S
C497 C496 1.391 . S
C498 H488 0.950 . S
C498 C499 1.386 . S
C498 C500 1.391 . S
C499 C498 1.386 . S
C499 C503 1.393 . S
C500 H489 0.950 . S
C500 C498 1.391 . S
C500 C501 1.400 . S
C501 C495 1.491 . S
C501 C500 1.400 . S
C501 C502 1.398 . S
C502 H490 0.950 . S
C502 C501 1.398 . S
C502 C503 1.391 . S
C503 H491 0.950 . S
C503 C499 1.393 . S
C503 C502 1.391 . S
H504 C512 0.950 . S
H505 C517 0.950 1_455 S
H506 C514 0.950 . S
H507 C516 0.950 . S
H508 C518 0.950 . S
H509 C520 0.950 . S
H510 C522 0.950 . S
H511 C523 0.950 . S
C512 H504 0.950 . S
C512 C513 1.386 . S
C512 C514 1.391 . S
C513 C512 1.386 . S
C513 C517 1.393 . S
C514 H506 0.950 . S
C514 C512 1.391 . S
C514 C515 1.400 . S
C515 C514 1.400 . S
C515 C516 1.398 1_655 S
C515 C521 1.491 . S
C516 H507 0.950 . S
C516 C515 1.398 1_455 S
C516 C517 1.391 1_455 S
C517 H505 0.950 1_655 S
C517 C513 1.393 . S
C517 C516 1.391 1_655 S
C518 H508 0.950 . S
C518 C519 1.386 . S
C518 C520 1.391 . S
C519 C518 1.386 . S
C519 C523 1.393 1_455 S
C520 H509 0.950 . S
C520 C518 1.391 . S
C520 C521 1.400 1_455 S
C521 C515 1.491 . S
C521 C520 1.400 1_655 S
C521 C522 1.398 . S
C522 H510 0.950 . S
C522 C521 1.398 . S
C522 C523 1.391 . S
C523 H511 0.950 . S
C523 C519 1.393 1_655 S
C523 C522 1.391 . S
H524 C532 0.950 . S
H525 C537 0.950 . S
H526 C534 0.950 . S
H527 C536 0.950 . S
H528 C538 0.950 . S
H529 C540 0.950 . S
H530 C542 0.950 . S
H531 C543 0.950 1_565 S
C532 H524 0.950 . S
C532 C533 1.386 . S
C532 C534 1.391 . S
C533 C532 1.386 . S
C533 C537 1.393 1_565 S
C534 H526 0.950 . S
C534 C532 1.391 . S
C534 C535 1.393 1_565 S
C535 C534 1.393 1_545 S
C535 C536 1.403 . S
C535 C541 1.493 . S
C536 H527 0.950 . S
C536 C535 1.403 . S
C536 C537 1.391 . S
C537 H525 0.950 . S
C537 C533 1.393 1_545 S
C537 C536 1.391 . S
C538 H528 0.950 . S
C538 C539 1.386 . S
C538 C540 1.391 . S
C539 C538 1.386 . S
C539 C543 1.393 . S
C540 H529 0.950 . S
C540 C538 1.391 . S
C540 C541 1.400 . S
C541 C535 1.493 . S
C541 C540 1.400 . S
C541 C542 1.398 1_545 S
C542 H530 0.950 . S
C542 C541 1.398 1_565 S
C542 C543 1.391 1_565 S
C543 H531 0.950 1_545 S
C543 C539 1.393 . S
C543 C542 1.391 1_545 S
H544 C552 0.950 . S
H545 C557 0.950 . S
H546 C554 0.950 . S
H547 C556 0.950 . S
H548 C558 0.950 . S
H549 C560 0.950 . S
H550 C562 0.950 . S
H551 C563 0.950 . S
C552 H544 0.950 . S
C552 C553 1.386 . S
C552 C554 1.391 . S
C553 C552 1.386 . S
C553 C557 1.393 . S
C554 H546 0.950 . S
C554 C552 1.391 . S
C554 C555 1.400 . S
C555 C554 1.400 . S
C555 C556 1.398 . S
C555 C561 1.491 . S
C556 H547 0.950 . S
C556 C555 1.398 . S
C556 C557 1.391 . S
C557 H545 0.950 . S
C557 C553 1.393 . S
C557 C556 1.391 . S
C558 H548 0.950 . S
C558 C559 1.386 . S
C558 C560 1.391 . S
C559 C558 1.386 . S
C559 C563 1.393 . S
C560 H549 0.950 . S
C560 C558 1.391 . S
C560 C561 1.400 . S
C561 C555 1.491 . S
C561 C560 1.400 . S
C561 C562 1.398 . S
C562 H550 0.950 . S
C562 C561 1.398 . S
C562 C563 1.391 . S
C563 H551 0.950 . S
C563 C559 1.393 . S
C563 C562 1.391 . S
H564 C572 0.950 . S
H565 C577 0.950 . S
H566 C574 0.950 . S
H567 C576 0.950 . S
H568 C578 0.950 . S
H569 C580 0.950 . S
H570 C582 0.950 . S
H571 C583 0.950 . S
C572 H564 0.950 . S
C572 C573 1.386 . S
C572 C574 1.391 . S
C573 C572 1.386 . S
C573 C577 1.393 . S
C574 H566 0.950 . S
C574 C572 1.391 . S
C574 C575 1.400 . S
C575 C574 1.400 . S
C575 C576 1.398 . S
C575 C581 1.491 . S
C576 H567 0.950 . S
C576 C575 1.398 . S
C576 C577 1.391 . S
C577 H565 0.950 . S
C577 C573 1.393 . S
C577 C576 1.391 . S
C578 H568 0.950 . S
C578 C579 1.386 . S
C578 C580 1.391 . S
C579 C578 1.386 . S
C579 C583 1.393 . S
C580 H569 0.950 . S
C580 C578 1.391 . S
C580 C581 1.400 . S
C581 C575 1.491 . S
C581 C580 1.400 . S
C581 C582 1.398 . S
C582 H570 0.950 . S
C582 C581 1.398 . S
C582 C583 1.391 . S
C583 H571 0.950 . S
C583 C579 1.393 . S
C583 C582 1.391 . S
H584 C592 0.950 . S
H585 C597 0.950 1_554 S
H586 C594 0.950 . S
H587 C596 0.950 . S
H588 C598 0.950 1_655 S
H589 C600 0.950 . S
H590 C602 0.950 . S
H591 C603 0.950 . S
C592 H584 0.950 . S
C592 C593 1.386 . S
C592 C594 1.391 . S
C593 C592 1.386 . S
C593 C597 1.393 . S
C594 H586 0.950 . S
C594 C592 1.391 . S
C594 C595 1.400 . S
C595 C594 1.400 . S
C595 C596 1.398 . S
C595 C601 1.491 . S
C596 H587 0.950 . S
C596 C595 1.398 . S
C596 C597 1.391 . S
C597 H585 0.950 1_556 S
C597 C593 1.393 . S
C597 C596 1.391 . S
C598 H588 0.950 1_455 S
C598 C599 1.386 . S
C598 C600 1.391 . S
C599 C598 1.386 . S
C599 C603 1.393 . S
C600 H589 0.950 . S
C600 C598 1.391 . S
C600 C601 1.400 . S
C601 C595 1.491 . S
C601 C600 1.400 . S
C601 C602 1.398 . S
C602 H590 0.950 . S
C602 C601 1.398 . S
C602 C603 1.391 . S
C603 H591 0.950 . S
C603 C599 1.393 . S
C603 C602 1.391 . S
H604 C612 0.950 . S
H605 C617 0.950 1_554 S
H606 C614 0.950 . S
H607 C616 0.946 1_554 S
H608 C618 0.950 . S
H609 C620 0.950 . S
H610 C622 0.950 . S
H611 C623 0.950 . S
C612 H604 0.950 . S
C612 C613 1.386 . S
C612 C614 1.391 . S
C613 C612 1.386 . S
C613 C617 1.393 . S
C614 H606 0.950 . S
C614 C612 1.391 . S
C614 C615 1.400 . S
C615 C614 1.400 . S
C615 C616 1.398 . S
C615 C621 1.491 . S
C616 H607 0.946 1_556 S
C616 C615 1.398 . S
C616 C617 1.391 . S
C617 H605 0.950 1_556 S
C617 C613 1.393 . S
C617 C616 1.391 . S
C618 H608 0.950 . S
C618 C619 1.386 . S
C618 C620 1.391 . S
C619 C618 1.386 . S
C619 C623 1.393 . S
C620 H609 0.950 . S
C620 C618 1.391 . S
C620 C621 1.400 . S
C621 C615 1.491 . S
C621 C620 1.400 . S
C621 C622 1.398 . S
C622 H610 0.950 . S
C622 C621 1.398 . S
C622 C623 1.391 . S
C623 H611 0.950 . S
C623 C619 1.393 . S
C623 C622 1.391 . S
H624 C632 0.950 . S
H625 C637 0.950 1_554 S
H626 C634 0.950 . S
H627 C636 0.950 . S
H628 C638 0.950 . S
H629 C640 0.950 . S
H630 C642 0.950 . S
H631 C643 0.950 . S
C632 H624 0.950 . S
C632 C633 1.386 . S
C632 C634 1.391 . S
C633 C632 1.386 . S
C633 C637 1.393 . S
C634 H626 0.950 . S
C634 C632 1.391 . S
C634 C635 1.400 . S
C635 C634 1.400 . S
C635 C636 1.398 . S
C635 C641 1.491 . S
C636 H627 0.950 . S
C636 C635 1.398 . S
C636 C637 1.391 . S
C637 H625 0.950 1_556 S
C637 C633 1.393 . S
C637 C636 1.391 . S
C638 H628 0.950 . S
C638 C639 1.386 . S
C638 C640 1.391 . S
C639 C638 1.386 . S
C639 C643 1.393 . S
C640 H629 0.950 . S
C640 C638 1.391 . S
C640 C641 1.400 . S
C641 C635 1.491 . S
C641 C640 1.400 . S
C641 C642 1.398 . S
C642 H630 0.950 . S
C642 C641 1.398 . S
C642 C643 1.391 . S
C643 H631 0.950 . S
C643 C639 1.393 . S
C643 C642 1.391 . S
H644 C652 0.950 . S
H645 C657 0.950 . S
H646 C654 0.950 . S
H647 C656 0.950 1_554 S
H648 C658 0.950 . S
H649 C660 0.950 . S
H650 C662 0.950 . S
H651 C663 0.950 . S
C652 H644 0.950 . S
C652 C653 1.386 . S
C652 C654 1.391 . S
C653 C652 1.386 . S
C653 C657 1.393 1_556 S
C654 H646 0.950 . S
C654 C652 1.391 . S
C654 C655 1.400 . S
C655 C654 1.400 . S
C655 C656 1.398 . S
C655 C661 1.491 . S
C656 H647 0.950 1_556 S
C656 C655 1.398 . S
C656 C657 1.391 1_556 S
C657 H645 0.950 . S
C657 C653 1.393 1_554 S
C657 C656 1.391 1_554 S
C658 H648 0.950 . S
C658 C659 1.386 . S
C658 C660 1.391 . S
C659 C658 1.386 . S
C659 C663 1.393 . S
C660 H649 0.950 . S
C660 C658 1.391 . S
C660 C661 1.400 . S
C661 C655 1.491 . S
C661 C660 1.400 . S
C661 C662 1.398 . S
C662 H650 0.950 . S
C662 C661 1.398 . S
C662 C663 1.391 . S
C663 H651 0.950 . S
C663 C659 1.393 . S
C663 C662 1.391 . S
H664 C672 0.950 1_455 S
H665 C677 0.950 . S
H666 C674 0.950 . S
H667 C676 0.950 . S
H668 C678 0.950 . S
H669 C680 0.950 . S
H670 C682 0.950 . S
H671 C683 0.950 . S
C672 H664 0.950 1_655 S
C672 C673 1.386 . S
C672 C674 1.391 1_655 S
C673 C672 1.386 . S
C673 C677 1.393 . S
C674 H666 0.950 . S
C674 C672 1.391 1_455 S
C674 C675 1.400 1_455 S
C675 C674 1.400 1_655 S
C675 C676 1.398 . S
C675 C681 1.491 . S
C676 H667 0.950 . S
C676 C675 1.398 . S
C676 C677 1.391 . S
C677 H665 0.950 . S
C677 C673 1.393 . S
C677 C676 1.391 . S
C678 H668 0.950 . S
C678 C679 1.386 . S
C678 C680 1.391 . S
C679 C678 1.386 . S
C679 C683 1.393 1_655 S
C680 H669 0.950 . S
C680 C678 1.391 . S
C680 C681 1.400 . S
C681 C675 1.491 . S
C681 C680 1.400 . S
C681 C682 1.398 1_655 S
C682 H670 0.950 . S
C682 C681 1.398 1_455 S
C682 C683 1.391 . S
C683 H671 0.950 . S
C683 C679 1.393 1_455 S
C683 C682 1.391 . S
H684 C692 0.950 1_545 S
H685 C697 0.950 . S
H686 C694 0.933 1_545 S
H687 C696 0.950 . S
H688 C698 0.950 . S
H689 C700 0.950 . S
H690 C702 0.952 1_545 S
H691 C703 0.950 . S
C692 H684 0.950 1_565 S
C692 C693 1.386 . S
C692 C694 1.393 . S
C693 C692 1.386 . S
C693 C697 1.393 . S
C694 H686 0.933 1_565 S
C694 C692 1.393 . S
C694 C695 1.416 . S
C695 C694 1.416 . S
C695 C696 1.398 . S
C695 C701 1.491 . S
C696 H687 0.950 . S
C696 C695 1.398 . S
C696 C697 1.391 . S
C697 H685 0.950 . S
C697 C693 1.393 . S
C697 C696 1.391 . S
C698 H688 0.950 . S
C698 C699 1.386 . S
C698 C700 1.391 . S
C699 C698 1.386 . S
C699 C703 1.393 1_565 S
C700 H689 0.950 . S
C700 C698 1.391 . S
C700 C701 1.400 . S
C701 C695 1.491 . S
C701 C700 1.400 . S
C701 C702 1.396 . S
C702 H690 0.952 1_565 S
C702 C701 1.396 . S
C702 C703 1.391 1_565 S
C703 H691 0.950 . S
C703 C699 1.393 1_545 S
C703 C702 1.391 1_545 S
H704 C712 0.950 . S
H705 C717 0.950 . S
H706 C714 0.950 . S
H707 C716 0.950 . S
H708 C718 0.950 . S
H709 C720 0.950 . S
H710 C722 0.950 . S
H711 C723 0.950 . S
C712 H704 0.950 . S
C712 C713 1.386 . S
C712 C714 1.391 . S
C713 C712 1.386 . S
C713 C717 1.393 . S
C714 H706 0.950 . S
C714 C712 1.391 . S
C714 C715 1.400 . S
C715 C714 1.400 . S
C715 C716 1.398 . S
C715 C721 1.491 . S
C716 H707 0.950 . S
C716 C715 1.398 . S
C716 C717 1.391 . S
C717 H705 0.950 . S
C717 C713 1.393 . S
C717 C716 1.391 . S
C718 H708 0.950 . S
C718 C719 1.386 . S
C718 C720 1.391 . S
C719 C718 1.386 . S
C719 C723 1.393 . S
C720 H709 0.950 . S
C720 C718 1.391 . S
C720 C721 1.400 . S
C721 C715 1.491 . S
C721 C720 1.400 . S
C721 C722 1.398 . S
C722 H710 0.950 . S
C722 C721 1.398 . S
C722 C723 1.391 . S
C723 H711 0.950 . S
C723 C719 1.393 . S
C723 C722 1.391 . S
H724 C732 0.950 . S
H725 C737 0.950 . S
H726 C734 0.950 . S
H727 C736 0.950 . S
H728 C738 0.950 . S
H729 C740 0.950 . S
H730 C742 0.950 . S
H731 C743 0.950 . S
C732 H724 0.950 . S
C732 C733 1.386 . S
C732 C734 1.391 . S
C733 C732 1.386 . S
C733 C737 1.393 . S
C734 H726 0.950 . S
C734 C732 1.391 . S
C734 C735 1.400 . S
C735 C734 1.400 . S
C735 C736 1.398 . S
C735 C741 1.491 . S
C736 H727 0.950 . S
C736 C735 1.398 . S
C736 C737 1.391 . S
C737 H725 0.950 . S
C737 C733 1.393 . S
C737 C736 1.391 . S
C738 H728 0.950 . S
C738 C739 1.386 . S
C738 C740 1.391 . S
C739 C738 1.386 . S
C739 C743 1.393 . S
C740 H729 0.950 . S
C740 C738 1.391 . S
C740 C741 1.400 . S
C741 C735 1.491 . S
C741 C740 1.400 . S
C741 C742 1.398 . S
C742 H730 0.950 . S
C742 C741 1.398 . S
C742 C743 1.391 . S
C743 H731 0.950 . S
C743 C739 1.393 . S
C743 C742 1.391 . S
C273 N80 2.189 . S
C279 C135 2.292 . S
C299 C161 1.872 . S
C293 N93 1.785 . S
C319 C201 1.950 . S
C313 N54 1.880 . S
C339 C255 2.346 . S
C333 N67 2.243 . S
C359 C116 2.295 1_565 S
C353 N28 2.197 . S
C373 N41 1.764 . S
C379 C146 1.878 . S
C393 N2 1.879 . S
C399 C186 1.957 . S
C413 N15 2.247 . S
C419 C236 2.343 1_655 S
C439 C112 0.492 . S
C433 N70 0.495 . S
C459 C173 0.608 . S
C453 N83 0.617 . S
C479 C213 0.518 . S
C473 N96 0.512 . S
C493 N57 0.390 . S
C499 C232 0.469 . S
C513 N18 0.476 . S
C519 C133 0.476 . S
C539 C152 0.593 . S
C533 N31 0.599 . S
C559 C192 0.509 . S
C553 N44 0.505 . S
C573 N5 0.349 . S
C579 C253 0.436 . S
C593 N66 1.985 1_556 S
C599 C106 2.095 . S
C613 N79 2.472 . S
C619 C156 2.554 . S
C639 C196 2.363 . S
C633 N92 2.289 1_556 S
C659 C226 1.883 . S
C653 N53 1.794 1_556 S
C673 N14 1.995 . S
C679 C121 2.095 . S
C699 C175 2.559 . S
C693 N27 2.473 . S
C719 C215 2.364 . S
C713 N40 2.276 . S
C733 N1 1.813 . S
C739 C241 1.883 . S
