# Generated by pormake.
# Topology anh, (6,3)-cn, num edge types: 1
# Building blocks:
#     Node 0, Type 0, BuildingBlock: BETDIP_clean_sbu_0, # of connection points: 6
#     Node 1, Type 0, BuildingBlock: BETDIP_clean_sbu_0, # of connection points: 6
#     Node 2, Type 0, BuildingBlock: BETDIP_clean_sbu_0, # of connection points: 6
#     Node 3, Type 1, BuildingBlock: BETDAH_clean_linker_0, # of connection points: 3
#     Node 4, Type 1, BuildingBlock: BETDAH_clean_linker_0, # of connection points: 3
#     Node 5, Type 1, BuildingBlock: BETDAH_clean_linker_0, # of connection points: 3
#     Node 6, Type 1, BuildingBlock: BETDAH_clean_linker_0, # of connection points: 3
#     Node 7, Type 1, BuildingBlock: BETDAH_clean_linker_0, # of connection points: 3
#     Node 8, Type 1, BuildingBlock: BETDAH_clean_linker_0, # of connection points: 3
#     Edge 9, Type (0, 1), BuildingBlock: ZUJKAS_clean_linker_0, # of connection points: 2
#     Edge 10, Type (0, 1), BuildingBlock: ZUJKAS_clean_linker_0, # of connection points: 2
#     Edge 11, Type (0, 1), BuildingBlock: ZUJKAS_clean_linker_0, # of connection points: 2
#     Edge 12, Type (0, 1), BuildingBlock: ZUJKAS_clean_linker_0, # of connection points: 2
#     Edge 13, Type (0, 1), BuildingBlock: ZUJKAS_clean_linker_0, # of connection points: 2
#     Edge 14, Type (0, 1), BuildingBlock: ZUJKAS_clean_linker_0, # of connection points: 2
#     Edge 15, Type (0, 1), BuildingBlock: ZUJKAS_clean_linker_0, # of connection points: 2
#     Edge 16, Type (0, 1), BuildingBlock: ZUJKAS_clean_linker_0, # of connection points: 2
#     Edge 17, Type (0, 1), BuildingBlock: ZUJKAS_clean_linker_0, # of connection points: 2
#     Edge 18, Type (0, 1), BuildingBlock: ZUJKAS_clean_linker_0, # of connection points: 2
#     Edge 19, Type (0, 1), BuildingBlock: ZUJKAS_clean_linker_0, # of connection points: 2
#     Edge 20, Type (0, 1), BuildingBlock: ZUJKAS_clean_linker_0, # of connection points: 2
#     Edge 21, Type (0, 1), BuildingBlock: ZUJKAS_clean_linker_0, # of connection points: 2
#     Edge 22, Type (0, 1), BuildingBlock: ZUJKAS_clean_linker_0, # of connection points: 2
#     Edge 23, Type (0, 1), BuildingBlock: ZUJKAS_clean_linker_0, # of connection points: 2
#     Edge 24, Type (0, 1), BuildingBlock: ZUJKAS_clean_linker_0, # of connection points: 2
#     Edge 25, Type (0, 1), BuildingBlock: ZUJKAS_clean_linker_0, # of connection points: 2
#     Edge 26, Type (0, 1), BuildingBlock: ZUJKAS_clean_linker_0, # of connection points: 2
# Relax obj value: 0.186
# Max RMSD: 0.144
# Mean RMSD: 0.111
data_MOF--net-anh--node1-BETDIP_clean_sbu_0--node2-BETDAH_clean_linker_0--edge1-ZUJKAS_clean_linker_0
_symmetry_space_group_name_H-M    P1
_symmetry_Int_Tables_number       1
_symmetry_cell_setting            triclinic
loop_
_symmetry_equiv_pos_as_xyz
'x, y, z'
_cell_length_a     40.42623
_cell_length_b     40.482309
_cell_length_c     64.186166
_cell_angle_alpha  92.448556
_cell_angle_beta   91.484149
_cell_angle_gamma 119.88844
loop_
_atom_site_label
_atom_site_type_symbol
_atom_site_fract_x
_atom_site_fract_y
_atom_site_fract_z
_atom_type_partial_charge
Tb0 Tb 0.12064 0.61334 0.16124 0.0
Tb1 Tb 0.08189 0.531 0.15034 0.0
C2 C 0.1626 0.67782 0.17943 0.0
C3 C 0.2031 0.7067 0.17888 0.0
C4 C 0.22078 0.73378 0.1957 0.0
C5 C 0.25836 0.76339 0.19467 0.0
C6 C 0.27874 0.76646 0.17673 0.0
C7 C 0.26136 0.7384 0.16019 0.0
C8 C 0.22384 0.70855 0.16132 0.0
C9 C 0.10787 0.5948 0.12108 0.0
C10 C 0.17249 0.57204 0.15288 0.0
C11 C 1.03755 0.46629 0.13297 0.0
C12 C 0.99579 0.44641 0.12943 0.0
C13 C 0.97856 0.42696 0.11012 0.0
C14 C 0.93924 0.41146 0.10599 0.0
C15 C 0.91666 0.4154 0.12113 0.0
C16 C 0.93415 0.43463 0.14052 0.0
C17 C 0.97325 0.45015 0.14458 0.0
C18 C 0.09426 0.54972 0.19102 0.0
C19 C 1.03108 0.57343 0.15376 0.0
O20 O 0.15515 0.6459 0.18764 0.0
O21 O 0.14193 0.67217 0.1622 0.0
O22 O 0.11819 0.57969 0.1345 0.0
O23 O 0.10696 0.62381 0.12974 0.0
O24 O 0.17085 0.60298 0.15971 0.0
O25 O 0.1402 0.54019 0.14678 0.0
O26 O 1.0559 0.497 0.12271 0.0
O27 O 1.05061 0.47164 0.15243 0.0
O28 O 0.08353 0.56484 0.1776 0.0
O29 O 0.09654 0.52184 0.18182 0.0
O30 O 1.03405 0.54387 0.14619 0.0
O31 O 1.06156 0.60307 0.16349 0.0
H32 H 0.20516 0.73265 0.20937 0.0
H33 H 0.27085 0.78489 0.20754 0.0
H34 H 0.27653 0.74 0.14626 0.0
H35 H 0.21066 0.68754 0.14826 0.0
H36 H 0.99565 0.42445 0.09809 0.0
H37 H 0.92667 0.39704 0.09086 0.0
H38 H 0.91759 0.43753 0.15272 0.0
H39 H 0.98592 0.46559 0.15949 0.0
Tb40 Tb 0.59832 0.06102 0.49698 0.0
Tb41 Tb 0.55373 0.09756 0.4848 0.0
C42 C 0.6245 1.02699 0.51753 0.0
C43 C 0.61707 0.9885 0.52143 0.0
C44 C 0.62678 0.98196 0.54131 0.0
C45 C 0.62644 0.94803 0.54476 0.0
C46 C 0.61645 0.92005 0.52833 0.0
C47 C 0.6042 0.92562 0.50875 0.0
C48 C 0.60444 0.95963 0.50532 0.0
C49 C 0.59127 0.06525 0.4567 0.0
C50 C 0.50499 1.00733 0.48716 0.0
C51 C 0.53153 0.13811 0.46759 0.0
C52 C 0.55162 0.17976 0.46679 0.0
C53 C 0.5462 0.19684 0.44946 0.0
C54 C 0.56869 0.23635 0.44789 0.0
C55 C 0.59717 0.25895 0.46349 0.0
C56 C 0.602 0.24161 0.48091 0.0
C57 C 0.57951 0.20247 0.48253 0.0
C58 C 0.56255 0.09426 0.52558 0.0
C59 C 0.64719 0.14925 0.48869 0.0
O60 O 0.6007 1.03703 0.52498 0.0
O61 O 0.6349 1.03868 0.49885 0.0
O62 O 0.56621 0.05809 0.46969 0.0
O63 O 0.62114 0.06714 0.46591 0.0
O64 O 0.53757 1.01057 0.49526 0.0
O65 O 0.50554 1.03807 0.48007 0.0
O66 O 0.54776 0.12159 0.45767 0.0
O67 O 0.52148 0.12514 0.48607 0.0
O68 O 0.58745 0.10186 0.51232 0.0
O69 O 0.53193 0.09032 0.5162 0.0
O70 O 0.61396 0.14501 0.48145 0.0
O71 O 0.64733 0.1206 0.4981 0.0
H72 H 0.6366 1.00396 0.55391 0.0
H73 H 0.63648 0.94491 0.55996 0.0
H74 H 0.59593 0.90437 0.49587 0.0
H75 H 0.59646 0.96403 0.48988 0.0
H76 H 0.52517 0.17959 0.43702 0.0
H77 H 0.56439 0.24908 0.43432 0.0
H78 H 0.62317 0.25837 0.49339 0.0
H79 H 0.58446 0.18984 0.49595 0.0
Tb80 Tb 0.57588 0.59281 0.82676 0.0
Tb81 Tb 0.65838 0.63635 0.82012 0.0
C82 C 0.51261 0.56831 0.84283 0.0
C83 C 0.48008 0.57491 0.84401 0.0
C84 C 0.46457 0.57349 0.86343 0.0
C85 C 0.42944 0.57194 0.86469 0.0
C86 C 0.4091 0.57156 0.84649 0.0
C87 C 0.42609 0.57592 0.8272 0.0
C88 C 0.4614 0.57766 0.82596 0.0
C89 C 0.59296 0.59761 0.78753 0.0
C90 C 0.61664 0.68552 0.82079 0.0
C91 C 0.72246 0.65603 0.80615 0.0
C92 C 0.74418 0.63573 0.80626 0.0
C93 C 0.75748 0.62856 0.78757 0.0
C94 C 0.77259 0.60406 0.78687 0.0
C95 C 0.77446 0.5863 0.80487 0.0
C96 C 0.76238 0.59471 0.8237 0.0
C97 C 0.74719 0.61892 0.82436 0.0
C98 C 0.64126 0.63 0.85989 0.0
C99 C 0.61632 0.54323 0.8209 0.0
O100 O 0.54502 0.59396 0.85237 0.0
O101 O 0.51711 0.55505 0.82481 0.0
O102 O 0.60873 0.62331 0.80196 0.0
O103 O 0.56395 0.56805 0.79447 0.0
O104 O 0.58601 0.65329 0.82622 0.0
O105 O 0.64812 0.68471 0.81597 0.0
O106 O 0.69063 0.63883 0.79455 0.0
O107 O 0.71808 0.66889 0.82435 0.0
O108 O 0.62535 0.60443 0.84524 0.0
O109 O 0.66953 0.65973 0.8526 0.0
O110 O 0.64615 0.57575 0.81559 0.0
O111 O 0.58643 0.54406 0.82855 0.0
H112 H 0.47853 0.57129 0.87752 0.0
H113 H 0.41698 0.56818 0.87976 0.0
H114 H 0.41124 0.57613 0.81296 0.0
H115 H 0.47302 0.57913 0.81079 0.0
H116 H 0.75485 0.64078 0.77336 0.0
H117 H 0.7815 0.59797 0.77212 0.0
H118 H 0.76418 0.58215 0.83794 0.0
H119 H 0.73668 0.62343 0.83894 0.0
H120 H 0.53594 0.11645 0.24432 0.0
H121 H 0.56029 0.23176 0.25737 0.0
H122 H 0.53455 0.18256 0.19418 0.0
C123 C 0.53977 0.14306 0.23889 0.0
C124 C 0.53464 0.14602 0.21751 0.0
C125 C 0.54867 0.17355 0.25344 0.0
C126 C 0.55328 0.20787 0.24634 0.0
C127 C 0.54909 0.21158 0.22494 0.0
C128 C 0.53924 0.18037 0.21061 0.0
N129 N 0.55495 0.24688 0.21812 0.0
C130 C 0.5709 0.26003 0.19919 0.0
H131 H 0.75727 0.57975 0.58644 0.0
H132 H 0.81795 0.69994 0.60429 0.0
H133 H 0.83587 0.65997 0.54512 0.0
C134 C 0.7784 0.60868 0.58331 0.0
C135 C 0.79592 0.61598 0.56408 0.0
C136 C 0.78651 0.63868 0.59811 0.0
C137 C 0.81273 0.67624 0.59354 0.0
C138 C 0.83059 0.68378 0.5745 0.0
C139 C 0.82272 0.65368 0.56002 0.0
N140 N 0.85166 0.7217 0.56848 0.0
C141 C 0.83281 0.74222 0.56661 0.0
H142 H 0.93068 0.42075 0.91115 0.0
H143 H 0.99266 0.36309 0.92594 0.0
H144 H 0.93402 0.34092 0.86593 0.0
C145 C 0.93921 0.39995 0.90698 0.0
C146 C 0.92905 0.38122 0.88694 0.0
C147 C 0.96187 0.39341 0.9213 0.0
C148 C 0.97381 0.36732 0.91547 0.0
C149 C 0.96342 0.34821 0.8956 0.0
C150 C 0.94081 0.35489 0.88149 0.0
N151 N 0.98027 0.32673 0.88865 0.0
C152 C 1.01887 0.34618 0.88505 0.0
H153 H 0.15251 0.64697 0.4162 0.0
H154 H 1.04813 0.54144 0.42367 0.0
H155 H 0.11387 0.61457 0.47782 0.0
C156 C 0.13195 0.62707 0.42639 0.0
C157 C 0.13809 0.63602 0.44811 0.0
C158 C 0.10018 0.5932 0.41739 0.0
C159 C 0.07255 0.56732 0.4305 0.0
C160 C 0.07676 0.57428 0.4524 0.0
C161 C 0.11015 0.60873 0.46105 0.0
N162 N 1.04862 0.54788 0.46612 0.0
C163 C 1.01361 0.51245 0.46177 0.0
H164 H 0.60847 0.18472 0.74968 0.0
H165 H 0.60579 0.07841 0.75838 0.0
H166 H 0.61417 0.15128 0.81189 0.0
C167 C 0.60889 0.16461 0.76015 0.0
C168 C 0.61182 0.17331 0.78186 0.0
C169 C 0.60638 0.13064 0.75151 0.0
C170 C 0.60765 0.10441 0.76495 0.0
C171 C 0.61041 0.1111 0.78682 0.0
C172 C 0.61202 0.14566 0.79512 0.0
N173 N 0.61161 0.08421 0.8008 0.0
C174 C 0.61062 0.04866 0.79651 0.0
H175 H 0.68317 0.58643 0.08033 0.0
H176 H 0.57753 0.58454 0.09025 0.0
H177 H 0.6426 0.57708 0.14253 0.0
C178 C 0.66273 0.58562 0.09118 0.0
C179 C 0.66871 0.58259 0.11264 0.0
C180 C 0.63044 0.58656 0.083 0.0
C181 C 0.60216 0.5836 0.09651 0.0
C182 C 0.60585 0.58017 0.11807 0.0
C183 C 0.63929 0.57943 0.12596 0.0
N184 N 0.57711 0.57772 0.13215 0.0
C185 C 0.54269 0.57892 0.12819 0.0
H186 H 0.2474 0.63334 0.1605 0.0
H187 H 0.30854 0.6352 0.15573 0.0
H188 H 0.24761 0.51583 0.13564 0.0
H189 H 0.18684 0.51411 0.13992 0.0
H190 H 0.34691 0.60446 0.17188 0.0
H191 H 0.31742 0.54932 0.08948 0.0
H192 H 0.28667 0.5626 0.10279 0.0
H193 H 0.28216 0.51648 0.10583 0.0
C194 C 0.24679 0.60737 0.15498 0.0
C195 C 0.21116 0.57359 0.15054 0.0
C196 C 0.28226 0.60845 0.15223 0.0
C197 C 0.28404 0.57592 0.14472 0.0
C198 C 0.24836 0.54203 0.14072 0.0
H199 H 0.46861 0.51974 0.11972 0.0
H200 H 0.40819 0.5198 0.12377 0.0
C201 C 0.213 0.54095 0.14343 0.0
C202 C 0.32258 0.57716 0.14152 0.0
H203 H 0.3715 0.55189 0.10678 0.0
C204 C 0.35206 0.59313 0.15751 0.0
C205 C 0.33078 0.56255 0.1229 0.0
C206 C 0.30278 0.54714 0.10419 0.0
C207 C 0.38771 0.59395 0.15574 0.0
C208 C 0.39581 0.57915 0.13716 0.0
C209 C 0.36638 0.56329 0.12115 0.0
C210 C 0.43398 0.57955 0.13408 0.0
C211 C 0.41588 0.60961 0.17436 0.0
C212 C 0.47013 0.61306 0.13785 0.0
C213 C 0.50506 0.61301 0.13542 0.0
C214 C 0.50575 0.57959 0.12885 0.0
C215 C 0.4698 0.54626 0.12463 0.0
C216 C 0.43483 0.5463 0.12703 0.0
H217 H 0.40152 0.60831 0.18908 0.0
H218 H 0.4315 0.59369 0.17599 0.0
H219 H 0.43694 0.64001 0.17238 0.0
H220 H 0.47157 0.63971 0.14266 0.0
H221 H 0.53177 0.63935 0.13895 0.0
H222 H 0.65935 0.21449 0.46898 0.0
H223 H 0.71927 0.27364 0.46393 0.0
H224 H 0.78188 0.23072 0.49762 0.0
H225 H 0.72218 0.1713 0.50225 0.0
H226 H 0.77305 0.33193 0.48639 0.0
H227 H 0.84916 0.26457 0.45057 0.0
H228 H 0.79905 0.2375 0.45532 0.0
H229 H 0.83461 0.24836 0.47606 0.0
C230 C 0.68577 0.21732 0.47533 0.0
C231 C 0.68488 0.18694 0.48602 0.0
C232 C 0.7206 0.25173 0.47241 0.0
C233 C 0.75664 0.25772 0.47983 0.0
C234 C 0.7556 0.22762 0.49089 0.0
H235 H 1.00073 0.44671 0.4797 0.0
H236 H 0.94001 0.38762 0.48376 0.0
C237 C 0.7208 0.19318 0.49379 0.0
C238 C 0.79456 0.29515 0.47636 0.0
H239 H 0.88689 0.33071 0.46063 0.0
C240 C 0.79769 0.33126 0.48062 0.0
C241 C 0.82788 0.29597 0.46875 0.0
C242 C 0.82751 0.25957 0.4622 0.0
C243 C 0.83208 0.36673 0.47823 0.0
C244 C 0.86551 0.36754 0.47077 0.0
C245 C 0.86227 0.33141 0.46641 0.0
C246 C 0.90382 0.40486 0.46771 0.0
C247 C 0.83231 0.40315 0.48456 0.0
C248 C 0.90585 0.43563 0.45685 0.0
C249 C 0.94117 0.46994 0.45448 0.0
C250 C 0.97645 0.47514 0.46257 0.0
C251 C 0.97466 0.44425 0.47301 0.0
C252 C 0.9394 0.41001 0.4754 0.0
H253 H 0.81024 0.39819 0.4959 0.0
H254 H 0.86059 0.42517 0.49167 0.0
H255 H 0.82575 0.41442 0.47054 0.0
H256 H 0.87998 0.43324 0.44998 0.0
H257 H 0.94072 0.49265 0.44638 0.0
H258 H 0.55619 0.70024 0.82608 0.0
H259 H 0.55452 0.75946 0.82134 0.0
H260 H 0.67254 0.81581 0.80603 0.0
H261 H 0.67402 0.75681 0.81026 0.0
H262 H 0.58693 0.8295 0.83878 0.0
H263 H 0.6362 0.85007 0.7586 0.0
H264 H 0.62357 0.80677 0.77128 0.0
H265 H 0.67018 0.84839 0.77635 0.0
C266 C 0.58187 0.7251 0.8216 0.0
C267 C 0.61518 0.72264 0.81847 0.0
C268 C 0.58093 0.75949 0.81887 0.0
C269 C 0.6131 0.79319 0.8127 0.0
C270 C 0.64655 0.79082 0.81003 0.0
H271 H 0.66916 1.03299 0.79045 0.0
H272 H 0.66907 0.97263 0.79438 0.0
C273 C 0.6475 0.75656 0.81271 0.0
C274 C 0.61199 0.83049 0.80951 0.0
H275 H 0.63536 0.90276 0.77594 0.0
C276 C 0.59733 0.84511 0.82488 0.0
C277 C 0.62543 0.85222 0.79153 0.0
C278 C 0.63936 0.83841 0.77341 0.0
C279 C 0.5967 0.87997 0.82315 0.0
C280 C 0.61032 0.90178 0.80521 0.0
C281 C 0.62488 0.88711 0.78982 0.0
C282 C 0.60992 0.93947 0.80216 0.0
C283 C 0.58255 0.89372 0.84118 0.0
C284 C 0.57672 0.94249 0.80455 0.0
C285 C 0.57678 0.97739 0.80218 0.0
C286 C 0.60988 1.01105 0.79705 0.0
C287 C 0.64287 1.00802 0.79421 0.0
C288 C 0.64282 0.97307 0.79655 0.0
H289 H 0.58487 0.8815 0.85595 0.0
H290 H 0.59879 0.92533 0.84353 0.0
H291 H 0.55195 0.8844 0.83791 0.0
H292 H 0.5503 0.91765 0.80822 0.0
H293 H 0.55071 0.97806 0.80463 0.0
H294 H 1.0085 0.62228 0.17237 0.0
H295 H 0.94798 0.62209 0.1678 0.0
H296 H 0.90625 0.52556 0.12314 0.0
H297 H 0.9658 0.52449 0.1286 0.0
H298 H 0.9116 0.63546 0.14158 0.0
H299 H 0.81113 0.48316 0.15047 0.0
H300 H 0.8618 0.50339 0.15544 0.0
H301 H 0.84074 0.48877 0.12913 0.0
C302 C 0.98634 0.60057 0.16172 0.0
C303 C 0.99289 0.57316 0.1511 0.0
C304 C 0.9512 0.60054 0.15899 0.0
C305 C 0.9206 0.57327 0.14536 0.0
C306 C 0.92756 0.54628 0.13444 0.0
H307 H 0.74142 0.62249 0.09736 0.0
H308 H 0.79847 0.61894 0.10519 0.0
C309 C 0.96246 0.54592 0.13743 0.0
C310 C 0.88277 0.57426 0.14216 0.0
H311 H 0.78422 0.51856 0.13607 0.0
C312 C 0.88397 0.60961 0.14055 0.0
C313 C 0.84537 0.54123 0.14108 0.0
C314 C 0.83958 0.50209 0.14436 0.0
C315 C 0.8505 0.61283 0.13759 0.0
C316 C 0.81331 0.57968 0.13527 0.0
C317 C 0.81193 0.54436 0.1374 0.0
C318 C 0.7762 0.58111 0.13038 0.0
C319 C 0.85581 0.65246 0.13773 0.0
C320 C 0.74214 0.56007 0.14107 0.0
C321 C 0.708 0.56126 0.1361 0.0
C322 C 0.70599 0.58323 0.12 0.0
C323 C 0.74033 0.60447 0.10959 0.0
C324 C 0.77402 0.60304 0.11442 0.0
H325 H 0.88198 0.67333 0.14719 0.0
H326 H 0.85929 0.66179 0.12153 0.0
H327 H 0.83104 0.65344 0.14411 0.0
H328 H 0.74182 0.54254 0.15341 0.0
H329 H 0.68281 0.54407 0.14459 0.0
H330 H 0.48725 0.936 0.50182 0.0
H331 H 0.42707 0.87432 0.49708 0.0
H332 H 0.37632 0.92738 0.46185 0.0
H333 H 0.43592 0.98865 0.46655 0.0
H334 H 0.35115 0.84717 0.50798 0.0
H335 H 0.35002 0.83676 0.42187 0.0
H336 H 0.39169 0.87106 0.43768 0.0
H337 H 0.35324 0.88024 0.43215 0.0
C338 C 0.46341 0.93475 0.493 0.0
C339 C 0.46755 0.96834 0.48457 0.0
C340 C 0.4285 0.899 0.4903 0.0
C341 C 0.39612 0.89479 0.4787 0.0
C342 C 0.40024 0.92846 0.47047 0.0
H343 H 0.16426 0.70818 0.43402 0.0
H344 H 0.22422 0.7676 0.44242 0.0
C345 C 0.43485 0.96413 0.47334 0.0
C346 C 0.35841 0.85593 0.47525 0.0
H347 H 0.2933 0.79229 0.43708 0.0
C348 C 0.33879 0.83524 0.4924 0.0
C349 C 0.341 0.83917 0.45507 0.0
C350 C 0.36016 0.85767 0.43561 0.0
C351 C 0.30288 0.8002 0.49007 0.0
C352 C 0.28535 0.7834 0.46983 0.0
C353 C 0.3054 0.80402 0.45272 0.0
C354 C 0.24635 0.74566 0.46584 0.0
C355 C 0.28342 0.78258 0.50962 0.0
C356 C 0.23641 0.71164 0.47605 0.0
C357 C 0.20094 0.67697 0.47139 0.0
C358 C 0.17381 0.67424 0.456 0.0
C359 C 0.18369 0.70829 0.44599 0.0
C360 C 0.21871 0.74283 0.45078 0.0
H361 H 0.29326 0.80414 0.52304 0.0
H362 H 0.2519 0.76906 0.5074 0.0
H363 H 0.29059 0.76047 0.51376 0.0
H364 H 0.25662 0.71124 0.48725 0.0
H365 H 0.19554 0.65177 0.47927 0.0
H366 H 0.56443 0.47086 0.83376 0.0
H367 H 0.56495 0.41059 0.8293 0.0
H368 H 0.66824 0.46739 0.7962 0.0
H369 H 0.66866 0.52782 0.80149 0.0
H370 H 0.55695 0.36175 0.80087 0.0
H371 H 0.70473 0.41465 0.83059 0.0
H372 H 0.68336 0.44435 0.83207 0.0
H373 H 0.70426 0.43975 0.80836 0.0
C374 C 0.58762 0.47084 0.82571 0.0
C375 C 0.6167 0.50531 0.81826 0.0
C376 C 0.58784 0.43578 0.82303 0.0
C377 C 0.61711 0.43307 0.81273 0.0
C378 C 0.64577 0.4675 0.80492 0.0
H379 H 0.65829 0.24568 0.76835 0.0
H380 H 0.65862 0.30549 0.77653 0.0
C381 C 0.6458 0.50263 0.8078 0.0
C382 C 0.61699 0.39462 0.80982 0.0
H383 H 0.67431 0.35355 0.81183 0.0
C384 C 0.58278 0.36034 0.80355 0.0
C385 C 0.65009 0.39093 0.81322 0.0
C386 C 0.68754 0.4243 0.82165 0.0
C387 C 0.58104 0.32426 0.80013 0.0
C388 C 0.61433 0.32092 0.80303 0.0
C389 C 0.64845 0.35503 0.80939 0.0
C390 C 0.61473 0.28309 0.79889 0.0
C391 C 0.54337 0.28998 0.79271 0.0
C392 C 0.59086 0.2492 0.80896 0.0
C393 C 0.59105 0.21437 0.80444 0.0
C394 C 0.61484 0.21159 0.78948 0.0
C395 C 0.63928 0.24581 0.77989 0.0
C396 C 0.63949 0.28056 0.7846 0.0
H397 H 0.52297 0.29834 0.78635 0.0
H398 H 0.54743 0.27229 0.78048 0.0
H399 H 0.53034 0.27213 0.80606 0.0
H400 H 0.57181 0.24952 0.8204 0.0
H401 H 0.57151 0.1892 0.81221 0.0
H402 H 0.65023 0.89378 0.50131 0.0
H403 H 0.67584 0.85213 0.50876 0.0
H404 H 0.62772 0.83402 0.56924 0.0
H405 H 0.60169 0.87573 0.56183 0.0
H406 H 0.70498 0.86279 0.57134 0.0
H407 H 0.63615 0.73881 0.51361 0.0
H408 H 0.65389 0.7834 0.50165 0.0
H409 H 0.61605 0.76903 0.51942 0.0
C410 C 0.64375 0.87979 0.51587 0.0
C411 C 0.6241 0.88823 0.53104 0.0
C412 C 0.65845 0.85593 0.52011 0.0
C413 C 0.65351 0.83983 0.5395 0.0
C414 C 0.63178 0.84616 0.55416 0.0
H415 H 0.75769 0.70276 0.57118 0.0
H416 H 0.71173 0.725 0.56607 0.0
C417 C 0.61705 0.87006 0.54993 0.0
C418 C 0.6757 0.82136 0.5455 0.0
H419 H 0.69691 0.75293 0.52945 0.0
C420 C 0.70279 0.83837 0.56239 0.0
C421 C 0.67269 0.78944 0.53387 0.0
C422 C 0.64284 0.76886 0.51626 0.0
C423 C 0.72805 0.82531 0.56742 0.0
C424 C 0.72652 0.79485 0.55503 0.0
C425 C 0.69834 0.77669 0.53872 0.0
C426 C 0.75436 0.78184 0.55855 0.0
C427 C 0.75636 0.8444 0.58585 0.0
C428 C 0.79343 0.80647 0.5559 0.0
C429 C 0.8196 0.79382 0.55883 0.0
C430 C 0.80683 0.75647 0.56438 0.0
C431 C 0.76791 0.73184 0.56702 0.0
C432 C 0.74176 0.74442 0.56406 0.0
H433 H 0.74734 0.86003 0.59682 0.0
H434 H 0.76006 0.82318 0.59451 0.0
H435 H 0.78451 0.86531 0.58018 0.0
H436 H 0.80355 0.83526 0.5513 0.0
H437 H 0.84959 0.81297 0.55655 0.0
H438 H 0.83585 0.5909 0.785 0.0
H439 H 0.86184 0.54776 0.78749 0.0
H440 H 0.77139 0.47751 0.82691 0.0
H441 H 0.74409 0.51881 0.82351 0.0
H442 H 0.88886 0.5367 0.82323 0.0
H443 H 0.77544 0.39732 0.78969 0.0
H444 H 0.77418 0.44066 0.78594 0.0
H445 H 0.75548 0.41453 0.80891 0.0
C446 C 0.82087 0.56557 0.79364 0.0
C447 C 0.78819 0.55847 0.80426 0.0
C448 C 0.83579 0.54104 0.79509 0.0
C449 C 0.81808 0.50898 0.80705 0.0
C450 C 0.7848 0.50131 0.81705 0.0
H451 H 0.86644 0.38922 0.89151 0.0
H452 H 0.84058 0.41673 0.86715 0.0
C453 C 0.76971 0.52545 0.81545 0.0
C454 C 0.83675 0.48643 0.81173 0.0
H455 H 0.81615 0.39505 0.81855 0.0
C456 C 0.87349 0.50575 0.82159 0.0
C457 C 0.81671 0.44603 0.80954 0.0
C458 C 0.77843 0.42362 0.79772 0.0
C459 C 0.8893 0.48572 0.83092 0.0
C460 C 0.86779 0.44546 0.83029 0.0
C461 C 0.8323 0.426 0.81915 0.0
C462 C 0.87994 0.42383 0.84324 0.0
C463 C 0.92771 0.50767 0.84269 0.0
C464 C 0.90993 0.41799 0.83751 0.0
C465 C 0.92469 0.40226 0.85137 0.0
C466 C 0.90976 0.39243 0.87117 0.0
C467 C 0.87859 0.39679 0.87642 0.0
C468 C 0.86371 0.41226 0.86251 0.0
H469 H 0.94018 0.53906 0.84231 0.0
H470 H 0.92491 0.50008 0.85923 0.0
H471 H 0.94787 0.49972 0.83578 0.0
H472 H 0.92281 0.42694 0.8227 0.0
H473 H 0.94901 0.3996 0.84702 0.0
H474 H 0.30294 0.81102 0.14352 0.0
H475 H 0.35859 0.87508 0.14325 0.0
H476 H 0.3946 0.86424 0.20519 0.0
H477 H 0.33888 0.8002 0.20559 0.0
H478 H 0.37808 0.9228 0.20181 0.0
H479 H 0.47643 0.92925 0.14117 0.0
H480 H 0.42657 0.90492 0.13292 0.0
H481 H 0.4432 0.88531 0.15243 0.0
C482 C 0.3235 0.82173 0.15676 0.0
C483 C 0.31643 0.80089 0.17469 0.0
C484 C 0.35537 0.85829 0.15654 0.0
C485 C 0.38074 0.87429 0.17416 0.0
C486 C 0.37535 0.85228 0.19141 0.0
H487 H 0.56206 0.09655 0.21485 0.0
H488 H 0.52775 1.03119 0.19909 0.0
C489 C 0.34345 0.81586 0.19168 0.0
C490 C 0.40805 0.91578 0.1763 0.0
H491 H 0.48636 0.98885 0.15599 0.0
C492 C 0.40186 0.93717 0.19185 0.0
C493 C 0.43881 0.93436 0.16317 0.0
C494 C 0.44699 0.91234 0.14656 0.0
C495 C 0.42556 0.9767 0.1947 0.0
C496 C 0.45599 0.99549 0.1814 0.0
C497 C 0.46257 0.97424 0.1659 0.0
C498 C 0.48214 1.037 0.18468 0.0
C499 C 0.41816 0.99811 0.21212 0.0
C500 C 0.46881 0.06229 0.18074 0.0
C501 C 0.48812 0.0995 0.18988 0.0
C502 C 0.52092 0.11168 0.20308 0.0
C503 C 0.53646 0.08758 0.20501 0.0
C504 C 0.51713 0.05041 0.19588 0.0
H505 H 0.39739 0.97858 0.223 0.0
H506 H 0.44516 1.01816 0.2212 0.0
H507 H 0.4064 1.01513 0.20534 0.0
H508 H 0.44173 0.05224 0.17214 0.0
H509 H 0.47547 0.1174 0.18815 0.0
H510 H 0.57454 0.31003 0.4537 0.0
H511 H 0.61218 0.3796 0.4596 0.0
H512 H 0.71104 0.37112 0.47794 0.0
H513 H 0.67409 0.30212 0.47133 0.0
H514 H 0.63749 0.40836 0.49804 0.0
H515 H 0.76157 0.46842 0.44883 0.0
H516 H 0.72046 0.4216 0.4429 0.0
H517 H 0.75808 0.4281 0.46127 0.0
C518 C 0.60469 0.32322 0.45816 0.0
C519 C 0.6213 0.30075 0.46239 0.0
C520 C 0.62614 0.36293 0.46157 0.0
C521 C 0.66449 0.38064 0.46912 0.0
C522 C 0.6818 0.35835 0.47171 0.0
H523 H 0.78211 0.54329 0.56808 0.0
H524 H 0.75117 0.48944 0.54195 0.0
C525 C 0.66047 0.31879 0.46823 0.0
C526 C 0.68405 0.42047 0.47824 0.0
H527 H 0.77086 0.50243 0.48302 0.0
C528 C 0.66627 0.42927 0.49432 0.0
C529 C 0.72159 0.44785 0.47343 0.0
C530 C 0.7413 0.44108 0.4555 0.0
C531 C 0.68591 0.46353 0.50664 0.0
C532 C 0.72441 0.4894 0.50294 0.0
C533 C 0.74148 0.48204 0.486 0.0
C534 C 0.74761 0.52288 0.51751 0.0
C535 C 0.66586 0.47118 0.52412 0.0
C536 C 0.75674 0.55949 0.51208 0.0
C537 C 0.77418 0.59025 0.527 0.0
C538 C 0.78281 0.58474 0.54751 0.0
C539 C 0.77537 0.54829 0.55249 0.0
C540 C 0.75789 0.51761 0.5376 0.0
H541 H 0.63432 0.45279 0.52208 0.0
H542 H 0.67536 0.46526 0.53918 0.0
H543 H 0.6732 0.50157 0.52508 0.0
H544 H 0.74882 0.56391 0.49663 0.0
H545 H 0.7791 0.61788 0.52275 0.0
H546 H 0.37626 0.59712 0.87508 0.0
H547 H 0.30793 0.56774 0.88103 0.0
H548 H 0.28179 0.49105 0.82654 0.0
H549 H 0.34966 0.52015 0.82046 0.0
H550 H 0.22782 0.51553 0.83249 0.0
H551 H 0.25928 0.46116 0.9042 0.0
H552 H 0.28466 0.51213 0.9029 0.0
H553 H 0.29384 0.48303 0.88472 0.0
C554 C 0.35584 0.57453 0.86414 0.0
C555 C 0.36834 0.56064 0.84746 0.0
C556 C 0.31691 0.55777 0.86757 0.0
C557 C 0.29003 0.5267 0.85449 0.0
C558 C 0.30216 0.51493 0.83685 0.0
H559 H 1.05711 0.34277 0.85199 0.0
H560 H 0.12317 0.38958 0.8446 0.0
C561 C 0.341 0.53175 0.83335 0.0
C562 C 0.24998 0.50361 0.86026 0.0
H563 H 0.19508 0.44214 0.89607 0.0
C564 C 0.22058 0.49971 0.84646 0.0
C565 C 0.24075 0.48283 0.87845 0.0
C566 C 0.27119 0.48462 0.89337 0.0
C567 C 0.18206 0.47535 0.85035 0.0
C568 C 0.17293 0.45398 0.86829 0.0
C569 C 0.20229 0.45859 0.88232 0.0
C570 C 0.13314 0.42582 0.8726 0.0
C571 C 0.15149 0.47275 0.83526 0.0
C572 C 0.11748 0.43012 0.89109 0.0
C573 C 0.08013 0.40326 0.89538 0.0
C574 C 1.05826 0.3717 0.88135 0.0
C575 C 0.07389 0.36694 0.86303 0.0
C576 C 0.11128 0.39381 0.85872 0.0
H577 H 0.16252 0.49809 0.82575 0.0
H578 H 0.14134 0.44706 0.82442 0.0
H579 H 0.12666 0.4701 0.84364 0.0
H580 H 0.13402 0.45448 0.90205 0.0
H581 H 1.06815 0.40744 0.9095 0.0
H582 H 0.87294 0.44656 0.13254 0.0
H583 H 0.80352 0.41375 0.13324 0.0
H584 H 0.79577 0.31465 0.10051 0.0
H585 H 0.86554 0.3464 0.10098 0.0
H586 H 0.74015 0.37779 0.10641 0.0
H587 H 0.75242 0.27383 0.15568 0.0
H588 H 0.79375 0.31661 0.14831 0.0
H589 H 0.76862 0.27633 0.12973 0.0
C590 C 0.85649 0.41781 0.12541 0.0
C591 C 0.87479 0.39861 0.11734 0.0
C592 C 0.81678 0.39929 0.12557 0.0
C593 C 0.79457 0.36142 0.11742 0.0
C594 C 0.81249 0.34356 0.10735 0.0
H595 H 0.57153 0.21659 0.16634 0.0
H596 H 0.61866 0.23792 0.1395 0.0
C597 C 0.85237 0.3619 0.10747 0.0
C598 C 0.75373 0.33971 0.12214 0.0
H599 H 0.69351 0.27071 0.15311 0.0
C600 C 0.72963 0.35386 0.11628 0.0
C601 C 0.74009 0.30853 0.13508 0.0
C602 C 0.76503 0.29301 0.14274 0.0
C603 C 0.69293 0.33888 0.12388 0.0
C604 C 0.68028 0.30922 0.13772 0.0
C605 C 0.70331 0.29338 0.1424 0.0
C606 C 0.64616 0.29768 0.15001 0.0
C607 C 0.66855 0.35573 0.1176 0.0
C608 C 0.6454 0.32434 0.16446 0.0
C609 C 0.61863 0.31214 0.17982 0.0
C610 C 0.59239 0.27323 0.18087 0.0
C611 C 0.59144 0.24682 0.16568 0.0
C612 C 0.61825 0.25897 0.15033 0.0
H613 H 0.67591 0.36802 0.10211 0.0
H614 H 0.63769 0.33398 0.11702 0.0
H615 H 0.67374 0.37912 0.12923 0.0
H616 H 0.66726 0.35418 0.16486 0.0
H617 H 0.62001 0.33281 0.19163 0.0
H618 H 0.12359 0.54566 0.09953 0.0
H619 H 0.09906 0.51573 0.06438 0.0
H620 H 1.03923 0.5785 0.05865 0.0
H621 H 1.0638 0.60865 0.09394 0.0
H622 H 0.99428 0.49521 0.04908 0.0
H623 H 0.12858 0.56648 0.00705 0.0
H624 H 0.13187 0.5474 0.03131 0.0
H625 H 0.12235 0.58625 0.03142 0.0
C626 C 0.10552 0.55336 0.09067 0.0
C627 C 0.09551 0.57939 0.09935 0.0
C628 C 0.09167 0.53637 0.07061 0.0
C629 C 1.06763 0.54518 0.05893 0.0
C630 C 1.05794 0.57155 0.06745 0.0
H631 H 0.99097 0.47012 0.92873 0.0
H632 H 1.01477 0.5076 0.96216 0.0
C633 C 1.07207 0.58882 0.0875 0.0
C634 C 1.05125 0.52534 0.03822 0.0
H635 H 0.07552 0.5128 0.98918 0.0
C636 C 1.01191 0.49923 0.03591 0.0
C637 C 0.07441 0.53087 0.02112 0.0
C638 C 0.11663 0.55948 0.02269 0.0
C639 C 0.99522 0.47767 0.017 0.0
C640 C 1.0186 0.48227 0.00011 0.0
C641 C 1.05776 0.50917 0.00225 0.0
C642 C 1.00301 0.45924 0.98009 0.0
C643 C 0.95274 0.45017 0.0152 0.0
C644 C 0.98879 0.4197 0.97914 0.0
C645 C 0.97516 0.39819 0.96008 0.0
C646 C 0.97544 0.41591 0.94166 0.0
C647 C 0.98975 0.45556 0.94271 0.0
C648 C 1.00357 0.47704 0.96174 0.0
H649 H 0.93772 0.45615 0.02778 0.0
H650 H 0.94028 0.45144 -0.00016 0.0
H651 H 0.94739 0.42066 0.01643 0.0
H652 H 0.98866 0.40556 0.99312 0.0
H653 H 0.96427 0.36771 0.95974 0.0
H654 H 0.52796 0.05314 0.43428 0.0
H655 H 0.52511 0.0767 0.40013 0.0
H656 H 0.64695 0.12556 0.39688 0.0
H657 H 0.65008 0.10246 0.43125 0.0
H658 H 0.57176 0.15953 0.38992 0.0
H659 H 0.59432 0.05632 0.34071 0.0
H660 H 0.57658 1.04625 0.36657 0.0
H661 H 0.62599 0.07977 0.36346 0.0
C662 C 0.55409 0.06877 0.42622 0.0
C663 C 0.58926 0.07626 0.43537 0.0
C664 C 0.55243 0.08224 0.4068 0.0
C665 C 0.58583 0.10289 0.39612 0.0
C666 C 0.6209 0.10955 0.40494 0.0
H667 H 0.6059 0.22244 0.28193 0.0
H668 H 0.61695 0.20952 0.31777 0.0
C669 C 0.62261 0.09625 0.42446 0.0
C670 C 0.58372 0.11766 0.3758 0.0
H671 H 0.58582 0.10183 0.32338 0.0
C672 C 0.57517 0.14725 0.37534 0.0
C673 C 0.58806 0.10132 0.35694 0.0
C674 C 0.59656 0.069 0.35674 0.0
C675 C 0.57027 0.1606 0.35633 0.0
C676 C 0.574 0.14382 0.33746 0.0
C677 C 0.58317 0.11467 0.33796 0.0
C678 C 0.56581 0.15401 0.31692 0.0
C679 C 0.5599 0.1916 0.35641 0.0
C680 C 0.53311 0.12738 0.30489 0.0
C681 C 0.52666 0.13473 0.28463 0.0
C682 C 0.55303 0.16872 0.27592 0.0
C683 C 0.58501 0.19615 0.28831 0.0
C684 C 0.59141 0.18877 0.3087 0.0
H685 H 0.55439 0.19901 0.37232 0.0
H686 H 0.58363 0.21764 0.35031 0.0
H687 H 0.53409 0.18249 0.34596 0.0
H688 H 0.51299 0.10048 0.31105 0.0
H689 H 0.50147 0.11333 0.27556 0.0
H690 H 0.57859 0.53837 0.75982 0.0
H691 H 0.60927 0.54216 0.72673 0.0
H692 H 0.6731 0.66494 0.73595 0.0
H693 H 0.64268 0.66133 0.76894 0.0
H694 H 0.6355 0.63214 0.6939 0.0
H695 H 0.72712 0.57639 0.72452 0.0
H696 H 0.67687 0.54919 0.72887 0.0
H697 H 0.7053 0.59602 0.74143 0.0
C698 C 0.59886 0.56612 0.75462 0.0
C699 C 0.60848 0.59956 0.76686 0.0
C700 C 0.61649 0.56823 0.73586 0.0
C701 C 0.64366 0.60381 0.7291 0.0
C702 C 0.65229 0.63725 0.74099 0.0
H703 H 0.81508 0.66947 0.6377 0.0
H704 H 0.7794 0.65968 0.66933 0.0
C705 C 0.63493 0.63514 0.75978 0.0
C706 C 0.66365 0.60642 0.70977 0.0
H707 H 0.73146 0.59014 0.68895 0.0
C708 C 0.65633 0.62279 0.69272 0.0
C709 C 0.69118 0.59471 0.70854 0.0
C710 C 0.70097 0.57831 0.72681 0.0
C711 C 0.67577 0.62761 0.6743 0.0
C712 C 0.70291 0.61536 0.67292 0.0
C713 C 0.71039 0.59918 0.69004 0.0
C714 C 0.72448 0.62001 0.65395 0.0
C715 C 0.66781 0.64659 0.65667 0.0
C716 C 0.70544 0.60046 0.63496 0.0
C717 C 0.72567 0.60607 0.6169 0.0
C718 C 0.76539 0.63123 0.61753 0.0
C719 C 0.78447 0.65019 0.6367 0.0
C720 C 0.7642 0.64448 0.65477 0.0
H721 H 0.65276 0.66187 0.66192 0.0
H722 H 0.69476 0.66722 0.64972 0.0
H723 H 0.64943 0.62454 0.64425 0.0
H724 H 0.67484 0.58112 0.63408 0.0
H725 H 0.71006 0.59138 0.60234 0.0
H726 H 0.62755 0.10849 0.54836 0.0
H727 H 0.63666 0.11046 0.58652 0.0
H728 H 0.52096 0.08635 0.59308 0.0
H729 H 0.51151 0.08333 0.55514 0.0
H730 H 0.63371 0.15647 0.61727 0.0
H731 H 0.52187 1.00816 0.62907 0.0
H732 H 0.53791 1.02426 0.60354 0.0
H733 H 0.5031 1.03343 0.61535 0.0
C734 C 0.60397 0.10322 0.55796 0.0
C735 C 0.56868 0.09539 0.54867 0.0
C736 C 0.60921 0.10445 0.5798 0.0
C737 C 0.57928 0.09778 0.59285 0.0
C738 C 0.54424 0.09051 0.58351 0.0
H739 H 0.56032 0.14092 0.72351 0.0
H740 H 0.55582 0.13192 0.68536 0.0
C741 C 0.53894 0.08909 0.56174 0.0
C742 C 0.58486 0.09973 0.61618 0.0
H743 H 0.54563 0.05122 0.65969 0.0
C744 C 0.6147 0.13321 0.62647 0.0
C745 C 0.56029 0.06939 0.6284 0.0
C746 C 0.52926 1.03165 0.61852 0.0
C747 C 0.61964 0.13763 0.64845 0.0
C748 C 0.59419 0.10792 0.66058 0.0
C749 C 0.56499 0.0741 0.65038 0.0
C750 C 0.59661 0.1123 0.68388 0.0
C751 C 0.65152 0.17438 0.65875 0.0
C752 C 0.62077 0.10385 0.69582 0.0
C753 C 0.62347 0.10899 0.71775 0.0
C754 C 0.60221 0.12293 0.7282 0.0
C755 C 0.57758 0.13072 0.71608 0.0
C756 C 0.5748 0.12541 0.69423 0.0
H757 H 0.66916 0.19481 0.6472 0.0
H758 H 0.63938 0.18808 0.66894 0.0
H759 H 0.67025 0.16821 0.66884 0.0
H760 H 0.63785 0.09366 0.68816 0.0
H761 H 0.6429 0.10294 0.72649 0.0
H762 H 0.68439 0.67888 0.89281 0.0
H763 H 0.67753 0.66884 0.9301 0.0
H764 H 0.57775 0.55827 0.91589 0.0
H765 H 0.58555 0.56768 0.87841 0.0
H766 H 0.62446 0.65956 0.95571 0.0
H767 H 0.6356 0.52843 0.95463 0.0
H768 H 0.64562 0.55692 0.93231 0.0
H769 H 0.59703 0.5236 0.93788 0.0
C770 C 0.66105 0.65232 0.8976 0.0
C771 C 0.63568 0.62398 0.88258 0.0
C772 C 0.65708 0.64661 0.919 0.0
C773 C 0.62754 0.61244 0.92605 0.0
C774 C 0.6015 0.58444 0.91103 0.0
H775 H 0.56815 0.54562 0.05528 0.0
H776 H 0.56464 0.55122 0.01733 0.0
C777 C 0.60573 0.58999 0.88955 0.0
C778 C 0.62412 0.60676 0.94906 0.0
H779 H 0.62063 0.54766 0.98674 0.0
C780 C 0.62362 0.63502 0.96241 0.0
C781 C 0.62305 0.57481 0.95806 0.0
C782 C 0.62572 0.5444 0.94503 0.0
C783 C 0.62225 0.63233 0.98423 0.0
C784 C 0.62131 0.60054 0.99315 0.0
C785 C 0.62107 0.57191 0.97989 0.0
C786 C 0.62275 0.59767 0.01628 0.0
C787 C 0.62189 0.66357 -0.00229 0.0
C788 C 0.65651 0.62187 0.02836 0.0
C789 C 0.65868 0.61857 0.04994 0.0
C790 C 0.62702 0.5911 0.0601 0.0
C791 C 0.59296 0.56728 0.04802 0.0
C792 C 0.59096 0.5703 0.02631 0.0
H793 H 0.61549 0.6824 0.98837 0.0
H794 H 0.60041 0.65122 0.00972 0.0
H795 H 0.65034 0.68136 0.00595 0.0
H796 H 0.68149 0.64308 0.021 0.0
H797 H 0.68526 0.63756 0.05873 0.0
H798 H 0.07896 0.59967 0.21348 0.0
H799 H 0.07731 0.607 0.2516 0.0
H800 H 0.10866 0.5206 0.25892 0.0
H801 H 0.1098 0.51286 0.22097 0.0
H802 H 1.05022 0.50937 0.28347 0.0
H803 H 0.1666 0.6603 0.2945 0.0
H804 H 0.1284 0.65251 0.27641 0.0
H805 H 0.15781 0.63203 0.27034 0.0
C806 C 0.08571 0.58242 0.22325 0.0
C807 C 0.0946 0.55574 0.21415 0.0
C808 C 0.08494 0.58674 0.24508 0.0
C809 C 0.09328 0.56467 0.25833 0.0
C810 C 0.10213 0.53803 0.24918 0.0
H811 H 0.1566 0.60373 0.39106 0.0
H812 H 0.15263 0.59603 0.35298 0.0
C813 C 0.10289 0.53371 0.22742 0.0
C814 C 0.09234 0.56864 0.28165 0.0
H815 H 0.13294 0.63194 0.32431 0.0
C816 C 1.06826 0.53623 0.29237 0.0
C817 C 0.11612 0.60353 0.29345 0.0
C818 C 0.14397 0.63903 0.28316 0.0
C819 C 1.06729 0.5377 0.31436 0.0
C820 C 0.09067 0.57271 0.32613 0.0
C821 C 0.11474 0.60512 0.3154 0.0
C822 C 0.09209 0.57608 0.34957 0.0
C823 C 1.04208 0.5014 0.32481 0.0
C824 C 1.05935 0.56731 0.36065 0.0
C825 C 1.06155 0.57176 0.38262 0.0
C826 C 0.09664 0.58548 0.39406 0.0
C827 C 0.12917 0.59369 0.38288 0.0
C828 C 0.12694 0.5892 0.36101 0.0
H829 H 1.03349 0.47564 0.31424 0.0
H830 H 1.05675 0.4994 0.33916 0.0
H831 H 1.01571 0.50128 0.32933 0.0
H832 H 1.03219 0.55779 0.35229 0.0
H833 H 1.036 0.56558 0.39059 0.0
loop_
_geom_bond_atom_site_label_1
_geom_bond_atom_site_label_2
_geom_bond_distance
_geom_bond_site_symmetry_2
_ccdc_geom_bond_type
Tb0 C2 2.809 . S
Tb0 O20 2.484 . S
Tb0 O21 2.440 . S
Tb0 O22 2.658 . S
Tb0 O23 2.409 . S
Tb0 O24 2.378 . S
Tb0 O28 2.325 . S
Tb0 O31 2.341 1_455 S
Tb1 C11 2.809 . S
Tb1 O22 2.325 1_655 S
Tb1 O25 2.341 1_655 S
Tb1 O26 2.484 . S
Tb1 O27 2.440 . S
Tb1 O28 2.658 1_655 S
Tb1 O29 2.409 1_655 S
Tb1 O30 2.378 . S
C2 Tb0 2.809 . S
C2 C3 1.514 . S
C2 O20 1.248 . S
C2 O21 1.266 . S
C3 C2 1.514 . S
C3 C4 1.359 . S
C3 C8 1.348 . S
C4 C3 1.359 . S
C4 C5 1.380 . S
C4 H32 0.929 . S
C5 C4 1.380 . S
C5 C6 1.347 . S
C5 H33 0.931 . S
C6 C5 1.347 . S
C6 C7 1.369 . S
C7 C6 1.369 . S
C7 C8 1.408 . S
C7 H34 0.930 . S
C8 C3 1.348 . S
C8 C7 1.408 . S
C8 H35 0.930 . S
C9 O22 1.281 . S
C9 O23 1.254 . S
C10 O24 1.236 . S
C10 O25 1.266 . S
C11 Tb1 2.809 . S
C11 C12 1.514 . S
C11 O26 1.248 . S
C11 O27 1.266 . S
C12 C11 1.514 . S
C12 C13 1.359 . S
C12 C17 1.348 . S
C13 C12 1.359 . S
C13 C14 1.380 . S
C13 H36 0.929 . S
C14 C13 1.380 . S
C14 C15 1.347 . S
C14 H37 0.931 . S
C15 C14 1.347 . S
C15 C16 1.369 . S
C16 C15 1.369 . S
C16 C17 1.408 . S
C16 H38 0.930 . S
C17 C12 1.348 . S
C17 C16 1.408 . S
C17 H39 0.930 . S
C18 O28 1.281 . S
C18 O29 1.254 . S
C19 O30 1.236 . S
C19 O31 1.266 . S
O20 Tb0 2.484 . S
O20 C2 1.248 . S
O21 Tb0 2.440 . S
O21 C2 1.266 . S
O22 Tb0 2.658 . S
O22 Tb1 2.325 1_455 S
O22 C9 1.281 . S
O23 Tb0 2.409 . S
O23 C9 1.254 . S
O24 Tb0 2.378 . S
O24 C10 1.236 . S
O25 Tb1 2.341 1_455 S
O25 C10 1.266 . S
O26 Tb1 2.484 . S
O26 C11 1.248 . S
O27 Tb1 2.440 . S
O27 C11 1.266 . S
O28 Tb0 2.325 . S
O28 Tb1 2.658 1_455 S
O28 C18 1.281 . S
O29 Tb1 2.409 1_455 S
O29 C18 1.254 . S
O30 Tb1 2.378 . S
O30 C19 1.236 . S
O31 Tb0 2.341 1_655 S
O31 C19 1.266 . S
H32 C4 0.929 . S
H33 C5 0.931 . S
H34 C7 0.930 . S
H35 C8 0.930 . S
H36 C13 0.929 . S
H37 C14 0.931 . S
H38 C16 0.930 . S
H39 C17 0.930 . S
Tb40 C42 2.809 1_545 S
Tb40 O60 2.484 1_545 S
Tb40 O61 2.440 1_545 S
Tb40 O62 2.658 . S
Tb40 O63 2.409 . S
Tb40 O64 2.378 1_545 S
Tb40 O68 2.325 . S
Tb40 O71 2.341 . S
Tb41 C51 2.809 . S
Tb41 O62 2.325 . S
Tb41 O65 2.341 . S
Tb41 O66 2.484 . S
Tb41 O67 2.440 . S
Tb41 O68 2.658 . S
Tb41 O69 2.409 . S
Tb41 O70 2.378 . S
C42 Tb40 2.809 1_565 S
C42 C43 1.514 . S
C42 O60 1.248 . S
C42 O61 1.266 . S
C43 C42 1.514 . S
C43 C44 1.359 . S
C43 C48 1.348 . S
C44 C43 1.359 . S
C44 C45 1.380 . S
C44 H72 0.929 . S
C45 C44 1.380 . S
C45 C46 1.347 . S
C45 H73 0.931 . S
C46 C45 1.347 . S
C46 C47 1.369 . S
C47 C46 1.369 . S
C47 C48 1.408 . S
C47 H74 0.930 . S
C48 C43 1.348 . S
C48 C47 1.408 . S
C48 H75 0.930 . S
C49 O62 1.281 . S
C49 O63 1.254 . S
C50 O64 1.236 . S
C50 O65 1.266 1_565 S
C51 Tb41 2.809 . S
C51 C52 1.514 . S
C51 O66 1.248 . S
C51 O67 1.266 . S
C52 C51 1.514 . S
C52 C53 1.359 . S
C52 C57 1.348 . S
C53 C52 1.359 . S
C53 C54 1.380 . S
C53 H76 0.929 . S
C54 C53 1.380 . S
C54 C55 1.347 . S
C54 H77 0.931 . S
C55 C54 1.347 . S
C55 C56 1.369 . S
C56 C55 1.369 . S
C56 C57 1.408 . S
C56 H78 0.930 . S
C57 C52 1.348 . S
C57 C56 1.408 . S
C57 H79 0.930 . S
C58 O68 1.281 . S
C58 O69 1.254 . S
C59 O70 1.236 . S
C59 O71 1.266 . S
O60 Tb40 2.484 1_565 S
O60 C42 1.248 . S
O61 Tb40 2.440 1_565 S
O61 C42 1.266 . S
O62 Tb40 2.658 . S
O62 Tb41 2.325 . S
O62 C49 1.281 . S
O63 Tb40 2.409 . S
O63 C49 1.254 . S
O64 Tb40 2.378 1_565 S
O64 C50 1.236 . S
O65 Tb41 2.341 . S
O65 C50 1.266 1_545 S
O66 Tb41 2.484 . S
O66 C51 1.248 . S
O67 Tb41 2.440 . S
O67 C51 1.266 . S
O68 Tb40 2.325 . S
O68 Tb41 2.658 . S
O68 C58 1.281 . S
O69 Tb41 2.409 . S
O69 C58 1.254 . S
O70 Tb41 2.378 . S
O70 C59 1.236 . S
O71 Tb40 2.341 . S
O71 C59 1.266 . S
H72 C44 0.929 . S
H73 C45 0.931 . S
H74 C47 0.930 . S
H75 C48 0.930 . S
H76 C53 0.929 . S
H77 C54 0.931 . S
H78 C56 0.930 . S
H79 C57 0.930 . S
Tb80 C82 2.809 . S
Tb80 O100 2.484 . S
Tb80 O101 2.440 . S
Tb80 O102 2.658 . S
Tb80 O103 2.409 . S
Tb80 O104 2.378 . S
Tb80 O108 2.325 . S
Tb80 O111 2.341 . S
Tb81 C91 2.809 . S
Tb81 O102 2.325 . S
Tb81 O105 2.341 . S
Tb81 O106 2.484 . S
Tb81 O107 2.440 . S
Tb81 O108 2.658 . S
Tb81 O109 2.409 . S
Tb81 O110 2.378 . S
C82 Tb80 2.809 . S
C82 C83 1.514 . S
C82 O100 1.248 . S
C82 O101 1.266 . S
C83 C82 1.514 . S
C83 C84 1.359 . S
C83 C88 1.348 . S
C84 C83 1.359 . S
C84 C85 1.380 . S
C84 H112 0.929 . S
C85 C84 1.380 . S
C85 C86 1.347 . S
C85 H113 0.931 . S
C86 C85 1.347 . S
C86 C87 1.369 . S
C87 C86 1.369 . S
C87 C88 1.408 . S
C87 H114 0.930 . S
C88 C83 1.348 . S
C88 C87 1.408 . S
C88 H115 0.930 . S
C89 O102 1.281 . S
C89 O103 1.254 . S
C90 O104 1.236 . S
C90 O105 1.266 . S
C91 Tb81 2.809 . S
C91 C92 1.514 . S
C91 O106 1.248 . S
C91 O107 1.266 . S
C92 C91 1.514 . S
C92 C93 1.359 . S
C92 C97 1.348 . S
C93 C92 1.359 . S
C93 C94 1.380 . S
C93 H116 0.929 . S
C94 C93 1.380 . S
C94 C95 1.347 . S
C94 H117 0.931 . S
C95 C94 1.347 . S
C95 C96 1.369 . S
C96 C95 1.369 . S
C96 C97 1.408 . S
C96 H118 0.930 . S
C97 C92 1.348 . S
C97 C96 1.408 . S
C97 H119 0.930 . S
C98 O108 1.281 . S
C98 O109 1.254 . S
C99 O110 1.236 . S
C99 O111 1.266 . S
O100 Tb80 2.484 . S
O100 C82 1.248 . S
O101 Tb80 2.440 . S
O101 C82 1.266 . S
O102 Tb80 2.658 . S
O102 Tb81 2.325 . S
O102 C89 1.281 . S
O103 Tb80 2.409 . S
O103 C89 1.254 . S
O104 Tb80 2.378 . S
O104 C90 1.236 . S
O105 Tb81 2.341 . S
O105 C90 1.266 . S
O106 Tb81 2.484 . S
O106 C91 1.248 . S
O107 Tb81 2.440 . S
O107 C91 1.266 . S
O108 Tb80 2.325 . S
O108 Tb81 2.658 . S
O108 C98 1.281 . S
O109 Tb81 2.409 . S
O109 C98 1.254 . S
O110 Tb81 2.378 . S
O110 C99 1.236 . S
O111 Tb80 2.341 . S
O111 C99 1.266 . S
H112 C84 0.929 . S
H113 C85 0.931 . S
H114 C87 0.930 . S
H115 C88 0.930 . S
H116 C93 0.929 . S
H117 C94 0.931 . S
H118 C96 0.930 . S
H119 C97 0.930 . S
H120 C123 0.929 . S
H121 C126 0.929 . S
H122 C128 0.930 . S
C123 H120 0.929 . S
C123 C124 1.398 . S
C123 C125 1.396 . S
C124 C123 1.398 . S
C124 C128 1.407 . S
C125 C123 1.396 . S
C125 C126 1.394 . S
C126 H121 0.929 . S
C126 C125 1.394 . S
C126 C127 1.382 . S
C127 C126 1.382 . S
C127 C128 1.392 . S
C127 N129 1.420 . S
C128 H122 0.930 . S
C128 C124 1.407 . S
C128 C127 1.392 . S
N129 C127 1.420 . S
N129 C130 1.244 . S
C130 N129 1.244 . S
H131 C134 0.929 . S
H132 C137 0.929 . S
H133 C139 0.930 . S
C134 H131 0.929 . S
C134 C135 1.398 . S
C134 C136 1.396 . S
C135 C134 1.398 . S
C135 C139 1.407 . S
C136 C134 1.396 . S
C136 C137 1.394 . S
C137 H132 0.929 . S
C137 C136 1.394 . S
C137 C138 1.382 . S
C138 C137 1.382 . S
C138 C139 1.392 . S
C138 N140 1.420 . S
C139 H133 0.930 . S
C139 C135 1.407 . S
C139 C138 1.392 . S
N140 C138 1.420 . S
N140 C141 1.244 . S
C141 N140 1.244 . S
H142 C145 0.929 . S
H143 C148 0.929 . S
H144 C150 0.930 . S
C145 H142 0.929 . S
C145 C146 1.398 . S
C145 C147 1.396 1_655 S
C146 C145 1.398 . S
C146 C150 1.407 . S
C147 C145 1.396 1_455 S
C147 C148 1.394 . S
C148 H143 0.929 . S
C148 C147 1.394 . S
C148 C149 1.382 . S
C149 C148 1.382 . S
C149 C150 1.392 1_455 S
C149 N151 1.420 . S
C150 H144 0.930 . S
C150 C146 1.407 . S
C150 C149 1.392 1_655 S
N151 C149 1.420 . S
N151 C152 1.244 . S
C152 N151 1.244 . S
H153 C156 0.929 . S
H154 C159 0.929 1_655 S
H155 C161 0.930 . S
C156 H153 0.929 . S
C156 C157 1.398 . S
C156 C158 1.396 . S
C157 C156 1.398 . S
C157 C161 1.407 . S
C158 C156 1.396 . S
C158 C159 1.394 . S
C159 H154 0.929 1_455 S
C159 C158 1.394 . S
C159 C160 1.382 . S
C160 C159 1.382 . S
C160 C161 1.392 . S
C160 N162 1.420 1_455 S
C161 H155 0.930 . S
C161 C157 1.407 . S
C161 C160 1.392 . S
N162 C160 1.420 1_655 S
N162 C163 1.244 . S
C163 N162 1.244 . S
H164 C167 0.929 . S
H165 C170 0.929 1_565 S
H166 C172 0.930 . S
C167 H164 0.929 . S
C167 C168 1.398 . S
C167 C169 1.396 . S
C168 C167 1.398 . S
C168 C172 1.407 . S
C169 C167 1.396 . S
C169 C170 1.394 . S
C170 H165 0.929 1_545 S
C170 C169 1.394 . S
C170 C171 1.382 . S
C171 C170 1.382 . S
C171 C172 1.392 . S
C171 N173 1.420 1_545 S
C172 H166 0.930 . S
C172 C168 1.407 . S
C172 C171 1.392 . S
N173 C171 1.420 1_565 S
N173 C174 1.244 . S
C174 N173 1.244 . S
H175 C178 0.929 . S
H176 C181 0.929 . S
H177 C183 0.930 . S
C178 H175 0.929 . S
C178 C179 1.398 . S
C178 C180 1.396 . S
C179 C178 1.398 . S
C179 C183 1.407 . S
C180 C178 1.396 . S
C180 C181 1.394 . S
C181 H176 0.929 . S
C181 C180 1.394 . S
C181 C182 1.382 . S
C182 C181 1.382 . S
C182 C183 1.392 . S
C182 N184 1.420 . S
C183 H177 0.930 . S
C183 C179 1.407 . S
C183 C182 1.392 . S
N184 C182 1.420 . S
N184 C185 1.244 . S
C185 N184 1.244 . S
H186 C194 0.929 . S
H187 C196 0.930 . S
H188 C198 0.930 . S
H189 C201 0.929 . S
H190 C204 0.930 . S
H191 C206 0.960 . S
H192 C206 0.960 . S
H193 C206 0.960 . S
C194 H186 0.929 . S
C194 C195 1.377 . S
C194 C196 1.384 . S
C195 C194 1.377 . S
C195 C201 1.390 . S
C196 H187 0.930 . S
C196 C194 1.384 . S
C196 C197 1.372 . S
C197 C196 1.372 . S
C197 C198 1.400 . S
C197 C202 1.490 . S
C198 H188 0.930 . S
C198 C197 1.400 . S
C198 C201 1.386 . S
H199 C215 0.930 . S
H200 C216 0.931 . S
C201 H189 0.929 . S
C201 C195 1.390 . S
C201 C198 1.386 . S
C202 C197 1.490 . S
C202 C204 1.395 . S
C202 C205 1.403 . S
H203 C209 0.930 . S
C204 H190 0.930 . S
C204 C202 1.395 . S
C204 C207 1.403 . S
C205 C202 1.403 . S
C205 C206 1.524 . S
C205 C209 1.400 . S
C206 H191 0.960 . S
C206 H192 0.960 . S
C206 H193 0.960 . S
C206 C205 1.524 . S
C207 C204 1.403 . S
C207 C208 1.392 . S
C207 C211 1.495 . S
C208 C207 1.392 . S
C208 C209 1.385 . S
C208 C210 1.478 . S
C209 H203 0.930 . S
C209 C205 1.400 . S
C209 C208 1.385 . S
C210 C208 1.478 . S
C210 C212 1.381 . S
C210 C216 1.383 . S
C211 C207 1.495 . S
C211 H217 0.959 . S
C211 H218 0.961 . S
C211 H219 0.960 . S
C212 C210 1.381 . S
C212 C213 1.394 . S
C212 H220 0.930 . S
C213 C212 1.394 . S
C213 C214 1.383 . S
C213 H221 0.929 . S
C214 C213 1.383 . S
C214 C215 1.377 . S
C215 H199 0.930 . S
C215 C214 1.377 . S
C215 C216 1.379 . S
C216 H200 0.931 . S
C216 C210 1.383 . S
C216 C215 1.379 . S
H217 C211 0.959 . S
H218 C211 0.961 . S
H219 C211 0.960 . S
H220 C212 0.930 . S
H221 C213 0.929 . S
H222 C230 0.929 . S
H223 C232 0.930 . S
H224 C234 0.930 . S
H225 C237 0.929 . S
H226 C240 0.930 . S
H227 C242 0.960 . S
H228 C242 0.960 . S
H229 C242 0.960 . S
C230 H222 0.929 . S
C230 C231 1.377 . S
C230 C232 1.384 . S
C231 C230 1.377 . S
C231 C237 1.390 . S
C232 H223 0.930 . S
C232 C230 1.384 . S
C232 C233 1.372 . S
C233 C232 1.372 . S
C233 C234 1.400 . S
C233 C238 1.490 . S
C234 H224 0.930 . S
C234 C233 1.400 . S
C234 C237 1.386 . S
H235 C251 0.930 . S
H236 C252 0.931 . S
C237 H225 0.929 . S
C237 C231 1.390 . S
C237 C234 1.386 . S
C238 C233 1.490 . S
C238 C240 1.395 . S
C238 C241 1.403 . S
H239 C245 0.930 . S
C240 H226 0.930 . S
C240 C238 1.395 . S
C240 C243 1.403 . S
C241 C238 1.403 . S
C241 C242 1.524 . S
C241 C245 1.400 . S
C242 H227 0.960 . S
C242 H228 0.960 . S
C242 H229 0.960 . S
C242 C241 1.524 . S
C243 C240 1.403 . S
C243 C244 1.392 . S
C243 C247 1.495 . S
C244 C243 1.392 . S
C244 C245 1.385 . S
C244 C246 1.478 . S
C245 H239 0.930 . S
C245 C241 1.400 . S
C245 C244 1.385 . S
C246 C244 1.478 . S
C246 C248 1.381 . S
C246 C252 1.383 . S
C247 C243 1.495 . S
C247 H253 0.959 . S
C247 H254 0.961 . S
C247 H255 0.960 . S
C248 C246 1.381 . S
C248 C249 1.394 . S
C248 H256 0.930 . S
C249 C248 1.394 . S
C249 C250 1.383 . S
C249 H257 0.929 . S
C250 C249 1.383 . S
C250 C251 1.377 . S
C251 H235 0.930 . S
C251 C250 1.377 . S
C251 C252 1.379 . S
C252 H236 0.931 . S
C252 C246 1.383 . S
C252 C251 1.379 . S
H253 C247 0.959 . S
H254 C247 0.961 . S
H255 C247 0.960 . S
H256 C248 0.930 . S
H257 C249 0.929 . S
H258 C266 0.929 . S
H259 C268 0.930 . S
H260 C270 0.930 . S
H261 C273 0.929 . S
H262 C276 0.930 . S
H263 C278 0.960 . S
H264 C278 0.960 . S
H265 C278 0.960 . S
C266 H258 0.929 . S
C266 C267 1.377 . S
C266 C268 1.384 . S
C267 C266 1.377 . S
C267 C273 1.390 . S
C268 H259 0.930 . S
C268 C266 1.384 . S
C268 C269 1.372 . S
C269 C268 1.372 . S
C269 C270 1.400 . S
C269 C274 1.490 . S
C270 H260 0.930 . S
C270 C269 1.400 . S
C270 C273 1.386 . S
H271 C287 0.930 . S
H272 C288 0.931 . S
C273 H261 0.929 . S
C273 C267 1.390 . S
C273 C270 1.386 . S
C274 C269 1.490 . S
C274 C276 1.395 . S
C274 C277 1.403 . S
H275 C281 0.930 . S
C276 H262 0.930 . S
C276 C274 1.395 . S
C276 C279 1.403 . S
C277 C274 1.403 . S
C277 C278 1.524 . S
C277 C281 1.400 . S
C278 H263 0.960 . S
C278 H264 0.960 . S
C278 H265 0.960 . S
C278 C277 1.524 . S
C279 C276 1.403 . S
C279 C280 1.392 . S
C279 C283 1.495 . S
C280 C279 1.392 . S
C280 C281 1.385 . S
C280 C282 1.478 . S
C281 H275 0.930 . S
C281 C277 1.400 . S
C281 C280 1.385 . S
C282 C280 1.478 . S
C282 C284 1.381 . S
C282 C288 1.383 . S
C283 C279 1.495 . S
C283 H289 0.959 . S
C283 H290 0.961 . S
C283 H291 0.960 . S
C284 C282 1.381 . S
C284 C285 1.394 . S
C284 H292 0.930 . S
C285 C284 1.394 . S
C285 C286 1.383 . S
C285 H293 0.929 . S
C286 C285 1.383 . S
C286 C287 1.377 . S
C287 H271 0.930 . S
C287 C286 1.377 . S
C287 C288 1.379 . S
C288 H272 0.931 . S
C288 C282 1.383 . S
C288 C287 1.379 . S
H289 C283 0.959 . S
H290 C283 0.961 . S
H291 C283 0.960 . S
H292 C284 0.930 . S
H293 C285 0.929 . S
H294 C302 0.929 . S
H295 C304 0.930 . S
H296 C306 0.930 . S
H297 C309 0.929 . S
H298 C312 0.930 . S
H299 C314 0.960 . S
H300 C314 0.960 . S
H301 C314 0.960 . S
C302 H294 0.929 . S
C302 C303 1.377 . S
C302 C304 1.384 . S
C303 C302 1.377 . S
C303 C309 1.390 . S
C304 H295 0.930 . S
C304 C302 1.384 . S
C304 C305 1.372 . S
C305 C304 1.372 . S
C305 C306 1.400 . S
C305 C310 1.490 . S
C306 H296 0.930 . S
C306 C305 1.400 . S
C306 C309 1.386 . S
H307 C323 0.930 . S
H308 C324 0.931 . S
C309 H297 0.929 . S
C309 C303 1.390 . S
C309 C306 1.386 . S
C310 C305 1.490 . S
C310 C312 1.395 . S
C310 C313 1.403 . S
H311 C317 0.930 . S
C312 H298 0.930 . S
C312 C310 1.395 . S
C312 C315 1.403 . S
C313 C310 1.403 . S
C313 C314 1.524 . S
C313 C317 1.400 . S
C314 H299 0.960 . S
C314 H300 0.960 . S
C314 H301 0.960 . S
C314 C313 1.524 . S
C315 C312 1.403 . S
C315 C316 1.392 . S
C315 C319 1.495 . S
C316 C315 1.392 . S
C316 C317 1.385 . S
C316 C318 1.478 . S
C317 H311 0.930 . S
C317 C313 1.400 . S
C317 C316 1.385 . S
C318 C316 1.478 . S
C318 C320 1.381 . S
C318 C324 1.383 . S
C319 C315 1.495 . S
C319 H325 0.959 . S
C319 H326 0.961 . S
C319 H327 0.960 . S
C320 C318 1.381 . S
C320 C321 1.394 . S
C320 H328 0.930 . S
C321 C320 1.394 . S
C321 C322 1.383 . S
C321 H329 0.929 . S
C322 C321 1.383 . S
C322 C323 1.377 . S
C323 H307 0.930 . S
C323 C322 1.377 . S
C323 C324 1.379 . S
C324 H308 0.931 . S
C324 C318 1.383 . S
C324 C323 1.379 . S
H325 C319 0.959 . S
H326 C319 0.961 . S
H327 C319 0.960 . S
H328 C320 0.930 . S
H329 C321 0.929 . S
H330 C338 0.929 . S
H331 C340 0.930 . S
H332 C342 0.930 . S
H333 C345 0.929 . S
H334 C348 0.930 . S
H335 C350 0.960 . S
H336 C350 0.960 . S
H337 C350 0.960 . S
C338 H330 0.929 . S
C338 C339 1.377 . S
C338 C340 1.384 . S
C339 C338 1.377 . S
C339 C345 1.390 . S
C340 H331 0.930 . S
C340 C338 1.384 . S
C340 C341 1.372 . S
C341 C340 1.372 . S
C341 C342 1.400 . S
C341 C346 1.490 . S
C342 H332 0.930 . S
C342 C341 1.400 . S
C342 C345 1.386 . S
H343 C359 0.930 . S
H344 C360 0.931 . S
C345 H333 0.929 . S
C345 C339 1.390 . S
C345 C342 1.386 . S
C346 C341 1.490 . S
C346 C348 1.395 . S
C346 C349 1.403 . S
H347 C353 0.930 . S
C348 H334 0.930 . S
C348 C346 1.395 . S
C348 C351 1.403 . S
C349 C346 1.403 . S
C349 C350 1.524 . S
C349 C353 1.400 . S
C350 H335 0.960 . S
C350 H336 0.960 . S
C350 H337 0.960 . S
C350 C349 1.524 . S
C351 C348 1.403 . S
C351 C352 1.392 . S
C351 C355 1.495 . S
C352 C351 1.392 . S
C352 C353 1.385 . S
C352 C354 1.478 . S
C353 H347 0.930 . S
C353 C349 1.400 . S
C353 C352 1.385 . S
C354 C352 1.478 . S
C354 C356 1.381 . S
C354 C360 1.383 . S
C355 C351 1.495 . S
C355 H361 0.959 . S
C355 H362 0.961 . S
C355 H363 0.960 . S
C356 C354 1.381 . S
C356 C357 1.394 . S
C356 H364 0.930 . S
C357 C356 1.394 . S
C357 C358 1.383 . S
C357 H365 0.929 . S
C358 C357 1.383 . S
C358 C359 1.377 . S
C359 H343 0.930 . S
C359 C358 1.377 . S
C359 C360 1.379 . S
C360 H344 0.931 . S
C360 C354 1.383 . S
C360 C359 1.379 . S
H361 C355 0.959 . S
H362 C355 0.961 . S
H363 C355 0.960 . S
H364 C356 0.930 . S
H365 C357 0.929 . S
H366 C374 0.929 . S
H367 C376 0.930 . S
H368 C378 0.930 . S
H369 C381 0.929 . S
H370 C384 0.930 . S
H371 C386 0.960 . S
H372 C386 0.960 . S
H373 C386 0.960 . S
C374 H366 0.929 . S
C374 C375 1.377 . S
C374 C376 1.384 . S
C375 C374 1.377 . S
C375 C381 1.390 . S
C376 H367 0.930 . S
C376 C374 1.384 . S
C376 C377 1.372 . S
C377 C376 1.372 . S
C377 C378 1.400 . S
C377 C382 1.490 . S
C378 H368 0.930 . S
C378 C377 1.400 . S
C378 C381 1.386 . S
H379 C395 0.930 . S
H380 C396 0.931 . S
C381 H369 0.929 . S
C381 C375 1.390 . S
C381 C378 1.386 . S
C382 C377 1.490 . S
C382 C384 1.395 . S
C382 C385 1.403 . S
H383 C389 0.930 . S
C384 H370 0.930 . S
C384 C382 1.395 . S
C384 C387 1.403 . S
C385 C382 1.403 . S
C385 C386 1.524 . S
C385 C389 1.400 . S
C386 H371 0.960 . S
C386 H372 0.960 . S
C386 H373 0.960 . S
C386 C385 1.524 . S
C387 C384 1.403 . S
C387 C388 1.392 . S
C387 C391 1.495 . S
C388 C387 1.392 . S
C388 C389 1.385 . S
C388 C390 1.478 . S
C389 H383 0.930 . S
C389 C385 1.400 . S
C389 C388 1.385 . S
C390 C388 1.478 . S
C390 C392 1.381 . S
C390 C396 1.383 . S
C391 C387 1.495 . S
C391 H397 0.959 . S
C391 H398 0.961 . S
C391 H399 0.960 . S
C392 C390 1.381 . S
C392 C393 1.394 . S
C392 H400 0.930 . S
C393 C392 1.394 . S
C393 C394 1.383 . S
C393 H401 0.929 . S
C394 C393 1.383 . S
C394 C395 1.377 . S
C395 H379 0.930 . S
C395 C394 1.377 . S
C395 C396 1.379 . S
C396 H380 0.931 . S
C396 C390 1.383 . S
C396 C395 1.379 . S
H397 C391 0.959 . S
H398 C391 0.961 . S
H399 C391 0.960 . S
H400 C392 0.930 . S
H401 C393 0.929 . S
H402 C410 0.929 . S
H403 C412 0.930 . S
H404 C414 0.930 . S
H405 C417 0.929 . S
H406 C420 0.930 . S
H407 C422 0.960 . S
H408 C422 0.960 . S
H409 C422 0.960 . S
C410 H402 0.929 . S
C410 C411 1.377 . S
C410 C412 1.384 . S
C411 C410 1.377 . S
C411 C417 1.390 . S
C412 H403 0.930 . S
C412 C410 1.384 . S
C412 C413 1.372 . S
C413 C412 1.372 . S
C413 C414 1.400 . S
C413 C418 1.490 . S
C414 H404 0.930 . S
C414 C413 1.400 . S
C414 C417 1.386 . S
H415 C431 0.930 . S
H416 C432 0.931 . S
C417 H405 0.929 . S
C417 C411 1.390 . S
C417 C414 1.386 . S
C418 C413 1.490 . S
C418 C420 1.395 . S
C418 C421 1.403 . S
H419 C425 0.930 . S
C420 H406 0.930 . S
C420 C418 1.395 . S
C420 C423 1.403 . S
C421 C418 1.403 . S
C421 C422 1.524 . S
C421 C425 1.400 . S
C422 H407 0.960 . S
C422 H408 0.960 . S
C422 H409 0.960 . S
C422 C421 1.524 . S
C423 C420 1.403 . S
C423 C424 1.392 . S
C423 C427 1.495 . S
C424 C423 1.392 . S
C424 C425 1.385 . S
C424 C426 1.478 . S
C425 H419 0.930 . S
C425 C421 1.400 . S
C425 C424 1.385 . S
C426 C424 1.478 . S
C426 C428 1.381 . S
C426 C432 1.383 . S
C427 C423 1.495 . S
C427 H433 0.959 . S
C427 H434 0.961 . S
C427 H435 0.960 . S
C428 C426 1.381 . S
C428 C429 1.394 . S
C428 H436 0.930 . S
C429 C428 1.394 . S
C429 C430 1.383 . S
C429 H437 0.929 . S
C430 C429 1.383 . S
C430 C431 1.377 . S
C431 H415 0.930 . S
C431 C430 1.377 . S
C431 C432 1.379 . S
C432 H416 0.931 . S
C432 C426 1.383 . S
C432 C431 1.379 . S
H433 C427 0.959 . S
H434 C427 0.961 . S
H435 C427 0.960 . S
H436 C428 0.930 . S
H437 C429 0.929 . S
H438 C446 0.929 . S
H439 C448 0.930 . S
H440 C450 0.930 . S
H441 C453 0.929 . S
H442 C456 0.930 . S
H443 C458 0.960 . S
H444 C458 0.960 . S
H445 C458 0.960 . S
C446 H438 0.929 . S
C446 C447 1.377 . S
C446 C448 1.384 . S
C447 C446 1.377 . S
C447 C453 1.390 . S
C448 H439 0.930 . S
C448 C446 1.384 . S
C448 C449 1.372 . S
C449 C448 1.372 . S
C449 C450 1.400 . S
C449 C454 1.490 . S
C450 H440 0.930 . S
C450 C449 1.400 . S
C450 C453 1.386 . S
H451 C467 0.930 . S
H452 C468 0.931 . S
C453 H441 0.929 . S
C453 C447 1.390 . S
C453 C450 1.386 . S
C454 C449 1.490 . S
C454 C456 1.395 . S
C454 C457 1.403 . S
H455 C461 0.930 . S
C456 H442 0.930 . S
C456 C454 1.395 . S
C456 C459 1.403 . S
C457 C454 1.403 . S
C457 C458 1.524 . S
C457 C461 1.400 . S
C458 H443 0.960 . S
C458 H444 0.960 . S
C458 H445 0.960 . S
C458 C457 1.524 . S
C459 C456 1.403 . S
C459 C460 1.392 . S
C459 C463 1.495 . S
C460 C459 1.392 . S
C460 C461 1.385 . S
C460 C462 1.478 . S
C461 H455 0.930 . S
C461 C457 1.400 . S
C461 C460 1.385 . S
C462 C460 1.478 . S
C462 C464 1.381 . S
C462 C468 1.383 . S
C463 C459 1.495 . S
C463 H469 0.959 . S
C463 H470 0.961 . S
C463 H471 0.960 . S
C464 C462 1.381 . S
C464 C465 1.394 . S
C464 H472 0.930 . S
C465 C464 1.394 . S
C465 C466 1.383 . S
C465 H473 0.946 . S
C466 C465 1.383 . S
C466 C467 1.377 . S
C467 H451 0.930 . S
C467 C466 1.377 . S
C467 C468 1.379 . S
C468 H452 0.931 . S
C468 C462 1.383 . S
C468 C467 1.379 . S
H469 C463 0.959 . S
H470 C463 0.961 . S
H471 C463 0.960 . S
H472 C464 0.930 . S
H473 C465 0.946 . S
H474 C482 0.929 . S
H475 C484 0.930 . S
H476 C486 0.930 . S
H477 C489 0.929 . S
H478 C492 0.930 . S
H479 C494 0.960 . S
H480 C494 0.960 . S
H481 C494 0.960 . S
C482 H474 0.929 . S
C482 C483 1.377 . S
C482 C484 1.384 . S
C483 C482 1.377 . S
C483 C489 1.390 . S
C484 H475 0.930 . S
C484 C482 1.384 . S
C484 C485 1.372 . S
C485 C484 1.372 . S
C485 C486 1.400 . S
C485 C490 1.490 . S
C486 H476 0.930 . S
C486 C485 1.400 . S
C486 C489 1.386 . S
H487 C503 0.930 . S
H488 C504 0.931 . S
C489 H477 0.929 . S
C489 C483 1.390 . S
C489 C486 1.386 . S
C490 C485 1.490 . S
C490 C492 1.395 . S
C490 C493 1.403 . S
H491 C497 0.930 . S
C492 H478 0.930 . S
C492 C490 1.395 . S
C492 C495 1.403 . S
C493 C490 1.403 . S
C493 C494 1.524 . S
C493 C497 1.400 . S
C494 H479 0.960 . S
C494 H480 0.960 . S
C494 H481 0.960 . S
C494 C493 1.524 . S
C495 C492 1.403 . S
C495 C496 1.392 . S
C495 C499 1.495 . S
C496 C495 1.392 . S
C496 C497 1.385 . S
C496 C498 1.478 . S
C497 H491 0.930 . S
C497 C493 1.400 . S
C497 C496 1.385 . S
C498 C496 1.478 . S
C498 C500 1.381 . S
C498 C504 1.383 . S
C499 C495 1.495 . S
C499 H505 0.959 . S
C499 H506 0.961 . S
C499 H507 0.960 . S
C500 C498 1.381 . S
C500 C501 1.394 1_565 S
C500 H508 0.930 . S
C501 C500 1.394 1_545 S
C501 C502 1.383 . S
C501 H509 0.929 . S
C502 C501 1.383 . S
C502 C503 1.377 1_545 S
C503 H487 0.930 . S
C503 C502 1.377 1_565 S
C503 C504 1.379 . S
C504 H488 0.931 . S
C504 C498 1.383 . S
C504 C503 1.379 . S
H505 C499 0.959 . S
H506 C499 0.961 . S
H507 C499 0.960 . S
H508 C500 0.930 . S
H509 C501 0.929 . S
H510 C518 0.929 . S
H511 C520 0.930 . S
H512 C522 0.930 . S
H513 C525 0.929 . S
H514 C528 0.930 . S
H515 C530 0.960 . S
H516 C530 0.960 . S
H517 C530 0.960 . S
C518 H510 0.929 . S
C518 C519 1.377 . S
C518 C520 1.384 . S
C519 C518 1.377 . S
C519 C525 1.390 . S
C520 H511 0.930 . S
C520 C518 1.384 . S
C520 C521 1.372 . S
C521 C520 1.372 . S
C521 C522 1.400 . S
C521 C526 1.490 . S
C522 H512 0.930 . S
C522 C521 1.400 . S
C522 C525 1.386 . S
H523 C539 0.930 . S
H524 C540 0.931 . S
C525 H513 0.929 . S
C525 C519 1.390 . S
C525 C522 1.386 . S
C526 C521 1.490 . S
C526 C528 1.395 . S
C526 C529 1.403 . S
H527 C533 0.930 . S
C528 H514 0.930 . S
C528 C526 1.395 . S
C528 C531 1.403 . S
C529 C526 1.403 . S
C529 C530 1.524 . S
C529 C533 1.400 . S
C530 H515 0.960 . S
C530 H516 0.960 . S
C530 H517 0.960 . S
C530 C529 1.524 . S
C531 C528 1.403 . S
C531 C532 1.392 . S
C531 C535 1.495 . S
C532 C531 1.392 . S
C532 C533 1.385 . S
C532 C534 1.478 . S
C533 H527 0.930 . S
C533 C529 1.400 . S
C533 C532 1.385 . S
C534 C532 1.478 . S
C534 C536 1.381 . S
C534 C540 1.383 . S
C535 C531 1.495 . S
C535 H541 0.959 . S
C535 H542 0.961 . S
C535 H543 0.960 . S
C536 C534 1.381 . S
C536 C537 1.394 . S
C536 H544 0.930 . S
C537 C536 1.394 . S
C537 C538 1.383 . S
C537 H545 0.929 . S
C538 C537 1.383 . S
C538 C539 1.377 . S
C539 H523 0.930 . S
C539 C538 1.377 . S
C539 C540 1.379 . S
C540 H524 0.931 . S
C540 C534 1.383 . S
C540 C539 1.379 . S
H541 C535 0.959 . S
H542 C535 0.961 . S
H543 C535 0.960 . S
H544 C536 0.930 . S
H545 C537 0.929 . S
H546 C554 0.929 . S
H547 C556 0.930 . S
H548 C558 0.930 . S
H549 C561 0.929 . S
H550 C564 0.930 . S
H551 C566 0.960 . S
H552 C566 0.960 . S
H553 C566 0.960 . S
C554 H546 0.929 . S
C554 C555 1.377 . S
C554 C556 1.384 . S
C555 C554 1.377 . S
C555 C561 1.390 . S
C556 H547 0.930 . S
C556 C554 1.384 . S
C556 C557 1.372 . S
C557 C556 1.372 . S
C557 C558 1.400 . S
C557 C562 1.490 . S
C558 H548 0.930 . S
C558 C557 1.400 . S
C558 C561 1.386 . S
H559 C575 0.930 . S
H560 C576 0.931 . S
C561 H549 0.929 . S
C561 C555 1.390 . S
C561 C558 1.386 . S
C562 C557 1.490 . S
C562 C564 1.395 . S
C562 C565 1.403 . S
H563 C569 0.930 . S
C564 H550 0.930 . S
C564 C562 1.395 . S
C564 C567 1.403 . S
C565 C562 1.403 . S
C565 C566 1.524 . S
C565 C569 1.400 . S
C566 H551 0.960 . S
C566 H552 0.960 . S
C566 H553 0.960 . S
C566 C565 1.524 . S
C567 C564 1.403 . S
C567 C568 1.392 . S
C567 C571 1.495 . S
C568 C567 1.392 . S
C568 C569 1.385 . S
C568 C570 1.478 . S
C569 H563 0.930 . S
C569 C565 1.400 . S
C569 C568 1.385 . S
C570 C568 1.478 . S
C570 C572 1.381 . S
C570 C576 1.383 . S
C571 C567 1.495 . S
C571 H577 0.959 . S
C571 H578 0.961 . S
C571 H579 0.960 . S
C572 C570 1.381 . S
C572 C573 1.394 . S
C572 H580 0.930 . S
C573 C572 1.394 . S
C573 C574 1.383 . S
C573 H581 0.929 . S
C574 C573 1.383 . S
C574 C575 1.377 . S
C575 H559 0.930 . S
C575 C574 1.377 . S
C575 C576 1.379 . S
C576 H560 0.931 . S
C576 C570 1.383 . S
C576 C575 1.379 . S
H577 C571 0.959 . S
H578 C571 0.961 . S
H579 C571 0.960 . S
H580 C572 0.930 . S
H581 C573 0.929 . S
H582 C590 0.929 . S
H583 C592 0.930 . S
H584 C594 0.930 . S
H585 C597 0.929 . S
H586 C600 0.930 . S
H587 C602 0.960 . S
H588 C602 0.960 . S
H589 C602 0.960 . S
C590 H582 0.929 . S
C590 C591 1.377 . S
C590 C592 1.384 . S
C591 C590 1.377 . S
C591 C597 1.390 . S
C592 H583 0.930 . S
C592 C590 1.384 . S
C592 C593 1.372 . S
C593 C592 1.372 . S
C593 C594 1.400 . S
C593 C598 1.490 . S
C594 H584 0.930 . S
C594 C593 1.400 . S
C594 C597 1.386 . S
H595 C611 0.930 . S
H596 C612 0.931 . S
C597 H585 0.929 . S
C597 C591 1.390 . S
C597 C594 1.386 . S
C598 C593 1.490 . S
C598 C600 1.395 . S
C598 C601 1.403 . S
H599 C605 0.930 . S
C600 H586 0.930 . S
C600 C598 1.395 . S
C600 C603 1.403 . S
C601 C598 1.403 . S
C601 C602 1.524 . S
C601 C605 1.400 . S
C602 H587 0.960 . S
C602 H588 0.960 . S
C602 H589 0.960 . S
C602 C601 1.524 . S
C603 C600 1.403 . S
C603 C604 1.392 . S
C603 C607 1.495 . S
C604 C603 1.392 . S
C604 C605 1.385 . S
C604 C606 1.478 . S
C605 H599 0.930 . S
C605 C601 1.400 . S
C605 C604 1.385 . S
C606 C604 1.478 . S
C606 C608 1.381 . S
C606 C612 1.383 . S
C607 C603 1.495 . S
C607 H613 0.959 . S
C607 H614 0.961 . S
C607 H615 0.960 . S
C608 C606 1.381 . S
C608 C609 1.394 . S
C608 H616 0.930 . S
C609 C608 1.394 . S
C609 C610 1.383 . S
C609 H617 0.929 . S
C610 C609 1.383 . S
C610 C611 1.377 . S
C611 H595 0.930 . S
C611 C610 1.377 . S
C611 C612 1.379 . S
C612 H596 0.931 . S
C612 C606 1.383 . S
C612 C611 1.379 . S
H613 C607 0.959 . S
H614 C607 0.961 . S
H615 C607 0.960 . S
H616 C608 0.930 . S
H617 C609 0.929 . S
H618 C626 0.929 . S
H619 C628 0.930 . S
H620 C630 0.930 . S
H621 C633 0.929 . S
H622 C636 0.930 . S
H623 C638 0.960 . S
H624 C638 0.960 . S
H625 C638 0.960 . S
C626 H618 0.929 . S
C626 C627 1.377 . S
C626 C628 1.384 . S
C627 C626 1.377 . S
C627 C633 1.390 . S
C628 H619 0.930 . S
C628 C626 1.384 . S
C628 C629 1.372 . S
C629 C628 1.372 . S
C629 C630 1.400 . S
C629 C634 1.490 . S
C630 H620 0.930 . S
C630 C629 1.400 . S
C630 C633 1.386 . S
H631 C647 0.930 . S
H632 C648 0.917 1_655 S
C633 H621 0.929 . S
C633 C627 1.390 . S
C633 C630 1.386 . S
C634 C629 1.490 . S
C634 C636 1.395 1_455 S
C634 C637 1.403 . S
H635 C641 0.930 1_556 S
C636 H622 0.930 . S
C636 C634 1.395 1_655 S
C636 C639 1.403 . S
C637 C634 1.403 . S
C637 C638 1.524 . S
C637 C641 1.400 . S
C638 H623 0.960 . S
C638 H624 0.960 . S
C638 H625 0.960 . S
C638 C637 1.524 . S
C639 C636 1.403 . S
C639 C640 1.392 1_654 S
C639 C643 1.495 1_554 S
C640 C639 1.392 1_456 S
C640 C641 1.385 1_556 S
C640 C642 1.478 . S
C641 H635 0.930 1_554 S
C641 C637 1.400 . S
C641 C640 1.385 1_554 S
C642 C640 1.478 . S
C642 C644 1.381 . S
C642 C648 1.383 . S
C643 C639 1.495 1_556 S
C643 H649 0.959 1_556 S
C643 H650 0.961 . S
C643 H651 0.960 . S
C644 C642 1.381 . S
C644 C645 1.394 . S
C644 H652 0.930 . S
C645 C644 1.394 . S
C645 C646 1.383 . S
C645 H653 0.929 . S
C646 C645 1.383 . S
C646 C647 1.377 . S
C647 H631 0.930 . S
C647 C646 1.377 . S
C647 C648 1.379 . S
C648 H632 0.917 1_455 S
C648 C642 1.383 . S
C648 C647 1.379 . S
H649 C643 0.959 1_554 S
H650 C643 0.961 . S
H651 C643 0.960 . S
H652 C644 0.930 . S
H653 C645 0.929 . S
H654 C662 0.929 . S
H655 C664 0.930 . S
H656 C666 0.930 . S
H657 C669 0.929 . S
H658 C672 0.930 . S
H659 C674 0.960 . S
H660 C674 0.960 . S
H661 C674 0.960 1_545 S
C662 H654 0.929 . S
C662 C663 1.377 . S
C662 C664 1.384 . S
C663 C662 1.377 . S
C663 C669 1.390 . S
C664 H655 0.930 . S
C664 C662 1.384 . S
C664 C665 1.372 . S
C665 C664 1.372 . S
C665 C666 1.400 . S
C665 C670 1.490 . S
C666 H656 0.930 . S
C666 C665 1.400 . S
C666 C669 1.386 . S
H667 C683 0.930 . S
H668 C684 0.931 . S
C669 H657 0.929 . S
C669 C663 1.390 . S
C669 C666 1.386 . S
C670 C665 1.490 . S
C670 C672 1.395 . S
C670 C673 1.403 . S
H671 C677 0.930 . S
C672 H658 0.930 . S
C672 C670 1.395 . S
C672 C675 1.403 . S
C673 C670 1.403 . S
C673 C674 1.524 1_545 S
C673 C677 1.400 . S
C674 H659 0.960 . S
C674 H660 0.960 . S
C674 H661 0.960 1_565 S
C674 C673 1.524 1_565 S
C675 C672 1.403 . S
C675 C676 1.392 . S
C675 C679 1.495 . S
C676 C675 1.392 . S
C676 C677 1.385 . S
C676 C678 1.478 . S
C677 H671 0.930 . S
C677 C673 1.400 . S
C677 C676 1.385 . S
C678 C676 1.478 . S
C678 C680 1.381 . S
C678 C684 1.383 . S
C679 C675 1.495 . S
C679 H685 0.959 . S
C679 H686 0.961 . S
C679 H687 0.960 . S
C680 C678 1.381 . S
C680 C681 1.394 . S
C680 H688 0.930 . S
C681 C680 1.394 . S
C681 C682 1.383 . S
C681 H689 0.929 . S
C682 C681 1.383 . S
C682 C683 1.377 . S
C683 H667 0.930 . S
C683 C682 1.377 . S
C683 C684 1.379 . S
C684 H668 0.931 . S
C684 C678 1.383 . S
C684 C683 1.379 . S
H685 C679 0.959 . S
H686 C679 0.961 . S
H687 C679 0.960 . S
H688 C680 0.930 . S
H689 C681 0.929 . S
H690 C698 0.929 . S
H691 C700 0.930 . S
H692 C702 0.930 . S
H693 C705 0.929 . S
H694 C708 0.930 . S
H695 C710 0.960 . S
H696 C710 0.960 . S
H697 C710 0.960 . S
C698 H690 0.929 . S
C698 C699 1.377 . S
C698 C700 1.384 . S
C699 C698 1.377 . S
C699 C705 1.390 . S
C700 H691 0.930 . S
C700 C698 1.384 . S
C700 C701 1.372 . S
C701 C700 1.372 . S
C701 C702 1.400 . S
C701 C706 1.490 . S
C702 H692 0.930 . S
C702 C701 1.400 . S
C702 C705 1.386 . S
H703 C719 0.930 . S
H704 C720 0.931 . S
C705 H693 0.929 . S
C705 C699 1.390 . S
C705 C702 1.386 . S
C706 C701 1.490 . S
C706 C708 1.395 . S
C706 C709 1.403 . S
H707 C713 0.930 . S
C708 H694 0.930 . S
C708 C706 1.395 . S
C708 C711 1.403 . S
C709 C706 1.403 . S
C709 C710 1.524 . S
C709 C713 1.400 . S
C710 H695 0.960 . S
C710 H696 0.960 . S
C710 H697 0.960 . S
C710 C709 1.524 . S
C711 C708 1.403 . S
C711 C712 1.392 . S
C711 C715 1.495 . S
C712 C711 1.392 . S
C712 C713 1.385 . S
C712 C714 1.478 . S
C713 H707 0.930 . S
C713 C709 1.400 . S
C713 C712 1.385 . S
C714 C712 1.478 . S
C714 C716 1.381 . S
C714 C720 1.383 . S
C715 C711 1.495 . S
C715 H721 0.959 . S
C715 H722 0.961 . S
C715 H723 0.960 . S
C716 C714 1.381 . S
C716 C717 1.394 . S
C716 H724 0.930 . S
C717 C716 1.394 . S
C717 C718 1.383 . S
C717 H725 0.929 . S
C718 C717 1.383 . S
C718 C719 1.377 . S
C719 H703 0.930 . S
C719 C718 1.377 . S
C719 C720 1.379 . S
C720 H704 0.931 . S
C720 C714 1.383 . S
C720 C719 1.379 . S
H721 C715 0.959 . S
H722 C715 0.961 . S
H723 C715 0.960 . S
H724 C716 0.930 . S
H725 C717 0.929 . S
H726 C734 0.907 1_565 S
H727 C736 0.930 1_565 S
H728 C738 0.930 . S
H729 C741 0.929 . S
H730 C744 0.930 . S
H731 C746 0.960 . S
H732 C746 0.960 1_565 S
H733 C746 0.960 . S
C734 H726 0.907 1_545 S
C734 C735 1.377 . S
C734 C736 1.384 . S
C735 C734 1.377 . S
C735 C741 1.390 . S
C736 H727 0.930 1_545 S
C736 C734 1.384 . S
C736 C737 1.372 . S
C737 C736 1.372 . S
C737 C738 1.400 . S
C737 C742 1.490 . S
C738 H728 0.930 . S
C738 C737 1.400 . S
C738 C741 1.386 . S
H739 C755 0.930 . S
H740 C756 0.931 . S
C741 H729 0.929 . S
C741 C735 1.390 . S
C741 C738 1.386 . S
C742 C737 1.490 . S
C742 C744 1.395 . S
C742 C745 1.403 . S
H743 C749 0.930 . S
C744 H730 0.930 . S
C744 C742 1.395 . S
C744 C747 1.403 . S
C745 C742 1.403 . S
C745 C746 1.524 . S
C745 C749 1.400 . S
C746 H731 0.960 . S
C746 H732 0.960 1_545 S
C746 H733 0.960 . S
C746 C745 1.524 . S
C747 C744 1.403 . S
C747 C748 1.392 . S
C747 C751 1.495 . S
C748 C747 1.392 . S
C748 C749 1.385 . S
C748 C750 1.478 . S
C749 H743 0.930 . S
C749 C745 1.400 . S
C749 C748 1.385 . S
C750 C748 1.478 . S
C750 C752 1.381 . S
C750 C756 1.383 . S
C751 C747 1.495 . S
C751 H757 0.959 . S
C751 H758 0.961 . S
C751 H759 0.960 . S
C752 C750 1.381 . S
C752 C753 1.394 1_545 S
C752 H760 0.930 1_545 S
C753 C752 1.394 1_565 S
C753 C754 1.383 1_565 S
C753 H761 0.929 . S
C754 C753 1.383 1_545 S
C754 C755 1.377 . S
C755 H739 0.930 . S
C755 C754 1.377 . S
C755 C756 1.379 . S
C756 H740 0.931 . S
C756 C750 1.383 . S
C756 C755 1.379 . S
H757 C751 0.959 . S
H758 C751 0.961 . S
H759 C751 0.960 . S
H760 C752 0.930 1_565 S
H761 C753 0.929 . S
H762 C770 0.929 . S
H763 C772 0.930 . S
H764 C774 0.930 . S
H765 C777 0.929 . S
H766 C780 0.930 . S
H767 C782 0.960 . S
H768 C782 0.960 . S
H769 C782 0.960 . S
C770 H762 0.929 . S
C770 C771 1.377 . S
C770 C772 1.384 . S
C771 C770 1.377 . S
C771 C777 1.390 . S
C772 H763 0.930 . S
C772 C770 1.384 . S
C772 C773 1.372 . S
C773 C772 1.372 . S
C773 C774 1.400 . S
C773 C778 1.490 . S
C774 H764 0.930 . S
C774 C773 1.400 . S
C774 C777 1.386 . S
H775 C791 0.930 . S
H776 C792 0.931 . S
C777 H765 0.929 . S
C777 C771 1.390 . S
C777 C774 1.386 . S
C778 C773 1.490 . S
C778 C780 1.395 . S
C778 C781 1.403 . S
H779 C785 0.930 1_554 S
C780 H766 0.930 . S
C780 C778 1.395 . S
C780 C783 1.403 . S
C781 C778 1.403 . S
C781 C782 1.524 . S
C781 C785 1.400 . S
C782 H767 0.960 . S
C782 H768 0.960 . S
C782 H769 0.960 . S
C782 C781 1.524 . S
C783 C780 1.403 . S
C783 C784 1.392 1_556 S
C783 C787 1.494 1_556 S
C784 C783 1.392 1_554 S
C784 C785 1.385 1_554 S
C784 C786 1.478 . S
C785 H779 0.930 1_556 S
C785 C781 1.400 . S
C785 C784 1.385 1_556 S
C786 C784 1.478 . S
C786 C788 1.381 . S
C786 C792 1.383 . S
C787 C783 1.494 1_554 S
C787 H793 0.956 1_554 S
C787 H794 0.963 . S
C787 H795 0.962 . S
C788 C786 1.381 . S
C788 C789 1.394 . S
C788 H796 0.930 . S
C789 C788 1.394 . S
C789 C790 1.383 . S
C789 H797 0.929 . S
C790 C789 1.383 . S
C790 C791 1.377 . S
C791 H775 0.930 . S
C791 C790 1.377 . S
C791 C792 1.379 . S
C792 H776 0.931 . S
C792 C786 1.383 . S
C792 C791 1.379 . S
H793 C787 0.956 1_556 S
H794 C787 0.963 . S
H795 C787 0.962 . S
H796 C788 0.930 . S
H797 C789 0.929 . S
H798 C806 0.929 . S
H799 C808 0.930 . S
H800 C810 0.930 . S
H801 C813 0.929 . S
H802 C816 0.930 . S
H803 C818 0.960 . S
H804 C818 0.960 . S
H805 C818 0.960 . S
C806 H798 0.929 . S
C806 C807 1.377 1_655 S
C806 C808 1.384 . S
C807 C806 1.377 1_455 S
C807 C813 1.390 . S
C808 H799 0.930 . S
C808 C806 1.384 . S
C808 C809 1.372 1_655 S
C809 C808 1.372 1_455 S
C809 C810 1.400 . S
C809 C814 1.490 . S
C810 H800 0.930 . S
C810 C809 1.400 . S
C810 C813 1.386 . S
H811 C827 0.930 . S
H812 C828 0.931 . S
C813 H801 0.929 . S
C813 C807 1.390 . S
C813 C810 1.386 . S
C814 C809 1.490 . S
C814 C816 1.395 . S
C814 C817 1.403 . S
H815 C821 0.930 . S
C816 H802 0.930 . S
C816 C814 1.395 . S
C816 C819 1.403 . S
C817 C814 1.403 . S
C817 C818 1.524 . S
C817 C821 1.400 . S
C818 H803 0.960 . S
C818 H804 0.960 . S
C818 H805 0.960 . S
C818 C817 1.524 . S
C819 C816 1.403 . S
C819 C820 1.392 . S
C819 C823 1.495 1_455 S
C820 C819 1.392 . S
C820 C821 1.385 . S
C820 C822 1.478 . S
C821 H815 0.930 . S
C821 C817 1.400 . S
C821 C820 1.385 . S
C822 C820 1.478 . S
C822 C824 1.381 1_455 S
C822 C828 1.383 . S
C823 C819 1.495 1_655 S
C823 H829 0.959 . S
C823 H830 0.961 1_655 S
C823 H831 0.960 . S
C824 C822 1.381 1_655 S
C824 C825 1.394 . S
C824 H832 0.930 . S
C825 C824 1.394 . S
C825 C826 1.383 1_655 S
C825 H833 0.929 . S
C826 C825 1.383 1_455 S
C826 C827 1.377 . S
C827 H811 0.930 . S
C827 C826 1.377 . S
C827 C828 1.379 . S
C828 H812 0.931 . S
C828 C822 1.383 . S
C828 C827 1.379 . S
H829 C823 0.959 . S
H830 C823 0.961 1_455 S
H831 C823 0.960 . S
H832 C824 0.930 . S
H833 C825 0.929 . S
C195 C10 3.044 . S
C214 C185 3.012 . S
C231 C59 3.135 . S
C250 C163 3.057 . S
C267 C90 3.026 . S
C286 C174 2.976 . S
C303 C19 2.958 . S
C322 C179 2.922 . S
C358 C157 2.857 . S
C339 C50 2.879 . S
C394 C168 2.914 . S
C375 C99 2.965 . S
C411 C46 0.481 . S
C430 C141 0.475 . S
C447 C95 0.245 . S
C466 C146 0.143 . S
C483 C6 0.197 . S
C502 C124 0.230 . S
C538 C135 0.233 . S
C519 C55 0.224 . S
C574 C152 0.490 . S
C555 C86 0.399 . S
C591 C15 0.342 . S
C610 C130 0.338 . S
C646 C147 1.307 . S
C627 C9 1.295 . S
C663 C49 1.213 . S
C682 C125 1.260 . S
C699 C89 1.250 . S
C718 C136 1.296 . S
C754 C169 1.718 . S
C735 C58 1.680 . S
C790 C180 1.744 . S
C771 C98 1.685 . S
C807 C18 1.679 . S
C826 C158 1.786 . S
