# Generated by pormake.
# Topology nom, (4,4)-cn, num edge types: 1
# Building blocks:
#     Node 0, Type 0, BuildingBlock: KUFVIS_clean_linker_0, # of connection points: 4
#     Node 1, Type 0, BuildingBlock: KUFVIS_clean_linker_0, # of connection points: 4
#     Node 2, Type 0, BuildingBlock: KUFVIS_clean_linker_0, # of connection points: 4
#     Node 3, Type 0, BuildingBlock: KUFVIS_clean_linker_0, # of connection points: 4
#     Node 4, Type 0, BuildingBlock: KUFVIS_clean_linker_0, # of connection points: 4
#     Node 5, Type 0, BuildingBlock: KUFVIS_clean_linker_0, # of connection points: 4
#     Node 6, Type 1, BuildingBlock: KUFVIS_clean_sbu_0, # of connection points: 4
#     Node 7, Type 1, BuildingBlock: KUFVIS_clean_sbu_0, # of connection points: 4
#     Node 8, Type 1, BuildingBlock: KUFVIS_clean_sbu_0, # of connection points: 4
#     Node 9, Type 1, BuildingBlock: KUFVIS_clean_sbu_0, # of connection points: 4
#     Node 10, Type 1, BuildingBlock: KUFVIS_clean_sbu_0, # of connection points: 4
#     Node 11, Type 1, BuildingBlock: KUFVIS_clean_sbu_0, # of connection points: 4
#     Edge 12, Type (0, 1), None
#     Edge 13, Type (0, 1), None
#     Edge 14, Type (0, 1), None
#     Edge 15, Type (0, 1), None
#     Edge 16, Type (0, 1), None
#     Edge 17, Type (0, 1), None
#     Edge 18, Type (0, 1), None
#     Edge 19, Type (0, 1), None
#     Edge 20, Type (0, 1), None
#     Edge 21, Type (0, 1), None
#     Edge 22, Type (0, 1), None
#     Edge 23, Type (0, 1), None
#     Edge 24, Type (0, 1), None
#     Edge 25, Type (0, 1), None
#     Edge 26, Type (0, 1), None
#     Edge 27, Type (0, 1), None
#     Edge 28, Type (0, 1), None
#     Edge 29, Type (0, 1), None
#     Edge 30, Type (0, 1), None
#     Edge 31, Type (0, 1), None
#     Edge 32, Type (0, 1), None
#     Edge 33, Type (0, 1), None
#     Edge 34, Type (0, 1), None
#     Edge 35, Type (0, 1), None
# Relax obj value: 0.005
# Max RMSD: 0.059
# Mean RMSD: 0.040
data_MOF--net-nom--node1-KUFVIS_clean_sbu_0--node2-KUFVIS_clean_linker_0--edge1-none
_symmetry_space_group_name_H-M    P1
_symmetry_Int_Tables_number       1
_symmetry_cell_setting            triclinic
loop_
_symmetry_equiv_pos_as_xyz
'x, y, z'
_cell_length_a     20.2921
_cell_length_b     20.708676
_cell_length_c     21.770347
_cell_angle_alpha  90.955993
_cell_angle_beta   90.994651
_cell_angle_gamma 120.22912
loop_
_atom_site_label
_atom_site_type_symbol
_atom_site_fract_x
_atom_site_fract_y
_atom_site_fract_z
_atom_type_partial_charge
H0 H 0.28641 0.65327 0.38849 0.0
H1 H 0.13727 0.62859 0.2375 0.0
H2 H 0.04869 0.55315 0.41873 0.0
H3 H 0.94676 0.54933 0.3818 0.0
H4 H 0.78989 0.44414 0.23008 0.0
H5 H 1.02837 0.53869 0.20138 0.0
C6 C 0.22933 0.63268 0.36981 0.0
C7 C 0.16919 0.60474 0.41022 0.0
C8 C 0.21904 0.64411 0.30814 0.0
C9 C 0.14435 0.6175 0.28474 0.0
C10 C 0.08016 0.57958 0.32284 0.0
C11 C 0.09448 0.57664 0.38675 0.0
C12 C 0.99936 0.54461 0.2964 0.0
C13 C 0.93732 0.53057 0.33416 0.0
C14 C 0.86179 0.49307 0.31048 0.0
C15 C 0.84789 0.4706 0.24843 0.0
C16 C 0.90799 0.48851 0.2086 0.0
C17 C 0.98317 0.52492 0.23279 0.0
H18 H 0.6818 0.27806 0.55367 0.0
H19 H 0.56711 0.12828 0.40073 0.0
H20 H 0.5671 0.04421 0.5824 0.0
H21 H 0.4782 0.9383 0.54463 0.0
H22 H 0.44109 0.79202 0.39046 0.0
H23 H 0.55299 1.02589 0.36332 0.0
C24 C 0.65044 0.22165 0.53444 0.0
C25 C 0.62474 0.16253 0.57457 0.0
C26 C 0.62739 0.20998 0.47232 0.0
C27 C 0.58603 0.13619 0.44833 0.0
C28 C 0.56702 0.07402 0.48626 0.0
C29 C 0.58454 0.08884 0.55048 0.0
C30 C 0.528 0.99474 0.45934 0.0
C31 C 0.48775 0.93153 0.49691 0.0
C32 C 0.45579 0.85814 0.47219 0.0
C33 C 0.46579 0.84807 0.41015 0.0
C34 C 0.49639 0.90784 0.37065 0.0
C35 C 0.52862 0.98096 0.39511 0.0
H36 H 0.66762 0.41578 0.55476 0.0
H37 H 0.54482 0.43645 0.70427 0.0
H38 H 0.51944 0.5014 0.521 0.0
H39 H 0.42672 0.51131 0.55941 0.0
H40 H 0.39528 0.62812 0.70923 0.0
H41 H 0.53499 0.53101 0.73807 0.0
C42 C 0.62983 0.43373 0.57273 0.0
C43 C 0.59445 0.45812 0.53163 0.0
C44 C 0.6088 0.4214 0.63395 0.0
C45 C 0.5609 0.44648 0.65679 0.0
C46 C 0.53249 0.48202 0.61782 0.0
C47 C 0.54559 0.48213 0.55384 0.0
C48 C 0.49051 0.51897 0.64375 0.0
C49 C 0.441 0.53263 0.60633 0.0
C50 C 0.40842 0.57373 0.62954 0.0
C51 C 0.42318 0.59949 0.69064 0.0
C52 C 0.46558 0.58087 0.73007 0.0
C53 C 0.50048 0.54232 0.70661 0.0
H54 H 0.29391 0.64473 0.73582 0.0
H55 H 0.13991 0.53104 0.8802 0.0
H56 H 0.05455 0.55497 0.70372 0.0
H57 H 0.95587 0.44255 0.73461 0.0
H58 H 0.80067 0.40346 0.87904 0.0
H59 H 0.04078 0.54621 0.91431 0.0
C60 C 0.23679 0.61866 0.75344 0.0
C61 C 0.17576 0.60306 0.71345 0.0
C62 C 0.22392 0.59096 0.81281 0.0
C63 C 0.1494 0.55341 0.83451 0.0
C64 C 0.08743 0.54319 0.79669 0.0
C65 C 0.10134 0.56663 0.7353 0.0
C66 C 1.00813 0.5045 0.8199 0.0
C67 C 0.94609 0.45534 0.78082 0.0
C68 C 0.8713 0.41968 0.80187 0.0
C69 C 0.85806 0.43367 0.86202 0.0
C70 C 0.91919 0.4767 0.90314 0.0
C71 C 0.994 0.51302 0.88195 0.0
H72 H 0.42476 0.80514 0.04882 0.0
H73 H 0.54801 0.94523 0.90068 0.0
H74 H 0.56208 0.03956 0.08322 0.0
H75 H 0.66364 0.13694 0.04813 0.0
H76 H 0.70439 0.2835 0.89934 0.0
H77 H 0.55732 0.04901 0.86796 0.0
C78 C 0.45986 0.86041 0.03066 0.0
C79 C 0.49247 0.92108 0.07197 0.0
C80 C 0.48188 0.86809 0.96945 0.0
C81 C 0.52977 0.94008 0.94761 0.0
C82 C 0.55606 1.00428 0.98708 0.0
C83 C 0.53927 0.99317 0.05029 0.0
C84 C 0.60075 0.08187 0.9626 0.0
C85 C 0.65135 0.14421 0.00105 0.0
C86 C 0.68697 0.21715 0.97864 0.0
C87 C 0.67426 0.22779 0.91744 0.0
C88 C 0.63046 0.16696 0.87744 0.0
C89 C 0.59255 0.0946 0.89997 0.0
H90 H 0.4456 0.68893 0.05749 0.0
H91 H 0.54725 0.63862 0.20802 0.0
H92 H 0.53929 0.54773 0.02574 0.0
H93 H 0.62153 0.5216 0.06316 0.0
H94 H 0.63931 0.40088 0.21383 0.0
H95 H 0.54672 0.54238 0.24416 0.0
C96 C 0.47083 0.65758 0.07519 0.0
C97 C 0.48925 0.61602 0.03477 0.0
C98 C 0.49309 0.66686 0.13713 0.0
C99 C 0.52854 0.62866 0.16032 0.0
C100 C 0.54153 0.5804 0.12196 0.0
C101 C 0.52468 0.57803 0.05812 0.0
C102 C 0.57272 0.53357 0.14813 0.0
C103 C 0.60852 0.50457 0.11011 0.0
C104 C 0.63223 0.45644 0.13354 0.0
C105 C 0.61929 0.43629 0.19488 0.0
C106 C 0.59416 0.47155 0.23514 0.0
C107 C 0.56883 0.5184 0.21186 0.0
Mn108 Mn 0.64122 0.38252 0.39763 0.0
Mn109 Mn 0.72338 0.56941 0.40373 0.0
C110 C 0.59889 0.44143 0.46629 0.0
C111 C 0.63881 0.27622 0.43766 0.0
C112 C 0.61313 0.47127 0.30075 0.0
O113 O 0.74067 0.41628 0.35304 0.0
O114 O 0.79631 0.54163 0.3668 0.0
C115 C 0.84428 0.6 0.4969 0.0
N116 N 0.78276 0.60547 0.47863 0.0
C117 C 0.78391 0.66452 0.57511 0.0
C118 C 0.84786 0.66034 0.59465 0.0
C119 C 0.87802 0.62775 0.55542 0.0
C120 C 0.7528 0.63603 0.51625 0.0
H121 H 0.86701 0.57408 0.46724 0.0
C122 C 0.79682 0.48274 0.34776 0.0
O123 O 0.60623 0.27226 0.3846 0.0
O124 O 0.67484 0.34153 0.46434 0.0
N125 N 0.65938 0.60264 0.43921 0.0
C126 C 0.59501 0.59853 0.41482 0.0
C127 C 0.55792 0.62904 0.44815 0.0
C128 C 0.58686 0.66265 0.50646 0.0
C129 C 0.65273 0.6655 0.53088 0.0
C130 C 0.68814 0.63556 0.495 0.0
H131 H 0.57248 0.57274 0.37005 0.0
O132 O 0.55507 0.37214 0.44874 0.0
O133 O 0.66491 0.47333 0.44106 0.0
O134 O 0.59803 0.40844 0.32259 0.0
O135 O 0.66039 0.53462 0.32635 0.0
C136 C 0.68375 0.6955 0.5899 0.0
C137 C 0.74908 0.69471 0.61211 0.0
H138 H 0.87382 0.68134 0.63989 0.0
H139 H 0.92689 0.62362 0.5704 0.0
H140 H 0.50692 0.6263 0.42911 0.0
H141 H 0.5575 0.68518 0.53238 0.0
H142 H 0.65722 0.71846 0.6189 0.0
H143 H 0.77182 0.71708 0.65786 0.0
Mn144 Mn 0.29683 0.68402 0.54546 0.0
Mn145 Mn 0.18437 0.49763 0.54668 0.0
C146 C 0.19117 0.62201 0.47623 0.0
C147 C 0.4014 0.79065 0.50584 0.0
C148 C 0.18947 0.60304 0.6476 0.0
O149 O 0.36304 0.65001 0.58974 0.0
O150 O 0.28947 0.52415 0.57633 0.0
C151 C 0.24812 0.43728 0.45681 0.0
N152 N 0.18941 0.44645 0.47497 0.0
C153 C 0.10065 0.3469 0.40655 0.0
C154 C 0.1601 0.33602 0.38729 0.0
C155 C 0.23442 0.38239 0.41165 0.0
C156 C 0.11834 0.40427 0.44987 0.0
H157 H 0.30439 0.47013 0.47794 0.0
C158 C 0.35177 0.58354 0.59376 0.0
O159 O 0.37438 0.79388 0.5587 0.0
O160 O 0.37019 0.72543 0.47862 0.0
N161 N 0.08288 0.46763 0.51841 0.0
C162 C 1.0324 0.48603 0.54183 0.0
C163 C 0.9571 0.45023 0.51787 0.0
C164 C 0.93402 0.39432 0.47156 0.0
C165 C 0.98709 0.37622 0.4486 0.0
C166 C 0.0623 0.41672 0.47192 0.0
H167 H 0.04931 0.52722 0.57877 0.0
O168 O 0.21831 0.69146 0.49333 0.0
O169 O 0.22502 0.59066 0.50303 0.0
O170 O 0.23389 0.66449 0.62253 0.0
O171 O 0.17093 0.53964 0.62364 0.0
C172 C 0.96773 0.31745 0.40561 0.0
C173 C 1.024 0.30128 0.38635 0.0
H174 H 0.14933 0.29197 0.35413 0.0
H175 H 0.28049 0.37417 0.39713 0.0
H176 H 0.91651 0.46436 0.53608 0.0
H177 H 0.87529 0.365 0.45461 0.0
H178 H 0.90943 0.28296 0.38847 0.0
H179 H 1.00764 0.2532 0.35638 0.0
Mn180 Mn 0.65115 0.28146 0.70992 0.0
Mn181 Mn 0.75666 0.19872 0.71573 0.0
C182 C 0.62537 0.18225 0.64045 0.0
C183 C 0.63029 0.37343 0.66869 0.0
C184 C 0.64198 0.18019 0.81166 0.0
O185 O 0.74643 0.35799 0.75801 0.0
O186 O 0.81823 0.30301 0.75009 0.0
C187 C 0.88512 0.28654 0.63508 0.0
N188 N 0.82106 0.2208 0.64722 0.0
C189 C 0.85268 0.15417 0.57321 0.0
C190 C 0.91871 0.22118 0.55958 0.0
C191 C 0.93506 0.28753 0.59093 0.0
C192 C 0.80461 0.15652 0.61731 0.0
H193 H 0.89941 0.33738 0.66037 0.0
C194 C 0.80883 0.35775 0.76595 0.0
O195 O 0.60011 0.34309 0.72022 0.0
O196 O 0.67364 0.35198 0.64355 0.0
N197 N 0.70262 0.0986 0.68269 0.0
C198 C 0.63886 0.03814 0.70357 0.0
C199 C 0.61315 0.96743 0.67576 0.0
C200 C 0.65455 0.9594 0.62811 0.0
C201 C 0.72049 1.02247 0.608 0.0
C202 C 0.74127 0.09194 0.63551 0.0
H203 H 0.60816 0.04386 0.74132 0.0
O204 O 0.57292 0.19755 0.65535 0.0
O205 O 0.69024 0.2239 0.66946 0.0
O206 O 0.61563 0.21743 0.78586 0.0
O207 O 0.6944 0.17112 0.78937 0.0
C208 C 0.76818 1.01883 0.56357 0.0
C209 C 0.83515 0.08456 0.54735 0.0
H210 H 0.95817 0.22203 0.52626 0.0
H211 H 0.98738 0.33877 0.58269 0.0
H212 H 0.56242 0.91902 0.69179 0.0
H213 H 0.63572 0.9045 0.60782 0.0
H214 H 0.75504 0.9655 0.54308 0.0
H215 H 0.87412 0.08144 0.51592 0.0
Mn216 Mn 0.44952 0.68671 0.89563 0.0
Mn217 Mn 0.35213 0.5 0.90019 0.0
C218 C 0.48459 0.62691 0.96829 0.0
C219 C 0.46302 0.79869 0.93436 0.0
C220 C 0.45689 0.5876 0.79642 0.0
O221 O 0.35087 0.65793 0.84946 0.0
O222 O 0.28154 0.53451 0.86922 0.0
C223 C 0.23404 0.46432 -0.00796 0.0
N224 N 0.29885 0.46556 0.97493 0.0
C225 C 0.29797 0.39805 0.06418 0.0
C226 C 0.23186 0.39712 0.08322 0.0
C227 C 0.19899 0.42901 0.04624 0.0
C228 C 0.32914 0.43209 0.00871 0.0
H229 H 0.20813 0.4883 0.96369 0.0
C230 C 0.28852 0.59529 0.84811 0.0
O231 O 0.49308 0.79727 0.8824 0.0
O232 O 0.42301 0.73544 0.96026 0.0
N233 N 0.41564 0.46281 0.93037 0.0
C234 C 0.47566 0.46305 0.90301 0.0
C235 C 0.51239 0.42916 0.93207 0.0
C236 C 0.48682 0.39504 -0.01125 0.0
C237 C 0.42492 0.39545 0.01603 0.0
C238 C 0.39063 0.43019 0.98493 0.0
H239 H 0.49523 0.48863 0.85923 0.0
O240 O 0.53333 0.69302 0.94981 0.0
O241 O 0.41836 0.59694 0.9402 0.0
O242 O 0.48551 0.6529 0.82093 0.0
O243 O 0.40533 0.52874 0.82126 0.0
C244 C 0.39617 0.36314 0.07297 0.0
C245 C 0.33259 0.36425 0.09696 0.0
H246 H 0.20459 0.37014 0.12512 0.0
H247 H 0.14576 0.42481 0.0586 0.0
H248 H 0.56021 0.42919 0.91078 0.0
H249 H 0.51537 0.36905 0.01105 0.0
H250 H 0.42208 0.33667 0.09841 0.0
H251 H 0.31008 0.338 0.14022 0.0
Mn252 Mn 0.79178 0.4377 0.0663 0.0
Mn253 Mn 0.90577 0.3651 0.06991 0.0
C254 C 0.88995 0.48141 0.14155 0.0
C255 C 0.68471 0.43904 0.1005 0.0
C256 C 0.90433 0.4639 0.96873 0.0
O257 O 0.73104 0.33906 0.01815 0.0
O258 O 0.80244 0.28531 0.03765 0.0
C259 C 0.84219 0.24236 0.15715 0.0
N260 N 0.89946 0.31112 0.14174 0.0
C261 C 0.98605 0.3063 0.21586 0.0
C262 C 0.92804 0.23514 0.23223 0.0
C263 C 0.85567 0.20345 0.2032 0.0
C264 C 0.96898 0.34284 0.17028 0.0
H265 H 0.78755 0.21624 0.1329 0.0
C266 C 0.74194 0.28333 0.0161 0.0
O267 O 0.71492 0.46946 0.04904 0.0
O268 O 0.71343 0.40374 0.1285 0.0
N269 N 1.00549 0.43788 0.10057 0.0
C270 C 0.05593 0.50552 0.07751 0.0
C271 C 0.12941 0.54746 0.10463 0.0
C272 C 0.15094 0.5184 0.15391 0.0
C273 C 0.0982 0.44824 0.17622 0.0
C274 C 1.02467 0.41067 0.14923 0.0
H275 H 0.04033 0.52727 0.03871 0.0
O276 O 0.86319 0.52291 0.12223 0.0
O277 O 0.86076 0.41664 0.11297 0.0
O278 O 0.86068 0.4833 -0.0064 0.0
O279 O 0.92063 0.4179 -0.0075 0.0
C280 C 0.11652 0.41273 0.22237 0.0
C281 C 0.06124 0.34079 0.24048 0.0
H282 H 0.93857 0.2034 0.26595 0.0
H283 H 0.81135 0.14792 0.21461 0.0
H284 H 0.16986 0.60128 0.08679 0.0
H285 H 0.20834 0.54981 0.17357 0.0
H286 H 0.17367 0.43899 0.24262 0.0
H287 H 0.07797 0.31178 0.27203 0.0
Mn288 Mn 0.40222 0.78986 0.23367 0.0
Mn289 Mn 0.59372 0.88429 0.23067 0.0
C290 C 0.47517 0.88838 0.3049 0.0
C291 C 0.28877 0.69323 0.27344 0.0
C292 C 0.49287 0.90306 0.13688 0.0
O293 O 0.42429 0.71852 0.18395 0.0
O294 O 0.55339 0.78319 0.19064 0.0
C295 C 0.63356 0.79325 0.30923 0.0
N296 N 0.63694 0.85939 0.29821 0.0
C297 C 0.73158 0.92209 0.37893 0.0
C298 C 0.72923 0.85474 0.39127 0.0
C299 C 0.67976 0.78999 0.35635 0.0
C300 C 0.68331 0.92177 0.33225 0.0
H301 H 0.5971 0.74374 0.28148 0.0
C302 C 0.48951 0.72522 0.1744 0.0
O303 O 0.28762 0.72376 0.22207 0.0
O304 O 0.35536 0.71608 0.29867 0.0
N305 N 0.6385 0.98165 0.269 0.0
C306 C 0.63455 0.04235 0.25093 0.0
C307 C 0.67819 0.11106 0.28305 0.0
C308 C 0.72711 0.11711 0.33208 0.0
C309 C 0.73087 0.05401 0.34917 0.0
C310 C 0.68378 0.9864 0.31707 0.0
H311 H 0.59852 0.03839 0.21228 0.0
O312 O 0.40541 0.8693 0.28979 0.0
O313 O 0.50045 0.85072 0.27543 0.0
O314 O 0.4291 0.8578 0.16004 0.0
O315 O 0.55684 0.9157 0.15923 0.0
C316 C 0.78111 0.05593 0.3955 0.0
C317 C 0.78213 0.99009 0.40959 0.0
H318 H 0.76578 0.85229 0.4269 0.0
H319 H 0.67891 0.73831 0.36462 0.0
H320 H 0.67531 0.15958 0.26927 0.0
H321 H 0.76207 0.17059 0.35583 0.0
H322 H 0.82021 0.10808 0.41951 0.0
H323 H 0.82275 0.99187 0.44322 0.0
loop_
_geom_bond_atom_site_label_1
_geom_bond_atom_site_label_2
_geom_bond_distance
_geom_bond_site_symmetry_2
_ccdc_geom_bond_type
H0 C6 0.930 . S
H1 C9 0.931 . S
H2 C11 0.931 . S
H3 C13 0.930 . S
H4 C15 0.930 . S
H5 C17 0.931 . S
C6 H0 0.930 . S
C6 C7 1.380 . S
C6 C8 1.394 . S
C7 C6 1.380 . S
C7 C11 1.382 . S
C8 C6 1.394 . S
C8 C9 1.400 . S
C9 H1 0.931 . S
C9 C8 1.400 . S
C9 C10 1.375 . S
C10 C9 1.375 . S
C10 C11 1.415 . S
C10 C12 1.501 1_455 S
C11 H2 0.931 . S
C11 C7 1.382 . S
C11 C10 1.415 . S
C12 C10 1.501 1_655 S
C12 C13 1.384 . S
C12 C17 1.408 . S
C13 H3 0.930 . S
C13 C12 1.384 . S
C13 C14 1.389 . S
C14 C13 1.389 . S
C14 C15 1.405 . S
C15 H4 0.930 . S
C15 C14 1.405 . S
C15 C16 1.364 . S
C16 C15 1.364 . S
C16 C17 1.400 . S
C17 H5 0.931 . S
C17 C12 1.408 . S
C17 C16 1.400 . S
H18 C24 0.930 . S
H19 C27 0.931 . S
H20 C29 0.931 . S
H21 C31 0.930 . S
H22 C33 0.930 . S
H23 C35 0.931 . S
C24 H18 0.930 . S
C24 C25 1.380 . S
C24 C26 1.394 . S
C25 C24 1.380 . S
C25 C29 1.382 . S
C26 C24 1.394 . S
C26 C27 1.400 . S
C27 H19 0.931 . S
C27 C26 1.400 . S
C27 C28 1.375 . S
C28 C27 1.375 . S
C28 C29 1.415 . S
C28 C30 1.501 1_545 S
C29 H20 0.931 . S
C29 C25 1.382 . S
C29 C28 1.415 . S
C30 C28 1.501 1_565 S
C30 C31 1.384 . S
C30 C35 1.408 . S
C31 H21 0.930 . S
C31 C30 1.384 . S
C31 C32 1.389 . S
C32 C31 1.389 . S
C32 C33 1.405 . S
C33 H22 0.930 . S
C33 C32 1.405 . S
C33 C34 1.364 . S
C34 C33 1.364 . S
C34 C35 1.400 . S
C35 H23 0.931 . S
C35 C30 1.408 . S
C35 C34 1.400 . S
H36 C42 0.930 . S
H37 C45 0.931 . S
H38 C47 0.931 . S
H39 C49 0.930 . S
H40 C51 0.930 . S
H41 C53 0.931 . S
C42 H36 0.930 . S
C42 C43 1.380 . S
C42 C44 1.394 . S
C43 C42 1.380 . S
C43 C47 1.382 . S
C44 C42 1.394 . S
C44 C45 1.400 . S
C45 H37 0.931 . S
C45 C44 1.400 . S
C45 C46 1.375 . S
C46 C45 1.375 . S
C46 C47 1.415 . S
C46 C48 1.501 . S
C47 H38 0.931 . S
C47 C43 1.382 . S
C47 C46 1.415 . S
C48 C46 1.501 . S
C48 C49 1.384 . S
C48 C53 1.408 . S
C49 H39 0.930 . S
C49 C48 1.384 . S
C49 C50 1.389 . S
C50 C49 1.389 . S
C50 C51 1.405 . S
C51 H40 0.930 . S
C51 C50 1.405 . S
C51 C52 1.364 . S
C52 C51 1.364 . S
C52 C53 1.400 . S
C53 H41 0.931 . S
C53 C48 1.408 . S
C53 C52 1.400 . S
H54 C60 0.930 . S
H55 C63 0.931 . S
H56 C65 0.931 . S
H57 C67 0.930 . S
H58 C69 0.930 . S
H59 C71 0.931 . S
C60 H54 0.930 . S
C60 C61 1.380 . S
C60 C62 1.394 . S
C61 C60 1.380 . S
C61 C65 1.382 . S
C62 C60 1.394 . S
C62 C63 1.400 . S
C63 H55 0.931 . S
C63 C62 1.400 . S
C63 C64 1.375 . S
C64 C63 1.375 . S
C64 C65 1.415 . S
C64 C66 1.501 1_455 S
C65 H56 0.931 . S
C65 C61 1.382 . S
C65 C64 1.415 . S
C66 C64 1.501 1_655 S
C66 C67 1.384 . S
C66 C71 1.408 . S
C67 H57 0.930 . S
C67 C66 1.384 . S
C67 C68 1.389 . S
C68 C67 1.389 . S
C68 C69 1.405 . S
C69 H58 0.930 . S
C69 C68 1.405 . S
C69 C70 1.364 . S
C70 C69 1.364 . S
C70 C71 1.400 . S
C71 H59 0.931 . S
C71 C66 1.408 . S
C71 C70 1.400 . S
H72 C78 0.930 . S
H73 C81 0.931 . S
H74 C83 0.930 1_545 S
H75 C85 0.930 . S
H76 C87 0.930 . S
H77 C89 0.931 . S
C78 H72 0.930 . S
C78 C79 1.380 . S
C78 C80 1.394 1_554 S
C79 C78 1.380 . S
C79 C83 1.382 . S
C80 C78 1.394 1_556 S
C80 C81 1.400 . S
C81 H73 0.931 . S
C81 C80 1.400 . S
C81 C82 1.371 1_556 S
C82 C81 1.371 1_554 S
C82 C83 1.421 . S
C82 C84 1.499 1_564 S
C83 H74 0.930 1_565 S
C83 C79 1.382 . S
C83 C82 1.421 . S
C84 C82 1.499 1_546 S
C84 C85 1.384 1_556 S
C84 C89 1.408 . S
C85 H75 0.930 . S
C85 C84 1.384 1_554 S
C85 C86 1.389 . S
C86 C85 1.389 . S
C86 C87 1.405 1_554 S
C87 H76 0.930 . S
C87 C86 1.405 1_556 S
C87 C88 1.364 . S
C88 C87 1.364 . S
C88 C89 1.400 . S
C89 H77 0.931 . S
C89 C84 1.408 . S
C89 C88 1.400 . S
H90 C96 0.930 . S
H91 C99 0.931 . S
H92 C101 0.931 . S
H93 C103 0.930 . S
H94 C105 0.930 . S
H95 C107 0.931 . S
C96 H90 0.930 . S
C96 C97 1.380 . S
C96 C98 1.394 . S
C97 C96 1.380 . S
C97 C101 1.382 . S
C98 C96 1.394 . S
C98 C99 1.400 . S
C99 H91 0.931 . S
C99 C98 1.400 . S
C99 C100 1.375 . S
C100 C99 1.375 . S
C100 C101 1.415 . S
C100 C102 1.501 . S
C101 H92 0.931 . S
C101 C97 1.382 . S
C101 C100 1.415 . S
C102 C100 1.501 . S
C102 C103 1.384 . S
C102 C107 1.408 . S
C103 H93 0.930 . S
C103 C102 1.384 . S
C103 C104 1.389 . S
C104 C103 1.389 . S
C104 C105 1.405 . S
C105 H94 0.930 . S
C105 C104 1.405 . S
C105 C106 1.364 . S
C106 C105 1.364 . S
C106 C107 1.400 . S
C107 H95 0.931 . S
C107 C102 1.408 . S
C107 C106 1.400 . S
Mn108 O113 2.095 . S
Mn108 O123 2.162 . S
Mn108 O124 2.297 . S
Mn108 O132 2.385 . S
Mn108 O133 2.209 . S
Mn108 O134 2.094 . S
Mn109 O114 2.121 . S
Mn109 N116 2.257 . S
Mn109 N125 2.282 . S
Mn109 O133 2.215 . S
Mn109 O135 2.117 . S
C110 O132 1.234 . S
C110 O133 1.283 . S
C111 O123 1.281 . S
C111 O124 1.236 . S
C112 O134 1.240 . S
C112 O135 1.264 . S
O113 Mn108 2.095 . S
O113 C122 1.250 . S
O114 Mn109 2.121 . S
O114 C122 1.258 . S
C115 N116 1.326 . S
C115 C119 1.460 . S
C115 H121 0.929 . S
N116 Mn109 2.257 . S
N116 C115 1.326 . S
N116 C120 1.362 . S
C117 C118 1.258 . S
C117 C120 1.431 . S
C117 C137 1.449 . S
C118 C117 1.258 . S
C118 C119 1.477 . S
C118 H138 0.931 . S
C119 C115 1.460 . S
C119 C118 1.477 . S
C119 H139 0.930 . S
C120 N116 1.362 . S
C120 C117 1.431 . S
C120 C130 1.476 . S
H121 C115 0.929 . S
C122 O113 1.250 . S
C122 O114 1.258 . S
O123 Mn108 2.162 . S
O123 C111 1.281 . S
O124 Mn108 2.297 . S
O124 C111 1.236 . S
N125 Mn109 2.282 . S
N125 C126 1.328 . S
N125 C130 1.318 . S
C126 N125 1.328 . S
C126 C127 1.457 . S
C126 H131 0.929 . S
C127 C126 1.457 . S
C127 C128 1.291 . S
C127 H140 0.931 . S
C128 C127 1.291 . S
C128 C129 1.373 . S
C128 H141 0.929 . S
C129 C128 1.373 . S
C129 C130 1.396 . S
C129 C136 1.403 . S
C130 C120 1.476 . S
C130 N125 1.318 . S
C130 C129 1.396 . S
H131 C126 0.929 . S
O132 Mn108 2.385 . S
O132 C110 1.234 . S
O133 Mn108 2.209 . S
O133 Mn109 2.215 . S
O133 C110 1.283 . S
O134 Mn108 2.094 . S
O134 C112 1.240 . S
O135 Mn109 2.117 . S
O135 C112 1.264 . S
C136 C129 1.403 . S
C136 C137 1.399 . S
C136 H142 0.929 . S
C137 C117 1.449 . S
C137 C136 1.399 . S
C137 H143 0.930 . S
H138 C118 0.931 . S
H139 C119 0.930 . S
H140 C127 0.931 . S
H141 C128 0.929 . S
H142 C136 0.929 . S
H143 C137 0.930 . S
Mn144 O149 2.095 . S
Mn144 O159 2.162 . S
Mn144 O160 2.297 . S
Mn144 O168 2.385 . S
Mn144 O169 2.209 . S
Mn144 O170 2.094 . S
Mn145 O150 2.121 . S
Mn145 N152 2.257 . S
Mn145 N161 2.282 . S
Mn145 O169 2.215 . S
Mn145 O171 2.117 . S
C146 O168 1.234 . S
C146 O169 1.283 . S
C147 O159 1.281 . S
C147 O160 1.236 . S
C148 O170 1.240 . S
C148 O171 1.264 . S
O149 Mn144 2.095 . S
O149 C158 1.250 . S
O150 Mn145 2.121 . S
O150 C158 1.258 . S
C151 N152 1.326 . S
C151 C155 1.460 . S
C151 H157 0.929 . S
N152 Mn145 2.257 . S
N152 C151 1.326 . S
N152 C156 1.362 . S
C153 C154 1.258 . S
C153 C156 1.431 . S
C153 C173 1.449 . S
C154 C153 1.258 . S
C154 C155 1.477 . S
C154 H174 0.931 . S
C155 C151 1.460 . S
C155 C154 1.477 . S
C155 H175 0.930 . S
C156 N152 1.362 . S
C156 C153 1.431 . S
C156 C166 1.476 . S
H157 C151 0.929 . S
C158 O149 1.250 . S
C158 O150 1.258 . S
O159 Mn144 2.162 . S
O159 C147 1.281 . S
O160 Mn144 2.297 . S
O160 C147 1.236 . S
N161 Mn145 2.282 . S
N161 C162 1.328 . S
N161 C166 1.318 . S
C162 N161 1.328 . S
C162 C163 1.457 1_455 S
C162 H167 0.929 . S
C163 C162 1.457 1_655 S
C163 C164 1.291 . S
C163 H176 0.931 . S
C164 C163 1.291 . S
C164 C165 1.373 . S
C164 H177 0.929 . S
C165 C164 1.373 . S
C165 C166 1.396 1_655 S
C165 C172 1.403 . S
C166 C156 1.476 . S
C166 N161 1.318 . S
C166 C165 1.396 1_455 S
H167 C162 0.929 . S
O168 Mn144 2.385 . S
O168 C146 1.234 . S
O169 Mn144 2.209 . S
O169 Mn145 2.215 . S
O169 C146 1.283 . S
O170 Mn144 2.094 . S
O170 C148 1.240 . S
O171 Mn145 2.117 . S
O171 C148 1.264 . S
C172 C165 1.403 . S
C172 C173 1.399 1_655 S
C172 H178 0.929 . S
C173 C153 1.449 . S
C173 C172 1.399 1_455 S
C173 H179 0.930 1_455 S
H174 C154 0.931 . S
H175 C155 0.930 . S
H176 C163 0.931 . S
H177 C164 0.929 . S
H178 C172 0.929 . S
H179 C173 0.930 1_655 S
Mn180 O185 2.095 . S
Mn180 O195 2.162 . S
Mn180 O196 2.297 . S
Mn180 O204 2.385 . S
Mn180 O205 2.209 . S
Mn180 O206 2.094 . S
Mn181 O186 2.121 . S
Mn181 N188 2.257 . S
Mn181 N197 2.282 . S
Mn181 O205 2.215 . S
Mn181 O207 2.117 . S
C182 O204 1.234 . S
C182 O205 1.283 . S
C183 O195 1.281 . S
C183 O196 1.236 . S
C184 O206 1.240 . S
C184 O207 1.264 . S
O185 Mn180 2.095 . S
O185 C194 1.250 . S
O186 Mn181 2.121 . S
O186 C194 1.258 . S
C187 N188 1.326 . S
C187 C191 1.460 . S
C187 H193 0.929 . S
N188 Mn181 2.257 . S
N188 C187 1.326 . S
N188 C192 1.362 . S
C189 C190 1.258 . S
C189 C192 1.431 . S
C189 C209 1.449 . S
C190 C189 1.258 . S
C190 C191 1.477 . S
C190 H210 0.931 . S
C191 C187 1.460 . S
C191 C190 1.477 . S
C191 H211 0.930 . S
C192 N188 1.362 . S
C192 C189 1.431 . S
C192 C202 1.476 . S
H193 C187 0.929 . S
C194 O185 1.250 . S
C194 O186 1.258 . S
O195 Mn180 2.162 . S
O195 C183 1.281 . S
O196 Mn180 2.297 . S
O196 C183 1.236 . S
N197 Mn181 2.282 . S
N197 C198 1.328 . S
N197 C202 1.318 . S
C198 N197 1.328 . S
C198 C199 1.457 1_545 S
C198 H203 0.929 . S
C199 C198 1.457 1_565 S
C199 C200 1.291 . S
C199 H212 0.931 . S
C200 C199 1.291 . S
C200 C201 1.373 . S
C200 H213 0.929 . S
C201 C200 1.373 . S
C201 C202 1.396 1_565 S
C201 C208 1.403 . S
C202 C192 1.476 . S
C202 N197 1.318 . S
C202 C201 1.396 1_545 S
H203 C198 0.929 . S
O204 Mn180 2.385 . S
O204 C182 1.234 . S
O205 Mn180 2.209 . S
O205 Mn181 2.215 . S
O205 C182 1.283 . S
O206 Mn180 2.094 . S
O206 C184 1.240 . S
O207 Mn181 2.117 . S
O207 C184 1.264 . S
C208 C201 1.403 . S
C208 C209 1.399 1_565 S
C208 H214 0.929 . S
C209 C189 1.449 . S
C209 C208 1.399 1_545 S
C209 H215 0.930 1_545 S
H210 C190 0.931 . S
H211 C191 0.930 . S
H212 C199 0.931 . S
H213 C200 0.929 . S
H214 C208 0.929 . S
H215 C209 0.930 1_565 S
Mn216 O221 2.095 . S
Mn216 O231 2.162 . S
Mn216 O232 2.297 . S
Mn216 O240 2.385 . S
Mn216 O241 2.209 . S
Mn216 O242 2.094 . S
Mn217 O222 2.121 . S
Mn217 N224 2.257 . S
Mn217 N233 2.282 . S
Mn217 O241 2.215 . S
Mn217 O243 2.117 . S
C218 O240 1.234 . S
C218 O241 1.283 . S
C219 O231 1.281 . S
C219 O232 1.236 . S
C220 O242 1.240 . S
C220 O243 1.264 . S
O221 Mn216 2.095 . S
O221 C230 1.250 . S
O222 Mn217 2.121 . S
O222 C230 1.258 . S
C223 N224 1.326 1_554 S
C223 C227 1.460 . S
C223 H229 0.929 1_554 S
N224 Mn217 2.257 . S
N224 C223 1.326 1_556 S
N224 C228 1.362 1_556 S
C225 C226 1.258 . S
C225 C228 1.431 . S
C225 C245 1.449 . S
C226 C225 1.258 . S
C226 C227 1.477 . S
C226 H246 0.931 . S
C227 C223 1.460 . S
C227 C226 1.477 . S
C227 H247 0.930 . S
C228 N224 1.362 1_554 S
C228 C225 1.431 . S
C228 C238 1.476 1_554 S
H229 C223 0.929 1_556 S
C230 O221 1.250 . S
C230 O222 1.258 . S
O231 Mn216 2.162 . S
O231 C219 1.281 . S
O232 Mn216 2.297 . S
O232 C219 1.236 . S
N233 Mn217 2.282 . S
N233 C234 1.328 . S
N233 C238 1.318 . S
C234 N233 1.328 . S
C234 C235 1.457 . S
C234 H239 0.929 . S
C235 C234 1.457 . S
C235 C236 1.291 1_556 S
C235 H248 0.931 . S
C236 C235 1.291 1_554 S
C236 C237 1.373 . S
C236 H249 0.929 . S
C237 C236 1.373 . S
C237 C238 1.396 1_554 S
C237 C244 1.403 . S
C238 C228 1.476 1_556 S
C238 N233 1.318 . S
C238 C237 1.396 1_556 S
H239 C234 0.929 . S
O240 Mn216 2.385 . S
O240 C218 1.234 . S
O241 Mn216 2.209 . S
O241 Mn217 2.215 . S
O241 C218 1.283 . S
O242 Mn216 2.094 . S
O242 C220 1.240 . S
O243 Mn217 2.117 . S
O243 C220 1.264 . S
C244 C237 1.403 . S
C244 C245 1.399 . S
C244 H250 0.929 . S
C245 C225 1.449 . S
C245 C244 1.399 . S
C245 H251 0.930 . S
H246 C226 0.931 . S
H247 C227 0.930 . S
H248 C235 0.931 . S
H249 C236 0.929 . S
H250 C244 0.929 . S
H251 C245 0.930 . S
Mn252 O257 2.095 . S
Mn252 O267 2.162 . S
Mn252 O268 2.297 . S
Mn252 O276 2.385 . S
Mn252 O277 2.209 . S
Mn252 O278 2.094 1_554 S
Mn253 O258 2.121 . S
Mn253 N260 2.257 . S
Mn253 N269 2.282 . S
Mn253 O277 2.215 . S
Mn253 O279 2.117 . S
C254 O276 1.234 . S
C254 O277 1.283 . S
C255 O267 1.281 . S
C255 O268 1.236 . S
C256 O278 1.240 . S
C256 O279 1.264 1_556 S
O257 Mn252 2.095 . S
O257 C266 1.250 . S
O258 Mn253 2.121 . S
O258 C266 1.258 . S
C259 N260 1.326 . S
C259 C263 1.460 . S
C259 H265 0.929 . S
N260 Mn253 2.257 . S
N260 C259 1.326 . S
N260 C264 1.362 . S
C261 C262 1.258 . S
C261 C264 1.431 . S
C261 C281 1.449 1_655 S
C262 C261 1.258 . S
C262 C263 1.477 . S
C262 H282 0.931 . S
C263 C259 1.460 . S
C263 C262 1.477 . S
C263 H283 0.930 . S
C264 N260 1.362 . S
C264 C261 1.431 . S
C264 C274 1.476 . S
H265 C259 0.929 . S
C266 O257 1.250 . S
C266 O258 1.258 . S
O267 Mn252 2.162 . S
O267 C255 1.281 . S
O268 Mn252 2.297 . S
O268 C255 1.236 . S
N269 Mn253 2.282 . S
N269 C270 1.328 . S
N269 C274 1.318 . S
C270 N269 1.328 . S
C270 C271 1.455 1_655 S
C270 H275 0.930 . S
C271 C270 1.455 1_455 S
C271 C272 1.291 . S
C271 H284 0.931 . S
C272 C271 1.291 . S
C272 C273 1.373 . S
C272 H285 0.929 . S
C273 C272 1.373 . S
C273 C274 1.396 1_455 S
C273 C280 1.403 . S
C274 C264 1.476 . S
C274 N269 1.318 . S
C274 C273 1.396 1_655 S
H275 C270 0.930 . S
O276 Mn252 2.385 . S
O276 C254 1.234 . S
O277 Mn252 2.209 . S
O277 Mn253 2.215 . S
O277 C254 1.283 . S
O278 Mn252 2.094 1_556 S
O278 C256 1.240 . S
O279 Mn253 2.117 . S
O279 C256 1.264 1_554 S
C280 C273 1.403 . S
C280 C281 1.399 . S
C280 H286 0.929 . S
C281 C261 1.449 1_455 S
C281 C280 1.399 . S
C281 H287 0.930 . S
H282 C262 0.931 . S
H283 C263 0.930 . S
H284 C271 0.931 . S
H285 C272 0.929 . S
H286 C280 0.929 . S
H287 C281 0.930 . S
Mn288 O293 2.095 . S
Mn288 O303 2.162 . S
Mn288 O304 2.297 . S
Mn288 O312 2.385 . S
Mn288 O313 2.209 . S
Mn288 O314 2.094 . S
Mn289 O294 2.121 . S
Mn289 N296 2.257 . S
Mn289 N305 2.282 . S
Mn289 O313 2.215 . S
Mn289 O315 2.117 . S
C290 O312 1.234 . S
C290 O313 1.283 . S
C291 O303 1.281 . S
C291 O304 1.236 . S
C292 O314 1.240 . S
C292 O315 1.264 . S
O293 Mn288 2.095 . S
O293 C302 1.250 . S
O294 Mn289 2.121 . S
O294 C302 1.258 . S
C295 N296 1.326 . S
C295 C299 1.460 . S
C295 H301 0.929 . S
N296 Mn289 2.257 . S
N296 C295 1.326 . S
N296 C300 1.362 . S
C297 C298 1.258 . S
C297 C300 1.431 . S
C297 C317 1.449 1_565 S
C298 C297 1.258 . S
C298 C299 1.477 . S
C298 H318 0.931 . S
C299 C295 1.460 . S
C299 C298 1.477 . S
C299 H319 0.930 . S
C300 N296 1.362 . S
C300 C297 1.431 . S
C300 C310 1.476 . S
H301 C295 0.929 . S
C302 O293 1.250 . S
C302 O294 1.258 . S
O303 Mn288 2.162 . S
O303 C291 1.281 . S
O304 Mn288 2.297 . S
O304 C291 1.236 . S
N305 Mn289 2.282 . S
N305 C306 1.328 1_565 S
N305 C310 1.318 . S
C306 N305 1.328 1_545 S
C306 C307 1.457 . S
C306 H311 0.929 1_545 S
C307 C306 1.457 . S
C307 C308 1.291 . S
C307 H320 0.931 . S
C308 C307 1.291 . S
C308 C309 1.373 . S
C308 H321 0.929 . S
C309 C308 1.373 . S
C309 C310 1.396 1_545 S
C309 C316 1.403 . S
C310 C300 1.476 . S
C310 N305 1.318 . S
C310 C309 1.396 1_565 S
H311 C306 0.929 1_565 S
O312 Mn288 2.385 . S
O312 C290 1.234 . S
O313 Mn288 2.209 . S
O313 Mn289 2.215 . S
O313 C290 1.283 . S
O314 Mn288 2.094 . S
O314 C292 1.240 . S
O315 Mn289 2.117 . S
O315 C292 1.264 . S
C316 C309 1.403 . S
C316 C317 1.399 . S
C316 H322 0.929 . S
C317 C297 1.449 1_545 S
C317 C316 1.399 . S
C317 H323 0.930 . S
H318 C298 0.931 . S
H319 C299 0.930 . S
H320 C307 0.931 . S
H321 C308 0.929 . S
H322 C316 0.929 . S
H323 C317 0.930 . S
C291 C8 1.594 . S
C26 C111 1.641 . S
C50 C158 1.594 . S
C68 C194 1.521 . S
C219 C80 1.527 . S
C104 C255 1.518 . S
C32 C147 1.601 . S
C44 C183 1.560 . S
C62 C230 1.479 . S
C266 C86 1.539 . S
C302 C98 1.639 . S
C122 C14 1.626 . S
C7 C146 1.437 . S
C25 C182 1.478 . S
C220 C52 1.521 . S
C70 C256 1.484 . S
C292 C79 1.404 . S
C112 C106 1.385 . S
C290 C34 1.447 . S
C43 C110 1.422 . S
C148 C61 1.458 . S
C88 C184 1.515 . S
C97 C218 1.554 1_554 S
C16 C254 1.536 . S
