# Generated by pormake.
# Topology zzz, (3,6)-cn, num edge types: 1
# Building blocks:
#     Node 0, Type 0, BuildingBlock: CUQRIR_clean_linker_1, # of connection points: 3
#     Node 1, Type 0, BuildingBlock: CUQRIR_clean_linker_1, # of connection points: 3
#     Node 2, Type 0, BuildingBlock: CUQRIR_clean_linker_1, # of connection points: 3
#     Node 3, Type 0, BuildingBlock: CUQRIR_clean_linker_1, # of connection points: 3
#     Node 4, Type 0, BuildingBlock: CUQRIR_clean_linker_1, # of connection points: 3
#     Node 5, Type 0, BuildingBlock: CUQRIR_clean_linker_1, # of connection points: 3
#     Node 6, Type 0, BuildingBlock: CUQRIR_clean_linker_1, # of connection points: 3
#     Node 7, Type 0, BuildingBlock: CUQRIR_clean_linker_1, # of connection points: 3
#     Node 8, Type 1, BuildingBlock: KUMBOL_clean_sbu_0, # of connection points: 6
#     Node 9, Type 1, BuildingBlock: KUMBOL_clean_sbu_0, # of connection points: 6
#     Node 10, Type 1, BuildingBlock: KUMBOL_clean_sbu_0, # of connection points: 6
#     Node 11, Type 1, BuildingBlock: KUMBOL_clean_sbu_0, # of connection points: 6
#     Edge 12, Type (0, 1), BuildingBlock: CIFDUS_clean_linker_0, # of connection points: 2
#     Edge 13, Type (0, 1), BuildingBlock: CIFDUS_clean_linker_0, # of connection points: 2
#     Edge 14, Type (0, 1), BuildingBlock: CIFDUS_clean_linker_0, # of connection points: 2
#     Edge 15, Type (0, 1), BuildingBlock: CIFDUS_clean_linker_0, # of connection points: 2
#     Edge 16, Type (0, 1), BuildingBlock: CIFDUS_clean_linker_0, # of connection points: 2
#     Edge 17, Type (0, 1), BuildingBlock: CIFDUS_clean_linker_0, # of connection points: 2
#     Edge 18, Type (0, 1), BuildingBlock: CIFDUS_clean_linker_0, # of connection points: 2
#     Edge 19, Type (0, 1), BuildingBlock: CIFDUS_clean_linker_0, # of connection points: 2
#     Edge 20, Type (0, 1), BuildingBlock: CIFDUS_clean_linker_0, # of connection points: 2
#     Edge 21, Type (0, 1), BuildingBlock: CIFDUS_clean_linker_0, # of connection points: 2
#     Edge 22, Type (0, 1), BuildingBlock: CIFDUS_clean_linker_0, # of connection points: 2
#     Edge 23, Type (0, 1), BuildingBlock: CIFDUS_clean_linker_0, # of connection points: 2
#     Edge 24, Type (0, 1), BuildingBlock: CIFDUS_clean_linker_0, # of connection points: 2
#     Edge 25, Type (0, 1), BuildingBlock: CIFDUS_clean_linker_0, # of connection points: 2
#     Edge 26, Type (0, 1), BuildingBlock: CIFDUS_clean_linker_0, # of connection points: 2
#     Edge 27, Type (0, 1), BuildingBlock: CIFDUS_clean_linker_0, # of connection points: 2
#     Edge 28, Type (0, 1), BuildingBlock: CIFDUS_clean_linker_0, # of connection points: 2
#     Edge 29, Type (0, 1), BuildingBlock: CIFDUS_clean_linker_0, # of connection points: 2
#     Edge 30, Type (0, 1), BuildingBlock: CIFDUS_clean_linker_0, # of connection points: 2
#     Edge 31, Type (0, 1), BuildingBlock: CIFDUS_clean_linker_0, # of connection points: 2
#     Edge 32, Type (0, 1), BuildingBlock: CIFDUS_clean_linker_0, # of connection points: 2
#     Edge 33, Type (0, 1), BuildingBlock: CIFDUS_clean_linker_0, # of connection points: 2
#     Edge 34, Type (0, 1), BuildingBlock: CIFDUS_clean_linker_0, # of connection points: 2
#     Edge 35, Type (0, 1), BuildingBlock: CIFDUS_clean_linker_0, # of connection points: 2
# Relax obj value: 0.237
# Max RMSD: 0.179
# Mean RMSD: 0.121
data_MOF--net-zzz--node1-KUMBOL_clean_sbu_0--node2-CUQRIR_clean_linker_1--edge1-CIFDUS_clean_linker_0
_symmetry_space_group_name_H-M    P1
_symmetry_Int_Tables_number       1
_symmetry_cell_setting            triclinic
loop_
_symmetry_equiv_pos_as_xyz
'x, y, z'
_cell_length_a     40.833226
_cell_length_b     40.625527
_cell_length_c     11.736445
_cell_angle_alpha  91.202642
_cell_angle_beta   90.03904
_cell_angle_gamma 89.899162
loop_
_atom_site_label
_atom_site_type_symbol
_atom_site_fract_x
_atom_site_fract_y
_atom_site_fract_z
_atom_type_partial_charge
C0 C 0.74393 0.55869 0.33044 0.0
N1 N 0.77736 0.55586 0.31991 0.0
N2 N 0.72847 0.55801 0.22547 0.0
C3 C 0.72639 0.56224 0.44127 0.0
C4 C 0.75351 0.55395 0.15194 0.0
N5 N 0.78215 0.55353 0.20788 0.0
C6 C 0.74987 0.54649 0.02578 0.0
H7 H 0.71778 0.53767 0.4678 0.0
H8 H 0.70471 0.57831 0.4299 0.0
H9 H 0.74279 0.57256 0.50843 0.0
H10 H 0.74469 0.56966 0.9808 0.0
H11 H 0.72914 0.52935 1.01012 0.0
H12 H 0.77235 0.53549 0.98802 0.0
C13 C 1.00516 0.75721 0.35237 0.0
N14 N 1.00638 0.79097 0.34132 0.0
N15 N 1.00184 0.74082 0.24809 0.0
C16 C 1.00872 0.74033 0.46371 0.0
C17 C 1.00233 0.76606 0.17453 0.0
N18 N 1.00544 0.79563 0.22982 0.0
C19 C 1.00604 0.76136 0.04662 0.0
H20 H 0.03515 0.73692 0.48219 0.0
H21 H 0.99683 0.7158 0.45972 0.0
H22 H 0.99795 0.75567 0.53357 0.0
H23 H 0.98189 0.75508 1.00897 0.0
H24 H 0.02326 0.74086 0.02659 0.0
H25 H 1.01494 0.78365 1.0037 0.0
C26 C 0.7905 0.02287 0.35362 0.0
N27 N 0.75886 1.01155 0.34618 0.0
N28 N 0.81111 1.00673 0.2783 0.0
C29 C 0.80149 0.04898 0.43681 0.0
C30 C 0.79046 0.98447 0.22995 0.0
N31 N 0.75852 0.98994 0.2585 0.0
C32 C 0.80193 0.95357 0.16926 0.0
H33 H 0.82835 0.05282 0.43177 0.0
H34 H 0.79476 0.04177 0.52442 0.0
H35 H 0.78849 0.07232 0.41882 0.0
H36 H 0.81861 0.93988 0.2259 0.0
H37 H 0.81559 0.95976 0.09085 0.0
H38 H 0.78103 0.93715 0.1476 0.0
C39 C 0.54969 0.81341 0.37843 0.0
N40 N 0.55279 0.77974 0.37029 0.0
N41 N 0.55455 0.82791 0.27469 0.0
C42 C 0.54014 0.83166 0.48535 0.0
C43 C 0.56151 0.80203 0.2051 0.0
N44 N 0.56011 0.77339 0.26117 0.0
C45 C 0.5699 0.80476 0.08049 0.0
H46 H 0.53846 0.85849 0.4713 0.0
H47 H 0.55859 0.82695 0.55252 0.0
H48 H 0.51627 0.82225 0.51592 0.0
H49 H 0.58494 0.82702 0.06629 0.0
H50 H 0.54702 0.80714 0.03028 0.0
H51 H 0.58346 0.7827 0.04888 0.0
C52 C 0.29345 0.4877 0.12653 0.0
N53 N 0.26036 0.48414 0.14132 0.0
N54 N 0.3105 0.48556 0.22905 0.0
C55 C 0.30815 0.49027 0.01089 0.0
C56 C 0.28624 0.47857 0.30292 0.0
N57 N 0.2569 0.47783 0.25123 0.0
C58 C 0.29049 0.47223 0.42828 0.0
H59 H 0.29396 0.47505 0.94875 0.0
H60 H 0.33364 0.48151 0.01046 0.0
H61 H 0.30624 0.51609 0.9828 0.0
H62 H 0.28835 0.49583 0.47708 0.0
H63 H 0.31458 0.4608 0.44606 0.0
H64 H 0.27084 0.45572 0.45857 0.0
C65 C 0.02534 0.29626 0.15099 0.0
N66 N 0.04383 0.27092 0.10449 0.0
N67 N 0.04427 0.32271 0.1853 0.0
C68 C 0.98893 0.29508 0.16553 0.0
C69 C 0.07471 0.31241 0.1549 0.0
N70 N 0.0751 0.28024 0.11912 0.0
C71 C 0.10546 0.33193 0.17898 0.0
H72 H 0.98317 0.2825 0.24607 0.0
H73 H 0.97749 0.28099 0.09398 0.0
H74 H 0.97858 0.32035 0.17047 0.0
H75 H 0.10607 0.34037 0.26952 0.0
H76 H 0.10566 0.35404 0.12535 0.0
H77 H 0.1278 0.31731 0.15913 0.0
C78 C 0.25658 0.05679 0.06722 0.0
N79 N 0.29007 0.05478 0.08006 0.0
N80 N 0.24083 0.05942 0.17076 0.0
C81 C 0.23926 0.05319 0.95527 0.0
C82 C 0.26597 0.05909 0.24533 0.0
N83 N 0.29512 0.05403 0.19249 0.0
C84 C 0.26183 0.06141 0.3728 0.0
H85 H 0.21485 0.06523 0.95925 0.0
H86 H 0.2357 0.0266 0.93552 0.0
H87 H 0.25421 0.0638 0.88622 0.0
H88 H 0.25097 0.03831 0.4043 0.0
H89 H 0.2447 0.08177 0.39524 0.0
H90 H 0.2857 0.06573 0.41581 0.0
C91 C 0.474 0.26065 0.08325 0.0
N92 N 0.46157 0.29208 0.08925 0.0
N93 N 0.46192 0.24136 0.16902 0.0
C94 C 0.4964 0.2485 0.99179 0.0
C95 C 0.44154 0.26212 0.22508 0.0
N96 N 0.44178 0.29247 0.18002 0.0
C97 C 0.42528 0.25429 0.33664 0.0
H98 H 0.49847 0.26627 0.92176 0.0
H99 H 0.48625 0.22514 0.95762 0.0
H100 H 0.52102 0.24423 0.02838 0.0
H101 H 0.44382 0.25539 0.40584 0.0
H102 H 0.41497 0.22905 0.33345 0.0
H103 H 0.40549 0.27223 0.35708 0.0
Gd104 Gd 0.99712 0.0435 0.61297 0.0
Gd105 Gd 0.05581 0.02154 0.81166 0.0
C106 C 0.06436 0.08332 0.13582 0.0
C107 C 0.10615 0.12212 0.08198 0.0
C108 C 0.08299 0.08471 0.93985 0.0
C109 C 0.06374 0.07026 0.02355 0.0
C110 C 0.10404 0.1111 0.96911 0.0
C111 C 0.08539 0.10933 0.16407 0.0
C112 C 0.04532 0.06875 0.21895 0.0
C113 C 0.02817 0.04013 0.19273 0.0
N114 N 0.04619 0.04257 0.99792 0.0
C115 C 0.03058 0.02618 0.08369 0.0
H116 H 0.0207 1.00173 0.07106 0.0
C117 C 0.10144 0.08607 0.74909 0.0
N118 N 0.08205 0.07261 0.83119 0.0
C119 C 0.1217 0.1128 0.77402 0.0
C120 C 0.12322 0.12525 0.88484 0.0
H121 H 0.1022 0.07646 0.6642 0.0
H122 H 0.08681 0.11885 0.25065 0.0
H123 H 0.04369 0.99305 0.44156 0.0
H124 H 0.04524 0.07867 0.30478 0.0
H125 H 1.01413 0.02813 0.25753 0.0
H126 H 0.12381 0.14082 0.10654 0.0
H127 H 0.9206 0.06205 0.70811 0.0
H128 H 0.98004 0.93064 0.25121 0.0
H129 H 0.0356 0.95141 0.29354 0.0
H130 H 0.87468 0.95275 0.41255 0.0
H131 H 0.13666 0.12331 0.70799 0.0
H132 H 0.13941 0.14569 0.90465 0.0
H133 H 0.92059 0.93002 0.30092 0.0
H134 H 0.86452 0.04144 0.6843 0.0
N135 N 0.99325 0.99776 0.4861 0.0
C136 C 0.98341 0.94958 0.3165 0.0
C137 C 1.01476 0.9611 0.34044 0.0
C138 C 0.95686 0.96211 0.37885 0.0
C139 C 0.96247 0.98694 0.46271 0.0
C140 C 0.01923 0.98519 0.42551 0.0
N141 N 0.94237 0.02448 0.60211 0.0
C142 C 0.9365 0.99984 0.52519 0.0
C143 C 0.88454 0.02912 0.64047 0.0
C144 C 0.87844 1.00264 0.56637 0.0
C145 C 0.91658 0.04023 0.65552 0.0
C146 C 0.90441 0.98806 0.50622 0.0
H147 H 0.8535 0.9943 0.55361 0.0
O148 O 0.96073 0.07143 0.52042 0.0
O149 O 0.03328 0.06719 0.73692 0.0
O150 O 1.00545 1.00696 0.88578 0.0
O151 O 0.96967 0.03837 0.78204 0.0
O152 O 0.98682 0.08615 0.73911 0.0
O153 O 1.01124 0.07261 0.47092 0.0
O154 O 0.10781 1.01345 0.79 0.0
O155 O 0.02256 0.99881 0.67982 0.0
O156 O 0.0481 0.0487 0.52466 0.0
O157 O 0.08187 1.01868 0.64134 0.0
O158 O 0.04967 0.9663 0.77177 0.0
O159 O 0.08368 0.99953 0.94614 0.0
C160 C 1.01525 0.08954 0.78595 0.0
C161 C 0.89906 0.9625 0.42648 0.0
C162 C 0.92515 0.94973 0.36238 0.0
C163 C 0.98254 0.08601 0.46001 0.0
C164 C 0.98146 0.12191 0.46454 0.0
C165 C 0.95152 0.1388 0.47409 0.0
C166 C 1.01073 0.13955 0.46399 0.0
C167 C 1.01043 0.17373 0.47019 0.0
C168 C 0.95115 0.17311 0.48336 0.0
C169 C 0.98053 0.19065 0.48098 0.0
C170 C 0.97608 0.02055 0.87199 0.0
C171 C 0.02886 0.96763 0.68892 0.0
C172 C 0.11082 0.99884 0.88699 0.0
C173 C 0.12878 0.96767 0.88267 0.0
C174 C 0.15573 0.96278 0.80988 0.0
C175 C 0.11732 0.94163 0.9459 0.0
C176 C 0.12968 0.91001 0.92811 0.0
C177 C 0.17003 0.93152 0.79868 0.0
C178 C 0.15675 0.90491 0.85659 0.0
C179 C 0.07677 0.0342 0.54535 0.0
H180 H 0.92855 0.12551 0.47509 0.0
H181 H 0.03406 0.12688 0.45564 0.0
H182 H 0.92807 0.18613 0.49015 0.0
H183 H 0.97981 0.2173 0.48245 0.0
H184 H 0.16527 0.98285 0.76051 0.0
H185 H 0.09721 0.94542 1.00519 0.0
H186 H 0.19068 0.92773 0.74219 0.0
H187 H 0.16683 0.88047 0.84308 0.0
Gd188 Gd 0.51496 1.00506 0.59898 0.0
Gd189 Gd 0.53602 0.06275 0.80744 0.0
C190 C 0.51489 0.07725 0.17241 0.0
C191 C 0.53164 0.13464 0.18706 0.0
C192 C 0.51574 0.11036 1.00701 0.0
C193 C 0.51352 0.08043 0.05491 0.0
C194 C 0.52363 0.13842 0.07227 0.0
C195 C 0.52665 0.10408 0.23771 0.0
C196 C 0.50488 0.04736 0.21728 0.0
C197 C 0.4936 0.02236 0.14343 0.0
N198 N 0.509 0.05451 0.98412 0.0
C199 C 0.49472 0.02686 0.02546 0.0
H200 H 0.48572 1.00777 0.96868 0.0
C201 C 0.51253 0.14063 0.84006 0.0
N202 N 0.5136 0.11098 0.89292 0.0
C203 C 0.51898 0.16972 0.90125 0.0
C204 C 0.5256 0.16849 0.01792 0.0
H205 H 0.51043 0.14212 0.74964 0.0
H206 H 0.53178 0.10196 0.32643 0.0
H207 H 0.5489 0.06606 0.44155 0.0
H208 H 0.50416 0.04403 0.30763 0.0
H209 H 0.48525 0.99939 0.1767 0.0
H210 H 0.54112 0.15512 0.23724 0.0
H211 H 0.52868 0.92753 0.70853 0.0
H212 H 0.62423 0.02345 0.23709 0.0
H213 H 0.58825 0.07056 0.28506 0.0
H214 H 0.64454 0.92109 0.4138 0.0
H215 H 0.52102 0.19258 0.8563 0.0
H216 H 0.53248 0.19051 0.06516 0.0
H217 H 0.64738 0.96976 0.29446 0.0
H218 H 0.56955 0.88437 0.69471 0.0
N219 N 0.55798 1.01557 0.46991 0.0
C220 C 0.60609 0.02123 0.30345 0.0
C221 C 0.58551 0.04761 0.32916 0.0
C222 C 0.60435 0.9929 0.36828 0.0
C223 C 0.57926 0.99031 0.45057 0.0
C224 C 0.56223 0.04463 0.41541 0.0
N225 N 0.55385 0.96108 0.59986 0.0
C226 C 0.57781 0.96291 0.51944 0.0
C227 C 0.57274 0.90667 0.64709 0.0
C228 C 0.59874 0.90946 0.57179 0.0
C229 C 0.55007 0.93221 0.65774 0.0
C230 C 0.60123 0.93742 0.50533 0.0
H231 H 0.61612 0.8894 0.56279 0.0
O232 O 0.49381 0.95726 0.56014 0.0
O233 O 0.49345 0.03717 0.73519 0.0
O234 O 0.54745 1.01385 0.89727 0.0
O235 O 0.51819 0.98042 0.77154 0.0
O236 O 0.46103 1.00676 0.65835 0.0
O237 O 0.49479 0.99612 0.43156 0.0
O238 O 0.56349 0.09997 0.71639 0.0
O239 O 0.55698 0.03717 0.65325 0.0
O240 O 0.49814 0.0536 0.51733 0.0
O241 O 0.50433 0.08836 0.67468 0.0
O242 O 0.58408 0.03378 0.79993 0.0
O243 O 0.57062 0.093 0.89812 0.0
C244 C 0.46315 0.029 0.73799 0.0
C245 C 0.62633 0.94032 0.42479 0.0
C246 C 0.62787 0.96796 0.35645 0.0
C247 C 0.48886 0.96542 0.45523 0.0
C248 C 0.47402 0.94291 0.37352 0.0
C249 C 0.48057 0.90907 0.37103 0.0
C250 C 0.45178 0.95591 0.29878 0.0
C251 C 0.43607 0.93598 0.218 0.0
C252 C 0.46412 0.88857 0.29242 0.0
C253 C 0.44174 0.90199 0.21546 0.0
C254 C 0.53481 0.98461 0.86793 0.0
C255 C 0.58494 0.02756 0.69128 0.0
C256 C 0.57884 0.10962 0.80854 0.0
C257 C 0.61332 0.11781 0.80062 0.0
C258 C 0.62274 0.14982 0.77289 0.0
C259 C 0.63574 0.0968 0.85017 0.0
C260 C 0.66549 0.10895 0.88919 0.0
C261 C 0.65411 0.16109 0.80211 0.0
C262 C 0.67523 0.141 0.8641 0.0
C263 C 0.49684 0.08355 0.5656 0.0
H264 H 0.49787 0.89865 0.43013 0.0
H265 H 0.44532 0.98183 0.30742 0.0
H266 H 0.46851 0.86231 0.29194 0.0
H267 H 0.42844 0.88604 0.15676 0.0
H268 H 0.60529 0.16659 0.7356 0.0
H269 H 0.62833 0.07225 0.87396 0.0
H270 H 0.66114 0.18608 0.78359 0.0
H271 H 0.69829 0.15067 0.89563 0.0
Gd272 Gd 0.49118 0.54486 0.82815 0.0
Gd273 Gd 0.55055 0.52174 0.62798 0.0
C274 C 0.64599 0.49222 0.80578 0.0
C275 C 0.68389 0.53258 0.73366 0.0
C276 C 0.62621 0.53475 0.681 0.0
C277 C 0.62021 0.50671 0.74339 0.0
C278 C 0.65807 0.54819 0.67749 0.0
C279 C 0.67789 0.50459 0.79732 0.0
C280 C 0.63866 0.46739 0.88208 0.0
C281 C 0.60611 0.46005 0.9039 0.0
N282 N 0.5887 0.49642 0.75536 0.0
C283 C 0.58151 0.47613 0.84401 0.0
H284 H 0.55716 0.47371 0.87611 0.0
C285 C 0.60627 0.57747 0.56618 0.0
N286 N 0.60071 0.55018 0.63009 0.0
C287 C 0.63716 0.59183 0.56208 0.0
C288 C 0.66303 0.5775 0.62001 0.0
H289 H 0.58737 0.58815 0.51492 0.0
H290 H 0.69785 0.4936 0.84407 0.0
H291 H 0.47468 0.58103 0.57074 0.0
H292 H 0.6577 0.45587 0.93182 0.0
H293 H 0.59982 0.44347 0.9715 0.0
H294 H 0.70848 0.54249 0.73086 0.0
H295 H 0.44075 0.48364 0.9166 0.0
H296 H 0.39114 0.64369 0.62711 0.0
H297 H 0.43703 0.62589 0.50546 0.0
H298 H 0.34087 0.5888 0.9405 0.0
H299 H 0.64104 0.61376 0.51305 0.0
H300 H 0.68681 0.5892 0.61951 0.0
H301 H 0.35473 0.62995 0.79577 0.0
H302 H 0.38915 0.48297 0.01343 0.0
N303 N 0.4536 0.57989 0.7343 0.0
C304 C 0.40826 0.62546 0.65749 0.0
C305 C 0.43441 0.61542 0.58837 0.0
C306 C 0.40218 0.60839 0.75723 0.0
C307 C 0.42508 0.58456 0.78997 0.0
C308 C 0.45625 0.59127 0.62663 0.0
N309 N 0.43571 0.53318 0.86148 0.0
C310 C 0.41581 0.55982 0.85895 0.0
C311 C 0.39604 0.50503 0.97153 0.0
C312 C 0.37698 0.53365 0.97901 0.0
C313 C 0.42529 0.50506 0.91149 0.0
C314 C 0.38547 0.5606 0.91409 0.0
H315 H 0.35561 0.53469 0.03266 0.0
O316 O 0.48856 0.51974 0.9885 0.0
O317 O 0.5449 0.55084 0.78636 0.0
O318 O 0.53283 0.47104 0.69398 0.0
O319 O 0.48828 0.48768 0.80477 0.0
O320 O 0.53397 0.54287 0.95115 0.0
O321 O 0.47443 0.57202 0.97539 0.0
O322 O 0.55679 0.53598 0.45331 0.0
O323 O 0.4965 0.52272 0.65844 0.0
O324 O 0.51013 0.59643 0.77055 0.0
O325 O 0.53952 0.57812 0.61181 0.0
O326 O 0.50926 0.50411 0.50565 0.0
O327 O 0.5838 0.49416 0.51998 0.0
C328 C 0.55779 0.54751 0.88384 0.0
C329 C 0.36439 0.58752 0.89806 0.0
C330 C 0.37244 0.61116 0.8169 0.0
C331 C 0.4757 0.54568 0.03869 0.0
C332 C 0.48147 0.55121 0.15826 0.0
C333 C 0.45305 0.55224 0.22467 0.0
C334 C 0.50821 0.57072 0.18757 0.0
C335 C 0.50281 0.59819 0.25656 0.0
C336 C 0.44838 0.57834 0.30113 0.0
C337 C 0.47192 0.60301 0.30702 0.0
C338 C 0.50764 0.46383 0.76263 0.0
C339 C 0.48389 0.51156 0.5655 0.0
C340 C 0.57494 0.51027 0.42958 0.0
C341 C 0.56254 0.49017 0.33599 0.0
C342 C 0.5583 0.50359 0.22865 0.0
C343 C 0.54879 0.45979 0.35978 0.0
C344 C 0.53047 0.44327 0.27764 0.0
C345 C 0.54189 0.48558 0.14362 0.0
C346 C 0.52768 0.45562 0.16778 0.0
C347 C 0.52791 0.60296 0.67719 0.0
H348 H 0.43225 0.53695 0.20216 0.0
H349 H 0.53018 0.56988 0.13607 0.0
H350 H 0.42496 0.58167 0.34295 0.0
H351 H 0.46519 0.62655 0.34362 0.0
H352 H 0.5671 0.52814 0.21244 0.0
H353 H 0.54976 0.45024 0.44541 0.0
H354 H 0.53958 0.4947 0.0593 0.0
H355 H 0.51403 0.44251 0.10191 0.0
Gd356 Gd 1.008 0.49555 0.83385 0.0
Gd357 Gd 0.03024 0.56023 0.65766 0.0
C358 C 0.07096 0.65113 0.84911 0.0
C359 C 0.03523 0.69406 0.78055 0.0
C360 C 0.02495 0.63666 0.72848 0.0
C361 C 0.05274 0.62728 0.78657 0.0
C362 C 1.0155 0.67014 0.72719 0.0
C363 C 0.06292 0.68457 0.84158 0.0
C364 C 0.09488 0.64058 0.92509 0.0
C365 C 0.09747 0.60724 0.94691 0.0
N366 N 0.05888 0.59457 0.79601 0.0
C367 C 0.07804 0.58484 0.88568 0.0
H368 H 0.07704 0.56044 0.9177 0.0
C369 C 0.97703 0.62148 0.62875 0.0
N370 N 1.00574 0.61285 0.68103 0.0
C371 C 0.96664 0.65413 0.62607 0.0
C372 C 0.98602 0.67864 0.67511 0.0
H373 H 0.96288 0.60394 0.58109 0.0
H374 H 0.07692 0.70313 0.88775 0.0
H375 H 0.96521 0.48158 0.58419 0.0
H376 H 0.10917 0.65806 0.97515 0.0
H377 H 0.11319 0.59884 0.01473 0.0
H378 H 0.02853 0.71986 0.77907 0.0
H379 H 0.07451 0.45749 0.96151 0.0
H380 H 0.93154 0.38285 0.59042 0.0
H381 H 0.92966 0.43817 0.50665 0.0
H382 H 1.00789 0.33357 0.84367 0.0
H383 H 0.94406 0.66041 0.58322 0.0
H384 H 0.97794 0.70402 0.67275 0.0
H385 H 0.96064 0.34396 0.71943 0.0
H386 H 0.09342 0.40196 0.99502 0.0
N387 N 0.98333 0.45396 0.71965 0.0
C388 C 0.94623 0.40254 0.62723 0.0
C389 C 0.94512 0.43361 0.57964 0.0
C390 C 0.96875 0.39655 0.71415 0.0
C391 C 0.98745 0.42308 0.75828 0.0
C392 C 0.96467 0.45873 0.6254 0.0
N393 N 0.03405 0.44319 0.85479 0.0
C394 C 1.01459 0.41725 0.8251 0.0
C395 C 0.0715 0.40575 0.94506 0.0
C396 C 0.05183 0.37916 0.91364 0.0
C397 C 0.06161 0.43758 0.91925 0.0
C398 C 0.02283 0.3847 0.854 0.0
H399 H 0.05908 0.35453 0.93684 0.0
O400 O 1.01568 0.47772 1.00067 0.0
O401 O 1.00132 0.55089 0.81257 0.0
O402 O 0.08116 0.54057 0.71497 0.0
O403 O 0.06527 0.49866 0.83445 0.0
O404 O 0.01832 0.53693 0.96581 0.0
O405 O 0.96614 0.47987 0.93452 0.0
O406 O 1.01132 0.5767 0.49905 0.0
O407 O 0.02729 0.50455 0.66266 0.0
O408 O 0.95757 0.51367 0.76233 0.0
O409 O 0.97439 0.55033 0.62523 0.0
O410 O 0.04823 0.52265 0.52382 0.0
O411 O 0.06079 0.58982 0.54838 0.0
C412 C 1.00809 0.56201 0.91162 0.0
C413 C 1.00227 0.35861 0.82024 0.0
C414 C 0.97518 0.36454 0.75053 0.0
C415 C 0.98511 0.47159 0.01926 0.0
C416 C 0.9759 0.48115 0.133 0.0
C417 C 0.98381 0.46044 0.22245 0.0
C418 C 0.96381 0.51252 0.15492 0.0
C419 C 0.95784 0.52259 0.26708 0.0
C420 C 0.98025 0.47174 0.33431 0.0
C421 C 0.96864 0.50345 0.35673 0.0
C422 C 0.08889 0.5163 0.78604 0.0
C423 C 0.03981 0.49503 0.5669 0.0
C424 C 0.0387 0.59007 0.4675 0.0
C425 C 0.04941 0.57984 0.35342 0.0
C426 C 0.02787 0.56214 0.28315 0.0
C427 C 0.08243 0.58082 0.32536 0.0
C428 C 0.09418 0.56088 0.23612 0.0
C429 C 0.0399 0.54141 0.19774 0.0
C430 C 0.07273 0.5416 0.17038 0.0
C431 C 0.95037 0.53396 0.67674 0.0
H432 H 0.99317 0.43587 0.20548 0.0
H433 H 0.95611 0.52779 0.08486 0.0
H434 H 0.9851 0.45532 0.40269 0.0
H435 H 0.96328 0.51169 0.44215 0.0
H436 H 1.00213 0.56288 0.30058 0.0
H437 H 0.09951 0.59327 0.38249 0.0
H438 H 0.02437 0.52396 0.15657 0.0
H439 H 0.08183 0.52436 0.10598 0.0
H440 H 0.20872 1.00758 0.26116 0.0
H441 H 0.19637 0.10893 0.17408 0.0
H442 H 0.14498 0.11127 0.28214 0.0
H443 H 0.10241 0.08434 0.40677 0.0
H444 H 0.11731 0.98314 0.49639 0.0
H445 H 0.16665 0.98053 0.37984 0.0
C446 C 0.19385 0.02971 0.26059 0.0
C447 C 0.20619 0.05774 0.2045 0.0
C448 C 0.16377 0.03073 0.32276 0.0
C449 C 0.18715 0.08661 0.21123 0.0
C450 C 0.1575 0.08789 0.27372 0.0
C451 C 0.11587 0.06145 0.39793 0.0
C452 C 0.10503 0.03367 0.45968 0.0
C453 C 0.14525 0.06012 0.33022 0.0
C454 C 0.12421 1.00483 0.44994 0.0
C455 C 0.15273 1.00327 0.38271 0.0
H456 H 0.5051 0.22514 0.33411 0.0
H457 H 0.43237 0.18392 0.10929 0.0
H458 H 0.43291 0.13238 0.21608 0.0
H459 H 0.45375 0.09842 0.38044 0.0
H460 H 0.53312 0.13881 0.5808 0.0
H461 H 0.52919 0.19037 0.4833 0.0
C462 C 0.4901 0.20451 0.30622 0.0
C463 C 0.46969 0.20832 0.20973 0.0
C464 C 0.4902 0.17497 0.36991 0.0
C465 C 0.44941 0.18147 0.17929 0.0
C466 C 0.44914 0.15215 0.24269 0.0
C467 C 0.46975 0.11867 0.40418 0.0
C468 C 0.49226 0.11469 0.49588 0.0
C469 C 0.46917 0.1485 0.33975 0.0
C470 C 0.51367 0.14128 0.51925 0.0
C471 C 0.51207 0.17096 0.46057 0.0
H472 H 0.33352 0.52464 0.40419 0.0
H473 H 0.36508 0.45422 0.14922 0.0
H474 H 0.4216 0.46008 0.2169 0.0
H475 H 0.46228 0.4811 0.36522 0.0
H476 H 0.42392 0.53144 0.65865 0.0
H477 H 0.37047 0.53585 0.56978 0.0
C478 C 0.35265 0.51013 0.36354 0.0
C479 C 0.34486 0.49076 0.26429 0.0
C480 C 0.38421 0.50912 0.41567 0.0
C481 C 0.37034 0.47161 0.21775 0.0
C482 C 0.40267 0.47374 0.26088 0.0
C483 C 0.44222 0.49277 0.4109 0.0
C484 C 0.44867 0.50855 0.51865 0.0
C485 C 0.41 0.49185 0.3618 0.0
C486 C 0.42135 0.52205 0.57477 0.0
C487 C 0.3902 0.52379 0.52327 0.0
H488 H 0.05914 0.38763 0.16108 0.0
H489 H 1.01632 0.3211 0.39758 0.0
H490 H 1.01412 0.36565 0.54306 0.0
H491 H 0.02866 0.42409 0.60677 0.0
H492 H 0.06527 0.49024 0.35739 0.0
H493 H 0.06958 0.44533 0.22042 0.0
C494 C 0.04885 0.38283 0.24352 0.0
C495 C 0.03743 0.35059 0.26535 0.0
C496 C 0.04797 0.40872 0.32775 0.0
C497 C 0.02455 0.34545 0.37524 0.0
C498 C 0.02376 0.37109 0.45975 0.0
C499 C 0.03534 0.42954 0.52218 0.0
C500 C 0.04441 0.46249 0.49561 0.0
C501 C 0.03561 0.4031 0.43773 0.0
C502 C 0.05747 0.46627 0.38469 0.0
C503 C 0.05967 0.44027 0.3039 0.0
H504 H 0.866 0.96895 0.21501 0.0
H505 H 0.84173 0.03795 0.20435 0.0
H506 H 0.88097 0.08339 0.06739 0.0
H507 H 0.92773 0.06366 0.95291 0.0
H508 H 0.96196 0.96411 0.98648 0.0
H509 H 0.9162 0.9524 0.1129 0.0
C510 C 0.86847 0.99372 0.18482 0.0
C511 C 0.84302 1.01933 0.21729 0.0
C512 C 0.89526 1.00143 0.11213 0.0
C513 C 0.84963 0.05492 0.17194 0.0
C514 C 0.87704 0.05897 0.09995 0.0
C515 C 0.92528 0.03945 0.98902 0.0
C516 C 0.94863 1.01472 0.95787 0.0
C517 C 0.89903 0.03335 0.06735 0.0
C518 C 0.94491 0.98376 1.00755 0.0
C519 C 0.91853 0.97709 0.08107 0.0
H520 H 0.50905 0.85043 0.12901 0.0
H521 H 0.59474 0.87981 0.31628 0.0
H522 H 0.59735 0.93088 0.20644 0.0
H523 H 0.5758 0.96774 0.05428 0.0
H524 H 0.489 0.93633 0.87207 0.0
H525 H 0.48568 0.88749 0.98611 0.0
C526 C 0.52741 0.86881 0.15016 0.0
C527 C 0.55084 0.86167 0.23519 0.0
C528 C 0.52854 0.89844 0.08798 0.0
C529 C 0.57543 0.88518 0.25623 0.0
C530 C 0.577 0.91445 0.19309 0.0
C531 C 0.55599 0.95042 0.04 0.0
C532 C 0.53316 0.95613 0.95091 0.0
C533 C 0.55379 0.92154 0.10807 0.0
C534 C 0.50762 0.93293 0.93655 0.0
C535 C 0.50544 0.90472 1.00282 0.0
H536 H 0.69803 0.59622 0.06981 0.0
H537 H 0.68217 0.51518 0.29382 0.0
H538 H 0.62975 0.50356 0.19943 0.0
H539 H 0.59113 0.5137 0.04246 0.0
H540 H 0.60295 0.59649 0.82676 0.0
H541 H 0.65598 0.60857 0.91973 0.0
C542 C 0.68267 0.57649 0.09972 0.0
C543 C 0.69408 0.55686 0.19092 0.0
C544 C 0.65263 0.56958 0.04278 0.0
C545 C 0.6739 0.53119 0.22701 0.0
C546 C 0.64412 0.52424 0.17126 0.0
C547 C 0.6042 0.53528 0.01935 0.0
C548 C 0.59211 0.55422 0.92869 0.0
C549 C 0.63352 0.54296 0.07814 0.0
C550 C 0.61135 0.58096 0.89471 0.0
C551 C 0.64153 0.58814 0.94948 0.0
H552 H 0.96316 0.70691 0.09384 0.0
H553 H 0.04657 0.69454 0.31365 0.0
H554 H 0.05614 0.63974 0.22838 0.0
H555 H 0.04251 0.59584 0.08431 0.0
H556 H 0.95967 0.60787 0.8631 0.0
H557 H 0.94946 0.66245 0.95018 0.0
C558 C 0.98332 0.69218 0.12437 0.0
C559 C 1.00385 0.70557 0.21269 0.0
C560 C 0.98919 0.66048 0.07231 0.0
C561 C 0.0297 0.68536 0.24939 0.0
C562 C 0.03539 0.65383 0.19912 0.0
C563 C 0.02158 0.6096 0.05679 0.0
C564 C 1.00199 0.59657 0.96562 0.0
C565 C 1.01546 0.64108 0.10992 0.0
C566 C 0.97577 0.61658 0.93045 0.0
C567 C 0.96968 0.64794 0.98175 0.0
H568 H 0.09955 0.28463 0.33618 0.0
H569 H 0.10611 0.22407 0.03459 0.0
H570 H 0.08434 0.1783 0.13795 0.0
H571 H 0.04982 0.16145 0.29398 0.0
H572 H 0.03743 0.22567 0.58759 0.0
H573 H 0.07803 0.26359 0.5113 0.0
C574 C 0.09889 0.26066 0.29427 0.0
C575 C 0.09787 0.25821 0.17389 0.0
C576 C 0.08606 0.23475 0.356 0.0
C577 C 0.1023 0.2269 0.12542 0.0
C578 C 0.0907 0.20013 0.18566 0.0
C579 C 0.05752 0.18274 0.34433 0.0
C580 C 0.04069 0.19133 0.44481 0.0
C581 C 0.07963 0.20473 0.29792 0.0
C582 C 0.04991 0.21926 0.50874 0.0
C583 C 0.07321 0.24066 0.46551 0.0
H584 H 0.36084 0.05979 0.18731 0.0
H585 H 0.28282 0.99777 0.30355 0.0
H586 H 0.31975 0.95106 0.3082 0.0
H587 H 0.37233 0.92621 0.25196 0.0
H588 H 0.44044 0.98293 0.05873 0.0
H589 H 0.40877 0.03288 0.09753 0.0
C590 C 0.35181 0.03583 0.21038 0.0
C591 C 0.31895 0.03208 0.23918 0.0
C592 C 0.37077 1.00775 0.19026 0.0
C593 C 0.30815 1.00161 0.28054 0.0
C594 C 0.3288 0.97446 0.27874 0.0
C595 C 0.37884 0.94892 0.21048 0.0
C596 C 0.40935 0.95176 0.15786 0.0
C597 C 0.35931 0.9768 0.22617 0.0
C598 C 0.41734 0.98099 0.10264 0.0
C599 C 0.39968 1.00956 0.12708 0.0
H600 H 0.48209 0.30395 0.34831 0.0
H601 H 0.39817 0.34336 0.17756 0.0
H602 H 0.41745 0.39945 0.21741 0.0
H603 H 0.46739 0.43264 0.23947 0.0
H604 H 0.55337 0.3911 0.39302 0.0
H605 H 0.52443 0.33961 0.42296 0.0
C606 C 0.46709 0.32502 0.32673 0.0
C607 C 0.4404 0.32062 0.2537 0.0
C608 C 0.47952 0.3563 0.34356 0.0
C609 C 0.42007 0.3471 0.22805 0.0
C610 C 0.43121 0.3789 0.25029 0.0
C611 C 0.47907 0.41257 0.28272 0.0
C612 C 0.51219 0.41461 0.31074 0.0
C613 C 0.46252 0.38328 0.2972 0.0
C614 C 0.52783 0.3892 0.36854 0.0
C615 C 0.5113 0.36007 0.38638 0.0
H616 H 0.24195 0.53733 0.313 0.0
H617 H 0.20842 0.43727 0.31063 0.0
H618 H 0.15132 0.45599 0.30985 0.0
H619 H 0.11404 0.4998 0.26418 0.0
H620 H 0.14805 0.59988 0.23663 0.0
H621 H 0.20363 0.58228 0.28667 0.0
C622 C 0.22175 0.52009 0.31869 0.0
C623 C 0.22804 0.48646 0.30973 0.0
C624 C 0.1901 0.53097 0.30414 0.0
C625 C 0.20303 0.46335 0.31709 0.0
C626 C 0.17084 0.47404 0.31334 0.0
C627 C 0.13366 0.51771 0.26783 0.0
C628 C 0.12787 0.55074 0.24364 0.0
C629 C 0.16456 0.50757 0.2977 0.0
C630 C 0.15292 0.5741 0.25165 0.0
C631 C 0.18413 0.56422 0.28254 0.0
H632 H 0.06917 0.80109 0.22962 0.0
H633 H 0.98017 0.8457 0.11194 0.0
H634 H 1.012 0.88345 0.99373 0.0
H635 H 0.0649 0.90109 0.92105 0.0
H636 H 0.15442 0.85981 0.05268 0.0
H637 H 0.12249 0.82126 0.16612 0.0
C638 C 0.05712 0.81994 0.18055 0.0
C639 C 0.02293 0.82175 0.17952 0.0
C640 C 0.07545 0.84067 0.11342 0.0
C641 C 1.00667 0.84494 0.11401 0.0
C642 C 0.02477 0.86587 0.04602 0.0
C643 C 0.07739 0.88362 0.97482 0.0
C644 C 0.11178 0.88306 0.97991 0.0
C645 C 0.05909 0.86342 0.04401 0.0
C646 C 0.12794 0.86013 0.04728 0.0
C647 C 0.10976 0.83868 0.11312 0.0
H648 H 0.69318 1.0094 0.26852 0.0
H649 H 0.76437 0.97643 0.02126 0.0
H650 H 0.74229 1.01318 0.88541 0.0
H651 H 0.71156 0.06376 0.84715 0.0
H652 H 0.65152 0.10712 0.11197 0.0
H653 H 0.66603 0.06271 0.24026 0.0
C654 C 0.70596 1.01199 0.18934 0.0
C655 C 0.73466 0.99398 0.16674 0.0
C656 C 0.69688 0.0372 0.11669 0.0
C657 C 0.74468 0.99194 0.05074 0.0
C658 C 0.73242 1.01368 0.9712 0.0
C659 C 0.70268 0.06388 0.93432 0.0
C660 C 0.68197 0.08902 0.97291 0.0
C661 C 0.71068 0.03826 1.00655 0.0
C662 C 0.66887 0.08847 0.08351 0.0
C663 C 0.67613 0.06256 0.15494 0.0
H664 H 0.594 0.71904 0.30812 0.0
H665 H 0.51815 0.75787 0.09398 0.0
H666 H 0.49854 0.70278 0.04942 0.0
H667 H 0.49274 0.64731 0.11829 0.0
H668 H 0.56231 0.60858 0.35549 0.0
H669 H 0.59444 0.6597 0.34866 0.0
C670 C 0.57406 0.71492 0.24846 0.0
C671 C 0.55699 0.7419 0.20617 0.0
C672 C 0.56102 0.68345 0.23223 0.0
C673 C 0.53149 0.73714 0.12733 0.0
C674 C 0.51991 0.70575 0.10356 0.0
C675 C 0.51527 0.65014 0.1668 0.0
C676 C 0.52472 0.62587 0.24222 0.0
C677 C 0.53275 0.67931 0.16326 0.0
C678 C 0.55443 0.62821 0.30113 0.0
C679 C 0.57275 0.65708 0.29598 0.0
H680 H 0.8305 0.59211 0.14318 0.0
H681 H 0.79925 0.49175 0.17185 0.0
H682 H 0.85417 0.47502 0.22645 0.0
H683 H 0.90505 0.49189 0.30685 0.0
H684 H 0.94365 0.58839 0.24025 0.0
H685 H 0.889 0.6063 0.17537 0.0
C686 C 0.83671 0.56639 0.15408 0.0
C687 C 0.81191 0.54306 0.16003 0.0
C688 C 0.86774 0.55764 0.19028 0.0
C689 C 0.81889 0.50963 0.16977 0.0
C690 C 0.84966 0.50046 0.20495 0.0
C691 C 0.90132 0.51717 0.28061 0.0
C692 C 0.92725 0.53939 0.28144 0.0
C693 C 0.87304 0.52493 0.22487 0.0
C694 C 0.92307 0.57165 0.24407 0.0
C695 C 0.89264 0.58121 0.20238 0.0
H696 H 0.06147 0.23981 0.90161 0.0
H697 H 1.00286 0.22535 0.20106 0.0
H698 H 0.98984 0.16923 0.13375 0.0
H699 H 0.99553 0.12227 0.98927 0.0
H700 H 0.0555 0.13667 0.69304 0.0
H701 H 0.06808 0.19278 0.76013 0.0
C702 C 0.0456 0.22457 0.95221 0.0
C703 C 0.03312 0.23804 0.05748 0.0
C704 C 0.03895 0.19122 0.91403 0.0
C705 C 1.01254 0.21699 0.11967 0.0
C706 C 1.0054 0.18427 0.08131 0.0
C707 C 1.01173 0.13745 0.93965 0.0
C708 C 0.02544 0.1237 0.83656 0.0
C709 C 0.0186 0.17075 0.97885 0.0
C710 C 0.04553 0.14505 0.77404 0.0
C711 C 0.05237 0.17776 0.81209 0.0
H712 H 0.34252 0.09431 0.02631 0.0
H713 H 0.29945 1.00012 0.94509 0.0
H714 H 0.34842 0.98462 0.83468 0.0
H715 H 0.4054 0.9959 0.76993 0.0
H716 H 0.4515 0.08759 0.86586 0.0
H717 H 0.40076 0.10536 0.9629 0.0
C718 C 0.34343 0.07069 0.98182 0.0
C719 C 0.31625 0.04871 0.99373 0.0
C720 C 0.37299 0.06114 0.92261 0.0
C721 C 0.31893 1.01794 0.93683 0.0
C722 C 0.34745 1.00888 0.87469 0.0
C723 C 0.40462 1.01988 0.81212 0.0
C724 C 0.43326 0.04012 0.80963 0.0
C725 C 0.37497 0.0299 0.86864 0.0
C726 C 0.43085 0.07099 0.86623 0.0
C727 C 0.40131 0.08137 0.92087 0.0
H728 H 0.51948 0.32209 1.00971 0.0
H729 H 0.41439 0.32851 0.99292 0.0
H730 H 0.41824 0.38213 0.9036 0.0
H731 H 0.45119 0.42921 0.83141 0.0
H732 H 0.5555 0.41648 0.80048 0.0
H733 H 0.55231 0.36498 0.90326 0.0
C734 C 0.49733 0.33477 0.98476 0.0
C735 C 0.46627 0.32104 0.01449 0.0
C736 C 0.49967 0.3654 0.92417 0.0
C737 C 0.43847 0.33851 0.97742 0.0
C738 C 0.44069 0.36939 0.92479 0.0
C739 C 0.47336 0.41523 0.8458 0.0
C740 C 0.50386 0.42855 0.80957 0.0
C741 C 0.47112 0.38356 0.89849 0.0
C742 C 0.53169 0.40852 0.82859 0.0
C743 C 0.52985 0.37839 0.88759 0.0
H744 H 0.23356 0.53629 0.01702 0.0
H745 H 0.22067 0.43358 0.0866 0.0
H746 H 0.16789 0.43374 0.98783 0.0
H747 H 0.1238 0.4627 0.88255 0.0
H748 H 0.13759 0.56419 0.79687 0.0
H749 H 0.19033 0.56449 0.89565 0.0
C750 C 0.21976 0.51364 1.00785 0.0
C751 C 0.23225 0.48453 0.05971 0.0
C752 C 0.18868 0.51374 0.94778 0.0
C753 C 0.21265 0.45611 0.04752 0.0
C754 C 0.18201 0.45629 0.99107 0.0
C755 C 0.13771 0.48522 0.88636 0.0
C756 C 0.12456 0.51388 0.83413 0.0
C757 C 0.16934 0.48495 0.94141 0.0
C758 C 0.14541 0.54176 0.83685 0.0
C759 C 0.1762 0.54195 0.89396 0.0
H760 H 0.96543 0.84069 0.41978 0.0
H761 H 0.06478 0.8061 0.44275 0.0
H762 H 0.0806 0.85782 0.54015 0.0
H763 H 0.06694 0.91464 0.61573 0.0
H764 H 0.96605 0.94429 0.63105 0.0
H765 H 0.9503 0.89409 0.52369 0.0
C766 C 0.99039 0.8439 0.44925 0.0
C767 C 1.01362 0.81826 0.42455 0.0
C768 C 0.99928 0.8739 0.50982 0.0
C769 C 0.04598 0.82421 0.46181 0.0
C770 C 0.05515 0.8543 0.51685 0.0
C771 C 0.04142 0.91052 0.59445 0.0
C772 C 0.01815 0.9359 0.62256 0.0
C773 C 0.03218 0.87969 0.54041 0.0
C774 C 0.98512 0.92782 0.60094 0.0
C775 C 0.97598 0.89823 0.54195 0.0
H776 H 0.71566 0.06285 0.40126 0.0
H777 H 0.7394 0.96277 0.48142 0.0
H778 H 0.68991 0.95909 0.59836 0.0
H779 H 0.63707 0.98272 0.67119 0.0
H780 H 0.609 0.07983 0.56859 0.0
H781 H 0.66139 0.08604 0.46989 0.0
C782 C 0.71059 0.04058 0.44719 0.0
C783 C 0.73251 1.01324 0.43356 0.0
C784 C 0.68025 0.03778 0.50953 0.0
C785 C 0.72398 0.98435 0.49103 0.0
C786 C 0.6952 0.98213 0.55742 0.0
C787 C 0.64226 1.0053 0.62716 0.0
C788 C 0.61794 0.03054 0.62753 0.0
C789 C 0.67264 1.00838 0.56611 0.0
C790 C 0.62623 0.05959 0.57 0.0
C791 C 0.65664 0.06324 0.51314 0.0
H792 H 0.50771 0.73029 0.36968 0.0
H793 H 0.58811 0.76924 0.56564 0.0
H794 H 0.58694 0.72043 0.68765 0.0
H795 H 0.56514 0.66241 0.72976 0.0
H796 H 0.49658 0.62177 0.49306 0.0
H797 H 0.4895 0.67436 0.40212 0.0
C798 C 0.52474 0.72856 0.44017 0.0
C799 C 0.54781 0.7542 0.45735 0.0
C800 C 0.52543 0.6993 0.50544 0.0
C801 C 0.56966 0.7506 0.54983 0.0
C802 C 0.56926 0.72217 0.61921 0.0
C803 C 0.54824 0.66514 0.6594 0.0
C804 C 0.52803 0.63775 0.62599 0.0
C805 C 0.54764 0.69561 0.59669 0.0
C806 C 0.50871 0.6424 0.52942 0.0
C807 C 0.50576 0.67256 0.47454 0.0
H808 H 0.80576 0.50688 0.45319 0.0
H809 H 0.8145 0.60907 0.3699 0.0
H810 H 0.86782 0.61173 0.46557 0.0
H811 H 0.91423 0.58468 0.56513 0.0
H812 H 0.90326 0.48466 0.67263 0.0
H813 H 0.85011 0.48164 0.57696 0.0
C814 C 0.81864 0.53013 0.45935 0.0
C815 C 0.80475 0.55814 0.40445 0.0
C816 C 0.84995 0.53171 0.51765 0.0
C817 C 0.8233 0.58739 0.4125 0.0
C818 C 0.85436 0.58878 0.46666 0.0
C819 C 0.90072 0.56204 0.56892 0.0
C820 C 0.9149 0.5345 0.62562 0.0
C821 C 0.86846 0.56101 0.51823 0.0
C822 C 0.89473 0.50621 0.62899 0.0
C823 C 0.86363 0.50451 0.57419 0.0
loop_
_geom_bond_atom_site_label_1
_geom_bond_atom_site_label_2
_geom_bond_distance
_geom_bond_site_symmetry_2
_ccdc_geom_bond_type
C0 N1 1.317 . S
C0 N2 1.348 . S
C0 C3 1.485 . S
N1 C0 1.317 . S
N1 N5 1.370 . S
N2 C0 1.348 . S
N2 C4 1.346 . S
C3 C0 1.485 . S
C3 H7 0.960 . S
C3 H8 0.961 . S
C3 H9 0.960 . S
C4 N2 1.346 . S
C4 N5 1.307 . S
C4 C6 1.486 . S
N5 N1 1.370 . S
N5 C4 1.307 . S
C6 C4 1.486 . S
C6 H10 0.960 . S
C6 H11 0.960 . S
C6 H12 0.959 . S
H7 C3 0.960 . S
H8 C3 0.961 . S
H9 C3 0.960 . S
H10 C6 0.960 . S
H11 C6 0.960 . S
H12 C6 0.959 . S
C13 N14 1.317 . S
C13 N15 1.348 . S
C13 C16 1.485 . S
N14 C13 1.317 . S
N14 N18 1.370 . S
N15 C13 1.348 . S
N15 C17 1.346 . S
C16 C13 1.485 . S
C16 H20 0.960 . S
C16 H21 0.961 . S
C16 H22 0.960 . S
C17 N15 1.346 . S
C17 N18 1.307 . S
C17 C19 1.486 . S
N18 N14 1.370 . S
N18 C17 1.307 . S
C19 C17 1.486 . S
C19 H23 0.960 . S
C19 H24 0.960 . S
C19 H25 0.959 . S
H20 C16 0.960 . S
H21 C16 0.961 . S
H22 C16 0.960 . S
H23 C19 0.960 . S
H24 C19 0.960 . S
H25 C19 0.959 . S
C26 N27 1.317 . S
C26 N28 1.348 . S
C26 C29 1.485 . S
N27 C26 1.317 . S
N27 N31 1.370 . S
N28 C26 1.348 . S
N28 C30 1.346 . S
C29 C26 1.485 . S
C29 H33 0.960 . S
C29 H34 0.961 . S
C29 H35 0.960 . S
C30 N28 1.346 . S
C30 N31 1.307 . S
C30 C32 1.486 . S
N31 N27 1.370 . S
N31 C30 1.307 . S
C32 C30 1.486 . S
C32 H36 0.960 . S
C32 H37 0.960 . S
C32 H38 0.959 . S
H33 C29 0.960 . S
H34 C29 0.961 . S
H35 C29 0.960 . S
H36 C32 0.960 . S
H37 C32 0.960 . S
H38 C32 0.959 . S
C39 N40 1.317 . S
C39 N41 1.348 . S
C39 C42 1.485 . S
N40 C39 1.317 . S
N40 N44 1.370 . S
N41 C39 1.348 . S
N41 C43 1.346 . S
C42 C39 1.485 . S
C42 H46 0.960 . S
C42 H47 0.961 . S
C42 H48 0.960 . S
C43 N41 1.346 . S
C43 N44 1.307 . S
C43 C45 1.486 . S
N44 N40 1.370 . S
N44 C43 1.307 . S
C45 C43 1.486 . S
C45 H49 0.960 . S
C45 H50 0.960 . S
C45 H51 0.959 . S
H46 C42 0.960 . S
H47 C42 0.961 . S
H48 C42 0.960 . S
H49 C45 0.960 . S
H50 C45 0.960 . S
H51 C45 0.959 . S
C52 N53 1.317 . S
C52 N54 1.348 1_556 S
C52 C55 1.485 . S
N53 C52 1.317 . S
N53 N57 1.370 1_556 S
N54 C52 1.348 1_554 S
N54 C56 1.346 . S
C55 C52 1.485 . S
C55 H59 0.960 . S
C55 H60 0.961 . S
C55 H61 0.960 . S
C56 N54 1.346 . S
C56 N57 1.307 . S
C56 C58 1.486 . S
N57 N53 1.370 1_554 S
N57 C56 1.307 . S
C58 C56 1.486 . S
C58 H62 0.960 . S
C58 H63 0.960 . S
C58 H64 0.959 . S
H59 C55 0.960 . S
H60 C55 0.961 . S
H61 C55 0.960 . S
H62 C58 0.960 . S
H63 C58 0.960 . S
H64 C58 0.959 . S
C65 N66 1.317 . S
C65 N67 1.348 1_556 S
C65 C68 1.485 . S
N66 C65 1.317 . S
N66 N70 1.370 1_556 S
N67 C65 1.348 1_554 S
N67 C69 1.346 . S
C68 C65 1.485 . S
C68 H72 0.960 . S
C68 H73 0.961 . S
C68 H74 0.960 . S
C69 N67 1.346 . S
C69 N70 1.307 . S
C69 C71 1.486 . S
N70 N66 1.370 1_554 S
N70 C69 1.307 . S
C71 C69 1.486 . S
C71 H75 0.960 . S
C71 H76 0.960 . S
C71 H77 0.959 . S
H72 C68 0.960 . S
H73 C68 0.961 . S
H74 C68 0.960 . S
H75 C71 0.960 . S
H76 C71 0.960 . S
H77 C71 0.959 . S
C78 N79 1.317 . S
C78 N80 1.348 1_556 S
C78 C81 1.485 . S
N79 C78 1.317 . S
N79 N83 1.370 1_556 S
N80 C78 1.348 1_554 S
N80 C82 1.346 . S
C81 C78 1.485 . S
C81 H85 0.960 . S
C81 H86 0.961 . S
C81 H87 0.960 . S
C82 N80 1.346 . S
C82 N83 1.307 . S
C82 C84 1.486 . S
N83 N79 1.370 1_554 S
N83 C82 1.307 . S
C84 C82 1.486 . S
C84 H88 0.960 . S
C84 H89 0.960 . S
C84 H90 0.959 . S
H85 C81 0.960 . S
H86 C81 0.961 . S
H87 C81 0.960 . S
H88 C84 0.960 . S
H89 C84 0.960 . S
H90 C84 0.959 . S
C91 N92 1.317 . S
C91 N93 1.348 1_556 S
C91 C94 1.485 . S
N92 C91 1.317 . S
N92 N96 1.370 1_556 S
N93 C91 1.348 1_554 S
N93 C95 1.346 . S
C94 C91 1.485 . S
C94 H98 0.960 . S
C94 H99 0.961 . S
C94 H100 0.960 . S
C95 N93 1.346 . S
C95 N96 1.307 . S
C95 C97 1.486 . S
N96 N92 1.370 1_554 S
N96 C95 1.307 . S
C97 C95 1.486 . S
C97 H101 0.960 . S
C97 H102 0.960 . S
C97 H103 0.959 . S
H98 C94 0.960 . S
H99 C94 0.961 . S
H100 C94 0.960 . S
H101 C97 0.960 . S
H102 C97 0.960 . S
H103 C97 0.959 . S
Gd104 N135 2.661 1_545 S
Gd104 N141 2.601 . S
Gd104 O148 2.545 . S
Gd104 O149 2.606 1_655 S
Gd104 O151 2.429 . S
Gd104 O152 2.545 1_655 S
Gd104 O153 2.412 . S
Gd104 O155 2.362 1_545 S
Gd104 O156 2.324 1_655 S
Gd104 C163 2.828 . S
Gd105 N114 2.661 1_566 S
Gd105 N118 2.601 1_565 S
Gd105 O149 2.362 1_565 S
Gd105 O150 2.324 1_455 S
Gd105 O154 2.545 . S
Gd105 O155 2.606 1_455 S
Gd105 O157 2.429 . S
Gd105 O158 2.545 . S
Gd105 O159 2.412 . S
Gd105 C172 2.828 . S
C106 C109 1.417 . S
C106 C111 1.431 . S
C106 C112 1.412 . S
C107 C110 1.437 . S
C107 C111 1.317 . S
C107 H126 0.929 . S
C108 C109 1.426 . S
C108 C110 1.413 . S
C108 N118 1.359 1_554 S
C109 C106 1.417 . S
C109 C108 1.426 . S
C109 N114 1.350 . S
C110 C107 1.437 . S
C110 C108 1.413 . S
C110 C120 1.390 1_554 S
C111 C106 1.431 . S
C111 C107 1.317 . S
C111 H122 0.930 . S
C112 C106 1.412 . S
C112 C113 1.355 . S
C112 H124 0.930 . S
C113 C112 1.355 . S
C113 C115 1.402 . S
C113 H125 0.930 1_455 S
N114 Gd105 2.661 1_544 S
N114 C109 1.350 . S
N114 C115 1.307 . S
C115 C113 1.402 . S
C115 N114 1.307 . S
C115 H116 0.930 1_455 S
H116 C115 0.930 1_655 S
C117 N118 1.334 1_565 S
C117 C119 1.394 . S
C117 H121 0.930 . S
N118 Gd105 2.601 1_545 S
N118 C108 1.359 1_556 S
N118 C117 1.334 1_545 S
C119 C117 1.394 . S
C119 C120 1.361 1_565 S
C119 H131 0.930 . S
C120 C110 1.390 1_556 S
C120 C119 1.361 1_545 S
C120 H132 0.928 1_556 S
H121 C117 0.930 . S
H122 C111 0.930 . S
H123 C140 0.930 . S
H124 C112 0.930 . S
H125 C113 0.930 1_655 S
H126 C107 0.929 . S
H127 C145 0.930 . S
H128 C136 0.930 . S
H129 C137 0.930 . S
H130 C161 0.929 . S
H131 C119 0.930 . S
H132 C120 0.928 1_554 S
H133 C162 0.930 . S
H134 C143 0.930 . S
N135 Gd104 2.661 1_565 S
N135 C139 1.350 . S
N135 C140 1.307 1_655 S
C136 H128 0.930 . S
C136 C137 1.355 1_655 S
C136 C138 1.412 . S
C137 H129 0.930 . S
C137 C136 1.355 1_455 S
C137 C140 1.402 . S
C138 C136 1.412 . S
C138 C139 1.417 . S
C138 C162 1.431 . S
C139 N135 1.350 . S
C139 C138 1.417 . S
C139 C142 1.440 . S
C140 H123 0.930 . S
C140 N135 1.307 1_455 S
C140 C137 1.402 . S
N141 Gd104 2.601 . S
N141 C142 1.340 1_545 S
N141 C145 1.334 . S
C142 C139 1.440 . S
C142 N141 1.340 1_565 S
C142 C146 1.421 . S
C143 H134 0.930 . S
C143 C144 1.359 . S
C143 C145 1.394 . S
C144 C143 1.359 . S
C144 C146 1.391 1_545 S
C144 H147 0.929 . S
C145 H127 0.930 . S
C145 N141 1.334 . S
C145 C143 1.394 . S
C146 C142 1.421 . S
C146 C144 1.391 1_565 S
C146 C161 1.437 . S
H147 C144 0.929 . S
O148 Gd104 2.545 . S
O148 C163 1.258 . S
O149 Gd104 2.606 1_455 S
O149 Gd105 2.362 1_545 S
O149 C160 1.284 . S
O150 Gd105 2.324 1_655 S
O150 C170 1.254 1_565 S
O151 Gd104 2.429 . S
O151 C170 1.268 . S
O152 Gd104 2.545 1_455 S
O152 C160 1.250 . S
O153 Gd104 2.412 . S
O153 C163 1.252 . S
O154 Gd105 2.545 . S
O154 C172 1.258 . S
O155 Gd104 2.362 1_565 S
O155 Gd105 2.606 1_655 S
O155 C171 1.284 . S
O156 Gd104 2.324 1_455 S
O156 C179 1.254 . S
O157 Gd105 2.429 . S
O157 C179 1.268 1_565 S
O158 Gd105 2.545 . S
O158 C171 1.250 1_455 S
O159 Gd105 2.412 . S
O159 C172 1.252 . S
C160 O149 1.284 . S
C160 O152 1.250 . S
C161 H130 0.929 . S
C161 C146 1.437 . S
C161 C162 1.317 . S
C162 H133 0.930 . S
C162 C138 1.431 . S
C162 C161 1.317 . S
C163 Gd104 2.828 . S
C163 O148 1.258 . S
C163 O153 1.252 . S
C163 C164 1.497 . S
C164 C163 1.497 . S
C164 C165 1.395 . S
C164 C166 1.380 . S
C165 C164 1.395 . S
C165 C168 1.398 . S
C165 H180 0.930 . S
C166 C164 1.380 . S
C166 C167 1.391 . S
C166 H181 0.930 1_655 S
C167 C166 1.391 . S
C167 C169 1.387 . S
C168 C165 1.398 . S
C168 C169 1.380 . S
C168 H182 0.930 . S
C169 C167 1.387 . S
C169 C168 1.380 . S
C169 H183 0.930 . S
C170 O150 1.254 1_545 S
C170 O151 1.268 . S
C171 O155 1.284 . S
C171 O158 1.250 1_655 S
C172 Gd105 2.828 . S
C172 O154 1.258 . S
C172 O159 1.252 . S
C172 C173 1.497 1_556 S
C173 C172 1.497 1_554 S
C173 C174 1.395 . S
C173 C175 1.380 . S
C174 C173 1.395 . S
C174 C177 1.398 . S
C174 H184 0.930 . S
C175 C173 1.380 . S
C175 C176 1.391 . S
C175 H185 0.930 . S
C176 C175 1.391 . S
C176 C178 1.387 . S
C177 C174 1.398 . S
C177 C178 1.380 . S
C177 H186 0.930 . S
C178 C176 1.387 . S
C178 C177 1.380 . S
C178 H187 0.930 . S
C179 O156 1.254 . S
C179 O157 1.268 1_545 S
H180 C165 0.930 . S
H181 C166 0.930 1_455 S
H182 C168 0.930 . S
H183 C169 0.930 . S
H184 C174 0.930 . S
H185 C175 0.930 . S
H186 C177 0.930 . S
H187 C178 0.930 . S
Gd188 N219 2.661 . S
Gd188 N225 2.601 . S
Gd188 O232 2.545 . S
Gd188 O233 2.606 1_565 S
Gd188 O235 2.429 . S
Gd188 O236 2.545 1_565 S
Gd188 O237 2.412 . S
Gd188 O239 2.362 . S
Gd188 O240 2.324 1_565 S
Gd188 C247 2.828 . S
Gd189 N198 2.661 1_556 S
Gd189 N202 2.601 . S
Gd189 O233 2.362 . S
Gd189 O234 2.324 1_545 S
Gd189 O238 2.545 . S
Gd189 O239 2.606 1_545 S
Gd189 O241 2.429 . S
Gd189 O242 2.545 . S
Gd189 O243 2.412 . S
Gd189 C256 2.828 . S
C190 C193 1.417 . S
C190 C195 1.431 . S
C190 C196 1.412 . S
C191 C194 1.437 . S
C191 C195 1.317 . S
C191 H210 0.929 . S
C192 C193 1.426 . S
C192 C194 1.413 . S
C192 N202 1.359 1_554 S
C193 C190 1.417 . S
C193 C192 1.426 . S
C193 N198 1.350 . S
C194 C191 1.437 . S
C194 C192 1.413 . S
C194 C204 1.391 . S
C195 C190 1.431 . S
C195 C191 1.317 . S
C195 H206 0.930 . S
C196 C190 1.412 . S
C196 C197 1.355 . S
C196 H208 0.930 . S
C197 C196 1.355 . S
C197 C199 1.402 . S
C197 H209 0.930 1_545 S
N198 Gd189 2.661 1_554 S
N198 C193 1.350 . S
N198 C199 1.307 . S
C199 C197 1.402 . S
C199 N198 1.307 . S
C199 H200 0.930 1_545 S
H200 C199 0.930 1_565 S
C201 N202 1.334 . S
C201 C203 1.394 . S
C201 H205 0.930 . S
N202 Gd189 2.601 . S
N202 C192 1.359 1_556 S
N202 C201 1.334 . S
C203 C201 1.394 . S
C203 C204 1.359 1_556 S
C203 H215 0.930 . S
C204 C194 1.391 . S
C204 C203 1.359 1_554 S
C204 H216 0.929 . S
H205 C201 0.930 . S
H206 C195 0.930 . S
H207 C224 0.930 . S
H208 C196 0.930 . S
H209 C197 0.930 1_565 S
H210 C191 0.929 . S
H211 C229 0.930 . S
H212 C220 0.930 . S
H213 C221 0.930 . S
H214 C245 0.929 . S
H215 C203 0.930 . S
H216 C204 0.929 . S
H217 C246 0.930 . S
H218 C227 0.930 . S
N219 Gd188 2.661 . S
N219 C223 1.350 . S
N219 C224 1.307 1_565 S
C220 H212 0.930 . S
C220 C221 1.355 1_565 S
C220 C222 1.412 . S
C221 H213 0.930 . S
C221 C220 1.355 1_545 S
C221 C224 1.402 . S
C222 C220 1.412 . S
C222 C223 1.417 . S
C222 C246 1.431 . S
C223 N219 1.350 . S
C223 C222 1.417 . S
C223 C226 1.426 . S
C224 H207 0.930 . S
C224 N219 1.307 1_545 S
C224 C221 1.402 . S
N225 Gd188 2.601 . S
N225 C226 1.359 . S
N225 C229 1.334 . S
C226 C223 1.426 . S
C226 N225 1.359 . S
C226 C230 1.413 . S
C227 H218 0.930 . S
C227 C228 1.359 . S
C227 C229 1.394 . S
C228 C227 1.359 . S
C228 C230 1.391 . S
C228 H231 0.929 . S
C229 H211 0.930 . S
C229 N225 1.334 . S
C229 C227 1.394 . S
C230 C226 1.413 . S
C230 C228 1.391 . S
C230 C245 1.437 . S
H231 C228 0.929 . S
O232 Gd188 2.545 . S
O232 C247 1.258 . S
O233 Gd188 2.606 1_545 S
O233 Gd189 2.362 . S
O233 C244 1.284 . S
O234 Gd189 2.324 1_565 S
O234 C254 1.254 . S
O235 Gd188 2.429 . S
O235 C254 1.268 . S
O236 Gd188 2.545 1_545 S
O236 C244 1.250 . S
O237 Gd188 2.412 . S
O237 C247 1.252 . S
O238 Gd189 2.545 . S
O238 C256 1.258 . S
O239 Gd188 2.362 . S
O239 Gd189 2.606 1_565 S
O239 C255 1.284 . S
O240 Gd188 2.324 1_545 S
O240 C263 1.254 . S
O241 Gd189 2.429 . S
O241 C263 1.268 . S
O242 Gd189 2.545 . S
O242 C255 1.250 1_545 S
O243 Gd189 2.412 . S
O243 C256 1.252 . S
C244 O233 1.284 . S
C244 O236 1.250 . S
C245 H214 0.929 . S
C245 C230 1.437 . S
C245 C246 1.317 . S
C246 H217 0.930 . S
C246 C222 1.431 . S
C246 C245 1.317 . S
C247 Gd188 2.828 . S
C247 O232 1.258 . S
C247 O237 1.252 . S
C247 C248 1.497 . S
C248 C247 1.497 . S
C248 C249 1.395 . S
C248 C250 1.380 . S
C249 C248 1.395 . S
C249 C252 1.398 . S
C249 H264 0.930 . S
C250 C248 1.380 . S
C250 C251 1.391 . S
C250 H265 0.930 1_565 S
C251 C250 1.391 . S
C251 C253 1.387 . S
C252 C249 1.398 . S
C252 C253 1.380 . S
C252 H266 0.930 . S
C253 C251 1.387 . S
C253 C252 1.380 . S
C253 H267 0.930 . S
C254 O234 1.254 . S
C254 O235 1.268 . S
C255 O239 1.284 . S
C255 O242 1.250 1_565 S
C256 Gd189 2.828 . S
C256 O238 1.258 . S
C256 O243 1.252 . S
C256 C257 1.497 1_556 S
C257 C256 1.497 1_554 S
C257 C258 1.395 . S
C257 C259 1.380 . S
C258 C257 1.395 . S
C258 C261 1.398 . S
C258 H268 0.930 . S
C259 C257 1.380 . S
C259 C260 1.391 . S
C259 H269 0.930 . S
C260 C259 1.391 . S
C260 C262 1.387 . S
C261 C258 1.398 . S
C261 C262 1.380 . S
C261 H270 0.930 . S
C262 C260 1.387 . S
C262 C261 1.380 . S
C262 H271 0.930 . S
C263 O240 1.254 . S
C263 O241 1.268 . S
H264 C249 0.930 . S
H265 C250 0.930 1_545 S
H266 C252 0.930 . S
H267 C253 0.930 . S
H268 C258 0.930 . S
H269 C259 0.930 . S
H270 C261 0.930 . S
H271 C262 0.930 . S
Gd272 N303 2.661 . S
Gd272 N309 2.601 . S
Gd272 O316 2.545 1_556 S
Gd272 O317 2.606 . S
Gd272 O319 2.429 . S
Gd272 O320 2.545 . S
Gd272 O321 2.412 . S
Gd272 O323 2.362 . S
Gd272 O324 2.324 . S
Gd272 C331 2.828 1_556 S
Gd273 N282 2.661 . S
Gd273 N286 2.601 . S
Gd273 O317 2.362 . S
Gd273 O318 2.324 . S
Gd273 O322 2.545 . S
Gd273 O323 2.606 . S
Gd273 O325 2.429 . S
Gd273 O326 2.545 . S
Gd273 O327 2.412 . S
Gd273 C340 2.828 . S
C274 C277 1.417 . S
C274 C279 1.431 . S
C274 C280 1.412 . S
C275 C278 1.437 . S
C275 C279 1.317 . S
C275 H294 0.929 . S
C276 C277 1.426 . S
C276 C278 1.413 . S
C276 N286 1.359 . S
C277 C274 1.417 . S
C277 C276 1.426 . S
C277 N282 1.350 . S
C278 C275 1.437 . S
C278 C276 1.413 . S
C278 C288 1.391 . S
C279 C274 1.431 . S
C279 C275 1.317 . S
C279 H290 0.930 . S
C280 C274 1.412 . S
C280 C281 1.355 . S
C280 H292 0.930 . S
C281 C280 1.355 . S
C281 C283 1.402 . S
C281 H293 0.930 . S
N282 Gd273 2.661 . S
N282 C277 1.350 . S
N282 C283 1.307 . S
C283 C281 1.402 . S
C283 N282 1.307 . S
C283 H284 0.930 . S
H284 C283 0.930 . S
C285 N286 1.334 . S
C285 C287 1.394 . S
C285 H289 0.930 . S
N286 Gd273 2.601 . S
N286 C276 1.359 . S
N286 C285 1.334 . S
C287 C285 1.394 . S
C287 C288 1.359 . S
C287 H299 0.930 . S
C288 C278 1.391 . S
C288 C287 1.359 . S
C288 H300 0.929 . S
H289 C285 0.930 . S
H290 C279 0.930 . S
H291 C308 0.930 . S
H292 C280 0.930 . S
H293 C281 0.930 . S
H294 C275 0.929 . S
H295 C313 0.930 1_554 S
H296 C304 0.930 . S
H297 C305 0.930 . S
H298 C329 0.929 . S
H299 C287 0.930 . S
H300 C288 0.929 . S
H301 C330 0.930 . S
H302 C311 0.930 . S
N303 Gd272 2.661 . S
N303 C307 1.350 . S
N303 C308 1.307 . S
C304 H296 0.930 . S
C304 C305 1.355 . S
C304 C306 1.412 . S
C305 H297 0.930 . S
C305 C304 1.355 . S
C305 C308 1.402 . S
C306 C304 1.412 . S
C306 C307 1.417 . S
C306 C330 1.431 . S
C307 N303 1.350 . S
C307 C306 1.417 . S
C307 C310 1.426 . S
C308 H291 0.930 . S
C308 N303 1.307 . S
C308 C305 1.402 . S
N309 Gd272 2.601 . S
N309 C310 1.359 . S
N309 C313 1.334 . S
C310 C307 1.426 . S
C310 N309 1.359 . S
C310 C314 1.413 . S
C311 H302 0.930 . S
C311 C312 1.359 . S
C311 C313 1.394 1_554 S
C312 C311 1.359 . S
C312 C314 1.391 1_554 S
C312 H315 0.929 . S
C313 H295 0.930 1_556 S
C313 N309 1.334 . S
C313 C311 1.394 1_556 S
C314 C310 1.413 . S
C314 C312 1.391 1_556 S
C314 C329 1.437 . S
H315 C312 0.929 . S
O316 Gd272 2.545 1_554 S
O316 C331 1.258 . S
O317 Gd272 2.606 . S
O317 Gd273 2.362 . S
O317 C328 1.284 . S
O318 Gd273 2.324 . S
O318 C338 1.254 . S
O319 Gd272 2.429 . S
O319 C338 1.268 . S
O320 Gd272 2.545 . S
O320 C328 1.250 . S
O321 Gd272 2.412 . S
O321 C331 1.252 1_556 S
O322 Gd273 2.545 . S
O322 C340 1.258 . S
O323 Gd272 2.362 . S
O323 Gd273 2.606 . S
O323 C339 1.284 . S
O324 Gd272 2.324 . S
O324 C347 1.254 . S
O325 Gd273 2.429 . S
O325 C347 1.268 . S
O326 Gd273 2.545 . S
O326 C339 1.250 . S
O327 Gd273 2.412 . S
O327 C340 1.252 . S
C328 O317 1.284 . S
C328 O320 1.250 . S
C329 H298 0.929 . S
C329 C314 1.437 . S
C329 C330 1.317 . S
C330 H301 0.930 . S
C330 C306 1.431 . S
C330 C329 1.317 . S
C331 Gd272 2.828 1_554 S
C331 O316 1.258 . S
C331 O321 1.252 1_554 S
C331 C332 1.497 . S
C332 C331 1.497 . S
C332 C333 1.395 . S
C332 C334 1.380 . S
C333 C332 1.395 . S
C333 C336 1.398 . S
C333 H348 0.930 . S
C334 C332 1.380 . S
C334 C335 1.391 . S
C334 H349 0.930 . S
C335 C334 1.391 . S
C335 C337 1.387 . S
C336 C333 1.398 . S
C336 C337 1.380 . S
C336 H350 0.930 . S
C337 C335 1.387 . S
C337 C336 1.380 . S
C337 H351 0.930 . S
C338 O318 1.254 . S
C338 O319 1.268 . S
C339 O323 1.284 . S
C339 O326 1.250 . S
C340 Gd273 2.828 . S
C340 O322 1.258 . S
C340 O327 1.252 . S
C340 C341 1.497 . S
C341 C340 1.497 . S
C341 C342 1.395 . S
C341 C343 1.380 . S
C342 C341 1.395 . S
C342 C345 1.398 . S
C342 H352 0.930 . S
C343 C341 1.380 . S
C343 C344 1.391 . S
C343 H353 0.930 . S
C344 C343 1.391 . S
C344 C346 1.387 . S
C345 C342 1.398 . S
C345 C346 1.380 . S
C345 H354 0.930 . S
C346 C344 1.387 . S
C346 C345 1.380 . S
C346 H355 0.930 . S
C347 O324 1.254 . S
C347 O325 1.268 . S
H348 C333 0.930 . S
H349 C334 0.930 . S
H350 C336 0.930 . S
H351 C337 0.930 . S
H352 C342 0.930 . S
H353 C343 0.930 . S
H354 C345 0.930 . S
H355 C346 0.930 . S
Gd356 N387 2.661 . S
Gd356 N393 2.602 1_655 S
Gd356 O400 2.545 1_556 S
Gd356 O401 2.606 1_655 S
Gd356 O403 2.429 1_655 S
Gd356 O404 2.545 . S
Gd356 O405 2.412 . S
Gd356 O407 2.362 1_655 S
Gd356 O408 2.324 . S
Gd356 C415 2.828 1_556 S
Gd357 N366 2.661 . S
Gd357 N370 2.601 . S
Gd357 O401 2.362 . S
Gd357 O402 2.324 . S
Gd357 O406 2.545 . S
Gd357 O407 2.606 . S
Gd357 O409 2.429 1_455 S
Gd357 O410 2.545 . S
Gd357 O411 2.412 . S
Gd357 C424 2.828 . S
C358 C361 1.417 . S
C358 C363 1.431 . S
C358 C364 1.412 . S
C359 C362 1.437 . S
C359 C363 1.317 . S
C359 H378 0.929 . S
C360 C361 1.426 . S
C360 C362 1.413 . S
C360 N370 1.359 . S
C361 C358 1.417 . S
C361 C360 1.426 . S
C361 N366 1.350 . S
C362 C359 1.437 . S
C362 C360 1.413 . S
C362 C372 1.391 . S
C363 C358 1.431 . S
C363 C359 1.317 . S
C363 H374 0.930 . S
C364 C358 1.412 . S
C364 C365 1.355 . S
C364 H376 0.930 . S
C365 C364 1.355 . S
C365 C367 1.402 . S
C365 H377 0.930 . S
N366 Gd357 2.661 . S
N366 C361 1.350 . S
N366 C367 1.307 . S
C367 C365 1.402 . S
C367 N366 1.307 . S
C367 H368 0.930 . S
H368 C367 0.930 . S
C369 N370 1.334 1_655 S
C369 C371 1.394 . S
C369 H373 0.930 . S
N370 Gd357 2.601 . S
N370 C360 1.359 . S
N370 C369 1.334 1_455 S
C371 C369 1.394 . S
C371 C372 1.359 1_655 S
C371 H383 0.930 . S
C372 C362 1.391 . S
C372 C371 1.359 1_455 S
C372 H384 0.928 1_455 S
H373 C369 0.930 . S
H374 C363 0.930 . S
H375 C392 0.930 . S
H376 C364 0.930 . S
H377 C365 0.930 . S
H378 C359 0.929 . S
H379 C397 0.930 1_554 S
H380 C388 0.930 . S
H381 C389 0.930 . S
H382 C413 0.929 . S
H383 C371 0.930 . S
H384 C372 0.928 1_655 S
H385 C414 0.930 . S
H386 C395 0.930 . S
N387 Gd356 2.661 . S
N387 C391 1.350 . S
N387 C392 1.307 . S
C388 H380 0.930 . S
C388 C389 1.355 . S
C388 C390 1.412 . S
C389 H381 0.930 . S
C389 C388 1.355 . S
C389 C392 1.402 . S
C390 C388 1.412 . S
C390 C391 1.417 . S
C390 C414 1.431 . S
C391 N387 1.350 . S
C391 C390 1.417 . S
C391 C394 1.426 . S
C392 H375 0.930 . S
C392 N387 1.307 . S
C392 C389 1.402 . S
N393 Gd356 2.602 1_455 S
N393 C394 1.361 1_455 S
N393 C397 1.332 . S
C394 C391 1.426 . S
C394 N393 1.361 1_655 S
C394 C398 1.413 . S
C395 H386 0.930 . S
C395 C396 1.359 . S
C395 C397 1.394 1_554 S
C396 C395 1.359 . S
C396 C398 1.391 1_454 S
C396 H399 0.929 . S
C397 H379 0.930 1_556 S
C397 N393 1.332 . S
C397 C395 1.394 1_556 S
C398 C394 1.413 . S
C398 C396 1.391 1_656 S
C398 C413 1.437 . S
H399 C396 0.929 . S
O400 Gd356 2.545 1_554 S
O400 C415 1.258 . S
O401 Gd356 2.606 1_455 S
O401 Gd357 2.362 . S
O401 C412 1.284 1_455 S
O402 Gd357 2.324 . S
O402 C422 1.254 . S
O403 Gd356 2.429 1_455 S
O403 C422 1.268 . S
O404 Gd356 2.545 . S
O404 C412 1.250 . S
O405 Gd356 2.412 . S
O405 C415 1.252 1_556 S
O406 Gd357 2.545 . S
O406 C424 1.258 . S
O407 Gd356 2.362 1_455 S
O407 Gd357 2.606 . S
O407 C423 1.284 . S
O408 Gd356 2.324 . S
O408 C431 1.254 . S
O409 Gd357 2.429 1_655 S
O409 C431 1.268 . S
O410 Gd357 2.545 . S
O410 C423 1.250 . S
O411 Gd357 2.412 . S
O411 C424 1.252 . S
C412 O401 1.284 1_655 S
C412 O404 1.250 . S
C413 H382 0.929 . S
C413 C398 1.437 . S
C413 C414 1.317 . S
C414 H385 0.930 . S
C414 C390 1.431 . S
C414 C413 1.317 . S
C415 Gd356 2.828 1_554 S
C415 O400 1.258 . S
C415 O405 1.252 1_554 S
C415 C416 1.497 . S
C416 C415 1.497 . S
C416 C417 1.395 . S
C416 C418 1.380 . S
C417 C416 1.395 . S
C417 C420 1.398 . S
C417 H432 0.930 . S
C418 C416 1.380 . S
C418 C419 1.391 . S
C418 H433 0.930 . S
C419 C418 1.391 . S
C419 C421 1.387 . S
C420 C417 1.398 . S
C420 C421 1.380 . S
C420 H434 0.930 . S
C421 C419 1.387 . S
C421 C420 1.380 . S
C421 H435 0.930 . S
C422 O402 1.254 . S
C422 O403 1.268 . S
C423 O407 1.284 . S
C423 O410 1.250 . S
C424 Gd357 2.828 . S
C424 O406 1.258 . S
C424 O411 1.252 . S
C424 C425 1.497 . S
C425 C424 1.497 . S
C425 C426 1.395 . S
C425 C427 1.380 . S
C426 C425 1.395 . S
C426 C429 1.398 . S
C426 H436 0.930 . S
C427 C425 1.380 . S
C427 C428 1.391 . S
C427 H437 0.930 . S
C428 C427 1.391 . S
C428 C430 1.387 . S
C429 C426 1.398 . S
C429 C430 1.380 . S
C429 H438 0.930 . S
C430 C428 1.387 . S
C430 C429 1.380 . S
C430 H439 0.930 . S
C431 O408 1.254 . S
C431 O409 1.268 . S
H432 C417 0.930 . S
H433 C418 0.930 . S
H434 C420 0.930 . S
H435 C421 0.930 . S
H436 C426 0.930 . S
H437 C427 0.930 . S
H438 C429 0.930 . S
H439 C430 0.930 . S
H440 C446 0.930 . S
H441 C449 0.930 . S
H442 C450 0.930 . S
H443 C451 0.930 . S
H444 C454 0.930 1_565 S
H445 C455 0.930 1_565 S
C446 H440 0.930 . S
C446 C447 1.355 . S
C446 C448 1.415 . S
C447 C446 1.355 . S
C447 C449 1.419 . S
C448 C446 1.415 . S
C448 C453 1.425 . S
C448 C455 1.409 . S
C449 H441 0.930 . S
C449 C447 1.419 . S
C449 C450 1.362 . S
C450 H442 0.930 . S
C450 C449 1.362 . S
C450 C453 1.409 . S
C451 H443 0.930 . S
C451 C452 1.355 . S
C451 C453 1.415 . S
C452 C451 1.355 . S
C452 C454 1.419 . S
C453 C448 1.425 . S
C453 C450 1.409 . S
C453 C451 1.415 . S
C454 H444 0.930 1_545 S
C454 C452 1.419 . S
C454 C455 1.362 . S
C455 H445 0.930 1_545 S
C455 C448 1.409 . S
C455 C454 1.362 . S
H456 C462 0.930 . S
H457 C465 0.930 . S
H458 C466 0.930 . S
H459 C467 0.930 . S
H460 C470 0.930 . S
H461 C471 0.930 . S
C462 H456 0.930 . S
C462 C463 1.355 . S
C462 C464 1.415 . S
C463 C462 1.355 . S
C463 C465 1.419 . S
C464 C462 1.415 . S
C464 C469 1.425 . S
C464 C471 1.409 . S
C465 H457 0.930 . S
C465 C463 1.419 . S
C465 C466 1.362 . S
C466 H458 0.930 . S
C466 C465 1.362 . S
C466 C469 1.409 . S
C467 H459 0.930 . S
C467 C468 1.355 . S
C467 C469 1.415 . S
C468 C467 1.355 . S
C468 C470 1.419 . S
C469 C464 1.425 . S
C469 C466 1.409 . S
C469 C467 1.415 . S
C470 H460 0.930 . S
C470 C468 1.419 . S
C470 C471 1.362 . S
C471 H461 0.930 . S
C471 C464 1.409 . S
C471 C470 1.362 . S
H472 C478 0.930 . S
H473 C481 0.930 . S
H474 C482 0.930 . S
H475 C483 0.930 . S
H476 C486 0.930 . S
H477 C487 0.930 . S
C478 H472 0.930 . S
C478 C479 1.355 . S
C478 C480 1.415 . S
C479 C478 1.355 . S
C479 C481 1.419 . S
C480 C478 1.415 . S
C480 C485 1.425 . S
C480 C487 1.409 . S
C481 H473 0.930 . S
C481 C479 1.419 . S
C481 C482 1.362 . S
C482 H474 0.930 . S
C482 C481 1.362 . S
C482 C485 1.409 . S
C483 H475 0.930 . S
C483 C484 1.355 . S
C483 C485 1.415 . S
C484 C483 1.355 . S
C484 C486 1.419 . S
C485 C480 1.425 . S
C485 C482 1.409 . S
C485 C483 1.415 . S
C486 H476 0.930 . S
C486 C484 1.419 . S
C486 C487 1.362 . S
C487 H477 0.930 . S
C487 C480 1.409 . S
C487 C486 1.362 . S
H488 C494 0.930 . S
H489 C497 0.930 . S
H490 C498 0.930 . S
H491 C499 0.930 . S
H492 C502 0.930 . S
H493 C503 0.930 . S
C494 H488 0.930 . S
C494 C495 1.355 . S
C494 C496 1.415 . S
C495 C494 1.355 . S
C495 C497 1.419 . S
C496 C494 1.415 . S
C496 C501 1.425 . S
C496 C503 1.409 . S
C497 H489 0.930 . S
C497 C495 1.419 . S
C497 C498 1.362 . S
C498 H490 0.930 . S
C498 C497 1.362 . S
C498 C501 1.409 . S
C499 H491 0.930 . S
C499 C500 1.355 . S
C499 C501 1.415 . S
C500 C499 1.355 . S
C500 C502 1.419 . S
C501 C496 1.425 . S
C501 C498 1.409 . S
C501 C499 1.415 . S
C502 H492 0.930 . S
C502 C500 1.419 . S
C502 C503 1.362 . S
C503 H493 0.930 . S
C503 C496 1.409 . S
C503 C502 1.362 . S
H504 C510 0.930 . S
H505 C513 0.930 . S
H506 C514 0.930 1_545 S
H507 C515 0.930 1_545 S
H508 C518 0.930 . S
H509 C519 0.930 . S
C510 H504 0.930 . S
C510 C511 1.355 . S
C510 C512 1.415 . S
C511 C510 1.355 . S
C511 C513 1.419 . S
C512 C510 1.415 . S
C512 C517 1.425 . S
C512 C519 1.409 1_554 S
C513 H505 0.930 . S
C513 C511 1.419 . S
C513 C514 1.362 . S
C514 H506 0.930 1_565 S
C514 C513 1.362 . S
C514 C517 1.409 . S
C515 H507 0.930 1_565 S
C515 C516 1.355 1_554 S
C515 C517 1.415 . S
C516 C515 1.355 1_556 S
C516 C518 1.419 . S
C517 C512 1.425 . S
C517 C514 1.409 . S
C517 C515 1.415 . S
C518 H508 0.930 . S
C518 C516 1.419 . S
C518 C519 1.362 . S
C519 H509 0.930 . S
C519 C512 1.409 1_556 S
C519 C518 1.362 . S
H520 C526 0.930 . S
H521 C529 0.930 . S
H522 C530 0.930 . S
H523 C531 0.930 . S
H524 C534 0.930 . S
H525 C535 0.930 . S
C526 H520 0.930 . S
C526 C527 1.355 . S
C526 C528 1.415 . S
C527 C526 1.355 . S
C527 C529 1.419 . S
C528 C526 1.415 . S
C528 C533 1.425 . S
C528 C535 1.409 . S
C529 H521 0.930 . S
C529 C527 1.419 . S
C529 C530 1.362 . S
C530 H522 0.930 . S
C530 C529 1.362 . S
C530 C533 1.409 . S
C531 H523 0.930 . S
C531 C532 1.355 . S
C531 C533 1.415 1_556 S
C532 C531 1.355 . S
C532 C534 1.419 1_556 S
C533 C528 1.425 . S
C533 C530 1.409 . S
C533 C531 1.415 1_554 S
C534 H524 0.930 . S
C534 C532 1.419 1_554 S
C534 C535 1.362 . S
C535 H525 0.930 . S
C535 C528 1.409 . S
C535 C534 1.362 . S
H536 C542 0.930 . S
H537 C545 0.930 . S
H538 C546 0.930 . S
H539 C547 0.930 . S
H540 C550 0.930 . S
H541 C551 0.930 . S
C542 H536 0.930 . S
C542 C543 1.355 . S
C542 C544 1.415 . S
C543 C542 1.355 . S
C543 C545 1.419 . S
C544 C542 1.415 . S
C544 C549 1.425 . S
C544 C551 1.409 1_554 S
C545 H537 0.930 . S
C545 C543 1.419 . S
C545 C546 1.362 . S
C546 H538 0.930 . S
C546 C545 1.362 . S
C546 C549 1.409 . S
C547 H539 0.930 . S
C547 C548 1.355 1_554 S
C547 C549 1.415 . S
C548 C547 1.355 1_556 S
C548 C550 1.419 . S
C549 C544 1.425 . S
C549 C546 1.409 . S
C549 C547 1.415 . S
C550 H540 0.930 . S
C550 C548 1.419 . S
C550 C551 1.362 . S
C551 H541 0.930 . S
C551 C544 1.409 1_556 S
C551 C550 1.362 . S
H552 C558 0.930 . S
H553 C561 0.930 . S
H554 C562 0.930 1_455 S
H555 C563 0.930 1_455 S
H556 C566 0.930 . S
H557 C567 0.930 . S
C558 H552 0.930 . S
C558 C559 1.355 . S
C558 C560 1.415 . S
C559 C558 1.355 . S
C559 C561 1.419 . S
C560 C558 1.415 . S
C560 C565 1.425 . S
C560 C567 1.409 1_554 S
C561 H553 0.930 . S
C561 C559 1.419 . S
C561 C562 1.362 . S
C562 H554 0.930 1_655 S
C562 C561 1.362 . S
C562 C565 1.409 . S
C563 H555 0.930 1_655 S
C563 C564 1.355 1_554 S
C563 C565 1.415 . S
C564 C563 1.355 1_556 S
C564 C566 1.419 . S
C565 C560 1.425 . S
C565 C562 1.409 . S
C565 C563 1.415 . S
C566 H556 0.930 . S
C566 C564 1.419 . S
C566 C567 1.362 . S
C567 H557 0.930 . S
C567 C560 1.409 1_556 S
C567 C566 1.362 . S
H568 C574 0.930 . S
H569 C577 0.930 1_556 S
H570 C578 0.930 1_556 S
H571 C579 0.930 . S
H572 C582 0.922 1_655 S
H573 C583 0.930 . S
C574 H568 0.930 . S
C574 C575 1.355 . S
C574 C576 1.415 . S
C575 C574 1.355 . S
C575 C577 1.419 . S
C576 C574 1.415 . S
C576 C581 1.425 . S
C576 C583 1.409 . S
C577 H569 0.930 1_554 S
C577 C575 1.419 . S
C577 C578 1.362 . S
C578 H570 0.930 1_554 S
C578 C577 1.362 . S
C578 C581 1.409 . S
C579 H571 0.930 . S
C579 C580 1.355 1_455 S
C579 C581 1.415 . S
C580 C579 1.355 1_655 S
C580 C582 1.416 1_655 S
C581 C576 1.425 . S
C581 C578 1.409 . S
C581 C579 1.415 . S
C582 H572 0.922 1_455 S
C582 C580 1.416 1_455 S
C582 C583 1.374 . S
C583 H573 0.930 . S
C583 C576 1.409 . S
C583 C582 1.374 . S
H584 C590 0.930 . S
H585 C593 0.930 . S
H586 C594 0.930 1_565 S
H587 C595 0.930 . S
H588 C598 0.930 . S
H589 C599 0.930 . S
C590 H584 0.930 . S
C590 C591 1.355 . S
C590 C592 1.415 . S
C591 C590 1.355 . S
C591 C593 1.419 . S
C592 C590 1.415 . S
C592 C597 1.425 . S
C592 C599 1.409 . S
C593 H585 0.930 . S
C593 C591 1.419 . S
C593 C594 1.362 . S
C594 H586 0.930 1_545 S
C594 C593 1.362 . S
C594 C597 1.409 . S
C595 H587 0.930 . S
C595 C596 1.348 1_565 S
C595 C597 1.415 1_565 S
C596 C595 1.348 1_545 S
C596 C598 1.439 . S
C597 C592 1.425 . S
C597 C594 1.409 . S
C597 C595 1.415 1_545 S
C598 H588 0.930 . S
C598 C596 1.439 . S
C598 C599 1.362 . S
C599 H589 0.930 . S
C599 C592 1.409 . S
C599 C598 1.362 . S
H600 C606 0.930 . S
H601 C609 0.930 1_556 S
H602 C610 0.930 . S
H603 C611 0.930 . S
H604 C614 0.930 . S
H605 C615 0.930 . S
C606 H600 0.930 . S
C606 C607 1.355 . S
C606 C608 1.415 . S
C607 C606 1.355 . S
C607 C609 1.419 . S
C608 C606 1.415 . S
C608 C613 1.425 . S
C608 C615 1.409 . S
C609 H601 0.930 1_554 S
C609 C607 1.419 . S
C609 C610 1.362 . S
C610 H602 0.930 . S
C610 C609 1.362 . S
C610 C613 1.409 . S
C611 H603 0.930 . S
C611 C612 1.355 . S
C611 C613 1.415 . S
C612 C611 1.355 . S
C612 C614 1.419 . S
C613 C608 1.425 . S
C613 C610 1.409 . S
C613 C611 1.415 . S
C614 H604 0.930 . S
C614 C612 1.419 . S
C614 C615 1.362 . S
C615 H605 0.930 . S
C615 C608 1.409 . S
C615 C614 1.362 . S
H616 C622 0.930 . S
H617 C625 0.930 . S
H618 C626 0.930 . S
H619 C627 0.930 . S
H620 C630 0.930 . S
H621 C631 0.930 . S
C622 H616 0.930 . S
C622 C623 1.355 . S
C622 C624 1.415 . S
C623 C622 1.355 . S
C623 C625 1.419 . S
C624 C622 1.415 . S
C624 C629 1.425 . S
C624 C631 1.409 . S
C625 H617 0.930 . S
C625 C623 1.419 . S
C625 C626 1.362 . S
C626 H618 0.930 . S
C626 C625 1.362 . S
C626 C629 1.409 . S
C627 H619 0.930 . S
C627 C628 1.355 . S
C627 C629 1.415 . S
C628 C627 1.355 . S
C628 C630 1.419 . S
C629 C624 1.425 . S
C629 C626 1.409 . S
C629 C627 1.415 . S
C630 H620 0.930 . S
C630 C628 1.419 . S
C630 C631 1.362 . S
C631 H621 0.930 . S
C631 C624 1.409 . S
C631 C630 1.362 . S
H632 C638 0.930 1_455 S
H633 C641 0.930 . S
H634 C642 0.930 . S
H635 C643 0.930 . S
H636 C646 0.930 . S
H637 C647 0.930 . S
C638 H632 0.930 1_655 S
C638 C639 1.355 . S
C638 C640 1.415 1_655 S
C639 C638 1.355 . S
C639 C641 1.419 . S
C640 C638 1.415 1_455 S
C640 C645 1.426 1_455 S
C640 C647 1.409 . S
C641 H633 0.930 . S
C641 C639 1.419 . S
C641 C642 1.362 . S
C642 H634 0.930 . S
C642 C641 1.362 . S
C642 C645 1.409 . S
C643 H635 0.930 . S
C643 C644 1.355 1_655 S
C643 C645 1.415 . S
C644 C643 1.355 1_455 S
C644 C646 1.419 . S
C645 C640 1.426 1_655 S
C645 C642 1.409 . S
C645 C643 1.415 . S
C646 H636 0.930 . S
C646 C644 1.419 . S
C646 C647 1.362 . S
C647 H637 0.930 . S
C647 C640 1.409 . S
C647 C646 1.362 . S
H648 C654 0.930 . S
H649 C657 0.930 . S
H650 C658 0.930 1_545 S
H651 C659 0.930 . S
H652 C662 0.930 . S
H653 C663 0.930 . S
C654 H648 0.930 . S
C654 C655 1.355 . S
C654 C656 1.415 . S
C655 C654 1.355 . S
C655 C657 1.419 . S
C656 C654 1.415 . S
C656 C661 1.425 1_565 S
C656 C663 1.409 . S
C657 H649 0.930 . S
C657 C655 1.419 . S
C657 C658 1.362 . S
C658 H650 0.930 1_565 S
C658 C657 1.362 . S
C658 C661 1.409 1_565 S
C659 H651 0.930 . S
C659 C660 1.355 . S
C659 C661 1.415 . S
C660 C659 1.355 . S
C660 C662 1.419 . S
C661 C656 1.425 1_545 S
C661 C658 1.409 1_545 S
C661 C659 1.415 . S
C662 H652 0.930 . S
C662 C660 1.419 . S
C662 C663 1.362 1_545 S
C663 H653 0.930 . S
C663 C656 1.409 . S
C663 C662 1.362 1_565 S
H664 C670 0.930 . S
H665 C673 0.930 . S
H666 C674 0.930 . S
H667 C675 0.930 . S
H668 C678 0.930 . S
H669 C679 0.930 . S
C670 H664 0.930 . S
C670 C671 1.355 . S
C670 C672 1.415 . S
C671 C670 1.355 . S
C671 C673 1.419 . S
C672 C670 1.415 . S
C672 C677 1.425 . S
C672 C679 1.409 . S
C673 H665 0.930 . S
C673 C671 1.419 . S
C673 C674 1.362 . S
C674 H666 0.930 . S
C674 C673 1.362 . S
C674 C677 1.409 . S
C675 H667 0.930 . S
C675 C676 1.355 . S
C675 C677 1.415 . S
C676 C675 1.355 . S
C676 C678 1.419 . S
C677 C672 1.425 . S
C677 C674 1.409 . S
C677 C675 1.415 . S
C678 H668 0.930 . S
C678 C676 1.419 . S
C678 C679 1.362 . S
C679 H669 0.930 . S
C679 C672 1.409 . S
C679 C678 1.362 . S
H680 C686 0.930 . S
H681 C689 0.930 . S
H682 C690 0.930 . S
H683 C691 0.930 . S
H684 C694 0.930 . S
H685 C695 0.930 . S
C686 H680 0.930 . S
C686 C687 1.355 . S
C686 C688 1.415 . S
C687 C686 1.355 . S
C687 C689 1.419 . S
C688 C686 1.415 . S
C688 C693 1.425 . S
C688 C695 1.409 . S
C689 H681 0.930 . S
C689 C687 1.419 . S
C689 C690 1.362 . S
C690 H682 0.930 . S
C690 C689 1.362 . S
C690 C693 1.409 . S
C691 H683 0.930 . S
C691 C692 1.355 . S
C691 C693 1.415 . S
C692 C691 1.355 . S
C692 C694 1.419 . S
C693 C688 1.425 . S
C693 C690 1.409 . S
C693 C691 1.415 . S
C694 H684 0.930 . S
C694 C692 1.419 . S
C694 C695 1.362 . S
C695 H685 0.930 . S
C695 C688 1.409 . S
C695 C694 1.362 . S
H696 C702 0.930 . S
H697 C705 0.930 . S
H698 C706 0.930 1_655 S
H699 C707 0.930 . S
H700 C710 0.930 . S
H701 C711 0.930 . S
C702 H696 0.930 . S
C702 C703 1.355 . S
C702 C704 1.415 . S
C703 C702 1.355 . S
C703 C705 1.419 . S
C704 C702 1.415 . S
C704 C709 1.425 . S
C704 C711 1.409 . S
C705 H697 0.930 . S
C705 C703 1.419 . S
C705 C706 1.362 . S
C706 H698 0.930 1_455 S
C706 C705 1.362 . S
C706 C709 1.409 . S
C707 H699 0.930 . S
C707 C708 1.355 . S
C707 C709 1.415 . S
C708 C707 1.355 . S
C708 C710 1.419 . S
C709 C704 1.425 . S
C709 C706 1.409 . S
C709 C707 1.415 . S
C710 H700 0.930 . S
C710 C708 1.419 . S
C710 C711 1.362 . S
C711 H701 0.930 . S
C711 C704 1.409 . S
C711 C710 1.362 . S
H712 C718 0.930 . S
H713 C721 0.930 . S
H714 C722 0.930 . S
H715 C723 0.930 . S
H716 C726 0.930 . S
H717 C727 0.930 1_554 S
C718 H712 0.930 . S
C718 C719 1.355 . S
C718 C720 1.415 . S
C719 C718 1.355 . S
C719 C721 1.419 . S
C720 C718 1.415 . S
C720 C725 1.425 . S
C720 C727 1.409 . S
C721 H713 0.930 . S
C721 C719 1.419 . S
C721 C722 1.362 . S
C722 H714 0.930 . S
C722 C721 1.362 . S
C722 C725 1.409 . S
C723 H715 0.930 . S
C723 C724 1.355 . S
C723 C725 1.415 . S
C724 C723 1.355 . S
C724 C726 1.419 . S
C725 C720 1.425 . S
C725 C722 1.409 . S
C725 C723 1.415 . S
C726 H716 0.930 . S
C726 C724 1.419 . S
C726 C727 1.362 . S
C727 H717 0.930 1_556 S
C727 C720 1.409 . S
C727 C726 1.362 . S
H728 C734 0.930 . S
H729 C737 0.930 . S
H730 C738 0.930 . S
H731 C739 0.930 . S
H732 C742 0.930 . S
H733 C743 0.930 . S
C734 H728 0.930 . S
C734 C735 1.355 . S
C734 C736 1.415 . S
C735 C734 1.355 . S
C735 C737 1.419 . S
C736 C734 1.415 . S
C736 C741 1.425 . S
C736 C743 1.409 . S
C737 H729 0.930 . S
C737 C735 1.419 . S
C737 C738 1.362 . S
C738 H730 0.930 . S
C738 C737 1.362 . S
C738 C741 1.409 . S
C739 H731 0.930 . S
C739 C740 1.355 . S
C739 C741 1.415 . S
C740 C739 1.355 . S
C740 C742 1.419 . S
C741 C736 1.425 . S
C741 C738 1.409 . S
C741 C739 1.415 . S
C742 H732 0.930 . S
C742 C740 1.419 . S
C742 C743 1.362 . S
C743 H733 0.930 . S
C743 C736 1.409 . S
C743 C742 1.362 . S
H744 C750 0.930 . S
H745 C753 0.930 1_554 S
H746 C754 0.930 1_554 S
H747 C755 0.930 . S
H748 C758 0.930 . S
H749 C759 0.930 . S
C750 H744 0.930 . S
C750 C751 1.355 . S
C750 C752 1.415 . S
C751 C750 1.355 . S
C751 C753 1.419 . S
C752 C750 1.415 . S
C752 C757 1.425 . S
C752 C759 1.409 . S
C753 H745 0.930 1_556 S
C753 C751 1.419 . S
C753 C754 1.362 . S
C754 H746 0.930 1_556 S
C754 C753 1.362 . S
C754 C757 1.409 . S
C755 H747 0.930 . S
C755 C756 1.355 . S
C755 C757 1.415 . S
C756 C755 1.355 . S
C756 C758 1.419 . S
C757 C752 1.425 . S
C757 C754 1.409 . S
C757 C755 1.415 . S
C758 H748 0.930 . S
C758 C756 1.419 . S
C758 C759 1.362 . S
C759 H749 0.930 . S
C759 C752 1.409 . S
C759 C758 1.362 . S
H760 C766 0.930 . S
H761 C769 0.930 . S
H762 C770 0.930 . S
H763 C771 0.930 . S
H764 C774 0.930 . S
H765 C775 0.930 . S
C766 H760 0.930 . S
C766 C767 1.355 . S
C766 C768 1.415 . S
C767 C766 1.355 . S
C767 C769 1.419 . S
C768 C766 1.415 . S
C768 C773 1.425 . S
C768 C775 1.409 . S
C769 H761 0.930 . S
C769 C767 1.419 . S
C769 C770 1.362 . S
C770 H762 0.930 . S
C770 C769 1.362 . S
C770 C773 1.409 . S
C771 H763 0.930 . S
C771 C772 1.355 . S
C771 C773 1.415 . S
C772 C771 1.355 . S
C772 C774 1.419 . S
C773 C768 1.425 . S
C773 C770 1.409 . S
C773 C771 1.415 . S
C774 H764 0.930 . S
C774 C772 1.419 . S
C774 C775 1.362 . S
C775 H765 0.930 . S
C775 C768 1.409 . S
C775 C774 1.362 . S
H776 C782 0.930 1_545 S
H777 C785 0.930 . S
H778 C786 0.930 . S
H779 C787 0.930 . S
H780 C790 0.930 . S
H781 C791 0.930 . S
C782 H776 0.930 1_565 S
C782 C783 1.355 . S
C782 C784 1.415 . S
C783 C782 1.355 . S
C783 C785 1.419 . S
C784 C782 1.415 . S
C784 C789 1.425 . S
C784 C791 1.409 1_565 S
C785 H777 0.930 . S
C785 C783 1.419 . S
C785 C786 1.362 . S
C786 H778 0.930 . S
C786 C785 1.362 . S
C786 C789 1.409 . S
C787 H779 0.930 . S
C787 C788 1.355 . S
C787 C789 1.415 . S
C788 C787 1.355 . S
C788 C790 1.419 1_565 S
C789 C784 1.425 . S
C789 C786 1.409 . S
C789 C787 1.415 . S
C790 H780 0.930 . S
C790 C788 1.419 1_545 S
C790 C791 1.362 . S
C791 H781 0.930 . S
C791 C784 1.409 1_545 S
C791 C790 1.362 . S
H792 C798 0.930 . S
H793 C801 0.930 . S
H794 C802 0.930 . S
H795 C803 0.930 . S
H796 C806 0.930 . S
H797 C807 0.930 . S
C798 H792 0.930 . S
C798 C799 1.355 . S
C798 C800 1.415 . S
C799 C798 1.355 . S
C799 C801 1.419 . S
C800 C798 1.415 . S
C800 C805 1.425 . S
C800 C807 1.409 . S
C801 H793 0.930 . S
C801 C799 1.419 . S
C801 C802 1.362 . S
C802 H794 0.930 . S
C802 C801 1.362 . S
C802 C805 1.409 . S
C803 H795 0.930 . S
C803 C804 1.355 . S
C803 C805 1.415 . S
C804 C803 1.355 . S
C804 C806 1.419 . S
C805 C800 1.425 . S
C805 C802 1.409 . S
C805 C803 1.415 . S
C806 H796 0.930 . S
C806 C804 1.419 . S
C806 C807 1.362 . S
C807 H797 0.930 . S
C807 C800 1.409 . S
C807 C806 1.362 . S
H808 C814 0.930 . S
H809 C817 0.930 . S
H810 C818 0.930 . S
H811 C819 0.930 . S
H812 C822 0.930 . S
H813 C823 0.930 . S
C814 H808 0.930 . S
C814 C815 1.355 . S
C814 C816 1.415 . S
C815 C814 1.355 . S
C815 C817 1.419 . S
C816 C814 1.415 . S
C816 C821 1.425 . S
C816 C823 1.409 . S
C817 H809 0.930 . S
C817 C815 1.419 . S
C817 C818 1.362 . S
C818 H810 0.930 . S
C818 C817 1.362 . S
C818 C821 1.409 . S
C819 H811 0.930 . S
C819 C820 1.355 . S
C819 C821 1.415 . S
C820 C819 1.355 . S
C820 C822 1.419 . S
C821 C816 1.425 . S
C821 C818 1.409 . S
C821 C819 1.415 . S
C822 H812 0.930 . S
C822 C820 1.419 . S
C822 C823 1.362 . S
C823 H813 0.930 . S
C823 C816 1.409 . S
C823 C822 1.362 . S
C447 N80 1.936 . S
C452 C179 1.945 . S
C468 C263 2.003 . S
C463 N93 1.982 . S
C484 C339 1.986 . S
C479 N54 2.054 . S
C500 C423 1.898 . S
C495 N67 1.988 . S
C516 C170 1.995 1_565 S
C511 N28 1.979 . S
C527 N41 1.922 . S
C532 C254 1.963 . S
C543 N2 2.068 . S
C548 C328 1.989 . S
C559 N15 2.056 . S
C564 C412 1.977 . S
C580 C167 0.665 . S
C575 N70 0.732 . S
C596 C251 0.708 1_545 S
C591 N83 0.594 . S
C612 C344 0.652 . S
C607 N96 0.712 . S
C623 N57 0.741 . S
C628 C428 0.623 . S
C639 N18 0.760 . S
C644 C176 0.628 . S
C660 C260 0.667 . S
C655 N31 0.661 . S
C676 C335 0.588 . S
C671 N44 0.644 . S
C687 N5 0.612 . S
C692 C419 0.724 . S
C703 N66 2.120 . S
C708 C160 2.101 . S
C719 N79 2.143 . S
C724 C244 2.089 . S
C740 C338 2.087 . S
C735 N92 2.016 . S
C756 C422 2.118 . S
C751 N53 2.021 . S
C767 N14 2.171 . S
C772 C171 2.115 . S
C788 C255 2.024 . S
C783 N27 2.113 . S
C804 C347 2.097 . S
C799 N40 2.072 . S
C815 N1 2.070 . S
C820 C431 2.096 . S
