# Generated by pormake.
# Topology zzz, (3,6)-cn, num edge types: 1
# Building blocks:
#     Node 0, Type 0, BuildingBlock: BETDAH_clean_linker_0, # of connection points: 3
#     Node 1, Type 0, BuildingBlock: BETDAH_clean_linker_0, # of connection points: 3
#     Node 2, Type 0, BuildingBlock: BETDAH_clean_linker_0, # of connection points: 3
#     Node 3, Type 0, BuildingBlock: BETDAH_clean_linker_0, # of connection points: 3
#     Node 4, Type 0, BuildingBlock: BETDAH_clean_linker_0, # of connection points: 3
#     Node 5, Type 0, BuildingBlock: BETDAH_clean_linker_0, # of connection points: 3
#     Node 6, Type 0, BuildingBlock: BETDAH_clean_linker_0, # of connection points: 3
#     Node 7, Type 0, BuildingBlock: BETDAH_clean_linker_0, # of connection points: 3
#     Node 8, Type 1, BuildingBlock: LEVNOQ01_clean_sbu_1, # of connection points: 6
#     Node 9, Type 1, BuildingBlock: LEVNOQ01_clean_sbu_1, # of connection points: 6
#     Node 10, Type 1, BuildingBlock: LEVNOQ01_clean_sbu_1, # of connection points: 6
#     Node 11, Type 1, BuildingBlock: LEVNOQ01_clean_sbu_1, # of connection points: 6
#     Edge 12, Type (0, 1), BuildingBlock: XIVTED_clean_linker_0, # of connection points: 2
#     Edge 13, Type (0, 1), BuildingBlock: XIVTED_clean_linker_0, # of connection points: 2
#     Edge 14, Type (0, 1), BuildingBlock: XIVTED_clean_linker_0, # of connection points: 2
#     Edge 15, Type (0, 1), BuildingBlock: XIVTED_clean_linker_0, # of connection points: 2
#     Edge 16, Type (0, 1), BuildingBlock: XIVTED_clean_linker_0, # of connection points: 2
#     Edge 17, Type (0, 1), BuildingBlock: XIVTED_clean_linker_0, # of connection points: 2
#     Edge 18, Type (0, 1), BuildingBlock: XIVTED_clean_linker_0, # of connection points: 2
#     Edge 19, Type (0, 1), BuildingBlock: XIVTED_clean_linker_0, # of connection points: 2
#     Edge 20, Type (0, 1), BuildingBlock: XIVTED_clean_linker_0, # of connection points: 2
#     Edge 21, Type (0, 1), BuildingBlock: XIVTED_clean_linker_0, # of connection points: 2
#     Edge 22, Type (0, 1), BuildingBlock: XIVTED_clean_linker_0, # of connection points: 2
#     Edge 23, Type (0, 1), BuildingBlock: XIVTED_clean_linker_0, # of connection points: 2
#     Edge 24, Type (0, 1), BuildingBlock: XIVTED_clean_linker_0, # of connection points: 2
#     Edge 25, Type (0, 1), BuildingBlock: XIVTED_clean_linker_0, # of connection points: 2
#     Edge 26, Type (0, 1), BuildingBlock: XIVTED_clean_linker_0, # of connection points: 2
#     Edge 27, Type (0, 1), BuildingBlock: XIVTED_clean_linker_0, # of connection points: 2
#     Edge 28, Type (0, 1), BuildingBlock: XIVTED_clean_linker_0, # of connection points: 2
#     Edge 29, Type (0, 1), BuildingBlock: XIVTED_clean_linker_0, # of connection points: 2
#     Edge 30, Type (0, 1), BuildingBlock: XIVTED_clean_linker_0, # of connection points: 2
#     Edge 31, Type (0, 1), BuildingBlock: XIVTED_clean_linker_0, # of connection points: 2
#     Edge 32, Type (0, 1), BuildingBlock: XIVTED_clean_linker_0, # of connection points: 2
#     Edge 33, Type (0, 1), BuildingBlock: XIVTED_clean_linker_0, # of connection points: 2
#     Edge 34, Type (0, 1), BuildingBlock: XIVTED_clean_linker_0, # of connection points: 2
#     Edge 35, Type (0, 1), BuildingBlock: XIVTED_clean_linker_0, # of connection points: 2
# Relax obj value: 0.137
# Max RMSD: 0.181
# Mean RMSD: 0.107
data_MOF--net-zzz--node1-LEVNOQ01_clean_sbu_1--node2-BETDAH_clean_linker_0--edge1-XIVTED_clean_linker_0
_symmetry_space_group_name_H-M    P1
_symmetry_Int_Tables_number       1
_symmetry_cell_setting            triclinic
loop_
_symmetry_equiv_pos_as_xyz
'x, y, z'
_cell_length_a     51.105277
_cell_length_b     51.069029
_cell_length_c     16.319996
_cell_angle_alpha  90.044281
_cell_angle_beta   90.189417
_cell_angle_gamma 90.162548
loop_
_atom_site_label
_atom_site_type_symbol
_atom_site_fract_x
_atom_site_fract_y
_atom_site_fract_z
_atom_type_partial_charge
H0 H 0.83634 0.55354 0.18412 0.0
H1 H 0.76337 0.54627 0.05602 0.0
H2 H 0.76441 0.55755 0.3186 0.0
C3 C 0.81511 0.55436 0.1851 0.0
C4 C 0.80221 0.55661 0.25995 0.0
C5 C 0.80135 0.55034 0.11215 0.0
C6 C 0.77389 0.54978 0.11266 0.0
C7 C 0.76035 0.55325 0.18728 0.0
C8 C 0.7747 0.55609 0.26082 0.0
N9 N 0.73253 0.55318 0.1915 0.0
C10 C 0.71564 0.54982 0.12501 0.0
H11 H 0.94945 0.83308 0.17788 0.0
H12 H 0.95695 0.75991 0.05167 0.0
H13 H 0.94855 0.76142 0.315 0.0
C14 C 0.9489 0.81183 0.17948 0.0
C15 C 0.94796 0.79909 0.25499 0.0
C16 C 0.95247 0.79796 0.10662 0.0
C17 C 0.95368 0.77051 0.10817 0.0
C18 C 0.95126 0.75708 0.18347 0.0
C19 C 0.94899 0.77157 0.25674 0.0
N20 N 0.95202 0.72926 0.18853 0.0
C21 C 0.95542 0.71236 0.12229 0.0
H22 H 0.67769 0.95144 0.14546 0.0
H23 H 0.7526 0.96208 0.03353 0.0
H24 H 0.74433 0.96992 0.2957 0.0
C25 C 0.6986 0.9547 0.15187 0.0
C26 C 0.70875 0.96148 0.22854 0.0
C27 C 0.71392 0.95593 0.08133 0.0
C28 C 0.74089 0.96054 0.08848 0.0
C29 C 0.75229 0.96402 0.16681 0.0
C30 C 0.73596 0.96509 0.2365 0.0
N31 N 0.77968 0.96807 0.17728 0.0
C32 C 0.79787 0.96856 0.11374 0.0
H33 H 0.55309 0.6721 0.18497 0.0
H34 H 0.54593 0.74496 0.05694 0.0
H35 H 0.55637 0.74421 0.31996 0.0
C36 C 0.5538 0.69335 0.18608 0.0
C37 C 0.55578 0.70633 0.26108 0.0
C38 C 0.54995 0.70703 0.11306 0.0
C39 C 0.5493 0.7345 0.11366 0.0
C40 C 0.55249 0.74814 0.18846 0.0
C41 C 0.55513 0.73386 0.26208 0.0
N42 N 0.55234 0.776 0.19271 0.0
C43 C 0.54959 0.79284 0.12598 0.0
H44 H 0.17487 0.44914 0.22217 0.0
H45 H 0.24795 0.45639 0.34977 0.0
H46 H 0.24667 0.44532 0.08718 0.0
C47 C 0.1961 0.44824 0.22118 0.0
C48 C 0.20894 0.44615 0.1462 0.0
C49 C 0.20992 0.45226 0.29405 0.0
C50 C 0.23738 0.45284 0.29325 0.0
C51 C 0.25086 0.44936 0.21854 0.0
C52 C 0.23645 0.44664 0.14509 0.0
N53 N 0.27868 0.44938 0.21414 0.0
C54 C 0.29563 0.45255 0.28059 0.0
H55 H 0.05993 0.17207 0.25622 0.0
H56 H 0.05322 0.24787 0.36626 0.0
H57 H 0.04536 0.23897 0.10401 0.0
C58 C 0.05787 0.19312 0.24934 0.0
C59 C 0.05187 0.20333 0.17229 0.0
C60 C 0.05744 0.20876 0.31946 0.0
C61 C 0.05414 0.2359 0.31161 0.0
C62 C 0.05128 0.24714 0.23292 0.0
C63 C 0.04964 0.23063 0.16356 0.0
N64 N 0.04845 0.27464 0.22168 0.0
C65 C 0.04753 0.29295 0.28504 0.0
H66 H 0.33592 0.05419 0.21966 0.0
H67 H 0.26292 0.04634 0.34545 0.0
H68 H 0.26418 0.05503 0.08208 0.0
C69 C 0.31468 0.05461 0.21782 0.0
C70 C 0.3019 0.05567 0.14222 0.0
C71 C 0.30086 0.05097 0.29058 0.0
C72 C 0.27344 0.04966 0.28895 0.0
C73 C 0.25997 0.05205 0.21361 0.0
C74 C 0.27439 0.05449 0.14035 0.0
N75 N 0.23215 0.05117 0.20862 0.0
C76 C 0.21537 0.04799 0.27514 0.0
H77 H 0.45673 0.3307 0.22238 0.0
H78 H 0.46597 0.2578 0.34894 0.0
H79 H 0.45493 0.25878 0.0862 0.0
C80 C 0.45648 0.30943 0.22096 0.0
C81 C 0.45471 0.29655 0.14576 0.0
C82 C 0.46087 0.29571 0.29362 0.0
C83 C 0.46215 0.26827 0.29251 0.0
C84 C 0.4591 0.25469 0.21757 0.0
C85 C 0.456 0.26904 0.14425 0.0
N86 N 0.45989 0.22686 0.21287 0.0
C87 C 0.46296 0.20998 0.27937 0.0
O88 O 0.0404 0.96329 0.86328 0.0
Mg89 Mg 0.05031 0.96477 0.73841 0.0
O90 O 0.00319 0.97071 0.80226 0.0
Mg91 Mg 0.00901 0.00126 0.69769 0.0
O92 O 0.05493 -0.00065 0.67811 0.0
O93 O 0.08828 0.97301 0.71261 0.0
O94 O 0.0156 0.03199 0.59389 0.0
O95 O 0.01576 0.03579 0.78925 0.0
Mg96 Mg 0.97054 0.03715 0.65327 0.0
O97 O 0.96282 0.00349 0.71754 0.0
O98 O 0.9793 0.03826 0.52735 0.0
O99 O -0.00905 0.06517 0.72625 0.0
O100 O 0.93209 0.0323 0.67804 0.0
C101 C 0.01172 0.94309 0.61123 0.0
C102 C 0.01594 0.95999 0.86028 0.0
C103 C 0.07987 -0.00615 0.67656 0.0
C104 C 0.00351 0.04265 0.53447 0.0
C105 C 0.00786 0.05939 0.78041 0.0
C106 C 0.93841 0.01106 0.716 0.0
O107 O 0.03025 0.93793 0.66079 0.0
O108 O 0.00201 0.96619 0.60728 0.0
O109 O 0.44305 0.97996 0.73795 0.0
Mg110 Mg 0.4709 0.96071 0.66298 0.0
O111 O 0.47126 0.00802 0.7927 0.0
Mg112 Mg 0.50583 0.00101 0.70104 0.0
O113 O 0.50518 0.95473 0.72449 0.0
O114 O 0.47714 0.9226 0.68909 0.0
O115 O 0.54 -0.00553 0.60851 0.0
O116 O 0.537 -0.00444 0.80464 0.0
Mg117 Mg 0.54093 0.04025 0.74157 0.0
O118 O 0.50701 0.04724 0.67782 0.0
O119 O 0.5692 0.02019 0.66941 0.0
O120 O 0.54233 0.03255 0.86822 0.0
O121 O 0.5358 0.07853 0.71456 0.0
C122 C 0.46439 -0.0071 0.53912 0.0
C123 C 0.44812 -0.00165 0.78805 0.0
C124 C 0.49843 0.93001 0.72512 0.0
C125 C 0.5635 0.00293 0.61615 0.0
C126 C 0.54727 0.00841 0.86331 0.0
C127 C 0.51443 0.07176 0.67779 0.0
O128 O 0.4685 0.96857 0.5367 0.0
O129 O 0.4748 0.00608 0.59686 0.0
O130 O 0.52776 0.43893 0.73717 0.0
Mg131 Mg 0.54631 0.46844 0.6665 0.0
O132 O 0.49875 0.46569 0.79233 0.0
Mg133 Mg 0.50544 0.50123 0.70348 0.0
O134 O 0.55164 0.50236 0.73099 0.0
O135 O 0.58409 0.47489 0.69578 0.0
O136 O 0.51222 0.53662 0.61451 0.0
O137 O 0.5086 0.53165 0.81043 0.0
Mg138 Mg 0.46425 0.53454 0.73877 0.0
O139 O 0.45931 0.50022 0.67594 0.0
O140 O 0.48305 0.56374 0.6672 0.0
O141 O 0.47037 0.53668 0.86608 0.0
O142 O 0.42657 0.52759 0.70912 0.0
C143 C 0.51606 0.46138 0.53923 0.0
C144 C 0.50905 0.44292 0.78658 0.0
C145 C 0.5764 0.4959 0.73237 0.0
C146 C 0.50196 0.55944 0.61878 0.0
C147 C 0.49458 0.54147 0.86686 0.0
C148 C 0.43451 0.50647 0.67372 0.0
O149 O 0.5402 0.46653 0.53908 0.0
O150 O 0.50216 0.47088 0.59646 0.0
O151 O 0.9707 0.47006 0.86771 0.0
Mg152 Mg 0.9721 0.46323 0.74074 0.0
O153 O 0.97607 0.50806 0.81021 0.0
Mg154 Mg 0.00639 0.50423 0.70363 0.0
O155 O 0.00619 0.45813 0.67789 0.0
O156 O 0.97873 0.42541 0.71189 0.0
O157 O 0.03659 0.50047 0.59719 0.0
O158 O 0.0418 0.49713 0.79274 0.0
Mg159 Mg 0.04133 0.54575 0.66783 0.0
O160 O 0.00666 0.5503 0.72818 0.0
O161 O 0.04414 0.53842 0.54136 0.0
O162 O 0.06938 0.52649 0.74228 0.0
O163 O 0.03379 0.58347 0.69619 0.0
C164 C 0.94808 0.50135 0.61937 0.0
C165 C 0.96617 0.49431 0.8673 0.0
C166 C -0.00022 0.43333 0.67608 0.0
C167 C 0.04743 0.51395 0.54116 0.0
C168 C 0.06471 0.50736 0.78979 0.0
C169 C 0.01261 0.57521 0.73057 0.0
O170 O 0.94344 0.4826 0.66838 0.0
O171 O 0.97108 0.51125 0.61463 0.0
H172 H 0.22377 0.03393 0.43338 0.0
H173 H 0.07067 0.01894 0.53092 0.0
H174 H 0.16305 0.05336 0.26043 0.0
H175 H 0.13201 0.0009 0.7034 0.0
H176 H 0.10366 0.03641 0.43637 0.0
H177 H 0.19023 0.02556 0.53754 0.0
C178 C 0.20334 0.0366 0.41775 0.0
C179 C 0.19601 0.04426 0.33871 0.0
C180 C 0.10988 0.02906 0.49551 0.0
C181 C 0.15751 0.03466 0.45679 0.0
C182 C 0.09098 0.01951 0.54999 0.0
C183 C 0.09856 0.00889 0.6256 0.0
C184 C 0.13659 0.0277 0.51655 0.0
C185 C 0.1253 0.00901 0.64578 0.0
C186 C 0.18418 0.03184 0.47705 0.0
C187 C 0.16935 0.04742 0.32104 0.0
N188 N 0.1433 0.01806 0.5915 0.0
N189 N 0.15103 0.04248 0.37947 0.0
H190 H 0.4519 0.15851 0.26577 0.0
H191 H 0.51268 0.12426 0.70616 0.0
H192 H 0.482 0.21633 0.43378 0.0
H193 H 0.48632 0.06541 0.53528 0.0
H194 H 0.4968 0.15828 0.6136 0.0
H195 H 0.45998 0.12434 0.36862 0.0
C196 C 0.46004 0.16396 0.32479 0.0
C197 C 0.46635 0.19011 0.34179 0.0
C198 C 0.49408 0.13795 0.59664 0.0
C199 C 0.47574 0.15131 0.45948 0.0
C200 C 0.50305 0.11848 0.64972 0.0
C201 C 0.50057 0.09191 0.62879 0.0
C202 C 0.48275 0.13092 0.52123 0.0
C203 C 0.48805 0.0856 0.55467 0.0
C204 C 0.46466 0.1445 0.38339 0.0
C205 C 0.47689 0.19631 0.41865 0.0
N206 N 0.47984 0.10496 0.50318 0.0
N207 N 0.48136 0.17703 0.4746 0.0
H208 H 0.28844 0.46778 0.43822 0.0
H209 H 0.44248 0.47871 0.5316 0.0
H210 H 0.34769 0.4457 0.26459 0.0
H211 H 0.38228 0.50172 0.70111 0.0
H212 H 0.40853 0.46133 0.43923 0.0
H213 H 0.32275 0.476 0.54075 0.0
C214 C 0.30871 0.4645 0.42213 0.0
C215 C 0.31541 0.45615 0.34335 0.0
C216 C 0.40278 0.46979 0.49728 0.0
C217 C 0.35479 0.46557 0.45953 0.0
C218 C 0.4222 0.47934 0.55048 0.0
C219 C 0.41522 0.49145 0.62437 0.0
C220 C 0.37619 0.4725 0.51813 0.0
C221 C 0.38855 0.49258 0.64461 0.0
C222 C 0.32832 0.46918 0.48047 0.0
C223 C 0.34188 0.45219 0.32503 0.0
N224 N 0.37007 0.48345 0.59169 0.0
N225 N 0.36066 0.45707 0.38253 0.0
H226 H 0.03591 0.28663 0.44554 0.0
H227 H 0.02496 0.44097 0.52971 0.0
H228 H 0.05416 0.34505 0.2642 0.0
H229 H 0.00607 0.38147 0.70712 0.0
H230 H 0.04142 0.40679 0.43737 0.0
H231 H 0.02973 0.32144 0.54716 0.0
C232 C 0.03884 0.30684 0.42756 0.0
C233 C 0.04551 0.31315 0.34692 0.0
C234 C 0.03412 0.40125 0.49713 0.0
C235 C 0.0383 0.35311 0.46207 0.0
C236 C 0.02513 0.42082 0.55028 0.0
C237 C 0.01445 0.41407 0.62647 0.0
C238 C 0.03222 0.37476 0.52031 0.0
C239 C 0.01415 0.38753 0.64887 0.0
C240 C 0.03531 0.32673 0.48539 0.0
C241 C 0.04899 0.33954 0.32615 0.0
N242 N 0.02268 0.36889 0.59594 0.0
N243 N 0.0452 0.35862 0.38325 0.0
H244 H 0.84911 0.957 0.13268 0.0
H245 H 0.88614 0.00898 0.68457 0.0
H246 H 0.79261 0.98382 0.95556 0.0
H247 H 0.94386 0.98459 0.86157 0.0
H248 H 0.85155 -0.00525 0.77735 0.0
H249 H 0.88385 0.96233 0.03014 0.0
C250 C 0.84407 0.96379 0.07176 0.0
C251 C 0.81813 0.97002 0.05204 0.0
C252 C 0.87175 -0.00793 0.79565 0.0
C253 C 0.85756 0.97628 0.93477 0.0
C254 C 0.89154 9e-05 0.74244 0.0
C255 C 0.91796 -0.00225 0.76508 0.0
C256 C 0.87829 0.98189 0.87295 0.0
C257 C 0.92378 0.98622 0.84098 0.0
C258 C 0.86385 0.96685 0.01334 0.0
C259 C 0.81246 0.97881 0.9728 0.0
N260 N 0.90412 0.97898 0.89262 0.0
N261 N 0.83203 0.9818 0.91714 0.0
H262 H 0.55979 0.84447 0.14064 0.0
H263 H 0.50203 0.87772 0.6958 0.0
H264 H 0.53215 0.78624 0.96988 0.0
H265 H 0.52601 0.93706 0.86844 0.0
H266 H 0.51813 0.84403 0.78904 0.0
H267 H 0.5522 0.87853 0.03707 0.0
C268 C 0.5523 0.83891 0.08088 0.0
C269 C 0.54652 0.81267 0.0633 0.0
C270 C 0.5203 0.8644 0.80626 0.0
C271 C 0.53772 0.85135 0.94479 0.0
C272 C 0.51122 0.88369 0.75278 0.0
C273 C 0.51288 0.91029 0.77409 0.0
C274 C 0.5309 0.87163 0.8825 0.0
C275 C 0.52485 0.91685 0.84887 0.0
C276 C 0.54797 0.85831 0.02186 0.0
C277 C 0.53683 0.80633 -0.01451 0.0
N278 N 0.53315 0.89764 0.90082 0.0
N279 N 0.53263 0.82555 0.92916 0.0
H280 H 0.72276 0.53221 0.96985 0.0
H281 H 0.56878 0.52443 0.87331 0.0
H282 H 0.66379 0.55858 0.13847 0.0
H283 H 0.62881 0.49926 0.70623 0.0
H284 H 0.6029 0.54162 0.96537 0.0
H285 H 0.68849 0.5237 0.86742 0.0
C286 C 0.70256 0.53637 -0.01518 0.0
C287 C 0.69592 0.54604 0.06217 0.0
C288 C 0.60858 0.5327 0.90793 0.0
C289 C 0.65658 0.53629 0.94615 0.0
C290 C 0.58906 0.52324 0.8549 0.0
C291 C 0.59593 0.51059 0.78178 0.0
C292 C 0.63514 0.52935 0.88771 0.0
C293 C 0.62261 0.5088 0.76214 0.0
C294 C 0.68298 0.53154 0.92654 0.0
C295 C 0.66955 0.55108 0.07913 0.0
N296 N 0.64117 0.51786 0.8149 0.0
N297 N 0.65078 0.54603 0.02175 0.0
H298 H 0.97231 0.72021 0.96687 0.0
H299 H 0.98402 0.56655 0.87033 0.0
H300 H 0.94796 0.6602 0.13567 0.0
H301 H 0.00787 0.62753 0.70398 0.0
H302 H 0.9658 0.60004 0.96188 0.0
H303 H 0.98142 0.68632 0.86424 0.0
C304 C 0.96871 0.69985 -0.01816 0.0
C305 C 0.95945 0.69282 0.05931 0.0
C306 C 0.97463 0.60606 0.90468 0.0
C307 C 0.9699 0.65391 0.94304 0.0
C308 C 0.98467 0.58689 0.85191 0.0
C309 C -0.00276 0.59423 0.77917 0.0
C310 C 0.97736 0.63275 0.88461 0.0
C311 C -0.00161 0.62099 0.75958 0.0
C312 C 0.97389 0.68049 0.92343 0.0
C313 C 0.95513 0.66626 0.07625 0.0
N314 N 0.9888 0.63922 0.81212 0.0
N315 N 0.96052 0.64772 0.01875 0.0
H316 H 0.01256 0.20434 0.40423 0.0
H317 H 0.05352 0.06146 0.55074 0.0
H318 H 0.09266 0.17848 0.40249 0.0
H319 H 0.97778 0.08172 0.45188 0.0
H320 H 0.06833 0.10627 0.52673 0.0
H321 H -0.00032 0.16277 0.46641 0.0
C322 C 0.02767 0.19055 0.42164 0.0
C323 C 0.05364 0.19459 0.39714 0.0
C324 C 0.04855 0.10078 0.50978 0.0
C325 C 0.03899 0.14677 0.46488 0.0
C326 C 0.04019 0.07504 0.52187 0.0
C327 C 0.01444 0.06749 0.50206 0.0
C328 C 0.0309 0.11931 0.47915 0.0
C329 C -0.00213 0.0864 0.46728 0.0
C330 C 0.02021 0.16653 0.4549 0.0
C331 C 0.07241 0.17596 0.42025 0.0
N332 N 0.00632 0.11147 0.45768 0.0
N333 N 0.06464 0.15245 0.45082 0.0
H334 H 0.30724 0.00291 0.35614 0.0
H335 H 0.44581 0.04306 0.54567 0.0
H336 H 0.33242 0.08309 0.38001 0.0
H337 H 0.42774 0.9666 0.44717 0.0
H338 H 0.40217 0.05783 0.50681 0.0
H339 H 0.34775 0.98872 0.42289 0.0
C340 C 0.3207 0.01757 0.3795 0.0
C341 C 0.31659 0.04416 0.36307 0.0
C342 C 0.40787 0.03789 0.49313 0.0
C343 C 0.36331 0.02818 0.43546 0.0
C344 C 0.43298 0.02954 0.51398 0.0
C345 C 0.44071 0.00359 0.49892 0.0
C346 C 0.39017 0.02009 0.45793 0.0
C347 C 0.42282 0.98682 0.45949 0.0
C348 C 0.34409 0.00947 0.41563 0.0
C349 C 0.3349 0.06241 0.39246 0.0
N350 N 0.39832 -0.0047 0.44104 0.0
N351 N 0.35776 0.05407 0.426 0.0
H352 H 0.42861 0.32441 0.39005 0.0
H353 H 0.54386 0.4275 0.44238 0.0
H354 H 0.50961 0.30574 0.34938 0.0
H355 H 0.46721 0.4394 0.54633 0.0
H356 H 0.53081 0.38316 0.40353 0.0
H357 H 0.44194 0.36562 0.45471 0.0
C358 C 0.44926 0.32842 0.39884 0.0
C359 C 0.46809 0.31168 0.36525 0.0
C360 C 0.5168 0.39557 0.43445 0.0
C361 C 0.48344 0.35931 0.43387 0.0
C362 C 0.52409 0.42108 0.4554 0.0
C363 C 0.50658 0.4374 0.49736 0.0
C364 C 0.49174 0.38633 0.45489 0.0
C365 C 0.48129 0.42775 0.51323 0.0
C366 C 0.45687 0.35217 0.434 0.0
C367 C 0.49458 0.31804 0.37565 0.0
N368 N 0.47467 0.40286 0.49221 0.0
N369 N 0.50149 0.34169 0.40727 0.0
H370 H 0.20381 0.50109 0.35436 0.0
H371 H 0.06522 0.46348 0.5463 0.0
H372 H 0.17806 0.42141 0.38587 0.0
H373 H 0.08419 0.53975 0.44884 0.0
H374 H 0.10842 0.44804 0.50663 0.0
H375 H 0.16349 0.51629 0.41933 0.0
C376 C 0.19026 0.48679 0.379 0.0
C377 C 0.19421 0.46 0.36542 0.0
C378 C 0.10303 0.46808 0.49327 0.0
C379 C 0.14765 0.47711 0.43574 0.0
C380 C 0.07813 0.47682 0.51455 0.0
C381 C 0.07078 0.50292 0.50011 0.0
C382 C 0.12092 0.48562 0.45817 0.0
C383 C 0.08882 0.51943 0.46072 0.0
C384 C 0.16697 0.49545 0.41412 0.0
C385 C 0.17575 0.44222 0.39624 0.0
N386 N 0.11312 0.51057 0.4418 0.0
N387 N 0.153 0.45109 0.42877 0.0
H388 H 0.00051 0.80305 0.04017 0.0
H389 H 0.96506 0.94306 0.85392 0.0
H390 H 0.92126 0.83069 0.01867 0.0
H391 H 0.04087 0.92251 0.95184 0.0
H392 H 0.94873 0.89984 0.89224 0.0
H393 H 0.01592 0.84321 0.97407 0.0
C394 C 0.98627 0.81699 0.0175 0.0
C395 C 0.95962 0.81365 0.03446 0.0
C396 C 0.96887 0.90491 0.90587 0.0
C397 C 0.97704 0.85999 0.96275 0.0
C398 C 0.97813 0.92977 0.88529 0.0
C399 C 0.00436 0.93667 0.90029 0.0
C400 C 0.98604 0.88664 0.94071 0.0
C401 C 0.02047 0.91825 0.93949 0.0
C402 C -0.00491 0.84018 0.98173 0.0
C403 C 0.94196 0.83256 0.00586 0.0
N404 N 0.01111 0.89401 0.95762 0.0
N405 N 0.95102 0.85521 0.97265 0.0
H406 H 0.68425 0.91985 -0.00089 0.0
H407 H 0.58493 0.03574 0.94787 0.0
H408 H 0.70784 0.00082 -0.00285 0.0
H409 H 0.56736 0.95884 0.85174 0.0
H410 H 0.62989 0.02184 0.97244 0.0
H411 H 0.64241 0.93218 0.93696 0.0
C412 C 0.68122 0.94002 0.98093 0.0
C413 C 0.69931 0.95942 0.00414 0.0
C414 C 0.61613 0.00798 0.94621 0.0
C415 C 0.65117 0.97382 0.93804 0.0
C416 C 0.59028 0.01574 0.93368 0.0
C417 C 0.57214 -0.00159 0.89807 0.0
C418 C 0.62392 0.98259 0.92411 0.0
C419 C 0.58049 0.97281 0.88016 0.0
C420 C 0.65709 0.94715 0.9474 0.0
C421 C 0.69433 0.98531 0.98048 0.0
N422 N 0.60576 0.96566 0.89336 0.0
N423 N 0.67032 -0.00806 0.95147 0.0
H424 H 0.58233 0.67821 0.01741 0.0
H425 H 0.46693 0.57539 0.96394 0.0
H426 H 0.5013 0.69712 0.05637 0.0
H427 H 0.54351 0.56335 0.85961 0.0
H428 H 0.4801 0.61967 0.00294 0.0
H429 H 0.56901 0.63701 0.95262 0.0
C430 C 0.56168 0.67426 0.00821 0.0
C431 C 0.54283 0.69107 0.04132 0.0
C432 C 0.49407 0.60725 0.9719 0.0
C433 C 0.52749 0.64344 0.97256 0.0
C434 C 0.48671 0.58177 0.95085 0.0
C435 C 0.50416 0.56543 0.90874 0.0
C436 C 0.51914 0.61644 0.95143 0.0
C437 C 0.52947 0.57502 0.89283 0.0
C438 C 0.55408 0.65051 0.97297 0.0
C439 C 0.51635 0.68477 0.03044 0.0
N440 N 0.53616 0.59989 0.91397 0.0
N441 N 0.50944 0.66113 -0.00124 0.0
H442 H 0.83005 0.58243 0.01475 0.0
H443 H 0.9327 0.46739 0.96812 0.0
H444 H 0.81111 0.50145 0.05796 0.0
H445 H 0.94404 0.54296 0.85487 0.0
H446 H 0.88858 0.48062 0.00692 0.0
H447 H 0.87105 0.56898 0.95012 0.0
C448 C 0.83394 0.56175 0.00654 0.0
C449 C 0.81717 0.54297 0.04073 0.0
C450 C 0.90081 0.49435 0.97397 0.0
C451 C 0.86458 0.52749 0.9722 0.0
C452 C 0.9262 0.48697 0.95299 0.0
C453 C 0.94232 0.50412 0.90854 0.0
C454 C 0.89148 0.51915 0.95111 0.0
C455 C 0.93258 0.52918 0.89007 0.0
C456 C 0.85758 0.55407 0.97137 0.0
C457 C 0.82341 0.51644 0.03115 0.0
N458 N 0.90781 0.53591 0.91126 0.0
N459 N 0.84695 0.50948 -0.00045 0.0
H460 H 0.01973 0.16134 0.18739 0.0
H461 H 0.01675 0.11003 0.73666 0.0
H462 H 0.06651 0.20213 0.00816 0.0
H463 H 0.02172 0.05735 0.94257 0.0
H464 H 0.02897 0.1466 0.82706 0.0
H465 H 0.01244 0.12613 0.08978 0.0
C466 C 0.02852 0.16291 0.12724 0.0
C467 C 0.04447 0.18441 0.10675 0.0
C468 C 0.02768 0.12698 0.85196 0.0
C469 C 0.03545 0.14421 -0.0062 0.0
C470 C 0.02062 0.10616 0.80085 0.0
C471 C 0.01806 0.08071 0.83267 0.0
C472 C 0.03143 0.12235 0.93568 0.0
C473 C 0.02349 0.07667 0.91579 0.0
C474 C 0.02435 0.14273 0.07177 0.0
C475 C 0.05435 0.1858 0.02669 0.0
N476 N 0.02946 0.09739 0.96485 0.0
N477 N 0.04969 0.16585 0.97271 0.0
H478 H 0.29781 0.02048 0.01663 0.0
H479 H 0.4474 0.04214 0.88803 0.0
H480 H 0.34457 0.08543 0.10196 0.0
H481 H 0.39812 0.9798 0.79607 0.0
H482 H 0.40933 0.06044 0.95934 0.0
H483 H 0.33282 0.00868 0.92179 0.0
C484 C 0.31506 0.03281 0.0133 0.0
C485 C 0.31836 0.05385 0.06757 0.0
C486 C 0.40691 0.04279 0.92326 0.0
C487 C 0.35902 0.03989 0.96169 0.0
C488 C 0.42869 0.03222 0.88315 0.0
C489 C 0.4261 0.00928 0.83636 0.0
C490 C 0.38238 0.0303 0.91655 0.0
C491 C 0.40123 -0.00254 0.83157 0.0
C492 C 0.33527 0.02583 0.96011 0.0
C493 C 0.34136 0.06892 0.06148 0.0
N494 N 0.38047 0.00804 0.87115 0.0
N495 N 0.361 0.06138 0.01073 0.0
H496 H 0.42325 0.33788 0.1062 0.0
H497 H 0.52829 0.39318 0.78882 0.0
H498 H 0.4894 0.29388 0.01911 0.0
H499 H 0.46602 0.44024 0.88909 0.0
H500 H 0.51089 0.35517 0.85957 0.0
H501 H 0.43414 0.37306 0.0103 0.0
C502 C 0.43958 0.33529 0.06482 0.0
C503 C 0.45554 0.31298 0.0708 0.0
C504 C 0.50094 0.37375 0.86618 0.0
C505 C 0.46853 0.35345 0.96248 0.0
C506 C 0.51095 0.39562 0.826 0.0
C507 C 0.49875 0.42017 0.83337 0.0
C508 C 0.47848 0.37618 0.91462 0.0
C509 C 0.47623 0.42183 0.88215 0.0
C510 C 0.44597 0.35551 0.01084 0.0
C511 C 0.4765 0.31063 0.01617 0.0
N512 N 0.46687 0.40014 0.92114 0.0
N513 N 0.48263 0.33081 0.96522 0.0
H514 H 0.16654 0.41614 0.10477 0.0
H515 H 0.11473 0.52594 0.79745 0.0
H516 H 0.21301 0.48131 0.02106 0.0
H517 H 0.06604 0.46301 0.88723 0.0
H518 H 0.15211 0.50681 0.8669 0.0
H519 H 0.13174 0.42879 0.00939 0.0
C520 C 0.16974 0.4326 0.06416 0.0
C521 C 0.19263 0.44779 0.071 0.0
C522 C 0.13331 0.49709 0.87151 0.0
C523 C 0.15263 0.46282 0.96349 0.0
C524 C 0.11179 0.50811 0.83213 0.0
C525 C 0.08698 0.49622 0.83685 0.0
C526 C 0.13025 0.47393 0.91657 0.0
C527 C 0.08467 0.47302 0.88245 0.0
C528 C 0.14975 0.44001 0.0105 0.0
C529 C 0.19577 0.46898 0.01743 0.0
N530 N 0.10602 0.46268 0.92077 0.0
N531 N 0.17581 0.47613 0.9669 0.0
H532 H 0.91854 0.84157 0.29811 0.0
H533 H 0.03049 0.89331 0.60007 0.0
H534 H 0.98431 0.79529 0.37723 0.0
H535 H 0.96714 0.94203 0.51431 0.0
H536 H 0.01106 0.8561 0.52997 0.0
H537 H 0.93212 0.87643 0.39227 0.0
C538 C 0.93537 0.83843 0.3374 0.0
C539 C 0.95042 0.81556 0.32962 0.0
C540 C 0.00132 0.87487 0.52634 0.0
C541 C 0.96646 0.85562 0.43582 0.0
C542 C 0.0125 0.89629 0.56611 0.0
C543 C 0.00055 0.92105 0.56286 0.0
C544 C 0.97792 0.87796 0.4824 0.0
C545 C 0.97718 0.92343 0.51797 0.0
C546 C 0.94329 0.85845 0.39038 0.0
C547 C 0.97207 0.8125 0.38161 0.0
N548 N 0.96665 0.90216 0.47935 0.0
N549 N 0.97968 0.83248 0.43152 0.0
H550 H 0.70981 0.94857 0.39432 0.0
H551 H 0.5604 0.98658 0.45642 0.0
H552 H 0.66427 0.99 0.21293 0.0
H553 H 0.61494 -0.00286 0.65615 0.0
H554 H 0.59721 0.9753 0.36667 0.0
H555 H 0.67432 0.95623 0.49438 0.0
C556 C 0.69254 0.95929 0.37566 0.0
C557 C 0.68974 0.96801 0.29452 0.0
C558 C 0.60099 0.97985 0.43047 0.0
C559 C 0.6492 0.97602 0.40676 0.0
C560 C 0.58004 0.98612 0.48156 0.0
C561 C 0.58473 -0.0069 0.56326 0.0
C562 C 0.62666 0.97998 0.4619 0.0
C563 C 0.61061 -0.00777 0.59297 0.0
C564 C 0.67231 0.96347 0.43234 0.0
C565 C 0.66696 0.98202 0.27383 0.0
N566 N 0.63067 0.98579 0.5423 0.0
N567 N 0.64749 0.98519 0.32894 0.0
H568 H 0.52157 0.7103 0.38879 0.0
H569 H 0.54534 0.56106 0.51807 0.0
H570 H 0.58614 0.66419 0.30063 0.0
H571 H 0.48332 0.60944 0.61361 0.0
H572 H 0.56294 0.59947 0.44635 0.0
H573 H 0.51082 0.67531 0.48553 0.0
C574 C 0.53406 0.69321 0.3919 0.0
C575 C 0.55467 0.69006 0.33638 0.0
C576 C 0.54553 0.60164 0.48335 0.0
C577 C 0.54192 0.64945 0.44444 0.0
C578 C 0.53537 0.57966 0.52377 0.0
C579 C 0.51268 0.58188 0.57148 0.0
C580 C 0.53289 0.626 0.49062 0.0
C581 C 0.50077 0.60662 0.57724 0.0
C582 C 0.52768 0.67301 0.4462 0.0
C583 C 0.56996 0.66728 0.34216 0.0
N584 N 0.51094 0.62758 0.53723 0.0
N585 N 0.56301 0.64766 0.39403 0.0
H586 H 0.79758 0.52287 0.38893 0.0
H587 H 0.94729 0.54453 0.51742 0.0
H588 H 0.84493 0.58654 0.29877 0.0
H589 H 0.89769 0.48357 0.61512 0.0
H590 H 0.90921 0.56266 0.44538 0.0
H591 H 0.83235 0.51189 0.48633 0.0
C592 C 0.8149 0.53512 0.39171 0.0
C593 C 0.81846 0.55551 0.33542 0.0
C594 C 0.9067 0.54537 0.48293 0.0
C595 C 0.85881 0.54248 0.44425 0.0
C596 C 0.92849 0.53491 0.52353 0.0
C597 C 0.92583 0.51235 0.57192 0.0
C598 C 0.88209 0.53317 0.4907 0.0
C599 C 0.90084 0.50089 0.5782 0.0
C600 C 0.83497 0.52861 0.44641 0.0
C601 C 0.84153 0.57051 0.34086 0.0
N602 N 0.88007 0.51135 0.53799 0.0
N603 N 0.86102 0.56341 0.39311 0.0
loop_
_geom_bond_atom_site_label_1
_geom_bond_atom_site_label_2
_geom_bond_distance
_geom_bond_site_symmetry_2
_ccdc_geom_bond_type
H0 C3 0.929 . S
H1 C6 0.929 1_556 S
H2 C8 0.930 . S
C3 H0 0.929 . S
C3 C4 1.398 . S
C3 C5 1.396 . S
C4 C3 1.398 . S
C4 C8 1.407 . S
C5 C3 1.396 . S
C5 C6 1.394 . S
C6 H1 0.929 1_554 S
C6 C5 1.394 . S
C6 C7 1.382 . S
C7 C6 1.382 . S
C7 C8 1.392 . S
C7 N9 1.420 . S
C8 H2 0.930 . S
C8 C4 1.407 . S
C8 C7 1.392 . S
N9 C7 1.420 . S
N9 C10 1.244 . S
C10 N9 1.244 . S
H11 C14 0.929 . S
H12 C17 0.929 1_556 S
H13 C19 0.930 . S
C14 H11 0.929 . S
C14 C15 1.398 . S
C14 C16 1.396 . S
C15 C14 1.398 . S
C15 C19 1.407 . S
C16 C14 1.396 . S
C16 C17 1.394 . S
C17 H12 0.929 1_554 S
C17 C16 1.394 . S
C17 C18 1.382 . S
C18 C17 1.382 . S
C18 C19 1.392 . S
C18 N20 1.420 . S
C19 H13 0.930 . S
C19 C15 1.407 . S
C19 C18 1.392 . S
N20 C18 1.420 . S
N20 C21 1.244 . S
C21 N20 1.244 . S
H22 C25 0.929 . S
H23 C28 0.929 1_556 S
H24 C30 0.930 . S
C25 H22 0.929 . S
C25 C26 1.398 . S
C25 C27 1.396 . S
C26 C25 1.398 . S
C26 C30 1.407 . S
C27 C25 1.396 . S
C27 C28 1.394 . S
C28 H23 0.929 1_554 S
C28 C27 1.394 . S
C28 C29 1.382 . S
C29 C28 1.382 . S
C29 C30 1.392 . S
C29 N31 1.420 . S
C30 H24 0.930 . S
C30 C26 1.407 . S
C30 C29 1.392 . S
N31 C29 1.420 . S
N31 C32 1.244 . S
C32 N31 1.244 . S
H33 C36 0.929 . S
H34 C39 0.929 1_556 S
H35 C41 0.930 . S
C36 H33 0.929 . S
C36 C37 1.398 . S
C36 C38 1.396 . S
C37 C36 1.398 . S
C37 C41 1.407 . S
C38 C36 1.396 . S
C38 C39 1.394 . S
C39 H34 0.929 1_554 S
C39 C38 1.394 . S
C39 C40 1.382 . S
C40 C39 1.382 . S
C40 C41 1.392 . S
C40 N42 1.420 . S
C41 H35 0.930 . S
C41 C37 1.407 . S
C41 C40 1.392 . S
N42 C40 1.420 . S
N42 C43 1.244 . S
C43 N42 1.244 . S
H44 C47 0.929 . S
H45 C50 0.929 . S
H46 C52 0.930 . S
C47 H44 0.929 . S
C47 C48 1.398 . S
C47 C49 1.396 . S
C48 C47 1.398 . S
C48 C52 1.407 . S
C49 C47 1.396 . S
C49 C50 1.394 . S
C50 H45 0.929 . S
C50 C49 1.394 . S
C50 C51 1.382 . S
C51 C50 1.382 . S
C51 C52 1.392 . S
C51 N53 1.420 . S
C52 H46 0.930 . S
C52 C48 1.407 . S
C52 C51 1.392 . S
N53 C51 1.420 . S
N53 C54 1.244 . S
C54 N53 1.244 . S
H55 C58 0.929 . S
H56 C61 0.929 . S
H57 C63 0.930 . S
C58 H55 0.929 . S
C58 C59 1.398 . S
C58 C60 1.396 . S
C59 C58 1.398 . S
C59 C63 1.407 . S
C60 C58 1.396 . S
C60 C61 1.394 . S
C61 H56 0.929 . S
C61 C60 1.394 . S
C61 C62 1.382 . S
C62 C61 1.382 . S
C62 C63 1.392 . S
C62 N64 1.420 . S
C63 H57 0.930 . S
C63 C59 1.407 . S
C63 C62 1.392 . S
N64 C62 1.420 . S
N64 C65 1.244 . S
C65 N64 1.244 . S
H66 C69 0.929 . S
H67 C72 0.929 . S
H68 C74 0.930 . S
C69 H66 0.929 . S
C69 C70 1.398 . S
C69 C71 1.396 . S
C70 C69 1.398 . S
C70 C74 1.407 . S
C71 C69 1.396 . S
C71 C72 1.394 . S
C72 H67 0.929 . S
C72 C71 1.394 . S
C72 C73 1.382 . S
C73 C72 1.382 . S
C73 C74 1.392 . S
C73 N75 1.420 . S
C74 H68 0.930 . S
C74 C70 1.407 . S
C74 C73 1.392 . S
N75 C73 1.420 . S
N75 C76 1.244 . S
C76 N75 1.244 . S
H77 C80 0.929 . S
H78 C83 0.929 . S
H79 C85 0.930 . S
C80 H77 0.929 . S
C80 C81 1.398 . S
C80 C82 1.396 . S
C81 C80 1.398 . S
C81 C85 1.407 . S
C82 C80 1.396 . S
C82 C83 1.394 . S
C83 H78 0.929 . S
C83 C82 1.394 . S
C83 C84 1.382 . S
C84 C83 1.382 . S
C84 C85 1.392 . S
C84 N86 1.420 . S
C85 H79 0.930 . S
C85 C81 1.407 . S
C85 C84 1.392 . S
N86 C84 1.420 . S
N86 C87 1.244 . S
C87 N86 1.244 . S
O88 Mg89 1.990 . S
O88 C102 1.253 . S
Mg89 O88 1.990 . S
Mg89 O92 2.180 1_565 S
Mg89 O93 2.117 . S
Mg89 O107 2.030 . S
O90 Mg91 2.072 1_565 S
O90 C102 1.260 . S
Mg91 O90 2.072 1_545 S
Mg91 O92 2.099 . S
Mg91 O94 2.079 . S
Mg91 O95 2.072 . S
Mg91 O97 2.099 1_455 S
Mg91 O108 2.079 1_545 S
O92 Mg89 2.180 1_545 S
O92 Mg91 2.099 . S
O92 C103 1.279 . S
O93 Mg89 2.117 . S
O93 C103 1.250 1_565 S
O94 Mg91 2.079 . S
O94 C104 1.264 . S
O95 Mg91 2.072 . S
O95 C105 1.260 . S
Mg96 O97 2.180 . S
Mg96 O98 2.030 . S
Mg96 O99 1.957 1_655 S
Mg96 O100 2.117 . S
O97 Mg91 2.099 1_655 S
O97 Mg96 2.180 . S
O97 C106 1.279 . S
O98 Mg96 2.030 . S
O98 C104 1.248 1_655 S
O99 Mg96 1.957 1_455 S
O99 C105 1.295 . S
O100 Mg96 2.117 . S
O100 C106 1.250 . S
C101 O107 1.248 . S
C101 O108 1.264 . S
C102 O88 1.253 . S
C102 O90 1.260 . S
C103 O92 1.279 . S
C103 O93 1.250 1_545 S
C104 O94 1.264 . S
C104 O98 1.248 1_455 S
C105 O95 1.260 . S
C105 O99 1.295 . S
C106 O97 1.279 . S
C106 O100 1.250 . S
O107 Mg89 2.030 . S
O107 C101 1.248 . S
O108 Mg91 2.079 1_565 S
O108 C101 1.264 . S
O109 Mg110 1.990 . S
O109 C123 1.253 1_565 S
Mg110 O109 1.990 . S
Mg110 O113 2.180 . S
Mg110 O114 2.117 . S
Mg110 O128 2.030 . S
O111 Mg112 2.072 . S
O111 C123 1.260 . S
Mg112 O111 2.072 . S
Mg112 O113 2.099 1_545 S
Mg112 O115 2.079 1_545 S
Mg112 O116 2.072 . S
Mg112 O118 2.099 . S
Mg112 O129 2.079 . S
O113 Mg110 2.180 . S
O113 Mg112 2.099 1_565 S
O113 C124 1.279 . S
O114 Mg110 2.117 . S
O114 C124 1.250 . S
O115 Mg112 2.079 1_565 S
O115 C125 1.264 1_565 S
O116 Mg112 2.072 . S
O116 C126 1.260 . S
Mg117 O118 2.180 . S
Mg117 O119 2.030 . S
Mg117 O120 1.990 . S
Mg117 O121 2.117 . S
O118 Mg112 2.099 . S
O118 Mg117 2.180 . S
O118 C127 1.279 . S
O119 Mg117 2.030 . S
O119 C125 1.248 . S
O120 Mg117 1.990 . S
O120 C126 1.253 . S
O121 Mg117 2.117 . S
O121 C127 1.250 . S
C122 O128 1.248 1_545 S
C122 O129 1.264 . S
C123 O109 1.253 1_545 S
C123 O111 1.260 . S
C124 O113 1.279 . S
C124 O114 1.250 . S
C125 O115 1.264 1_545 S
C125 O119 1.248 . S
C126 O116 1.260 . S
C126 O120 1.253 . S
C127 O118 1.279 . S
C127 O121 1.250 . S
O128 Mg110 2.030 . S
O128 C122 1.248 1_565 S
O129 Mg112 2.079 . S
O129 C122 1.264 . S
O130 Mg131 1.990 . S
O130 C144 1.253 . S
Mg131 O130 1.990 . S
Mg131 O134 2.180 . S
Mg131 O135 2.117 . S
Mg131 O149 2.030 . S
O132 Mg133 2.072 . S
O132 C144 1.260 . S
Mg133 O132 2.072 . S
Mg133 O134 2.099 . S
Mg133 O136 2.079 . S
Mg133 O137 2.072 . S
Mg133 O139 2.099 . S
Mg133 O150 2.079 . S
O134 Mg131 2.180 . S
O134 Mg133 2.099 . S
O134 C145 1.279 . S
O135 Mg131 2.117 . S
O135 C145 1.250 . S
O136 Mg133 2.079 . S
O136 C146 1.264 . S
O137 Mg133 2.072 . S
O137 C147 1.260 . S
Mg138 O139 2.180 . S
Mg138 O140 2.030 . S
Mg138 O141 1.990 . S
Mg138 O142 2.117 . S
O139 Mg133 2.099 . S
O139 Mg138 2.180 . S
O139 C148 1.279 . S
O140 Mg138 2.030 . S
O140 C146 1.248 . S
O141 Mg138 1.990 . S
O141 C147 1.253 . S
O142 Mg138 2.117 . S
O142 C148 1.250 . S
C143 O149 1.248 . S
C143 O150 1.264 . S
C144 O130 1.253 . S
C144 O132 1.260 . S
C145 O134 1.279 . S
C145 O135 1.250 . S
C146 O136 1.264 . S
C146 O140 1.248 . S
C147 O137 1.260 . S
C147 O141 1.253 . S
C148 O139 1.279 . S
C148 O142 1.250 . S
O149 Mg131 2.030 . S
O149 C143 1.248 . S
O150 Mg133 2.079 . S
O150 C143 1.264 . S
O151 Mg152 1.990 . S
O151 C165 1.253 . S
Mg152 O151 1.990 . S
Mg152 O155 2.180 1_655 S
Mg152 O156 2.117 . S
Mg152 O170 2.030 . S
O153 Mg154 2.072 1_655 S
O153 C165 1.260 . S
Mg154 O153 2.072 1_455 S
Mg154 O155 2.099 . S
Mg154 O157 2.079 . S
Mg154 O158 2.072 . S
Mg154 O160 2.099 . S
Mg154 O171 2.079 1_455 S
O155 Mg152 2.180 1_455 S
O155 Mg154 2.099 . S
O155 C166 1.279 . S
O156 Mg152 2.117 . S
O156 C166 1.250 1_655 S
O157 Mg154 2.079 . S
O157 C167 1.264 . S
O158 Mg154 2.072 . S
O158 C168 1.260 . S
Mg159 O160 2.180 . S
Mg159 O161 2.030 . S
Mg159 O162 1.990 . S
Mg159 O163 2.117 . S
O160 Mg154 2.099 . S
O160 Mg159 2.180 . S
O160 C169 1.279 . S
O161 Mg159 2.030 . S
O161 C167 1.248 . S
O162 Mg159 1.990 . S
O162 C168 1.253 . S
O163 Mg159 2.117 . S
O163 C169 1.250 . S
C164 O170 1.248 . S
C164 O171 1.264 . S
C165 O151 1.253 . S
C165 O153 1.260 . S
C166 O155 1.279 . S
C166 O156 1.250 1_455 S
C167 O157 1.264 . S
C167 O161 1.248 . S
C168 O158 1.260 . S
C168 O162 1.253 . S
C169 O160 1.279 . S
C169 O163 1.250 . S
O170 Mg152 2.030 . S
O170 C164 1.248 . S
O171 Mg154 2.079 1_655 S
O171 C164 1.264 . S
H172 C178 0.930 . S
H173 C182 0.930 . S
H174 C187 0.929 . S
H175 C185 0.929 . S
H176 C180 0.929 . S
H177 C186 0.929 . S
C178 H172 0.930 . S
C178 C179 1.367 . S
C178 C186 1.378 . S
C179 C178 1.367 . S
C179 C187 1.433 . S
C180 H176 0.929 . S
C180 C182 1.378 . S
C180 C184 1.350 . S
C181 C184 1.463 . S
C181 C186 1.350 . S
C181 N189 1.427 . S
C182 H173 0.930 . S
C182 C180 1.378 . S
C182 C183 1.367 . S
C183 C182 1.367 . S
C183 C185 1.433 . S
C184 C180 1.350 . S
C184 C181 1.463 . S
C184 N188 1.427 . S
C185 H175 0.929 . S
C185 C183 1.433 . S
C185 N188 1.384 . S
C186 H177 0.929 . S
C186 C178 1.378 . S
C186 C181 1.350 . S
C187 H174 0.929 . S
C187 C179 1.433 . S
C187 N189 1.384 . S
N188 C184 1.427 . S
N188 C185 1.384 . S
N189 C181 1.427 . S
N189 C187 1.384 . S
H190 C196 0.930 . S
H191 C200 0.930 . S
H192 C205 0.929 . S
H193 C203 0.929 . S
H194 C198 0.929 . S
H195 C204 0.929 . S
C196 H190 0.930 . S
C196 C197 1.367 . S
C196 C204 1.378 . S
C197 C196 1.367 . S
C197 C205 1.433 . S
C198 H194 0.929 . S
C198 C200 1.378 . S
C198 C202 1.350 . S
C199 C202 1.463 . S
C199 C204 1.350 . S
C199 N207 1.427 . S
C200 H191 0.930 . S
C200 C198 1.378 . S
C200 C201 1.367 . S
C201 C200 1.367 . S
C201 C203 1.433 . S
C202 C198 1.350 . S
C202 C199 1.463 . S
C202 N206 1.427 . S
C203 H193 0.929 . S
C203 C201 1.433 . S
C203 N206 1.384 . S
C204 H195 0.929 . S
C204 C196 1.378 . S
C204 C199 1.350 . S
C205 H192 0.929 . S
C205 C197 1.433 . S
C205 N207 1.384 . S
N206 C202 1.427 . S
N206 C203 1.384 . S
N207 C199 1.427 . S
N207 C205 1.384 . S
H208 C214 0.930 . S
H209 C218 0.930 . S
H210 C223 0.929 . S
H211 C221 0.929 . S
H212 C216 0.929 . S
H213 C222 0.929 . S
C214 H208 0.930 . S
C214 C215 1.367 . S
C214 C222 1.378 . S
C215 C214 1.367 . S
C215 C223 1.433 . S
C216 H212 0.929 . S
C216 C218 1.378 . S
C216 C220 1.350 . S
C217 C220 1.463 . S
C217 C222 1.350 . S
C217 N225 1.427 . S
C218 H209 0.930 . S
C218 C216 1.378 . S
C218 C219 1.367 . S
C219 C218 1.367 . S
C219 C221 1.433 . S
C220 C216 1.350 . S
C220 C217 1.463 . S
C220 N224 1.427 . S
C221 H211 0.929 . S
C221 C219 1.433 . S
C221 N224 1.384 . S
C222 H213 0.929 . S
C222 C214 1.378 . S
C222 C217 1.350 . S
C223 H210 0.929 . S
C223 C215 1.433 . S
C223 N225 1.384 . S
N224 C220 1.427 . S
N224 C221 1.384 . S
N225 C217 1.427 . S
N225 C223 1.384 . S
H226 C232 0.930 . S
H227 C236 0.930 1_655 S
H228 C241 0.929 . S
H229 C239 0.929 . S
H230 C234 0.929 . S
H231 C240 0.929 . S
C232 H226 0.930 . S
C232 C233 1.367 . S
C232 C240 1.378 . S
C233 C232 1.367 . S
C233 C241 1.433 . S
C234 H230 0.929 . S
C234 C236 1.378 . S
C234 C238 1.350 . S
C235 C238 1.463 . S
C235 C240 1.350 . S
C235 N243 1.427 . S
C236 H227 0.930 1_455 S
C236 C234 1.378 . S
C236 C237 1.367 . S
C237 C236 1.367 . S
C237 C239 1.433 . S
C238 C234 1.350 . S
C238 C235 1.463 . S
C238 N242 1.427 . S
C239 H229 0.929 . S
C239 C237 1.433 . S
C239 N242 1.384 . S
C240 H231 0.929 . S
C240 C232 1.378 . S
C240 C235 1.350 . S
C241 H228 0.929 . S
C241 C233 1.433 . S
C241 N243 1.384 . S
N242 C238 1.427 . S
N242 C239 1.384 . S
N243 C235 1.427 . S
N243 C241 1.384 . S
H244 C250 0.930 1_545 S
H245 C254 0.930 . S
H246 C259 0.929 . S
H247 C257 0.929 . S
H248 C252 0.929 . S
H249 C258 0.929 1_554 S
C250 H244 0.930 1_565 S
C250 C251 1.367 . S
C250 C258 1.378 1_564 S
C251 C250 1.367 . S
C251 C259 1.433 1_554 S
C252 H248 0.929 . S
C252 C254 1.378 . S
C252 C256 1.350 . S
C253 C256 1.463 . S
C253 C258 1.350 1_565 S
C253 N261 1.427 . S
C254 H245 0.930 . S
C254 C252 1.378 . S
C254 C255 1.367 1_565 S
C255 C254 1.367 1_545 S
C255 C257 1.433 . S
C256 C252 1.350 . S
C256 C253 1.463 . S
C256 N260 1.427 1_565 S
C257 H247 0.929 . S
C257 C255 1.433 . S
C257 N260 1.384 . S
C258 H249 0.929 1_556 S
C258 C250 1.378 1_546 S
C258 C253 1.350 1_545 S
C259 H246 0.929 . S
C259 C251 1.433 1_556 S
C259 N261 1.384 . S
N260 C256 1.427 1_545 S
N260 C257 1.384 . S
N261 C253 1.427 . S
N261 C259 1.384 . S
H262 C268 0.930 . S
H263 C272 0.930 . S
H264 C277 0.929 . S
H265 C275 0.929 . S
H266 C270 0.929 . S
H267 C276 0.929 . S
C268 H262 0.930 . S
C268 C269 1.367 . S
C268 C276 1.378 . S
C269 C268 1.367 . S
C269 C277 1.433 1_554 S
C270 H266 0.929 . S
C270 C272 1.378 . S
C270 C274 1.350 . S
C271 C274 1.463 . S
C271 C276 1.350 1_556 S
C271 N279 1.427 . S
C272 H263 0.930 . S
C272 C270 1.378 . S
C272 C273 1.367 . S
C273 C272 1.367 . S
C273 C275 1.433 . S
C274 C270 1.350 . S
C274 C271 1.463 . S
C274 N278 1.427 . S
C275 H265 0.929 . S
C275 C273 1.433 . S
C275 N278 1.384 . S
C276 H267 0.929 . S
C276 C268 1.378 . S
C276 C271 1.350 1_554 S
C277 H264 0.929 . S
C277 C269 1.433 1_556 S
C277 N279 1.384 . S
N278 C274 1.427 . S
N278 C275 1.384 . S
N279 C271 1.427 . S
N279 C277 1.384 . S
H280 C286 0.930 . S
H281 C290 0.930 . S
H282 C295 0.929 . S
H283 C293 0.929 . S
H284 C288 0.929 . S
H285 C294 0.929 . S
C286 H280 0.930 . S
C286 C287 1.367 1_556 S
C286 C294 1.378 . S
C287 C286 1.367 1_554 S
C287 C295 1.433 . S
C288 H284 0.929 . S
C288 C290 1.378 . S
C288 C292 1.350 . S
C289 C292 1.463 . S
C289 C294 1.350 . S
C289 N297 1.427 1_556 S
C290 H281 0.930 . S
C290 C288 1.378 . S
C290 C291 1.367 . S
C291 C290 1.367 . S
C291 C293 1.433 . S
C292 C288 1.350 . S
C292 C289 1.463 . S
C292 N296 1.427 . S
C293 H283 0.929 . S
C293 C291 1.433 . S
C293 N296 1.384 . S
C294 H285 0.929 . S
C294 C286 1.378 . S
C294 C289 1.350 . S
C295 H282 0.929 . S
C295 C287 1.433 . S
C295 N297 1.384 . S
N296 C292 1.427 . S
N296 C293 1.384 . S
N297 C289 1.427 1_554 S
N297 C295 1.384 . S
H298 C304 0.930 1_455 S
H299 C308 0.930 . S
H300 C313 0.929 . S
H301 C311 0.929 . S
H302 C306 0.929 . S
H303 C312 0.929 . S
C304 H298 0.930 1_655 S
C304 C305 1.367 1_556 S
C304 C312 1.378 1_655 S
C305 C304 1.367 1_554 S
C305 C313 1.433 . S
C306 H302 0.929 . S
C306 C308 1.378 . S
C306 C310 1.350 . S
C307 C310 1.463 . S
C307 C312 1.350 1_655 S
C307 N315 1.433 . S
C308 H299 0.930 . S
C308 C306 1.378 . S
C308 C309 1.367 1_655 S
C309 C308 1.367 1_455 S
C309 C311 1.433 . S
C310 C306 1.350 . S
C310 C307 1.463 . S
C310 N314 1.427 1_655 S
C311 H301 0.929 . S
C311 C309 1.433 . S
C311 N314 1.384 . S
C312 H303 0.929 . S
C312 C304 1.378 1_455 S
C312 C307 1.350 1_455 S
C313 H300 0.929 . S
C313 C305 1.433 . S
C313 N315 1.380 1_554 S
N314 C310 1.427 1_455 S
N314 C311 1.384 . S
N315 C307 1.433 . S
N315 C313 1.380 1_556 S
H316 C322 0.930 . S
H317 C326 0.930 . S
H318 C331 0.929 . S
H319 C329 0.929 1_655 S
H320 C324 0.929 . S
H321 C330 0.929 . S
C322 H316 0.930 . S
C322 C323 1.367 . S
C322 C330 1.378 . S
C323 C322 1.367 . S
C323 C331 1.433 . S
C324 H320 0.929 . S
C324 C326 1.378 . S
C324 C328 1.350 . S
C325 C328 1.463 . S
C325 C330 1.350 . S
C325 N333 1.427 . S
C326 H317 0.930 . S
C326 C324 1.378 . S
C326 C327 1.367 . S
C327 C326 1.367 . S
C327 C329 1.433 . S
C328 C324 1.350 . S
C328 C325 1.463 . S
C328 N332 1.427 . S
C329 H319 0.929 1_455 S
C329 C327 1.433 . S
C329 N332 1.384 . S
C330 H321 0.929 . S
C330 C322 1.378 . S
C330 C325 1.350 . S
C331 H318 0.929 . S
C331 C323 1.433 . S
C331 N333 1.384 . S
N332 C328 1.427 . S
N332 C329 1.384 . S
N333 C325 1.427 . S
N333 C331 1.384 . S
H334 C340 0.930 . S
H335 C344 0.930 . S
H336 C349 0.929 . S
H337 C347 0.929 . S
H338 C342 0.929 . S
H339 C348 0.929 . S
C340 H334 0.930 . S
C340 C341 1.367 . S
C340 C348 1.378 . S
C341 C340 1.367 . S
C341 C349 1.433 . S
C342 H338 0.929 . S
C342 C344 1.378 . S
C342 C346 1.350 . S
C343 C346 1.463 . S
C343 C348 1.350 . S
C343 N351 1.427 . S
C344 H335 0.930 . S
C344 C342 1.378 . S
C344 C345 1.367 . S
C345 C344 1.367 . S
C345 C347 1.433 1_545 S
C346 C342 1.350 . S
C346 C343 1.463 . S
C346 N350 1.427 . S
C347 H337 0.929 . S
C347 C345 1.433 1_565 S
C347 N350 1.384 1_565 S
C348 H339 0.929 . S
C348 C340 1.378 . S
C348 C343 1.350 . S
C349 H336 0.929 . S
C349 C341 1.433 . S
C349 N351 1.384 . S
N350 C346 1.427 . S
N350 C347 1.384 1_545 S
N351 C343 1.427 . S
N351 C349 1.384 . S
H352 C358 0.930 . S
H353 C362 0.930 . S
H354 C367 0.929 . S
H355 C365 0.929 . S
H356 C360 0.929 . S
H357 C366 0.929 . S
C358 H352 0.930 . S
C358 C359 1.367 . S
C358 C366 1.378 . S
C359 C358 1.367 . S
C359 C367 1.433 . S
C360 H356 0.929 . S
C360 C362 1.378 . S
C360 C364 1.350 . S
C361 C364 1.463 . S
C361 C366 1.350 . S
C361 N369 1.427 . S
C362 H353 0.930 . S
C362 C360 1.378 . S
C362 C363 1.367 . S
C363 C362 1.367 . S
C363 C365 1.433 . S
C364 C360 1.350 . S
C364 C361 1.463 . S
C364 N368 1.427 . S
C365 H355 0.929 . S
C365 C363 1.433 . S
C365 N368 1.384 . S
C366 H357 0.929 . S
C366 C358 1.378 . S
C366 C361 1.350 . S
C367 H354 0.929 . S
C367 C359 1.433 . S
C367 N369 1.384 . S
N368 C364 1.427 . S
N368 C365 1.384 . S
N369 C361 1.427 . S
N369 C367 1.384 . S
H370 C376 0.930 . S
H371 C380 0.930 . S
H372 C385 0.929 . S
H373 C383 0.929 . S
H374 C378 0.929 . S
H375 C384 0.929 . S
C376 H370 0.930 . S
C376 C377 1.367 . S
C376 C384 1.378 . S
C377 C376 1.367 . S
C377 C385 1.433 . S
C378 H374 0.929 . S
C378 C380 1.378 . S
C378 C382 1.350 . S
C379 C382 1.463 . S
C379 C384 1.350 . S
C379 N387 1.427 . S
C380 H371 0.930 . S
C380 C378 1.378 . S
C380 C381 1.367 . S
C381 C380 1.367 . S
C381 C383 1.433 . S
C382 C378 1.350 . S
C382 C379 1.463 . S
C382 N386 1.427 . S
C383 H373 0.929 . S
C383 C381 1.433 . S
C383 N386 1.384 . S
C384 H375 0.929 . S
C384 C376 1.378 . S
C384 C379 1.350 . S
C385 H372 0.929 . S
C385 C377 1.433 . S
C385 N387 1.384 . S
N386 C382 1.427 . S
N386 C383 1.384 . S
N387 C379 1.427 . S
N387 C385 1.384 . S
H388 C394 0.930 1_455 S
H389 C398 0.930 . S
H390 C403 0.929 . S
H391 C401 0.929 . S
H392 C396 0.929 . S
H393 C402 0.929 . S
C394 H388 0.930 1_655 S
C394 C395 1.367 . S
C394 C402 1.378 1_655 S
C395 C394 1.367 . S
C395 C403 1.433 1_554 S
C396 H392 0.929 . S
C396 C398 1.378 . S
C396 C400 1.355 . S
C397 C400 1.465 . S
C397 C402 1.350 1_656 S
C397 N405 1.427 . S
C398 H389 0.930 . S
C398 C396 1.378 . S
C398 C399 1.367 1_655 S
C399 C398 1.367 1_455 S
C399 C401 1.433 . S
C400 C396 1.355 . S
C400 C397 1.465 . S
C400 N404 1.419 1_655 S
C401 H391 0.929 . S
C401 C399 1.433 . S
C401 N404 1.384 . S
C402 H393 0.929 . S
C402 C394 1.378 1_455 S
C402 C397 1.350 1_454 S
C403 H390 0.929 . S
C403 C395 1.433 1_556 S
C403 N405 1.384 . S
N404 C400 1.419 1_455 S
N404 C401 1.384 . S
N405 C397 1.427 . S
N405 C403 1.384 . S
H406 C412 0.930 . S
H407 C416 0.930 . S
H408 C421 0.929 1_545 S
H409 C419 0.929 . S
H410 C414 0.929 . S
H411 C420 0.929 . S
C412 H406 0.930 . S
C412 C413 1.367 1_556 S
C412 C420 1.378 . S
C413 C412 1.367 1_554 S
C413 C421 1.433 . S
C414 H410 0.929 . S
C414 C416 1.378 . S
C414 C418 1.350 1_545 S
C415 C418 1.463 . S
C415 C420 1.350 . S
C415 N423 1.427 1_566 S
C416 H407 0.930 . S
C416 C414 1.378 . S
C416 C417 1.367 . S
C417 C416 1.367 . S
C417 C419 1.433 1_545 S
C418 C414 1.350 1_565 S
C418 C415 1.463 . S
C418 N422 1.427 . S
C419 H409 0.929 . S
C419 C417 1.433 1_565 S
C419 N422 1.384 . S
C420 H411 0.929 . S
C420 C412 1.378 . S
C420 C415 1.350 . S
C421 H408 0.929 1_565 S
C421 C413 1.433 . S
C421 N423 1.384 1_565 S
N422 C418 1.427 . S
N422 C419 1.384 . S
N423 C415 1.427 1_544 S
N423 C421 1.384 1_545 S
H424 C430 0.930 . S
H425 C434 0.930 . S
H426 C439 0.929 . S
H427 C437 0.929 . S
H428 C432 0.929 . S
H429 C438 0.929 . S
C430 H424 0.930 . S
C430 C431 1.367 1_556 S
C430 C438 1.378 . S
C431 C430 1.367 1_554 S
C431 C439 1.433 . S
C432 H428 0.929 . S
C432 C434 1.378 . S
C432 C436 1.350 . S
C433 C436 1.463 . S
C433 C438 1.350 . S
C433 N441 1.427 . S
C434 H425 0.930 . S
C434 C432 1.378 . S
C434 C435 1.367 . S
C435 C434 1.367 . S
C435 C437 1.433 . S
C436 C432 1.350 . S
C436 C433 1.463 . S
C436 N440 1.427 . S
C437 H427 0.929 . S
C437 C435 1.433 . S
C437 N440 1.384 . S
C438 H429 0.929 . S
C438 C430 1.378 . S
C438 C433 1.350 . S
C439 H426 0.929 . S
C439 C431 1.433 . S
C439 N441 1.384 1_554 S
N440 C436 1.427 . S
N440 C437 1.384 . S
N441 C433 1.427 . S
N441 C439 1.384 1_556 S
H442 C448 0.930 . S
H443 C452 0.930 . S
H444 C457 0.929 . S
H445 C455 0.929 . S
H446 C450 0.929 1_554 S
H447 C456 0.929 . S
C448 H442 0.930 . S
C448 C449 1.367 1_556 S
C448 C456 1.378 . S
C449 C448 1.367 1_554 S
C449 C457 1.433 . S
C450 H446 0.929 1_556 S
C450 C452 1.378 . S
C450 C454 1.350 . S
C451 C454 1.463 . S
C451 C456 1.350 . S
C451 N459 1.427 1_556 S
C452 H443 0.930 . S
C452 C450 1.378 . S
C452 C453 1.367 . S
C453 C452 1.367 . S
C453 C455 1.433 . S
C454 C450 1.350 . S
C454 C451 1.463 . S
C454 N458 1.427 . S
C455 H445 0.929 . S
C455 C453 1.433 . S
C455 N458 1.384 . S
C456 H447 0.929 . S
C456 C448 1.378 . S
C456 C451 1.350 . S
C457 H444 0.929 . S
C457 C449 1.433 . S
C457 N459 1.384 . S
N458 C454 1.427 . S
N458 C455 1.384 . S
N459 C451 1.427 1_554 S
N459 C457 1.384 . S
H460 C466 0.930 . S
H461 C470 0.930 . S
H462 C475 0.929 . S
H463 C473 0.929 1_554 S
H464 C468 0.929 . S
H465 C474 0.929 . S
C466 H460 0.930 . S
C466 C467 1.367 . S
C466 C474 1.378 . S
C467 C466 1.367 . S
C467 C475 1.433 . S
C468 H464 0.929 . S
C468 C470 1.378 . S
C468 C472 1.350 1_556 S
C469 C472 1.463 . S
C469 C474 1.350 . S
C469 N477 1.427 . S
C470 H461 0.930 . S
C470 C468 1.378 . S
C470 C471 1.367 . S
C471 C470 1.367 . S
C471 C473 1.433 . S
C472 C468 1.350 1_554 S
C472 C469 1.463 . S
C472 N476 1.427 . S
C473 H463 0.929 1_556 S
C473 C471 1.433 . S
C473 N476 1.384 1_556 S
C474 H465 0.929 . S
C474 C466 1.378 . S
C474 C469 1.350 . S
C475 H462 0.929 . S
C475 C467 1.433 . S
C475 N477 1.384 . S
N476 C472 1.427 . S
N476 C473 1.384 1_554 S
N477 C469 1.427 . S
N477 C475 1.384 . S
H478 C484 0.930 . S
H479 C488 0.930 . S
H480 C493 0.929 . S
H481 C491 0.929 1_565 S
H482 C486 0.928 1_554 S
H483 C492 0.929 . S
C484 H478 0.930 . S
C484 C485 1.367 . S
C484 C492 1.378 . S
C485 C484 1.367 . S
C485 C493 1.433 . S
C486 H482 0.928 1_556 S
C486 C488 1.378 . S
C486 C490 1.350 1_556 S
C487 C490 1.463 . S
C487 C492 1.350 . S
C487 N495 1.427 . S
C488 H479 0.930 . S
C488 C486 1.378 . S
C488 C489 1.367 . S
C489 C488 1.367 . S
C489 C491 1.433 . S
C490 C486 1.350 1_554 S
C490 C487 1.463 . S
C490 N494 1.427 1_554 S
C491 H481 0.929 1_545 S
C491 C489 1.433 . S
C491 N494 1.384 . S
C492 H483 0.929 . S
C492 C484 1.378 . S
C492 C487 1.350 . S
C493 H480 0.929 . S
C493 C485 1.433 . S
C493 N495 1.384 . S
N494 C490 1.427 1_556 S
N494 C491 1.384 . S
N495 C487 1.427 . S
N495 C493 1.384 . S
H496 C502 0.930 . S
H497 C506 0.930 . S
H498 C511 0.929 . S
H499 C509 0.929 1_554 S
H500 C504 0.929 . S
H501 C510 0.929 . S
C502 H496 0.930 . S
C502 C503 1.367 . S
C502 C510 1.378 . S
C503 C502 1.367 . S
C503 C511 1.433 . S
C504 H500 0.929 . S
C504 C506 1.378 . S
C504 C508 1.350 1_556 S
C505 C508 1.463 . S
C505 C510 1.350 . S
C505 N513 1.427 . S
C506 H497 0.930 . S
C506 C504 1.378 . S
C506 C507 1.367 . S
C507 C506 1.367 . S
C507 C509 1.433 . S
C508 C504 1.350 1_554 S
C508 C505 1.463 . S
C508 N512 1.427 . S
C509 H499 0.929 1_556 S
C509 C507 1.433 . S
C509 N512 1.384 1_556 S
C510 H501 0.929 . S
C510 C502 1.378 . S
C510 C505 1.350 . S
C511 H498 0.929 . S
C511 C503 1.433 . S
C511 N513 1.384 . S
N512 C508 1.427 . S
N512 C509 1.384 1_554 S
N513 C505 1.427 . S
N513 C511 1.384 . S
H514 C520 0.930 . S
H515 C524 0.930 . S
H516 C529 0.929 . S
H517 C527 0.929 . S
H518 C522 0.929 . S
H519 C528 0.929 . S
C520 H514 0.930 . S
C520 C521 1.367 . S
C520 C528 1.378 . S
C521 C520 1.367 . S
C521 C529 1.433 . S
C522 H518 0.929 . S
C522 C524 1.378 . S
C522 C526 1.350 1_556 S
C523 C526 1.463 . S
C523 C528 1.350 . S
C523 N531 1.427 . S
C524 H515 0.930 . S
C524 C522 1.378 . S
C524 C525 1.367 . S
C525 C524 1.367 . S
C525 C527 1.433 . S
C526 C522 1.350 1_554 S
C526 C523 1.463 . S
C526 N530 1.427 . S
C527 H517 0.929 . S
C527 C525 1.433 . S
C527 N530 1.384 1_556 S
C528 H519 0.929 . S
C528 C520 1.378 . S
C528 C523 1.350 . S
C529 H516 0.929 . S
C529 C521 1.433 . S
C529 N531 1.384 . S
N530 C526 1.427 . S
N530 C527 1.384 1_554 S
N531 C523 1.427 . S
N531 C529 1.384 . S
H532 C538 0.930 . S
H533 C542 0.930 . S
H534 C547 0.929 . S
H535 C545 0.929 . S
H536 C540 0.929 . S
H537 C546 0.929 . S
C538 H532 0.930 . S
C538 C539 1.367 . S
C538 C546 1.378 . S
C539 C538 1.367 . S
C539 C547 1.433 1_655 S
C540 H536 0.929 . S
C540 C542 1.378 . S
C540 C544 1.350 1_455 S
C541 C544 1.463 . S
C541 C546 1.350 . S
C541 N549 1.427 1_655 S
C542 H533 0.930 . S
C542 C540 1.378 . S
C542 C543 1.367 1_455 S
C543 C542 1.367 1_655 S
C543 C545 1.433 . S
C544 C540 1.350 1_655 S
C544 C541 1.463 . S
C544 N548 1.427 . S
C545 H535 0.929 . S
C545 C543 1.433 . S
C545 N548 1.384 . S
C546 H537 0.929 . S
C546 C538 1.378 . S
C546 C541 1.350 . S
C547 H534 0.929 . S
C547 C539 1.433 1_455 S
C547 N549 1.384 . S
N548 C544 1.427 . S
N548 C545 1.384 . S
N549 C541 1.427 1_455 S
N549 C547 1.384 . S
H550 C556 0.930 . S
H551 C560 0.930 . S
H552 C565 0.929 . S
H553 C563 0.929 . S
H554 C558 0.929 . S
H555 C564 0.929 . S
C556 H550 0.930 . S
C556 C557 1.367 . S
C556 C564 1.378 . S
C557 C556 1.367 . S
C557 C565 1.433 . S
C558 H554 0.929 . S
C558 C560 1.378 . S
C558 C562 1.350 . S
C559 C562 1.463 . S
C559 C564 1.350 . S
C559 N567 1.427 . S
C560 H551 0.930 . S
C560 C558 1.378 . S
C560 C561 1.367 . S
C561 C560 1.367 . S
C561 C563 1.433 . S
C562 C558 1.350 . S
C562 C559 1.463 . S
C562 N566 1.427 . S
C563 H553 0.929 . S
C563 C561 1.433 . S
C563 N566 1.384 . S
C564 H555 0.929 . S
C564 C556 1.378 . S
C564 C559 1.350 . S
C565 H552 0.929 . S
C565 C557 1.433 . S
C565 N567 1.384 . S
N566 C562 1.427 . S
N566 C563 1.384 . S
N567 C559 1.427 . S
N567 C565 1.384 . S
H568 C574 0.930 . S
H569 C578 0.930 . S
H570 C583 0.929 . S
H571 C581 0.929 . S
H572 C576 0.929 . S
H573 C582 0.929 . S
C574 H568 0.930 . S
C574 C575 1.367 . S
C574 C582 1.378 . S
C575 C574 1.367 . S
C575 C583 1.433 . S
C576 H572 0.929 . S
C576 C578 1.378 . S
C576 C580 1.350 . S
C577 C580 1.463 . S
C577 C582 1.350 . S
C577 N585 1.427 . S
C578 H569 0.930 . S
C578 C576 1.378 . S
C578 C579 1.367 . S
C579 C578 1.367 . S
C579 C581 1.433 . S
C580 C576 1.350 . S
C580 C577 1.463 . S
C580 N584 1.427 . S
C581 H571 0.929 . S
C581 C579 1.433 . S
C581 N584 1.384 . S
C582 H573 0.929 . S
C582 C574 1.378 . S
C582 C577 1.350 . S
C583 H570 0.929 . S
C583 C575 1.433 . S
C583 N585 1.384 . S
N584 C580 1.427 . S
N584 C581 1.384 . S
N585 C577 1.427 . S
N585 C583 1.384 . S
H586 C592 0.930 . S
H587 C596 0.930 . S
H588 C601 0.929 . S
H589 C599 0.929 . S
H590 C594 0.929 . S
H591 C600 0.929 . S
C592 H586 0.930 . S
C592 C593 1.367 . S
C592 C600 1.378 . S
C593 C592 1.367 . S
C593 C601 1.433 . S
C594 H590 0.929 . S
C594 C596 1.378 . S
C594 C598 1.350 . S
C595 C598 1.463 . S
C595 C600 1.350 . S
C595 N603 1.427 . S
C596 H587 0.930 . S
C596 C594 1.378 . S
C596 C597 1.367 . S
C597 C596 1.367 . S
C597 C599 1.433 . S
C598 C594 1.350 . S
C598 C595 1.463 . S
C598 N602 1.427 . S
C599 H589 0.929 . S
C599 C597 1.433 . S
C599 N602 1.384 . S
C600 H591 0.929 . S
C600 C592 1.378 . S
C600 C595 1.350 . S
C601 H588 0.929 . S
C601 C593 1.433 . S
C601 N603 1.384 . S
N602 C598 1.427 . S
N602 C599 1.384 . S
N603 C595 1.427 . S
N603 C601 1.384 . S
C179 C76 1.559 . S
C183 C103 1.420 . S
C201 C127 1.435 . S
C197 C87 1.567 . S
C219 C148 1.412 . S
C215 C54 1.564 . S
C237 C166 1.413 . S
C233 C65 1.562 . S
C255 C106 1.363 . S
C251 C32 1.497 . S
C269 C43 1.501 . S
C273 C124 1.355 . S
C287 C10 1.490 . S
C291 C145 1.350 . S
C305 C21 1.490 . S
C309 C169 1.356 . S
C327 C104 0.636 . S
C323 C60 0.636 . S
C345 C122 0.640 . S
C341 C71 0.639 . S
C363 C143 0.645 . S
C359 C82 0.658 . S
C377 C49 0.636 . S
C381 C167 0.634 . S
C395 C16 0.728 . S
C399 C102 0.741 . S
C417 C126 0.745 . S
C413 C27 0.759 . S
C435 C147 0.743 . S
C431 C38 0.757 . S
C449 C5 0.760 . S
C453 C165 0.748 . S
C467 C59 1.589 . S
C471 C105 1.553 . S
C485 C70 1.598 . S
C489 C123 1.564 . S
C507 C144 1.553 . S
C503 C81 1.588 . S
C525 C168 1.547 . S
C521 C48 1.591 . S
C539 C15 1.455 . S
C543 C101 1.413 1_655 S
C561 C125 1.427 1_565 S
C557 C26 1.459 . S
C579 C146 1.429 . S
C575 C37 1.458 . S
C593 C4 1.457 . S
C597 C164 1.429 . S
