# Generated by pormake.
# Topology zzz, (3,6)-cn, num edge types: 1
# Building blocks:
#     Node 0, Type 0, BuildingBlock: PAMTOO_clean_linker_0, # of connection points: 3
#     Node 1, Type 0, BuildingBlock: PAMTOO_clean_linker_0, # of connection points: 3
#     Node 2, Type 0, BuildingBlock: PAMTOO_clean_linker_0, # of connection points: 3
#     Node 3, Type 0, BuildingBlock: PAMTOO_clean_linker_0, # of connection points: 3
#     Node 4, Type 0, BuildingBlock: PAMTOO_clean_linker_0, # of connection points: 3
#     Node 5, Type 0, BuildingBlock: PAMTOO_clean_linker_0, # of connection points: 3
#     Node 6, Type 0, BuildingBlock: PAMTOO_clean_linker_0, # of connection points: 3
#     Node 7, Type 0, BuildingBlock: PAMTOO_clean_linker_0, # of connection points: 3
#     Node 8, Type 1, BuildingBlock: PAMTUU_clean_sbu_0, # of connection points: 6
#     Node 9, Type 1, BuildingBlock: PAMTUU_clean_sbu_0, # of connection points: 6
#     Node 10, Type 1, BuildingBlock: PAMTUU_clean_sbu_0, # of connection points: 6
#     Node 11, Type 1, BuildingBlock: PAMTUU_clean_sbu_0, # of connection points: 6
#     Edge 12, Type (0, 1), BuildingBlock: XUDNAN_clean_linker_2, # of connection points: 2
#     Edge 13, Type (0, 1), BuildingBlock: XUDNAN_clean_linker_2, # of connection points: 2
#     Edge 14, Type (0, 1), BuildingBlock: XUDNAN_clean_linker_2, # of connection points: 2
#     Edge 15, Type (0, 1), BuildingBlock: XUDNAN_clean_linker_2, # of connection points: 2
#     Edge 16, Type (0, 1), BuildingBlock: XUDNAN_clean_linker_2, # of connection points: 2
#     Edge 17, Type (0, 1), BuildingBlock: XUDNAN_clean_linker_2, # of connection points: 2
#     Edge 18, Type (0, 1), BuildingBlock: XUDNAN_clean_linker_2, # of connection points: 2
#     Edge 19, Type (0, 1), BuildingBlock: XUDNAN_clean_linker_2, # of connection points: 2
#     Edge 20, Type (0, 1), BuildingBlock: XUDNAN_clean_linker_2, # of connection points: 2
#     Edge 21, Type (0, 1), BuildingBlock: XUDNAN_clean_linker_2, # of connection points: 2
#     Edge 22, Type (0, 1), BuildingBlock: XUDNAN_clean_linker_2, # of connection points: 2
#     Edge 23, Type (0, 1), BuildingBlock: XUDNAN_clean_linker_2, # of connection points: 2
#     Edge 24, Type (0, 1), BuildingBlock: XUDNAN_clean_linker_2, # of connection points: 2
#     Edge 25, Type (0, 1), BuildingBlock: XUDNAN_clean_linker_2, # of connection points: 2
#     Edge 26, Type (0, 1), BuildingBlock: XUDNAN_clean_linker_2, # of connection points: 2
#     Edge 27, Type (0, 1), BuildingBlock: XUDNAN_clean_linker_2, # of connection points: 2
#     Edge 28, Type (0, 1), BuildingBlock: XUDNAN_clean_linker_2, # of connection points: 2
#     Edge 29, Type (0, 1), BuildingBlock: XUDNAN_clean_linker_2, # of connection points: 2
#     Edge 30, Type (0, 1), BuildingBlock: XUDNAN_clean_linker_2, # of connection points: 2
#     Edge 31, Type (0, 1), BuildingBlock: XUDNAN_clean_linker_2, # of connection points: 2
#     Edge 32, Type (0, 1), BuildingBlock: XUDNAN_clean_linker_2, # of connection points: 2
#     Edge 33, Type (0, 1), BuildingBlock: XUDNAN_clean_linker_2, # of connection points: 2
#     Edge 34, Type (0, 1), BuildingBlock: XUDNAN_clean_linker_2, # of connection points: 2
#     Edge 35, Type (0, 1), BuildingBlock: XUDNAN_clean_linker_2, # of connection points: 2
# Relax obj value: 0.214
# Max RMSD: 0.225
# Mean RMSD: 0.119
data_MOF--net-zzz--node1-PAMTUU_clean_sbu_0--node2-PAMTOO_clean_linker_0--edge1-XUDNAN_clean_linker_2
_symmetry_space_group_name_H-M    P1
_symmetry_Int_Tables_number       1
_symmetry_cell_setting            triclinic
loop_
_symmetry_equiv_pos_as_xyz
'x, y, z'
_cell_length_a     49.664539
_cell_length_b     54.057871
_cell_length_c     15.470129
_cell_angle_alpha  100.9054
_cell_angle_beta   90.344028
_cell_angle_gamma 90.820018
loop_
_atom_site_label
_atom_site_type_symbol
_atom_site_fract_x
_atom_site_fract_y
_atom_site_fract_z
_atom_type_partial_charge
H0 H 0.83338 0.55085 0.43711 0.0
H1 H 0.75103 0.54349 0.35125 0.0
H2 H 0.77498 0.51526 0.58071 0.0
H3 H 0.71462 0.55228 0.49388 0.0
C4 C 0.71072 0.53163 0.47458 0.0
O5 O 0.7348 0.5185 0.46771 0.0
H6 H 0.69871 0.52588 0.528 0.0
C7 C 0.81293 0.54507 0.44707 0.0
C8 C 0.80729 0.53306 0.51845 0.0
C9 C 0.79309 0.54802 0.38442 0.0
C10 C 0.76652 0.54107 0.39825 0.0
C11 C 0.75977 0.52934 0.46822 0.0
C12 C 0.7801 0.52548 0.52913 0.0
H13 H 1.01128 0.81426 0.35876 0.0
H14 H 1.01011 0.73474 0.2575 0.0
H15 H 1.01596 0.76221 0.53707 0.0
H16 H 0.03853 0.70154 0.46682 0.0
C17 C 1.03319 0.7061 0.40184 0.0
O18 O 1.01123 0.72179 0.41193 0.0
H19 H 0.05116 0.71554 0.37882 0.0
C20 C 1.01176 0.79516 0.37069 0.0
C21 C 1.01437 0.79111 0.45722 0.0
C22 C 1.01072 0.77516 0.29837 0.0
C23 C 1.01083 0.75041 0.31276 0.0
C24 C 1.01223 0.74581 0.39892 0.0
C25 C 1.01427 0.76607 0.4711 0.0
H26 H 0.73375 0.97581 0.32611 0.0
H27 H 0.81763 0.97478 0.26095 0.0
H28 H 0.79275 0.00844 0.52109 0.0
H29 H 0.84872 0.03726 0.43107 0.0
C30 C 0.844 0.02174 0.37473 0.0
O31 O 0.83378 1.00127 0.40763 0.0
H32 H 0.82858 0.02919 0.33405 0.0
C33 C 0.75453 0.9788 0.3472 0.0
C34 C 0.76018 0.99068 0.4347 0.0
C35 C 0.77494 0.9731 0.28386 0.0
C36 C 0.8017 0.97882 0.30892 0.0
C37 C 0.808 0.99258 0.39227 0.0
C38 C 0.78741 0.99825 0.45603 0.0
H39 H 0.52421 0.71651 0.23103 0.0
H40 H 0.5239 0.77289 0.06996 0.0
H41 H 0.55985 0.78958 0.32949 0.0
H42 H 0.53414 0.83788 0.27171 0.0
C43 C 0.53155 0.82832 0.20188 0.0
O44 O 0.54858 0.80785 0.18584 0.0
H45 H 0.51016 0.82195 0.19153 0.0
C46 C 0.52844 0.7358 0.22413 0.0
C47 C 0.54221 0.75213 0.29146 0.0
C48 C 0.52181 0.743 0.14475 0.0
C49 C 0.52846 0.76736 0.13213 0.0
C50 C 0.54153 0.78452 0.19972 0.0
C51 C 0.54882 0.77672 0.27894 0.0
H52 H 0.23599 0.46444 0.25138 0.0
H53 H 0.31677 0.46658 0.35401 0.0
H54 H 0.29358 0.51797 0.18677 0.0
H55 H 0.32195 0.53053 0.39448 0.0
C56 C 0.34003 0.52378 0.35515 0.0
O57 O 0.33319 0.50427 0.28574 0.0
H58 H 0.34747 0.54003 0.32705 0.0
C59 C 0.25627 0.47214 0.25578 0.0
C60 C 0.26217 0.49174 0.2107 0.0
C61 C 0.27548 0.46319 0.30926 0.0
C62 C 0.3016 0.47352 0.31458 0.0
C63 C 0.30808 0.49365 0.27302 0.0
C64 C 0.28848 0.50254 0.21953 0.0
H65 H 0.04754 0.20606 0.28731 0.0
H66 H 0.04141 0.28509 0.39412 0.0
H67 H 0.08128 0.26051 0.14691 0.0
H68 H 0.09655 0.32287 0.23721 0.0
C69 C 0.08928 0.31354 0.291 0.0
O70 O 0.0661 0.29989 0.26261 0.0
H71 H 0.10579 0.301 0.30446 0.0
C72 C 0.05197 0.22548 0.28263 0.0
C73 C 0.06617 0.23068 0.21005 0.0
C74 C 0.04277 0.24481 0.34864 0.0
C75 C 0.04835 0.26996 0.3433 0.0
C76 C 0.06217 0.27558 0.27028 0.0
C77 C 0.07086 0.25598 0.20336 0.0
H78 H 0.33401 0.96053 0.18862 0.0
H79 H 0.259 0.96624 0.32486 0.0
H80 H 0.2794 0.02022 0.16273 0.0
H81 H 0.23352 0.04056 0.32623 0.0
C82 C 0.23502 0.02134 0.34136 0.0
O83 O 0.24121 1.0048 0.26378 0.0
H84 H 0.25144 0.02193 0.39107 0.0
C85 C 0.31476 0.96967 0.20133 0.0
C86 C 0.30915 0.99118 0.16599 0.0
C87 C 0.29686 0.96081 0.25864 0.0
C88 C 0.27256 0.97309 0.27999 0.0
C89 C 0.2659 0.99435 0.24542 0.0
C90 C 0.28442 1.00367 0.18912 0.0
H91 H 0.52833 0.32229 0.46308 0.0
H92 H 0.55033 0.26839 0.62248 0.0
H93 H 0.50728 0.2443 0.37737 0.0
H94 H 0.48876 0.22155 0.53321 0.0
C95 C 0.50876 0.22024 0.56468 0.0
O96 O 0.52858 0.22943 0.51611 0.0
H97 H 0.50828 0.23203 0.63193 0.0
C98 C 0.52948 0.303 0.47311 0.0
C99 C 0.51757 0.28402 0.41016 0.0
C100 C 0.54162 0.2979 0.54961 0.0
C101 C 0.5412 0.27288 0.56371 0.0
C102 C 0.52871 0.25349 0.50198 0.0
C103 C 0.51681 0.25915 0.42505 0.0
Tb104 Tb 1.01744 0.02081 0.77731 0.0
Tb105 Tb 0.05965 1.00302 0.9145 0.0
C106 C 0.99923 0.01342 0.96623 0.0
C107 C 0.98757 0.06331 0.65115 0.0
C108 C 0.99062 0.11383 0.62944 0.0
C109 C 0.96573 0.10078 0.62123 0.0
C110 C 0.9642 0.0757 0.63281 0.0
C111 C 1.01249 0.07605 0.65603 0.0
C112 C 1.014 0.10106 0.64548 0.0
C113 C 0.98584 0.03862 0.67756 0.0
O114 O 1.0329 0.05499 0.86068 0.0
O115 O 0.07202 0.04203 0.91863 0.0
O116 O 0.07804 0.99565 0.78441 0.0
O117 O 0.05764 0.02599 0.72403 0.0
O118 O 0.07287 1.00117 0.04277 0.0
O119 O 0.09241 0.97999 0.92946 0.0
O120 O 1.03147 0.97203 0.87001 0.0
O121 O 1.02159 0.98025 0.73421 0.0
O122 O 0.9926 0.00983 0.8821 0.0
O123 O 1.02454 0.01707 0.99114 0.0
C124 C 0.05642 0.05984 0.9001 0.0
O125 O 1.0048 0.02278 0.64872 0.0
O126 O 0.98177 0.03988 0.7613 0.0
C127 C 0.07746 0.0102 0.72548 0.0
C128 C 0.08083 0.9582 0.03946 0.0
C129 C 0.0656 0.90815 0.04755 0.0
C130 C 0.09288 0.91602 0.0566 0.0
C131 C 0.10045 0.94076 0.05124 0.0
C132 C 0.0536 0.9508 0.03533 0.0
C133 C 0.04611 0.92606 0.0375 0.0
C134 C 0.08826 0.98212 0.01342 0.0
C135 C 1.02393 0.96434 0.78813 0.0
H136 H 0.94743 0.11019 0.60846 0.0
H137 H 0.94474 0.06625 0.63 0.0
H138 H 1.03076 0.06687 0.67066 0.0
H139 H 0.03352 0.11047 0.65023 0.0
H140 H 0.10848 0.90306 0.06669 0.0
H141 H 0.12161 0.94603 0.0534 0.0
H142 H 0.03803 0.96389 0.02598 0.0
H143 H 1.02501 0.92094 0.02829 0.0
Tb144 Tb 0.52172 0.99253 0.71434 0.0
Tb145 Tb 0.54169 0.02904 0.89531 0.0
C146 C 0.53872 0.9702 0.87782 0.0
C147 C 0.48265 0.94218 0.56964 0.0
C148 C 0.43596 0.91178 0.53785 0.0
C149 C 0.45348 0.91423 0.46853 0.0
C150 C 0.47661 0.92938 0.48441 0.0
C151 C 0.46674 0.93799 0.6403 0.0
C152 C 0.44354 0.92281 0.62453 0.0
C153 C 0.50341 0.96204 0.58242 0.0
O154 O 0.48759 0.99561 0.80733 0.0
O155 O 0.4983 0.03282 0.90018 0.0
O156 O 0.53292 0.05579 0.81065 0.0
O157 O 0.52064 0.02983 0.68003 0.0
O158 O 0.55032 0.03332 0.0307 0.0
O159 O 0.55759 0.06371 0.96218 0.0
O160 O 0.57853 0.01638 0.82314 0.0
O161 O 0.56282 1.00239 0.68198 0.0
O162 O 0.5412 0.96856 0.79283 0.0
O163 O 0.53343 0.99191 0.92835 0.0
C164 C 0.48071 0.01501 0.86833 0.0
O165 O 0.49453 0.98478 0.60836 0.0
O166 O 0.52479 0.95795 0.6263 0.0
C167 C 0.5255 0.05235 0.72758 0.0
C168 C 0.59268 0.05315 0.05078 0.0
C169 C 0.64412 0.03196 0.04114 0.0
C170 C 0.6371 0.0485 0.98527 0.0
C171 C 0.61166 0.05917 0.99044 0.0
C172 C 0.60105 0.03962 0.11472 0.0
C173 C 0.62663 0.02916 0.11013 0.0
C174 C 0.5637 0.05423 0.03092 0.0
C175 C 0.58276 0.00946 0.73795 0.0
H176 H 0.44818 0.90635 0.40082 0.0
H177 H 0.48878 0.93241 0.4293 0.0
H178 H 0.47133 0.94766 0.70679 0.0
H179 H 0.43058 0.92115 0.67928 0.0
H180 H 0.65034 0.05167 0.933 0.0
H181 H 0.60609 0.07004 0.94125 0.0
H182 H 0.58699 0.03506 0.16288 0.0
H183 H 0.63203 0.01766 0.15759 0.0
Tb184 Tb 0.51424 0.51312 0.95802 0.0
Tb185 Tb 0.55276 0.5278 0.80242 0.0
C186 C 0.4919 0.51384 0.76859 0.0
C187 C 0.48408 0.47149 0.09619 0.0
C188 C 0.48125 0.42209 0.13386 0.0
C189 C 0.46062 0.43101 0.08559 0.0
C190 C 0.46199 0.45541 0.06722 0.0
C191 C 0.50449 0.46273 0.14571 0.0
C192 C 0.50307 0.4384 0.16431 0.0
C193 C 0.48614 0.49677 0.07171 0.0
O194 O 0.53851 0.48046 0.91305 0.0
O195 O 0.55142 0.48642 0.77551 0.0
O196 O 0.57962 0.51784 0.90285 0.0
O197 O 0.55195 0.5292 0.02088 0.0
O198 O 0.56031 0.52883 0.66922 0.0
O199 O 0.58721 0.54731 0.77167 0.0
O200 O 0.54217 0.56248 0.89022 0.0
O201 O 0.50263 0.55124 0.94922 0.0
O202 O 0.49381 0.50058 0.83133 0.0
O203 O 0.51102 0.53007 0.75874 0.0
C204 C 0.54779 0.47179 0.83407 0.0
O205 O 0.50875 0.50924 0.08965 0.0
O206 O 0.47732 0.49839 0.99365 0.0
C207 C 0.5761 0.52384 0.9886 0.0
C208 C 0.57885 0.5685 0.65521 0.0
C209 C 0.57771 0.61565 0.59996 0.0
C210 C 0.59864 0.59854 0.57393 0.0
C211 C 0.59919 0.57525 0.60128 0.0
C212 C 0.55777 0.58531 0.68074 0.0
C213 C 0.55714 0.60856 0.6532 0.0
C214 C 0.58044 0.54472 0.68895 0.0
C215 C 0.51886 0.56841 0.92724 0.0
H216 H 0.44359 0.419 0.06054 0.0
H217 H 0.44591 0.46159 0.02911 0.0
H218 H 0.52173 0.47459 0.16974 0.0
H219 H 0.51905 0.43247 0.2034 0.0
H220 H 0.6146 0.60308 0.53196 0.0
H221 H 0.61569 0.56262 0.58104 0.0
H222 H 0.54195 0.58059 0.72305 0.0
H223 H 0.54082 0.6212 0.67535 0.0
Tb224 Tb 0.04625 0.52083 0.77527 0.0
Tb225 Tb 1.02683 0.4904 0.92431 0.0
C226 C 1.02435 0.54929 0.95767 0.0
C227 C 0.09047 0.52439 0.60515 0.0
C228 C 0.13462 0.49179 0.57701 0.0
C229 C 0.1387 0.51784 0.60665 0.0
C230 C 0.11681 0.534 0.62062 0.0
C231 C 0.08673 0.49881 0.56622 0.0
C232 C 0.10854 0.48264 0.55332 0.0
C233 C 0.06811 0.53804 0.65435 0.0
O234 O 0.08257 0.50695 0.83037 0.0
O235 O 0.06755 0.5037 0.96712 0.0
O236 O 0.05068 0.46451 0.83308 0.0
O237 O 0.04146 0.48119 0.71256 0.0
O238 O 1.01872 0.4872 0.055 0.0
O239 O 1.0123 0.45567 0.94795 0.0
O240 O 0.99145 0.49225 0.83887 0.0
O241 O 1.00276 0.52558 0.77267 0.0
O242 O 0.04127 0.54989 0.89294 0.0
O243 O 1.01253 0.52828 0.9686 0.0
C244 C 0.08749 0.50602 0.91338 0.0
O245 O 0.04459 0.52671 0.64463 0.0
O246 O 0.07363 0.5467 0.73719 0.0
C247 C 0.04906 0.46216 0.74767 0.0
C248 C 0.97699 0.46617 0.04805 0.0
C249 C 0.92511 0.48629 0.0648 0.0
C250 C 0.93252 0.47037 0.98649 0.0
C251 C 0.95822 0.4603 0.97823 0.0
C252 C 0.96827 0.47906 0.13005 0.0
C253 C 0.94247 0.489 0.13846 0.0
C254 C 1.00599 0.46575 0.02855 0.0
C255 C 0.98475 0.50973 0.79383 0.0
H256 H 0.15874 0.52562 0.62242 0.0
H257 H 0.12032 0.55357 0.65076 0.0
H258 H 0.06674 0.4907 0.55294 0.0
H259 H 0.10477 0.46274 0.52999 0.0
H260 H 0.91949 0.46748 0.92898 0.0
H261 H 0.9641 0.45011 0.91415 0.0
H262 H 0.98221 0.48356 0.18514 0.0
H263 H 0.93676 0.50013 0.20126 0.0
H264 H 0.19634 0.05289 0.42931 0.0
H265 H 0.21494 0.97372 0.35195 0.0
H266 H 0.17606 0.96269 0.43614 0.0
H267 H 0.17589 0.05126 0.64666 0.0
H268 H 0.14863 0.07302 0.64871 0.0
H269 H 0.17709 0.07486 0.5785 0.0
H270 H 0.14527 0.07051 0.4432 0.0
H271 H 0.11667 0.06879 0.51313 0.0
H272 H 0.12209 0.04409 0.41917 0.0
H273 H 0.13754 0.96033 0.53985 0.0
H274 H 0.10041 0.96653 0.6468 0.0
H275 H 0.10371 0.04697 0.65148 0.0
C276 C 0.19186 0.03318 0.42844 0.0
C277 C 0.20877 0.01416 0.38255 0.0
C278 C 0.20248 0.98868 0.38544 0.0
C279 C 0.18029 0.98221 0.4333 0.0
C280 C 0.16424 1.00139 0.47811 0.0
C281 C 0.16948 0.02637 0.47521 0.0
C282 C 0.14926 0.04332 0.53082 0.0
C283 C 0.16358 0.0617 0.6056 0.0
C284 C 0.13232 0.05752 0.47312 0.0
C285 C 0.13215 0.02401 0.56674 0.0
C286 C 0.14131 0.99994 0.53562 0.0
C287 C 0.12999 0.97906 0.56344 0.0
C288 C 0.10891 0.98278 0.62455 0.0
C289 C 0.09887 1.00717 0.65695 0.0
C290 C 0.11054 0.02804 0.62666 0.0
H291 H 0.52038 0.19986 0.71183 0.0
H292 H 0.50699 0.17903 0.43029 0.0
H293 H 0.51056 0.13389 0.4399 0.0
H294 H 0.56866 0.15052 0.73031 0.0
H295 H 0.55583 0.14583 0.83486 0.0
H296 H 0.55361 0.17631 0.8044 0.0
H297 H 0.50209 0.17589 0.82933 0.0
H298 H 0.50413 0.14536 0.8592 0.0
H299 H 0.48185 0.14997 0.77142 0.0
H300 H 0.51317 0.09077 0.48253 0.0
H301 H 0.51663 0.05348 0.55257 0.0
H302 H 0.52864 0.10261 0.80685 0.0
C303 C 0.51859 0.18579 0.65205 0.0
C304 C 0.51355 0.19291 0.57001 0.0
C305 C 0.51104 0.17394 0.49348 0.0
C306 C 0.51296 0.14829 0.4985 0.0
C307 C 0.51748 0.14188 0.58062 0.0
C308 C 0.52047 0.16012 0.65595 0.0
C309 C 0.5246 0.14824 0.73638 0.0
C310 C 0.55233 0.15567 0.77898 0.0
C311 C 0.50181 0.15529 0.80299 0.0
C312 C 0.52325 0.12047 0.69482 0.0
C313 C 0.51911 0.11717 0.60493 0.0
C314 C 0.51658 0.09318 0.55281 0.0
C315 C 0.51849 0.07206 0.59338 0.0
C316 C 0.52296 0.07492 0.68543 0.0
C317 C 0.52534 0.09959 0.73636 0.0
H318 H 0.39393 0.53884 0.37654 0.0
H319 H 0.33357 0.49353 0.47811 0.0
H320 H 0.36646 0.48393 0.5871 0.0
H321 H 0.45319 0.50146 0.41109 0.0
H322 H 0.47449 0.52887 0.4458 0.0
H323 H 0.44718 0.52987 0.36935 0.0
H324 H 0.42815 0.56882 0.47324 0.0
H325 H 0.4553 0.56785 0.55013 0.0
H326 H 0.42088 0.56698 0.58592 0.0
H327 H 0.40538 0.48092 0.69051 0.0
H328 H 0.44647 0.48553 0.78264 0.0
H329 H 0.48153 0.53498 0.62129 0.0
C330 C 0.38785 0.52643 0.42046 0.0
C331 C 0.36129 0.51617 0.41649 0.0
C332 C 0.35396 0.50072 0.4772 0.0
C333 C 0.3725 0.49541 0.54015 0.0
C334 C 0.39839 0.50597 0.54285 0.0
C335 C 0.40608 0.52125 0.48481 0.0
C336 C 0.43456 0.53158 0.50576 0.0
C337 C 0.45347 0.52239 0.42839 0.0
C338 C 0.43472 0.56052 0.53021 0.0
C339 C 0.4416 0.51991 0.58501 0.0
C340 C 0.4205 0.50503 0.60467 0.0
C341 C 0.42202 0.49248 0.67541 0.0
C342 C 0.44557 0.49524 0.72756 0.0
C343 C 0.46747 0.51062 0.7098 0.0
C344 C 0.4653 0.52305 0.637 0.0
H345 H 0.07175 0.36214 0.30028 0.0
H346 H 0.09358 0.30844 0.46319 0.0
H347 H 0.08567 0.34062 0.59708 0.0
H348 H 0.10233 0.41701 0.43577 0.0
H349 H 0.07576 0.43768 0.41547 0.0
H350 H 0.08324 0.41019 0.3344 0.0
H351 H 1.03318 0.39577 0.33779 0.0
H352 H 1.0261 0.42307 0.4205 0.0
H353 H 1.01854 0.39199 0.44096 0.0
H354 H 0.07663 0.37866 0.71207 0.0
H355 H 0.06531 0.4196 0.80262 0.0
H356 H 0.0485 0.44903 0.56563 0.0
C357 C 0.07484 0.35727 0.36433 0.0
C358 C 0.08369 0.33303 0.37201 0.0
C359 C 0.08716 0.32706 0.45645 0.0
C360 C 0.08271 0.34518 0.53256 0.0
C361 C 0.07455 0.36909 0.5229 0.0
C362 C 0.07045 0.37515 0.44103 0.0
C363 C 0.0615 0.40222 0.44921 0.0
C364 C 0.08195 0.41769 0.40624 0.0
C365 C 1.03315 0.40332 0.40978 0.0
C366 C 0.06141 0.4105 0.54857 0.0
C367 C 0.06901 0.39105 0.58956 0.0
C368 C 0.07057 0.39401 0.68077 0.0
C369 C 0.06408 0.41741 0.73166 0.0
C370 C 0.05602 0.43767 0.69152 0.0
C371 C 0.05468 0.43404 0.59851 0.0
H372 H 0.85274 0.02135 0.19638 0.0
H373 H 0.89324 0.00897 0.43304 0.0
H374 H 0.93645 1.004 0.35287 0.0
H375 H 0.89313 0.97684 0.03869 0.0
H376 H 0.89335 0.99678 0.95755 0.0
H377 H 0.86535 0.99749 0.03156 0.0
H378 H 0.8722 0.04563 0.0812 0.0
H379 H 0.90035 0.04505 0.00804 0.0
H380 H 0.90457 0.05795 0.12366 0.0
H381 H 0.97581 1.00379 0.25081 0.0
H382 H 1.00837 1.00588 0.13317 0.0
H383 H 0.94311 0.01769 0.95813 0.0
C384 C 0.87064 0.01708 0.23074 0.0
C385 C 0.86955 0.01532 0.32121 0.0
C386 C 0.89351 0.0101 0.3639 0.0
C387 C 0.91816 0.00737 0.31882 0.0
C388 C 0.91867 0.00975 0.23044 0.0
C389 C 0.8955 0.01423 0.18641 0.0
C390 C 0.90185 0.0167 0.092 0.0
C391 C 0.88757 0.9957 0.02604 0.0
C392 C 0.89429 0.04289 0.07528 0.0
C393 C 0.93227 0.01334 0.0902 0.0
C394 C 0.94145 0.00936 0.17099 0.0
C395 C 0.96877 1.00668 0.18719 0.0
C396 C 0.9872 0.00804 0.11961 0.0
C397 C 0.97854 0.01197 0.03566 0.0
C398 C 0.95051 0.01448 0.02099 0.0
H399 H 0.52585 0.88001 0.2362 0.0
H400 H 0.54797 0.81818 0.02835 0.0
H401 H 0.55398 0.84802 0.92674 0.0
H402 H 0.48748 0.913 0.1001 0.0
H403 H 0.49772 0.94402 0.15646 0.0
H404 H 0.49688 0.91822 0.21497 0.0
H405 H 0.54689 0.92681 0.26 0.0
H406 H 0.54792 0.95271 0.20186 0.0
H407 H 0.57177 0.92762 0.17613 0.0
H408 H 0.55621 0.88418 0.84628 0.0
H409 H 0.55364 0.92376 0.79053 0.0
H410 H 0.52933 0.96302 0.04899 0.0
C411 C 0.53248 0.87287 0.16972 0.0
C412 C 0.53734 0.84681 0.14113 0.0
C413 C 0.54495 0.83808 0.05264 0.0
C414 C 0.5483 0.85491 0.99433 0.0
C415 C 0.54361 0.88046 0.02486 0.0
C416 C 0.53581 0.88945 0.11043 0.0
C417 C 0.53095 0.91769 0.1252 0.0
C418 C 0.50151 0.92357 0.15068 0.0
C419 C 0.55055 0.93205 0.19494 0.0
C420 C 0.53706 0.92314 0.03436 0.0
C421 C 0.54443 0.90136 0.9778 0.0
C422 C 0.55056 0.90134 0.89011 0.0
C423 C 0.549 0.92405 0.85902 0.0
C424 C 0.54131 0.94673 0.91507 0.0
C425 C 0.53543 0.94616 1.00434 0.0
H426 H 0.65908 0.54678 0.44893 0.0
H427 H 0.72416 0.50492 0.30643 0.0
H428 H 0.69731 0.49951 0.16954 0.0
H429 H 0.60484 0.50806 0.33137 0.0
H430 H 0.58269 0.53423 0.3323 0.0
H431 H 0.60721 0.53519 0.4192 0.0
H432 H 0.62679 0.5772 0.38694 0.0
H433 H 0.60205 0.57632 0.30075 0.0
H434 H 0.63736 0.57884 0.27695 0.0
H435 H 0.66382 0.49978 0.04552 0.0
H436 H 0.62536 0.50297 0.94689 0.0
H437 H 0.58028 0.54259 0.16892 0.0
C438 C 0.66761 0.53636 0.38889 0.0
C439 C 0.69398 0.52654 0.38922 0.0
C440 C 0.7043 0.51296 0.30895 0.0
C441 C 0.68909 0.50971 0.23037 0.0
C442 C 0.66334 0.51984 0.23242 0.0
C443 C 0.65252 0.53264 0.30984 0.0
C444 C 0.6241 0.54123 0.29419 0.0
C445 C 0.6035 0.52894 0.34743 0.0
C446 C 0.62248 0.57012 0.31598 0.0
C447 C 0.62067 0.53135 0.19576 0.0
C448 C 0.64367 0.51925 0.16146 0.0
C449 C 0.64568 0.50908 0.07194 0.0
C450 C 0.62366 0.5111 0.01617 0.0
C451 C 0.59958 0.523 0.04948 0.0
C452 C 0.59824 0.53326 0.14095 0.0
H453 H 0.05776 0.68581 0.24462 0.0
H454 H 0.99308 0.67217 0.41739 0.0
H455 H 0.98166 0.63206 0.3165 0.0
H456 H 1.02386 0.65873 0.03655 0.0
H457 H 0.05416 0.64505 0.9861 0.0
H458 H 0.05611 0.67342 0.06872 0.0
H459 H 0.08917 0.65192 0.16053 0.0
H460 H 0.08737 0.62354 0.07817 0.0
H461 H 0.07949 0.62248 0.19101 0.0
H462 H 0.97863 0.59282 0.20118 0.0
H463 H 0.98498 0.55616 0.08223 0.0
H464 H 0.05213 0.59477 0.98359 0.0
C465 C 0.04106 0.67444 0.26061 0.0
C466 C 1.02612 0.68205 0.3384 0.0
C467 C 1.00459 0.66663 0.35777 0.0
C468 C 0.99796 0.64391 0.30085 0.0
C469 C 1.01311 0.63687 0.22481 0.0
C470 C 0.03425 0.65162 0.20457 0.0
C471 C 0.04808 0.6391 0.12075 0.0
C472 C 0.04538 0.65503 0.04877 0.0
C473 C 0.07778 0.63395 0.13873 0.0
C474 C 1.03171 0.6148 0.09785 0.0
C475 C 1.01149 0.61406 0.15838 0.0
C476 C 0.9943 0.59325 0.15313 0.0
C477 C 0.99812 0.57247 0.08519 0.0
C478 C 1.01905 0.57252 0.02321 0.0
C479 C 0.03577 0.59421 0.02918 0.0
H480 H 0.99779 0.21579 0.33546 0.0
H481 H 0.05563 0.25545 0.52382 0.0
H482 H 0.03995 0.23087 0.63406 0.0
H483 H 0.9442 0.20162 0.50148 0.0
H484 H 0.93813 0.17095 0.43436 0.0
H485 H 0.94681 0.19733 0.38342 0.0
H486 H 0.98633 0.17197 0.3042 0.0
H487 H 0.97836 0.14584 0.35601 0.0
H488 H 1.01163 0.15991 0.36862 0.0
H489 H 1.0276 0.19484 0.70562 0.0
H490 H 1.01796 0.15235 0.73567 0.0
H491 H 0.9691 0.13492 0.49842 0.0
C492 C 1.00597 0.22023 0.40175 0.0
C493 C 1.02761 0.23758 0.42207 0.0
C494 C 0.03863 0.24256 0.50804 0.0
C495 C 1.0299 0.22858 0.57073 0.0
C496 C 1.00996 0.21001 0.54625 0.0
C497 C 0.99772 0.20618 0.46409 0.0
C498 C 0.98065 0.18228 0.44735 0.0
C499 C 0.95066 0.18842 0.44134 0.0
C500 C 0.98982 0.16394 0.36423 0.0
C501 C 0.98667 0.17225 0.53007 0.0
C502 C 1.00305 0.18879 0.58737 0.0
C503 C 1.01413 0.18213 0.66259 0.0
C504 C 1.00876 0.15788 0.67871 0.0
C505 C 0.99265 0.1405 0.61949 0.0
C506 C 0.98086 0.14811 0.54585 0.0
H507 H 0.30447 0.96481 0.43301 0.0
H508 H 0.31122 0.91297 0.18506 0.0
H509 H 0.33774 0.88436 0.25759 0.0
H510 H 0.36617 0.96641 0.48397 0.0
H511 H 0.3641 0.96839 0.60148 0.0
H512 H 0.33644 0.97838 0.54319 0.0
H513 H 0.30474 0.94744 0.60433 0.0
H514 H 0.33276 0.93723 0.66279 0.0
H515 H 0.31272 0.91447 0.5882 0.0
H516 H 0.37385 0.86914 0.33925 0.0
H517 H 0.41803 0.87152 0.41336 0.0
H518 H 0.39062 0.93394 0.60936 0.0
C519 C 0.31021 0.94664 0.39589 0.0
C520 C 0.30554 0.94068 0.30444 0.0
C521 C 0.3143 0.91749 0.25571 0.0
C522 C 0.32921 0.9011 0.29671 0.0
C523 C 0.33529 0.90826 0.38632 0.0
C524 C 0.32576 0.93048 0.43579 0.0
C525 C 0.34034 0.93716 0.52361 0.0
C526 C 0.3525 0.96413 0.53869 0.0
C527 C 0.32152 0.93386 0.59919 0.0
C528 C 0.36183 0.91722 0.51088 0.0
C529 C 0.35755 0.8998 0.43387 0.0
C530 C 0.37703 0.88223 0.40076 0.0
C531 C 0.40218 0.88377 0.44307 0.0
C532 C 0.40779 0.9031 0.51656 0.0
C533 C 0.3867 0.91864 0.55446 0.0
H534 H 0.56873 0.33986 0.51797 0.0
H535 H 0.53731 0.30588 0.73007 0.0
H536 H 0.54378 0.34643 0.83275 0.0
H537 H 0.61472 0.38923 0.65194 0.0
H538 H 0.60509 0.41212 0.58701 0.0
H539 H 0.60607 0.37917 0.5372 0.0
H540 H 0.55657 0.38109 0.48615 0.0
H541 H 0.55515 0.4138 0.53683 0.0
H542 H 0.53105 0.39166 0.56652 0.0
H543 H 0.54512 0.39168 0.90461 0.0
H544 H 0.54094 0.43755 0.94148 0.0
H545 H 0.56654 0.44354 0.67796 0.0
C546 C 0.56386 0.34071 0.58659 0.0
C547 C 0.55235 0.3196 0.61572 0.0
C548 C 0.54651 0.32155 0.70617 0.0
C549 C 0.54998 0.34463 0.76492 0.0
C550 C 0.55929 0.36553 0.73217 0.0
C551 C 0.56634 0.36374 0.64507 0.0
C552 C 0.57147 0.38955 0.62268 0.0
C553 C 0.60111 0.3927 0.59829 0.0
C554 C 0.55242 0.39429 0.54873 0.0
C555 C 0.56497 0.40631 0.70981 0.0
C556 C 0.55875 0.39201 0.7726 0.0
C557 C 0.55039 0.40304 0.85642 0.0
C558 C 0.54796 0.42925 0.87645 0.0
C559 C 0.55342 0.44437 0.81253 0.0
C560 C 0.56247 0.43264 0.7285 0.0
H561 H 0.23828 0.42463 0.28116 0.0
H562 H 0.29096 0.46646 0.48177 0.0
H563 H 0.25973 0.45939 0.59506 0.0
H564 H 0.19146 0.45678 0.32408 0.0
H565 H 0.16258 0.43571 0.31126 0.0
H566 H 0.19304 0.42571 0.25639 0.0
H567 H 0.19431 0.3869 0.3314 0.0
H568 H 0.16318 0.39671 0.38612 0.0
H569 H 0.1922 0.39091 0.44946 0.0
H570 H 0.21861 0.47008 0.66956 0.0
H571 H 0.17617 0.49289 0.69458 0.0
H572 H 0.14479 0.45162 0.44653 0.0
C573 C 0.24357 0.43112 0.34973 0.0
C574 C 0.2662 0.44718 0.37216 0.0
C575 C 0.27352 0.45446 0.46189 0.0
C576 C 0.25557 0.45057 0.52742 0.0
C577 C 0.23033 0.43977 0.5021 0.0
C578 C 0.22455 0.42918 0.41474 0.0
C579 C 0.19432 0.42626 0.39927 0.0
C580 C 0.18485 0.4368 0.31814 0.0
C581 C 0.18549 0.39855 0.39115 0.0
C582 C 0.18441 0.44173 0.48469 0.0
C583 C 0.20518 0.44741 0.54576 0.0
C584 C 0.2021 0.46511 0.62327 0.0
C585 C 0.17807 0.47839 0.63626 0.0
C586 C 0.15751 0.47429 0.57138 0.0
C587 C 0.16016 0.45478 0.49743 0.0
H588 H 0.9799 0.80738 0.22958 0.0
H589 H 0.04857 0.75892 0.17443 0.0
H590 H 0.06507 0.78426 0.06829 0.0
H591 H 0.97723 0.83295 0.00924 0.0
H592 H 0.97011 0.86376 0.07185 0.0
H593 H 0.95715 0.83601 0.10729 0.0
H594 H 0.97942 0.8516 0.26009 0.0
H595 H 0.99327 0.87876 0.22506 0.0
H596 H 1.01527 0.85748 0.26705 0.0
H597 H 0.08111 0.82124 1.0068 0.0
H598 H 0.09393 0.86433 0.99068 0.0
H599 H 1.01831 0.89149 0.10977 0.0
C600 C 0.99741 0.80123 0.19037 0.0
C601 C 1.01297 0.78134 0.20958 0.0
C602 C 0.03616 0.77391 0.15942 0.0
C603 C 0.04578 0.7884 0.09948 0.0
C604 C 1.03186 0.81008 0.09075 0.0
C605 C 1.0078 0.81623 0.13398 0.0
C606 C 1.0002 0.84318 0.13275 0.0
C607 C 0.97466 0.84401 0.07692 0.0
C608 C 0.99689 0.85863 0.22674 0.0
C609 C 1.02463 0.8518 0.08828 0.0
C610 C 0.04216 0.83231 0.06124 0.0
C611 C 0.06724 0.83651 0.02612 0.0
C612 C 0.07457 0.86122 0.01884 0.0
C613 C 0.05723 0.88162 0.04918 0.0
C614 C 1.03184 0.87651 0.08324 0.0
H615 H 0.73465 0.94172 0.20563 0.0
H616 H 0.7976 0.99233 0.14937 0.0
H617 H 0.77211 1.00039 0.02353 0.0
H618 H 0.70055 0.9299 0.95705 0.0
H619 H 0.66818 0.93045 0.00941 0.0
H620 H 0.69619 0.91532 0.05172 0.0
H621 H 0.68856 0.94283 0.20505 0.0
H622 H 0.66138 0.95842 0.16351 0.0
H623 H 0.68948 0.97673 0.21716 0.0
H624 H 0.73505 0.02128 0.9732 0.0
H625 H 0.69346 0.04537 0.9819 0.0
H626 H 0.65015 0.98344 0.06252 0.0
C627 C 0.7435 0.95329 0.16299 0.0
C628 C 0.76743 0.96706 0.18906 0.0
C629 C 0.77913 0.98163 0.13175 0.0
C630 C 0.76458 0.98644 0.05949 0.0
C631 C 0.73849 0.97656 0.04552 0.0
C632 C 0.72838 0.95915 0.09309 0.0
C633 C 0.69801 0.9565 0.08291 0.0
C634 C 0.69029 0.93157 0.02157 0.0
C635 C 0.68359 0.95883 0.17243 0.0
C636 C 0.69243 0.9786 0.03877 0.0
C637 C 0.71599 0.989 0.013 0.0
C638 C 0.71639 0.01265 0.989 0.0
C639 C 0.69259 0.02639 0.99489 0.0
C640 C 0.6686 0.01644 0.02436 0.0
C641 C 0.66836 0.9917 0.04145 0.0
H642 H 0.5498 0.71442 0.01566 0.0
H643 H 0.47051 0.72481 0.12884 0.0
H644 H 0.4581 0.68095 0.06186 0.0
H645 H 0.52963 0.6638 0.808 0.0
H646 H 0.56088 0.64812 0.81958 0.0
H647 H 0.55933 0.68194 0.84891 0.0
H648 H 0.57872 0.67872 1.00259 0.0
H649 H 0.57858 0.64497 0.97499 0.0
H650 H 0.56058 0.66053 0.07032 0.0
H651 H 0.45882 0.63404 0.01974 0.0
H652 H 0.47063 0.58896 0.98905 0.0
H653 H 0.54991 0.60886 0.90448 0.0
C654 C 0.52921 0.70794 0.02023 0.0
C655 C 0.51076 0.72309 0.07456 0.0
C656 C 0.48449 0.71369 0.08459 0.0
C657 C 0.47742 0.6887 0.04753 0.0
C658 C 0.49682 0.67348 1.00013 0.0
C659 C 0.52201 0.68294 0.98418 0.0
C660 C 0.54066 0.66196 0.94425 0.0
C661 C 0.54803 0.66408 0.84953 0.0
C662 C 0.5661 0.66154 1.00151 0.0
C663 C 0.52267 0.6392 0.94565 0.0
C664 C 0.49734 0.64617 0.9767 0.0
C665 C 0.47832 0.62835 0.99286 0.0
C666 C 0.48531 0.60279 0.97615 0.0
C667 C 0.51118 0.5953 0.94428 0.0
C668 C 0.52986 0.61385 0.928 0.0
H669 H 0.83415 0.57826 0.34303 0.0
H670 H 0.77142 0.52607 0.22387 0.0
H671 H 0.79689 0.51658 0.08913 0.0
H672 H 0.8683 0.58771 0.1119 0.0
H673 H 0.90071 0.58732 0.16468 0.0
H674 H 0.87276 0.60267 0.2256 0.0
H675 H 0.88038 0.57557 0.3443 0.0
H676 H 0.90754 0.55977 0.28354 0.0
H677 H 0.8794 0.54166 0.31282 0.0
H678 H 0.83383 0.49589 0.01066 0.0
H679 H 0.87578 0.47224 0.98759 0.0
H680 H 0.91884 0.53477 0.1493 0.0
C681 C 0.82539 0.56574 0.28674 0.0
C682 C 0.80136 0.55227 0.29584 0.0
C683 C 0.78985 0.53671 0.22019 0.0
C684 C 0.8044 0.53104 0.1423 0.0
C685 C 0.8304 0.54093 0.14089 0.0
C686 C 0.84053 0.55891 0.21011 0.0
C687 C 0.87088 0.56151 0.20403 0.0
C688 C 0.87861 0.58627 0.17475 0.0
C689 C 0.88533 0.55944 0.29122 0.0
C690 C 0.87642 0.53918 0.1317 0.0
C691 C 0.85283 0.52844 0.0926 0.0
C692 C 0.8525 0.50472 0.03775 0.0
C693 C 0.87646 0.49125 0.02555 0.0
C694 C 0.90047 0.50153 0.06806 0.0
C695 C 0.9006 0.52631 0.1174 0.0
H696 H 0.089 0.18658 0.23233 0.0
H697 H 0.05915 0.22552 0.0315 0.0
H698 H 0.06125 0.1859 0.92182 0.0
H699 H 0.13182 0.13867 0.08497 0.0
H700 H 0.12209 0.11445 0.14477 0.0
H701 H 0.12486 0.14681 0.20104 0.0
H702 H 0.07583 0.14437 0.2553 0.0
H703 H 0.0727 0.11225 0.19843 0.0
H704 H 0.04906 0.13528 0.17592 0.0
H705 H 0.05716 0.14125 0.84383 0.0
H706 H 0.04941 0.09543 0.80093 0.0
H707 H 0.08124 0.08468 0.05214 0.0
C708 C 0.08381 0.18695 0.16449 0.0
C709 C 0.07399 0.20916 0.14026 0.0
C710 C 0.06716 0.20888 0.05119 0.0
C711 C 0.06818 0.1864 0.9886 0.0
C712 C 0.07637 0.16448 0.01605 0.0
C713 C 0.08448 0.16466 0.10173 0.0
C714 C 0.08893 0.13815 0.11759 0.0
C715 C 0.1187 0.1343 0.1383 0.0
C716 C 0.07053 0.13218 0.1911 0.0
C717 C 0.08081 0.12287 0.02862 0.0
C718 C 0.07403 0.13847 0.97066 0.0
C719 C 0.06308 0.12889 0.88785 0.0
C720 C 0.05858 0.10285 0.86424 0.0
C721 C 0.06499 0.08657 0.92285 0.0
C722 C 0.07686 0.09666 1.00526 0.0
H723 H 0.34141 0.96367 0.03798 0.0
H724 H 0.32648 0.04018 0.17194 0.0
H725 H 0.36675 0.05485 0.10139 0.0
H726 H 0.41135 0.96596 0.06458 0.0
H727 H 0.41881 0.94707 0.95869 0.0
H728 H 0.38709 0.94297 0.0103 0.0
H729 H 0.36161 0.95129 0.8723 0.0
H730 H 0.3933 0.95523 0.81994 0.0
H731 H 0.36866 0.97977 0.83144 0.0
H732 H 0.41191 0.06038 0.03026 0.0
H733 H 0.45616 0.057 0.95797 0.0
H734 H 0.44224 0.97682 0.86785 0.0
C735 C 0.34628 0.98362 0.05143 0.0
C736 C 0.33048 1.00077 0.11096 0.0
C737 C 0.33777 0.02668 0.12601 0.0
C738 C 0.36083 0.03515 0.08656 0.0
C739 C 0.37641 0.0176 0.03103 0.0
C740 C 0.36919 0.99239 0.01236 0.0
C741 C 0.39007 0.97717 0.95378 0.0
C742 C 0.40256 0.95711 0.99959 0.0
C743 C 0.37767 0.96516 0.86405 0.0
C744 C 0.4106 0.99763 0.94424 0.0
C745 C 0.40223 0.02082 0.98909 0.0
C746 C 0.41839 0.04235 0.99406 0.0
C747 C 0.44366 0.0402 0.95281 0.0
C748 C 0.45287 0.01668 0.90634 0.0
C749 C 0.43578 0.99516 0.90147 0.0
H750 H 0.54388 0.30379 0.28673 0.0
H751 H 0.46417 0.28575 0.36932 0.0
H752 H 0.44465 0.3155 0.28344 0.0
H753 H 0.53617 0.365 0.32502 0.0
H754 H 0.55545 0.37261 0.23496 0.0
H755 H 0.5626 0.34454 0.27641 0.0
H756 H 0.55515 0.31704 0.12156 0.0
H757 H 0.54876 0.34516 0.07839 0.0
H758 H 0.52433 0.31969 0.06203 0.0
H759 H 0.43542 0.35438 0.22059 0.0
H760 H 0.43678 0.39604 0.17729 0.0
H761 H 0.52298 0.3893 0.13752 0.0
C762 C 0.52218 0.30488 0.2815 0.0
C763 C 0.50541 0.29201 0.33239 0.0
C764 C 0.47721 0.29479 0.32834 0.0
C765 C 0.46604 0.3119 0.28048 0.0
C766 C 0.48338 0.32589 0.23666 0.0
C767 C 0.51088 0.32211 0.23519 0.0
C768 C 0.52566 0.34207 0.19602 0.0
C769 C 0.54615 0.35691 0.26205 0.0
C770 C 0.53927 0.33028 0.10933 0.0
C771 C 0.50241 0.35843 0.17972 0.0
C772 C 0.47813 0.34862 0.20209 0.0
C773 C 0.45424 0.36181 0.20051 0.0
C774 C 0.45521 0.38553 0.17572 0.0
C775 C 0.47997 0.39606 0.15352 0.0
C776 C 0.50371 0.38195 0.15431 0.0
H777 H 0.20891 0.50042 0.25554 0.0
H778 H 0.26465 0.50088 0.04117 0.0
H779 H 0.22634 0.50664 0.94349 0.0
H780 H 0.15884 0.46419 0.13425 0.0
H781 H 0.13036 0.4806 0.18804 0.0
H782 H 0.16162 0.48056 0.24699 0.0
H783 H 0.1643 0.52881 0.2822 0.0
H784 H 0.13225 0.52976 0.2278 0.0
H785 H 0.16097 0.54636 0.19463 0.0
H786 H 0.18081 0.5082 0.86534 0.0
H787 H 0.13342 0.50775 0.81615 0.0
H788 H 0.10718 0.50526 0.08158 0.0
C789 C 0.21321 0.50213 0.18836 0.0
C790 C 0.24004 0.50015 0.15624 0.0
C791 C 0.24452 0.50265 0.06793 0.0
C792 C 0.22277 0.50571 0.01175 0.0
C793 C 0.19655 0.50649 0.04478 0.0
C794 C 0.19177 0.50511 0.13159 0.0
C795 C 0.16171 0.50536 0.15035 0.0
C796 C 0.15261 0.48122 0.18164 0.0
C797 C 0.15438 0.52898 0.21773 0.0
C798 C 0.15014 0.50635 0.05997 0.0
C799 C 0.17056 0.50723 1.00011 0.0
C800 C 0.16477 0.50772 0.91207 0.0
C801 C 0.13764 0.5074 0.88468 0.0
C802 C 0.11624 0.50647 0.94469 0.0
C803 C 0.12285 0.50599 0.03371 0.0
H804 H 0.04191 0.83526 0.45397 0.0
H805 H 0.99305 0.79832 0.6254 0.0
H806 H 0.99236 0.83829 0.73473 0.0
H807 H 0.07878 0.87997 0.62016 0.0
H808 H 0.0766 0.90467 0.55694 0.0
H809 H 0.07737 0.87222 0.50162 0.0
H810 H 1.03302 0.87838 0.42031 0.0
H811 H 1.03163 0.91066 0.47634 0.0
H812 H 1.00367 0.88949 0.48302 0.0
H813 H 0.99559 0.88389 0.82217 0.0
H814 H 1.00014 0.93011 0.87416 0.0
H815 H 0.04021 0.93705 0.63174 0.0
C816 C 1.03098 0.83535 0.51436 0.0
C817 C 1.01721 0.81353 0.53019 0.0
C818 C 1.00396 0.8146 0.61169 0.0
C819 C 1.0033 0.83731 0.67392 0.0
C820 C 1.01578 0.85878 0.65326 0.0
C821 C 1.0293 0.85787 0.57505 0.0
C822 C 0.0388 0.88375 0.56335 0.0
C823 C 0.06972 0.88523 0.56038 0.0
C824 C 1.026 0.89099 0.4809 0.0
C825 C 1.02817 0.89962 0.64668 0.0
C826 C 1.01556 0.88491 0.69904 0.0
C827 C 1.00514 0.89552 0.78107 0.0
C828 C 1.00772 0.92174 0.80991 0.0
C829 C 1.01989 0.93706 0.75577 0.0
C830 C 1.03014 0.92581 0.6732 0.0
H831 H 0.71152 0.96429 0.43775 0.0
H832 H 0.75485 0.03045 0.5775 0.0
H833 H 0.71523 0.04134 0.67209 0.0
H834 H 0.6486 0.99513 0.42991 0.0
H835 H 0.6286 0.96788 0.44154 0.0
H836 H 0.66122 0.96394 0.39093 0.0
H837 H 0.67602 0.93688 0.50367 0.0
H838 H 0.64343 0.9407 0.55464 0.0
H839 H 0.67348 0.94951 0.6198 0.0
H840 H 0.66936 0.04582 0.74978 0.0
H841 H 0.6222 0.04396 0.79904 0.0
H842 H 0.60752 0.977 0.60085 0.0
C843 C 0.71294 0.98129 0.48743 0.0
C844 C 0.73691 0.9965 0.49855 0.0
C845 C 0.73734 0.01808 0.56714 0.0
C846 C 0.71467 0.0246 0.62111 0.0
C847 C 0.69132 0.00956 0.60601 0.0
C848 C 0.69033 0.98837 0.54044 0.0
C849 C 0.66247 0.97594 0.5345 0.0
C850 C 0.64946 0.97572 0.44384 0.0
C851 C 0.66395 0.94917 0.55434 0.0
C852 C 0.64775 0.99346 0.6069 0.0
C853 C 0.66487 0.01258 0.64812 0.0
C854 C 0.65597 0.03085 0.71783 0.0
C855 C 0.62913 0.02953 0.74607 0.0
C856 C 0.61111 0.01024 0.705 0.0
C857 C 0.62066 0.99208 0.6337 0.0
H858 H 0.51261 0.72447 0.38836 0.0
H859 H 0.59329 0.75338 0.36155 0.0
H860 H 0.61091 0.72451 0.45445 0.0
H861 H 0.52062 0.7094 0.61594 0.0
H862 H 0.50049 0.68105 0.58534 0.0
H863 H 0.49382 0.70802 0.53595 0.0
H864 H 0.49889 0.68014 0.38132 0.0
H865 H 0.50611 0.65325 0.42986 0.0
H866 H 0.52964 0.66316 0.35441 0.0
H867 H 0.62041 0.68718 0.52819 0.0
H868 H 0.62076 0.64712 0.58272 0.0
H869 H 0.53387 0.64102 0.55176 0.0
C870 C 0.53385 0.72547 0.40517 0.0
C871 C 0.55156 0.7414 0.36837 0.0
C872 C 0.57928 0.7418 0.39044 0.0
C873 C 0.58947 0.72524 0.44252 0.0
C874 C 0.57164 0.70854 0.47256 0.0
C875 C 0.5443 0.70887 0.45573 0.0
C876 C 0.52971 0.68718 0.48583 0.0
C877 C 0.50999 0.697 0.5602 0.0
C878 C 0.51526 0.66992 0.40823 0.0
C879 C 0.55316 0.674 0.51956 0.0
C880 C 0.57714 0.68676 0.51257 0.0
C881 C 0.60167 0.67728 0.53488 0.0
C882 C 0.60168 0.65429 0.56492 0.0
C883 C 0.57735 0.64069 0.57167 0.0
C884 C 0.55281 0.65101 0.54924 0.0
H885 H 0.86083 0.52289 0.47177 0.0
H886 H 0.80741 0.52957 0.69619 0.0
H887 H 0.84627 0.52267 0.78964 0.0
H888 H 0.90577 0.4772 0.52723 0.0
H889 H 0.93529 0.49184 0.4903 0.0
H890 H 0.90299 0.49511 0.44046 0.0
H891 H 0.90837 0.54361 0.47742 0.0
H892 H 0.94073 0.54058 0.52717 0.0
H893 H 0.91497 0.55902 0.58957 0.0
H894 H 0.89263 0.51561 0.85992 0.0
H895 H 0.94063 0.51126 0.89919 0.0
H896 H 0.96357 0.51391 0.63166 0.0
C897 C 0.85693 0.52348 0.5408 0.0
C898 C 0.83049 0.5273 0.57586 0.0
C899 C 0.82706 0.52659 0.66645 0.0
C900 C 0.84919 0.52283 0.72047 0.0
C901 C 0.87493 0.51997 0.68373 0.0
C902 C 0.87879 0.52044 0.59582 0.0
C903 C 0.90847 0.51815 0.57223 0.0
C904 C 0.91341 0.49414 0.50349 0.0
C905 C 0.91873 0.54175 0.5397 0.0
C906 C 0.92095 0.51634 0.66066 0.0
C907 C 0.90126 0.51703 0.72409 0.0
C908 C 0.90802 0.51506 0.81038 0.0
C909 C 0.93535 0.51239 0.8321 0.0
C910 C 0.95586 0.51202 0.76858 0.0
C911 C 0.94841 0.51422 0.68185 0.0
loop_
_geom_bond_atom_site_label_1
_geom_bond_atom_site_label_2
_geom_bond_distance
_geom_bond_site_symmetry_2
_ccdc_geom_bond_type
H0 C7 0.929 . S
H1 C10 0.930 . S
H2 C12 0.929 . S
H3 C4 0.969 . S
C4 H3 0.969 . S
C4 O5 1.550 . S
C4 H6 0.973 . S
O5 C4 1.550 . S
O5 C11 1.412 . S
H6 C4 0.973 . S
C7 H0 0.929 . S
C7 C8 1.400 . S
C7 C9 1.364 . S
C8 C7 1.400 . S
C8 C12 1.377 . S
C9 C7 1.364 . S
C9 C10 1.374 . S
C10 H1 0.930 . S
C10 C9 1.374 . S
C10 C11 1.383 . S
C11 O5 1.412 . S
C11 C10 1.383 . S
C11 C12 1.394 . S
C12 H2 0.929 . S
C12 C8 1.377 . S
C12 C11 1.394 . S
H13 C20 0.928 . S
H14 C23 0.933 . S
H15 C25 0.930 . S
H16 C17 0.969 . S
C17 H16 0.969 . S
C17 O18 1.550 1_455 S
C17 H19 0.973 1_455 S
O18 C17 1.550 1_655 S
O18 C24 1.411 . S
H19 C17 0.973 1_655 S
C20 H13 0.928 . S
C20 C21 1.399 . S
C20 C22 1.364 . S
C21 C20 1.399 . S
C21 C25 1.377 . S
C22 C20 1.364 . S
C22 C23 1.375 . S
C23 H14 0.933 . S
C23 C22 1.375 . S
C23 C24 1.382 . S
C24 O18 1.411 . S
C24 C23 1.382 . S
C24 C25 1.394 . S
C25 H15 0.930 . S
C25 C21 1.377 . S
C25 C24 1.394 . S
H26 C33 0.928 1_565 S
H27 C36 0.937 . S
H28 C38 0.925 1_565 S
H29 C30 0.969 . S
C30 H29 0.969 . S
C30 O31 1.550 1_545 S
C30 H32 0.973 1_545 S
O31 C30 1.550 1_565 S
O31 C37 1.404 1_565 S
H32 C30 0.973 1_565 S
C33 H26 0.928 1_545 S
C33 C34 1.402 . S
C33 C35 1.363 . S
C34 C33 1.402 . S
C34 C38 1.377 . S
C35 C33 1.363 . S
C35 C36 1.374 1_545 S
C36 H27 0.937 . S
C36 C35 1.374 1_565 S
C36 C37 1.389 1_565 S
C37 O31 1.404 1_545 S
C37 C36 1.389 1_545 S
C37 C38 1.389 . S
C38 H28 0.925 1_545 S
C38 C34 1.377 . S
C38 C37 1.389 . S
H39 C46 0.929 . S
H40 C49 0.930 . S
H41 C51 0.929 . S
H42 C43 0.969 . S
C43 H42 0.969 . S
C43 O44 1.550 1_556 S
C43 H45 0.973 . S
O44 C43 1.550 1_554 S
O44 C50 1.412 . S
H45 C43 0.973 . S
C46 H39 0.929 . S
C46 C47 1.400 . S
C46 C48 1.364 1_554 S
C47 C46 1.400 . S
C47 C51 1.377 . S
C48 C46 1.364 1_556 S
C48 C49 1.374 . S
C49 H40 0.930 . S
C49 C48 1.374 . S
C49 C50 1.383 1_556 S
C50 O44 1.412 . S
C50 C49 1.383 1_554 S
C50 C51 1.394 . S
C51 H41 0.929 . S
C51 C47 1.377 . S
C51 C50 1.394 . S
H52 C59 0.929 . S
H53 C62 0.930 . S
H54 C64 0.929 . S
H55 C56 0.969 . S
C56 H55 0.969 . S
C56 O57 1.550 . S
C56 H58 0.973 . S
O57 C56 1.550 . S
O57 C63 1.412 . S
H58 C56 0.973 . S
C59 H52 0.929 . S
C59 C60 1.400 . S
C59 C61 1.364 . S
C60 C59 1.400 . S
C60 C64 1.377 . S
C61 C59 1.364 . S
C61 C62 1.374 . S
C62 H53 0.930 . S
C62 C61 1.374 . S
C62 C63 1.383 . S
C63 O57 1.412 . S
C63 C62 1.383 . S
C63 C64 1.394 . S
C64 H54 0.929 . S
C64 C60 1.377 . S
C64 C63 1.394 . S
H65 C72 0.929 . S
H66 C75 0.932 . S
H67 C77 0.932 . S
H68 C69 0.969 . S
C69 H68 0.969 . S
C69 O70 1.550 1_455 S
C69 H71 0.973 1_455 S
O70 C69 1.550 1_655 S
O70 C76 1.412 1_655 S
H71 C69 0.973 1_655 S
C72 H65 0.929 . S
C72 C73 1.400 . S
C72 C74 1.364 . S
C73 C72 1.400 . S
C73 C77 1.377 . S
C74 C72 1.364 . S
C74 C75 1.374 . S
C75 H66 0.932 . S
C75 C74 1.374 . S
C75 C76 1.383 . S
C76 O70 1.412 1_455 S
C76 C75 1.383 . S
C76 C77 1.394 . S
C77 H67 0.932 . S
C77 C73 1.377 . S
C77 C76 1.394 . S
H78 C85 0.928 1_565 S
H79 C88 0.922 . S
H80 C90 0.932 1_565 S
H81 C82 0.969 . S
C82 H81 0.969 . S
C82 O83 1.550 1_545 S
C82 H84 0.973 1_545 S
O83 C82 1.550 1_565 S
O83 C89 1.403 1_565 S
H84 C82 0.973 1_565 S
C85 H78 0.928 1_545 S
C85 C86 1.397 . S
C85 C87 1.365 . S
C86 C85 1.397 . S
C86 C90 1.377 . S
C87 C85 1.365 . S
C87 C88 1.374 1_545 S
C88 H79 0.922 . S
C88 C87 1.374 1_565 S
C88 C89 1.376 1_565 S
C89 O83 1.403 1_545 S
C89 C88 1.376 1_545 S
C89 C90 1.400 . S
C90 H80 0.932 1_545 S
C90 C86 1.377 . S
C90 C89 1.400 . S
H91 C98 0.929 . S
H92 C101 0.930 . S
H93 C103 0.929 . S
H94 C95 0.969 . S
C95 H94 0.969 . S
C95 O96 1.550 . S
C95 H97 0.973 . S
O96 C95 1.550 . S
O96 C102 1.412 . S
H97 C95 0.973 . S
C98 H91 0.929 . S
C98 C99 1.400 . S
C98 C100 1.364 . S
C99 C98 1.400 . S
C99 C103 1.377 . S
C100 C98 1.364 . S
C100 C101 1.374 . S
C101 H92 0.930 . S
C101 C100 1.374 . S
C101 C102 1.383 . S
C102 O96 1.412 . S
C102 C101 1.383 . S
C102 C103 1.394 . S
C103 H93 0.929 . S
C103 C99 1.377 . S
C103 C102 1.394 . S
Tb104 C113 2.764 . S
Tb104 O114 2.325 . S
Tb104 O117 2.303 1_655 S
Tb104 O121 2.322 1_545 S
Tb104 O122 2.349 . S
Tb104 O125 2.415 . S
Tb104 O126 2.399 . S
Tb105 O115 2.322 1_565 S
Tb105 O116 2.349 . S
Tb105 O118 2.415 . S
Tb105 O119 2.399 . S
Tb105 O120 2.325 . S
Tb105 O123 2.303 1_455 S
Tb105 C134 2.764 . S
C106 O122 1.265 . S
C106 O123 1.256 1_545 S
C107 C110 1.358 . S
C107 C111 1.332 . S
C107 C113 1.504 . S
C108 C109 1.373 . S
C108 C112 1.308 . S
C109 C108 1.373 . S
C109 C110 1.429 . S
C109 H136 0.932 . S
C110 C107 1.358 . S
C110 C109 1.429 . S
C110 H137 0.930 . S
C111 C107 1.332 . S
C111 C112 1.394 . S
C111 H138 0.932 1_655 S
C112 C108 1.308 . S
C112 C111 1.394 . S
C112 H139 0.929 1_655 S
C113 Tb104 2.764 . S
C113 C107 1.504 . S
C113 O125 1.239 . S
C113 O126 1.263 . S
O114 Tb104 2.325 . S
O114 C124 1.236 1_655 S
O115 Tb105 2.322 1_545 S
O115 C124 1.257 . S
O116 Tb105 2.349 . S
O116 C127 1.259 . S
O117 Tb104 2.303 1_455 S
O117 C127 1.258 1_545 S
O118 Tb105 2.415 . S
O118 C134 1.239 . S
O119 Tb105 2.399 . S
O119 C134 1.263 . S
O120 Tb105 2.325 . S
O120 C135 1.236 1_455 S
O121 Tb104 2.322 1_565 S
O121 C135 1.257 . S
O122 Tb104 2.349 . S
O122 C106 1.265 . S
O123 Tb105 2.303 1_655 S
O123 C106 1.256 1_565 S
C124 O114 1.236 1_455 S
C124 O115 1.257 . S
O125 Tb104 2.415 . S
O125 C113 1.239 . S
O126 Tb104 2.399 . S
O126 C113 1.263 . S
C127 O116 1.259 . S
C127 O117 1.258 1_565 S
C128 C131 1.358 . S
C128 C132 1.332 . S
C128 C134 1.504 1_554 S
C129 C130 1.373 . S
C129 C133 1.308 . S
C130 C129 1.373 . S
C130 C131 1.429 . S
C130 H140 0.932 . S
C131 C128 1.358 . S
C131 C130 1.429 . S
C131 H141 0.930 . S
C132 C128 1.332 . S
C132 C133 1.394 . S
C132 H142 0.932 1_455 S
C133 C129 1.308 . S
C133 C132 1.394 . S
C133 H143 0.929 1_455 S
C134 Tb105 2.764 . S
C134 O118 1.239 . S
C134 O119 1.263 . S
C134 C128 1.504 1_556 S
C135 O120 1.236 1_655 S
C135 O121 1.257 . S
H136 C109 0.932 . S
H137 C110 0.930 . S
H138 C111 0.932 1_455 S
H139 C112 0.929 1_455 S
H140 C130 0.932 . S
H141 C131 0.930 . S
H142 C132 0.932 1_655 S
H143 C133 0.929 1_655 S
Tb144 C153 2.764 . S
Tb144 O154 2.325 . S
Tb144 O157 2.303 1_565 S
Tb144 O161 2.322 . S
Tb144 O162 2.349 . S
Tb144 O165 2.415 1_565 S
Tb144 O166 2.399 . S
Tb145 O155 2.322 . S
Tb145 O156 2.349 . S
Tb145 O158 2.415 1_545 S
Tb145 O159 2.399 1_556 S
Tb145 O160 2.325 . S
Tb145 O163 2.303 1_545 S
Tb145 C174 2.764 1_556 S
C146 O162 1.261 . S
C146 O163 1.257 . S
C147 C150 1.358 . S
C147 C151 1.332 1_565 S
C147 C153 1.504 . S
C148 C149 1.373 . S
C148 C152 1.308 1_565 S
C149 C148 1.373 . S
C149 C150 1.429 . S
C149 H176 0.932 . S
C150 C147 1.358 . S
C150 C149 1.429 . S
C150 H177 0.930 . S
C151 C147 1.332 1_545 S
C151 C152 1.394 . S
C151 H178 0.932 . S
C152 C148 1.308 1_545 S
C152 C151 1.394 . S
C152 H179 0.929 . S
C153 Tb144 2.764 . S
C153 C147 1.504 . S
C153 O165 1.239 1_565 S
C153 O166 1.263 . S
O154 Tb144 2.325 . S
O154 C164 1.236 1_565 S
O155 Tb145 2.322 . S
O155 C164 1.257 . S
O156 Tb145 2.349 . S
O156 C167 1.261 . S
O157 Tb144 2.303 1_545 S
O157 C167 1.257 . S
O158 Tb145 2.415 1_565 S
O158 C174 1.239 1_566 S
O159 Tb145 2.399 1_554 S
O159 C174 1.263 . S
O160 Tb145 2.325 . S
O160 C175 1.236 1_545 S
O161 Tb144 2.322 . S
O161 C175 1.257 . S
O162 Tb144 2.349 . S
O162 C146 1.261 . S
O163 Tb145 2.303 1_565 S
O163 C146 1.257 . S
C164 O154 1.236 1_545 S
C164 O155 1.257 . S
O165 Tb144 2.415 1_545 S
O165 C153 1.239 1_545 S
O166 Tb144 2.399 . S
O166 C153 1.263 . S
C167 O156 1.261 . S
C167 O157 1.257 . S
C168 C171 1.358 . S
C168 C172 1.332 1_545 S
C168 C174 1.504 . S
C169 C170 1.373 . S
C169 C173 1.308 1_545 S
C170 C169 1.373 . S
C170 C171 1.429 . S
C170 H180 0.932 . S
C171 C168 1.358 . S
C171 C170 1.429 . S
C171 H181 0.930 . S
C172 C168 1.332 1_565 S
C172 C173 1.394 . S
C172 H182 0.932 . S
C173 C169 1.308 1_565 S
C173 C172 1.394 . S
C173 H183 0.929 . S
C174 Tb145 2.764 1_554 S
C174 O158 1.239 1_544 S
C174 O159 1.263 . S
C174 C168 1.504 . S
C175 O160 1.236 1_565 S
C175 O161 1.257 . S
H176 C149 0.932 . S
H177 C150 0.930 . S
H178 C151 0.932 . S
H179 C152 0.929 . S
H180 C170 0.932 . S
H181 C171 0.930 . S
H182 C172 0.932 . S
H183 C173 0.929 . S
Tb184 C193 2.764 1_556 S
Tb184 O194 2.325 . S
Tb184 O197 2.303 . S
Tb184 O201 2.322 . S
Tb184 O202 2.349 . S
Tb184 O205 2.415 1_556 S
Tb184 O206 2.399 . S
Tb185 O195 2.322 . S
Tb185 O196 2.349 . S
Tb185 O198 2.415 . S
Tb185 O199 2.399 . S
Tb185 O200 2.325 . S
Tb185 O203 2.303 . S
Tb185 C214 2.764 . S
C186 O202 1.261 . S
C186 O203 1.257 . S
C187 C190 1.358 . S
C187 C191 1.332 . S
C187 C193 1.504 . S
C188 C189 1.373 . S
C188 C192 1.308 . S
C189 C188 1.373 . S
C189 C190 1.429 . S
C189 H216 0.932 . S
C190 C187 1.358 . S
C190 C189 1.429 . S
C190 H217 0.930 . S
C191 C187 1.332 . S
C191 C192 1.394 . S
C191 H218 0.932 . S
C192 C188 1.308 . S
C192 C191 1.394 . S
C192 H219 0.929 . S
C193 Tb184 2.764 1_554 S
C193 C187 1.504 . S
C193 O205 1.239 . S
C193 O206 1.263 1_554 S
O194 Tb184 2.325 . S
O194 C204 1.236 . S
O195 Tb185 2.322 . S
O195 C204 1.257 . S
O196 Tb185 2.349 . S
O196 C207 1.261 . S
O197 Tb184 2.303 . S
O197 C207 1.257 . S
O198 Tb185 2.415 . S
O198 C214 1.239 . S
O199 Tb185 2.399 . S
O199 C214 1.263 . S
O200 Tb185 2.325 . S
O200 C215 1.236 . S
O201 Tb184 2.322 . S
O201 C215 1.257 . S
O202 Tb184 2.349 . S
O202 C186 1.261 . S
O203 Tb185 2.303 . S
O203 C186 1.257 . S
C204 O194 1.236 . S
C204 O195 1.257 . S
O205 Tb184 2.415 1_554 S
O205 C193 1.239 . S
O206 Tb184 2.399 . S
O206 C193 1.263 1_556 S
C207 O196 1.261 . S
C207 O197 1.257 . S
C208 C211 1.358 . S
C208 C212 1.332 . S
C208 C214 1.504 . S
C209 C210 1.373 . S
C209 C213 1.308 . S
C210 C209 1.373 . S
C210 C211 1.429 . S
C210 H220 0.932 . S
C211 C208 1.358 . S
C211 C210 1.429 . S
C211 H221 0.930 . S
C212 C208 1.332 . S
C212 C213 1.394 . S
C212 H222 0.932 . S
C213 C209 1.308 . S
C213 C212 1.394 . S
C213 H223 0.929 . S
C214 Tb185 2.764 . S
C214 O198 1.239 . S
C214 O199 1.263 . S
C214 C208 1.504 . S
C215 O200 1.236 . S
C215 O201 1.257 . S
H216 C189 0.932 . S
H217 C190 0.930 . S
H218 C191 0.932 . S
H219 C192 0.929 . S
H220 C210 0.932 . S
H221 C211 0.930 . S
H222 C212 0.932 . S
H223 C213 0.929 . S
Tb224 C233 2.764 . S
Tb224 O234 2.325 . S
Tb224 O237 2.303 . S
Tb224 O241 2.322 1_455 S
Tb224 O242 2.349 . S
Tb224 O245 2.415 . S
Tb224 O246 2.399 . S
Tb225 O235 2.322 1_655 S
Tb225 O236 2.349 . S
Tb225 O238 2.415 1_556 S
Tb225 O239 2.399 . S
Tb225 O240 2.325 . S
Tb225 O243 2.303 . S
Tb225 C254 2.764 1_556 S
C226 O242 1.261 . S
C226 O243 1.257 1_455 S
C227 C230 1.358 . S
C227 C231 1.332 . S
C227 C233 1.504 . S
C228 C229 1.373 . S
C228 C232 1.308 . S
C229 C228 1.373 . S
C229 C230 1.429 . S
C229 H256 0.932 . S
C230 C227 1.358 . S
C230 C229 1.429 . S
C230 H257 0.930 . S
C231 C227 1.332 . S
C231 C232 1.394 . S
C231 H258 0.932 . S
C232 C228 1.308 . S
C232 C231 1.394 . S
C232 H259 0.929 . S
C233 Tb224 2.764 . S
C233 C227 1.504 . S
C233 O245 1.239 . S
C233 O246 1.263 . S
O234 Tb224 2.325 . S
O234 C244 1.236 . S
O235 Tb225 2.322 1_455 S
O235 C244 1.257 . S
O236 Tb225 2.349 . S
O236 C247 1.261 . S
O237 Tb224 2.303 . S
O237 C247 1.257 1_455 S
O238 Tb225 2.415 1_554 S
O238 C254 1.239 . S
O239 Tb225 2.399 . S
O239 C254 1.263 1_556 S
O240 Tb225 2.325 . S
O240 C255 1.236 . S
O241 Tb224 2.322 1_655 S
O241 C255 1.257 . S
O242 Tb224 2.349 . S
O242 C226 1.261 . S
O243 Tb225 2.303 . S
O243 C226 1.257 1_655 S
C244 O234 1.236 . S
C244 O235 1.257 . S
O245 Tb224 2.415 . S
O245 C233 1.239 . S
O246 Tb224 2.399 . S
O246 C233 1.263 . S
C247 O236 1.261 . S
C247 O237 1.257 1_655 S
C248 C251 1.358 . S
C248 C252 1.332 . S
C248 C254 1.504 . S
C249 C250 1.373 . S
C249 C253 1.308 . S
C250 C249 1.373 . S
C250 C251 1.429 . S
C250 H260 0.932 . S
C251 C248 1.358 . S
C251 C250 1.429 . S
C251 H261 0.930 . S
C252 C248 1.332 . S
C252 C253 1.394 . S
C252 H262 0.932 . S
C253 C249 1.308 . S
C253 C252 1.394 . S
C253 H263 0.929 . S
C254 Tb225 2.764 1_554 S
C254 O238 1.239 . S
C254 O239 1.263 1_554 S
C254 C248 1.504 . S
C255 O240 1.236 . S
C255 O241 1.257 . S
H256 C229 0.932 . S
H257 C230 0.930 . S
H258 C231 0.932 . S
H259 C232 0.929 . S
H260 C250 0.932 . S
H261 C251 0.930 . S
H262 C252 0.932 . S
H263 C253 0.929 . S
H264 C276 0.930 . S
H265 C278 0.930 . S
H266 C279 0.930 . S
H267 C283 0.959 . S
H268 C283 0.959 . S
H269 C283 0.961 . S
H270 C284 0.960 . S
H271 C284 0.961 . S
H272 C284 0.959 . S
H273 C287 0.929 . S
H274 C288 0.931 . S
H275 C290 0.930 . S
C276 H264 0.930 . S
C276 C277 1.399 1_545 S
C276 C281 1.399 . S
C277 C276 1.399 1_565 S
C277 C278 1.376 . S
C278 H265 0.930 . S
C278 C277 1.376 . S
C278 C279 1.388 . S
C279 H266 0.930 . S
C279 C278 1.388 . S
C279 C280 1.390 . S
C280 C279 1.390 . S
C280 C281 1.394 1_565 S
C280 C286 1.465 . S
C281 C276 1.399 . S
C281 C280 1.394 1_545 S
C281 C282 1.516 . S
C282 C281 1.516 . S
C282 C283 1.502 . S
C282 C284 1.561 . S
C282 C285 1.526 . S
C283 H267 0.959 . S
C283 H268 0.959 . S
C283 H269 0.961 . S
C283 C282 1.502 . S
C284 H270 0.960 . S
C284 H271 0.961 . S
C284 H272 0.959 . S
C284 C282 1.561 . S
C285 C282 1.526 . S
C285 C286 1.396 1_545 S
C285 C290 1.390 . S
C286 C280 1.465 . S
C286 C285 1.396 1_565 S
C286 C287 1.399 . S
C287 H273 0.929 . S
C287 C286 1.399 . S
C287 C288 1.385 . S
C288 H274 0.931 . S
C288 C287 1.385 . S
C288 C289 1.356 1_565 S
C289 C288 1.356 1_545 S
C289 C290 1.420 . S
C290 H275 0.930 . S
C290 C285 1.390 . S
C290 C289 1.420 . S
H291 C303 0.930 . S
H292 C305 0.930 . S
H293 C306 0.930 . S
H294 C310 0.959 . S
H295 C310 0.959 . S
H296 C310 0.961 . S
H297 C311 0.960 . S
H298 C311 0.961 . S
H299 C311 0.959 . S
H300 C314 0.929 . S
H301 C315 0.931 . S
H302 C317 0.930 . S
C303 H291 0.930 . S
C303 C304 1.399 . S
C303 C308 1.399 . S
C304 C303 1.399 . S
C304 C305 1.376 . S
C305 H292 0.930 . S
C305 C304 1.376 . S
C305 C306 1.388 . S
C306 H293 0.930 . S
C306 C305 1.388 . S
C306 C307 1.390 . S
C307 C306 1.390 . S
C307 C308 1.394 . S
C307 C313 1.465 . S
C308 C303 1.399 . S
C308 C307 1.394 . S
C308 C309 1.516 . S
C309 C308 1.516 . S
C309 C310 1.502 . S
C309 C311 1.561 . S
C309 C312 1.526 . S
C310 H294 0.959 . S
C310 H295 0.959 . S
C310 H296 0.961 . S
C310 C309 1.502 . S
C311 H297 0.960 . S
C311 H298 0.961 . S
C311 H299 0.959 . S
C311 C309 1.561 . S
C312 C309 1.526 . S
C312 C313 1.396 . S
C312 C317 1.390 . S
C313 C307 1.465 . S
C313 C312 1.396 . S
C313 C314 1.399 . S
C314 H300 0.929 . S
C314 C313 1.399 . S
C314 C315 1.385 . S
C315 H301 0.931 . S
C315 C314 1.385 . S
C315 C316 1.389 . S
C316 C315 1.389 . S
C316 C317 1.387 . S
C317 H302 0.930 . S
C317 C312 1.390 . S
C317 C316 1.387 . S
H318 C330 0.930 . S
H319 C332 0.930 . S
H320 C333 0.930 . S
H321 C337 0.959 . S
H322 C337 0.959 . S
H323 C337 0.961 . S
H324 C338 0.960 . S
H325 C338 0.961 . S
H326 C338 0.959 . S
H327 C341 0.929 . S
H328 C342 0.931 . S
H329 C344 0.930 . S
C330 H318 0.930 . S
C330 C331 1.399 . S
C330 C335 1.399 . S
C331 C330 1.399 . S
C331 C332 1.376 . S
C332 H319 0.930 . S
C332 C331 1.376 . S
C332 C333 1.388 . S
C333 H320 0.930 . S
C333 C332 1.388 . S
C333 C334 1.390 . S
C334 C333 1.390 . S
C334 C335 1.394 . S
C334 C340 1.465 . S
C335 C330 1.399 . S
C335 C334 1.394 . S
C335 C336 1.516 . S
C336 C335 1.516 . S
C336 C337 1.502 . S
C336 C338 1.561 . S
C336 C339 1.526 . S
C337 H321 0.959 . S
C337 H322 0.959 . S
C337 H323 0.961 . S
C337 C336 1.502 . S
C338 H324 0.960 . S
C338 H325 0.961 . S
C338 H326 0.959 . S
C338 C336 1.561 . S
C339 C336 1.526 . S
C339 C340 1.396 . S
C339 C344 1.390 . S
C340 C334 1.465 . S
C340 C339 1.396 . S
C340 C341 1.399 . S
C341 H327 0.929 . S
C341 C340 1.399 . S
C341 C342 1.385 . S
C342 H328 0.931 . S
C342 C341 1.385 . S
C342 C343 1.389 . S
C343 C342 1.389 . S
C343 C344 1.387 . S
C344 H329 0.930 . S
C344 C339 1.390 . S
C344 C343 1.387 . S
H345 C357 0.930 . S
H346 C359 0.930 . S
H347 C360 0.930 . S
H348 C364 0.959 . S
H349 C364 0.959 . S
H350 C364 0.961 . S
H351 C365 0.960 . S
H352 C365 0.958 1_455 S
H353 C365 0.959 . S
H354 C368 0.929 . S
H355 C369 0.931 . S
H356 C371 0.930 . S
C357 H345 0.930 . S
C357 C358 1.386 1_455 S
C357 C362 1.399 . S
C358 C357 1.386 1_655 S
C358 C359 1.396 . S
C359 H346 0.930 . S
C359 C358 1.396 . S
C359 C360 1.388 . S
C360 H347 0.930 . S
C360 C359 1.388 . S
C360 C361 1.390 . S
C361 C360 1.390 . S
C361 C362 1.394 1_655 S
C361 C367 1.465 . S
C362 C357 1.399 . S
C362 C361 1.394 1_455 S
C362 C363 1.516 . S
C363 C362 1.516 . S
C363 C364 1.502 . S
C363 C365 1.561 1_455 S
C363 C366 1.526 . S
C364 H348 0.959 . S
C364 H349 0.959 . S
C364 H350 0.961 . S
C364 C363 1.502 . S
C365 H351 0.960 . S
C365 H352 0.958 1_655 S
C365 H353 0.959 . S
C365 C363 1.561 1_655 S
C366 C363 1.526 . S
C366 C367 1.396 1_455 S
C366 C371 1.390 . S
C367 C361 1.465 . S
C367 C366 1.396 1_655 S
C367 C368 1.399 . S
C368 H354 0.929 . S
C368 C367 1.399 . S
C368 C369 1.385 . S
C369 H355 0.931 . S
C369 C368 1.385 . S
C369 C370 1.391 1_655 S
C370 C369 1.391 1_455 S
C370 C371 1.386 . S
C371 H356 0.930 . S
C371 C366 1.390 . S
C371 C370 1.386 . S
H372 C384 0.930 . S
H373 C386 0.930 . S
H374 C387 0.930 . S
H375 C391 0.959 . S
H376 C391 0.959 . S
H377 C391 0.961 . S
H378 C392 0.960 . S
H379 C392 0.961 . S
H380 C392 0.959 . S
H381 C395 0.929 . S
H382 C396 0.931 1_556 S
H383 C398 0.930 . S
C384 H372 0.930 . S
C384 C385 1.399 1_565 S
C384 C389 1.399 . S
C385 C384 1.399 1_545 S
C385 C386 1.376 . S
C386 H373 0.930 . S
C386 C385 1.376 . S
C386 C387 1.388 . S
C387 H374 0.930 . S
C387 C386 1.388 . S
C387 C388 1.390 . S
C388 C387 1.390 . S
C388 C389 1.394 1_545 S
C388 C394 1.465 . S
C389 C384 1.399 . S
C389 C388 1.394 1_565 S
C389 C390 1.516 . S
C390 C389 1.516 . S
C390 C391 1.502 . S
C390 C392 1.561 . S
C390 C393 1.526 . S
C391 H375 0.959 . S
C391 H376 0.959 . S
C391 H377 0.961 . S
C391 C390 1.502 . S
C392 H378 0.960 . S
C392 H379 0.961 . S
C392 H380 0.959 . S
C392 C390 1.561 . S
C393 C390 1.526 . S
C393 C394 1.396 1_565 S
C393 C398 1.390 . S
C394 C388 1.465 . S
C394 C393 1.396 1_545 S
C394 C395 1.399 . S
C395 H381 0.929 . S
C395 C394 1.399 . S
C395 C396 1.385 . S
C396 H382 0.931 1_554 S
C396 C395 1.385 . S
C396 C397 1.363 1_544 S
C397 C396 1.363 1_566 S
C397 C398 1.412 1_556 S
C398 H383 0.930 . S
C398 C393 1.390 . S
C398 C397 1.412 1_554 S
H399 C411 0.930 1_554 S
H400 C413 0.930 . S
H401 C414 0.930 . S
H402 C418 0.959 . S
H403 C418 0.959 . S
H404 C418 0.961 . S
H405 C419 0.960 . S
H406 C419 0.961 . S
H407 C419 0.959 . S
H408 C422 0.929 . S
H409 C423 0.931 . S
H410 C425 0.930 . S
C411 H399 0.930 1_556 S
C411 C412 1.399 . S
C411 C416 1.399 . S
C412 C411 1.399 . S
C412 C413 1.376 . S
C413 H400 0.930 . S
C413 C412 1.376 . S
C413 C414 1.388 . S
C414 H401 0.930 . S
C414 C413 1.388 . S
C414 C415 1.390 . S
C415 C414 1.390 . S
C415 C416 1.394 . S
C415 C421 1.465 . S
C416 C411 1.399 . S
C416 C415 1.394 . S
C416 C417 1.514 1_556 S
C417 C416 1.514 1_554 S
C417 C418 1.506 . S
C417 C419 1.566 . S
C417 C420 1.519 1_554 S
C418 H402 0.959 . S
C418 H403 0.959 . S
C418 H404 0.961 . S
C418 C417 1.506 . S
C419 H405 0.960 . S
C419 H406 0.961 . S
C419 H407 0.959 . S
C419 C417 1.566 . S
C420 C417 1.519 1_556 S
C420 C421 1.396 . S
C420 C425 1.390 . S
C421 C415 1.465 . S
C421 C420 1.396 . S
C421 C422 1.399 . S
C422 H408 0.929 . S
C422 C421 1.399 . S
C422 C423 1.385 . S
C423 H409 0.931 . S
C423 C422 1.385 . S
C423 C424 1.389 . S
C424 C423 1.389 . S
C424 C425 1.387 . S
C425 H410 0.930 . S
C425 C420 1.390 . S
C425 C424 1.387 . S
H426 C438 0.930 . S
H427 C440 0.930 . S
H428 C441 0.930 . S
H429 C445 0.959 . S
H430 C445 0.959 . S
H431 C445 0.961 . S
H432 C446 0.960 . S
H433 C446 0.961 . S
H434 C446 0.959 . S
H435 C449 0.929 . S
H436 C450 0.931 . S
H437 C452 0.930 . S
C438 H426 0.930 . S
C438 C439 1.399 . S
C438 C443 1.399 . S
C439 C438 1.399 . S
C439 C440 1.376 . S
C440 H427 0.930 . S
C440 C439 1.376 . S
C440 C441 1.388 . S
C441 H428 0.930 . S
C441 C440 1.388 . S
C441 C442 1.390 . S
C442 C441 1.390 . S
C442 C443 1.394 . S
C442 C448 1.465 . S
C443 C438 1.399 . S
C443 C442 1.394 . S
C443 C444 1.516 . S
C444 C443 1.516 . S
C444 C445 1.502 . S
C444 C446 1.561 . S
C444 C447 1.526 . S
C445 H429 0.959 . S
C445 H430 0.959 . S
C445 H431 0.961 . S
C445 C444 1.502 . S
C446 H432 0.960 . S
C446 H433 0.961 . S
C446 H434 0.959 . S
C446 C444 1.561 . S
C447 C444 1.526 . S
C447 C448 1.396 . S
C447 C452 1.390 . S
C448 C442 1.465 . S
C448 C447 1.396 . S
C448 C449 1.399 . S
C449 H435 0.929 . S
C449 C448 1.399 . S
C449 C450 1.385 1_554 S
C450 H436 0.931 . S
C450 C449 1.385 1_556 S
C450 C451 1.389 . S
C451 C450 1.389 . S
C451 C452 1.387 1_556 S
C452 H437 0.930 . S
C452 C447 1.390 . S
C452 C451 1.387 1_554 S
H453 C465 0.930 . S
H454 C467 0.930 . S
H455 C468 0.930 . S
H456 C472 0.959 . S
H457 C472 0.959 1_556 S
H458 C472 0.961 . S
H459 C473 0.960 . S
H460 C473 0.961 1_556 S
H461 C473 0.959 . S
H462 C476 0.929 . S
H463 C477 0.931 . S
H464 C479 0.930 . S
C465 H453 0.930 . S
C465 C466 1.399 1_655 S
C465 C470 1.399 . S
C466 C465 1.399 1_455 S
C466 C467 1.376 . S
C467 H454 0.930 . S
C467 C466 1.376 . S
C467 C468 1.388 . S
C468 H455 0.930 . S
C468 C467 1.388 . S
C468 C469 1.390 . S
C469 C468 1.390 . S
C469 C470 1.394 1_455 S
C469 C475 1.465 . S
C470 C465 1.399 . S
C470 C469 1.394 1_655 S
C470 C471 1.516 . S
C471 C470 1.516 . S
C471 C472 1.502 . S
C471 C473 1.561 1_655 S
C471 C474 1.526 . S
C472 H456 0.959 . S
C472 H457 0.959 1_554 S
C472 H458 0.961 . S
C472 C471 1.502 . S
C473 H459 0.960 . S
C473 H460 0.961 1_554 S
C473 H461 0.959 . S
C473 C471 1.561 1_455 S
C474 C471 1.526 . S
C474 C475 1.396 1_655 S
C474 C479 1.390 1_554 S
C475 C469 1.465 . S
C475 C474 1.396 1_455 S
C475 C476 1.399 . S
C476 H462 0.929 . S
C476 C475 1.399 . S
C476 C477 1.385 . S
C477 H463 0.931 . S
C477 C476 1.385 . S
C477 C478 1.392 1_554 S
C478 C477 1.392 1_556 S
C478 C479 1.385 1_455 S
C479 H464 0.930 . S
C479 C474 1.390 1_556 S
C479 C478 1.385 1_655 S
H480 C492 0.930 . S
H481 C494 0.930 . S
H482 C495 0.930 . S
H483 C499 0.959 . S
H484 C499 0.959 . S
H485 C499 0.961 . S
H486 C500 0.960 . S
H487 C500 0.961 . S
H488 C500 0.959 1_455 S
H489 C503 0.929 . S
H490 C504 0.931 . S
H491 C506 0.930 . S
C492 H480 0.930 . S
C492 C493 1.399 1_655 S
C492 C497 1.399 . S
C493 C492 1.399 1_455 S
C493 C494 1.376 . S
C494 H481 0.930 . S
C494 C493 1.376 . S
C494 C495 1.388 . S
C495 H482 0.930 . S
C495 C494 1.388 . S
C495 C496 1.390 1_455 S
C496 C495 1.390 1_655 S
C496 C497 1.394 . S
C496 C502 1.465 . S
C497 C492 1.399 . S
C497 C496 1.394 . S
C497 C498 1.516 . S
C498 C497 1.516 . S
C498 C499 1.502 . S
C498 C500 1.561 . S
C498 C501 1.526 . S
C499 H483 0.959 . S
C499 H484 0.959 . S
C499 H485 0.961 . S
C499 C498 1.502 . S
C500 H486 0.960 . S
C500 H487 0.961 . S
C500 H488 0.959 1_655 S
C500 C498 1.561 . S
C501 C498 1.526 . S
C501 C502 1.396 . S
C501 C506 1.390 . S
C502 C496 1.465 . S
C502 C501 1.396 . S
C502 C503 1.399 . S
C503 H489 0.929 . S
C503 C502 1.399 . S
C503 C504 1.385 . S
C504 H490 0.931 . S
C504 C503 1.385 . S
C504 C505 1.389 . S
C505 C504 1.389 . S
C505 C506 1.387 . S
C506 H491 0.930 . S
C506 C501 1.390 . S
C506 C505 1.387 . S
H507 C519 0.930 . S
H508 C521 0.930 . S
H509 C522 0.930 . S
H510 C526 0.959 . S
H511 C526 0.959 . S
H512 C526 0.961 . S
H513 C527 0.960 . S
H514 C527 0.961 . S
H515 C527 0.959 . S
H516 C530 0.929 . S
H517 C531 0.931 . S
H518 C533 0.930 1_545 S
C519 H507 0.930 . S
C519 C520 1.382 1_545 S
C519 C524 1.399 . S
C520 C519 1.382 1_565 S
C520 C521 1.409 . S
C521 H508 0.930 . S
C521 C520 1.409 . S
C521 C522 1.388 . S
C522 H509 0.930 . S
C522 C521 1.388 . S
C522 C523 1.390 . S
C523 C522 1.390 . S
C523 C524 1.394 1_565 S
C523 C529 1.465 . S
C524 C519 1.399 . S
C524 C523 1.394 1_545 S
C524 C525 1.516 . S
C525 C524 1.516 . S
C525 C526 1.502 . S
C525 C527 1.561 . S
C525 C528 1.526 1_545 S
C526 H510 0.959 . S
C526 H511 0.959 . S
C526 H512 0.961 . S
C526 C525 1.502 . S
C527 H513 0.960 . S
C527 H514 0.961 . S
C527 H515 0.959 . S
C527 C525 1.561 . S
C528 C525 1.526 1_565 S
C528 C529 1.396 . S
C528 C533 1.390 . S
C529 C523 1.465 . S
C529 C528 1.396 . S
C529 C530 1.399 . S
C530 H516 0.929 . S
C530 C529 1.399 . S
C530 C531 1.385 . S
C531 H517 0.931 . S
C531 C530 1.385 . S
C531 C532 1.389 . S
C532 C531 1.389 . S
C532 C533 1.387 . S
C533 H518 0.930 1_565 S
C533 C528 1.390 . S
C533 C532 1.387 . S
H534 C546 0.930 . S
H535 C548 0.930 . S
H536 C549 0.930 . S
H537 C553 0.959 . S
H538 C553 0.959 . S
H539 C553 0.961 . S
H540 C554 0.960 . S
H541 C554 0.961 . S
H542 C554 0.959 . S
H543 C557 0.929 . S
H544 C558 0.931 . S
H545 C560 0.930 . S
C546 H534 0.930 . S
C546 C547 1.399 . S
C546 C551 1.399 . S
C547 C546 1.399 . S
C547 C548 1.376 . S
C548 H535 0.930 . S
C548 C547 1.376 . S
C548 C549 1.388 . S
C549 H536 0.930 . S
C549 C548 1.388 . S
C549 C550 1.390 . S
C550 C549 1.390 . S
C550 C551 1.394 . S
C550 C556 1.465 . S
C551 C546 1.399 . S
C551 C550 1.394 . S
C551 C552 1.516 . S
C552 C551 1.516 . S
C552 C553 1.502 . S
C552 C554 1.561 . S
C552 C555 1.526 . S
C553 H537 0.959 . S
C553 H538 0.959 . S
C553 H539 0.961 . S
C553 C552 1.502 . S
C554 H540 0.960 . S
C554 H541 0.961 . S
C554 H542 0.959 . S
C554 C552 1.561 . S
C555 C552 1.526 . S
C555 C556 1.396 . S
C555 C560 1.390 . S
C556 C550 1.465 . S
C556 C555 1.396 . S
C556 C557 1.399 . S
C557 H543 0.929 . S
C557 C556 1.399 . S
C557 C558 1.385 . S
C558 H544 0.931 . S
C558 C557 1.385 . S
C558 C559 1.389 . S
C559 C558 1.389 . S
C559 C560 1.387 . S
C560 H545 0.930 . S
C560 C555 1.390 . S
C560 C559 1.387 . S
H561 C573 0.930 . S
H562 C575 0.930 . S
H563 C576 0.930 . S
H564 C580 0.959 . S
H565 C580 0.959 . S
H566 C580 0.961 . S
H567 C581 0.960 . S
H568 C581 0.961 . S
H569 C581 0.959 . S
H570 C584 0.929 . S
H571 C585 0.931 . S
H572 C587 0.930 . S
C573 H561 0.930 . S
C573 C574 1.399 . S
C573 C578 1.399 . S
C574 C573 1.399 . S
C574 C575 1.376 . S
C575 H562 0.930 . S
C575 C574 1.376 . S
C575 C576 1.388 . S
C576 H563 0.930 . S
C576 C575 1.388 . S
C576 C577 1.390 . S
C577 C576 1.390 . S
C577 C578 1.394 . S
C577 C583 1.465 . S
C578 C573 1.399 . S
C578 C577 1.394 . S
C578 C579 1.516 . S
C579 C578 1.516 . S
C579 C580 1.502 . S
C579 C581 1.561 . S
C579 C582 1.526 . S
C580 H564 0.959 . S
C580 H565 0.959 . S
C580 H566 0.961 . S
C580 C579 1.502 . S
C581 H567 0.960 . S
C581 H568 0.961 . S
C581 H569 0.959 . S
C581 C579 1.561 . S
C582 C579 1.526 . S
C582 C583 1.396 . S
C582 C587 1.390 . S
C583 C577 1.465 . S
C583 C582 1.396 . S
C583 C584 1.399 . S
C584 H570 0.929 . S
C584 C583 1.399 . S
C584 C585 1.385 . S
C585 H571 0.931 . S
C585 C584 1.385 . S
C585 C586 1.389 . S
C586 C585 1.389 . S
C586 C587 1.387 . S
C587 H572 0.930 . S
C587 C582 1.390 . S
C587 C586 1.387 . S
H588 C600 0.930 . S
H589 C602 0.930 . S
H590 C603 0.930 . S
H591 C607 0.959 . S
H592 C607 0.959 . S
H593 C607 0.961 . S
H594 C608 0.960 . S
H595 C608 0.961 . S
H596 C608 0.959 1_455 S
H597 C611 0.929 . S
H598 C612 0.931 . S
H599 C614 0.930 . S
C600 H588 0.930 . S
C600 C601 1.399 1_655 S
C600 C605 1.399 1_655 S
C601 C600 1.399 1_455 S
C601 C602 1.376 . S
C602 H589 0.930 . S
C602 C601 1.376 . S
C602 C603 1.388 . S
C603 H590 0.930 . S
C603 C602 1.388 . S
C603 C604 1.390 . S
C604 C603 1.390 . S
C604 C605 1.394 . S
C604 C610 1.465 . S
C605 C600 1.399 1_455 S
C605 C604 1.394 . S
C605 C606 1.516 1_455 S
C606 C605 1.516 1_655 S
C606 C607 1.502 . S
C606 C608 1.561 . S
C606 C609 1.526 1_655 S
C607 H591 0.959 . S
C607 H592 0.959 . S
C607 H593 0.961 . S
C607 C606 1.502 . S
C608 H594 0.960 . S
C608 H595 0.961 . S
C608 H596 0.959 1_655 S
C608 C606 1.561 . S
C609 C606 1.526 1_455 S
C609 C610 1.396 . S
C609 C614 1.390 . S
C610 C604 1.465 . S
C610 C609 1.396 . S
C610 C611 1.399 . S
C611 H597 0.929 . S
C611 C610 1.399 . S
C611 C612 1.385 . S
C612 H598 0.931 . S
C612 C611 1.385 . S
C612 C613 1.389 . S
C613 C612 1.389 . S
C613 C614 1.387 . S
C614 H599 0.930 . S
C614 C609 1.390 . S
C614 C613 1.387 . S
H615 C627 0.930 . S
H616 C629 0.930 . S
H617 C630 0.930 . S
H618 C634 0.959 . S
H619 C634 0.959 . S
H620 C634 0.961 . S
H621 C635 0.960 . S
H622 C635 0.961 . S
H623 C635 0.959 . S
H624 C638 0.929 . S
H625 C639 0.931 . S
H626 C641 0.930 1_565 S
C627 H615 0.930 . S
C627 C628 1.392 1_565 S
C627 C632 1.399 . S
C628 C627 1.392 1_545 S
C628 C629 1.391 . S
C629 H616 0.930 . S
C629 C628 1.391 . S
C629 C630 1.388 . S
C630 H617 0.930 . S
C630 C629 1.388 . S
C630 C631 1.390 . S
C631 C630 1.390 . S
C631 C632 1.394 1_545 S
C631 C637 1.465 . S
C632 C627 1.399 . S
C632 C631 1.394 1_565 S
C632 C633 1.516 . S
C633 C632 1.516 . S
C633 C634 1.502 . S
C633 C635 1.561 . S
C633 C636 1.526 1_565 S
C634 H618 0.959 . S
C634 H619 0.959 . S
C634 H620 0.961 . S
C634 C633 1.502 . S
C635 H621 0.960 . S
C635 H622 0.961 . S
C635 H623 0.959 . S
C635 C633 1.561 . S
C636 C633 1.526 1_545 S
C636 C637 1.396 . S
C636 C641 1.390 . S
C637 C631 1.465 . S
C637 C636 1.396 . S
C637 C638 1.399 . S
C638 H624 0.929 . S
C638 C637 1.399 . S
C638 C639 1.385 . S
C639 H625 0.931 . S
C639 C638 1.385 . S
C639 C640 1.389 . S
C640 C639 1.389 . S
C640 C641 1.387 . S
C641 H626 0.930 1_545 S
C641 C636 1.390 . S
C641 C640 1.387 . S
H642 C654 0.930 . S
H643 C656 0.930 . S
H644 C657 0.930 . S
H645 C661 0.959 . S
H646 C661 0.959 . S
H647 C661 0.961 . S
H648 C662 0.960 . S
H649 C662 0.961 . S
H650 C662 0.959 . S
H651 C665 0.929 . S
H652 C666 0.931 . S
H653 C668 0.930 . S
C654 H642 0.930 . S
C654 C655 1.399 . S
C654 C659 1.399 . S
C655 C654 1.399 . S
C655 C656 1.376 . S
C656 H643 0.930 . S
C656 C655 1.376 . S
C656 C657 1.388 . S
C657 H644 0.930 . S
C657 C656 1.388 . S
C657 C658 1.390 . S
C658 C657 1.390 . S
C658 C659 1.394 . S
C658 C664 1.465 . S
C659 C654 1.399 . S
C659 C658 1.394 . S
C659 C660 1.516 . S
C660 C659 1.516 . S
C660 C661 1.502 . S
C660 C662 1.561 1_556 S
C660 C663 1.526 . S
C661 H645 0.959 . S
C661 H646 0.959 . S
C661 H647 0.961 . S
C661 C660 1.502 . S
C662 H648 0.960 . S
C662 H649 0.961 . S
C662 H650 0.959 . S
C662 C660 1.561 1_554 S
C663 C660 1.526 . S
C663 C664 1.396 . S
C663 C668 1.390 . S
C664 C658 1.465 . S
C664 C663 1.396 . S
C664 C665 1.399 . S
C665 H651 0.929 . S
C665 C664 1.399 . S
C665 C666 1.385 . S
C666 H652 0.931 . S
C666 C665 1.385 . S
C666 C667 1.389 . S
C667 C666 1.389 . S
C667 C668 1.387 . S
C668 H653 0.930 . S
C668 C663 1.390 . S
C668 C667 1.387 . S
H669 C681 0.930 . S
H670 C683 0.930 . S
H671 C684 0.930 . S
H672 C688 0.959 . S
H673 C688 0.959 . S
H674 C688 0.961 . S
H675 C689 0.960 . S
H676 C689 0.961 . S
H677 C689 0.959 . S
H678 C692 0.929 . S
H679 C693 0.931 . S
H680 C695 0.930 . S
C681 H669 0.930 . S
C681 C682 1.399 . S
C681 C686 1.399 . S
C682 C681 1.399 . S
C682 C683 1.376 . S
C683 H670 0.930 . S
C683 C682 1.376 . S
C683 C684 1.388 . S
C684 H671 0.930 . S
C684 C683 1.388 . S
C684 C685 1.390 . S
C685 C684 1.390 . S
C685 C686 1.394 . S
C685 C691 1.465 . S
C686 C681 1.399 . S
C686 C685 1.394 . S
C686 C687 1.516 . S
C687 C686 1.516 . S
C687 C688 1.502 . S
C687 C689 1.561 . S
C687 C690 1.526 . S
C688 H672 0.959 . S
C688 H673 0.959 . S
C688 H674 0.961 . S
C688 C687 1.502 . S
C689 H675 0.960 . S
C689 H676 0.961 . S
C689 H677 0.959 . S
C689 C687 1.561 . S
C690 C687 1.526 . S
C690 C691 1.396 . S
C690 C695 1.390 . S
C691 C685 1.465 . S
C691 C690 1.396 . S
C691 C692 1.399 . S
C692 H678 0.929 . S
C692 C691 1.399 . S
C692 C693 1.385 . S
C693 H679 0.931 . S
C693 C692 1.385 . S
C693 C694 1.389 . S
C694 C693 1.389 . S
C694 C695 1.387 . S
C695 H680 0.930 . S
C695 C690 1.390 . S
C695 C694 1.387 . S
H696 C708 0.930 . S
H697 C710 0.930 . S
H698 C711 0.930 . S
H699 C715 0.959 . S
H700 C715 0.959 . S
H701 C715 0.961 . S
H702 C716 0.960 . S
H703 C716 0.961 . S
H704 C716 0.959 1_655 S
H705 C719 0.929 . S
H706 C720 0.931 . S
H707 C722 0.930 . S
C708 H696 0.930 . S
C708 C709 1.407 . S
C708 C713 1.399 . S
C709 C708 1.407 . S
C709 C710 1.368 1_454 S
C710 H697 0.930 . S
C710 C709 1.368 1_656 S
C710 C711 1.388 . S
C711 H698 0.930 . S
C711 C710 1.388 . S
C711 C712 1.390 . S
C712 C711 1.390 . S
C712 C713 1.394 1_656 S
C712 C718 1.462 1_655 S
C713 C708 1.399 . S
C713 C712 1.394 1_454 S
C713 C714 1.516 . S
C714 C713 1.516 . S
C714 C715 1.502 . S
C714 C716 1.561 . S
C714 C717 1.526 . S
C715 H699 0.959 . S
C715 H700 0.959 . S
C715 H701 0.961 . S
C715 C714 1.502 . S
C716 H702 0.960 . S
C716 H703 0.961 . S
C716 H704 0.959 1_455 S
C716 C714 1.561 . S
C717 C714 1.526 . S
C717 C718 1.412 1_554 S
C717 C722 1.390 . S
C718 C712 1.462 1_455 S
C718 C717 1.412 1_556 S
C718 C719 1.390 1_455 S
C719 H705 0.929 . S
C719 C718 1.390 1_655 S
C719 C720 1.385 . S
C720 H706 0.931 . S
C720 C719 1.385 . S
C720 C721 1.389 1_655 S
C721 C720 1.389 1_455 S
C721 C722 1.387 1_556 S
C722 H707 0.930 . S
C722 C717 1.390 . S
C722 C721 1.387 1_554 S
H723 C735 0.930 . S
H724 C737 0.930 . S
H725 C738 0.930 . S
H726 C742 0.959 . S
H727 C742 0.959 . S
H728 C742 0.961 . S
H729 C743 0.960 . S
H730 C743 0.961 . S
H731 C743 0.959 . S
H732 C746 0.929 . S
H733 C747 0.931 . S
H734 C749 0.930 . S
C735 H723 0.930 . S
C735 C736 1.399 1_565 S
C735 C740 1.399 1_554 S
C736 C735 1.399 1_545 S
C736 C737 1.376 . S
C737 H724 0.930 . S
C737 C736 1.376 . S
C737 C738 1.388 1_554 S
C738 H725 0.930 . S
C738 C737 1.388 1_556 S
C738 C739 1.390 . S
C739 C738 1.390 . S
C739 C740 1.394 1_545 S
C739 C745 1.465 . S
C740 C735 1.399 1_556 S
C740 C739 1.394 1_565 S
C740 C741 1.516 . S
C741 C740 1.516 . S
C741 C742 1.502 1_556 S
C741 C743 1.561 . S
C741 C744 1.526 . S
C742 H726 0.959 . S
C742 H727 0.959 . S
C742 H728 0.961 . S
C742 C741 1.502 1_554 S
C743 H729 0.960 . S
C743 H730 0.961 . S
C743 H731 0.959 . S
C743 C741 1.561 . S
C744 C741 1.526 . S
C744 C745 1.396 1_565 S
C744 C749 1.390 . S
C745 C739 1.465 . S
C745 C744 1.396 1_545 S
C745 C746 1.399 . S
C746 H732 0.929 . S
C746 C745 1.399 . S
C746 C747 1.385 . S
C747 H733 0.931 . S
C747 C746 1.385 . S
C747 C748 1.389 . S
C748 C747 1.389 . S
C748 C749 1.387 1_545 S
C749 H734 0.930 . S
C749 C744 1.390 . S
C749 C748 1.387 1_565 S
H750 C762 0.930 . S
H751 C764 0.930 . S
H752 C765 0.930 . S
H753 C769 0.959 . S
H754 C769 0.959 . S
H755 C769 0.961 . S
H756 C770 0.960 . S
H757 C770 0.961 . S
H758 C770 0.959 . S
H759 C773 0.929 . S
H760 C774 0.931 . S
H761 C776 0.930 . S
C762 H750 0.930 . S
C762 C763 1.399 . S
C762 C767 1.399 . S
C763 C762 1.399 . S
C763 C764 1.376 . S
C764 H751 0.930 . S
C764 C763 1.376 . S
C764 C765 1.388 . S
C765 H752 0.930 . S
C765 C764 1.388 . S
C765 C766 1.390 . S
C766 C765 1.390 . S
C766 C767 1.394 . S
C766 C772 1.465 . S
C767 C762 1.399 . S
C767 C766 1.394 . S
C767 C768 1.516 . S
C768 C767 1.516 . S
C768 C769 1.502 . S
C768 C770 1.561 . S
C768 C771 1.526 . S
C769 H753 0.959 . S
C769 H754 0.959 . S
C769 H755 0.961 . S
C769 C768 1.502 . S
C770 H756 0.960 . S
C770 H757 0.961 . S
C770 H758 0.959 . S
C770 C768 1.561 . S
C771 C768 1.526 . S
C771 C772 1.396 . S
C771 C776 1.390 . S
C772 C766 1.465 . S
C772 C771 1.396 . S
C772 C773 1.399 . S
C773 H759 0.929 . S
C773 C772 1.399 . S
C773 C774 1.385 . S
C774 H760 0.931 . S
C774 C773 1.385 . S
C774 C775 1.389 . S
C775 C774 1.389 . S
C775 C776 1.387 . S
C776 H761 0.930 . S
C776 C771 1.390 . S
C776 C775 1.387 . S
H777 C789 0.930 . S
H778 C791 0.930 . S
H779 C792 0.930 . S
H780 C796 0.959 . S
H781 C796 0.959 . S
H782 C796 0.961 . S
H783 C797 0.960 . S
H784 C797 0.961 . S
H785 C797 0.959 . S
H786 C800 0.929 . S
H787 C801 0.931 . S
H788 C803 0.930 . S
C789 H777 0.930 . S
C789 C790 1.399 . S
C789 C794 1.399 1_554 S
C790 C789 1.399 . S
C790 C791 1.376 1_554 S
C791 H778 0.930 . S
C791 C790 1.376 1_556 S
C791 C792 1.388 . S
C792 H779 0.930 . S
C792 C791 1.388 . S
C792 C793 1.390 . S
C793 C792 1.390 . S
C793 C794 1.394 . S
C793 C799 1.465 . S
C794 C789 1.399 1_556 S
C794 C793 1.394 . S
C794 C795 1.516 1_556 S
C795 C794 1.516 1_554 S
C795 C796 1.502 . S
C795 C797 1.561 1_554 S
C795 C798 1.526 1_554 S
C796 H780 0.959 . S
C796 H781 0.959 . S
C796 H782 0.961 . S
C796 C795 1.502 . S
C797 H783 0.960 . S
C797 H784 0.961 . S
C797 H785 0.959 . S
C797 C795 1.561 1_556 S
C798 C795 1.526 1_556 S
C798 C799 1.396 . S
C798 C803 1.390 . S
C799 C793 1.465 . S
C799 C798 1.396 . S
C799 C800 1.399 . S
C800 H786 0.929 . S
C800 C799 1.399 . S
C800 C801 1.385 . S
C801 H787 0.931 . S
C801 C800 1.385 . S
C801 C802 1.389 . S
C802 C801 1.389 . S
C802 C803 1.387 . S
C803 H788 0.930 . S
C803 C798 1.390 . S
C803 C802 1.387 . S
H804 C816 0.930 . S
H805 C818 0.930 . S
H806 C819 0.930 . S
H807 C823 0.959 . S
H808 C823 0.959 . S
H809 C823 0.961 . S
H810 C824 0.960 1_455 S
H811 C824 0.961 1_455 S
H812 C824 0.959 . S
H813 C827 0.929 . S
H814 C828 0.931 . S
H815 C830 0.930 1_455 S
C816 H804 0.930 . S
C816 C817 1.399 1_455 S
C816 C821 1.406 . S
C817 C816 1.399 1_655 S
C817 C818 1.376 . S
C818 H805 0.930 . S
C818 C817 1.376 . S
C818 C819 1.388 . S
C819 H806 0.930 . S
C819 C818 1.388 . S
C819 C820 1.390 . S
C820 C819 1.390 . S
C820 C821 1.377 1_655 S
C820 C826 1.465 . S
C821 C816 1.406 . S
C821 C820 1.377 1_455 S
C821 C822 1.524 . S
C822 C821 1.524 . S
C822 C823 1.502 . S
C822 C824 1.561 1_455 S
C822 C825 1.526 1_455 S
C823 H807 0.959 . S
C823 H808 0.959 . S
C823 H809 0.961 . S
C823 C822 1.502 . S
C824 H810 0.960 1_655 S
C824 H811 0.961 1_655 S
C824 H812 0.959 . S
C824 C822 1.561 1_655 S
C825 C822 1.526 1_655 S
C825 C826 1.396 . S
C825 C830 1.390 . S
C826 C820 1.465 . S
C826 C825 1.396 . S
C826 C827 1.399 . S
C827 H813 0.929 . S
C827 C826 1.399 . S
C827 C828 1.385 . S
C828 H814 0.931 . S
C828 C827 1.385 . S
C828 C829 1.389 . S
C829 C828 1.389 . S
C829 C830 1.387 . S
C830 H815 0.930 1_655 S
C830 C825 1.390 . S
C830 C829 1.387 . S
H831 C843 0.930 . S
H832 C845 0.930 . S
H833 C846 0.930 . S
H834 C850 0.959 . S
H835 C850 0.959 . S
H836 C850 0.961 . S
H837 C851 0.960 . S
H838 C851 0.961 . S
H839 C851 0.959 . S
H840 C854 0.929 . S
H841 C855 0.931 . S
H842 C857 0.930 . S
C843 H831 0.930 . S
C843 C844 1.399 1_565 S
C843 C848 1.399 . S
C844 C843 1.399 1_545 S
C844 C845 1.376 . S
C845 H832 0.930 . S
C845 C844 1.376 . S
C845 C846 1.388 . S
C846 H833 0.930 . S
C846 C845 1.388 . S
C846 C847 1.390 . S
C847 C846 1.390 . S
C847 C848 1.394 1_545 S
C847 C853 1.465 . S
C848 C843 1.399 . S
C848 C847 1.394 1_565 S
C848 C849 1.516 . S
C849 C848 1.516 . S
C849 C850 1.502 . S
C849 C851 1.561 . S
C849 C852 1.526 . S
C850 H834 0.959 . S
C850 H835 0.959 . S
C850 H836 0.961 . S
C850 C849 1.502 . S
C851 H837 0.960 . S
C851 H838 0.961 . S
C851 H839 0.959 . S
C851 C849 1.561 . S
C852 C849 1.526 . S
C852 C853 1.396 1_565 S
C852 C857 1.390 . S
C853 C847 1.465 . S
C853 C852 1.396 1_545 S
C853 C854 1.399 . S
C854 H840 0.929 . S
C854 C853 1.399 . S
C854 C855 1.385 . S
C855 H841 0.931 . S
C855 C854 1.385 . S
C855 C856 1.389 1_545 S
C856 C855 1.389 1_565 S
C856 C857 1.387 . S
C857 H842 0.930 . S
C857 C852 1.390 . S
C857 C856 1.387 . S
H858 C870 0.930 . S
H859 C872 0.930 . S
H860 C873 0.930 . S
H861 C877 0.959 . S
H862 C877 0.959 . S
H863 C877 0.961 . S
H864 C878 0.960 . S
H865 C878 0.961 . S
H866 C878 0.959 . S
H867 C881 0.929 . S
H868 C882 0.931 . S
H869 C884 0.930 . S
C870 H858 0.930 . S
C870 C871 1.399 . S
C870 C875 1.399 . S
C871 C870 1.399 . S
C871 C872 1.376 . S
C872 H859 0.930 . S
C872 C871 1.376 . S
C872 C873 1.388 . S
C873 H860 0.930 . S
C873 C872 1.388 . S
C873 C874 1.390 . S
C874 C873 1.390 . S
C874 C875 1.394 . S
C874 C880 1.465 . S
C875 C870 1.399 . S
C875 C874 1.394 . S
C875 C876 1.516 . S
C876 C875 1.516 . S
C876 C877 1.502 . S
C876 C878 1.561 . S
C876 C879 1.526 . S
C877 H861 0.959 . S
C877 H862 0.959 . S
C877 H863 0.961 . S
C877 C876 1.502 . S
C878 H864 0.960 . S
C878 H865 0.961 . S
C878 H866 0.959 . S
C878 C876 1.561 . S
C879 C876 1.526 . S
C879 C880 1.396 . S
C879 C884 1.390 . S
C880 C874 1.465 . S
C880 C879 1.396 . S
C880 C881 1.399 . S
C881 H867 0.929 . S
C881 C880 1.399 . S
C881 C882 1.385 . S
C882 H868 0.931 . S
C882 C881 1.385 . S
C882 C883 1.389 . S
C883 C882 1.389 . S
C883 C884 1.387 . S
C884 H869 0.930 . S
C884 C879 1.390 . S
C884 C883 1.387 . S
H885 C897 0.930 . S
H886 C899 0.930 . S
H887 C900 0.930 . S
H888 C904 0.959 . S
H889 C904 0.959 . S
H890 C904 0.961 . S
H891 C905 0.960 . S
H892 C905 0.961 . S
H893 C905 0.959 . S
H894 C908 0.929 . S
H895 C909 0.931 . S
H896 C911 0.930 . S
C897 H885 0.930 . S
C897 C898 1.399 . S
C897 C902 1.399 . S
C898 C897 1.399 . S
C898 C899 1.376 . S
C899 H886 0.930 . S
C899 C898 1.376 . S
C899 C900 1.388 . S
C900 H887 0.930 . S
C900 C899 1.388 . S
C900 C901 1.390 . S
C901 C900 1.390 . S
C901 C902 1.394 . S
C901 C907 1.465 . S
C902 C897 1.399 . S
C902 C901 1.394 . S
C902 C903 1.516 . S
C903 C902 1.516 . S
C903 C904 1.502 . S
C903 C905 1.561 . S
C903 C906 1.526 . S
C904 H888 0.959 . S
C904 H889 0.959 . S
C904 H890 0.961 . S
C904 C903 1.502 . S
C905 H891 0.960 . S
C905 H892 0.961 . S
C905 H893 0.959 . S
C905 C903 1.561 . S
C906 C903 1.526 . S
C906 C907 1.396 . S
C906 C911 1.390 . S
C907 C901 1.465 . S
C907 C906 1.396 . S
C907 C908 1.399 . S
C908 H894 0.929 . S
C908 C907 1.399 . S
C908 C909 1.385 . S
C909 H895 0.931 . S
C909 C908 1.385 . S
C909 C910 1.389 . S
C910 C909 1.389 . S
C910 C911 1.387 . S
C911 H896 0.930 . S
C911 C906 1.390 . S
C911 C910 1.387 . S
C277 C82 1.767 1_565 S
C289 C127 1.983 1_545 S
C316 C167 1.743 . S
C304 C95 1.699 . S
C343 C186 2.001 . S
C331 C56 1.700 . S
C370 C247 1.401 1_455 S
C358 C69 1.197 1_655 S
C397 C106 1.986 1_565 S
C385 C30 1.668 . S
C412 C43 1.648 . S
C424 C146 1.723 . S
C439 C4 1.668 . S
C451 C207 2.011 . S
C466 C17 1.268 . S
C478 C226 1.405 . S
C505 C108 0.836 . S
C493 C74 0.931 . S
C532 C148 0.465 . S
C520 C87 0.409 1_565 S
C559 C204 0.904 . S
C547 C100 0.968 . S
C574 C61 0.485 . S
C586 C228 0.536 . S
C601 C22 0.836 1_455 S
C613 C129 0.937 . S
C640 C169 0.477 . S
C628 C35 0.287 . S
C667 C215 0.992 . S
C655 C48 0.831 . S
C682 C9 0.357 . S
C694 C249 0.540 . S
C709 C73 1.501 . S
C721 C124 1.578 . S
C736 C86 2.178 . S
C748 C164 2.356 . S
C775 C188 1.536 . S
C763 C99 1.463 . S
C802 C244 2.346 . S
C790 C60 2.167 . S
C817 C21 1.488 . S
C829 C135 1.620 . S
C856 C175 2.337 . S
C844 C34 2.159 . S
C883 C209 1.513 . S
C871 C47 1.521 . S
C898 C8 2.159 . S
C910 C255 2.343 . S
