# Generated by pormake.
# Topology zzz, (3,6)-cn, num edge types: 1
# Building blocks:
#     Node 0, Type 0, BuildingBlock: QEWDON_clean_linker_0, # of connection points: 3
#     Node 1, Type 0, BuildingBlock: QEWDON_clean_linker_0, # of connection points: 3
#     Node 2, Type 0, BuildingBlock: QEWDON_clean_linker_0, # of connection points: 3
#     Node 3, Type 0, BuildingBlock: QEWDON_clean_linker_0, # of connection points: 3
#     Node 4, Type 0, BuildingBlock: QEWDON_clean_linker_0, # of connection points: 3
#     Node 5, Type 0, BuildingBlock: QEWDON_clean_linker_0, # of connection points: 3
#     Node 6, Type 0, BuildingBlock: QEWDON_clean_linker_0, # of connection points: 3
#     Node 7, Type 0, BuildingBlock: QEWDON_clean_linker_0, # of connection points: 3
#     Node 8, Type 1, BuildingBlock: BETDAH_clean_sbu_0, # of connection points: 6
#     Node 9, Type 1, BuildingBlock: BETDAH_clean_sbu_0, # of connection points: 6
#     Node 10, Type 1, BuildingBlock: BETDAH_clean_sbu_0, # of connection points: 6
#     Node 11, Type 1, BuildingBlock: BETDAH_clean_sbu_0, # of connection points: 6
#     Edge 12, Type (0, 1), BuildingBlock: UVAHIK_clean_linker_0, # of connection points: 2
#     Edge 13, Type (0, 1), BuildingBlock: UVAHIK_clean_linker_0, # of connection points: 2
#     Edge 14, Type (0, 1), BuildingBlock: UVAHIK_clean_linker_0, # of connection points: 2
#     Edge 15, Type (0, 1), BuildingBlock: UVAHIK_clean_linker_0, # of connection points: 2
#     Edge 16, Type (0, 1), BuildingBlock: UVAHIK_clean_linker_0, # of connection points: 2
#     Edge 17, Type (0, 1), BuildingBlock: UVAHIK_clean_linker_0, # of connection points: 2
#     Edge 18, Type (0, 1), BuildingBlock: UVAHIK_clean_linker_0, # of connection points: 2
#     Edge 19, Type (0, 1), BuildingBlock: UVAHIK_clean_linker_0, # of connection points: 2
#     Edge 20, Type (0, 1), BuildingBlock: UVAHIK_clean_linker_0, # of connection points: 2
#     Edge 21, Type (0, 1), BuildingBlock: UVAHIK_clean_linker_0, # of connection points: 2
#     Edge 22, Type (0, 1), BuildingBlock: UVAHIK_clean_linker_0, # of connection points: 2
#     Edge 23, Type (0, 1), BuildingBlock: UVAHIK_clean_linker_0, # of connection points: 2
#     Edge 24, Type (0, 1), BuildingBlock: UVAHIK_clean_linker_0, # of connection points: 2
#     Edge 25, Type (0, 1), BuildingBlock: UVAHIK_clean_linker_0, # of connection points: 2
#     Edge 26, Type (0, 1), BuildingBlock: UVAHIK_clean_linker_0, # of connection points: 2
#     Edge 27, Type (0, 1), BuildingBlock: UVAHIK_clean_linker_0, # of connection points: 2
#     Edge 28, Type (0, 1), BuildingBlock: UVAHIK_clean_linker_0, # of connection points: 2
#     Edge 29, Type (0, 1), BuildingBlock: UVAHIK_clean_linker_0, # of connection points: 2
#     Edge 30, Type (0, 1), BuildingBlock: UVAHIK_clean_linker_0, # of connection points: 2
#     Edge 31, Type (0, 1), BuildingBlock: UVAHIK_clean_linker_0, # of connection points: 2
#     Edge 32, Type (0, 1), BuildingBlock: UVAHIK_clean_linker_0, # of connection points: 2
#     Edge 33, Type (0, 1), BuildingBlock: UVAHIK_clean_linker_0, # of connection points: 2
#     Edge 34, Type (0, 1), BuildingBlock: UVAHIK_clean_linker_0, # of connection points: 2
#     Edge 35, Type (0, 1), BuildingBlock: UVAHIK_clean_linker_0, # of connection points: 2
# Relax obj value: 0.140
# Max RMSD: 0.161
# Mean RMSD: 0.122
data_MOF--net-zzz--node1-BETDAH_clean_sbu_0--node2-QEWDON_clean_linker_0--edge1-UVAHIK_clean_linker_0
_symmetry_space_group_name_H-M    P1
_symmetry_Int_Tables_number       1
_symmetry_cell_setting            triclinic
loop_
_symmetry_equiv_pos_as_xyz
'x, y, z'
_cell_length_a     71.284289
_cell_length_b     71.245547
_cell_length_c     16.291853
_cell_angle_alpha  90.070756
_cell_angle_beta   90.057949
_cell_angle_gamma 89.99207
loop_
_atom_site_label
_atom_site_type_symbol
_atom_site_fract_x
_atom_site_fract_y
_atom_site_fract_z
_atom_type_partial_charge
H0 H 0.75859 0.54078 0.17347 0.0
C1 C 0.76946 0.53977 0.21957 0.0
C2 C 0.78807 0.54039 0.19301 0.0
C3 C 0.76507 0.53859 0.30402 0.0
H4 H 0.81701 0.54062 0.22919 0.0
C5 C 0.8026 0.54034 0.25054 0.0
C6 C 0.79894 0.53945 0.33479 0.0
C7 C 0.78016 0.53804 0.36139 0.0
C8 C 0.74486 0.53896 0.33104 0.0
H9 H 0.77748 0.53683 0.42649 0.0
C10 C 0.73019 0.53338 0.27735 0.0
C11 C 0.71117 0.53588 0.29848 0.0
C12 C 0.73987 0.54612 0.40869 0.0
H13 H 0.75035 0.55109 0.4515 0.0
C14 C 0.72107 0.5477 0.43159 0.0
H15 H 0.73337 0.52712 0.21849 0.0
C16 C 0.70681 0.54282 0.37689 0.0
H17 H 0.69239 0.54508 0.39513 0.0
H18 H 0.71751 0.55334 0.49131 0.0
H19 H 0.02681 0.75445 0.17544 0.0
C20 C 0.02607 0.76369 0.22813 0.0
C21 C 0.03755 0.77966 0.22926 0.0
C22 C 1.01312 0.76031 0.29201 0.0
H23 H 0.04401 0.80554 0.29101 0.0
C24 C 0.03591 0.79264 0.29327 0.0
C25 C 0.02241 0.79039 0.35445 0.0
C26 C 1.01132 0.77405 0.35489 0.0
C27 C 1.00067 0.74327 0.28937 0.0
H28 H 1.00123 0.77235 0.40387 0.0
C29 C 1.00636 0.72649 0.24935 0.0
C30 C 0.99414 0.71093 0.24284 0.0
C31 C 0.98259 0.74385 0.32425 0.0
H32 H 0.97722 0.75644 0.35291 0.0
C33 C 0.97079 0.72827 0.3209 0.0
H34 H 0.02013 0.72556 0.22183 0.0
C35 C 0.97646 0.71198 0.28067 0.0
H36 H 0.96689 0.70018 0.27896 0.0
H37 H 0.95701 0.72895 0.34859 0.0
H38 H 0.78592 0.02149 0.18483 0.0
C39 C 0.77565 0.02115 0.23351 0.0
C40 C 0.75773 0.02812 0.21605 0.0
C41 C 0.77997 1.01345 0.31134 0.0
H42 H 0.72937 0.03083 0.25953 0.0
C43 C 0.74353 0.02642 0.27466 0.0
C44 C 0.74692 1.01807 0.3507 0.0
C45 C 0.76527 1.01227 0.37037 0.0
C46 C 0.79937 1.00576 0.3281 0.0
H47 H 0.76768 1.00643 0.43063 0.0
C48 C 0.81508 1.01127 0.28025 0.0
C49 C 0.83284 1.00293 0.29117 0.0
C50 C 0.80231 0.99211 0.38949 0.0
H51 H 0.79093 0.98676 0.42634 0.0
C52 C 0.8201 0.9845 0.4031 0.0
H53 H 0.81381 0.02206 0.23405 0.0
C54 C 0.83524 0.98977 0.35422 0.0
H55 H 0.84869 0.98305 0.36393 0.0
H56 H 0.82204 0.97403 0.45044 0.0
H57 H 0.51656 0.78449 0.18254 0.0
C58 C 0.51769 0.7756 0.23619 0.0
C59 C 0.50534 0.76038 0.24376 0.0
C60 C 0.53216 0.77849 0.29414 0.0
H61 H 0.49869 0.73539 0.31154 0.0
C62 C 0.50746 0.74784 0.30915 0.0
C63 C 0.52231 0.74963 0.36455 0.0
C64 C 0.53436 0.76519 0.35823 0.0
C65 C 0.54597 0.79418 0.28258 0.0
H66 H 0.54562 0.76653 0.40241 0.0
C67 C 0.54079 0.81124 0.24376 0.0
C68 C 0.55429 0.82522 0.2271 0.0
C69 C 0.56483 0.7918 0.30639 0.0
H70 H 0.5697 0.77885 0.33366 0.0
C71 C 0.57802 0.80589 0.29289 0.0
H72 H 0.52643 0.81353 0.22461 0.0
C73 C 0.57286 0.82242 0.25333 0.0
H74 H 0.58348 0.83301 0.24269 0.0
H75 H 0.59244 0.80383 0.31175 0.0
H76 H 0.29162 0.53191 0.16818 0.0
C77 C 0.28141 0.52771 0.12243 0.0
C78 C 0.26284 0.52492 0.14716 0.0
C79 C 0.28668 0.52559 0.03949 0.0
H80 H 0.23466 0.5189 0.10746 0.0
C81 C 0.24919 0.5204 0.08863 0.0
C82 C 0.25372 0.51907 0.00537 0.0
C83 C 0.27251 0.52151 0.98072 0.0
C84 C 0.30675 0.52863 0.01534 0.0
H85 H 0.27595 0.52012 0.9163 0.0
C86 C 0.32158 0.52434 0.07022 0.0
C87 C 0.34038 0.52891 0.05154 0.0
C88 C 0.31124 0.53682 0.93935 0.0
H89 H 0.30039 0.5407 0.89609 0.0
C90 C 0.32984 0.5408 0.91921 0.0
H91 H 0.31853 0.51742 0.12777 0.0
C92 C 0.34427 0.53707 0.97485 0.0
H93 H 0.35842 0.54109 0.95842 0.0
H94 H 0.33306 0.54728 0.86084 0.0
H95 H 0.02823 0.28637 0.16822 0.0
C96 C 0.03068 0.27604 0.12056 0.0
C97 C 0.03776 0.25857 0.14323 0.0
C98 C 0.02624 0.27993 0.03799 0.0
H99 H 0.04459 0.23073 0.10424 0.0
C100 C 0.03996 0.24449 0.08432 0.0
C101 C 0.03513 0.24751 0.00188 0.0
C102 C 0.02836 0.2654 0.97879 0.0
C103 C 0.01844 0.29884 0.01632 0.0
H104 H 0.02491 0.26796 0.91505 0.0
C105 C 0.02378 0.31505 0.06101 0.0
C106 C 1.01476 0.33247 0.04889 0.0
C107 C 1.00461 0.30066 0.95528 0.0
H108 H 0.99983 0.28862 0.92055 0.0
C109 C 0.99612 0.318 0.94054 0.0
H110 H 0.03496 0.3141 0.10584 0.0
C111 C 1.00094 0.33371 0.98739 0.0
H112 H 0.99341 0.34667 0.97671 0.0
H113 H 0.98532 0.31915 0.89406 0.0
H114 H 0.25034 0.02248 0.14893 0.0
C115 C 0.2603 0.02421 0.09945 0.0
C116 C 0.27851 0.03008 0.11914 0.0
C117 C 0.25521 0.01997 0.01769 0.0
H118 H 0.30634 0.03499 0.07231 0.0
C119 C 0.29198 0.03135 0.05692 0.0
C120 C 0.28769 0.02658 0.97594 0.0
C121 C 0.26926 0.02109 0.95594 0.0
C122 C 0.23561 1.01332 -0.00079 0.0
H123 H 0.26606 1.01773 0.89268 0.0
C124 C 0.22024 0.01864 0.0494 0.0
C125 C 0.2022 1.01089 0.03777 0.0
C126 C 0.23221 1.0007 0.93428 0.0
H127 H 0.24346 0.99577 0.89534 0.0
C128 C 0.21424 0.99361 0.92023 0.0
H129 H 0.2222 0.02882 0.098 0.0
C130 C 0.1994 0.99849 0.97174 0.0
H131 H 0.18585 0.99205 0.96125 0.0
H132 H 0.21191 0.98381 0.8704 0.0
H133 H 0.50805 0.25553 0.16521 0.0
C134 C 0.50752 0.26487 0.11286 0.0
C135 C 0.49712 0.28146 0.11957 0.0
C136 C 0.51796 0.26091 0.04142 0.0
H137 H 0.49003 0.3077 0.06268 0.0
C138 C 0.49723 0.29439 0.05503 0.0
C139 C 0.50824 0.29143 0.98516 0.0
C140 C 0.51841 0.27454 0.97792 0.0
C141 C 0.5294 0.24325 0.03713 0.0
H142 H 0.52671 0.27223 0.92323 0.0
C143 C 0.52357 0.22672 0.07812 0.0
C144 C 0.53506 0.21058 0.08043 0.0
C145 C 0.54675 0.24305 -0.00403 0.0
H146 H 0.55206 0.25545 0.96559 0.0
C147 C 0.55792 0.22697 -0.00406 0.0
H148 H 0.51005 0.22633 0.10827 0.0
C149 C 0.55225 0.21093 0.03815 0.0
H150 H 0.56162 0.19897 0.03943 0.0
H151 H 0.5713 0.2271 0.96461 0.0
Ho152 Ho 0.02632 1.01441 0.75768 0.0
Ho153 Ho 1.00857 0.02558 0.58395 0.0
C154 C 1.01599 0.98224 0.61746 0.0
C155 C 0.0292 0.99858 0.8983 0.0
C156 C 0.03646 0.97965 0.91685 0.0
C157 C 0.03024 0.96408 0.87111 0.0
C158 C 0.03868 0.9466 0.88067 0.0
C159 C 0.05342 0.94418 0.93674 0.0
C160 C 0.0593 0.95955 0.98456 0.0
C161 C 0.05095 0.9772 0.97426 0.0
C162 C 0.05323 1.01685 0.63905 0.0
C163 C 0.023 0.05792 0.71666 0.0
C164 C 1.00391 0.04411 0.45129 0.0
C165 C 1.01242 0.06264 0.43734 0.0
C166 C 0.0301 0.06651 0.47171 0.0
C167 C 0.03623 0.08493 0.48116 0.0
C168 C 0.02502 0.09998 0.45473 0.0
C169 C 1.00791 0.09599 0.41479 0.0
C170 C 1.00157 0.07748 0.40701 0.0
C171 C 0.98421 1.01671 0.70416 0.0
O172 O 0.02008 0.9867 0.69466 0.0
O173 O 1.01227 0.99489 0.56011 0.0
O174 O 0.04167 1.01065 0.87137 0.0
O175 O 1.01342 0.99913 0.85677 0.0
O176 O 0.05682 1.01323 0.71555 0.0
O177 O 0.03579 0.01897 0.63343 0.0
O178 O 0.01843 0.05294 0.64071 0.0
O179 O 0.02538 0.04557 0.77661 0.0
O180 O 0.99134 0.04395 0.50985 0.0
O181 O 1.01567 0.03 0.45631 0.0
O182 O 0.98119 1.01339 0.62661 0.0
O183 O 0.9994 0.02566 0.71277 0.0
H184 H 0.01904 0.96539 0.82661 0.0
H185 H 0.03358 0.93491 0.84433 0.0
H186 H 0.07061 0.95801 0.02849 0.0
H187 H 0.05607 0.98901 0.00974 0.0
H188 H 0.03868 0.05537 0.49702 0.0
H189 H 0.04932 0.0873 0.51324 0.0
H190 H 0.99912 0.10717 0.3914 0.0
H191 H 0.98781 0.07483 0.38116 0.0
Ho192 Ho 0.52271 0.03004 0.75527 0.0
Ho193 Ho 0.51459 1.0111 0.59571 0.0
C194 C 0.55733 1.01798 0.63179 0.0
C195 C 0.53904 0.03917 0.89014 0.0
C196 C 0.55947 0.03935 0.90601 0.0
C197 C 0.56981 0.02253 0.90419 0.0
C198 C 0.58935 0.02292 0.90113 0.0
C199 C 0.59902 0.0401 0.89987 0.0
C200 C 0.58875 0.05688 0.90614 0.0
C201 C 0.56916 0.0565 0.90949 0.0
C202 C 0.51394 0.05374 0.63172 0.0
C203 C 0.48013 0.02248 0.72088 0.0
C204 C 0.49861 1.00283 0.45908 0.0
C205 C 0.4786 1.00536 0.43825 0.0
C206 C 0.4704 0.02333 0.44018 0.0
C207 C 0.45095 0.02537 0.4388 0.0
C208 C 0.43926 1.00953 0.4358 0.0
C209 C 0.44746 0.99163 0.42903 0.0
C210 C 0.46695 0.98958 0.42999 0.0
C211 C 0.52436 0.98745 0.71717 0.0
O212 O 0.55163 0.02238 0.7068 0.0
O213 O 0.54524 1.01451 0.57224 0.0
O214 O 0.53318 0.0516 0.837 0.0
O215 O 0.53137 0.02268 0.87836 0.0
O216 O 0.50857 0.05608 0.70717 0.0
O217 O 0.52422 0.03938 0.62657 0.0
O218 O 0.48577 0.01903 0.64483 0.0
O219 O 0.49229 0.02554 0.78049 0.0
O220 O 0.50195 0.99033 0.51599 0.0
O221 O 0.5084 1.01819 0.46958 0.0
O222 O 0.52945 0.98538 0.64119 0.0
O223 O 0.51358 1.00145 0.72422 0.0
H224 H 0.56286 1.00903 0.90084 0.0
H225 H 0.59682 1.00974 0.89572 0.0
H226 H 0.59584 0.07033 0.907 0.0
H227 H 0.56155 0.06966 0.91086 0.0
H228 H 0.47893 0.03583 0.4467 0.0
H229 H 0.44507 0.03937 0.4422 0.0
H230 H 0.43884 0.97913 0.42701 0.0
H231 H 0.4729 0.97559 0.42894 0.0
Ho232 Ho 0.51823 0.5262 0.7668 0.0
Ho233 Ho 0.5344 0.51455 0.59067 0.0
C234 C 0.52831 0.55805 0.62595 0.0
C235 C 0.51614 0.54159 0.90876 0.0
C236 C 0.50844 0.56021 0.93008 0.0
C237 C 0.51313 0.57599 0.88257 0.0
C238 C 0.50425 0.59314 0.89563 0.0
C239 C 0.49061 0.59501 0.95708 0.0
C240 C 0.48628 0.57942 0.00649 0.0
C241 C 0.49505 0.56209 -0.00736 0.0
C242 C 0.49042 0.5245 0.65132 0.0
C243 C 0.52025 0.48272 0.72363 0.0
C244 C 0.53825 0.4964 0.45604 0.0
C245 C 0.52833 0.47894 0.43491 0.0
C246 C 0.5097 0.4764 0.4609 0.0
C247 C 0.50136 0.45874 0.45798 0.0
C248 C 0.51151 0.44315 0.42968 0.0
C249 C 0.52988 0.44585 0.4001 0.0
C250 C 0.53823 0.46361 0.4029 0.0
C251 C 0.55978 0.5229 0.70832 0.0
O252 O 0.52503 0.55371 0.70393 0.0
O253 O 0.53098 0.5453 0.56781 0.0
O254 O 0.50382 0.5292 0.88311 0.0
O255 O 0.53152 0.54173 0.86445 0.0
O256 O 0.48745 0.52819 0.72824 0.0
O257 O 0.50772 0.52182 0.64377 0.0
O258 O 0.52268 0.48782 0.64598 0.0
O259 O 0.52003 0.49505 0.78467 0.0
O260 O 0.55008 0.49472 0.51718 0.0
O261 O 0.52782 0.51151 0.46173 0.0
O262 O 0.56243 0.52607 0.63054 0.0
O263 O 0.54447 0.51431 0.71826 0.0
H264 H 0.52348 0.57511 0.83423 0.0
H265 H 0.50817 0.60502 0.85784 0.0
H266 H 0.47584 0.58054 0.05452 0.0
H267 H 0.49112 0.55009 0.02961 0.0
H268 H 0.50187 0.48783 0.48815 0.0
H269 H 0.48731 0.45715 0.48226 0.0
H270 H 0.53795 0.43416 0.37643 0.0
H271 H 0.55269 0.4652 0.38365 0.0
Ho272 Ho 0.02051 0.5093 0.74976 0.0
Ho273 Ho 0.03087 0.52835 0.57997 0.0
C274 C 0.98754 0.524 0.62144 0.0
C275 C 1.00252 0.50102 0.88099 0.0
C276 C 0.98264 0.50542 0.89644 0.0
C277 C 0.97542 0.52298 0.87307 0.0
C278 C 0.95614 0.52572 0.86599 0.0
C279 C 0.94359 0.51099 0.88252 0.0
C280 C 0.95079 0.49377 0.9109 0.0
C281 C 0.97016 0.491 0.91755 0.0
C282 C 0.02951 0.48601 0.62516 0.0
C283 C 0.06355 0.51788 0.71638 0.0
C284 C 0.0467 0.53248 0.44064 0.0
C285 C 0.06565 0.54016 0.42941 0.0
C286 C 0.0785 0.53052 0.37989 0.0
C287 C 0.09773 0.5338 0.38865 0.0
C288 C 0.10437 0.5467 0.4474 0.0
C289 C 0.09141 0.55734 0.49242 0.0
C290 C 0.07222 0.55407 0.48366 0.0
C291 C 0.02877 0.55467 0.70134 0.0
O292 O 0.99268 0.5188 0.69641 0.0
O293 O 0.99976 0.52714 0.56177 0.0
O294 O 1.00516 0.48895 0.82154 0.0
O295 O 1.01404 0.51534 0.87693 0.0
O296 O 0.03385 0.4829 0.70151 0.0
O297 O 0.02001 0.50092 0.61959 0.0
O298 O 0.05881 0.52117 0.63885 0.0
O299 O 0.05094 0.51472 0.77455 0.0
O300 O 0.03386 0.54422 0.46747 0.0
O301 O 0.0466 0.51641 0.47972 0.0
O302 O 0.03252 0.55852 0.62538 0.0
O303 O 0.0264 0.53723 0.70581 0.0
H304 H 0.98465 0.53429 0.8548 0.0
H305 H 0.95116 0.53908 0.84301 0.0
H306 H 0.94149 0.48227 0.92591 0.0
H307 H 0.97542 0.47729 0.93478 0.0
H308 H 0.07377 0.51954 0.3387 0.0
H309 H 0.10743 0.52565 0.35193 0.0
H310 H 0.09609 0.5673 0.53835 0.0
H311 H 0.06266 0.56147 0.52387 0.0
C312 C 0.16792 1.01625 0.07052 0.0
C313 C 0.18665 1.01464 0.09727 0.0
C314 C 0.15319 1.01795 0.12709 0.0
C315 C 0.14203 1.00763 0.34482 0.0
H316 H 0.09818 0.03857 0.30568 0.0
C317 C 0.08665 0.01915 0.59624 0.0
C318 C 0.06763 0.01855 0.57384 0.0
C319 C 0.10071 0.01967 0.53656 0.0
C320 C 0.11024 0.02972 0.31714 0.0
H321 H 0.20443 1.01401 0.20536 0.0
H322 H 0.17894 1.01748 0.30342 0.0
H323 H 0.12368 0.03815 0.20531 0.0
H324 H 0.04848 1.01787 0.47108 0.0
H325 H 0.07304 0.01895 0.36589 0.0
H326 H 0.12869 0.99916 0.45628 0.0
C327 C 0.17556 1.0171 0.23863 0.0
C328 C 0.1249 0.02947 0.25958 0.0
C329 C 0.19026 1.01539 0.18214 0.0
C330 C 0.06295 0.01873 0.49012 0.0
C331 C 0.07707 0.01929 0.42998 0.0
C332 C 0.12746 1.0079 0.40221 0.0
C333 C 0.15678 1.01807 0.21206 0.0
C334 C 0.14106 1.0185 0.27288 0.0
C335 C 0.09616 0.01951 0.45254 0.0
C336 C 0.1114 0.01903 0.38956 0.0
H337 H 0.16457 1.01598 0.00568 0.0
H338 H 0.13895 0.01858 0.10415 0.0
H339 H 0.15399 0.99863 0.35644 0.0
H340 H 0.09074 0.01908 0.66031 0.0
H341 H 0.1152 0.02017 0.55644 0.0
C342 C 0.52119 0.19572 0.20735 0.0
C343 C 0.52971 0.19372 0.12988 0.0
C344 C 0.51763 0.18 0.25662 0.0
C345 C 0.53425 0.13165 0.29148 0.0
H346 H 0.48879 0.12645 0.41981 0.0
C347 C 0.52132 0.06588 0.49092 0.0
C348 C 0.51312 0.06864 0.56835 0.0
C349 C 0.52182 0.08046 0.43332 0.0
C350 C 0.50167 0.12775 0.38513 0.0
H351 H 0.5403 0.17333 0.04238 0.0
H352 H 0.53431 0.14604 0.12859 0.0
H353 H 0.49241 0.15321 0.32769 0.0
H354 H 0.49861 0.08872 0.64545 0.0
H355 H 0.49984 0.11427 0.54615 0.0
H356 H 0.54379 0.10655 0.34999 0.0
C357 C 0.53062 0.15982 0.15169 0.0
C358 C 0.50371 0.1431 0.3321 0.0
C359 C 0.53408 0.1755 0.10224 0.0
C360 C 0.50501 0.08615 0.58621 0.0
C361 C 0.50562 0.10078 0.52889 0.0
C362 C 0.53228 0.11639 0.34486 0.0
C363 C 0.52259 0.16187 0.22998 0.0
C364 C 0.52006 0.14527 0.28475 0.0
C365 C 0.51426 0.09824 0.45192 0.0
C366 C 0.51599 0.11422 0.39275 0.0
H367 H 0.51786 0.2095 0.23138 0.0
H368 H 0.51159 0.18213 0.3169 0.0
H369 H 0.54716 0.13302 0.25699 0.0
H370 H 0.52766 0.05253 0.47526 0.0
H371 H 0.52826 0.07779 0.37429 0.0
C372 C 0.35254 0.52928 0.1973 0.0
C373 C 0.35577 0.52614 0.11316 0.0
C374 C 0.36719 0.52801 0.25437 0.0
C375 C 0.41642 0.51068 0.28209 0.0
H376 H 0.41629 0.54622 0.46245 0.0
C377 C 0.48 0.52211 0.50352 0.0
C378 C 0.47564 0.52347 0.58733 0.0
C379 C 0.46567 0.52166 0.44427 0.0
C380 C 0.41648 0.53609 0.41282 0.0
H381 H 0.37712 0.51848 0.02431 0.0
H382 H 0.4027 0.51698 0.123 0.0
H383 H 0.39086 0.54669 0.36287 0.0
H384 H 0.45287 0.52563 0.67484 0.0
H385 H 0.42799 0.52507 0.57211 0.0
H386 H 0.44238 0.50042 0.33192 0.0
C387 C 0.38876 0.52018 0.14526 0.0
C388 C 0.40181 0.53628 0.3557 0.0
C389 C 0.37406 0.52129 0.08823 0.0
C390 C 0.45671 0.52452 0.61069 0.0
C391 C 0.44243 0.52428 0.55176 0.0
C392 C 0.43122 0.51062 0.33896 0.0
C393 C 0.3856 0.52374 0.22914 0.0
C394 C 0.40144 0.52349 0.28973 0.0
C395 C 0.44671 0.52292 0.46775 0.0
C396 C 0.43135 0.52324 0.4054 0.0
H397 H 0.33876 0.53325 0.21918 0.0
H398 H 0.36404 0.53049 0.31846 0.0
H399 H 0.41659 0.50045 0.23293 0.0
H400 H 0.49443 0.52178 0.48366 0.0
H401 H 0.46946 0.52083 0.38001 0.0
C402 C 1.01788 0.3675 0.07259 0.0
C403 C 0.01897 0.34901 0.10297 0.0
C404 C 0.02051 0.38295 0.1247 0.0
C405 C 0.04154 0.39762 0.32113 0.0
H406 H 1.004 0.43698 0.31867 0.0
C407 C 0.03762 0.45355 0.57811 0.0
C408 C 0.03078 0.47155 0.55978 0.0
C409 C 0.03744 0.43932 0.51878 0.0
C410 C 1.01486 0.42637 0.31939 0.0
H411 H 0.02386 0.3326 0.21329 0.0
H412 H 0.02908 0.35949 0.30283 0.0
H413 H 1.00173 0.41105 0.22153 0.0
H414 H 0.01884 0.48891 0.46404 0.0
H415 H 0.01928 0.46439 0.35924 0.0
H416 H 0.05493 0.41295 0.41769 0.0
C417 C 0.02617 0.36196 0.23847 0.0
C418 C 1.01348 0.41142 0.26372 0.0
C419 C 0.02327 0.34651 0.18673 0.0
C420 C 0.02424 0.47518 0.48001 0.0
C421 C 0.02429 0.461 0.42017 0.0
C422 C 0.0431 0.4127 0.376 0.0
C423 C 0.02459 0.38036 0.20833 0.0
C424 C 0.02667 0.39676 0.26459 0.0
C425 C 0.03065 0.44275 0.43893 0.0
C426 C 0.02965 0.42721 0.37683 0.0
H427 H 1.01498 0.37011 0.00838 0.0
H428 H 0.01943 0.39697 0.09942 0.0
H429 H 0.05206 0.38666 0.32262 0.0
H430 H 0.04266 0.45027 0.63919 0.0
H431 H 0.04215 0.42547 0.53663 0.0
C432 C 0.84545 1.00584 0.14792 0.0
C433 C 0.84852 1.00678 0.23309 0.0
C434 C 0.86044 1.00741 0.09292 0.0
C435 C 0.90857 0.0249 0.06801 0.0
H436 H 0.91252 0.98623 0.90133 0.0
C437 C 0.97284 0.02066 0.84945 0.0
C438 C 0.96962 1.01471 0.76841 0.0
C439 C 0.95858 0.01947 0.90855 0.0
C440 C 0.91156 0.99736 0.94643 0.0
H441 H 0.86966 1.01079 0.32714 0.0
H442 H 0.89586 1.01394 0.23072 0.0
H443 H 0.88643 0.98571 -0.00256 0.0
H444 H 0.94889 1.003 0.68564 0.0
H445 H 0.92395 1.00156 0.78685 0.0
H446 H 0.93334 0.03694 0.0158 0.0
C447 C 0.88184 1.01184 0.20672 0.0
C448 C 0.89658 0.99698 0.00185 0.0
C449 C 0.86686 1.00997 0.26187 0.0
C450 C 0.95188 1.00755 0.74775 0.0
C451 C 0.93758 1.0066 0.8063 0.0
C452 C 0.92343 0.02547 0.01167 0.0
C453 C 0.87884 1.01022 0.12168 0.0
C454 C 0.89487 1.01076 0.06313 0.0
C455 C 0.94066 1.01254 0.88774 0.0
C456 C 0.92513 1.01173 0.94972 0.0
H457 H 0.83152 1.00322 0.12383 0.0
H458 H 0.85767 1.00626 0.02771 0.0
H459 H 0.90757 0.03577 0.11433 0.0
H460 H 0.98633 0.02639 0.86709 0.0
H461 H 0.96168 0.02394 0.97063 0.0
C462 C 0.5337 0.85335 0.19726 0.0
C463 C 0.54957 0.84239 0.17908 0.0
C464 C 0.53025 0.87012 0.15446 0.0
C465 C 0.555 0.90538 0.02418 0.0
H466 H 0.50491 0.92065 0.95969 0.0
C467 C 0.54132 0.95923 0.76836 0.0
C468 C 0.52745 0.97293 0.78063 0.0
C469 C 0.54376 0.94468 0.82479 0.0
C470 C 0.51896 0.91669 0.97825 0.0
H471 H 0.57365 0.8399 0.0987 0.0
H472 H 0.56753 0.86865 0.02353 0.0
H473 H 0.5092 0.89221 0.04178 0.0
H474 H 0.50537 0.98233 0.86222 0.0
H475 H 0.50946 0.95655 0.96087 0.0
H476 H 0.56479 0.92949 0.95858 0.0
C477 C 0.55804 0.86481 0.07258 0.0
C478 C 0.52144 0.90039 0.02538 0.0
C479 C 0.56152 0.84822 0.11549 0.0
C480 C 0.5162 0.97195 0.85133 0.0
C481 C 0.51845 0.95716 0.90741 0.0
C482 C 0.55253 0.92152 0.97665 0.0
C483 C 0.54256 0.8762 0.09222 0.0
C484 C 0.53954 0.89431 0.04762 0.0
C485 C 0.53225 0.94332 0.89453 0.0
C486 C 0.53453 0.9272 0.95189 0.0
H487 H 0.52426 0.84924 0.2461 0.0
H488 H 0.51822 0.87853 0.17157 0.0
H489 H 0.56911 0.90151 0.042 0.0
H490 H 0.55021 0.95964 0.71449 0.0
H491 H 0.5544 0.93417 0.81264 0.0
C492 C 0.69812 0.53851 0.15523 0.0
C493 C 0.69592 0.5326 0.23704 0.0
C494 C 0.68331 0.53705 0.09906 0.0
C495 C 0.63771 0.51339 0.06085 0.0
H496 H 0.62912 0.55562 0.9157 0.0
C497 C 0.57185 0.51808 0.85179 0.0
C498 C 0.57452 0.52501 0.77195 0.0
C499 C 0.58628 0.51917 0.91017 0.0
C500 C 0.6314 0.54359 0.95504 0.0
H501 H 0.67646 0.51987 0.32275 0.0
H502 H 0.65059 0.51746 0.22494 0.0
H503 H 0.65519 0.55649 0.01232 0.0
H504 H 0.59431 0.53868 0.69088 0.0
H505 H 0.6195 0.54041 0.79184 0.0
H506 H 0.61397 0.50045 0.00316 0.0
C507 C 0.66382 0.52319 0.20416 0.0
C508 C 0.6464 0.54409 0.01056 0.0
C509 C 0.67863 0.52472 0.26049 0.0
C510 C 0.5918 0.53328 0.75202 0.0
C511 C 0.60622 0.53435 0.81019 0.0
C512 C 0.62272 0.51287 0.0051 0.0
C513 C 0.66588 0.5296 0.12299 0.0
C514 C 0.64982 0.52897 0.06402 0.0
C515 C 0.60373 0.52722 0.89 0.0
C516 C 0.61939 0.52794 0.95115 0.0
H517 H 0.71114 0.54484 0.13506 0.0
H518 H 0.68551 0.54188 0.0368 0.0
H519 H 0.64002 0.50141 0.10044 0.0
H520 H 0.55868 0.51159 0.86892 0.0
H521 H 0.58373 0.51376 0.97122 0.0
C522 C 0.98569 0.68481 0.14543 0.0
C523 C 0.99928 0.69384 0.19426 0.0
C524 C 0.99009 0.66866 0.10064 0.0
C525 C 0.02968 0.64278 0.00879 0.0
H526 H 0.99299 0.60277 0.9905 0.0
C527 C 0.03217 0.5876 0.75019 0.0
C528 C 0.02712 0.56894 0.76728 0.0
C529 C 0.03018 0.60164 0.80947 0.0
C530 C 1.00351 0.61368 -0.00435 0.0
H531 H 0.02835 0.69278 0.23339 0.0
H532 H 0.03612 0.66461 0.15418 0.0
H533 H 0.98694 0.62934 0.08137 0.0
H534 H 1.01617 0.55041 0.86041 0.0
H535 H 1.01259 0.57497 0.96488 0.0
H536 H 0.04622 0.62717 0.92278 0.0
C537 C 0.022 0.67015 0.1507 0.0
C538 C 0.99994 0.62905 0.04709 0.0
C539 C 1.01755 0.68634 0.19599 0.0
C540 C 0.02019 0.5646 0.84558 0.0
C541 C 1.01807 0.57872 0.90514 0.0
C542 C 0.03322 0.62745 0.95712 0.0
C543 C 1.00828 0.66105 0.10275 0.0
C544 C 1.01283 0.64396 0.05329 0.0
C545 C 0.02299 0.59746 0.88765 0.0
C546 C 0.02004 0.61285 0.94876 0.0
H547 H 0.97159 0.69039 0.14075 0.0
H548 H 0.97928 0.66234 0.06297 0.0
H549 H 0.03989 0.65402 0.01168 0.0
H550 H 0.03754 0.59143 0.69031 0.0
H551 H 0.03384 0.61591 0.79312 0.0
C552 C 0.05966 0.25044 0.25611 0.0
C553 C 0.04127 0.25385 0.22966 0.0
C554 C 0.06287 0.23985 0.32678 0.0
C555 C 0.03851 0.21061 0.48635 0.0
H556 H 0.06891 0.17167 0.38708 0.0
C557 C 1.01761 0.13374 0.48651 0.0
C558 C 0.03098 0.11969 0.47067 0.0
C559 C 0.02305 0.15247 0.49488 0.0
C560 C 0.06078 0.18236 0.41817 0.0
H561 H 1.01188 0.25091 0.25923 0.0
H562 H 1.0173 0.23185 0.38077 0.0
H563 H 0.07159 0.20327 0.33853 0.0
H564 H 0.06086 0.11433 0.458 0.0
H565 H 0.07035 0.14666 0.47699 0.0
H566 H 0.02693 0.1891 0.56289 0.0
C567 C 0.02935 0.23761 0.34917 0.0
C568 C 0.06236 0.20071 0.39006 0.0
C569 C 0.02617 0.24846 0.27924 0.0
C570 C 0.05007 0.12467 0.46986 0.0
C571 C 0.05555 0.14333 0.48001 0.0
C572 C 0.03702 0.19216 0.51511 0.0
C573 C 0.04769 0.23205 0.37018 0.0
C574 C 0.05043 0.21484 0.42017 0.0
C575 C 0.04206 0.15759 0.48888 0.0
C576 C 0.04733 0.17763 0.47767 0.0
H577 H 0.07146 0.25455 0.21835 0.0
H578 H 0.07717 0.23618 0.34251 0.0
H579 H 0.02939 0.22127 0.51196 0.0
H580 H 1.00282 0.1304 0.49072 0.0
H581 H 1.01219 0.16298 0.50129 0.0
C582 C 0.29694 0.04742 0.22488 0.0
C583 C 0.28452 0.03281 0.20541 0.0
C584 C 0.30758 0.04669 0.29652 0.0
C585 C 0.32798 1.0082 0.41364 0.0
H586 H 0.36073 0.04907 0.47728 0.0
C587 C 0.40654 1.00049 0.39572 0.0
C588 C 0.41862 1.01161 0.44321 0.0
C589 C 0.38716 1.00249 0.40255 0.0
C590 C 0.35166 0.03737 0.46232 0.0
H591 H 0.2711 1.00767 0.25179 0.0
H592 H 0.28904 1.00684 0.37909 0.0
H593 H 0.32863 0.05572 0.43778 0.0
H594 H 0.4198 0.0333 0.53674 0.0
H595 H 0.38594 0.03638 0.55067 0.0
H596 H 0.35096 0.98985 0.43844 0.0
C597 C 0.29126 1.01842 0.33727 0.0
C598 C 0.33323 0.04124 0.43858 0.0
C599 C 0.28079 0.01901 0.26468 0.0
C600 C 0.41085 0.02461 0.49865 0.0
C601 C 0.39143 0.02637 0.50675 0.0
C602 C 0.34622 1.00429 0.43932 0.0
C603 C 0.30585 0.0314 0.35078 0.0
C604 C 0.32171 0.02688 0.40711 0.0
C605 C 0.37931 1.0155 0.45795 0.0
C606 C 0.35873 0.01897 0.45736 0.0
H607 H 0.29971 0.0585 0.18104 0.0
H608 H 0.3185 0.0571 0.30408 0.0
H609 H 0.31961 0.99661 0.39114 0.0
H610 H 0.41207 0.99059 0.3514 0.0
H611 H 0.37837 0.99427 0.36191 0.0
C612 C 0.50121 0.29107 0.26453 0.0
C613 C 0.48906 0.28745 0.1987 0.0
C614 C 0.49591 0.30357 0.32631 0.0
C615 C 0.46816 0.34599 0.32099 0.0
H616 H 0.49446 0.35549 0.52516 0.0
C617 C 0.48416 0.42118 0.41499 0.0
C618 C 0.50318 0.42409 0.43401 0.0
C619 C 0.47656 0.40312 0.41579 0.0
C620 C 0.4869 0.35302 0.46845 0.0
H621 H 0.46094 0.29138 0.15187 0.0
H622 H 0.45125 0.31255 0.26196 0.0
H623 H 0.48996 0.32319 0.47832 0.0
H624 H 0.52875 0.41047 0.47485 0.0
H625 H 0.5158 0.37891 0.47223 0.0
H626 H 0.46616 0.37562 0.30769 0.0
C627 C 0.46513 0.30638 0.26456 0.0
C628 C 0.48426 0.33453 0.44178 0.0
C629 C 0.47057 0.29416 0.20191 0.0
C630 C 0.51419 0.40864 0.45764 0.0
C631 C 0.50662 0.39057 0.45791 0.0
C632 C 0.47077 0.36438 0.34758 0.0
C633 C 0.4783 0.3125 0.32325 0.0
C634 C 0.47577 0.33086 0.36541 0.0
C635 C 0.48785 0.38754 0.43489 0.0
C636 C 0.48102 0.36816 0.41933 0.0
H637 H 0.51557 0.28607 0.2631 0.0
H638 H 0.50646 0.30783 0.37041 0.0
H639 H 0.46176 0.3439 0.26141 0.0
H640 H 0.47527 0.43277 0.39674 0.0
H641 H 0.46199 0.40131 0.39875 0.0
C642 C 0.24584 0.51514 0.27333 0.0
C643 C 0.25693 0.52843 0.23264 0.0
C644 C 0.23591 0.52016 0.34366 0.0
C645 C 0.21103 0.56129 0.40248 0.0
H646 H 0.1901 0.52702 0.56266 0.0
C647 C 0.13342 0.56549 0.47796 0.0
C648 C 0.12469 0.54803 0.46578 0.0
C649 C 0.1528 0.56654 0.49051 0.0
C650 C 0.19587 0.53689 0.5189 0.0
H651 H 0.26807 0.55668 0.23755 0.0
H652 H 0.25048 0.5656 0.36056 0.0
H653 H 0.2219 0.52194 0.51141 0.0
H654 H 0.12906 0.51792 0.46496 0.0
H655 H 0.16275 0.5197 0.4833 0.0
H656 H 0.18457 0.57516 0.40322 0.0
C657 C 0.24947 0.55131 0.3382 0.0
C658 C 0.2141 0.53404 0.48999 0.0
C659 C 0.25955 0.54621 0.26806 0.0
C660 C 0.13549 0.53161 0.4716 0.0
C661 C 0.15479 0.53264 0.48409 0.0
C662 C 0.19279 0.56405 0.43082 0.0
C663 C 0.23674 0.53865 0.37389 0.0
C664 C 0.22134 0.54546 0.42729 0.0
C665 C 0.1638 0.55014 0.49117 0.0
C666 C 0.18456 0.55109 0.48489 0.0
H667 H 0.24373 0.50131 0.24718 0.0
H668 H 0.22614 0.51008 0.36908 0.0
H669 H 0.21613 0.57035 0.35408 0.0
H670 H 0.12539 0.57838 0.47462 0.0
H671 H 0.15927 0.58023 0.49659 0.0
C672 C 0.06783 0.78892 0.16548 0.0
C673 C 0.04859 0.78531 0.15708 0.0
C674 C 0.07681 0.80121 0.11147 0.0
C675 C 0.06652 0.83535 0.93956 0.0
H676 H 0.09272 0.8693 0.08607 0.0
C677 C 0.06664 0.91456 0.87718 0.0
C678 C 0.06204 0.92541 0.94645 0.0
C679 C 0.07244 0.89593 0.886 0.0
C680 C 0.08543 0.86002 0.04413 0.0
H681 H 0.02409 0.78978 0.08148 0.0
H682 H 0.03922 0.81169 0.98974 0.0
H683 H 0.08931 0.83676 0.12375 0.0
H684 H 0.06063 0.92561 0.07913 0.0
H685 H 0.07016 0.8931 0.0949 0.0
H686 H 0.06086 0.85924 0.86457 0.0
C687 C 0.04781 0.80491 0.03579 0.0
C688 C 0.08376 0.84111 0.06495 0.0
C689 C 0.039 0.79227 0.08855 0.0
C690 C 0.06424 0.91761 0.02478 0.0
C691 C 0.06983 0.89895 0.03362 0.0
C692 C 0.06785 0.85438 0.91959 0.0
C693 C 0.06647 0.8106 0.05025 0.0
C694 C 0.07332 0.82871 0.01529 0.0
C695 C 0.07357 0.88771 0.96427 0.0
C696 C 0.07642 0.86712 0.97407 0.0
H697 H 0.07547 0.78363 0.21812 0.0
H698 H 0.09138 0.80465 0.12263 0.0
H699 H 0.05895 0.82615 0.89827 0.0
H700 H 0.0653 0.92036 0.816 0.0
H701 H 0.07551 0.88784 0.83134 0.0
C702 C 0.75593 0.02475 0.06322 0.0
C703 C 0.75278 0.03554 0.13403 0.0
C704 C 0.74613 0.02874 0.99084 0.0
C705 C 0.70742 0.05991 0.90944 0.0
H706 H 0.6843 1.01169 0.86624 0.0
C707 C 0.62845 0.05349 0.83811 0.0
C708 C 0.61969 0.04038 0.89006 0.0
C709 C 0.64798 0.05357 0.82907 0.0
C710 C 0.69065 0.0253 0.8768 0.0
H711 H 0.7394 0.06052 0.18179 0.0
H712 H 0.7219 0.06713 0.05821 0.0
H713 H 0.71608 1.01283 0.91754 0.0
H714 H 0.62455 1.01715 0.97321 0.0
H715 H 0.65835 1.01745 0.95876 0.0
H716 H 0.681 0.07215 0.87769 0.0
C717 C 0.73185 0.05566 0.05657 0.0
C718 C 0.70909 0.02602 0.90518 0.0
C719 C 0.74174 0.05178 0.12828 0.0
C720 C 0.63081 0.02724 0.93181 0.0
C721 C 0.65023 0.02733 0.92289 0.0
C722 C 0.68882 0.05916 0.88234 0.0
C723 C 0.73285 0.0434 0.98884 0.0
C724 C 0.71719 0.04327 0.92816 0.0
C725 C 0.65908 0.04055 0.87186 0.0
C726 C 0.67987 0.04175 0.87184 0.0
H727 H 0.76455 1.01224 0.06584 0.0
H728 H 0.74771 0.01935 0.93902 0.0
H729 H 0.71347 0.07349 0.92339 0.0
H730 H 0.6202 0.06357 0.80385 0.0
H731 H 0.65439 0.06389 0.78919 0.0
C732 C 0.47423 0.75016 0.1904 0.0
C733 C 0.4931 0.75451 0.17534 0.0
C734 C 0.46478 0.73739 0.13991 0.0
C735 C 0.4732 0.70333 0.96555 0.0
H736 H 0.45186 0.6685 0.12226 0.0
C737 C 0.47506 0.62406 0.90343 0.0
C738 C 0.48153 0.61345 0.97044 0.0
C739 C 0.46878 0.64247 0.91469 0.0
C740 C 0.45779 0.67802 0.0775 0.0
H741 H 0.51619 0.75102 0.09076 0.0
H742 H 0.50027 0.7284 0.00486 0.0
H743 H 0.45448 0.70127 0.15798 0.0
H744 H 0.4858 0.61343 0.10196 0.0
H745 H 0.47544 0.64559 0.12177 0.0
H746 H 0.47838 0.67958 0.88888 0.0
C747 C 0.49233 0.73486 0.0539 0.0
C748 C 0.45897 0.69704 0.0973 0.0
C749 C 0.50158 0.74794 0.10328 0.0
C750 C 0.48074 0.62124 0.04939 0.0
C751 C 0.47467 0.6397 0.06059 0.0
C752 C 0.47236 0.68421 0.94642 0.0
C753 C 0.47431 0.72834 0.07529 0.0
C754 C 0.46769 0.70982 0.04351 0.0
C755 C 0.46903 0.65073 -0.00687 0.0
C756 C 0.46558 0.6712 0.00416 0.0
H757 H 0.46741 0.75517 0.24565 0.0
H758 H 0.45065 0.73332 0.1564 0.0
H759 H 0.47943 0.71279 0.92134 0.0
H760 H 0.4753 0.61826 0.84194 0.0
H761 H 0.46423 0.65038 0.86158 0.0
C762 C 0.80529 0.55379 0.07439 0.0
C763 C 0.7929 0.54024 0.10499 0.0
C764 C 0.81476 0.55067 0.00088 0.0
C765 C 0.83492 0.50957 0.91049 0.0
H766 H 0.86238 0.54762 0.79054 0.0
C767 C 0.91233 0.4988 0.83419 0.0
C768 C 0.92319 0.51348 0.86728 0.0
C769 C 0.89306 0.50111 0.82155 0.0
C770 C 0.8547 0.53672 0.82246 0.0
H771 H 0.77877 0.51402 0.07893 0.0
H772 H 0.79538 0.50848 0.94963 0.0
H773 H 0.83067 0.55434 0.83921 0.0
H774 H 0.92229 0.54224 0.91114 0.0
H775 H 0.88887 0.5462 0.88972 0.0
H776 H 0.85941 0.49251 0.8998 0.0
C777 C 0.79792 0.52143 0.98268 0.0
C778 C 0.83655 0.54055 0.85014 0.0
C779 C 0.78835 0.52463 0.05633 0.0
C780 C 0.91445 0.5307 0.8847 0.0
C781 C 0.89526 0.53303 0.87175 0.0
C782 C 0.85302 0.50574 0.88265 0.0
C783 C 0.81212 0.53384 0.95707 0.0
C784 C 0.82707 0.52752 0.89987 0.0
C785 C 0.88428 0.51816 0.84151 0.0
C786 C 0.86356 0.51978 0.8437 0.0
H787 H 0.80889 0.56599 0.11095 0.0
H788 H 0.82562 0.56053 0.98361 0.0
H789 H 0.82809 0.49916 0.94852 0.0
H790 H 0.91871 0.48551 0.81798 0.0
H791 H 0.88495 0.48944 0.7979 0.0
C792 C 0.05112 0.21838 0.94988 0.0
C793 C 0.0362 0.23125 0.94371 0.0
C794 C 0.05043 0.20102 0.90994 0.0
C795 C 1.01557 0.16764 0.81933 0.0
H796 H 0.06051 0.1386 0.77597 0.0
C797 C 1.01595 0.09164 0.68371 0.0
C798 C 0.02506 0.07836 0.73392 0.0
C799 C 1.01758 0.1109 0.69961 0.0
C800 C 0.04785 0.14656 0.78784 0.0
H801 H 1.00953 0.23643 0.88418 0.0
H802 H 1.00875 0.20655 0.81032 0.0
H803 H 0.0632 0.17175 0.8114 0.0
H804 H 0.04335 0.07504 0.83917 0.0
H805 H 0.04667 0.10883 0.86531 0.0
H806 H 1.00032 0.14232 0.79287 0.0
C807 C 0.02069 0.20953 0.84929 0.0
C808 C 0.04933 0.1656 0.80876 0.0
C809 C 0.02127 0.22689 0.89052 0.0
C810 C 0.03608 0.08487 0.79964 0.0
C811 C 0.03807 0.10419 0.81431 0.0
C812 C 1.0141 0.1487 0.79647 0.0
C813 C 0.03496 0.19601 0.86073 0.0
C814 C 0.03325 0.17637 0.82722 0.0
C815 C 0.02871 0.1174 0.76484 0.0
C816 C 0.03024 0.13785 0.78249 0.0
H817 H 0.06303 0.22136 0.98916 0.0
H818 H 0.06169 0.1912 0.92161 0.0
H819 H 1.0028 0.17515 0.83391 0.0
H820 H 1.0073 0.08715 0.63263 0.0
H821 H 1.01023 0.12076 0.66053 0.0
C822 C 0.31249 1.0088 0.90083 0.0
C823 C 0.30347 0.02594 0.9166 0.0
C824 C 0.33058 1.00844 0.86688 0.0
C825 C 0.37262 0.03932 0.85184 0.0
H826 H 0.3928 0.99785 0.72581 0.0
C827 C 0.45277 0.02972 0.81376 0.0
C828 C 0.45962 0.02269 0.7389 0.0
C829 C 0.43346 0.02997 0.83019 0.0
C830 C 0.38745 1.0097 0.76025 0.0
H831 H 0.30581 0.05607 0.9058 0.0
H832 H 0.33685 0.05555 0.84238 0.0
H833 H 0.3593 0.99923 0.75372 0.0
H834 H 0.45138 1.00983 0.6236 0.0
H835 H 0.41792 1.00993 0.6529 0.0
H836 H 0.40057 0.05012 0.85639 0.0
C837 C 0.33032 0.04232 0.8581 0.0
C838 C 0.36815 1.01036 0.77719 0.0
C839 C 0.31235 0.04266 0.89296 0.0
C840 C 0.44665 1.01558 0.68158 0.0
C841 C 0.42737 1.01559 0.69853 0.0
C842 C 0.39185 0.03874 0.83433 0.0
C843 C 0.34006 0.02525 0.84771 0.0
C844 C 0.36043 0.0251 0.82398 0.0
C845 C 0.42039 0.02307 0.77249 0.0
C846 C 0.39966 0.02381 0.78914 0.0
H847 H 0.30615 0.99575 0.92055 0.0
H848 H 0.33755 0.99501 0.86082 0.0
H849 H 0.36744 0.05078 0.88914 0.0
H850 H 0.46233 0.03517 0.85968 0.0
H851 H 0.42882 0.0354 0.88885 0.0
C852 C 0.49494 0.31715 0.8976 0.0
C853 C 0.51071 0.30742 0.92735 0.0
C854 C 0.49686 0.33489 0.86161 0.0
C855 C 0.52751 0.37597 0.87607 0.0
H856 H 0.49754 0.39522 0.6961 0.0
C857 C 0.51744 0.45569 0.82305 0.0
C858 C 0.51848 0.46227 0.74182 0.0
C859 C 0.51686 0.43638 0.83961 0.0
C860 C 0.50609 0.39006 0.74624 0.0
H861 H 0.54095 0.30825 0.93874 0.0
H862 H 0.54436 0.33925 0.87546 0.0
H863 H 0.49676 0.36169 0.72843 0.0
H864 H 0.51964 0.45342 0.61436 0.0
H865 H 0.51837 0.41994 0.64319 0.0
H866 H 0.53671 0.40429 0.89461 0.0
C867 C 0.53048 0.33317 0.88031 0.0
C868 C 0.50557 0.37085 0.765 0.0
C869 C 0.52857 0.3153 0.91549 0.0
C870 C 0.51864 0.44898 0.67765 0.0
C871 C 0.5179 0.42971 0.69415 0.0
C872 C 0.52789 0.39518 0.85789 0.0
C873 C 0.51458 0.34345 0.8554 0.0
C874 C 0.51619 0.36357 0.83053 0.0
C875 C 0.51719 0.42312 0.7754 0.0
C876 C 0.51706 0.40253 0.79322 0.0
H877 H 0.48099 0.31147 0.9065 0.0
H878 H 0.48431 0.3424 0.84352 0.0
H879 H 0.5357 0.37093 0.92755 0.0
H880 H 0.51731 0.46544 0.8741 0.0
H881 H 0.51606 0.43183 0.90291 0.0
C882 C 0.22778 0.49966 0.94676 0.0
C883 C 0.23807 0.51645 0.94627 0.0
C884 C 0.21017 0.49864 0.90879 0.0
C885 C 0.176 0.52486 0.77483 0.0
H886 H 0.13969 0.49665 0.90157 0.0
C887 C 0.09768 0.51838 0.67556 0.0
C888 C 0.08393 0.51754 0.73756 0.0
C889 C 0.11684 0.51782 0.69509 0.0
C890 C 0.14952 0.5048 0.86568 0.0
H891 H 0.23831 0.54518 0.90389 0.0
H892 H 0.20745 0.54362 0.83852 0.0
H893 H 0.17238 0.49628 0.94168 0.0
H894 H 0.07978 0.51595 0.86913 0.0
H895 H 0.11301 0.5155 0.90333 0.0
H896 H 0.15285 0.53406 0.70106 0.0
C897 C 0.21307 0.53102 0.86629 0.0
C898 C 0.16849 0.50429 0.88787 0.0
C899 C 0.23083 0.53195 0.9035 0.0
C900 C 0.0899 0.51642 0.81964 0.0
C901 C 0.10906 0.51602 0.8392 0.0
C902 C 0.15693 0.52548 0.7529 0.0
C903 C 0.20217 0.51453 0.87091 0.0
C904 C 0.18206 0.51436 0.84318 0.0
C905 C 0.12286 0.51655 0.77726 0.0
C906 C 0.14335 0.51559 0.79855 0.0
H907 H 0.23296 0.4876 0.98025 0.0
H908 H 0.20252 0.48554 0.91197 0.0
H909 H 0.18596 0.53267 0.73818 0.0
H910 H 0.09369 0.51926 0.6115 0.0
H911 H 0.12691 0.51803 0.64542 0.0
C912 C 1.00153 0.81677 0.39709 0.0
C913 C 0.01833 0.80676 0.40807 0.0
C914 C 0.99957 0.83495 0.42888 0.0
C915 C 1.01728 0.8695 0.57705 0.0
H916 H 1.00721 0.90626 0.40742 0.0
C917 C 0.02664 0.94905 0.63882 0.0
C918 C 1.01553 0.96199 0.59557 0.0
C919 C 0.02611 0.92989 0.61958 0.0
C920 C 1.00964 0.8963 0.45638 0.0
H921 H 0.04584 0.80748 0.46425 0.0
H922 H 0.04207 0.83896 0.52329 0.0
H923 H 1.00655 0.873 0.37401 0.0
H924 H 0.99487 0.96491 0.499 0.0
H925 H 0.99319 0.93152 0.46771 0.0
H926 H 0.01984 0.89257 0.6603 0.0
C927 C 0.0305 0.8328 0.48951 0.0
C928 C 1.00934 0.87716 0.43684 0.0
C929 C 0.03263 0.81478 0.45619 0.0
C930 C 1.00377 0.95532 0.53285 0.0
C931 C 1.00292 0.93609 0.51467 0.0
C932 C 1.01717 0.88865 0.59718 0.0
C933 C 1.01423 0.84335 0.47357 0.0
C934 C 1.01332 0.86355 0.4967 0.0
C935 C 1.01414 0.92301 0.55748 0.0
C936 C 1.01355 0.90243 0.53694 0.0
H937 H 0.99046 0.81107 0.35887 0.0
H938 H 0.98685 0.84274 0.41596 0.0
H939 H 0.02033 0.8593 0.62449 0.0
H940 H 0.03605 0.95377 0.68687 0.0
H941 H 0.03536 0.92057 0.65293 0.0
C942 C 0.71598 1.00275 0.3715 0.0
C943 C 0.73044 1.01395 0.40358 0.0
C944 C 0.69869 1.00147 0.41123 0.0
C945 C 0.66825 0.02802 0.55428 0.0
H946 H 0.6369 0.98385 0.53097 0.0
C947 C 0.5909 0.02461 0.67044 0.0
C948 C 0.57783 1.01682 0.61516 0.0
C949 C 0.61022 0.02343 0.65521 0.0
C950 C 0.64544 0.99634 0.53772 0.0
H951 H 0.73845 0.03203 0.50434 0.0
H952 H 0.70817 0.02948 0.57587 0.0
H953 H 0.66982 0.98237 0.49184 0.0
H954 H 0.57497 1.00169 0.50034 0.0
H955 H 0.60862 0.99961 0.47386 0.0
H956 H 0.6437 0.04192 0.60051 0.0
C957 C 0.71015 0.02187 0.51898 0.0
C958 C 0.66436 0.99551 0.51518 0.0
C959 C 0.72758 0.02315 0.4788 0.0
C960 C 0.5846 1.00784 0.54425 0.0
C961 C 0.60392 1.00652 0.5294 0.0
C962 C 0.64932 0.02878 0.57775 0.0
C963 C 0.6953 1.01132 0.48465 0.0
C964 C 0.67595 1.01149 0.52072 0.0
C965 C 0.61699 1.01431 0.58463 0.0
C966 C 0.63755 1.01308 0.56757 0.0
H967 H 0.71777 0.99565 0.31317 0.0
H968 H 0.68767 0.99346 0.38171 0.0
H969 H 0.67659 0.04068 0.55899 0.0
H970 H 0.58619 0.0318 0.72522 0.0
H971 H 0.61989 0.02948 0.69913 0.0
C972 C 0.51301 0.7255 0.46889 0.0
C973 C 0.52679 0.73325 0.41742 0.0
C974 C 0.51529 0.70749 0.50189 0.0
C975 C 0.53527 0.66285 0.44471 0.0
H976 H 0.52673 0.64765 0.6698 0.0
C977 C 0.54043 0.58467 0.53981 0.0
C978 C 0.52901 0.57825 0.60402 0.0
C979 C 0.5415 0.60387 0.52153 0.0
C980 C 0.52885 0.65152 0.60628 0.0
H981 H 0.55401 0.72852 0.36233 0.0
H982 H 0.55788 0.6969 0.41901 0.0
H983 H 0.52644 0.68092 0.6343 0.0
H984 H 0.50925 0.58686 0.69769 0.0
H985 H 0.51032 0.62003 0.6638 0.0
H986 H 0.53664 0.63371 0.41484 0.0
C987 C 0.54543 0.70487 0.43459 0.0
C988 C 0.52886 0.67066 0.5863 0.0
C989 C 0.54332 0.72303 0.40302 0.0
C990 C 0.51842 0.5914 0.64861 0.0
C991 C 0.51916 0.61052 0.62935 0.0
C992 C 0.53486 0.64372 0.4642 0.0
C993 C 0.5312 0.69672 0.48246 0.0
C994 C 0.53209 0.67652 0.50532 0.0
C995 C 0.53082 0.61715 0.56582 0.0
C996 C 0.53163 0.63769 0.54534 0.0
H997 H 0.50002 0.73299 0.47988 0.0
H998 H 0.50406 0.70153 0.53825 0.0
H999 H 0.53748 0.66695 0.38144 0.0
H1000 H 0.5489 0.57489 0.50484 0.0
H1001 H 0.55095 0.60826 0.47331 0.0
C1002 C 0.82931 0.55373 0.37908 0.0
C1003 C 0.81523 0.54026 0.39227 0.0
C1004 C 0.84642 0.55276 0.42059 0.0
C1005 C 0.87717 0.51832 0.52642 0.0
H1006 H 0.90804 0.56257 0.55829 0.0
C1007 C 0.95391 0.51605 0.65164 0.0
C1008 C 0.96713 0.52604 0.60466 0.0
C1009 C 0.93465 0.51794 0.63651 0.0
C1010 C 0.8996 0.55008 0.54959 0.0
H1011 H 0.80765 0.51586 0.46389 0.0
H1012 H 0.83746 0.51445 0.53928 0.0
H1013 H 0.8751 0.56612 0.52144 0.0
H1014 H 0.9704 0.54595 0.50533 0.0
H1015 H 0.93671 0.54957 0.48014 0.0
H1016 H 0.90183 0.50237 0.55605 0.0
C1017 C 0.83543 0.52553 0.49476 0.0
C1018 C 0.88068 0.55207 0.52814 0.0
C1019 C 0.81821 0.52647 0.4525 0.0
C1020 C 0.9606 0.53804 0.54247 0.0
C1021 C 0.94131 0.5402 0.52846 0.0
C1022 C 0.89606 0.51635 0.54933 0.0
C1023 C 0.85 0.53838 0.47768 0.0
C1024 C 0.86929 0.53623 0.51353 0.0
C1025 C 0.9281 0.53014 0.57518 0.0
C1026 C 0.90762 0.5322 0.55883 0.0
H1027 H 0.82741 0.56463 0.33346 0.0
H1028 H 0.85717 0.56281 0.40434 0.0
H1029 H 0.86904 0.50574 0.5152 0.0
H1030 H 0.95846 0.50654 0.69953 0.0
H1031 H 0.92484 0.50998 0.67329 0.0
loop_
_geom_bond_atom_site_label_1
_geom_bond_atom_site_label_2
_geom_bond_distance
_geom_bond_site_symmetry_2
_ccdc_geom_bond_type
H0 C1 0.949 . S
C1 H0 0.949 . S
C1 C2 1.395 . S
C1 C3 1.391 . S
C2 C1 1.395 . S
C2 C5 1.390 . S
C3 C1 1.391 . S
C3 C7 1.387 . S
C3 C8 1.491 . S
H4 C5 0.950 . S
C5 C2 1.390 . S
C5 H4 0.950 . S
C5 C6 1.378 . S
C6 C5 1.378 . S
C6 C7 1.409 . S
C7 C3 1.387 . S
C7 C6 1.409 . S
C7 H9 0.951 . S
C8 C3 1.491 . S
C8 C10 1.382 . S
C8 C12 1.404 . S
H9 C7 0.951 . S
C10 C8 1.382 . S
C10 C11 1.390 . S
C10 H15 0.949 . S
C11 C10 1.390 . S
C11 C16 1.399 . S
C12 C8 1.404 . S
C12 H13 0.950 . S
C12 C14 1.375 . S
H13 C12 0.950 . S
C14 C12 1.375 . S
C14 C16 1.382 . S
C14 H18 0.950 . S
H15 C10 0.949 . S
C16 C11 1.399 . S
C16 C14 1.382 . S
C16 H17 0.952 . S
H17 C16 0.952 . S
H18 C14 0.950 . S
H19 C20 0.949 . S
C20 H19 0.949 . S
C20 C21 1.397 . S
C20 C22 1.391 . S
C21 C20 1.397 . S
C21 C24 1.387 1_655 S
C22 C20 1.391 . S
C22 C26 1.387 . S
C22 C27 1.491 . S
H23 C24 0.960 . S
C24 C21 1.387 1_455 S
C24 H23 0.960 . S
C24 C25 1.374 1_455 S
C25 C24 1.374 1_655 S
C25 C26 1.414 . S
C26 C22 1.387 . S
C26 C25 1.414 . S
C26 H28 0.951 . S
C27 C22 1.491 . S
C27 C29 1.382 . S
C27 C31 1.404 . S
H28 C26 0.951 . S
C29 C27 1.382 . S
C29 C30 1.390 . S
C29 H34 0.949 1_655 S
C30 C29 1.390 . S
C30 C35 1.399 . S
C31 C27 1.404 . S
C31 H32 0.950 . S
C31 C33 1.375 . S
H32 C31 0.950 . S
C33 C31 1.375 . S
C33 C35 1.382 . S
C33 H37 0.950 . S
H34 C29 0.949 1_455 S
C35 C30 1.399 . S
C35 C33 1.382 . S
C35 H36 0.952 . S
H36 C35 0.952 . S
H37 C33 0.950 . S
H38 C39 0.949 . S
C39 H38 0.949 . S
C39 C40 1.396 . S
C39 C41 1.391 . S
C40 C39 1.396 . S
C40 C43 1.390 1_565 S
C41 C39 1.391 . S
C41 C45 1.387 . S
C41 C46 1.491 . S
H42 C43 0.950 . S
C43 C40 1.390 1_545 S
C43 H42 0.950 . S
C43 C44 1.377 1_545 S
C44 C43 1.377 1_565 S
C44 C45 1.413 . S
C45 C41 1.387 . S
C45 C44 1.413 . S
C45 H47 0.951 . S
C46 C41 1.491 . S
C46 C48 1.409 . S
C46 C50 1.404 . S
H47 C45 0.951 . S
C48 C46 1.409 . S
C48 C49 1.403 . S
C48 H53 0.911 1_565 S
C49 C48 1.403 . S
C49 C54 1.399 . S
C50 C46 1.404 . S
C50 H51 0.950 . S
C50 C52 1.375 . S
H51 C50 0.950 . S
C52 C50 1.375 . S
C52 C54 1.382 . S
C52 H56 0.950 . S
H53 C48 0.911 1_545 S
C54 C49 1.399 . S
C54 C52 1.382 . S
C54 H55 0.952 . S
H55 C54 0.952 . S
H56 C52 0.950 . S
H57 C58 0.949 . S
C58 H57 0.949 . S
C58 C59 1.395 . S
C58 C60 1.391 . S
C59 C58 1.395 . S
C59 C62 1.390 . S
C60 C58 1.391 . S
C60 C64 1.387 . S
C60 C65 1.491 . S
H61 C62 0.950 . S
C62 C59 1.390 . S
C62 H61 0.950 . S
C62 C63 1.378 . S
C63 C62 1.378 . S
C63 C64 1.409 . S
C64 C60 1.387 . S
C64 C63 1.409 . S
C64 H66 0.951 . S
C65 C60 1.491 . S
C65 C67 1.382 . S
C65 C69 1.404 . S
H66 C64 0.951 . S
C67 C65 1.382 . S
C67 C68 1.390 . S
C67 H72 0.949 . S
C68 C67 1.390 . S
C68 C73 1.399 . S
C69 C65 1.404 . S
C69 H70 0.950 . S
C69 C71 1.375 . S
H70 C69 0.950 . S
C71 C69 1.375 . S
C71 C73 1.382 . S
C71 H75 0.950 . S
H72 C67 0.949 . S
C73 C68 1.399 . S
C73 C71 1.382 . S
C73 H74 0.952 . S
H74 C73 0.952 . S
H75 C71 0.950 . S
H76 C77 0.949 . S
C77 H76 0.949 . S
C77 C78 1.395 . S
C77 C79 1.391 1_554 S
C78 C77 1.395 . S
C78 C81 1.390 1_554 S
C79 C77 1.391 1_556 S
C79 C83 1.387 . S
C79 C84 1.491 . S
H80 C81 0.950 . S
C81 C78 1.390 1_556 S
C81 H80 0.950 . S
C81 C82 1.378 . S
C82 C81 1.378 . S
C82 C83 1.409 . S
C83 C79 1.387 . S
C83 C82 1.409 . S
C83 H85 0.951 . S
C84 C79 1.491 . S
C84 C86 1.382 1_556 S
C84 C88 1.404 . S
H85 C83 0.951 . S
C86 C84 1.382 1_554 S
C86 C87 1.390 . S
C86 H91 0.949 . S
C87 C86 1.390 . S
C87 C92 1.399 1_554 S
C88 C84 1.404 . S
C88 H89 0.950 . S
C88 C90 1.375 . S
H89 C88 0.950 . S
C90 C88 1.375 . S
C90 C92 1.382 . S
C90 H94 0.950 . S
H91 C86 0.949 . S
C92 C87 1.399 1_556 S
C92 C90 1.382 . S
C92 H93 0.952 . S
H93 C92 0.952 . S
H94 C90 0.950 . S
H95 C96 0.949 . S
C96 H95 0.949 . S
C96 C97 1.395 . S
C96 C98 1.391 1_554 S
C97 C96 1.395 . S
C97 C100 1.390 1_554 S
C98 C96 1.391 1_556 S
C98 C102 1.387 . S
C98 C103 1.491 1_455 S
H99 C100 0.950 . S
C100 C97 1.390 1_556 S
C100 H99 0.950 . S
C100 C101 1.378 . S
C101 C100 1.378 . S
C101 C102 1.409 . S
C102 C98 1.387 . S
C102 C101 1.409 . S
C102 H104 0.951 . S
C103 C98 1.491 1_655 S
C103 C105 1.382 1_656 S
C103 C107 1.404 . S
H104 C102 0.951 . S
C105 C103 1.382 1_454 S
C105 C106 1.390 . S
C105 H110 0.949 . S
C106 C105 1.390 . S
C106 C111 1.399 1_454 S
C107 C103 1.404 . S
C107 H108 0.950 . S
C107 C109 1.375 . S
H108 C107 0.950 . S
C109 C107 1.375 . S
C109 C111 1.382 . S
C109 H113 0.950 . S
H110 C105 0.949 . S
C111 C106 1.399 1_656 S
C111 C109 1.382 . S
C111 H112 0.952 . S
H112 C111 0.952 . S
H113 C109 0.950 . S
H114 C115 0.949 . S
C115 H114 0.949 . S
C115 C116 1.395 . S
C115 C117 1.391 1_554 S
C116 C115 1.395 . S
C116 C119 1.390 1_554 S
C117 C115 1.391 1_556 S
C117 C121 1.387 . S
C117 C122 1.491 1_545 S
H118 C119 0.950 . S
C119 C116 1.390 1_556 S
C119 H118 0.950 . S
C119 C120 1.378 . S
C120 C119 1.378 . S
C120 C121 1.409 . S
C121 C117 1.387 . S
C121 C120 1.409 . S
C121 H123 0.951 . S
C122 C117 1.491 1_565 S
C122 C124 1.382 1_566 S
C122 C126 1.404 . S
H123 C121 0.951 . S
C124 C122 1.382 1_544 S
C124 C125 1.390 . S
C124 H129 0.949 . S
C125 C124 1.390 . S
C125 C130 1.399 1_544 S
C126 C122 1.404 . S
C126 H127 0.950 . S
C126 C128 1.375 . S
H127 C126 0.950 . S
C128 C126 1.375 . S
C128 C130 1.382 . S
C128 H132 0.950 . S
H129 C124 0.949 . S
C130 C125 1.399 1_566 S
C130 C128 1.382 . S
C130 H131 0.952 . S
H131 C130 0.952 . S
H132 C128 0.950 . S
H133 C134 0.949 . S
C134 H133 0.949 . S
C134 C135 1.395 . S
C134 C136 1.391 1_554 S
C135 C134 1.395 . S
C135 C138 1.390 1_554 S
C136 C134 1.391 1_556 S
C136 C140 1.387 . S
C136 C141 1.491 . S
H137 C138 0.950 . S
C138 C135 1.390 1_556 S
C138 H137 0.950 . S
C138 C139 1.378 . S
C139 C138 1.378 . S
C139 C140 1.409 . S
C140 C136 1.387 . S
C140 C139 1.409 . S
C140 H142 0.951 . S
C141 C136 1.491 . S
C141 C143 1.382 1_556 S
C141 C145 1.404 . S
H142 C140 0.951 . S
C143 C141 1.382 1_554 S
C143 C144 1.390 . S
C143 H148 0.949 . S
C144 C143 1.390 . S
C144 C149 1.399 1_554 S
C145 C141 1.404 . S
C145 H146 0.950 . S
C145 C147 1.375 . S
H146 C145 0.950 . S
C147 C145 1.375 . S
C147 C149 1.382 . S
C147 H151 0.950 . S
H148 C143 0.949 . S
C149 C144 1.399 1_556 S
C149 C147 1.382 . S
C149 H150 0.952 . S
H150 C149 0.952 . S
H151 C147 0.950 . S
Ho152 C155 2.811 . S
Ho152 O172 2.322 . S
Ho152 O174 2.378 . S
Ho152 O175 2.550 . S
Ho152 O176 2.381 . S
Ho152 O177 2.669 1_565 S
Ho152 O179 2.346 1_565 S
Ho152 O183 2.312 1_455 S
Ho153 C164 2.811 . S
Ho153 O173 2.346 1_545 S
Ho153 O177 2.305 1_655 S
Ho153 O178 2.322 . S
Ho153 O180 2.378 . S
Ho153 O181 2.524 1_655 S
Ho153 O182 2.381 . S
Ho153 O183 2.654 1_545 S
C154 O172 1.259 1_655 S
C154 O173 1.268 . S
C155 Ho152 2.811 . S
C155 C156 1.488 . S
C155 O174 1.215 . S
C155 O175 1.344 . S
C156 C155 1.488 . S
C156 C157 1.348 . S
C156 C161 1.413 . S
C157 C156 1.348 . S
C157 C158 1.442 . S
C157 H184 0.930 1_455 S
C158 C157 1.442 . S
C158 C159 1.381 . S
C158 H185 0.931 1_455 S
C159 C158 1.381 . S
C159 C160 1.321 . S
C160 C159 1.321 . S
C160 C161 1.403 . S
C160 H186 0.934 . S
C161 C156 1.413 . S
C161 C160 1.403 . S
C161 H187 0.930 . S
C162 O176 1.275 1_545 S
C162 O177 1.256 . S
C163 O178 1.259 1_455 S
C163 O179 1.268 . S
C164 Ho153 2.811 . S
C164 C165 1.488 . S
C164 O180 1.215 . S
C164 O181 1.289 1_655 S
C165 C164 1.488 . S
C165 C166 1.348 1_655 S
C165 C170 1.413 . S
C166 C165 1.348 1_455 S
C166 C167 1.442 . S
C166 H188 0.930 . S
C167 C166 1.442 . S
C167 C168 1.381 1_455 S
C167 H189 0.931 . S
C168 C167 1.381 1_655 S
C168 C169 1.321 . S
C169 C168 1.321 . S
C169 C170 1.403 . S
C169 H190 0.934 . S
C170 C165 1.413 . S
C170 C169 1.403 . S
C170 H191 0.930 . S
C171 O182 1.275 . S
C171 O183 1.245 1_545 S
O172 Ho152 2.322 . S
O172 C154 1.259 1_455 S
O173 Ho153 2.346 1_565 S
O173 C154 1.268 . S
O174 Ho152 2.378 . S
O174 C155 1.215 . S
O175 Ho152 2.550 . S
O175 C155 1.344 . S
O176 Ho152 2.381 . S
O176 C162 1.275 1_565 S
O177 Ho152 2.669 1_545 S
O177 Ho153 2.305 1_455 S
O177 C162 1.256 . S
O178 Ho153 2.322 . S
O178 C163 1.259 1_655 S
O179 Ho152 2.346 1_545 S
O179 C163 1.268 . S
O180 Ho153 2.378 . S
O180 C164 1.215 . S
O181 Ho153 2.524 1_455 S
O181 C164 1.289 1_455 S
O182 Ho153 2.381 . S
O182 C171 1.275 . S
O183 Ho152 2.312 1_655 S
O183 Ho153 2.654 1_565 S
O183 C171 1.245 1_565 S
H184 C157 0.930 1_655 S
H185 C158 0.931 1_655 S
H186 C160 0.934 . S
H187 C161 0.930 . S
H188 C166 0.930 . S
H189 C167 0.931 . S
H190 C169 0.934 . S
H191 C170 0.930 . S
Ho192 C195 2.811 . S
Ho192 O212 2.322 . S
Ho192 O214 2.378 . S
Ho192 O215 2.524 . S
Ho192 O216 2.381 . S
Ho192 O217 2.669 . S
Ho192 O219 2.346 . S
Ho192 O223 2.305 1_545 S
Ho193 C204 2.811 . S
Ho193 O213 2.346 . S
Ho193 O217 2.305 1_565 S
Ho193 O218 2.322 . S
Ho193 O220 2.378 . S
Ho193 O221 2.524 1_565 S
Ho193 O222 2.381 . S
Ho193 O223 2.669 . S
C194 O212 1.259 1_565 S
C194 O213 1.268 . S
C195 Ho192 2.811 . S
C195 C196 1.488 . S
C195 O214 1.215 . S
C195 O215 1.289 . S
C196 C195 1.488 . S
C196 C197 1.348 . S
C196 C201 1.413 . S
C197 C196 1.348 . S
C197 C198 1.442 . S
C197 H224 0.930 1_545 S
C198 C197 1.442 . S
C198 C199 1.381 . S
C198 H225 0.931 1_545 S
C199 C198 1.381 . S
C199 C200 1.321 . S
C200 C199 1.321 . S
C200 C201 1.403 . S
C200 H226 0.934 . S
C201 C196 1.413 . S
C201 C200 1.403 . S
C201 H227 0.930 . S
C202 O216 1.275 . S
C202 O217 1.256 . S
C203 O218 1.259 1_545 S
C203 O219 1.268 . S
C204 Ho193 2.811 . S
C204 C205 1.488 . S
C204 O220 1.215 . S
C204 O221 1.289 1_565 S
C205 C204 1.488 . S
C205 C206 1.348 1_565 S
C205 C210 1.413 . S
C206 C205 1.348 1_545 S
C206 C207 1.442 . S
C206 H228 0.930 . S
C207 C206 1.442 . S
C207 C208 1.381 1_545 S
C207 H229 0.931 . S
C208 C207 1.381 1_565 S
C208 C209 1.321 . S
C209 C208 1.321 . S
C209 C210 1.403 . S
C209 H230 0.934 . S
C210 C205 1.413 . S
C210 C209 1.403 . S
C210 H231 0.930 . S
C211 O222 1.275 . S
C211 O223 1.256 . S
O212 Ho192 2.322 . S
O212 C194 1.259 1_545 S
O213 Ho193 2.346 . S
O213 C194 1.268 . S
O214 Ho192 2.378 . S
O214 C195 1.215 . S
O215 Ho192 2.524 . S
O215 C195 1.289 . S
O216 Ho192 2.381 . S
O216 C202 1.275 . S
O217 Ho192 2.669 . S
O217 Ho193 2.305 1_545 S
O217 C202 1.256 . S
O218 Ho193 2.322 . S
O218 C203 1.259 1_565 S
O219 Ho192 2.346 . S
O219 C203 1.268 . S
O220 Ho193 2.378 . S
O220 C204 1.215 . S
O221 Ho193 2.524 1_545 S
O221 C204 1.289 1_545 S
O222 Ho193 2.381 . S
O222 C211 1.275 . S
O223 Ho192 2.305 1_565 S
O223 Ho193 2.669 . S
O223 C211 1.256 . S
H224 C197 0.930 1_565 S
H225 C198 0.931 1_565 S
H226 C200 0.934 . S
H227 C201 0.930 . S
H228 C206 0.930 . S
H229 C207 0.931 . S
H230 C209 0.934 . S
H231 C210 0.930 . S
Ho232 C235 2.811 . S
Ho232 O252 2.322 . S
Ho232 O254 2.378 . S
Ho232 O255 2.524 . S
Ho232 O256 2.381 . S
Ho232 O257 2.669 . S
Ho232 O259 2.346 . S
Ho232 O263 2.305 . S
Ho233 C244 2.811 . S
Ho233 O253 2.346 . S
Ho233 O257 2.305 . S
Ho233 O258 2.322 . S
Ho233 O260 2.378 . S
Ho233 O261 2.524 . S
Ho233 O262 2.381 . S
Ho233 O263 2.669 . S
C234 O252 1.259 . S
C234 O253 1.268 . S
C235 Ho232 2.811 . S
C235 C236 1.488 . S
C235 O254 1.215 . S
C235 O255 1.289 . S
C236 C235 1.488 . S
C236 C237 1.348 . S
C236 C241 1.413 . S
C237 C236 1.348 . S
C237 C238 1.442 . S
C237 H264 0.930 . S
C238 C237 1.442 . S
C238 C239 1.381 . S
C238 H265 0.931 . S
C239 C238 1.381 . S
C239 C240 1.321 . S
C240 C239 1.321 . S
C240 C241 1.403 . S
C240 H266 0.934 . S
C241 C236 1.413 . S
C241 C240 1.403 . S
C241 H267 0.930 . S
C242 O256 1.275 . S
C242 O257 1.256 . S
C243 O258 1.259 . S
C243 O259 1.268 . S
C244 Ho233 2.811 . S
C244 C245 1.488 . S
C244 O260 1.215 . S
C244 O261 1.289 . S
C245 C244 1.488 . S
C245 C246 1.348 . S
C245 C250 1.413 . S
C246 C245 1.348 . S
C246 C247 1.442 . S
C246 H268 0.930 . S
C247 C246 1.442 . S
C247 C248 1.381 . S
C247 H269 0.931 . S
C248 C247 1.381 . S
C248 C249 1.321 . S
C249 C248 1.321 . S
C249 C250 1.403 . S
C249 H270 0.934 . S
C250 C245 1.413 . S
C250 C249 1.403 . S
C250 H271 0.930 . S
C251 O262 1.275 . S
C251 O263 1.256 . S
O252 Ho232 2.322 . S
O252 C234 1.259 . S
O253 Ho233 2.346 . S
O253 C234 1.268 . S
O254 Ho232 2.378 . S
O254 C235 1.215 . S
O255 Ho232 2.524 . S
O255 C235 1.289 . S
O256 Ho232 2.381 . S
O256 C242 1.275 . S
O257 Ho232 2.669 . S
O257 Ho233 2.305 . S
O257 C242 1.256 . S
O258 Ho233 2.322 . S
O258 C243 1.259 . S
O259 Ho232 2.346 . S
O259 C243 1.268 . S
O260 Ho233 2.378 . S
O260 C244 1.215 . S
O261 Ho233 2.524 . S
O261 C244 1.289 . S
O262 Ho233 2.381 . S
O262 C251 1.275 . S
O263 Ho232 2.305 . S
O263 Ho233 2.669 . S
O263 C251 1.256 . S
H264 C237 0.930 . S
H265 C238 0.931 . S
H266 C240 0.934 . S
H267 C241 0.930 . S
H268 C246 0.930 . S
H269 C247 0.931 . S
H270 C249 0.934 . S
H271 C250 0.930 . S
Ho272 C275 2.811 . S
Ho272 O292 2.322 . S
Ho272 O294 2.378 . S
Ho272 O295 2.524 . S
Ho272 O296 2.381 . S
Ho272 O297 2.669 1_655 S
Ho272 O299 2.346 1_655 S
Ho272 O303 2.313 . S
Ho273 C284 2.811 . S
Ho273 O293 2.346 1_455 S
Ho273 O297 2.305 . S
Ho273 O298 2.322 . S
Ho273 O300 2.378 . S
Ho273 O301 2.524 . S
Ho273 O302 2.381 . S
Ho273 O303 2.651 1_455 S
C274 O292 1.259 . S
C274 O293 1.268 . S
C275 Ho272 2.811 . S
C275 C276 1.488 . S
C275 O294 1.215 . S
C275 O295 1.289 . S
C276 C275 1.488 . S
C276 C277 1.348 . S
C276 C281 1.413 . S
C277 C276 1.348 . S
C277 C278 1.442 . S
C277 H304 0.930 . S
C278 C277 1.442 . S
C278 C279 1.381 . S
C278 H305 0.931 . S
C279 C278 1.381 . S
C279 C280 1.321 . S
C280 C279 1.321 . S
C280 C281 1.403 . S
C280 H306 0.934 . S
C281 C276 1.413 . S
C281 C280 1.403 . S
C281 H307 0.930 . S
C282 O296 1.275 1_455 S
C282 O297 1.256 . S
C283 O298 1.259 . S
C283 O299 1.268 . S
C284 Ho273 2.811 . S
C284 C285 1.488 . S
C284 O300 1.215 . S
C284 O301 1.289 . S
C285 C284 1.488 . S
C285 C286 1.348 . S
C285 C290 1.413 . S
C286 C285 1.348 . S
C286 C287 1.442 . S
C286 H308 0.930 . S
C287 C286 1.442 . S
C287 C288 1.381 . S
C287 H309 0.931 . S
C288 C287 1.381 . S
C288 C289 1.321 . S
C289 C288 1.321 . S
C289 C290 1.403 . S
C289 H310 0.934 . S
C290 C285 1.413 . S
C290 C289 1.403 . S
C290 H311 0.930 . S
C291 O302 1.275 . S
C291 O303 1.244 1_455 S
O292 Ho272 2.322 . S
O292 C274 1.259 . S
O293 Ho273 2.346 1_655 S
O293 C274 1.268 . S
O294 Ho272 2.378 . S
O294 C275 1.215 . S
O295 Ho272 2.524 . S
O295 C275 1.289 . S
O296 Ho272 2.381 . S
O296 C282 1.275 1_655 S
O297 Ho272 2.669 1_455 S
O297 Ho273 2.305 . S
O297 C282 1.256 . S
O298 Ho273 2.322 . S
O298 C283 1.259 . S
O299 Ho272 2.346 1_455 S
O299 C283 1.268 . S
O300 Ho273 2.378 . S
O300 C284 1.215 . S
O301 Ho273 2.524 . S
O301 C284 1.289 . S
O302 Ho273 2.381 . S
O302 C291 1.275 . S
O303 Ho272 2.313 . S
O303 Ho273 2.651 1_655 S
O303 C291 1.244 1_655 S
H304 C277 0.930 . S
H305 C278 0.931 . S
H306 C280 0.934 . S
H307 C281 0.930 . S
H308 C286 0.930 . S
H309 C287 0.931 . S
H310 C289 0.934 . S
H311 C290 0.930 . S
C312 C313 1.349 . S
C312 C314 1.327 . S
C312 H337 0.950 . S
C313 C312 1.349 . S
C313 C329 1.349 1_545 S
C314 C312 1.327 . S
C314 C333 1.429 . S
C314 H338 0.950 . S
C315 C332 1.574 . S
C315 C334 1.368 1_565 S
C315 H339 0.949 . S
H316 C320 0.949 . S
C317 C318 1.349 1_565 S
C317 C319 1.327 . S
C317 H340 0.950 . S
C318 C317 1.349 1_545 S
C318 C330 1.349 . S
C319 C317 1.327 . S
C319 C335 1.429 1_565 S
C319 H341 0.950 . S
C320 H316 0.949 . S
C320 C328 1.574 . S
C320 C336 1.368 . S
H321 C329 0.950 . S
H322 C327 0.950 . S
H323 C328 0.949 . S
H324 C330 0.950 . S
H325 C331 0.950 . S
H326 C332 0.949 . S
C327 H322 0.950 . S
C327 C329 1.327 . S
C327 C333 1.429 1_565 S
C328 C320 1.574 . S
C328 H323 0.949 . S
C328 C334 1.368 . S
C329 C313 1.349 1_565 S
C329 H321 0.950 . S
C329 C327 1.327 . S
C330 C318 1.349 . S
C330 H324 0.950 . S
C330 C331 1.327 . S
C331 H325 0.950 . S
C331 C330 1.327 . S
C331 C335 1.429 . S
C332 C315 1.574 . S
C332 H326 0.949 . S
C332 C336 1.368 1_565 S
C333 C314 1.429 . S
C333 C327 1.429 1_545 S
C333 C334 1.523 . S
C334 C315 1.368 1_545 S
C334 C328 1.368 . S
C334 C333 1.523 . S
C335 C319 1.429 1_545 S
C335 C331 1.429 . S
C335 C336 1.523 . S
C336 C320 1.368 . S
C336 C332 1.368 1_545 S
C336 C335 1.523 . S
H337 C312 0.950 . S
H338 C314 0.950 . S
H339 C315 0.949 . S
H340 C317 0.950 . S
H341 C319 0.950 . S
C342 C343 1.349 . S
C342 C344 1.327 . S
C342 H367 0.950 . S
C343 C342 1.349 . S
C343 C359 1.349 . S
C344 C342 1.327 . S
C344 C363 1.429 . S
C344 H368 0.950 . S
C345 C362 1.574 . S
C345 C364 1.368 . S
C345 H369 0.949 . S
H346 C350 0.949 . S
C347 C348 1.349 . S
C347 C349 1.327 . S
C347 H370 0.950 . S
C348 C347 1.349 . S
C348 C360 1.349 . S
C349 C347 1.327 . S
C349 C365 1.429 . S
C349 H371 0.950 . S
C350 H346 0.949 . S
C350 C358 1.574 . S
C350 C366 1.368 . S
H351 C359 0.950 . S
H352 C357 0.950 . S
H353 C358 0.949 . S
H354 C360 0.950 . S
H355 C361 0.950 . S
H356 C362 0.949 . S
C357 H352 0.950 . S
C357 C359 1.327 . S
C357 C363 1.429 . S
C358 C350 1.574 . S
C358 H353 0.949 . S
C358 C364 1.368 . S
C359 C343 1.349 . S
C359 H351 0.950 . S
C359 C357 1.327 . S
C360 C348 1.349 . S
C360 H354 0.950 . S
C360 C361 1.327 . S
C361 H355 0.950 . S
C361 C360 1.327 . S
C361 C365 1.429 . S
C362 C345 1.574 . S
C362 H356 0.949 . S
C362 C366 1.368 . S
C363 C344 1.429 . S
C363 C357 1.429 . S
C363 C364 1.523 . S
C364 C345 1.368 . S
C364 C358 1.368 . S
C364 C363 1.523 . S
C365 C349 1.429 . S
C365 C361 1.429 . S
C365 C366 1.523 . S
C366 C350 1.368 . S
C366 C362 1.368 . S
C366 C365 1.523 . S
H367 C342 0.950 . S
H368 C344 0.950 . S
H369 C345 0.949 . S
H370 C347 0.950 . S
H371 C349 0.950 . S
C372 C373 1.349 . S
C372 C374 1.327 . S
C372 H397 0.950 . S
C373 C372 1.349 . S
C373 C389 1.349 . S
C374 C372 1.327 . S
C374 C393 1.429 . S
C374 H398 0.950 . S
C375 C392 1.574 . S
C375 C394 1.368 . S
C375 H399 0.949 . S
H376 C380 0.949 . S
C377 C378 1.349 . S
C377 C379 1.327 . S
C377 H400 0.950 . S
C378 C377 1.349 . S
C378 C390 1.349 . S
C379 C377 1.327 . S
C379 C395 1.429 . S
C379 H401 0.950 . S
C380 H376 0.949 . S
C380 C388 1.574 . S
C380 C396 1.368 . S
H381 C389 0.950 . S
H382 C387 0.950 . S
H383 C388 0.949 . S
H384 C390 0.950 . S
H385 C391 0.950 . S
H386 C392 0.949 . S
C387 H382 0.950 . S
C387 C389 1.327 . S
C387 C393 1.429 . S
C388 C380 1.574 . S
C388 H383 0.949 . S
C388 C394 1.368 . S
C389 C373 1.349 . S
C389 H381 0.950 . S
C389 C387 1.327 . S
C390 C378 1.349 . S
C390 H384 0.950 . S
C390 C391 1.327 . S
C391 H385 0.950 . S
C391 C390 1.327 . S
C391 C395 1.429 . S
C392 C375 1.574 . S
C392 H386 0.949 . S
C392 C396 1.368 . S
C393 C374 1.429 . S
C393 C387 1.429 . S
C393 C394 1.523 . S
C394 C375 1.368 . S
C394 C388 1.368 . S
C394 C393 1.523 . S
C395 C379 1.429 . S
C395 C391 1.429 . S
C395 C396 1.523 . S
C396 C380 1.368 . S
C396 C392 1.368 . S
C396 C395 1.523 . S
H397 C372 0.950 . S
H398 C374 0.950 . S
H399 C375 0.949 . S
H400 C377 0.950 . S
H401 C379 0.950 . S
C402 C403 1.349 . S
C402 C404 1.327 . S
C402 H427 0.950 1_455 S
C403 C402 1.349 . S
C403 C419 1.349 . S
C404 C402 1.327 . S
C404 C423 1.429 . S
C404 H428 0.950 1_455 S
C405 C422 1.574 . S
C405 C424 1.368 . S
C405 H429 0.949 . S
H406 C410 0.946 1_655 S
C407 C408 1.349 . S
C407 C409 1.327 . S
C407 H430 0.950 . S
C408 C407 1.349 . S
C408 C420 1.349 1_455 S
C409 C407 1.327 . S
C409 C425 1.429 . S
C409 H431 0.950 . S
C410 H406 0.946 1_455 S
C410 C418 1.574 . S
C410 C426 1.371 . S
H411 C419 0.950 . S
H412 C417 0.950 . S
H413 C418 0.941 1_655 S
H414 C420 0.950 . S
H415 C421 0.952 1_655 S
H416 C422 0.949 . S
C417 H412 0.950 . S
C417 C419 1.327 . S
C417 C423 1.429 . S
C418 C410 1.574 . S
C418 H413 0.941 1_455 S
C418 C424 1.378 . S
C419 C403 1.349 . S
C419 H411 0.950 . S
C419 C417 1.327 . S
C420 C408 1.349 1_655 S
C420 H414 0.950 . S
C420 C421 1.327 1_655 S
C421 H415 0.952 1_455 S
C421 C420 1.327 1_455 S
C421 C425 1.426 . S
C422 C405 1.574 . S
C422 H416 0.949 . S
C422 C426 1.368 . S
C423 C404 1.429 . S
C423 C417 1.429 . S
C423 C424 1.523 . S
C424 C405 1.368 . S
C424 C418 1.378 . S
C424 C423 1.523 . S
C425 C409 1.429 . S
C425 C421 1.426 . S
C425 C426 1.523 . S
C426 C410 1.371 . S
C426 C422 1.368 . S
C426 C425 1.523 . S
H427 C402 0.950 1_655 S
H428 C404 0.950 1_655 S
H429 C405 0.949 . S
H430 C407 0.950 . S
H431 C409 0.950 . S
C432 C433 1.351 1_565 S
C432 C434 1.327 . S
C432 H457 0.950 . S
C433 C432 1.351 1_545 S
C433 C449 1.347 . S
C434 C432 1.327 . S
C434 C453 1.405 1_565 S
C434 H458 0.950 . S
C435 C452 1.574 . S
C435 C454 1.411 . S
C435 H459 0.949 . S
H436 C440 0.949 . S
C437 C438 1.349 . S
C437 C439 1.327 . S
C437 H460 0.950 . S
C438 C437 1.349 . S
C438 C450 1.349 1_545 S
C439 C437 1.327 . S
C439 C455 1.429 . S
C439 H461 0.950 . S
C440 H436 0.949 . S
C440 C448 1.574 1_556 S
C440 C456 1.368 1_565 S
H441 C449 0.950 . S
H442 C447 0.950 . S
H443 C448 0.949 . S
H444 C450 0.950 . S
H445 C451 0.950 . S
H446 C452 0.949 . S
C447 H442 0.950 . S
C447 C449 1.327 . S
C447 C453 1.452 . S
C448 C440 1.574 1_554 S
C448 H443 0.949 . S
C448 C454 1.327 1_565 S
C449 C433 1.347 . S
C449 H441 0.950 . S
C449 C447 1.327 . S
C450 C438 1.349 1_565 S
C450 H444 0.950 . S
C450 C451 1.327 . S
C451 H445 0.950 . S
C451 C450 1.327 . S
C451 C455 1.429 1_565 S
C452 C435 1.574 . S
C452 H446 0.949 . S
C452 C456 1.368 1_554 S
C453 C434 1.405 1_545 S
C453 C447 1.452 . S
C453 C454 1.523 . S
C454 C435 1.411 . S
C454 C448 1.327 1_545 S
C454 C453 1.523 . S
C455 C439 1.429 . S
C455 C451 1.429 1_545 S
C455 C456 1.523 . S
C456 C440 1.368 1_545 S
C456 C452 1.368 1_556 S
C456 C455 1.523 . S
H457 C432 0.950 . S
H458 C434 0.950 . S
H459 C435 0.949 . S
H460 C437 0.950 . S
H461 C439 0.950 . S
C462 C463 1.349 . S
C462 C464 1.327 . S
C462 H487 0.950 . S
C463 C462 1.349 . S
C463 C479 1.349 . S
C464 C462 1.327 . S
C464 C483 1.429 . S
C464 H488 0.950 . S
C465 C482 1.574 . S
C465 C484 1.368 . S
C465 H489 0.949 . S
H466 C470 0.949 . S
C467 C468 1.349 . S
C467 C469 1.327 . S
C467 H490 0.950 . S
C468 C467 1.349 . S
C468 C480 1.349 . S
C469 C467 1.327 . S
C469 C485 1.429 . S
C469 H491 0.950 . S
C470 H466 0.949 . S
C470 C478 1.574 1_556 S
C470 C486 1.368 . S
H471 C479 0.950 . S
H472 C477 0.950 . S
H473 C478 0.949 . S
H474 C480 0.950 . S
H475 C481 0.950 . S
H476 C482 0.949 1_556 S
C477 H472 0.950 . S
C477 C479 1.327 . S
C477 C483 1.429 . S
C478 C470 1.574 1_554 S
C478 H473 0.949 . S
C478 C484 1.368 . S
C479 C463 1.349 . S
C479 H471 0.950 . S
C479 C477 1.327 . S
C480 C468 1.349 . S
C480 H474 0.950 . S
C480 C481 1.327 . S
C481 H475 0.950 . S
C481 C480 1.327 . S
C481 C485 1.429 . S
C482 C465 1.574 . S
C482 H476 0.949 1_554 S
C482 C486 1.368 1_554 S
C483 C464 1.429 . S
C483 C477 1.429 . S
C483 C484 1.523 . S
C484 C465 1.368 . S
C484 C478 1.368 . S
C484 C483 1.523 . S
C485 C469 1.429 . S
C485 C481 1.429 . S
C485 C486 1.523 . S
C486 C470 1.368 . S
C486 C482 1.368 1_556 S
C486 C485 1.523 . S
H487 C462 0.950 . S
H488 C464 0.950 . S
H489 C465 0.949 . S
H490 C467 0.950 . S
H491 C469 0.950 . S
C492 C493 1.349 . S
C492 C494 1.327 . S
C492 H517 0.950 . S
C493 C492 1.349 . S
C493 C509 1.349 . S
C494 C492 1.327 . S
C494 C513 1.429 . S
C494 H518 0.950 . S
C495 C512 1.574 . S
C495 C514 1.368 . S
C495 H519 0.949 . S
H496 C500 0.949 . S
C497 C498 1.349 . S
C497 C499 1.327 . S
C497 H520 0.950 . S
C498 C497 1.349 . S
C498 C510 1.349 . S
C499 C497 1.327 . S
C499 C515 1.429 . S
C499 H521 0.950 . S
C500 H496 0.949 . S
C500 C508 1.574 1_556 S
C500 C516 1.368 . S
H501 C509 0.950 . S
H502 C507 0.950 . S
H503 C508 0.949 . S
H504 C510 0.950 . S
H505 C511 0.950 . S
H506 C512 0.949 . S
C507 H502 0.950 . S
C507 C509 1.327 . S
C507 C513 1.429 . S
C508 C500 1.574 1_554 S
C508 H503 0.949 . S
C508 C514 1.368 . S
C509 C493 1.349 . S
C509 H501 0.950 . S
C509 C507 1.327 . S
C510 C498 1.349 . S
C510 H504 0.950 . S
C510 C511 1.327 . S
C511 H505 0.950 . S
C511 C510 1.327 . S
C511 C515 1.429 . S
C512 C495 1.574 . S
C512 H506 0.949 . S
C512 C516 1.368 1_554 S
C513 C494 1.429 . S
C513 C507 1.429 . S
C513 C514 1.523 . S
C514 C495 1.368 . S
C514 C508 1.368 . S
C514 C513 1.523 . S
C515 C499 1.429 . S
C515 C511 1.429 . S
C515 C516 1.523 . S
C516 C500 1.368 . S
C516 C512 1.368 1_556 S
C516 C515 1.523 . S
H517 C492 0.950 . S
H518 C494 0.950 . S
H519 C495 0.949 . S
H520 C497 0.950 . S
H521 C499 0.950 . S
C522 C523 1.345 . S
C522 C524 1.327 . S
C522 H547 0.950 . S
C523 C522 1.345 . S
C523 C539 1.352 1_655 S
C524 C522 1.327 . S
C524 C543 1.411 1_655 S
C524 H548 0.950 . S
C525 C542 1.574 1_554 S
C525 C544 1.402 . S
C525 H549 0.949 . S
H526 C530 0.949 . S
C527 C528 1.349 . S
C527 C529 1.327 . S
C527 H550 0.950 . S
C528 C527 1.349 . S
C528 C540 1.349 1_455 S
C529 C527 1.327 . S
C529 C545 1.429 . S
C529 H551 0.950 . S
C530 H526 0.949 . S
C530 C538 1.574 . S
C530 C546 1.368 1_654 S
H531 C539 0.950 . S
H532 C537 0.950 . S
H533 C538 0.949 . S
H534 C540 0.950 . S
H535 C541 0.950 . S
H536 C542 0.949 . S
C537 H532 0.950 . S
C537 C539 1.327 . S
C537 C543 1.446 . S
C538 C530 1.574 . S
C538 H533 0.949 . S
C538 C544 1.336 1_655 S
C539 C523 1.352 1_455 S
C539 H531 0.950 . S
C539 C537 1.327 . S
C540 C528 1.349 1_655 S
C540 H534 0.950 . S
C540 C541 1.327 . S
C541 H535 0.950 . S
C541 C540 1.327 . S
C541 C545 1.429 1_655 S
C542 C525 1.574 1_556 S
C542 H536 0.949 . S
C542 C546 1.368 . S
C543 C524 1.411 1_455 S
C543 C537 1.446 . S
C543 C544 1.523 . S
C544 C525 1.402 . S
C544 C538 1.336 1_455 S
C544 C543 1.523 . S
C545 C529 1.429 . S
C545 C541 1.429 1_455 S
C545 C546 1.523 . S
C546 C530 1.368 1_456 S
C546 C542 1.368 . S
C546 C545 1.523 . S
H547 C522 0.950 . S
H548 C524 0.950 . S
H549 C525 0.949 . S
H550 C527 0.950 . S
H551 C529 0.950 . S
C552 C553 1.349 . S
C552 C554 1.327 . S
C552 H577 0.950 1_554 S
C553 C552 1.349 . S
C553 C569 1.346 . S
C554 C552 1.327 . S
C554 C573 1.429 . S
C554 H578 0.950 . S
C555 C572 1.574 . S
C555 C574 1.368 . S
C555 H579 0.949 . S
H556 C560 0.949 . S
C557 C558 1.349 . S
C557 C559 1.327 . S
C557 H580 0.950 . S
C558 C557 1.349 . S
C558 C570 1.349 . S
C559 C557 1.327 . S
C559 C575 1.429 . S
C559 H581 0.950 . S
C560 H556 0.949 . S
C560 C568 1.574 . S
C560 C576 1.368 1_455 S
H561 C569 0.951 1_655 S
H562 C567 0.950 . S
H563 C568 0.949 . S
H564 C570 0.950 . S
H565 C571 0.927 1_455 S
H566 C572 0.949 . S
C567 H562 0.950 . S
C567 C569 1.328 1_655 S
C567 C573 1.429 1_655 S
C568 C560 1.574 . S
C568 H563 0.949 . S
C568 C574 1.368 1_455 S
C569 C553 1.346 . S
C569 H561 0.951 1_455 S
C569 C567 1.328 1_455 S
C570 C558 1.349 . S
C570 H564 0.950 . S
C570 C571 1.327 . S
C571 H565 0.927 1_655 S
C571 C570 1.327 . S
C571 C575 1.429 . S
C572 C555 1.574 . S
C572 H566 0.949 . S
C572 C576 1.368 . S
C573 C554 1.429 . S
C573 C567 1.429 1_455 S
C573 C574 1.523 1_455 S
C574 C555 1.368 . S
C574 C568 1.368 1_655 S
C574 C573 1.523 1_655 S
C575 C559 1.429 . S
C575 C571 1.429 . S
C575 C576 1.523 . S
C576 C560 1.368 1_655 S
C576 C572 1.368 . S
C576 C575 1.523 . S
H577 C552 0.950 1_556 S
H578 C554 0.950 . S
H579 C555 0.949 . S
H580 C557 0.950 . S
H581 C559 0.950 . S
C582 C583 1.349 . S
C582 C584 1.327 . S
C582 H607 0.950 . S
C583 C582 1.349 . S
C583 C599 1.349 1_545 S
C584 C582 1.327 . S
C584 C603 1.429 . S
C584 H608 0.950 . S
C585 C602 1.574 . S
C585 C604 1.368 . S
C585 H609 0.949 . S
H586 C590 0.949 . S
C587 C588 1.349 . S
C587 C589 1.327 . S
C587 H610 0.950 . S
C588 C587 1.349 . S
C588 C600 1.349 . S
C589 C587 1.327 . S
C589 C605 1.429 . S
C589 H611 0.950 . S
C590 H586 0.949 . S
C590 C598 1.574 . S
C590 C606 1.368 1_545 S
H591 C599 0.950 . S
H592 C597 0.950 . S
H593 C598 0.949 . S
H594 C600 0.950 1_545 S
H595 C601 0.920 1_545 S
H596 C602 0.949 . S
C597 H592 0.950 . S
C597 C599 1.327 . S
C597 C603 1.429 1_565 S
C598 C590 1.574 . S
C598 H593 0.949 . S
C598 C604 1.368 1_545 S
C599 C583 1.349 1_565 S
C599 H591 0.950 . S
C599 C597 1.327 . S
C600 C588 1.349 . S
C600 H594 0.950 1_565 S
C600 C601 1.336 . S
C601 H595 0.920 1_565 S
C601 C600 1.336 . S
C601 C605 1.451 . S
C602 C585 1.574 . S
C602 H596 0.949 . S
C602 C606 1.368 . S
C603 C584 1.429 . S
C603 C597 1.429 1_545 S
C603 C604 1.523 1_545 S
C604 C585 1.368 . S
C604 C598 1.368 1_565 S
C604 C603 1.523 1_565 S
C605 C589 1.429 . S
C605 C601 1.451 . S
C605 C606 1.523 . S
C606 C590 1.368 1_565 S
C606 C602 1.368 . S
C606 C605 1.523 . S
H607 C582 0.950 . S
H608 C584 0.950 . S
H609 C585 0.949 . S
H610 C587 0.950 . S
H611 C589 0.950 . S
C612 C613 1.349 . S
C612 C614 1.327 . S
C612 H637 0.950 . S
C613 C612 1.349 . S
C613 C629 1.349 . S
C614 C612 1.327 . S
C614 C633 1.429 . S
C614 H638 0.950 . S
C615 C632 1.574 . S
C615 C634 1.368 . S
C615 H639 0.949 . S
H616 C620 0.949 . S
C617 C618 1.349 . S
C617 C619 1.327 . S
C617 H640 0.950 . S
C618 C617 1.349 . S
C618 C630 1.349 . S
C619 C617 1.327 . S
C619 C635 1.429 . S
C619 H641 0.950 . S
C620 H616 0.949 . S
C620 C628 1.574 . S
C620 C636 1.368 . S
H621 C629 0.950 1_556 S
H622 C627 0.950 . S
H623 C628 0.949 . S
H624 C630 0.950 . S
H625 C631 0.950 . S
H626 C632 0.949 . S
C627 H622 0.950 . S
C627 C629 1.327 . S
C627 C633 1.429 . S
C628 C620 1.574 . S
C628 H623 0.949 . S
C628 C634 1.368 . S
C629 C613 1.349 . S
C629 H621 0.950 1_554 S
C629 C627 1.327 . S
C630 C618 1.349 . S
C630 H624 0.950 . S
C630 C631 1.327 . S
C631 H625 0.950 . S
C631 C630 1.327 . S
C631 C635 1.429 . S
C632 C615 1.574 . S
C632 H626 0.949 . S
C632 C636 1.368 . S
C633 C614 1.429 . S
C633 C627 1.429 . S
C633 C634 1.523 . S
C634 C615 1.368 . S
C634 C628 1.368 . S
C634 C633 1.523 . S
C635 C619 1.429 . S
C635 C631 1.429 . S
C635 C636 1.523 . S
C636 C620 1.368 . S
C636 C632 1.368 . S
C636 C635 1.523 . S
H637 C612 0.950 . S
H638 C614 0.950 . S
H639 C615 0.949 . S
H640 C617 0.950 . S
H641 C619 0.950 . S
C642 C643 1.349 . S
C642 C644 1.327 . S
C642 H667 0.950 . S
C643 C642 1.349 . S
C643 C659 1.349 . S
C644 C642 1.327 . S
C644 C663 1.429 . S
C644 H668 0.950 . S
C645 C662 1.574 . S
C645 C664 1.368 . S
C645 H669 0.949 . S
H646 C650 0.949 . S
C647 C648 1.349 . S
C647 C649 1.327 . S
C647 H670 0.950 . S
C648 C647 1.349 . S
C648 C660 1.349 . S
C649 C647 1.327 . S
C649 C665 1.429 . S
C649 H671 0.950 . S
C650 H646 0.949 . S
C650 C658 1.574 . S
C650 C666 1.368 . S
H651 C659 0.950 1_556 S
H652 C657 0.950 . S
H653 C658 0.949 . S
H654 C660 0.950 . S
H655 C661 0.950 . S
H656 C662 0.949 . S
C657 H652 0.950 . S
C657 C659 1.327 . S
C657 C663 1.429 . S
C658 C650 1.574 . S
C658 H653 0.949 . S
C658 C664 1.368 . S
C659 C643 1.349 . S
C659 H651 0.950 1_554 S
C659 C657 1.327 . S
C660 C648 1.349 . S
C660 H654 0.950 . S
C660 C661 1.327 . S
C661 H655 0.950 . S
C661 C660 1.327 . S
C661 C665 1.429 . S
C662 C645 1.574 . S
C662 H656 0.949 . S
C662 C666 1.368 . S
C663 C644 1.429 . S
C663 C657 1.429 . S
C663 C664 1.523 . S
C664 C645 1.368 . S
C664 C658 1.368 . S
C664 C663 1.523 . S
C665 C649 1.429 . S
C665 C661 1.429 . S
C665 C666 1.523 . S
C666 C650 1.368 . S
C666 C662 1.368 . S
C666 C665 1.523 . S
H667 C642 0.950 . S
H668 C644 0.950 . S
H669 C645 0.949 . S
H670 C647 0.950 . S
H671 C649 0.950 . S
C672 C673 1.349 1_455 S
C672 C674 1.327 . S
C672 H697 0.950 . S
C673 C672 1.349 1_655 S
C673 C689 1.349 . S
C674 C672 1.327 . S
C674 C693 1.429 . S
C674 H698 0.950 . S
C675 C692 1.568 1_655 S
C675 C694 1.368 1_655 S
C675 H699 0.949 . S
H676 C680 0.949 . S
C677 C678 1.349 . S
C677 C679 1.327 . S
C677 H700 0.950 . S
C678 C677 1.349 . S
C678 C690 1.349 1_556 S
C679 C677 1.327 . S
C679 C695 1.429 1_556 S
C679 H701 0.950 1_455 S
C680 H676 0.949 . S
C680 C688 1.574 . S
C680 C696 1.368 . S
H681 C689 0.950 . S
H682 C687 0.950 . S
H683 C688 0.949 . S
H684 C690 0.950 . S
H685 C691 0.950 . S
H686 C692 0.930 1_655 S
C687 H682 0.950 . S
C687 C689 1.327 . S
C687 C693 1.429 1_655 S
C688 C680 1.574 . S
C688 H683 0.949 . S
C688 C694 1.368 . S
C689 C673 1.349 . S
C689 H681 0.950 . S
C689 C687 1.327 . S
C690 C678 1.349 1_554 S
C690 H684 0.950 . S
C690 C691 1.327 . S
C691 H685 0.950 . S
C691 C690 1.327 . S
C691 C695 1.429 . S
C692 C675 1.568 1_455 S
C692 H686 0.930 1_455 S
C692 C696 1.397 . S
C693 C674 1.429 . S
C693 C687 1.429 1_455 S
C693 C694 1.523 . S
C694 C675 1.368 1_455 S
C694 C688 1.368 . S
C694 C693 1.523 . S
C695 C679 1.429 1_554 S
C695 C691 1.429 . S
C695 C696 1.523 . S
C696 C680 1.368 . S
C696 C692 1.397 . S
C696 C695 1.523 . S
H697 C672 0.950 . S
H698 C674 0.950 . S
H699 C675 0.949 . S
H700 C677 0.950 . S
H701 C679 0.950 1_655 S
C702 C703 1.349 . S
C702 C704 1.327 . S
C702 H727 0.950 . S
C703 C702 1.349 . S
C703 C719 1.349 1_565 S
C704 C702 1.327 . S
C704 C723 1.429 1_565 S
C704 H728 0.950 . S
C705 C722 1.574 . S
C705 C724 1.368 . S
C705 H729 0.949 . S
H706 C710 0.964 . S
C707 C708 1.349 . S
C707 C709 1.327 . S
C707 H730 0.950 . S
C708 C707 1.349 . S
C708 C720 1.349 1_556 S
C709 C707 1.327 . S
C709 C725 1.429 1_556 S
C709 H731 0.950 . S
C710 H706 0.964 . S
C710 C718 1.578 . S
C710 C726 1.347 1_565 S
H711 C719 0.950 . S
H712 C717 0.950 . S
H713 C718 0.949 . S
H714 C720 0.950 . S
H715 C721 0.950 1_565 S
H716 C722 0.949 . S
C717 H712 0.950 . S
C717 C719 1.327 . S
C717 C723 1.429 . S
C718 C710 1.578 . S
C718 H713 0.949 . S
C718 C724 1.368 1_565 S
C719 C703 1.349 1_545 S
C719 H711 0.950 . S
C719 C717 1.327 . S
C720 C708 1.349 1_554 S
C720 H714 0.950 . S
C720 C721 1.327 . S
C721 H715 0.950 1_545 S
C721 C720 1.327 . S
C721 C725 1.429 . S
C722 C705 1.574 . S
C722 H716 0.949 . S
C722 C726 1.368 . S
C723 C704 1.429 1_545 S
C723 C717 1.429 . S
C723 C724 1.523 . S
C724 C705 1.368 . S
C724 C718 1.368 1_545 S
C724 C723 1.523 . S
C725 C709 1.429 1_554 S
C725 C721 1.429 . S
C725 C726 1.523 . S
C726 C710 1.347 1_545 S
C726 C722 1.368 . S
C726 C725 1.523 . S
H727 C702 0.950 . S
H728 C704 0.950 . S
H729 C705 0.949 . S
H730 C707 0.950 . S
H731 C709 0.950 . S
C732 C733 1.349 . S
C732 C734 1.327 . S
C732 H757 0.950 . S
C733 C732 1.349 . S
C733 C749 1.349 . S
C734 C732 1.327 . S
C734 C753 1.429 . S
C734 H758 0.950 . S
C735 C752 1.574 . S
C735 C754 1.368 . S
C735 H759 0.949 . S
H736 C740 0.949 . S
C737 C738 1.349 . S
C737 C739 1.327 . S
C737 H760 0.950 . S
C738 C737 1.349 . S
C738 C750 1.349 1_556 S
C739 C737 1.327 . S
C739 C755 1.429 1_556 S
C739 H761 0.950 . S
C740 H736 0.949 . S
C740 C748 1.574 . S
C740 C756 1.368 . S
H741 C749 0.950 . S
H742 C747 0.950 . S
H743 C748 0.949 . S
H744 C750 0.950 . S
H745 C751 0.950 . S
H746 C752 0.949 . S
C747 H742 0.950 . S
C747 C749 1.327 . S
C747 C753 1.429 . S
C748 C740 1.574 . S
C748 H743 0.949 . S
C748 C754 1.368 . S
C749 C733 1.349 . S
C749 H741 0.950 . S
C749 C747 1.327 . S
C750 C738 1.349 1_554 S
C750 H744 0.950 . S
C750 C751 1.327 . S
C751 H745 0.950 . S
C751 C750 1.327 . S
C751 C755 1.429 . S
C752 C735 1.574 . S
C752 H746 0.949 . S
C752 C756 1.368 . S
C753 C734 1.429 . S
C753 C747 1.429 . S
C753 C754 1.523 . S
C754 C735 1.368 . S
C754 C748 1.368 . S
C754 C753 1.523 . S
C755 C739 1.429 1_554 S
C755 C751 1.429 . S
C755 C756 1.523 . S
C756 C740 1.368 . S
C756 C752 1.368 . S
C756 C755 1.523 . S
H757 C732 0.950 . S
H758 C734 0.950 . S
H759 C735 0.949 . S
H760 C737 0.950 . S
H761 C739 0.950 . S
C762 C763 1.349 . S
C762 C764 1.327 . S
C762 H787 0.950 . S
C763 C762 1.349 . S
C763 C779 1.349 . S
C764 C762 1.327 . S
C764 C783 1.429 . S
C764 H788 0.950 . S
C765 C782 1.574 . S
C765 C784 1.368 . S
C765 H789 0.949 . S
H766 C770 0.949 . S
C767 C768 1.349 . S
C767 C769 1.327 1_556 S
C767 H790 0.950 . S
C768 C767 1.349 . S
C768 C780 1.349 1_556 S
C769 C767 1.327 1_554 S
C769 C785 1.429 . S
C769 H791 0.950 . S
C770 H766 0.949 . S
C770 C778 1.574 . S
C770 C786 1.368 . S
H771 C779 0.950 . S
H772 C777 0.950 . S
H773 C778 0.949 . S
H774 C780 0.950 1_556 S
H775 C781 0.950 . S
H776 C782 0.949 . S
C777 H772 0.950 . S
C777 C779 1.327 . S
C777 C783 1.429 . S
C778 C770 1.574 . S
C778 H773 0.949 . S
C778 C784 1.368 . S
C779 C763 1.349 . S
C779 H771 0.950 . S
C779 C777 1.327 . S
C780 C768 1.349 1_554 S
C780 H774 0.950 1_554 S
C780 C781 1.327 . S
C781 H775 0.950 . S
C781 C780 1.327 . S
C781 C785 1.429 . S
C782 C765 1.574 . S
C782 H776 0.949 . S
C782 C786 1.368 . S
C783 C764 1.429 . S
C783 C777 1.429 . S
C783 C784 1.523 . S
C784 C765 1.368 . S
C784 C778 1.368 . S
C784 C783 1.523 . S
C785 C769 1.429 . S
C785 C781 1.429 . S
C785 C786 1.523 . S
C786 C770 1.368 . S
C786 C782 1.368 . S
C786 C785 1.523 . S
H787 C762 0.950 . S
H788 C764 0.950 . S
H789 C765 0.949 . S
H790 C767 0.950 . S
H791 C769 0.950 . S
C792 C793 1.349 . S
C792 C794 1.327 . S
C792 H817 0.950 . S
C793 C792 1.349 . S
C793 C809 1.349 1_455 S
C794 C792 1.327 . S
C794 C813 1.429 . S
C794 H818 0.950 . S
C795 C812 1.574 . S
C795 C814 1.368 1_655 S
C795 H819 0.949 . S
H796 C800 0.949 . S
C797 C798 1.349 1_655 S
C797 C799 1.327 . S
C797 H820 0.950 . S
C798 C797 1.349 1_455 S
C798 C810 1.349 . S
C799 C797 1.327 . S
C799 C815 1.429 1_655 S
C799 H821 0.950 . S
C800 H796 0.949 . S
C800 C808 1.574 . S
C800 C816 1.368 . S
H801 C809 0.950 . S
H802 C807 0.950 . S
H803 C808 0.949 . S
H804 C810 0.950 . S
H805 C811 0.950 . S
H806 C812 0.949 . S
C807 H802 0.950 . S
C807 C809 1.327 . S
C807 C813 1.429 1_655 S
C808 C800 1.574 . S
C808 H803 0.949 . S
C808 C814 1.368 . S
C809 C793 1.349 1_655 S
C809 H801 0.950 . S
C809 C807 1.327 . S
C810 C798 1.349 . S
C810 H804 0.950 . S
C810 C811 1.327 . S
C811 H805 0.950 . S
C811 C810 1.327 . S
C811 C815 1.429 . S
C812 C795 1.574 . S
C812 H806 0.949 . S
C812 C816 1.368 1_655 S
C813 C794 1.429 . S
C813 C807 1.429 1_455 S
C813 C814 1.523 . S
C814 C795 1.368 1_455 S
C814 C808 1.368 . S
C814 C813 1.523 . S
C815 C799 1.429 1_455 S
C815 C811 1.429 . S
C815 C816 1.523 . S
C816 C800 1.368 . S
C816 C812 1.368 1_455 S
C816 C815 1.523 . S
H817 C792 0.950 . S
H818 C794 0.950 . S
H819 C795 0.949 . S
H820 C797 0.950 . S
H821 C799 0.950 . S
C822 C823 1.349 1_565 S
C822 C824 1.327 . S
C822 H847 0.950 . S
C823 C822 1.349 1_545 S
C823 C839 1.349 . S
C824 C822 1.327 . S
C824 C843 1.429 1_565 S
C824 H848 0.950 . S
C825 C842 1.574 . S
C825 C844 1.368 . S
C825 H849 0.949 . S
H826 C830 0.949 . S
C827 C828 1.349 . S
C827 C829 1.327 . S
C827 H850 0.950 . S
C828 C827 1.349 . S
C828 C840 1.313 1_545 S
C829 C827 1.327 . S
C829 C845 1.429 . S
C829 H851 0.950 . S
C830 H826 0.949 . S
C830 C838 1.574 . S
C830 C846 1.368 1_565 S
H831 C839 0.950 . S
H832 C837 0.950 . S
H833 C838 0.949 . S
H834 C840 0.986 . S
H835 C841 0.950 . S
H836 C842 0.949 . S
C837 H832 0.950 . S
C837 C839 1.327 . S
C837 C843 1.429 . S
C838 C830 1.574 . S
C838 H833 0.949 . S
C838 C844 1.368 1_565 S
C839 C823 1.349 . S
C839 H831 0.950 . S
C839 C837 1.327 . S
C840 C828 1.313 1_565 S
C840 H834 0.986 . S
C840 C841 1.330 . S
C841 H835 0.950 . S
C841 C840 1.330 . S
C841 C845 1.429 1_565 S
C842 C825 1.574 . S
C842 H836 0.949 . S
C842 C846 1.368 . S
C843 C824 1.429 1_545 S
C843 C837 1.429 . S
C843 C844 1.523 . S
C844 C825 1.368 . S
C844 C838 1.368 1_545 S
C844 C843 1.523 . S
C845 C829 1.429 . S
C845 C841 1.429 1_545 S
C845 C846 1.523 . S
C846 C830 1.368 1_545 S
C846 C842 1.368 . S
C846 C845 1.523 . S
H847 C822 0.950 . S
H848 C824 0.950 . S
H849 C825 0.949 . S
H850 C827 0.950 . S
H851 C829 0.950 . S
C852 C853 1.349 . S
C852 C854 1.327 . S
C852 H877 0.950 . S
C853 C852 1.349 . S
C853 C869 1.349 . S
C854 C852 1.327 . S
C854 C873 1.429 . S
C854 H878 0.950 . S
C855 C872 1.574 . S
C855 C874 1.368 . S
C855 H879 0.949 . S
H856 C860 0.949 . S
C857 C858 1.349 . S
C857 C859 1.327 . S
C857 H880 0.950 . S
C858 C857 1.349 . S
C858 C870 1.349 . S
C859 C857 1.327 . S
C859 C875 1.429 . S
C859 H881 0.950 . S
C860 H856 0.949 . S
C860 C868 1.574 . S
C860 C876 1.368 . S
H861 C869 0.950 . S
H862 C867 0.950 . S
H863 C868 0.949 . S
H864 C870 0.950 . S
H865 C871 0.950 . S
H866 C872 0.949 . S
C867 H862 0.950 . S
C867 C869 1.327 . S
C867 C873 1.429 . S
C868 C860 1.574 . S
C868 H863 0.949 . S
C868 C874 1.368 . S
C869 C853 1.349 . S
C869 H861 0.950 . S
C869 C867 1.327 . S
C870 C858 1.349 . S
C870 H864 0.950 . S
C870 C871 1.327 . S
C871 H865 0.950 . S
C871 C870 1.327 . S
C871 C875 1.429 . S
C872 C855 1.574 . S
C872 H866 0.949 . S
C872 C876 1.368 . S
C873 C854 1.429 . S
C873 C867 1.429 . S
C873 C874 1.523 . S
C874 C855 1.368 . S
C874 C868 1.368 . S
C874 C873 1.523 . S
C875 C859 1.429 . S
C875 C871 1.429 . S
C875 C876 1.523 . S
C876 C860 1.368 . S
C876 C872 1.368 . S
C876 C875 1.523 . S
H877 C852 0.950 . S
H878 C854 0.950 . S
H879 C855 0.949 . S
H880 C857 0.950 . S
H881 C859 0.950 . S
C882 C883 1.349 . S
C882 C884 1.327 . S
C882 H907 0.950 . S
C883 C882 1.349 . S
C883 C899 1.349 . S
C884 C882 1.327 . S
C884 C903 1.429 . S
C884 H908 0.950 . S
C885 C902 1.574 . S
C885 C904 1.368 . S
C885 H909 0.949 . S
H886 C890 0.949 . S
C887 C888 1.349 . S
C887 C889 1.327 . S
C887 H910 0.950 . S
C888 C887 1.349 . S
C888 C900 1.349 . S
C889 C887 1.327 . S
C889 C905 1.429 . S
C889 H911 0.950 . S
C890 H886 0.949 . S
C890 C898 1.574 . S
C890 C906 1.368 . S
H891 C899 0.950 . S
H892 C897 0.950 . S
H893 C898 0.949 . S
H894 C900 0.950 . S
H895 C901 0.950 . S
H896 C902 0.949 . S
C897 H892 0.950 . S
C897 C899 1.327 . S
C897 C903 1.429 . S
C898 C890 1.574 . S
C898 H893 0.949 . S
C898 C904 1.368 . S
C899 C883 1.349 . S
C899 H891 0.950 . S
C899 C897 1.327 . S
C900 C888 1.349 . S
C900 H894 0.950 . S
C900 C901 1.327 . S
C901 H895 0.950 . S
C901 C900 1.327 . S
C901 C905 1.429 . S
C902 C885 1.574 . S
C902 H896 0.949 . S
C902 C906 1.368 . S
C903 C884 1.429 . S
C903 C897 1.429 . S
C903 C904 1.523 . S
C904 C885 1.368 . S
C904 C898 1.368 . S
C904 C903 1.523 . S
C905 C889 1.429 . S
C905 C901 1.429 . S
C905 C906 1.523 . S
C906 C890 1.368 . S
C906 C902 1.368 . S
C906 C905 1.523 . S
H907 C882 0.950 . S
H908 C884 0.950 . S
H909 C885 0.949 . S
H910 C887 0.950 . S
H911 C889 0.950 . S
C912 C913 1.368 . S
C912 C914 1.327 . S
C912 H937 0.950 . S
C913 C912 1.368 . S
C913 C929 1.332 1_655 S
C914 C912 1.327 . S
C914 C933 1.429 . S
C914 H938 0.950 . S
C915 C932 1.574 . S
C915 C934 1.368 1_455 S
C915 H939 0.949 . S
H916 C920 0.949 . S
C917 C918 1.349 1_455 S
C917 C919 1.327 . S
C917 H940 0.950 . S
C918 C917 1.349 1_655 S
C918 C930 1.349 . S
C919 C917 1.327 . S
C919 C935 1.429 1_455 S
C919 H941 0.950 . S
C920 H916 0.949 . S
C920 C928 1.574 . S
C920 C936 1.368 . S
H921 C929 0.950 . S
H922 C927 0.950 . S
H923 C928 0.949 . S
H924 C930 0.950 . S
H925 C931 0.950 . S
H926 C932 0.949 . S
C927 H922 0.950 . S
C927 C929 1.327 . S
C927 C933 1.429 1_455 S
C928 C920 1.574 . S
C928 H923 0.949 . S
C928 C934 1.368 . S
C929 C913 1.332 1_455 S
C929 H921 0.950 . S
C929 C927 1.327 . S
C930 C918 1.349 . S
C930 H924 0.950 . S
C930 C931 1.327 . S
C931 H925 0.950 . S
C931 C930 1.327 . S
C931 C935 1.429 . S
C932 C915 1.574 . S
C932 H926 0.949 . S
C932 C936 1.368 1_455 S
C933 C914 1.429 . S
C933 C927 1.429 1_655 S
C933 C934 1.523 . S
C934 C915 1.368 1_655 S
C934 C928 1.368 . S
C934 C933 1.523 . S
C935 C919 1.429 1_655 S
C935 C931 1.429 . S
C935 C936 1.523 . S
C936 C920 1.368 . S
C936 C932 1.368 1_655 S
C936 C935 1.523 . S
H937 C912 0.950 . S
H938 C914 0.950 . S
H939 C915 0.949 . S
H940 C917 0.950 . S
H941 C919 0.950 . S
C942 C943 1.379 . S
C942 C944 1.327 . S
C942 H967 0.950 . S
C943 C942 1.379 . S
C943 C959 1.320 1_565 S
C944 C942 1.327 . S
C944 C963 1.429 . S
C944 H968 0.950 . S
C945 C962 1.574 . S
C945 C964 1.368 1_545 S
C945 H969 0.949 . S
H946 C950 0.949 . S
C947 C948 1.349 1_545 S
C947 C949 1.327 . S
C947 H970 0.950 . S
C948 C947 1.349 1_565 S
C948 C960 1.349 . S
C949 C947 1.327 . S
C949 C965 1.429 1_545 S
C949 H971 0.950 . S
C950 H946 0.949 . S
C950 C958 1.574 . S
C950 C966 1.368 . S
H951 C959 0.950 . S
H952 C957 0.950 . S
H953 C958 0.949 . S
H954 C960 0.950 . S
H955 C961 0.950 . S
H956 C962 0.949 . S
C957 H952 0.950 . S
C957 C959 1.327 . S
C957 C963 1.429 1_545 S
C958 C950 1.574 . S
C958 H953 0.949 . S
C958 C964 1.368 . S
C959 C943 1.320 1_545 S
C959 H951 0.950 . S
C959 C957 1.327 . S
C960 C948 1.349 . S
C960 H954 0.950 . S
C960 C961 1.327 . S
C961 H955 0.950 . S
C961 C960 1.327 . S
C961 C965 1.429 . S
C962 C945 1.574 . S
C962 H956 0.949 . S
C962 C966 1.368 1_545 S
C963 C944 1.429 . S
C963 C957 1.429 1_565 S
C963 C964 1.523 . S
C964 C945 1.368 1_565 S
C964 C958 1.368 . S
C964 C963 1.523 . S
C965 C949 1.429 1_565 S
C965 C961 1.429 . S
C965 C966 1.523 . S
C966 C950 1.368 . S
C966 C962 1.368 1_565 S
C966 C965 1.523 . S
H967 C942 0.950 . S
H968 C944 0.950 . S
H969 C945 0.949 . S
H970 C947 0.950 . S
H971 C949 0.950 . S
C972 C973 1.349 . S
C972 C974 1.327 . S
C972 H997 0.950 . S
C973 C972 1.349 . S
C973 C989 1.349 . S
C974 C972 1.327 . S
C974 C993 1.429 . S
C974 H998 0.950 . S
C975 C992 1.574 . S
C975 C994 1.368 . S
C975 H999 0.949 . S
H976 C980 0.949 . S
C977 C978 1.349 . S
C977 C979 1.327 . S
C977 H1000 0.950 . S
C978 C977 1.349 . S
C978 C990 1.349 . S
C979 C977 1.327 . S
C979 C995 1.429 . S
C979 H1001 0.950 . S
C980 H976 0.949 . S
C980 C988 1.574 . S
C980 C996 1.368 . S
H981 C989 0.950 . S
H982 C987 0.950 . S
H983 C988 0.949 . S
H984 C990 0.950 . S
H985 C991 0.950 . S
H986 C992 0.949 . S
C987 H982 0.950 . S
C987 C989 1.327 . S
C987 C993 1.429 . S
C988 C980 1.574 . S
C988 H983 0.949 . S
C988 C994 1.368 . S
C989 C973 1.349 . S
C989 H981 0.950 . S
C989 C987 1.327 . S
C990 C978 1.349 . S
C990 H984 0.950 . S
C990 C991 1.327 . S
C991 H985 0.950 . S
C991 C990 1.327 . S
C991 C995 1.429 . S
C992 C975 1.574 . S
C992 H986 0.949 . S
C992 C996 1.368 . S
C993 C974 1.429 . S
C993 C987 1.429 . S
C993 C994 1.523 . S
C994 C975 1.368 . S
C994 C988 1.368 . S
C994 C993 1.523 . S
C995 C979 1.429 . S
C995 C991 1.429 . S
C995 C996 1.523 . S
C996 C980 1.368 . S
C996 C992 1.368 . S
C996 C995 1.523 . S
H997 C972 0.950 . S
H998 C974 0.950 . S
H999 C975 0.949 . S
H1000 C977 0.950 . S
H1001 C979 0.950 . S
C1002 C1003 1.349 . S
C1002 C1004 1.327 . S
C1002 H1027 0.950 . S
C1003 C1002 1.349 . S
C1003 C1019 1.349 . S
C1004 C1002 1.327 . S
C1004 C1023 1.429 . S
C1004 H1028 0.950 . S
C1005 C1022 1.574 . S
C1005 C1024 1.368 . S
C1005 H1029 0.949 . S
H1006 C1010 0.949 . S
C1007 C1008 1.349 . S
C1007 C1009 1.327 . S
C1007 H1030 0.950 . S
C1008 C1007 1.349 . S
C1008 C1020 1.349 . S
C1009 C1007 1.327 . S
C1009 C1025 1.429 . S
C1009 H1031 0.950 . S
C1010 H1006 0.949 . S
C1010 C1018 1.574 . S
C1010 C1026 1.368 . S
H1011 C1019 0.950 . S
H1012 C1017 0.950 . S
H1013 C1018 0.949 . S
H1014 C1020 0.950 . S
H1015 C1021 0.950 . S
H1016 C1022 0.949 . S
C1017 H1012 0.950 . S
C1017 C1019 1.327 . S
C1017 C1023 1.429 . S
C1018 C1010 1.574 . S
C1018 H1013 0.949 . S
C1018 C1024 1.368 . S
C1019 C1003 1.349 . S
C1019 H1011 0.950 . S
C1019 C1017 1.327 . S
C1020 C1008 1.349 . S
C1020 H1014 0.950 . S
C1020 C1021 1.327 . S
C1021 H1015 0.950 . S
C1021 C1020 1.327 . S
C1021 C1025 1.429 . S
C1022 C1005 1.574 . S
C1022 H1016 0.949 . S
C1022 C1026 1.368 . S
C1023 C1004 1.429 . S
C1023 C1017 1.429 . S
C1023 C1024 1.523 . S
C1024 C1005 1.368 . S
C1024 C1018 1.368 . S
C1024 C1023 1.523 . S
C1025 C1009 1.429 . S
C1025 C1021 1.429 . S
C1025 C1026 1.523 . S
C1026 C1010 1.368 . S
C1026 C1022 1.368 . S
C1026 C1025 1.523 . S
H1027 C1002 0.950 . S
H1028 C1004 0.950 . S
H1029 C1005 0.949 . S
H1030 C1007 0.950 . S
H1031 C1009 0.950 . S
C313 C125 1.788 . S
C318 C162 1.833 . S
C348 C202 1.833 . S
C343 C144 1.788 . S
C378 C242 1.832 . S
C373 C87 1.787 . S
C408 C282 1.833 . S
C403 C106 1.787 . S
C438 C171 1.833 . S
C433 C49 1.794 1_545 S
C463 C68 1.793 . S
C468 C211 1.832 . S
C493 C11 1.793 . S
C498 C251 1.833 . S
C523 C30 1.793 . S
C528 C291 1.833 . S
C558 C168 0.374 . S
C553 C97 0.472 . S
C588 C208 0.373 . S
C583 C116 0.471 . S
C618 C248 0.373 . S
C613 C135 0.471 . S
C643 C78 0.471 . S
C648 C288 0.373 . S
C673 C21 0.472 . S
C678 C159 0.373 . S
C708 C199 0.374 . S
C703 C40 0.471 . S
C738 C239 0.373 . S
C733 C59 0.470 . S
C763 C2 0.470 . S
C768 C279 0.373 . S
C793 C101 1.920 . S
C798 C163 2.095 . S
C823 C120 1.920 . S
C828 C203 2.095 . S
C858 C243 2.096 . S
C853 C139 1.920 . S
C888 C283 2.095 . S
C883 C82 1.920 . S
C913 C25 1.919 . S
C918 C154 2.095 . S
C948 C194 2.095 . S
C943 C44 1.919 . S
C978 C234 2.095 . S
C973 C63 1.919 . S
C1003 C6 1.919 . S
C1008 C274 2.095 . S
