# Generated by pormake.
# Topology pyr, (3,6)-cn, num edge types: 1
# Building blocks:
#     Node 0, Type 0, BuildingBlock: BETDIP_clean_linker_0, # of connection points: 3
#     Node 1, Type 0, BuildingBlock: BETDIP_clean_linker_0, # of connection points: 3
#     Node 2, Type 0, BuildingBlock: BETDIP_clean_linker_0, # of connection points: 3
#     Node 3, Type 0, BuildingBlock: BETDIP_clean_linker_0, # of connection points: 3
#     Node 4, Type 0, BuildingBlock: BETDIP_clean_linker_0, # of connection points: 3
#     Node 5, Type 0, BuildingBlock: BETDIP_clean_linker_0, # of connection points: 3
#     Node 6, Type 0, BuildingBlock: BETDIP_clean_linker_0, # of connection points: 3
#     Node 7, Type 0, BuildingBlock: BETDIP_clean_linker_0, # of connection points: 3
#     Node 8, Type 1, BuildingBlock: LEVNOQ01_clean_sbu_1, # of connection points: 6
#     Node 9, Type 1, BuildingBlock: LEVNOQ01_clean_sbu_1, # of connection points: 6
#     Node 10, Type 1, BuildingBlock: LEVNOQ01_clean_sbu_1, # of connection points: 6
#     Node 11, Type 1, BuildingBlock: LEVNOQ01_clean_sbu_1, # of connection points: 6
#     Edge 12, Type (0, 1), BuildingBlock: EZIPEK_clean_linker_0, # of connection points: 2
#     Edge 13, Type (0, 1), BuildingBlock: EZIPEK_clean_linker_0, # of connection points: 2
#     Edge 14, Type (0, 1), BuildingBlock: EZIPEK_clean_linker_0, # of connection points: 2
#     Edge 15, Type (0, 1), BuildingBlock: EZIPEK_clean_linker_0, # of connection points: 2
#     Edge 16, Type (0, 1), BuildingBlock: EZIPEK_clean_linker_0, # of connection points: 2
#     Edge 17, Type (0, 1), BuildingBlock: EZIPEK_clean_linker_0, # of connection points: 2
#     Edge 18, Type (0, 1), BuildingBlock: EZIPEK_clean_linker_0, # of connection points: 2
#     Edge 19, Type (0, 1), BuildingBlock: EZIPEK_clean_linker_0, # of connection points: 2
#     Edge 20, Type (0, 1), BuildingBlock: EZIPEK_clean_linker_0, # of connection points: 2
#     Edge 21, Type (0, 1), BuildingBlock: EZIPEK_clean_linker_0, # of connection points: 2
#     Edge 22, Type (0, 1), BuildingBlock: EZIPEK_clean_linker_0, # of connection points: 2
#     Edge 23, Type (0, 1), BuildingBlock: EZIPEK_clean_linker_0, # of connection points: 2
#     Edge 24, Type (0, 1), BuildingBlock: EZIPEK_clean_linker_0, # of connection points: 2
#     Edge 25, Type (0, 1), BuildingBlock: EZIPEK_clean_linker_0, # of connection points: 2
#     Edge 26, Type (0, 1), BuildingBlock: EZIPEK_clean_linker_0, # of connection points: 2
#     Edge 27, Type (0, 1), BuildingBlock: EZIPEK_clean_linker_0, # of connection points: 2
#     Edge 28, Type (0, 1), BuildingBlock: EZIPEK_clean_linker_0, # of connection points: 2
#     Edge 29, Type (0, 1), BuildingBlock: EZIPEK_clean_linker_0, # of connection points: 2
#     Edge 30, Type (0, 1), BuildingBlock: EZIPEK_clean_linker_0, # of connection points: 2
#     Edge 31, Type (0, 1), BuildingBlock: EZIPEK_clean_linker_0, # of connection points: 2
#     Edge 32, Type (0, 1), BuildingBlock: EZIPEK_clean_linker_0, # of connection points: 2
#     Edge 33, Type (0, 1), BuildingBlock: EZIPEK_clean_linker_0, # of connection points: 2
#     Edge 34, Type (0, 1), BuildingBlock: EZIPEK_clean_linker_0, # of connection points: 2
#     Edge 35, Type (0, 1), BuildingBlock: EZIPEK_clean_linker_0, # of connection points: 2
# Relax obj value: 0.084
# Max RMSD: 0.170
# Mean RMSD: 0.133
data_MOF--net-pry--node1-LEVNOQ01_clean_sbu_1--node2-BETDIP_clean_linker_0--edge1-EZIPEK_clean_linker_0
_symmetry_space_group_name_H-M    P1
_symmetry_Int_Tables_number       1
_symmetry_cell_setting            triclinic
loop_
_symmetry_equiv_pos_as_xyz
'x, y, z'
_cell_length_a     27.122546
_cell_length_b     25.483762
_cell_length_c     26.701589
_cell_angle_alpha  96.3978
_cell_angle_beta   86.632826
_cell_angle_gamma 99.232311
loop_
_atom_site_label
_atom_site_type_symbol
_atom_site_fract_x
_atom_site_fract_y
_atom_site_fract_z
_atom_type_partial_charge
H0 H 0.08044 0.1558 0.21823 0.0
H1 H 0.20485 0.16079 0.10979 0.0
H2 H 0.18863 0.04981 0.22139 0.0
H3 H 0.17035 0.21773 0.07445 0.0
C4 C 0.14175 0.23308 0.09926 0.0
C5 C 0.114 0.14094 0.2027 0.0
C6 C 0.13157 0.10048 0.22521 0.0
C7 C 0.13961 0.16306 0.16085 0.0
C8 C 0.18358 0.14394 0.14124 0.0
C9 C 0.20123 0.10279 0.16259 0.0
C10 C 0.17495 0.08118 0.2045 0.0
N11 N 0.12076 0.20543 0.14104 0.0
H12 H 0.31833 0.93632 0.69741 0.0
H13 H 0.33718 0.803 0.5876 0.0
H14 H 0.43574 0.84459 0.71068 0.0
H15 H 0.26722 0.81534 0.55741 0.0
C16 C 0.25828 0.85431 0.57159 0.0
C17 C 0.33903 0.90462 0.68244 0.0
C18 C 0.37813 0.89336 0.70955 0.0
C19 C 0.32426 0.8729 0.6379 0.0
C20 C 0.34909 0.82938 0.62065 0.0
C21 C 0.38965 0.81906 0.64658 0.0
C22 C 0.4052 0.85286 0.68982 0.0
N23 N 0.28331 0.88526 0.61295 0.0
H24 H 0.72141 0.43174 0.84175 0.0
H25 H 0.58537 0.31916 0.84434 0.0
H26 H 0.71538 0.28953 0.91538 0.0
H27 H 0.69632 0.44196 0.76309 0.0
C28 C 0.65583 0.43264 0.7643 0.0
C29 C 0.70072 0.3943 0.8522 0.0
C30 C 0.72308 0.36338 0.88189 0.0
C31 C 0.65177 0.37676 0.83657 0.0
C32 C 0.62416 0.33067 0.854 0.0
C33 C 0.64682 0.29837 0.88198 0.0
C34 C 0.69716 0.31415 0.894 0.0
N35 N 0.62935 0.40347 0.80241 0.0
H36 H 0.82504 0.5115 0.42462 0.0
H37 H 0.96723 0.61412 0.41945 0.0
H38 H 0.84111 0.66888 0.50197 0.0
H39 H 0.96479 0.5852 0.33811 0.0
C40 C 0.94062 0.54713 0.33139 0.0
C41 C 0.84941 0.54764 0.43825 0.0
C42 C 0.82942 0.58724 0.4702 0.0
C43 C 0.8978 0.5583 0.41683 0.0
C44 C 0.92891 0.60616 0.43375 0.0
C45 C 0.90822 0.64752 0.46279 0.0
C46 C 0.85867 0.6369 0.48181 0.0
N47 N 0.90937 0.52642 0.37161 0.0
H48 H 0.78158 0.84394 0.94509 0.0
H49 H 0.90067 0.85046 0.83084 0.0
H50 H 0.77915 0.93788 0.82128 0.0
H51 H 0.94326 0.82657 0.8937 0.0
C52 C 0.91571 0.79764 0.91117 0.0
C53 C 0.79887 0.85907 0.91084 0.0
C54 C 0.77584 0.89426 0.88641 0.0
C55 C 0.8441 0.84328 0.89155 0.0
C56 C 0.86619 0.86275 0.84673 0.0
C57 C 0.84275 0.89648 0.82068 0.0
C58 C 0.79754 0.91192 0.84093 0.0
N59 N 0.86475 0.80549 0.91635 0.0
H60 H 0.66407 0.09118 0.33467 0.0
H61 H 0.65568 0.216 0.4566 0.0
H62 H 0.55363 0.19564 0.33749 0.0
H63 H 0.72043 0.19058 0.48518 0.0
C64 C 0.72504 0.15109 0.46793 0.0
C65 C 0.64572 0.12325 0.35332 0.0
C66 C 0.60603 0.1393 0.33032 0.0
C67 C 0.66276 0.14898 0.3999 0.0
C68 C 0.64171 0.19353 0.42227 0.0
C69 C 0.60308 0.21094 0.39912 0.0
C70 C 0.58369 0.18195 0.35497 0.0
N71 N 0.7013 0.12899 0.42245 0.0
H72 H 0.24809 0.61792 0.18559 0.0
H73 H 0.36546 0.73111 0.25567 0.0
H74 H 0.31503 0.75488 0.1115 0.0
H75 H 0.37785 0.60901 0.22121 0.0
C76 C 0.35625 0.61139 0.25682 0.0
C77 C 0.27395 0.65507 0.18558 0.0
C78 C 0.27645 0.68599 0.14491 0.0
C79 C 0.30688 0.67065 0.22485 0.0
C80 C 0.34031 0.71876 0.22504 0.0
C81 C 0.34381 0.74893 0.184 0.0
C82 C 0.31224 0.73192 0.14371 0.0
N83 N 0.31191 0.63452 0.25996 0.0
H84 H 0.07422 0.34364 0.62226 0.0
H85 H 0.20283 0.45736 0.58903 0.0
H86 H 0.14105 0.33931 0.47245 0.0
H87 H 0.19844 0.48954 0.66816 0.0
C88 C 0.16763 0.46694 0.68798 0.0
C89 C 0.10035 0.36202 0.59459 0.0
C90 C 0.10502 0.33549 0.54606 0.0
C91 C 0.13438 0.40736 0.61019 0.0
C92 C 0.17343 0.42564 0.57642 0.0
C93 C 0.17713 0.40013 0.52692 0.0
C94 C 0.13923 0.35881 0.51053 0.0
N95 N 0.13185 0.428 0.66187 0.0
O96 O 0.98568 0.01259 0.66146 0.0
Mg97 Mg 0.04449 0.04176 0.61421 0.0
O98 O 0.94734 0.96357 0.59703 0.0
Mg99 Mg 0.98476 -0.00657 0.51889 0.0
O100 O 0.02419 0.07467 0.55377 0.0
O101 O 0.06451 0.12237 0.61819 0.0
O102 O 0.02085 0.02183 0.44094 0.0
O103 O 0.9117 0.03388 0.51751 0.0
Mg104 Mg 0.91649 0.94664 0.42732 0.0
O105 O 0.95029 0.91294 0.47958 0.0
O106 O 0.97098 0.98634 0.37891 0.0
O107 O 0.86088 0.98808 0.46097 0.0
O108 O 0.90322 0.86465 0.42032 0.0
C109 C 0.09288 0.95762 0.55177 0.0
C110 C 0.95102 0.97701 0.64467 0.0
C111 C 0.0465 0.12017 0.57416 0.0
C112 C 0.01106 0.01502 0.394 0.0
C113 C 0.86908 0.02428 0.49729 0.0
C114 C 0.93139 0.86669 0.45801 0.0
O115 O 0.09774 -0.00826 0.59019 0.0
O116 O 0.05573 0.95282 0.5234 0.0
O117 O 0.42455 0.10163 0.08749 0.0
Mg118 Mg 0.49594 0.10192 0.05306 0.0
O119 O 0.40695 0.02212 0.04703 0.0
Mg120 Mg 0.48849 0.00441 0.02026 0.0
O121 O 0.51866 0.08403 0.98074 0.0
O122 O 0.50406 0.16529 0.01391 0.0
O123 O 0.56807 0.98133 0.99093 0.0
O124 O 0.45579 0.97989 0.93991 0.0
Mg125 Mg 0.47859 0.8833 0.98444 0.0
O126 O 0.4635 0.92421 0.05233 0.0
O127 O 0.55566 0.89379 0.96772 0.0
O128 O 0.43396 0.89243 0.92558 0.0
O129 O 0.45057 0.83511 0.03833 0.0
C130 C 0.54556 0.07137 0.12469 0.0
C131 C 0.39283 0.06129 0.07507 0.0
C132 C 0.5221 0.13512 0.97791 0.0
C133 C 0.58443 0.93825 0.97265 0.0
C134 C 0.43614 0.93877 0.91207 0.0
C135 C 0.4496 0.87799 0.06888 0.0
O136 O 0.55619 0.10997 0.09867 0.0
O137 O 0.51757 0.02957 0.10556 0.0
O138 O 0.4303 0.58187 0.61531 0.0
Mg139 Mg 0.43599 0.50003 0.6121 0.0
O140 O 0.48589 0.6012 0.55302 0.0
Mg141 Mg 0.49707 0.51571 0.51641 0.0
O142 O 0.50813 0.48877 0.59426 0.0
O143 O 0.46905 0.47377 0.66898 0.0
O144 O 0.50629 0.42989 0.48189 0.0
O145 O 0.58675 0.53958 0.5175 0.0
Mg146 Mg 0.54901 0.53447 0.43723 0.0
O147 O 0.47644 0.54122 0.4391 0.0
O148 O 0.57243 0.45781 0.43552 0.0
O149 O 0.59566 0.60295 0.46808 0.0
O150 O 0.52625 0.54458 0.36855 0.0
C151 C 0.37547 0.46192 0.5315 0.0
C152 C 0.45587 0.61572 0.58881 0.0
C153 C 0.50846 0.47443 0.63938 0.0
C154 C 0.54395 0.41974 0.45402 0.0
C155 C 0.61497 0.57738 0.4974 0.0
C156 C 0.48361 0.54796 0.39162 0.0
O157 O 0.37954 0.44756 0.57458 0.0
O158 O 0.41186 0.48988 0.51014 0.0
O159 O 0.0908 0.46948 0.07257 0.0
Mg160 Mg 0.04685 0.53289 0.07132 0.0
O161 O 0.03891 0.4254 0.01786 0.0
Mg162 Mg 0.02121 0.50817 1.0013 0.0
O163 O 0.97283 0.51525 0.08372 0.0
O164 O 0.02747 0.54331 0.14473 0.0
O165 O 0.00304 0.59172 0.98652 0.0
O166 O 0.9359 0.46964 0.98337 0.0
Mg167 Mg -0.00321 0.48956 0.92019 0.0
O168 O 0.07157 0.4987 0.92221 0.0
O169 O 0.95947 0.55779 0.92102 0.0
O170 O 0.95786 0.41132 0.92485 0.0
O171 O 0.0289 0.48597 0.85091 0.0
C172 C 0.11515 0.59704 0.03076 0.0
C173 C 0.07282 0.4254 0.04888 0.0
C174 C 0.98248 0.52687 0.13134 0.0
C175 C 0.97411 0.59742 0.95233 0.0
C176 C 0.92356 0.42868 0.95219 0.0
C177 C 0.07049 0.49256 0.87313 0.0
O178 O 0.07923 0.61178 0.05754 0.0
O179 O 0.10787 0.54918 0.01049 0.0
C180 C 0.08202 0.02371 0.26768 0.0
C181 C 0.10422 0.07824 0.27055 0.0
C182 C 0.06731 0.09238 0.35668 0.0
C183 C 0.04791 0.03699 0.35473 0.0
N184 N 0.05085 0.94803 0.31393 0.0
N185 N 0.12826 0.16118 0.32247 0.0
C186 C 0.05966 0.0021 0.31189 0.0
C187 C 0.10002 0.11161 0.31657 0.0
N188 N 0.08009 -0.0071 0.22232 0.0
N189 N 0.05274 0.12713 0.39535 0.0
H190 H 0.1533 0.17614 0.29444 0.0
H191 H 0.1305 0.18517 0.35676 0.0
H192 H 0.02845 0.11497 0.42499 0.0
H193 H 0.06145 0.16851 0.39586 0.0
H194 H 0.0597 0.95452 0.2174 0.0
H195 H 0.09453 0.00739 0.18859 0.0
H196 H 0.06292 0.92095 0.28549 0.0
H197 H 0.03679 0.93069 0.34646 0.0
C198 C 0.35419 0.90009 0.80213 0.0
C199 C 0.38696 0.91818 0.76197 0.0
C200 C 0.44862 0.96314 0.8225 0.0
C201 C 0.41631 0.94349 0.86242 0.0
N202 N 0.33297 0.91013 0.89181 0.0
N203 N 0.45812 0.97837 0.7339 0.0
C204 C 0.36713 0.91778 0.85259 0.0
C205 C 0.43174 0.95385 0.7723 0.0
N206 N 0.31254 0.86312 0.79239 0.0
N207 N 0.49637 0.98736 0.83183 0.0
H208 H 0.44638 0.97189 0.69687 0.0
H209 H 0.48868 0.00853 0.73941 0.0
H210 H 0.50995 -0.00368 0.86794 0.0
H211 H 0.52354 -0.00381 0.80353 0.0
H212 H 0.29085 0.8438 0.8204 0.0
H213 H 0.30151 0.84851 0.7561 0.0
H214 H 0.29518 0.89584 0.88693 0.0
H215 H 0.34163 0.92358 0.92913 0.0
C216 C 0.6285 0.49525 0.70913 0.0
C217 C 0.6276 0.44251 0.72149 0.0
C218 C 0.55704 0.4093 0.66776 0.0
C219 C 0.55441 0.46267 0.65939 0.0
N220 N 0.58617 0.55695 0.67081 0.0
N221 N 0.60467 0.34799 0.69908 0.0
C222 C 0.59065 0.50576 0.67853 0.0
C223 C 0.59601 0.39902 0.69653 0.0
N224 N 0.66526 0.53495 0.727 0.0
N225 N 0.52051 0.3689 0.6507 0.0
H226 H 0.6345 0.33961 0.71821 0.0
H227 H 0.58592 0.3146 0.67816 0.0
H228 H 0.49235 0.37471 0.62783 0.0
H229 H 0.51652 0.33022 0.66108 0.0
H230 H 0.67092 0.57358 0.7164 0.0
H231 H 0.69278 0.52825 0.75016 0.0
H232 H 0.60749 0.59094 0.68815 0.0
H233 H 0.55955 0.56589 0.64776 0.0
C234 C 0.91454 0.5689 0.24913 0.0
C235 C 0.9286 0.53045 0.27773 0.0
C236 C 0.94398 0.47481 0.19949 0.0
C237 C 0.94413 0.51959 0.17259 0.0
N238 N 0.92287 0.60665 0.16876 0.0
N239 N 0.95055 0.44311 0.28104 0.0
C240 C 0.92587 0.56537 0.19632 0.0
C241 C 0.94004 0.48141 0.25319 0.0
N242 N 0.89057 0.6085 0.27283 0.0
N243 N 0.94983 0.427 0.17324 0.0
H244 H 0.9469 0.44676 0.32033 0.0
H245 H 0.96446 0.40886 0.26549 0.0
H246 H 0.95294 0.42269 0.13385 0.0
H247 H 0.94741 0.3915 0.18975 0.0
H248 H 0.87681 0.63637 0.25398 0.0
H249 H 0.87979 0.60947 0.31105 0.0
H250 H 0.91543 0.64396 0.18451 0.0
H251 H 0.92946 0.60335 0.12967 0.0
C252 C 0.25123 0.06001 0.09073 0.0
C253 C 0.24841 0.0837 0.14147 0.0
C254 C 0.33547 0.07277 0.15053 0.0
C255 C 0.34106 0.05953 0.09768 0.0
N256 N 0.30429 0.043 0.01619 0.0
N257 N 0.29099 0.11944 0.21786 0.0
C258 C 0.29879 0.05302 0.06737 0.0
C259 C 0.29123 0.09141 0.17115 0.0
N260 N 0.20837 0.04341 0.06519 0.0
N261 N 0.37243 0.06691 0.18118 0.0
H262 H 0.26021 0.13587 0.23392 0.0
H263 H 0.323 0.13094 0.23863 0.0
H264 H 0.40467 0.05169 0.16738 0.0
H265 H 0.36849 0.07134 0.22041 0.0
H266 H 0.20752 0.02141 0.02986 0.0
H267 H 0.173 0.04705 0.08149 0.0
H268 H 0.27598 0.04407 0.99177 0.0
H269 H 0.33822 0.03722 0.99772 0.0
C270 C 0.16688 0.84424 0.55455 0.0
C271 C 0.21566 0.87416 0.55144 0.0
C272 C 0.18113 0.95015 0.52675 0.0
C273 C 0.13271 0.92436 0.54002 0.0
N274 N 0.07737 0.84623 0.5629 0.0
N275 N 0.27089 0.95202 0.52766 0.0
C276 C 0.12478 0.87061 0.55159 0.0
C277 C 0.22328 0.92593 0.53479 0.0
N278 N 0.16091 0.79119 0.56138 0.0
N279 N 0.18624 -0.00226 0.50636 0.0
H280 H 0.30233 0.93344 0.529 0.0
H281 H 0.27961 -0.00794 0.52134 0.0
H282 H 0.15548 0.01542 0.49944 0.0
H283 H 0.21996 0.01762 0.49258 0.0
H284 H 0.12673 0.76595 0.55963 0.0
H285 H 0.19087 0.77106 0.56487 0.0
H286 H 0.06913 0.80952 0.57755 0.0
H287 H 0.04579 0.8639 0.55937 0.0
C288 C 0.81523 0.38684 0.86557 0.0
C289 C 0.77397 0.38221 0.90039 0.0
C290 C 0.83067 0.40479 0.97057 0.0
C291 C 0.87148 0.41418 0.93543 0.0
N292 N 0.89763 0.43394 0.85001 0.0
N293 N 0.74136 0.40137 0.98537 0.0
C294 C 0.86251 0.41083 0.88298 0.0
C295 C 0.78129 0.39538 0.95286 0.0
N296 N 0.80972 0.36776 0.81598 0.0
N297 N 0.83886 0.4036 0.02039 0.0
H298 H 0.70526 0.39877 0.97291 0.0
H299 H 0.74493 0.41511 0.02341 0.0
H300 H 0.87458 0.40976 0.03457 0.0
H301 H 0.81042 0.39185 0.04665 0.0
H302 H 0.84008 0.36582 0.79037 0.0
H303 H 0.77563 0.34915 0.8016 0.0
H304 H 0.8907 0.43608 0.81236 0.0
H305 H 0.93074 0.45755 0.86146 0.0
C306 C 0.74558 0.58623 0.43728 0.0
C307 C 0.77459 0.58308 0.47875 0.0
C308 C 0.6994 0.58074 0.53488 0.0
C309 C 0.66991 0.57762 0.49208 0.0
N310 N 0.66602 0.55837 0.40088 0.0
N311 N 0.77952 0.57123 0.56645 0.0
C312 C 0.69321 0.57493 0.4428 0.0
C313 C 0.75161 0.57839 0.52754 0.0
N314 N 0.76776 0.60145 0.39269 0.0
N315 N 0.67802 0.58798 0.58221 0.0
H316 H 0.81785 0.57013 0.56211 0.0
H317 H 0.76415 0.56243 0.60177 0.0
H318 H 0.64027 0.59113 0.58848 0.0
H319 H 0.69829 0.59526 0.61486 0.0
H320 H 0.7474 0.60964 0.36333 0.0
H321 H 0.8063 0.61152 0.3868 0.0
H322 H 0.68251 0.55109 0.36503 0.0
H323 H 0.62789 0.54488 0.4022 0.0
C324 C 0.11456 0.28747 0.03521 0.0
C325 C 0.12248 0.28154 0.08636 0.0
C326 C 0.08997 0.36523 0.11243 0.0
C327 C 0.08841 0.3748 0.0611 0.0
N328 N 0.10892 0.34907 0.97362 0.0
N329 N 0.13015 0.32323 0.17205 0.0
C330 C 0.10322 0.33693 0.02238 0.0
C331 C 0.11351 0.32264 0.12463 0.0
N332 N 0.11627 0.24542 0.99894 0.0
N333 N 0.0676 0.39561 0.14974 0.0
H334 H 0.15105 0.29532 0.18193 0.0
H335 H 0.12857 0.35518 0.19979 0.0
H336 H 0.04834 0.42608 0.14271 0.0
H337 H 0.06342 0.3866 0.18704 0.0
H338 H 0.10584 0.24592 0.96208 0.0
H339 H 0.12318 0.20813 0.00674 0.0
H340 H 0.12446 0.32521 0.94462 0.0
H341 H 0.10302 0.38566 0.96311 0.0
C342 C 0.58657 0.21028 0.87144 0.0
C343 C 0.61731 0.25035 0.90245 0.0
C344 C 0.60104 0.19452 0.97111 0.0
C345 C 0.56124 0.16261 0.94538 0.0
N346 N 0.51474 0.13925 0.8702 0.0
N347 N 0.63912 0.28551 0.98793 0.0
C348 C 0.55358 0.16986 0.89495 0.0
C349 C 0.62093 0.24377 0.95405 0.0
N350 N 0.58993 0.20969 0.82021 0.0
N351 N 0.61816 0.17875 0.01311 0.0
H352 H 0.64702 0.32463 0.9786 0.0
H353 H 0.63921 0.28221 0.02652 0.0
H354 H 0.60565 0.14077 0.02419 0.0
H355 H 0.64883 0.20034 0.03197 0.0
H356 H 0.57072 0.17918 0.79617 0.0
H357 H 0.61587 0.23657 0.80173 0.0
H358 H 0.50439 0.14637 0.83489 0.0
H359 H 0.49173 0.10823 0.88653 0.0
C360 C 0.95203 0.73018 0.42284 0.0
C361 C 0.93346 0.70455 0.46664 0.0
C362 C 0.9291 0.79229 0.51301 0.0
C363 C 0.94702 0.81656 0.46913 0.0
N364 N -0.00332 0.81109 0.39197 0.0
N365 N 0.92436 0.7138 0.55761 0.0
C366 C 0.96708 0.78608 0.42805 0.0
C367 C 0.92956 0.7367 0.51342 0.0
N368 N 0.94919 0.70379 0.37547 0.0
N369 N 0.90782 0.82078 0.55231 0.0
H370 H 0.92537 0.67313 0.55859 0.0
H371 H 0.92416 0.73614 0.59279 0.0
H372 H 0.9074 0.86172 0.55306 0.0
H373 H 0.88814 0.8028 0.58225 0.0
H374 H 0.95885 0.72301 0.343 0.0
H375 H 0.93092 0.66511 0.36755 0.0
H376 H 0.01473 0.79024 0.36244 0.0
H377 H 0.00707 0.85257 0.3953 0.0
C378 C 0.41695 0.73399 0.66733 0.0
C379 C 0.41277 0.76993 0.63131 0.0
C380 C 0.44037 0.70544 0.56468 0.0
C381 C 0.44953 0.67261 0.60173 0.0
N382 N 0.46334 0.66736 0.68946 0.0
N383 N 0.43557 0.7957 0.54756 0.0
C384 C 0.44371 0.69106 0.65346 0.0
C385 C 0.42946 0.75765 0.58051 0.0
N386 N 0.39243 0.73789 0.71347 0.0
N387 N 0.43831 0.68614 0.51497 0.0
H388 H 0.43003 0.83501 0.5584 0.0
H389 H 0.45137 0.78951 0.51124 0.0
H390 H 0.44329 0.64733 0.50161 0.0
H391 H 0.42636 0.70722 0.48787 0.0
H392 H 0.39175 0.70956 0.73893 0.0
H393 H 0.36773 0.765 0.72374 0.0
H394 H 0.4627 0.68212 0.7275 0.0
H395 H 0.48525 0.6372 0.68037 0.0
C396 C 0.87918 0.87896 0.73156 0.0
C397 C 0.86567 0.91584 0.77217 0.0
C398 C 0.89237 0.98848 0.71887 0.0
C399 C 0.91451 0.95315 0.68282 0.0
N400 N 0.93738 0.86556 0.66086 0.0
N401 N 0.87074 0.00835 0.8071 0.0
C402 C 0.90993 0.89839 0.69043 0.0
C403 C 0.87495 0.97143 0.76647 0.0
N404 N 0.86189 0.82561 0.73148 0.0
N405 N 0.88851 0.03868 0.7078 0.0
H406 H 0.86219 -0.00188 0.84366 0.0
H407 H 0.88155 0.04928 0.80542 0.0
H408 H 0.90016 0.05199 0.67278 0.0
H409 H 0.86896 0.06453 0.7312 0.0
H410 H 0.86762 0.79792 0.70074 0.0
H411 H 0.83728 0.81005 0.75957 0.0
H412 H 0.93922 0.82669 0.66848 0.0
H413 H 0.96151 0.8786 0.63136 0.0
C414 C 0.58605 0.15408 0.24318 0.0
C415 C 0.59153 0.11737 0.27765 0.0
C416 C 0.56819 0.04468 0.21007 0.0
C417 C 0.55561 0.08265 0.17964 0.0
N418 N 0.53048 0.17033 0.18256 0.0
N419 N 0.57617 0.02502 0.29597 0.0
C420 C 0.5573 0.13633 0.20109 0.0
C421 C 0.57931 0.06157 0.26185 0.0
N422 N 0.61003 0.20546 0.24898 0.0
N423 N 0.57093 -0.00642 0.18997 0.0
H424 H 0.58125 0.03598 0.33432 0.0
H425 H 0.56343 0.98446 0.28687 0.0
H426 H 0.56383 0.98011 0.15242 0.0
H427 H 0.58428 0.96607 0.20971 0.0
H428 H 0.6079 0.23252 0.22285 0.0
H429 H 0.63739 0.21769 0.27533 0.0
H430 H 0.52998 0.20922 0.19947 0.0
H431 H 0.50385 0.15737 0.15537 0.0
C432 C 0.38468 0.53782 0.2959 0.0
C433 C 0.37597 0.59159 0.30035 0.0
C434 C 0.43446 0.61535 0.36827 0.0
C435 C 0.44315 0.56173 0.3639 0.0
N436 N 0.41929 0.46934 0.33262 0.0
N437 N 0.38055 0.67715 0.35047 0.0
C438 C 0.41568 0.52198 0.33069 0.0
C439 C 0.39661 0.62885 0.33998 0.0
N440 N 0.36443 0.50248 0.25744 0.0
N441 N 0.46452 0.65405 0.39692 0.0
H442 H 0.35223 0.68828 0.33133 0.0
H443 H 0.39128 0.70369 0.38189 0.0
H444 H 0.49262 0.64575 0.41853 0.0
H445 H 0.46421 0.69478 0.39625 0.0
H446 H 0.37416 0.46459 0.24818 0.0
H447 H 0.33902 0.51207 0.23335 0.0
H448 H 0.39688 0.43795 0.31256 0.0
H449 H 0.44211 0.4568 0.35762 0.0
C450 C 0.1511 0.43279 0.77228 0.0
C451 C 0.16088 0.47716 0.74363 0.0
C452 C 0.13716 0.53541 0.81738 0.0
C453 C 0.11577 0.48934 0.84045 0.0
N454 N 0.10527 0.39437 0.84363 0.0
N455 N 0.16986 0.5724 0.73991 0.0
C456 C 0.12494 0.43813 0.81967 0.0
C457 C 0.15735 0.52939 0.76695 0.0
N458 N 0.16684 0.3858 0.75384 0.0
N459 N 0.13622 0.5845 0.84344 0.0
H460 H 0.18573 0.56944 0.7034 0.0
H461 H 0.16308 0.61075 0.75279 0.0
H462 H 0.12131 0.58862 0.88039 0.0
H463 H 0.15364 0.62023 0.83058 0.0
H464 H 0.16416 0.35299 0.7744 0.0
H465 H 0.18722 0.38168 0.7196 0.0
H466 H 0.10517 0.35515 0.82777 0.0
H467 H 0.08693 0.39778 0.87902 0.0
C468 C 0.72608 0.94214 0.95544 0.0
C469 C 0.7279 0.9114 0.90758 0.0
C470 C 0.63973 0.91712 0.89809 0.0
C471 C 0.63567 0.93893 0.94917 0.0
N472 N 0.67447 0.96963 0.02815 0.0
N473 N 0.68348 0.86226 0.83685 0.0
C474 C 0.67883 0.95134 0.97829 0.0
C475 C 0.68399 0.89726 0.8796 0.0
N476 N 0.76949 0.96361 0.97844 0.0
N477 N 0.6011 0.91571 0.86706 0.0
H478 H 0.71435 0.84465 0.82298 0.0
H479 H 0.65096 0.84645 0.81803 0.0
H480 H 0.56844 0.93094 0.87923 0.0
H481 H 0.6037 0.90491 0.8283 0.0
H482 H 0.77083 0.9904 0.01095 0.0
H483 H 0.80465 0.95859 0.96241 0.0
H484 H 0.70352 0.97346 0.05279 0.0
H485 H 0.64073 0.97782 0.04562 0.0
C486 C 0.80647 0.14472 0.5068 0.0
C487 C 0.75833 0.12021 0.49087 0.0
C488 C 0.77789 0.03255 0.50454 0.0
C489 C 0.82815 0.05653 0.51273 0.0
N490 N 0.87781 0.13461 0.55324 0.0
N491 N 0.69214 0.04521 0.49479 0.0
C492 C 0.83888 0.11252 0.5239 0.0
C493 C 0.74197 0.06527 0.49614 0.0
N494 N 0.82254 0.19781 0.50323 0.0
N495 N 0.76503 0.97851 0.50481 0.0
H496 H 0.66495 0.06923 0.4917 0.0
H497 H 0.67711 0.00632 0.50149 0.0
H498 H 0.78931 0.9551 0.51704 0.0
H499 H 0.73109 0.95703 0.49289 0.0
H500 H 0.85934 0.2157 0.5093 0.0
H501 H 0.80031 0.22313 0.49081 0.0
H502 H 0.88457 0.1752 0.56595 0.0
H503 H 0.89855 0.11127 0.57067 0.0
C504 C 0.24678 0.62332 0.06939 0.0
C505 C 0.24209 0.66997 0.10287 0.0
C506 C 0.16829 0.6819 0.05999 0.0
C507 C 0.16574 0.62905 0.03692 0.0
N508 N 0.21296 0.56233 0.99825 0.0
N509 N 0.19925 0.7455 0.12922 0.0
C510 C 0.20852 0.60355 0.03468 0.0
C511 C 0.20395 0.70079 0.09698 0.0
N512 N 0.287 0.59767 0.07192 0.0
N513 N 0.13593 0.7132 0.04648 0.0
H514 H 0.22367 0.7602 0.15801 0.0
H515 H 0.16886 0.76592 0.12993 0.0
H516 H 0.11052 0.69936 0.01823 0.0
H517 H 0.13799 0.75368 0.05892 0.0
H518 H 0.2907 0.56084 0.05225 0.0
H519 H 0.31688 0.61317 0.09482 0.0
H520 H 0.24365 0.54225 0.9931 0.0
H521 H 0.18781 0.55213 0.96935 0.0
C522 C 0.24464 0.46575 0.49367 0.0
C523 C 0.22563 0.41135 0.49776 0.0
C524 C 0.31117 0.3914 0.49401 0.0
C525 C 0.32783 0.44625 0.5064 0.0
N526 N 0.31358 0.53776 0.51078 0.0
N527 N 0.24172 0.31952 0.48939 0.0
C528 C 0.2959 0.48437 0.50238 0.0
C529 C 0.25912 0.37301 0.49242 0.0
N530 N 0.21251 0.49939 0.48475 0.0
N531 N 0.34545 0.35731 0.48403 0.0
H532 H 0.20538 0.303 0.48084 0.0
H533 H 0.2637 0.29093 0.49506 0.0
H534 H 0.38389 0.37077 0.48482 0.0
H535 H 0.33638 0.31726 0.47026 0.0
H536 H 0.22386 0.53919 0.47845 0.0
H537 H 0.17465 0.48526 0.47929 0.0
H538 H 0.29082 0.56729 0.51389 0.0
H539 H 0.35115 0.5526 0.51654 0.0
C540 C 0.9198 0.72841 0.97158 0.0
C541 C 0.93131 0.74703 0.92333 0.0
C542 C 0.97883 0.67314 0.8992 0.0
C543 C 0.96196 0.6508 0.9447 0.0
N544 N 0.91212 0.65387 0.02239 0.0
N545 N 0.96543 0.7324 0.83823 0.0
C546 C 0.93139 0.67763 0.98056 0.0
C547 C 0.95933 0.71825 0.88641 0.0
N548 N 0.89996 0.76024 0.00953 0.0
N549 N 0.01481 0.65221 0.86885 0.0
H550 H 0.95106 0.76449 0.82673 0.0
H551 H 0.98062 0.7093 0.80841 0.0
H552 H 0.03069 0.61974 0.8773 0.0
H553 H 0.03252 0.67024 0.83805 0.0
H554 H 0.89545 0.75128 0.04679 0.0
H555 H 0.89242 0.79822 0.0049 0.0
H556 H 0.88513 0.66848 0.04705 0.0
H557 H 0.92041 0.6172 0.03049 0.0
C558 C 0.36223 0.84575 0.175 0.0
C559 C 0.38083 0.79799 0.18077 0.0
C560 C 0.46101 0.83523 0.14346 0.0
C561 C 0.4364 0.87162 0.12238 0.0
N562 N 0.36902 0.92255 0.1272 0.0
N563 N 0.45108 0.74949 0.17643 0.0
C564 C 0.38917 0.88166 0.14247 0.0
C565 C 0.43191 0.79419 0.16874 0.0
N566 N 0.3177 0.85441 0.19833 0.0
N567 N 0.51144 0.83802 0.13537 0.0
H568 H 0.43106 0.71834 0.19478 0.0
H569 H 0.48634 0.74223 0.16266 0.0
H570 H 0.53209 0.86781 0.11541 0.0
H571 H 0.53266 0.81467 0.15212 0.0
H572 H 0.30268 0.88941 0.19763 0.0
H573 H 0.29792 0.82756 0.22193 0.0
H574 H 0.33248 0.92912 0.13606 0.0
H575 H 0.38988 0.94993 0.10506 0.0
C576 C 0.12632 0.24505 0.55201 0.0
C577 C 0.09075 0.27666 0.53998 0.0
C578 C 0.02774 0.19613 0.52832 0.0
C579 C 0.06232 0.16688 0.54554 0.0
N580 N 0.1483 0.15645 0.54819 0.0
N581 N 0.00956 0.28327 0.51173 0.0
C582 C 0.11306 0.1892 0.54817 0.0
C583 C 0.04212 0.25227 0.52551 0.0
N584 N 0.17108 0.26821 0.57162 0.0
N585 N 0.98243 0.16975 0.51342 0.0
H586 H 0.02003 0.32408 0.50875 0.0
H587 H 0.97233 0.26934 0.50407 0.0
H588 H 0.97337 0.12841 0.51307 0.0
H589 H 0.95597 0.18737 0.49745 0.0
H590 H 0.19531 0.24655 0.58632 0.0
H591 H 0.18254 0.3093 0.57747 0.0
H592 H 0.18662 0.17014 0.54573 0.0
H593 H 0.13872 0.11486 0.54489 0.0
C594 C 0.59946 0.30506 0.38355 0.0
C595 C 0.58806 0.26412 0.41595 0.0
C596 C 0.55047 0.32656 0.47751 0.0
C597 C 0.55474 0.36409 0.441 0.0
N598 N 0.56931 0.37866 0.35283 0.0
N599 N 0.5456 0.23326 0.49153 0.0
C600 C 0.57485 0.35013 0.39196 0.0
C601 C 0.56117 0.27392 0.46229 0.0
N602 N 0.63592 0.30253 0.34635 0.0
N603 N 0.53957 0.3416 0.52706 0.0
H604 H 0.55328 0.19455 0.4816 0.0
H605 H 0.52166 0.23713 0.52327 0.0
H606 H 0.53475 0.38039 0.54076 0.0
H607 H 0.5409 0.3169 0.55536 0.0
H608 H 0.64756 0.33348 0.3238 0.0
H609 H 0.65898 0.2732 0.34328 0.0
H610 H 0.58088 0.3671 0.31585 0.0
H611 H 0.54761 0.40927 0.35608 0.0
loop_
_geom_bond_atom_site_label_1
_geom_bond_atom_site_label_2
_geom_bond_distance
_geom_bond_site_symmetry_2
_ccdc_geom_bond_type
H0 C5 0.930 . S
H1 C8 0.930 . S
H2 C10 0.930 . S
H3 C4 1.016 . S
C4 H3 1.016 . S
C4 N11 1.286 . S
C5 H0 0.930 . S
C5 C6 1.397 . S
C5 C7 1.361 . S
C6 C5 1.397 . S
C6 C10 1.390 . S
C7 C5 1.361 . S
C7 C8 1.393 . S
C7 N11 1.413 . S
C8 H1 0.930 . S
C8 C7 1.393 . S
C8 C9 1.399 . S
C9 C8 1.399 . S
C9 C10 1.381 . S
C10 H2 0.930 . S
C10 C6 1.390 . S
C10 C9 1.381 . S
N11 C4 1.286 . S
N11 C7 1.413 . S
H12 C17 0.930 . S
H13 C20 0.930 . S
H14 C22 0.930 . S
H15 C16 1.016 . S
C16 H15 1.016 . S
C16 N23 1.286 . S
C17 H12 0.930 . S
C17 C18 1.397 . S
C17 C19 1.361 . S
C18 C17 1.397 . S
C18 C22 1.390 . S
C19 C17 1.361 . S
C19 C20 1.393 . S
C19 N23 1.413 . S
C20 H13 0.930 . S
C20 C19 1.393 . S
C20 C21 1.399 . S
C21 C20 1.399 . S
C21 C22 1.381 . S
C22 H14 0.930 . S
C22 C18 1.390 . S
C22 C21 1.381 . S
N23 C16 1.286 . S
N23 C19 1.413 . S
H24 C29 0.930 . S
H25 C32 0.930 . S
H26 C34 0.930 . S
H27 C28 1.016 . S
C28 H27 1.016 . S
C28 N35 1.286 . S
C29 H24 0.930 . S
C29 C30 1.397 . S
C29 C31 1.361 . S
C30 C29 1.397 . S
C30 C34 1.390 . S
C31 C29 1.361 . S
C31 C32 1.393 . S
C31 N35 1.413 . S
C32 H25 0.930 . S
C32 C31 1.393 . S
C32 C33 1.399 . S
C33 C32 1.399 . S
C33 C34 1.381 . S
C34 H26 0.930 . S
C34 C30 1.390 . S
C34 C33 1.381 . S
N35 C28 1.286 . S
N35 C31 1.413 . S
H36 C41 0.930 . S
H37 C44 0.930 . S
H38 C46 0.930 . S
H39 C40 1.016 . S
C40 H39 1.016 . S
C40 N47 1.286 . S
C41 H36 0.930 . S
C41 C42 1.397 . S
C41 C43 1.361 . S
C42 C41 1.397 . S
C42 C46 1.390 . S
C43 C41 1.361 . S
C43 C44 1.393 . S
C43 N47 1.413 . S
C44 H37 0.930 . S
C44 C43 1.393 . S
C44 C45 1.399 . S
C45 C44 1.399 . S
C45 C46 1.381 . S
C46 H38 0.930 . S
C46 C42 1.390 . S
C46 C45 1.381 . S
N47 C40 1.286 . S
N47 C43 1.413 . S
H48 C53 0.930 . S
H49 C56 0.930 . S
H50 C58 0.930 . S
H51 C52 1.016 . S
C52 H51 1.016 . S
C52 N59 1.286 . S
C53 H48 0.930 . S
C53 C54 1.397 . S
C53 C55 1.361 . S
C54 C53 1.397 . S
C54 C58 1.390 . S
C55 C53 1.361 . S
C55 C56 1.393 . S
C55 N59 1.413 . S
C56 H49 0.930 . S
C56 C55 1.393 . S
C56 C57 1.399 . S
C57 C56 1.399 . S
C57 C58 1.381 . S
C58 H50 0.930 . S
C58 C54 1.390 . S
C58 C57 1.381 . S
N59 C52 1.286 . S
N59 C55 1.413 . S
H60 C65 0.930 . S
H61 C68 0.930 . S
H62 C70 0.930 . S
H63 C64 1.016 . S
C64 H63 1.016 . S
C64 N71 1.286 . S
C65 H60 0.930 . S
C65 C66 1.397 . S
C65 C67 1.361 . S
C66 C65 1.397 . S
C66 C70 1.390 . S
C67 C65 1.361 . S
C67 C68 1.393 . S
C67 N71 1.413 . S
C68 H61 0.930 . S
C68 C67 1.393 . S
C68 C69 1.399 . S
C69 C68 1.399 . S
C69 C70 1.381 . S
C70 H62 0.930 . S
C70 C66 1.390 . S
C70 C69 1.381 . S
N71 C64 1.286 . S
N71 C67 1.413 . S
H72 C77 0.930 . S
H73 C80 0.930 . S
H74 C82 0.930 . S
H75 C76 1.016 . S
C76 H75 1.016 . S
C76 N83 1.286 . S
C77 H72 0.930 . S
C77 C78 1.397 . S
C77 C79 1.361 . S
C78 C77 1.397 . S
C78 C82 1.390 . S
C79 C77 1.361 . S
C79 C80 1.393 . S
C79 N83 1.413 . S
C80 H73 0.930 . S
C80 C79 1.393 . S
C80 C81 1.399 . S
C81 C80 1.399 . S
C81 C82 1.381 . S
C82 H74 0.930 . S
C82 C78 1.390 . S
C82 C81 1.381 . S
N83 C76 1.286 . S
N83 C79 1.413 . S
H84 C89 0.930 . S
H85 C92 0.930 . S
H86 C94 0.930 . S
H87 C88 1.016 . S
C88 H87 1.016 . S
C88 N95 1.286 . S
C89 H84 0.930 . S
C89 C90 1.397 . S
C89 C91 1.361 . S
C90 C89 1.397 . S
C90 C94 1.390 . S
C91 C89 1.361 . S
C91 C92 1.393 . S
C91 N95 1.413 . S
C92 H85 0.930 . S
C92 C91 1.393 . S
C92 C93 1.399 . S
C93 C92 1.399 . S
C93 C94 1.381 . S
C94 H86 0.930 . S
C94 C90 1.390 . S
C94 C93 1.381 . S
N95 C88 1.286 . S
N95 C91 1.413 . S
O96 Mg97 1.990 . S
O96 C110 1.253 1_445 S
Mg97 O96 1.990 . S
Mg97 O100 2.180 . S
Mg97 O101 2.117 . S
Mg97 O115 2.030 1_545 S
O98 Mg99 2.072 1_665 S
O98 C110 1.260 . S
Mg99 O98 2.072 1_445 S
Mg99 O100 2.099 . S
Mg99 O102 2.079 . S
Mg99 O103 2.072 1_455 S
Mg99 O105 2.099 1_445 S
Mg99 O116 2.079 1_545 S
O100 Mg97 2.180 . S
O100 Mg99 2.099 . S
O100 C111 1.279 . S
O101 Mg97 2.117 . S
O101 C111 1.250 . S
O102 Mg99 2.079 . S
O102 C112 1.264 . S
O103 Mg99 2.072 1_655 S
O103 C113 1.260 . S
Mg104 O105 2.180 . S
Mg104 O106 2.030 1_565 S
Mg104 O107 1.990 . S
Mg104 O108 2.117 . S
O105 Mg99 2.099 1_665 S
O105 Mg104 2.180 . S
O105 C114 1.279 . S
O106 Mg104 2.030 1_545 S
O106 C112 1.248 1_655 S
O107 Mg104 1.990 . S
O107 C113 1.253 1_565 S
O108 Mg104 2.117 . S
O108 C114 1.250 . S
C109 O115 1.248 . S
C109 O116 1.264 . S
C110 O96 1.253 1_665 S
C110 O98 1.260 . S
C111 O100 1.279 . S
C111 O101 1.250 . S
C112 O102 1.264 . S
C112 O106 1.248 1_455 S
C113 O103 1.260 . S
C113 O107 1.253 1_545 S
C114 O105 1.279 . S
C114 O108 1.250 . S
O115 Mg97 2.030 1_565 S
O115 C109 1.248 . S
O116 Mg99 2.079 1_565 S
O116 C109 1.264 . S
O117 Mg118 1.990 . S
O117 C131 1.253 . S
Mg118 O117 1.990 . S
Mg118 O121 2.180 . S
Mg118 O122 2.117 1_554 S
Mg118 O136 2.030 . S
O119 Mg120 2.072 . S
O119 C131 1.260 . S
Mg120 O119 2.072 . S
Mg120 O121 2.099 . S
Mg120 O123 2.079 1_554 S
Mg120 O124 2.072 1_554 S
Mg120 O126 2.099 1_545 S
Mg120 O137 2.079 . S
O121 Mg118 2.180 . S
O121 Mg120 2.099 . S
O121 C132 1.279 1_554 S
O122 Mg118 2.117 1_556 S
O122 C132 1.250 . S
O123 Mg120 2.079 1_556 S
O123 C133 1.264 1_545 S
O124 Mg120 2.072 1_556 S
O124 C134 1.260 1_545 S
Mg125 O126 2.180 1_556 S
Mg125 O127 2.030 . S
Mg125 O128 1.990 . S
Mg125 O129 2.117 1_556 S
O126 Mg120 2.099 1_565 S
O126 Mg125 2.180 1_554 S
O126 C135 1.279 . S
O127 Mg125 2.030 . S
O127 C133 1.248 . S
O128 Mg125 1.990 . S
O128 C134 1.253 . S
O129 Mg125 2.117 1_554 S
O129 C135 1.250 . S
C130 O136 1.248 . S
C130 O137 1.264 . S
C131 O117 1.253 . S
C131 O119 1.260 . S
C132 O121 1.279 1_556 S
C132 O122 1.250 . S
C133 O123 1.264 1_565 S
C133 O127 1.248 . S
C134 O124 1.260 1_565 S
C134 O128 1.253 . S
C135 O126 1.279 . S
C135 O129 1.250 . S
O136 Mg118 2.030 . S
O136 C130 1.248 . S
O137 Mg120 2.079 . S
O137 C130 1.264 . S
O138 Mg139 1.990 . S
O138 C152 1.253 . S
Mg139 O138 1.990 . S
Mg139 O142 2.180 . S
Mg139 O143 2.117 . S
Mg139 O157 2.030 . S
O140 Mg141 2.072 . S
O140 C152 1.260 . S
Mg141 O140 2.072 . S
Mg141 O142 2.099 . S
Mg141 O144 2.079 . S
Mg141 O145 2.072 . S
Mg141 O147 2.099 . S
Mg141 O158 2.079 . S
O142 Mg139 2.180 . S
O142 Mg141 2.099 . S
O142 C153 1.279 . S
O143 Mg139 2.117 . S
O143 C153 1.250 . S
O144 Mg141 2.079 . S
O144 C154 1.264 . S
O145 Mg141 2.072 . S
O145 C155 1.260 . S
Mg146 O147 2.180 . S
Mg146 O148 2.030 . S
Mg146 O149 1.990 . S
Mg146 O150 2.117 . S
O147 Mg141 2.099 . S
O147 Mg146 2.180 . S
O147 C156 1.279 . S
O148 Mg146 2.030 . S
O148 C154 1.248 . S
O149 Mg146 1.990 . S
O149 C155 1.253 . S
O150 Mg146 2.117 . S
O150 C156 1.250 . S
C151 O157 1.248 . S
C151 O158 1.264 . S
C152 O138 1.253 . S
C152 O140 1.260 . S
C153 O142 1.279 . S
C153 O143 1.250 . S
C154 O144 1.264 . S
C154 O148 1.248 . S
C155 O145 1.260 . S
C155 O149 1.253 . S
C156 O147 1.279 . S
C156 O150 1.250 . S
O157 Mg139 2.030 . S
O157 C151 1.248 . S
O158 Mg141 2.079 . S
O158 C151 1.264 . S
O159 Mg160 1.990 . S
O159 C173 1.253 . S
Mg160 O159 1.990 . S
Mg160 O163 2.180 . S
Mg160 O164 2.117 1_455 S
Mg160 O178 2.030 . S
O161 Mg162 2.072 . S
O161 C173 1.260 . S
Mg162 O161 2.072 . S
Mg162 O163 2.099 . S
Mg162 O165 2.079 1_554 S
Mg162 O166 2.072 1_455 S
Mg162 O168 2.099 1_554 S
Mg162 O179 2.079 . S
O163 Mg160 2.180 . S
O163 Mg162 2.099 . S
O163 C174 1.279 1_455 S
O164 Mg160 2.117 1_655 S
O164 C174 1.250 . S
O165 Mg162 2.079 1_556 S
O165 C175 1.264 1_455 S
O166 Mg162 2.072 1_655 S
O166 C176 1.260 1_554 S
Mg167 O168 2.180 1_655 S
Mg167 O169 2.030 . S
Mg167 O170 1.990 . S
Mg167 O171 2.117 1_655 S
O168 Mg162 2.099 1_556 S
O168 Mg167 2.180 1_455 S
O168 C177 1.279 . S
O169 Mg167 2.030 . S
O169 C175 1.248 . S
O170 Mg167 1.990 . S
O170 C176 1.253 . S
O171 Mg167 2.117 1_455 S
O171 C177 1.250 . S
C172 O178 1.248 . S
C172 O179 1.264 . S
C173 O159 1.253 . S
C173 O161 1.260 . S
C174 O163 1.279 1_655 S
C174 O164 1.250 . S
C175 O165 1.264 1_655 S
C175 O169 1.248 . S
C176 O166 1.260 1_556 S
C176 O170 1.253 . S
C177 O168 1.279 . S
C177 O171 1.250 . S
O178 Mg160 2.030 . S
O178 C172 1.248 . S
O179 Mg162 2.079 . S
O179 C172 1.264 . S
C180 C181 1.363 . S
C180 C186 1.379 . S
C180 N188 1.356 . S
C181 C180 1.363 . S
C181 C187 1.363 . S
C182 C183 1.363 . S
C182 C187 1.379 . S
C182 N189 1.356 . S
C183 C182 1.363 . S
C183 C186 1.363 . S
N184 C186 1.356 1_565 S
N184 H196 0.984 1_455 S
N184 H197 0.985 . S
N185 C187 1.356 . S
N185 H190 0.984 . S
N185 H191 0.985 . S
C186 C180 1.379 . S
C186 C183 1.363 . S
C186 N184 1.356 1_545 S
C187 C181 1.363 . S
C187 C182 1.379 . S
C187 N185 1.356 . S
N188 C180 1.356 . S
N188 H194 0.984 1_545 S
N188 H195 0.984 . S
N189 C182 1.356 . S
N189 H192 0.984 . S
N189 H193 0.985 . S
H190 N185 0.984 . S
H191 N185 0.985 . S
H192 N189 0.984 . S
H193 N189 0.985 . S
H194 N188 0.984 1_565 S
H195 N188 0.984 . S
H196 N184 0.984 1_655 S
H197 N184 0.985 . S
C198 C199 1.363 . S
C198 C204 1.379 . S
C198 N206 1.356 . S
C199 C198 1.363 . S
C199 C205 1.363 . S
C200 C201 1.363 . S
C200 C205 1.379 . S
C200 N207 1.356 . S
C201 C200 1.363 . S
C201 C204 1.363 . S
N202 C204 1.356 . S
N202 H214 0.984 . S
N202 H215 0.985 . S
N203 C205 1.356 . S
N203 H208 0.984 . S
N203 H209 0.985 . S
C204 C198 1.379 . S
C204 C201 1.363 . S
C204 N202 1.356 . S
C205 C199 1.363 . S
C205 C200 1.379 . S
C205 N203 1.356 . S
N206 C198 1.356 . S
N206 H212 0.984 . S
N206 H213 0.984 . S
N207 C200 1.356 . S
N207 H210 0.984 1_565 S
N207 H211 0.985 1_565 S
H208 N203 0.984 . S
H209 N203 0.985 . S
H210 N207 0.984 1_545 S
H211 N207 0.985 1_545 S
H212 N206 0.984 . S
H213 N206 0.984 . S
H214 N202 0.984 . S
H215 N202 0.985 . S
C216 C217 1.363 . S
C216 C222 1.379 . S
C216 N224 1.356 . S
C217 C216 1.363 . S
C217 C223 1.363 . S
C218 C219 1.363 . S
C218 C223 1.379 . S
C218 N225 1.356 . S
C219 C218 1.363 . S
C219 C222 1.363 . S
N220 C222 1.356 . S
N220 H232 0.984 . S
N220 H233 0.985 . S
N221 C223 1.356 . S
N221 H226 0.984 . S
N221 H227 0.985 . S
C222 C216 1.379 . S
C222 C219 1.363 . S
C222 N220 1.356 . S
C223 C217 1.363 . S
C223 C218 1.379 . S
C223 N221 1.356 . S
N224 C216 1.356 . S
N224 H230 0.984 . S
N224 H231 0.984 . S
N225 C218 1.356 . S
N225 H228 0.984 . S
N225 H229 0.985 . S
H226 N221 0.984 . S
H227 N221 0.985 . S
H228 N225 0.984 . S
H229 N225 0.985 . S
H230 N224 0.984 . S
H231 N224 0.984 . S
H232 N220 0.984 . S
H233 N220 0.985 . S
C234 C235 1.363 . S
C234 C240 1.379 . S
C234 N242 1.356 . S
C235 C234 1.363 . S
C235 C241 1.363 . S
C236 C237 1.363 . S
C236 C241 1.379 . S
C236 N243 1.356 . S
C237 C236 1.363 . S
C237 C240 1.363 . S
N238 C240 1.356 . S
N238 H250 0.984 . S
N238 H251 0.985 . S
N239 C241 1.356 . S
N239 H244 0.984 . S
N239 H245 0.985 . S
C240 C234 1.379 . S
C240 C237 1.363 . S
C240 N238 1.356 . S
C241 C235 1.363 . S
C241 C236 1.379 . S
C241 N239 1.356 . S
N242 C234 1.356 . S
N242 H248 0.984 . S
N242 H249 0.984 . S
N243 C236 1.356 . S
N243 H246 0.984 . S
N243 H247 0.985 1_655 S
H244 N239 0.984 . S
H245 N239 0.985 . S
H246 N243 0.984 . S
H247 N243 0.985 1_455 S
H248 N242 0.984 . S
H249 N242 0.984 . S
H250 N238 0.984 . S
H251 N238 0.985 . S
C252 C253 1.363 . S
C252 C258 1.379 . S
C252 N260 1.356 . S
C253 C252 1.363 . S
C253 C259 1.363 . S
C254 C255 1.363 . S
C254 C259 1.379 . S
C254 N261 1.356 . S
C255 C254 1.363 . S
C255 C258 1.363 . S
N256 C258 1.356 1_556 S
N256 H268 0.984 . S
N256 H269 0.982 1_556 S
N257 C259 1.356 . S
N257 H262 0.984 . S
N257 H263 0.985 . S
C258 C252 1.379 . S
C258 C255 1.363 . S
C258 N256 1.356 1_554 S
C259 C253 1.363 . S
C259 C254 1.379 . S
C259 N257 1.356 . S
N260 C252 1.356 . S
N260 H266 0.984 1_554 S
N260 H267 0.984 . S
N261 C254 1.356 . S
N261 H264 0.984 . S
N261 H265 0.985 . S
H262 N257 0.984 . S
H263 N257 0.985 . S
H264 N261 0.984 . S
H265 N261 0.985 . S
H266 N260 0.984 1_556 S
H267 N260 0.984 . S
H268 N256 0.984 . S
H269 N256 0.982 1_554 S
C270 C271 1.363 . S
C270 C276 1.379 . S
C270 N278 1.356 . S
C271 C270 1.363 . S
C271 C277 1.363 . S
C272 C273 1.363 . S
C272 C277 1.379 . S
C272 N279 1.356 1_565 S
C273 C272 1.363 . S
C273 C276 1.363 . S
N274 C276 1.356 . S
N274 H286 0.984 . S
N274 H287 0.985 . S
N275 C277 1.356 1_545 S
N275 H280 0.984 1_545 S
N275 H281 0.985 . S
C276 C270 1.379 . S
C276 C273 1.363 . S
C276 N274 1.356 . S
C277 C271 1.363 . S
C277 C272 1.379 . S
C277 N275 1.356 1_565 S
N278 C270 1.356 . S
N278 H284 0.984 . S
N278 H285 0.984 . S
N279 C272 1.356 1_545 S
N279 H282 0.984 . S
N279 H283 0.985 . S
H280 N275 0.984 1_565 S
H281 N275 0.985 . S
H282 N279 0.984 . S
H283 N279 0.985 . S
H284 N278 0.984 . S
H285 N278 0.984 . S
H286 N274 0.984 . S
H287 N274 0.985 . S
C288 C289 1.363 . S
C288 C294 1.379 . S
C288 N296 1.356 . S
C289 C288 1.363 . S
C289 C295 1.363 . S
C290 C291 1.363 . S
C290 C295 1.379 . S
C290 N297 1.356 1_556 S
C291 C290 1.363 . S
C291 C294 1.363 . S
N292 C294 1.356 . S
N292 H304 0.984 . S
N292 H305 0.985 . S
N293 C295 1.356 . S
N293 H298 0.984 . S
N293 H299 0.985 1_556 S
C294 C288 1.379 . S
C294 C291 1.363 . S
C294 N292 1.356 . S
C295 C289 1.363 . S
C295 C290 1.379 . S
C295 N293 1.356 . S
N296 C288 1.356 . S
N296 H302 0.984 . S
N296 H303 0.984 . S
N297 C290 1.356 1_554 S
N297 H300 0.984 . S
N297 H301 0.985 . S
H298 N293 0.984 . S
H299 N293 0.985 1_554 S
H300 N297 0.984 . S
H301 N297 0.985 . S
H302 N296 0.984 . S
H303 N296 0.984 . S
H304 N292 0.984 . S
H305 N292 0.985 . S
C306 C307 1.363 . S
C306 C312 1.379 . S
C306 N314 1.356 . S
C307 C306 1.363 . S
C307 C313 1.363 . S
C308 C309 1.363 . S
C308 C313 1.379 . S
C308 N315 1.356 . S
C309 C308 1.363 . S
C309 C312 1.363 . S
N310 C312 1.356 . S
N310 H322 0.984 . S
N310 H323 0.985 . S
N311 C313 1.356 . S
N311 H316 0.984 . S
N311 H317 0.985 . S
C312 C306 1.379 . S
C312 C309 1.363 . S
C312 N310 1.356 . S
C313 C307 1.363 . S
C313 C308 1.379 . S
C313 N311 1.356 . S
N314 C306 1.356 . S
N314 H320 0.984 . S
N314 H321 0.984 . S
N315 C308 1.356 . S
N315 H318 0.984 . S
N315 H319 0.985 . S
H316 N311 0.984 . S
H317 N311 0.985 . S
H318 N315 0.984 . S
H319 N315 0.985 . S
H320 N314 0.984 . S
H321 N314 0.984 . S
H322 N310 0.984 . S
H323 N310 0.985 . S
C324 C325 1.363 . S
C324 C330 1.379 . S
C324 N332 1.356 . S
C325 C324 1.363 . S
C325 C331 1.363 . S
C326 C327 1.363 . S
C326 C331 1.379 . S
C326 N333 1.356 . S
C327 C326 1.363 . S
C327 C330 1.363 . S
N328 C330 1.356 1_556 S
N328 H340 0.984 . S
N328 H341 0.985 . S
N329 C331 1.356 . S
N329 H334 0.984 . S
N329 H335 0.985 . S
C330 C324 1.379 . S
C330 C327 1.363 . S
C330 N328 1.356 1_554 S
C331 C325 1.363 . S
C331 C326 1.379 . S
C331 N329 1.356 . S
N332 C324 1.356 . S
N332 H338 0.984 1_554 S
N332 H339 0.984 . S
N333 C326 1.356 . S
N333 H336 0.984 . S
N333 H337 0.985 1_455 S
H334 N329 0.984 . S
H335 N329 0.985 . S
H336 N333 0.984 . S
H337 N333 0.985 1_655 S
H338 N332 0.984 1_556 S
H339 N332 0.984 . S
H340 N328 0.984 . S
H341 N328 0.985 . S
C342 C343 1.363 . S
C342 C348 1.379 . S
C342 N350 1.356 . S
C343 C342 1.363 . S
C343 C349 1.363 . S
C344 C345 1.363 . S
C344 C349 1.379 . S
C344 N351 1.356 1_556 S
C345 C344 1.363 . S
C345 C348 1.363 . S
N346 C348 1.356 . S
N346 H358 0.984 . S
N346 H359 0.985 . S
N347 C349 1.356 . S
N347 H352 0.984 . S
N347 H353 0.985 1_556 S
C348 C342 1.379 . S
C348 C345 1.363 . S
C348 N346 1.356 . S
C349 C343 1.363 . S
C349 C344 1.379 . S
C349 N347 1.356 . S
N350 C342 1.356 . S
N350 H356 0.984 . S
N350 H357 0.984 . S
N351 C344 1.356 1_554 S
N351 H354 0.984 . S
N351 H355 0.985 . S
H352 N347 0.984 . S
H353 N347 0.985 1_554 S
H354 N351 0.984 . S
H355 N351 0.985 . S
H356 N350 0.984 . S
H357 N350 0.984 . S
H358 N346 0.984 . S
H359 N346 0.985 . S
C360 C361 1.363 . S
C360 C366 1.379 . S
C360 N368 1.356 . S
C361 C360 1.363 . S
C361 C367 1.363 . S
C362 C363 1.363 . S
C362 C367 1.379 . S
C362 N369 1.356 . S
C363 C362 1.363 . S
C363 C366 1.363 . S
N364 C366 1.356 . S
N364 H376 0.984 1_655 S
N364 H377 0.985 1_655 S
N365 C367 1.356 . S
N365 H370 0.984 . S
N365 H371 0.985 . S
C366 C360 1.379 . S
C366 C363 1.363 . S
C366 N364 1.356 . S
C367 C361 1.363 . S
C367 C362 1.379 . S
C367 N365 1.356 . S
N368 C360 1.356 . S
N368 H374 0.984 . S
N368 H375 0.984 . S
N369 C362 1.356 . S
N369 H372 0.984 . S
N369 H373 0.985 . S
H370 N365 0.984 . S
H371 N365 0.985 . S
H372 N369 0.984 . S
H373 N369 0.985 . S
H374 N368 0.984 . S
H375 N368 0.984 . S
H376 N364 0.984 1_455 S
H377 N364 0.985 1_455 S
C378 C379 1.363 . S
C378 C384 1.379 . S
C378 N386 1.356 . S
C379 C378 1.363 . S
C379 C385 1.363 . S
C380 C381 1.363 . S
C380 C385 1.379 . S
C380 N387 1.356 . S
C381 C380 1.363 . S
C381 C384 1.363 . S
N382 C384 1.356 . S
N382 H394 0.984 . S
N382 H395 0.985 . S
N383 C385 1.356 . S
N383 H388 0.984 . S
N383 H389 0.985 . S
C384 C378 1.379 . S
C384 C381 1.363 . S
C384 N382 1.356 . S
C385 C379 1.363 . S
C385 C380 1.379 . S
C385 N383 1.356 . S
N386 C378 1.356 . S
N386 H392 0.984 . S
N386 H393 0.984 . S
N387 C380 1.356 . S
N387 H390 0.984 . S
N387 H391 0.985 . S
H388 N383 0.984 . S
H389 N383 0.985 . S
H390 N387 0.984 . S
H391 N387 0.985 . S
H392 N386 0.984 . S
H393 N386 0.984 . S
H394 N382 0.984 . S
H395 N382 0.985 . S
C396 C397 1.363 . S
C396 C402 1.379 . S
C396 N404 1.356 . S
C397 C396 1.363 . S
C397 C403 1.363 . S
C398 C399 1.363 . S
C398 C403 1.379 . S
C398 N405 1.356 1_565 S
C399 C398 1.363 . S
C399 C402 1.363 . S
N400 C402 1.356 . S
N400 H412 0.984 1_655 S
N400 H413 0.985 . S
N401 C403 1.356 1_545 S
N401 H406 0.980 1_545 S
N401 H407 0.985 . S
C402 C396 1.379 . S
C402 C399 1.363 . S
C402 N400 1.356 . S
C403 C397 1.363 . S
C403 C398 1.379 . S
C403 N401 1.356 1_565 S
N404 C396 1.356 . S
N404 H410 0.984 . S
N404 H411 0.984 . S
N405 C398 1.356 1_545 S
N405 H408 0.984 . S
N405 H409 0.985 . S
H406 N401 0.980 1_565 S
H407 N401 0.985 . S
H408 N405 0.984 . S
H409 N405 0.985 . S
H410 N404 0.984 . S
H411 N404 0.984 . S
H412 N400 0.984 1_455 S
H413 N400 0.985 . S
C414 C415 1.363 . S
C414 C420 1.379 . S
C414 N422 1.356 . S
C415 C414 1.363 . S
C415 C421 1.363 . S
C416 C417 1.363 . S
C416 C421 1.379 . S
C416 N423 1.356 . S
C417 C416 1.363 . S
C417 C420 1.363 . S
N418 C420 1.356 . S
N418 H430 0.984 . S
N418 H431 0.985 . S
N419 C421 1.356 . S
N419 H424 0.984 . S
N419 H425 0.985 . S
C420 C414 1.379 . S
C420 C417 1.363 . S
C420 N418 1.356 . S
C421 C415 1.363 . S
C421 C416 1.379 . S
C421 N419 1.356 . S
N422 C414 1.356 . S
N422 H428 0.984 . S
N422 H429 0.984 . S
N423 C416 1.356 . S
N423 H426 0.984 . S
N423 H427 0.985 1_545 S
H424 N419 0.984 . S
H425 N419 0.985 . S
H426 N423 0.984 . S
H427 N423 0.985 1_565 S
H428 N422 0.984 . S
H429 N422 0.984 . S
H430 N418 0.984 . S
H431 N418 0.985 . S
C432 C433 1.363 . S
C432 C438 1.379 . S
C432 N440 1.356 . S
C433 C432 1.363 . S
C433 C439 1.363 . S
C434 C435 1.363 . S
C434 C439 1.379 . S
C434 N441 1.356 . S
C435 C434 1.363 . S
C435 C438 1.363 . S
N436 C438 1.356 . S
N436 H448 0.984 . S
N436 H449 0.985 . S
N437 C439 1.356 . S
N437 H442 0.984 . S
N437 H443 0.985 . S
C438 C432 1.379 . S
C438 C435 1.363 . S
C438 N436 1.356 . S
C439 C433 1.363 . S
C439 C434 1.379 . S
C439 N437 1.356 . S
N440 C432 1.356 . S
N440 H446 0.984 . S
N440 H447 0.984 . S
N441 C434 1.356 . S
N441 H444 0.984 . S
N441 H445 0.985 . S
H442 N437 0.984 . S
H443 N437 0.985 . S
H444 N441 0.984 . S
H445 N441 0.985 . S
H446 N440 0.984 . S
H447 N440 0.984 . S
H448 N436 0.984 . S
H449 N436 0.985 . S
C450 C451 1.363 . S
C450 C456 1.379 . S
C450 N458 1.356 . S
C451 C450 1.363 . S
C451 C457 1.363 . S
C452 C453 1.363 . S
C452 C457 1.379 . S
C452 N459 1.356 . S
C453 C452 1.363 . S
C453 C456 1.363 . S
N454 C456 1.356 . S
N454 H466 0.984 1_455 S
N454 H467 0.985 . S
N455 C457 1.356 . S
N455 H460 0.984 . S
N455 H461 0.985 . S
C456 C450 1.379 . S
C456 C453 1.363 . S
C456 N454 1.356 . S
C457 C451 1.363 . S
C457 C452 1.379 . S
C457 N455 1.356 . S
N458 C450 1.356 . S
N458 H464 0.984 1_455 S
N458 H465 0.984 . S
N459 C452 1.356 . S
N459 H462 0.984 . S
N459 H463 0.985 . S
H460 N455 0.984 . S
H461 N455 0.985 . S
H462 N459 0.984 . S
H463 N459 0.985 . S
H464 N458 0.984 1_655 S
H465 N458 0.984 . S
H466 N454 0.984 1_655 S
H467 N454 0.985 . S
C468 C469 1.363 . S
C468 C474 1.379 . S
C468 N476 1.356 . S
C469 C468 1.363 . S
C469 C475 1.363 . S
C470 C471 1.363 . S
C470 C475 1.379 . S
C470 N477 1.356 . S
C471 C470 1.363 . S
C471 C474 1.363 . S
N472 C474 1.356 1_544 S
N472 H484 0.984 . S
N472 H485 0.985 . S
N473 C475 1.356 . S
N473 H478 0.984 . S
N473 H479 0.985 . S
C474 C468 1.379 . S
C474 C471 1.363 . S
C474 N472 1.356 1_566 S
C475 C469 1.363 . S
C475 C470 1.379 . S
C475 N473 1.356 . S
N476 C468 1.356 . S
N476 H482 0.984 1_566 S
N476 H483 0.984 . S
N477 C470 1.356 . S
N477 H480 0.984 . S
N477 H481 0.985 . S
H478 N473 0.984 . S
H479 N473 0.985 . S
H480 N477 0.984 . S
H481 N477 0.985 . S
H482 N476 0.984 1_544 S
H483 N476 0.984 . S
H484 N472 0.984 . S
H485 N472 0.985 . S
C486 C487 1.363 . S
C486 C492 1.379 . S
C486 N494 1.356 . S
C487 C486 1.363 . S
C487 C493 1.363 . S
C488 C489 1.363 . S
C488 C493 1.379 . S
C488 N495 1.356 1_545 S
C489 C488 1.363 . S
C489 C492 1.363 . S
N490 C492 1.356 . S
N490 H502 0.984 . S
N490 H503 0.985 . S
N491 C493 1.356 . S
N491 H496 0.984 . S
N491 H497 0.985 1_545 S
C492 C486 1.379 . S
C492 C489 1.363 . S
C492 N490 1.356 . S
C493 C487 1.363 . S
C493 C488 1.379 . S
C493 N491 1.356 . S
N494 C486 1.356 . S
N494 H500 0.984 . S
N494 H501 0.984 . S
N495 C488 1.356 1_565 S
N495 H498 0.984 . S
N495 H499 0.985 . S
H496 N491 0.984 . S
H497 N491 0.985 1_565 S
H498 N495 0.984 . S
H499 N495 0.985 . S
H500 N494 0.984 . S
H501 N494 0.984 . S
H502 N490 0.984 . S
H503 N490 0.985 . S
C504 C505 1.363 . S
C504 C510 1.379 . S
C504 N512 1.356 . S
C505 C504 1.363 . S
C505 C511 1.363 . S
C506 C507 1.363 . S
C506 C511 1.379 . S
C506 N513 1.356 . S
C507 C506 1.363 . S
C507 C510 1.363 . S
N508 C510 1.356 1_556 S
N508 H520 0.984 . S
N508 H521 0.985 . S
N509 C511 1.356 . S
N509 H514 0.984 . S
N509 H515 0.985 . S
C510 C504 1.379 . S
C510 C507 1.363 . S
C510 N508 1.356 1_554 S
C511 C505 1.363 . S
C511 C506 1.379 . S
C511 N509 1.356 . S
N512 C504 1.356 . S
N512 H518 0.984 . S
N512 H519 0.984 . S
N513 C506 1.356 . S
N513 H516 0.984 . S
N513 H517 0.985 . S
H514 N509 0.984 . S
H515 N509 0.985 . S
H516 N513 0.984 . S
H517 N513 0.985 . S
H518 N512 0.984 . S
H519 N512 0.984 . S
H520 N508 0.984 . S
H521 N508 0.985 . S
C522 C523 1.363 . S
C522 C528 1.379 . S
C522 N530 1.356 . S
C523 C522 1.363 . S
C523 C529 1.363 . S
C524 C525 1.363 . S
C524 C529 1.379 . S
C524 N531 1.356 . S
C525 C524 1.363 . S
C525 C528 1.363 . S
N526 C528 1.356 . S
N526 H538 0.984 . S
N526 H539 0.985 . S
N527 C529 1.356 . S
N527 H532 0.984 . S
N527 H533 0.985 . S
C528 C522 1.379 . S
C528 C525 1.363 . S
C528 N526 1.356 . S
C529 C523 1.363 . S
C529 C524 1.379 . S
C529 N527 1.356 . S
N530 C522 1.356 . S
N530 H536 0.984 . S
N530 H537 0.984 . S
N531 C524 1.356 . S
N531 H534 0.984 . S
N531 H535 0.985 . S
H532 N527 0.984 . S
H533 N527 0.985 . S
H534 N531 0.984 . S
H535 N531 0.985 . S
H536 N530 0.984 . S
H537 N530 0.984 . S
H538 N526 0.984 . S
H539 N526 0.985 . S
C540 C541 1.363 . S
C540 C546 1.379 . S
C540 N548 1.356 1_556 S
C541 C540 1.363 . S
C541 C547 1.363 . S
C542 C543 1.363 . S
C542 C547 1.379 . S
C542 N549 1.356 . S
C543 C542 1.363 . S
C543 C546 1.363 . S
N544 C546 1.356 1_454 S
N544 H556 0.984 . S
N544 H557 0.985 . S
N545 C547 1.356 . S
N545 H550 0.984 . S
N545 H551 0.985 . S
C546 C540 1.379 . S
C546 C543 1.363 . S
C546 N544 1.356 1_656 S
C547 C541 1.363 . S
C547 C542 1.379 . S
C547 N545 1.356 . S
N548 C540 1.356 1_554 S
N548 H554 0.984 . S
N548 H555 0.984 1_554 S
N549 C542 1.356 . S
N549 H552 0.984 . S
N549 H553 0.985 . S
H550 N545 0.984 . S
H551 N545 0.985 . S
H552 N549 0.984 . S
H553 N549 0.985 . S
H554 N548 0.984 . S
H555 N548 0.984 1_556 S
H556 N544 0.984 . S
H557 N544 0.985 . S
C558 C559 1.363 . S
C558 C564 1.379 . S
C558 N566 1.356 . S
C559 C558 1.363 . S
C559 C565 1.363 . S
C560 C561 1.363 . S
C560 C565 1.379 . S
C560 N567 1.356 1_554 S
C561 C560 1.363 . S
C561 C564 1.363 . S
N562 C564 1.356 . S
N562 H574 0.984 . S
N562 H575 0.985 . S
N563 C565 1.356 . S
N563 H568 0.984 . S
N563 H569 0.985 1_554 S
C564 C558 1.379 . S
C564 C561 1.363 . S
C564 N562 1.356 . S
C565 C559 1.363 . S
C565 C560 1.379 . S
C565 N563 1.356 . S
N566 C558 1.356 . S
N566 H572 0.984 . S
N566 H573 0.984 . S
N567 C560 1.356 1_556 S
N567 H570 0.984 . S
N567 H571 0.985 . S
H568 N563 0.984 . S
H569 N563 0.985 1_556 S
H570 N567 0.984 . S
H571 N567 0.985 . S
H572 N566 0.984 . S
H573 N566 0.984 . S
H574 N562 0.984 . S
H575 N562 0.985 . S
C576 C577 1.363 . S
C576 C582 1.379 . S
C576 N584 1.356 . S
C577 C576 1.363 . S
C577 C583 1.363 . S
C578 C579 1.363 . S
C578 C583 1.379 . S
C578 N585 1.356 1_455 S
C579 C578 1.363 . S
C579 C582 1.363 . S
N580 C582 1.356 . S
N580 H592 0.984 . S
N580 H593 0.985 . S
N581 C583 1.356 . S
N581 H586 0.984 . S
N581 H587 0.985 . S
C582 C576 1.379 . S
C582 C579 1.363 . S
C582 N580 1.356 . S
C583 C577 1.363 . S
C583 C578 1.379 . S
C583 N581 1.356 . S
N584 C576 1.356 . S
N584 H590 0.984 . S
N584 H591 0.984 . S
N585 C578 1.356 1_655 S
N585 H588 0.984 . S
N585 H589 0.985 . S
H586 N581 0.984 . S
H587 N581 0.985 . S
H588 N585 0.984 . S
H589 N585 0.985 . S
H590 N584 0.984 . S
H591 N584 0.984 . S
H592 N580 0.984 . S
H593 N580 0.985 . S
C594 C595 1.363 . S
C594 C600 1.379 . S
C594 N602 1.356 . S
C595 C594 1.363 . S
C595 C601 1.363 . S
C596 C597 1.363 . S
C596 C601 1.379 . S
C596 N603 1.356 . S
C597 C596 1.363 . S
C597 C600 1.363 . S
N598 C600 1.356 . S
N598 H610 0.984 . S
N598 H611 0.985 . S
N599 C601 1.356 . S
N599 H604 0.984 . S
N599 H605 0.985 . S
C600 C594 1.379 . S
C600 C597 1.363 . S
C600 N598 1.356 . S
C601 C595 1.363 . S
C601 C596 1.379 . S
C601 N599 1.356 . S
N602 C594 1.356 . S
N602 H608 0.984 . S
N602 H609 0.984 . S
N603 C596 1.356 . S
N603 H606 0.984 . S
N603 H607 0.985 . S
H604 N599 0.984 . S
H605 N599 0.985 . S
H606 N603 0.984 . S
H607 N603 0.985 . S
H608 N602 0.984 . S
H609 N602 0.984 . S
H610 N598 0.984 . S
H611 N598 0.985 . S
C181 C6 1.708 . S
C183 C112 1.652 . S
C199 C18 1.697 . S
C201 C134 1.640 . S
C219 C153 1.274 . S
C217 C28 1.523 . S
C235 C40 1.380 . S
C237 C174 1.078 . S
C255 C131 1.858 . S
C253 C9 1.915 . S
C273 C109 1.576 . S
C271 C16 1.621 . S
C291 C176 1.372 . S
C289 C30 1.443 . S
C309 C155 1.223 . S
C307 C42 1.254 . S
C325 C4 1.621 . S
C327 C173 1.575 . S
C345 C132 1.337 . S
C343 C33 1.645 . S
C361 C45 1.463 . S
C363 C114 1.303 . S
C379 C21 1.680 . S
C381 C152 1.659 . S
C399 C110 1.668 . S
C397 C57 1.782 . S
C415 C66 1.583 . S
C417 C130 1.540 . S
C433 C76 1.579 . S
C435 C156 1.318 . S
C451 C88 1.274 . S
C453 C177 0.988 . S
C469 C54 1.824 . S
C471 C133 1.784 . S
C489 C113 1.667 . S
C487 C64 1.708 . S
C507 C172 1.231 . S
C505 C78 1.292 . S
C525 C151 1.309 . S
C523 C93 1.336 . S
C541 C52 1.460 . S
C543 C175 1.419 . S
C561 C135 1.319 . S
C559 C81 1.574 . S
C579 C111 1.214 . S
C577 C90 1.350 . S
C595 C69 1.648 . S
C597 C154 1.620 . S
