# Generated by pormake.
# Topology the, (3,8)-cn, num edge types: 1
# Building blocks:
#     Node 0, Type 0, BuildingBlock: VETTIZ_charged_linker_0, # of connection points: 3
#     Node 1, Type 0, BuildingBlock: VETTIZ_charged_linker_0, # of connection points: 3
#     Node 2, Type 0, BuildingBlock: VETTIZ_charged_linker_0, # of connection points: 3
#     Node 3, Type 0, BuildingBlock: VETTIZ_charged_linker_0, # of connection points: 3
#     Node 4, Type 0, BuildingBlock: VETTIZ_charged_linker_0, # of connection points: 3
#     Node 5, Type 0, BuildingBlock: VETTIZ_charged_linker_0, # of connection points: 3
#     Node 6, Type 0, BuildingBlock: VETTIZ_charged_linker_0, # of connection points: 3
#     Node 7, Type 0, BuildingBlock: VETTIZ_charged_linker_0, # of connection points: 3
#     Node 8, Type 1, BuildingBlock: GIZVER_clean_sbu_0, # of connection points: 8
#     Node 9, Type 1, BuildingBlock: GIZVER_clean_sbu_0, # of connection points: 8
#     Node 10, Type 1, BuildingBlock: GIZVER_clean_sbu_0, # of connection points: 8
#     Edge 11, Type (0, 1), BuildingBlock: TEMPAE_clean_linker_10, # of connection points: 2
#     Edge 12, Type (0, 1), BuildingBlock: TEMPAE_clean_linker_10, # of connection points: 2
#     Edge 13, Type (0, 1), BuildingBlock: TEMPAE_clean_linker_10, # of connection points: 2
#     Edge 14, Type (0, 1), BuildingBlock: TEMPAE_clean_linker_10, # of connection points: 2
#     Edge 15, Type (0, 1), BuildingBlock: TEMPAE_clean_linker_10, # of connection points: 2
#     Edge 16, Type (0, 1), BuildingBlock: TEMPAE_clean_linker_10, # of connection points: 2
#     Edge 17, Type (0, 1), BuildingBlock: TEMPAE_clean_linker_10, # of connection points: 2
#     Edge 18, Type (0, 1), BuildingBlock: TEMPAE_clean_linker_10, # of connection points: 2
#     Edge 19, Type (0, 1), BuildingBlock: TEMPAE_clean_linker_10, # of connection points: 2
#     Edge 20, Type (0, 1), BuildingBlock: TEMPAE_clean_linker_10, # of connection points: 2
#     Edge 21, Type (0, 1), BuildingBlock: TEMPAE_clean_linker_10, # of connection points: 2
#     Edge 22, Type (0, 1), BuildingBlock: TEMPAE_clean_linker_10, # of connection points: 2
#     Edge 23, Type (0, 1), BuildingBlock: TEMPAE_clean_linker_10, # of connection points: 2
#     Edge 24, Type (0, 1), BuildingBlock: TEMPAE_clean_linker_10, # of connection points: 2
#     Edge 25, Type (0, 1), BuildingBlock: TEMPAE_clean_linker_10, # of connection points: 2
#     Edge 26, Type (0, 1), BuildingBlock: TEMPAE_clean_linker_10, # of connection points: 2
#     Edge 27, Type (0, 1), BuildingBlock: TEMPAE_clean_linker_10, # of connection points: 2
#     Edge 28, Type (0, 1), BuildingBlock: TEMPAE_clean_linker_10, # of connection points: 2
#     Edge 29, Type (0, 1), BuildingBlock: TEMPAE_clean_linker_10, # of connection points: 2
#     Edge 30, Type (0, 1), BuildingBlock: TEMPAE_clean_linker_10, # of connection points: 2
#     Edge 31, Type (0, 1), BuildingBlock: TEMPAE_clean_linker_10, # of connection points: 2
#     Edge 32, Type (0, 1), BuildingBlock: TEMPAE_clean_linker_10, # of connection points: 2
#     Edge 33, Type (0, 1), BuildingBlock: TEMPAE_clean_linker_10, # of connection points: 2
#     Edge 34, Type (0, 1), BuildingBlock: TEMPAE_clean_linker_10, # of connection points: 2
# Relax obj value: 0.046
# Max RMSD: 0.138
# Mean RMSD: 0.068
data_MOF--net-the--node1-GIZVER_clean_sbu_0--node2-VETTIZ_charged_linker_0--edge1-TEMPAE_clean_linker_10
_symmetry_space_group_name_H-M    P1
_symmetry_Int_Tables_number       1
_symmetry_cell_setting            triclinic
loop_
_symmetry_equiv_pos_as_xyz
'x, y, z'
_cell_length_a     50.32621
_cell_length_b     47.587387
_cell_length_c     44.217773
_cell_angle_alpha  86.744186
_cell_angle_beta   94.285056
_cell_angle_gamma 101.38775
loop_
_atom_site_label
_atom_site_type_symbol
_atom_site_fract_x
_atom_site_fract_y
_atom_site_fract_z
_atom_type_partial_charge
C0 C 0.34124 0.2499 0.42165 0.0
C1 C 0.36103 0.23964 0.40704 0.0
C2 C 0.37057 0.25341 0.37982 0.0
C3 C 0.34036 0.28684 0.38166 0.0
C4 C 0.33102 0.27333 0.40842 0.0
C5 C 0.30891 0.28622 0.41995 0.0
H6 H 0.21978 0.37452 0.39164 0.0
C7 C 0.32532 0.31003 0.37357 0.0
C8 C 0.30676 0.30978 0.39577 0.0
H9 H 0.22841 0.31985 0.4722 0.0
H10 H 0.26692 0.30594 0.45226 0.0
H11 H 0.23688 0.33712 0.33936 0.0
H12 H 0.27921 0.40317 0.39725 0.0
H13 H 0.29924 0.40544 0.366 0.0
H14 H 0.26496 0.4119 0.36043 0.0
H15 H 0.23129 0.37333 0.33878 0.0
H16 H 0.25732 0.36442 0.31769 0.0
C17 C 0.28277 0.26276 0.42015 0.0
C18 C 0.31885 0.2985 0.45142 0.0
C19 C 0.34707 0.37347 0.27925 0.0
C20 C 0.33874 0.39872 0.26747 0.0
C21 C 0.3183 0.40851 0.28175 0.0
C22 C 0.30661 0.39356 0.30722 0.0
C23 C 0.31576 0.36888 0.31901 0.0
C24 C 0.33591 0.35948 0.30527 0.0
C25 C 0.3447 0.33426 0.32223 0.0
C26 C 0.32664 0.33027 0.34868 0.0
C27 C 0.30932 0.3501 0.34622 0.0
C28 C 0.33797 0.30836 0.30133 0.0
C29 C 0.37521 0.34318 0.33266 0.0
C30 C 0.22991 0.35983 0.40548 0.0
C31 C 0.22044 0.34813 0.43355 0.0
C32 C 0.23452 0.32871 0.45014 0.0
C33 C 0.25712 0.32082 0.43867 0.0
C34 C 0.26607 0.33278 0.41057 0.0
C35 C 0.25299 0.35261 0.39501 0.0
C36 C 0.26717 0.36594 0.36752 0.0
C37 C 0.2898 0.34916 0.36785 0.0
C38 C 0.28883 0.32947 0.39282 0.0
C39 C 0.24719 0.36007 0.33922 0.0
C40 C 0.27813 0.39829 0.37282 0.0
H41 H 0.36843 0.28646 0.34629 0.0
H42 H 0.33342 0.23944 0.44246 0.0
H43 H 0.34126 0.30611 0.45307 0.0
H44 H 0.31044 0.31757 0.45574 0.0
H45 H 0.31376 0.28199 0.46997 0.0
H46 H 0.27992 0.25077 0.39889 0.0
H47 H 0.28392 0.24707 0.43955 0.0
H48 H 0.26413 0.27141 0.42119 0.0
H49 H 0.36219 0.36469 0.26874 0.0
H50 H 0.31163 0.42804 0.2737 0.0
H51 H 0.29107 0.40196 0.31691 0.0
H52 H 0.3189 0.30876 0.28698 0.0
H53 H 0.35445 0.30868 0.28588 0.0
H54 H 0.33415 0.28747 0.31407 0.0
H55 H 0.38044 0.36631 0.33785 0.0
H56 H 0.38086 0.33186 0.35394 0.0
H57 H 0.38841 0.33969 0.31475 0.0
H58 H 0.386 0.2459 0.36839 0.0
C59 C 0.3604 0.27698 0.36709 0.0
C60 C 0.65222 0.22943 0.3544 0.0
C61 C 0.62548 0.2165 0.34501 0.0
C62 C 0.61158 0.22974 0.32125 0.0
C63 C 0.65055 0.26858 0.31688 0.0
C64 C 0.6642 0.25564 0.3403 0.0
C65 C 0.69177 0.2735 0.34862 0.0
H66 H 0.78212 0.39889 0.33341 0.0
C67 C 0.66814 0.29609 0.30783 0.0
C68 C 0.69222 0.29934 0.32654 0.0
H69 H 0.79023 0.32427 0.39158 0.0
H70 H 0.74711 0.29921 0.37112 0.0
H71 H 0.71811 0.39674 0.33843 0.0
H72 H 0.75958 0.35978 0.27325 0.0
H73 H 0.73421 0.37589 0.25394 0.0
H74 H 0.76204 0.39784 0.27487 0.0
H75 H 0.73918 0.41847 0.31148 0.0
H76 H 0.70411 0.40328 0.30157 0.0
C77 C 0.69214 0.28181 0.38203 0.0
C78 C 0.71366 0.25613 0.34245 0.0
C79 C 0.63525 0.35672 0.22017 0.0
C80 C 0.64552 0.38395 0.20717 0.0
C81 C 0.67015 0.39982 0.21976 0.0
C82 C 0.68457 0.38838 0.24447 0.0
C83 C 0.67413 0.36088 0.25699 0.0
C84 C 0.64963 0.34579 0.24497 0.0
C85 C 0.64054 0.31774 0.262 0.0
C86 C 0.66418 0.3177 0.28539 0.0
C87 C 0.68394 0.34295 0.28247 0.0
C88 C 0.61383 0.31905 0.27688 0.0
C89 C 0.63799 0.29333 0.23961 0.0
C90 C 0.77485 0.37707 0.34163 0.0
C91 C 0.78975 0.36403 0.3649 0.0
C92 C 0.7791 0.33547 0.37459 0.0
C93 C 0.754 0.32073 0.36246 0.0
C94 C 0.73913 0.33434 0.34002 0.0
C95 C 0.74988 0.36179 0.32939 0.0
C96 C 0.73181 0.37208 0.30406 0.0
C97 C 0.70817 0.34661 0.30194 0.0
C98 C 0.71248 0.32469 0.32342 0.0
C99 C 0.72285 0.3992 0.31413 0.0
C100 C 0.74762 0.3769 0.27491 0.0
H101 H 0.61233 0.26437 0.28896 0.0
H102 H 0.6632 0.21978 0.37287 0.0
H103 H 0.70681 0.2418 0.32319 0.0
H104 H 0.73275 0.26996 0.3355 0.0
H105 H 0.71817 0.24244 0.36262 0.0
H106 H 0.67262 0.28793 0.38656 0.0
H107 H 0.69495 0.26354 0.39793 0.0
H108 H 0.70798 0.30059 0.38787 0.0
H109 H 0.61602 0.34433 0.21155 0.0
H110 H 0.67838 0.42095 0.21024 0.0
H111 H 0.70323 0.40142 0.25297 0.0
H112 H 0.61189 0.34155 0.28022 0.0
H113 H 0.5957 0.30901 0.26263 0.0
H114 H 0.61296 0.30874 0.29996 0.0
H115 H 0.65541 0.29741 0.22482 0.0
H116 H 0.63837 0.27219 0.25108 0.0
H117 H 0.61904 0.29172 0.22467 0.0
H118 H 0.59101 0.22004 0.31369 0.0
C119 C 0.62401 0.25553 0.307 0.0
C120 C 0.78666 0.69732 0.3677 0.0
C121 C 0.79912 0.6762 0.35667 0.0
C122 C 0.78702 0.66173 0.33062 0.0
C123 C 0.75102 0.68917 0.32699 0.0
C124 C 0.7628 0.70356 0.35241 0.0
C125 C 0.74696 0.7255 0.36074 0.0
H126 H 0.64388 0.79707 0.32554 0.0
C127 C 0.72655 0.7007 0.31625 0.0
C128 C 0.72419 0.7223 0.33572 0.0
H129 H 0.69938 0.80397 0.40583 0.0
H130 H 0.72131 0.76849 0.38746 0.0
H131 H 0.63141 0.72893 0.33134 0.0
H132 H 0.68536 0.78843 0.276 0.0
H133 H 0.66873 0.76028 0.25317 0.0
H134 H 0.64906 0.78259 0.26972 0.0
H135 H 0.61918 0.74808 0.2988 0.0
H136 H 0.62958 0.71427 0.29559 0.0
C137 C 0.73605 0.71669 0.39246 0.0
C138 C 0.76573 0.75542 0.35894 0.0
C139 C 0.66636 0.65689 0.22635 0.0
C140 C 0.64279 0.66342 0.21053 0.0
C141 C 0.63319 0.68772 0.21879 0.0
C142 C 0.64611 0.70444 0.24278 0.0
C143 C 0.66906 0.69704 0.2589 0.0
C144 C 0.67914 0.67397 0.25017 0.0
C145 C 0.70444 0.67007 0.26905 0.0
C146 C 0.70714 0.6938 0.29138 0.0
C147 C 0.68626 0.70944 0.28544 0.0
C148 C 0.69886 0.63995 0.2852 0.0
C149 C 0.72841 0.67511 0.24799 0.0
C150 C 0.66057 0.79101 0.33953 0.0
C151 C 0.66984 0.8042 0.36722 0.0
C152 C 0.69202 0.79526 0.38403 0.0
C153 C 0.70466 0.7742 0.37351 0.0
C154 C 0.6949 0.76122 0.34606 0.0
C155 C 0.67293 0.76939 0.32983 0.0
C156 C 0.66372 0.75151 0.30257 0.0
C157 C 0.68415 0.73172 0.30475 0.0
C158 C 0.70268 0.73779 0.33005 0.0
C159 C 0.6344 0.73488 0.30695 0.0
C160 C 0.66661 0.7716 0.27372 0.0
H161 H 0.75499 0.65604 0.29632 0.0
H162 H 0.79538 0.70888 0.38761 0.0
H163 H 0.77704 0.75809 0.33796 0.0
H164 H 0.75454 0.77321 0.35785 0.0
H165 H 0.78086 0.75821 0.37869 0.0
H166 H 0.73221 0.69298 0.39648 0.0
H167 H 0.7508 0.72621 0.41082 0.0
H168 H 0.71622 0.72268 0.39495 0.0
H169 H 0.67444 0.63848 0.22084 0.0
H170 H 0.61563 0.69393 0.20662 0.0
H171 H 0.63763 0.72246 0.24794 0.0
H172 H 0.6783 0.63536 0.29419 0.0
H173 H 0.69972 0.62298 0.26925 0.0
H174 H 0.71309 0.63782 0.30503 0.0
H175 H 0.7248 0.68947 0.22798 0.0
H176 H 0.74767 0.68618 0.25931 0.0
H177 H 0.73145 0.65461 0.23928 0.0
H178 H 0.79574 0.64498 0.32194 0.0
C179 C 0.76317 0.66805 0.31581 0.0
C180 C 0.3663 0.77426 0.35259 0.0
C181 C 0.35899 0.78666 0.37826 0.0
C182 C 0.33483 0.77328 0.39174 0.0
C183 C 0.32579 0.73669 0.35422 0.0
C184 C 0.34962 0.74932 0.34119 0.0
C185 C 0.35501 0.7328 0.31493 0.0
H186 H 0.31622 0.61801 0.22587 0.0
C187 C 0.31303 0.71115 0.3369 0.0
C188 C 0.33015 0.70868 0.31385 0.0
H189 H 0.38996 0.68236 0.22369 0.0
H190 H 0.37502 0.70729 0.26336 0.0
H191 H 0.3153 0.61146 0.29932 0.0
H192 H 0.27691 0.6605 0.23079 0.0
H193 H 0.25394 0.65173 0.25939 0.0
H194 H 0.26318 0.62342 0.23929 0.0
H195 H 0.2894 0.59588 0.27169 0.0
H196 H 0.28093 0.60768 0.30704 0.0
C197 C 0.38155 0.72142 0.32321 0.0
C198 C 0.35585 0.75269 0.28595 0.0
C199 C 0.22194 0.6512 0.36575 0.0
C200 C 0.20456 0.62751 0.35257 0.0
C201 C 0.21221 0.61639 0.3264 0.0
C202 C 0.23685 0.6283 0.31374 0.0
C203 C 0.25413 0.65179 0.32721 0.0
C204 C 0.2464 0.66317 0.3525 0.0
C205 C 0.26686 0.68903 0.36276 0.0
C206 C 0.28822 0.69103 0.33969 0.0
C207 C 0.28076 0.6689 0.3192 0.0
C208 C 0.27814 0.68223 0.39534 0.0
C209 C 0.25274 0.71527 0.35986 0.0
C210 C 0.32926 0.63736 0.23404 0.0
C211 C 0.3544 0.64806 0.22159 0.0
C212 C 0.3704 0.67371 0.23259 0.0
C213 C 0.3618 0.68804 0.25588 0.0
C214 C 0.33691 0.67668 0.26853 0.0
C215 C 0.321 0.65189 0.25732 0.0
C216 C 0.29506 0.64297 0.27318 0.0
C217 C 0.29831 0.666 0.29633 0.0
C218 C 0.32286 0.68576 0.29358 0.0
C219 C 0.29487 0.61285 0.28855 0.0
C220 C 0.2709 0.64448 0.24958 0.0
H221 H 0.30025 0.73962 0.39129 0.0
H222 H 0.38455 0.78375 0.3414 0.0
H223 H 0.33969 0.76569 0.28539 0.0
H224 H 0.35196 0.74078 0.26487 0.0
H225 H 0.37571 0.76777 0.28513 0.0
H226 H 0.38356 0.71564 0.3479 0.0
H227 H 0.39968 0.73787 0.31772 0.0
H228 H 0.38215 0.7015 0.31188 0.0
H229 H 0.21644 0.66039 0.38569 0.0
H230 H 0.19927 0.59804 0.316 0.0
H231 H 0.24155 0.61859 0.29402 0.0
H232 H 0.28007 0.65932 0.39823 0.0
H233 H 0.26447 0.68626 0.41252 0.0
H234 H 0.29881 0.69451 0.40073 0.0
H235 H 0.23846 0.71416 0.3393 0.0
H236 H 0.26707 0.73586 0.35694 0.0
H237 H 0.24087 0.71613 0.37986 0.0
H238 H 0.32884 0.78156 0.41195 0.0
C239 C 0.31825 0.74861 0.37985 0.0
C240 C 0.37681 0.65699 0.79082 0.0
C241 C 0.36845 0.62859 0.80186 0.0
C242 C 0.34518 0.61152 0.7878 0.0
C243 C 0.3389 0.65129 0.75262 0.0
C244 C 0.36206 0.6677 0.76614 0.0
C245 C 0.36952 0.69678 0.75055 0.0
H246 H 0.3483 0.79021 0.63439 0.0
C247 C 0.32858 0.66897 0.72726 0.0
C248 C 0.34673 0.69554 0.72587 0.0
H249 H 0.41301 0.80004 0.70516 0.0
H250 H 0.39296 0.75467 0.72886 0.0
H251 H 0.30216 0.76998 0.67832 0.0
H252 H 0.34284 0.7209 0.62495 0.0
H253 H 0.30735 0.70862 0.61989 0.0
H254 H 0.32164 0.74527 0.60969 0.0
H255 H 0.29075 0.76259 0.63971 0.0
H256 H 0.27851 0.73836 0.67083 0.0
C257 C 0.36864 0.71977 0.77372 0.0
C258 C 0.39757 0.69887 0.73728 0.0
C259 C 0.24004 0.63093 0.66522 0.0
C260 C 0.22509 0.64333 0.6415 0.0
C261 C 0.23545 0.67177 0.63123 0.0
C262 C 0.26015 0.68718 0.64355 0.0
C263 C 0.27487 0.6744 0.66683 0.0
C264 C 0.26461 0.64689 0.67767 0.0
C265 C 0.28274 0.63736 0.70342 0.0
C266 C 0.30528 0.66382 0.70639 0.0
C267 C 0.30071 0.68525 0.68446 0.0
C268 C 0.2663 0.63122 0.73205 0.0
C269 C 0.29344 0.61124 0.69337 0.0
C270 C 0.3581 0.78241 0.65493 0.0
C271 C 0.3824 0.79852 0.6678 0.0
C272 C 0.39428 0.78804 0.69489 0.0
C273 C 0.38267 0.76158 0.7085 0.0
C274 C 0.35876 0.74534 0.69504 0.0
C275 C 0.34652 0.75611 0.66909 0.0
C276 C 0.32033 0.73658 0.6591 0.0
C277 C 0.31972 0.71164 0.68236 0.0
C278 C 0.34239 0.71685 0.70319 0.0
C279 C 0.29663 0.75259 0.66188 0.0
C280 C 0.32293 0.72734 0.62662 0.0
H281 H 0.3127 0.60876 0.75374 0.0
H282 H 0.39495 0.67041 0.8007 0.0
H283 H 0.40001 0.67765 0.72975 0.0
H284 H 0.40028 0.71318 0.71675 0.0
H285 H 0.41442 0.70613 0.75446 0.0
H286 H 0.35195 0.7123 0.78916 0.0
H287 H 0.38797 0.72449 0.78801 0.0
H288 H 0.3643 0.74 0.76284 0.0
H289 H 0.23304 0.60914 0.67372 0.0
H290 H 0.22433 0.6824 0.61371 0.0
H291 H 0.26685 0.70854 0.63443 0.0
H292 H 0.25432 0.64821 0.73426 0.0
H293 H 0.25186 0.61033 0.73082 0.0
H294 H 0.27925 0.63113 0.75328 0.0
H295 H 0.2974 0.61358 0.66884 0.0
H296 H 0.31307 0.60902 0.7052 0.0
H297 H 0.27844 0.59102 0.69691 0.0
H298 H 0.33845 0.58952 0.79584 0.0
C299 C 0.33027 0.62276 0.76341 0.0
C300 C 0.21817 0.30276 0.65124 0.0
C301 C 0.2058 0.3234 0.66332 0.0
C302 C 0.21774 0.33662 0.69013 0.0
C303 C 0.25454 0.31036 0.69111 0.0
C304 C 0.24239 0.29656 0.66549 0.0
C305 C 0.25844 0.27554 0.65544 0.0
H306 H 0.37407 0.22184 0.66803 0.0
C307 C 0.28044 0.30055 0.69916 0.0
C308 C 0.28282 0.28005 0.6784 0.0
H309 H 0.30186 0.19513 0.609 0.0
H310 H 0.28031 0.22953 0.6303 0.0
H311 H 0.37459 0.28921 0.66404 0.0
H312 H 0.3399 0.22283 0.7281 0.0
H313 H 0.35634 0.25279 0.74841 0.0
H314 H 0.37591 0.23477 0.72616 0.0
H315 H 0.39523 0.27273 0.6918 0.0
H316 H 0.38087 0.30297 0.70049 0.0
C317 C 0.26674 0.28468 0.62278 0.0
C318 C 0.24102 0.2449 0.65863 0.0
C319 C 0.34347 0.34587 0.78618 0.0
C320 C 0.37012 0.34392 0.79713 0.0
C321 C 0.38338 0.32511 0.78295 0.0
C322 C 0.37045 0.30867 0.75871 0.0
C323 C 0.34395 0.31107 0.74803 0.0
C324 C 0.33101 0.32962 0.76162 0.0
C325 C 0.30351 0.3307 0.74623 0.0
C326 C 0.30179 0.30926 0.72163 0.0
C327 C 0.32547 0.29765 0.72285 0.0
C328 C 0.3041 0.36165 0.73283 0.0
C329 C 0.28185 0.32039 0.76963 0.0
C330 C 0.3535 0.223 0.65981 0.0
C331 C 0.34002 0.20566 0.63625 0.0
C332 C 0.31326 0.20851 0.62638 0.0
C333 C 0.30055 0.22838 0.63904 0.0
C334 C 0.31441 0.24562 0.66222 0.0
C335 C 0.34026 0.24242 0.67262 0.0
C336 C 0.35131 0.26154 0.69854 0.0
C337 C 0.32785 0.27673 0.70191 0.0
C338 C 0.30645 0.26764 0.68019 0.0
C339 C 0.37697 0.28268 0.6885 0.0
C340 C 0.35638 0.24218 0.72688 0.0
H341 H 0.25011 0.34138 0.72409 0.0
H342 H 0.20933 0.29189 0.63095 0.0
H343 H 0.22603 0.2435 0.67619 0.0
H344 H 0.25335 0.22869 0.66638 0.0
H345 H 0.22948 0.23838 0.63692 0.0
H346 H 0.27457 0.30822 0.62081 0.0
H347 H 0.24907 0.27945 0.60607 0.0
H348 H 0.28317 0.27459 0.61596 0.0
H349 H 0.33238 0.3598 0.79637 0.0
H350 H 0.40408 0.32348 0.7901 0.0
H351 H 0.38178 0.29499 0.74893 0.0
H352 H 0.32469 0.37169 0.72566 0.0
H353 H 0.29863 0.37554 0.74978 0.0
H354 H 0.29065 0.36245 0.71202 0.0
H355 H 0.28721 0.30239 0.78446 0.0
H356 H 0.26155 0.31177 0.75892 0.0
H357 H 0.28025 0.33796 0.78448 0.0
H358 H 0.2089 0.35277 0.69981 0.0
C359 C 0.24192 0.3302 0.70405 0.0
C360 C 0.655 0.23058 0.66501 0.0
C361 C 0.66174 0.21912 0.63849 0.0
C362 C 0.68503 0.23355 0.62406 0.0
C363 C 0.69389 0.26991 0.66183 0.0
C364 C 0.67109 0.25598 0.67601 0.0
C365 C 0.66599 0.27168 0.70304 0.0
H366 H 0.69358 0.39356 0.78048 0.0
C367 C 0.70578 0.29611 0.67846 0.0
C368 C 0.68933 0.29743 0.7025 0.0
H369 H 0.63431 0.31624 0.79967 0.0
H370 H 0.6499 0.29314 0.75961 0.0
H371 H 0.69372 0.39301 0.70702 0.0
H372 H 0.73954 0.35933 0.78135 0.0
H373 H 0.76088 0.36438 0.75106 0.0
H374 H 0.7504 0.39492 0.76567 0.0
H375 H 0.71655 0.41416 0.73402 0.0
H376 H 0.72879 0.40221 0.70084 0.0
C377 C 0.63804 0.28055 0.69692 0.0
C378 C 0.66815 0.25205 0.73193 0.0
C379 C 0.79296 0.36098 0.64531 0.0
C380 C 0.80908 0.38604 0.65719 0.0
C381 C 0.80031 0.39817 0.68208 0.0
C382 C 0.77592 0.38563 0.69499 0.0
C383 C 0.7602 0.36037 0.68322 0.0
C384 C 0.76885 0.34835 0.6589 0.0
C385 C 0.74985 0.32096 0.65014 0.0
C386 C 0.72887 0.31818 0.67374 0.0
C387 C 0.73484 0.3416 0.69271 0.0
C388 C 0.7374 0.32563 0.61754 0.0
C389 C 0.76597 0.29629 0.6538 0.0
C390 C 0.68383 0.3716 0.7767 0.0
C391 C 0.66166 0.35757 0.79328 0.0
C392 C 0.65035 0.32866 0.78678 0.0
C393 C 0.65966 0.3149 0.76354 0.0
C394 C 0.68109 0.3297 0.74677 0.0
C395 C 0.69351 0.35713 0.75435 0.0
C396 C 0.71833 0.36817 0.73693 0.0
C397 C 0.71755 0.34361 0.71615 0.0
C398 C 0.69534 0.32132 0.72156 0.0
C399 C 0.71436 0.39597 0.71876 0.0
C400 C 0.74366 0.37212 0.75976 0.0
H401 H 0.71842 0.26854 0.62341 0.0
H402 H 0.63753 0.22008 0.67704 0.0
H403 H 0.68257 0.23747 0.72948 0.0
H404 H 0.67638 0.26431 0.75219 0.0
H405 H 0.64814 0.23847 0.73661 0.0
H406 H 0.63612 0.29017 0.67352 0.0
H407 H 0.62125 0.26164 0.69906 0.0
H408 H 0.6348 0.29687 0.7122 0.0
H409 H 0.79929 0.35113 0.62628 0.0
H410 H 0.81227 0.41763 0.69136 0.0
H411 H 0.77023 0.39612 0.71361 0.0
H412 H 0.73532 0.34836 0.61299 0.0
H413 H 0.75033 0.3203 0.60025 0.0
H414 H 0.71655 0.31312 0.61378 0.0
H415 H 0.7797 0.29849 0.67481 0.0
H416 H 0.75284 0.2749 0.65625 0.0
H417 H 0.7787 0.29651 0.63429 0.0
H418 H 0.69059 0.22584 0.6033 0.0
C419 C 0.70111 0.25866 0.63561 0.0
C420 C 0.6883 0.63493 0.73429 0.0
C421 C 0.66607 0.64109 0.74833 0.0
C422 C 0.65447 0.66454 0.73685 0.0
C423 C 0.68668 0.67469 0.69788 0.0
C424 C 0.69838 0.6521 0.70943 0.0
C425 C 0.72266 0.64926 0.69287 0.0
H426 H 0.79589 0.68501 0.57056 0.0
C427 C 0.7018 0.688 0.67181 0.0
C428 C 0.72295 0.67334 0.66879 0.0
H429 H 0.81089 0.62853 0.64784 0.0
H430 H 0.77337 0.63966 0.6716 0.0
H431 H 0.79429 0.73392 0.61152 0.0
H432 H 0.72912 0.67508 0.56745 0.0
H433 H 0.7235 0.71057 0.56104 0.0
H434 H 0.75369 0.70141 0.54841 0.0
H435 H 0.78105 0.74178 0.57395 0.0
H436 H 0.76699 0.75207 0.60713 0.0
C437 C 0.7482 0.65461 0.71535 0.0
C438 C 0.71679 0.61939 0.67891 0.0
C439 C 0.6725 0.77177 0.61207 0.0
C440 C 0.68349 0.7897 0.58788 0.0
C441 C 0.70567 0.78313 0.57388 0.0
C442 C 0.71701 0.75947 0.5843 0.0
C443 C 0.70631 0.74244 0.60918 0.0
C444 C 0.68443 0.74873 0.62261 0.0
C445 C 0.67658 0.7293 0.64978 0.0
C446 C 0.69778 0.71063 0.65081 0.0
C447 C 0.71481 0.71814 0.62674 0.0
C448 C 0.67964 0.74788 0.67804 0.0
C449 C 0.64755 0.71192 0.64272 0.0
C450 C 0.79145 0.67506 0.59268 0.0
C451 C 0.80613 0.65489 0.60652 0.0
C452 C 0.79935 0.64298 0.63562 0.0
C453 C 0.77769 0.64976 0.64978 0.0
C454 C 0.76299 0.66932 0.63527 0.0
C455 C 0.77057 0.68244 0.60777 0.0
C456 C 0.75501 0.70565 0.59788 0.0
C457 C 0.73585 0.70299 0.62325 0.0
C458 C 0.74026 0.68122 0.64463 0.0
C459 C 0.77523 0.7349 0.59736 0.0
C460 C 0.73952 0.698 0.56697 0.0
H461 H 0.65478 0.69868 0.70401 0.0
H462 H 0.6977 0.61707 0.74235 0.0
H463 H 0.69625 0.61522 0.66694 0.0
H464 H 0.73115 0.61723 0.66194 0.0
H465 H 0.71746 0.60217 0.69685 0.0
H466 H 0.74487 0.66623 0.73545 0.0
H467 H 0.75399 0.63411 0.72393 0.0
H468 H 0.76583 0.66852 0.70502 0.0
H469 H 0.65511 0.77573 0.623 0.0
H470 H 0.7147 0.79665 0.55535 0.0
H471 H 0.73388 0.75557 0.57284 0.0
H472 H 0.69577 0.76741 0.67559 0.0
H473 H 0.66043 0.75505 0.68154 0.0
H474 H 0.68616 0.73667 0.69905 0.0
H475 H 0.64488 0.70533 0.61876 0.0
H476 H 0.64301 0.69171 0.65653 0.0
H477 H 0.63201 0.72493 0.646 0.0
H478 H 0.6378 0.67034 0.74761 0.0
C479 C 0.66453 0.68121 0.71163 0.0
Co480 Co 0.05492 0.46414 0.53195 0.0
Co481 Co 0.03153 0.45297 0.47776 0.0
Co482 Co 0.00743 0.50265 0.50404 0.0
O483 O 0.01952 0.46509 0.51282 0.0
H484 H 1.0055 0.4504 0.52104 0.0
O485 O 0.99518 0.54009 0.49513 0.0
Co486 Co 0.95875 0.54097 0.47882 0.0
Co487 Co 0.98545 0.55191 0.53136 0.0
H488 H 0.00877 0.5547 0.48604 0.0
O489 O 0.03504 0.41521 0.47332 0.0
O490 O 0.06594 0.45068 0.49437 0.0
O491 O 0.03807 0.48043 0.44419 0.0
O492 O 0.03388 0.5169 0.47151 0.0
O493 O 0.97898 0.48298 0.47339 0.0
O494 O 0.92638 0.54416 0.4627 0.0
O495 O 0.96435 0.57821 0.46342 0.0
O496 O 0.94767 0.50241 0.49147 0.0
O497 O 0.98102 0.48855 0.53663 0.0
O498 O 0.98181 0.5251 0.5658 0.0
O499 O 0.95008 0.55374 0.51805 0.0
O500 O 0.9827 0.58934 0.5366 0.0
C501 C 0.07337 0.43509 0.55796 0.0
C502 C 0.06086 0.52135 0.5337 0.0
C503 C 0.04248 0.5071 0.44855 0.0
C504 C 0.05947 0.42479 0.48469 0.0
C505 C 0.93848 0.57009 0.45546 0.0
C506 C 0.95391 0.48391 0.47513 0.0
C507 C 0.97483 0.49863 0.56077 0.0
C508 C 0.95749 0.57952 0.52802 0.0
O509 O 0.0863 0.46077 0.55095 0.0
O510 O 0.04793 0.42728 0.54809 0.0
O511 O 0.03579 0.52254 0.53477 0.0
O512 O 0.06716 0.50216 0.51847 0.0
Co513 Co 0.5402 0.95203 0.4886 0.0
Co514 Co 0.55322 0.97545 0.54148 0.0
Co515 Co 0.50839 1.00501 0.50733 0.0
O516 O 0.54189 0.98944 0.50371 0.0
H517 H 0.55643 1.00358 0.4956 0.0
O518 O 0.47507 0.02117 0.51003 0.0
Co519 Co 0.47706 0.05942 0.5235 0.0
Co520 Co 0.46444 0.03443 0.47085 0.0
H521 H 0.46039 0.0074 0.5184 0.0
O522 O 0.58895 0.97157 0.54958 0.0
O523 O 0.55434 0.93944 0.52888 0.0
O524 O 0.52775 0.96843 0.57262 0.0
O525 O 0.49344 0.97658 0.54086 0.0
O526 O 0.52917 0.03231 0.53784 0.0
O527 O 0.47531 0.0937 0.53668 0.0
O528 O 0.44193 0.05463 0.53345 0.0
O529 O 0.51436 0.0697 0.5161 0.0
O530 O 0.52326 0.03363 0.4743 0.0
O531 O 0.4901 0.03781 0.43943 0.0
O532 O 0.46756 0.07195 0.48175 0.0
O533 O 0.43005 0.0439 0.46149 0.0
C534 C 0.56572 0.93165 0.4672 0.0
C535 C 0.48596 0.95007 0.48227 0.0
C536 C 0.50248 0.96579 0.56578 0.0
C537 C 0.57952 0.94626 0.53935 0.0
C538 C 0.4503 0.0813 0.54083 0.0
C539 C 0.53172 0.05943 0.53339 0.0
C540 C 0.51512 0.04256 0.44814 0.0
C541 C 0.4429 0.06886 0.46996 0.0
O542 O 0.54161 0.91833 0.47391 0.0
O543 O 0.57411 0.95835 0.47448 0.0
O544 O 0.48776 0.97712 0.47719 0.0
O545 O 0.50393 0.94069 0.4996 0.0
Co546 Co 0.4738 0.52157 0.0625 0.0
Co547 Co 0.46225 0.46882 0.04786 0.0
Co548 Co 0.50603 0.5042 1.00401 0.0
O549 O 0.47186 0.5024 0.02503 0.0
H550 H 0.45683 0.50569 0.01127 0.0
O551 O 0.54048 0.50606 0.9837 0.0
Co552 Co 0.54082 0.48885 0.94588 0.0
Co553 Co 0.54998 0.54055 0.96291 0.0
H554 H 0.55532 0.50288 0.99782 0.0
O555 O 0.42669 0.4552 0.05583 0.0
O556 O 0.45841 0.48494 0.08398 0.0
O557 O 0.48916 0.44569 0.0567 0.0
O558 O 0.52154 0.47597 0.03337 0.0
O559 O 0.48647 0.47266 0.97723 0.0
O560 O 0.54341 0.47206 0.91175 0.0
O561 O 0.57458 0.48006 0.95115 0.0
O562 O 0.50505 0.49399 0.93611 0.0
O563 O 0.49037 0.53221 0.97464 0.0
O564 O 0.52319 0.56399 0.9541 0.0
O565 O 0.55615 0.52699 0.92644 0.0
O566 O 0.5854 0.55589 0.95848 0.0
C567 C 0.44953 0.54315 0.08412 0.0
C568 C 0.52767 0.53257 0.05887 0.0
C569 C 0.5139 0.45423 0.0513 0.0
C570 C 0.43412 0.46926 0.08038 0.0
C571 C 0.5669 0.46935 0.92457 0.0
C572 C 0.48666 0.47544 0.94824 0.0
C573 C 0.49826 0.55478 0.95801 0.0
C574 C 0.5794 0.54431 0.93228 0.0
O575 O 0.47338 0.54025 0.0957 0.0
O576 O 0.44038 0.53145 0.05833 0.0
O577 O 0.52588 0.5361 0.03003 0.0
O578 O 0.50928 0.51497 0.0719 0.0
C579 C 0.19028 0.38375 0.43709 0.0
C580 C 0.19628 0.35663 0.44527 0.0
C581 C 0.16641 0.39128 0.44511 0.0
C582 C 0.14911 0.37234 0.46426 0.0
C583 C 0.15559 0.34551 0.4741 0.0
C584 C 0.17869 0.33766 0.46376 0.0
C585 C 0.15988 0.41962 0.43276 0.0
C586 C 0.1383 0.32458 0.49504 0.0
C587 C 0.1061 0.41651 0.4991 0.0
C588 C 0.0809 0.40789 0.4833 0.0
C589 C 0.12782 0.40307 0.49542 0.0
C590 C 0.12472 0.38143 0.47404 0.0
C591 C 0.09905 0.37189 0.45869 0.0
C592 C 0.07721 0.38482 0.46411 0.0
C593 C 0.15437 0.41389 0.5131 0.0
C594 C 0.09501 0.34944 0.4351 0.0
H595 H 0.20409 0.39933 0.42407 0.0
H596 H 0.18263 0.31646 0.47003 0.0
H597 H 0.13779 0.41782 0.42686 0.0
H598 H 0.16609 0.43595 0.45014 0.0
H599 H 0.17093 0.4276 0.41217 0.0
H600 H 0.15139 0.31461 0.51204 0.0
H601 H 0.12429 0.33456 0.50719 0.0
H602 H 0.12615 0.30693 0.48161 0.0
H603 H 0.10941 0.43456 0.51363 0.0
H604 H 0.05774 0.37807 0.45179 0.0
H605 H 0.16351 0.43552 0.50389 0.0
H606 H 0.16924 0.39961 0.51244 0.0
H607 H 0.1506 0.41641 0.53714 0.0
H608 H 0.1111 0.3547 0.41868 0.0
H609 H 0.07491 0.34737 0.42232 0.0
H610 H 0.09643 0.32832 0.44634 0.0
C611 C 0.58753 0.18978 0.37475 0.0
C612 C 0.61142 0.1898 0.3604 0.0
C613 C 0.57323 0.16456 0.38855 0.0
C614 C 0.58267 0.13852 0.38726 0.0
C615 C 0.6068 0.13844 0.37265 0.0
C616 C 0.6211 0.16421 0.3597 0.0
C617 C 0.54805 0.16582 0.40459 0.0
C618 C 0.61722 0.11107 0.37025 0.0
C619 C 0.55752 0.08001 0.44631 0.0
C620 C 0.53442 0.06419 0.43092 0.0
C621 C 0.57376 0.1038 0.43219 0.0
C622 C 0.56731 0.11157 0.40154 0.0
C623 C 0.54495 0.09472 0.38532 0.0
C624 C 0.52854 0.07149 0.40031 0.0
C625 C 0.5969 0.12155 0.45064 0.0
C626 C 0.53777 0.10189 0.35241 0.0
H627 H 0.58015 0.20966 0.37533 0.0
H628 H 0.63947 0.16426 0.34834 0.0
H629 H 0.53015 0.15175 0.39358 0.0
H630 H 0.55024 0.15774 0.42852 0.0
H631 H 0.54395 0.18793 0.40443 0.0
H632 H 0.63603 0.11453 0.35776 0.0
H633 H 0.6215 0.10174 0.39324 0.0
H634 H 0.60145 0.09502 0.3584 0.0
H635 H 0.56218 0.07477 0.47005 0.0
H636 H 0.51079 0.05938 0.38825 0.0
H637 H 0.59275 0.14339 0.45269 0.0
H638 H 0.61607 0.12397 0.43906 0.0
H639 H 0.59995 0.11196 0.47384 0.0
H640 H 0.53033 0.1224 0.35047 0.0
H641 H 0.52179 0.08495 0.34213 0.0
H642 H 0.55604 0.10484 0.3391 0.0
C643 C 0.84477 0.66243 0.35564 0.0
C644 C 0.82404 0.66822 0.37249 0.0
C645 C 0.86642 0.65081 0.36969 0.0
C646 C 0.86749 0.64475 0.40144 0.0
C647 C 0.84774 0.65258 0.41886 0.0
C648 C 0.82625 0.66414 0.40419 0.0
C649 C 0.88716 0.64325 0.3502 0.0
C650 C 0.84777 0.64667 0.45273 0.0
C651 C 0.89552 0.57844 0.42797 0.0
C652 C 0.92168 0.58996 0.44031 0.0
C653 C 0.87786 0.59607 0.41561 0.0
C654 C 0.88641 0.62624 0.41531 0.0
C655 C 0.91282 0.63818 0.42763 0.0
C656 C 0.93022 0.61988 0.43996 0.0
C657 C 0.84983 0.58228 0.40316 0.0
C658 C 0.92241 0.67023 0.42833 0.0
H659 H 0.84362 0.66615 0.3312 0.0
H660 H 0.81037 0.66846 0.41747 0.0
H661 H 0.90802 0.6508 0.36034 0.0
H662 H 0.88402 0.61958 0.34902 0.0
H663 H 0.88566 0.65268 0.32672 0.0
H664 H 0.83835 0.66233 0.46379 0.0
H665 H 0.83552 0.62497 0.45728 0.0
H666 H 0.86856 0.64732 0.46329 0.0
H667 H 0.8886 0.55537 0.42817 0.0
H668 H 0.95018 0.62898 0.44992 0.0
H669 H 0.84684 0.58898 0.37889 0.0
H670 H 0.83422 0.58954 0.41558 0.0
H671 H 0.84631 0.55847 0.40508 0.0
H672 H 0.92086 0.68009 0.40508 0.0
H673 H 0.94372 0.67621 0.43784 0.0
H674 H 0.90912 0.67948 0.44231 0.0
C675 C 0.36498 0.83325 0.40513 0.0
C676 C 0.37656 0.81293 0.39148 0.0
C677 C 0.38122 0.85701 0.41934 0.0
C678 C 0.40986 0.86114 0.41941 0.0
C679 C 0.42172 0.84137 0.40477 0.0
C680 C 0.40502 0.81745 0.39131 0.0
C681 C 0.36771 0.87732 0.43498 0.0
C682 C 0.45217 0.84511 0.40397 0.0
C683 C 0.45394 0.93414 0.43737 0.0
C684 C 0.46414 0.9289 0.46708 0.0
C685 C 0.43595 0.91245 0.42162 0.0
C686 C 0.42751 0.88513 0.43621 0.0
C687 C 0.43682 0.88029 0.46674 0.0
C688 C 0.4552 0.90208 0.48163 0.0
C689 C 0.4269 0.91836 0.38897 0.0
C690 C 0.42782 0.85186 0.48352 0.0
H691 H 0.34309 0.83057 0.40489 0.0
H692 H 0.41441 0.80189 0.38133 0.0
H693 H 0.37392 0.87704 0.4596 0.0
H694 H 0.37438 0.8996 0.42589 0.0
H695 H 0.3452 0.87164 0.43218 0.0
H696 H 0.45815 0.82925 0.38964 0.0
H697 H 0.46085 0.86703 0.39511 0.0
H698 H 0.46137 0.84263 0.42732 0.0
H699 H 0.46099 0.95475 0.42596 0.0
H700 H 0.46285 0.89801 0.50472 0.0
H701 H 0.40443 0.91319 0.38577 0.0
H702 H 0.4349 0.90436 0.37413 0.0
H703 H 0.43406 0.94108 0.38139 0.0
H704 H 0.40532 0.8465 0.48317 0.0
H705 H 0.43614 0.85191 0.50751 0.0
H706 H 0.43454 0.83456 0.47207 0.0
C707 C 0.19223 0.631 0.59597 0.0
C708 C 0.19907 0.62688 0.62713 0.0
C709 C 0.1681 0.61572 0.58195 0.0
C710 C 0.15041 0.59515 0.59919 0.0
C711 C 0.15694 0.59097 0.63066 0.0
C712 C 0.181 0.60699 0.64426 0.0
C713 C 0.16198 0.62099 0.54837 0.0
C714 C 0.13893 0.56891 0.6498 0.0
C715 C 0.07893 0.56523 0.56454 0.0
C716 C 0.08304 0.54048 0.55125 0.0
C717 C 0.10056 0.58326 0.58042 0.0
C718 C 0.12672 0.57603 0.58358 0.0
C719 C 0.13073 0.55076 0.57073 0.0
C720 C 0.10908 0.53364 0.55451 0.0
C721 C 0.09558 0.6103 0.59329 0.0
C722 C 0.15804 0.54183 0.57383 0.0
H723 H 0.20608 0.64575 0.58216 0.0
H724 H 0.18563 0.60384 0.66838 0.0
H725 H 0.16359 0.60183 0.53599 0.0
H726 H 0.14088 0.62459 0.54398 0.0
H727 H 0.17613 0.6398 0.53888 0.0
H728 H 0.14592 0.56939 0.67423 0.0
H729 H 0.11775 0.57251 0.64734 0.0
H730 H 0.13862 0.54716 0.6418 0.0
H731 H 0.05898 0.5708 0.56207 0.0
H732 H 0.11271 0.51467 0.54436 0.0
H733 H 0.10853 0.62926 0.5825 0.0
H734 H 0.10135 0.61049 0.61799 0.0
H735 H 0.07401 0.61257 0.58962 0.0
H736 H 0.17318 0.55799 0.56195 0.0
H737 H 0.15734 0.52059 0.56425 0.0
H738 H 0.16537 0.54081 0.59809 0.0
C739 C 0.34824 0.17901 0.59098 0.0
C740 C 0.35373 0.18493 0.62189 0.0
C741 C 0.36134 0.16017 0.577 0.0
C742 C 0.38114 0.14732 0.59401 0.0
C743 C 0.38623 0.15245 0.62537 0.0
C744 C 0.37244 0.17098 0.63891 0.0
C745 C 0.35335 0.15429 0.54404 0.0
C746 C 0.40645 0.13846 0.64466 0.0
C747 C 0.40614 0.08454 0.56269 0.0
C748 C 0.43167 0.098 0.55302 0.0
C749 C 0.38926 0.1003 0.5757 0.0
C750 C 0.39798 0.13025 0.5789 0.0
C751 C 0.42323 0.14407 0.56799 0.0
C752 C 0.43978 0.12781 0.55544 0.0
C753 C 0.36213 0.08496 0.58618 0.0
C754 C 0.43302 0.17606 0.56998 0.0
H755 H 0.334 0.1895 0.57725 0.0
H756 H 0.37632 0.17442 0.66297 0.0
H757 H 0.36641 0.1418 0.53368 0.0
H758 H 0.33214 0.14204 0.54213 0.0
H759 H 0.35357 0.17479 0.53068 0.0
H760 H 0.40672 0.14294 0.66908 0.0
H761 H 0.4016 0.11488 0.64223 0.0
H762 H 0.42714 0.14635 0.63679 0.0
H763 H 0.39954 0.06159 0.56061 0.0
H764 H 0.45924 0.13858 0.54759 0.0
H765 H 0.34565 0.09395 0.57342 0.0
H766 H 0.3609 0.08849 0.6106 0.0
H767 H 0.35852 0.06152 0.58286 0.0
H768 H 0.41665 0.18767 0.56165 0.0
H769 H 0.45106 0.18408 0.55667 0.0
H770 H 0.43852 0.18134 0.59405 0.0
C771 C 0.83553 0.40732 0.61281 0.0
C772 C 0.83498 0.39972 0.64387 0.0
C773 C 0.85952 0.42221 0.60038 0.0
C774 C 0.88368 0.42907 0.61938 0.0
C775 C 0.88341 0.42045 0.65056 0.0
C776 C 0.85899 0.40619 0.6625 0.0
C777 C 0.85877 0.43147 0.56714 0.0
C778 C 0.90881 0.42669 0.67142 0.0
C779 C 0.94946 0.45051 0.57893 0.0
C780 C 0.95407 0.48055 0.57943 0.0
C781 C 0.92724 0.43339 0.59289 0.0
C782 C 0.90877 0.44663 0.60693 0.0
C783 C 0.9137 0.47691 0.60809 0.0
C784 C 0.93644 0.49344 0.5947 0.0
C785 C 0.9231 0.40116 0.59182 0.0
C786 C 0.89426 0.49199 0.62223 0.0
H787 H 0.81693 0.40248 0.59844 0.0
H788 H 0.85863 0.40007 0.68648 0.0
H789 H 0.86386 0.45524 0.5647 0.0
H790 H 0.87423 0.42308 0.5556 0.0
H791 H 0.83855 0.42394 0.55533 0.0
H792 H 0.90573 0.41656 0.69448 0.0
H793 H 0.9256 0.41885 0.66178 0.0
H794 H 0.91536 0.4502 0.67354 0.0
H795 H 0.96295 0.44041 0.56711 0.0
H796 H 0.93955 0.51664 0.59482 0.0
H797 H 0.90462 0.39304 0.57718 0.0
H798 H 0.9199 0.3911 0.61486 0.0
H799 H 0.94064 0.39415 0.58278 0.0
H800 H 0.87397 0.48701 0.6099 0.0
H801 H 0.90123 0.51566 0.62173 0.0
H802 H 0.89171 0.48417 0.64614 0.0
C803 C 0.66952 0.82373 0.54708 0.0
C804 C 0.67199 0.81533 0.57792 0.0
C805 C 0.6569 0.84675 0.53754 0.0
C806 C 0.64621 0.86135 0.55932 0.0
C807 C 0.64953 0.85368 0.59053 0.0
C808 C 0.66272 0.83104 0.59946 0.0
C809 C 0.65537 0.85548 0.50425 0.0
C810 C 0.63841 0.86879 0.61447 0.0
C811 C 0.62527 0.93316 0.54469 0.0
C812 C 0.59696 0.92473 0.54101 0.0
C813 C 0.64188 0.91266 0.5488 0.0
C814 C 0.62974 0.88322 0.54977 0.0
C815 C 0.60128 0.87462 0.54447 0.0
C816 C 0.58521 0.89553 0.54004 0.0
C817 C 0.67226 0.92243 0.55317 0.0
C818 C 0.58762 0.84336 0.5452 0.0
H819 H 0.67678 0.81189 0.53026 0.0
H820 H 0.66544 0.82542 0.62343 0.0
H821 H 0.63649 0.86343 0.49723 0.0
H822 H 0.67276 0.87321 0.49997 0.0
H823 H 0.65678 0.83753 0.48981 0.0
H824 H 0.64351 0.86078 0.63785 0.0
H825 H 0.64656 0.8922 0.61262 0.0
H826 H 0.61598 0.86563 0.61084 0.0
H827 H 0.63442 0.95578 0.54481 0.0
H828 H 0.56333 0.88894 0.53697 0.0
H829 H 0.68253 0.91175 0.53708 0.0
H830 H 0.67939 0.91614 0.57646 0.0
H831 H 0.67862 0.94604 0.54969 0.0
H832 H 0.56625 0.84021 0.53563 0.0
H833 H 0.5877 0.83475 0.56906 0.0
H834 H 0.59883 0.83062 0.53236 0.0
C835 C 0.38126 0.21257 0.44985 0.0
C836 C 0.37134 0.21417 0.41948 0.0
C837 C 0.39249 0.18909 0.46126 0.0
C838 C 0.39348 0.16674 0.44181 0.0
C839 C 0.38296 0.16807 0.41129 0.0
C840 C 0.37201 0.19181 0.40049 0.0
C841 C 0.40433 0.18904 0.49364 0.0
C842 C 0.38401 0.14483 0.38975 0.0
C843 C 0.44636 0.1205 0.45658 0.0
C844 C 0.43034 0.09415 0.46513 0.0
C845 C 0.43473 0.14464 0.44975 0.0
C846 C 0.40658 0.14246 0.45259 0.0
C847 C 0.39065 0.11632 0.46322 0.0
C848 C 0.40266 0.09218 0.46876 0.0
C849 C 0.45231 0.17204 0.43817 0.0
C850 C 0.36081 0.11356 0.46776 0.0
H851 H 0.381 0.2301 0.4644 0.0
H852 H 0.36407 0.19303 0.37707 0.0
H853 H 0.40226 0.16699 0.50394 0.0
H854 H 0.4263 0.19862 0.49406 0.0
H855 H 0.39464 0.20214 0.50788 0.0
H856 H 0.37498 0.14921 0.36668 0.0
H857 H 0.40541 0.14279 0.38784 0.0
H858 H 0.37295 0.12387 0.3987 0.0
H859 H 0.46786 0.12192 0.45397 0.0
H860 H 0.39048 0.07184 0.47603 0.0
H861 H 0.45126 0.18991 0.45279 0.0
H862 H 0.44467 0.17785 0.41492 0.0
H863 H 0.47391 0.17016 0.43754 0.0
H864 H 0.35315 0.09463 0.48279 0.0
H865 H 0.34915 0.11101 0.44546 0.0
H866 H 0.35679 0.13309 0.47769 0.0
C867 C 0.82284 0.37502 0.41052 0.0
C868 C 0.81588 0.38002 0.37953 0.0
C869 C 0.84691 0.39009 0.42487 0.0
C870 C 0.8644 0.41137 0.40819 0.0
C871 C 0.85778 0.41642 0.37689 0.0
C872 C 0.83382 0.40056 0.36291 0.0
C873 C 0.85318 0.38381 0.45822 0.0
C874 C 0.87555 0.43928 0.35837 0.0
C875 C 0.9055 0.47162 0.45485 0.0
C876 C 0.93167 0.46512 0.45731 0.0
C877 C 0.88387 0.45484 0.43824 0.0
C878 C 0.88802 0.43018 0.42427 0.0
C879 C 0.9143 0.42324 0.42672 0.0
C880 C 0.93591 0.44097 0.44294 0.0
C881 C 0.85643 0.46348 0.43591 0.0
C882 C 0.91944 0.3968 0.41272 0.0
H883 H 0.80912 0.35978 0.42399 0.0
H884 H 0.82914 0.40441 0.33891 0.0
H885 H 0.87439 0.38046 0.46227 0.0
H886 H 0.85133 0.40241 0.47139 0.0
H887 H 0.83926 0.36453 0.46714 0.0
H888 H 0.86848 0.43954 0.33396 0.0
H889 H 0.87568 0.46066 0.36724 0.0
H890 H 0.89682 0.43592 0.36042 0.0
H891 H 0.90177 0.49007 0.46589 0.0
H892 H 0.95595 0.43564 0.44481 0.0
H893 H 0.8415 0.44685 0.44749 0.0
H894 H 0.84891 0.46512 0.41176 0.0
H895 H 0.85703 0.48435 0.44625 0.0
H896 H 0.90661 0.37742 0.4229 0.0
H897 H 0.94105 0.39463 0.41608 0.0
H898 H 0.91364 0.3974 0.38803 0.0
C899 C 0.62824 0.82599 0.37179 0.0
C900 C 0.65598 0.82625 0.37913 0.0
C901 C 0.61486 0.84582 0.38361 0.0
C902 C 0.62893 0.86553 0.40499 0.0
C903 C 0.65708 0.86654 0.41191 0.0
C904 C 0.67026 0.84743 0.39843 0.0
C905 C 0.58546 0.84501 0.37313 0.0
C906 C 0.67388 0.88765 0.43339 0.0
C907 C 0.60093 0.92904 0.4305 0.0
C908 C 0.58338 0.9157 0.45245 0.0
C909 C 0.61556 0.91303 0.41441 0.0
C910 C 0.6137 0.88324 0.42164 0.0
C911 C 0.59668 0.87004 0.4447 0.0
C912 C 0.58138 0.88627 0.45927 0.0
C913 C 0.63257 0.92816 0.38945 0.0
C914 C 0.59394 0.83857 0.45383 0.0
H915 H 0.6165 0.80993 0.35718 0.0
H916 H 0.6919 0.84913 0.4034 0.0
H917 H 0.57247 0.82699 0.38525 0.0
H918 H 0.57865 0.86523 0.37701 0.0
H919 H 0.58215 0.84088 0.34852 0.0
H920 H 0.68523 0.90589 0.41991 0.0
H921 H 0.66154 0.89625 0.44904 0.0
H922 H 0.68922 0.87758 0.44706 0.0
H923 H 0.60235 0.95176 0.42498 0.0
H924 H 0.56782 0.87581 0.47624 0.0
H925 H 0.63335 0.9137 0.37084 0.0
H926 H 0.65358 0.9359 0.39899 0.0
H927 H 0.62462 0.94714 0.37971 0.0
H928 H 0.57792 0.82589 0.43882 0.0
H929 H 0.58772 0.83412 0.47746 0.0
H930 H 0.61315 0.83087 0.45195 0.0
C931 C 0.15451 0.60767 0.34793 0.0
C932 C 0.17879 0.61376 0.36619 0.0
C933 C 0.13045 0.59248 0.35988 0.0
C934 C 0.13078 0.58262 0.39071 0.0
C935 C 0.15509 0.58939 0.40945 0.0
C936 C 0.17875 0.60511 0.39702 0.0
C937 C 0.10485 0.58633 0.33932 0.0
C938 C 0.15644 0.57899 0.44234 0.0
C939 C 0.0658 0.55659 0.43167 0.0
C940 C 0.06244 0.52669 0.43006 0.0
C941 C 0.08733 0.57517 0.41799 0.0
C942 C 0.1063 0.56358 0.40286 0.0
C943 C 0.10252 0.53349 0.40037 0.0
C944 C 0.08053 0.51547 0.41369 0.0
C945 C 0.09028 0.60714 0.42057 0.0
C946 C 0.12243 0.52017 0.38482 0.0
H947 H 0.15444 0.6146 0.32414 0.0
H948 H 0.19753 0.60961 0.41112 0.0
H949 H 0.09908 0.56296 0.33585 0.0
H950 H 0.0878 0.59276 0.34996 0.0
H951 H 0.10732 0.59775 0.31677 0.0
H952 H 0.17653 0.58706 0.45417 0.0
H953 H 0.14053 0.58592 0.45454 0.0
H954 H 0.15244 0.55518 0.4438 0.0
H955 H 0.05195 0.56548 0.44425 0.0
H956 H 0.07835 0.49243 0.41253 0.0
H957 H 0.09303 0.61826 0.39795 0.0
H958 H 0.10864 0.61537 0.43536 0.0
H959 H 0.0724 0.61284 0.43026 0.0
H960 H 0.12448 0.52921 0.36124 0.0
H961 H 0.11623 0.49647 0.3841 0.0
H962 H 0.14279 0.52536 0.39697 0.0
C963 C 0.40244 0.82613 0.6223 0.0
C964 C 0.39611 0.82565 0.65269 0.0
C965 C 0.41815 0.85067 0.60869 0.0
C966 C 0.42727 0.87552 0.62571 0.0
C967 C 0.41975 0.87557 0.65594 0.0
C968 C 0.40455 0.85052 0.66919 0.0
C969 C 0.42606 0.84952 0.57657 0.0
C970 C 0.42843 0.9018 0.67461 0.0
C971 C 0.49283 0.92433 0.60337 0.0
C972 C 0.48326 0.94527 0.58427 0.0
C973 C 0.47483 0.90185 0.6173 0.0
C974 C 0.44646 0.90052 0.61268 0.0
C975 C 0.43666 0.92236 0.59465 0.0
C976 C 0.45515 0.94427 0.58036 0.0
C977 C 0.48619 0.87877 0.63588 0.0
C978 C 0.40662 0.92212 0.58975 0.0
H979 H 0.39611 0.80685 0.60959 0.0
H980 H 0.39947 0.85024 0.69262 0.0
H981 H 0.42039 0.86763 0.56234 0.0
H982 H 0.44843 0.85175 0.57649 0.0
H983 H 0.41629 0.82911 0.56594 0.0
H984 H 0.41853 0.8994 0.69648 0.0
H985 H 0.45076 0.90581 0.67954 0.0
H986 H 0.42348 0.921 0.66171 0.0
H987 H 0.51446 0.92464 0.60632 0.0
H988 H 0.44755 0.96033 0.56565 0.0
H989 H 0.47899 0.85779 0.62531 0.0
H990 H 0.47879 0.87668 0.65906 0.0
H991 H 0.50875 0.88323 0.63779 0.0
H992 H 0.39678 0.90375 0.57587 0.0
H993 H 0.40243 0.94219 0.57797 0.0
H994 H 0.39703 0.91926 0.6118 0.0
C995 C 0.18129 0.33871 0.61563 0.0
C996 C 0.1818 0.33288 0.64708 0.0
C997 C 0.16093 0.35162 0.60049 0.0
C998 C 0.14045 0.35895 0.61714 0.0
C999 C 0.13985 0.35136 0.64858 0.0
C1000 C 0.16056 0.33855 0.66318 0.0
C1001 C 0.16308 0.35954 0.56718 0.0
C1002 C 0.11822 0.35831 0.66717 0.0
C1003 C 0.11401 0.4261 0.5899 0.0
C1004 C 0.08884 0.41497 0.57495 0.0
C1005 C 0.13072 0.40808 0.60375 0.0
C1006 C 0.12218 0.37796 0.60284 0.0
C1007 C 0.09667 0.36645 0.58805 0.0
C1008 C 0.08022 0.3851 0.57433 0.0
C1009 C 0.1579 0.42141 0.61876 0.0
C1010 C 0.0872 0.33448 0.58591 0.0
H1011 H 0.19773 0.33472 0.60299 0.0
H1012 H 0.16053 0.33366 0.68742 0.0
H1013 H 0.143 0.3601 0.55528 0.0
H1014 H 0.17611 0.38114 0.56484 0.0
H1015 H 0.17289 0.34437 0.55589 0.0
H1016 H 0.11856 0.34796 0.69032 0.0
H1017 H 0.1214 0.38188 0.66933 0.0
H1018 H 0.0978 0.35131 0.65569 0.0
H1019 H 0.12097 0.44914 0.59044 0.0
H1020 H 0.06105 0.37632 0.56236 0.0
H1021 H 0.17444 0.41492 0.60723 0.0
H1022 H 0.1594 0.41358 0.64282 0.0
H1023 H 0.1613 0.44522 0.61803 0.0
H1024 H 0.10121 0.32583 0.57234 0.0
H1025 H 0.0663 0.32881 0.57514 0.0
H1026 H 0.08772 0.3238 0.60886 0.0
C1027 C 0.6556 0.17321 0.61042 0.0
C1028 C 0.64417 0.19296 0.62519 0.0
C1029 C 0.63918 0.14968 0.59598 0.0
C1030 C 0.61058 0.14536 0.59669 0.0
C1031 C 0.59893 0.16456 0.61243 0.0
C1032 C 0.61579 0.18817 0.62621 0.0
C1033 C 0.65243 0.12992 0.57921 0.0
C1034 C 0.56854 0.16063 0.61398 0.0
C1035 C 0.56361 0.10669 0.53438 0.0
C1036 C 0.55442 0.07967 0.54839 0.0
C1037 C 0.58278 0.12773 0.54935 0.0
C1038 C 0.59265 0.12191 0.57943 0.0
C1039 C 0.58412 0.09432 0.59337 0.0
C1040 C 0.5653 0.07338 0.57753 0.0
C1041 C 0.5918 0.15651 0.53326 0.0
C1042 C 0.59387 0.08735 0.62551 0.0
H1043 H 0.67747 0.1762 0.60994 0.0
H1044 H 0.60655 0.20336 0.63705 0.0
H1045 H 0.64572 0.10737 0.5875 0.0
H1046 H 0.64604 0.13107 0.55467 0.0
H1047 H 0.67495 0.13546 0.58183 0.0
H1048 H 0.56278 0.17601 0.62909 0.0
H1049 H 0.55895 0.16371 0.59093 0.0
H1050 H 0.56004 0.13848 0.62232 0.0
H1051 H 0.55545 0.11159 0.51173 0.0
H1052 H 0.55812 0.0526 0.58851 0.0
H1053 H 0.6143 0.16195 0.53368 0.0
H1054 H 0.585 0.17346 0.54519 0.0
H1055 H 0.58354 0.15697 0.50926 0.0
H1056 H 0.61636 0.09265 0.62819 0.0
H1057 H 0.58697 0.06438 0.6323 0.0
H1058 H 0.58607 0.10065 0.64131 0.0
C1059 C 0.83461 0.61899 0.59706 0.0
C1060 C 0.82841 0.64635 0.59102 0.0
C1061 C 0.85648 0.61109 0.58432 0.0
C1062 C 0.8714 0.63019 0.56322 0.0
C1063 C 0.86441 0.65715 0.55549 0.0
C1064 C 0.84364 0.6653 0.57028 0.0
C1065 C 0.86372 0.58235 0.5938 0.0
C1066 C 0.87885 0.67776 0.53203 0.0
C1067 C 0.94198 0.6175 0.55452 0.0
C1068 C 0.93661 0.59611 0.53319 0.0
C1069 C 0.92104 0.62997 0.56357 0.0
C1070 C 0.89451 0.62166 0.5499 0.0
C1071 C 0.8896 0.60207 0.52633 0.0
C1072 C 0.91053 0.58884 0.51896 0.0
C1073 C 0.9269 0.65035 0.58926 0.0
C1074 C 0.86197 0.59345 0.51003 0.0
H1075 H 0.8225 0.60354 0.61191 0.0
H1076 H 0.83967 0.68672 0.56557 0.0
H1077 H 0.85874 0.56776 0.57465 0.0
H1078 H 0.88584 0.58485 0.59992 0.0
H1079 H 0.85254 0.57193 0.6135 0.0
H1080 H 0.86455 0.68994 0.51939 0.0
H1081 H 0.89501 0.69357 0.54363 0.0
H1082 H 0.88827 0.66676 0.51544 0.0
H1083 H 0.96212 0.62313 0.56567 0.0
H1084 H 0.90605 0.57213 0.50272 0.0
H1085 H 0.91427 0.64148 0.60841 0.0
H1086 H 0.92146 0.67121 0.58168 0.0
H1087 H 0.94861 0.65427 0.59771 0.0
H1088 H 0.85119 0.57308 0.52058 0.0
H1089 H 0.86402 0.58952 0.48586 0.0
H1090 H 0.8493 0.60995 0.511 0.0
C1091 C 0.33693 0.42962 0.21935 0.0
C1092 C 0.35168 0.41467 0.24071 0.0
C1093 C 0.34875 0.44312 0.19321 0.0
C1094 C 0.37539 0.44037 0.18763 0.0
C1095 C 0.39066 0.42615 0.20942 0.0
C1096 C 0.3789 0.41424 0.23603 0.0
C1097 C 0.33263 0.45981 0.17129 0.0
C1098 C 0.41913 0.42255 0.2042 0.0
C1099 C 0.39642 0.43903 0.10767 0.0
C1100 C 0.41643 0.46404 0.10604 0.0
C1101 C 0.38197 0.43165 0.13374 0.0
C1102 C 0.38687 0.45037 0.15817 0.0
C1103 C 0.40547 0.47674 0.15564 0.0
C1104 C 0.42065 0.48283 0.12998 0.0
C1105 C 0.36298 0.40284 0.13598 0.0
C1106 C 0.4106 0.49789 0.18059 0.0
H1107 H 0.31594 0.43025 0.22253 0.0
H1108 H 0.39104 0.40408 0.25292 0.0
H1109 H 0.34501 0.48122 0.16559 0.0
H1110 H 0.32735 0.44841 0.14983 0.0
H1111 H 0.31354 0.46281 0.18066 0.0
H1112 H 0.42777 0.4098 0.2229 0.0
H1113 H 0.41912 0.41168 0.18264 0.0
H1114 H 0.43271 0.44385 0.20208 0.0
H1115 H 0.39318 0.4243 0.08933 0.0
H1116 H 0.43625 0.502 0.12914 0.0
H1117 H 0.34272 0.40542 0.14229 0.0
H1118 H 0.37111 0.38914 0.15412 0.0
H1119 H 0.36041 0.39146 0.11439 0.0
H1120 H 0.39211 0.49726 0.19299 0.0
H1121 H 0.41764 0.52011 0.17136 0.0
H1122 H 0.42677 0.49257 0.19708 0.0
C1123 C 0.3947 0.59178 0.82403 0.0
C1124 C 0.38463 0.6168 0.82732 0.0
C1125 C 0.41204 0.58185 0.84688 0.0
C1126 C 0.41902 0.59696 0.87399 0.0
C1127 C 0.408 0.62162 0.87786 0.0
C1128 C 0.39124 0.63144 0.85434 0.0
C1129 C 0.42368 0.55578 0.84153 0.0
C1130 C 0.41434 0.63798 0.90662 0.0
C1131 C 0.44975 0.55723 0.94111 0.0
C1132 C 0.47769 0.56801 0.93918 0.0
C1133 C 0.43036 0.56701 0.92066 0.0
C1134 C 0.43904 0.58788 0.89746 0.0
C1135 C 0.46712 0.59947 0.89599 0.0
C1136 C 0.48601 0.58956 0.91689 0.0
C1137 C 0.40063 0.55438 0.92333 0.0
C1138 C 0.47734 0.62162 0.87157 0.0
H1139 H 0.38982 0.58057 0.80305 0.0
H1140 H 0.38333 0.65069 0.85702 0.0
H1141 H 0.44613 0.56186 0.84143 0.0
H1142 H 0.41898 0.53938 0.86021 0.0
H1143 H 0.41568 0.54596 0.81966 0.0
H1144 H 0.40248 0.65529 0.9071 0.0
H1145 H 0.40995 0.62317 0.92671 0.0
H1146 H 0.43628 0.64774 0.90876 0.0
H1147 H 0.44299 0.54058 0.95815 0.0
H1148 H 0.50747 0.59806 0.915 0.0
H1149 H 0.39265 0.54165 0.90322 0.0
H1150 H 0.38884 0.57173 0.92377 0.0
H1151 H 0.397 0.54021 0.94406 0.0
H1152 H 0.4719 0.61243 0.84891 0.0
H1153 H 0.49972 0.62911 0.87402 0.0
H1154 H 0.46749 0.64046 0.87218 0.0
C1155 C 0.40323 0.35178 0.84317 0.0
C1156 C 0.3844 0.36201 0.82243 0.0
C1157 C 0.41827 0.36928 0.86557 0.0
C1158 C 0.41404 0.39761 0.86792 0.0
C1159 C 0.3942 0.40766 0.84807 0.0
C1160 C 0.37991 0.38994 0.82542 0.0
C1161 C 0.43951 0.35782 0.88592 0.0
C1162 C 0.38875 0.43757 0.85001 0.0
C1163 C 0.44385 0.43823 0.93883 0.0
C1164 C 0.46745 0.45563 0.92816 0.0
C1165 C 0.42599 0.41948 0.91946 0.0
C1166 C 0.43222 0.41763 0.88895 0.0
C1167 C 0.4561 0.43502 0.87822 0.0
C1168 C 0.47312 0.45398 0.89774 0.0
C1169 C 0.4004 0.4018 0.93155 0.0
C1170 C 0.46388 0.43345 0.84609 0.0
H1171 H 0.40652 0.33009 0.84176 0.0
H1172 H 0.36581 0.39846 0.80946 0.0
H1173 H 0.45996 0.37038 0.88134 0.0
H1174 H 0.43632 0.36031 0.91009 0.0
H1175 H 0.43927 0.33483 0.88244 0.0
H1176 H 0.37049 0.44092 0.83561 0.0
H1177 H 0.38589 0.44191 0.87383 0.0
H1178 H 0.40648 0.45354 0.84252 0.0
H1179 H 0.43919 0.43949 0.9622 0.0
H1180 H 0.49122 0.46728 0.88912 0.0
H1181 H 0.40042 0.37863 0.92995 0.0
H1182 H 0.38242 0.40643 0.91753 0.0
H1183 H 0.39816 0.40613 0.95556 0.0
H1184 H 0.46533 0.41111 0.84161 0.0
H1185 H 0.48361 0.44772 0.84159 0.0
H1186 H 0.44799 0.43962 0.82975 0.0
C1187 C 0.62301 0.36404 0.82445 0.0
C1188 C 0.65011 0.37303 0.81658 0.0
C1189 C 0.6116 0.37885 0.84515 0.0
C1190 C 0.62692 0.40446 0.85715 0.0
C1191 C 0.65419 0.41373 0.84968 0.0
C1192 C 0.66566 0.39752 0.83036 0.0
C1193 C 0.58272 0.36752 0.85336 0.0
C1194 C 0.67095 0.44152 0.86099 0.0
C1195 C 0.583 0.45649 0.87627 0.0
C1196 C 0.58446 0.45467 0.9081 0.0
C1197 C 0.59788 0.44147 0.85964 0.0
C1198 C 0.61349 0.42276 0.87509 0.0
C1199 C 0.61497 0.42065 0.9073 0.0
C1200 C 0.60089 0.43716 0.92348 0.0
C1201 C 0.59659 0.44541 0.82545 0.0
C1202 C 0.63019 0.39985 0.9246 0.0
H1203 H 0.61012 0.34581 0.81394 0.0
H1204 H 0.68681 0.40455 0.8259 0.0
H1205 H 0.58115 0.36807 0.87821 0.0
H1206 H 0.56917 0.38126 0.84207 0.0
H1207 H 0.57517 0.34516 0.84627 0.0
H1208 H 0.69205 0.44556 0.85362 0.0
H1209 H 0.66124 0.45968 0.85235 0.0
H1210 H 0.67179 0.44137 0.88612 0.0
H1211 H 0.57015 0.46978 0.86421 0.0
H1212 H 0.60163 0.43527 0.94806 0.0
H1213 H 0.58685 0.42497 0.81499 0.0
H1214 H 0.61744 0.45146 0.81748 0.0
H1215 H 0.58496 0.46217 0.81708 0.0
H1216 H 0.62028 0.37759 0.91913 0.0
H1217 H 0.63068 0.4019 0.94955 0.0
H1218 H 0.65134 0.40319 0.91767 0.0
C1219 C 0.62723 0.61778 0.77898 0.0
C1220 C 0.65521 0.62349 0.77506 0.0
C1221 C 0.61679 0.60279 0.80498 0.0
C1222 C 0.63468 0.59256 0.8272 0.0
C1223 C 0.66272 0.59683 0.82272 0.0
C1224 C 0.67275 0.61269 0.79693 0.0
C1225 C 0.58667 0.59839 0.80896 0.0
C1226 C 0.68207 0.58488 0.84532 0.0
C1227 C 0.61045 0.58389 0.90651 0.0
C1228 C 0.59672 0.55526 0.90723 0.0
C1229 C 0.62371 0.59608 0.88084 0.0
C1230 C 0.62406 0.57887 0.85585 0.0
C1231 C 0.61191 0.54939 0.85741 0.0
C1232 C 0.59774 0.53815 0.88284 0.0
C1233 C 0.63577 0.6278 0.87969 0.0
C1234 C 0.61255 0.52982 0.83191 0.0
H1235 H 0.61341 0.62522 0.76179 0.0
H1236 H 0.69443 0.61709 0.7943 0.0
H1237 H 0.57788 0.57511 0.81059 0.0
H1238 H 0.58313 0.6077 0.83041 0.0
H1239 H 0.57563 0.60837 0.78988 0.0
H1240 H 0.70289 0.58807 0.83726 0.0
H1241 H 0.68318 0.59541 0.86724 0.0
H1242 H 0.6745 0.56158 0.84974 0.0
H1243 H 0.60944 0.59728 0.92527 0.0
H1244 H 0.58709 0.51611 0.88342 0.0
H1245 H 0.62452 0.63884 0.86168 0.0
H1246 H 0.65725 0.63151 0.8738 0.0
H1247 H 0.63489 0.63784 0.90158 0.0
H1248 H 0.59327 0.52791 0.81756 0.0
H1249 H 0.61416 0.50799 0.84114 0.0
H1250 H 0.62973 0.53773 0.81735 0.0
C1251 C 0.64184 0.63152 0.16643 0.0
C1252 C 0.62784 0.64471 0.18613 0.0
C1253 C 0.62782 0.61318 0.14412 0.0
C1254 C 0.59908 0.60814 0.14104 0.0
C1255 C 0.58484 0.62171 0.16046 0.0
C1256 C 0.59932 0.63956 0.18284 0.0
C1257 C 0.64375 0.59888 0.12411 0.0
C1258 C 0.55419 0.61704 0.15792 0.0
C1259 C 0.5594 0.57941 0.06865 0.0
C1260 C 0.54883 0.55101 0.07796 0.0
C1261 C 0.57651 0.5981 0.08862 0.0
C1262 C 0.58364 0.58793 0.11831 0.0
C1263 C 0.57426 0.55877 0.12708 0.0
C1264 C 0.55675 0.54079 0.10695 0.0
C1265 C 0.58581 0.62908 0.07847 0.0
C1266 C 0.58184 0.54676 0.15817 0.0
H1267 H 0.66384 0.63558 0.16834 0.0
H1268 H 0.58814 0.64904 0.19819 0.0
H1269 H 0.63788 0.57522 0.12727 0.0
H1270 H 0.6389 0.60441 0.09988 0.0
H1271 H 0.66603 0.60526 0.12909 0.0
H1272 H 0.54623 0.63033 0.17362 0.0
H1273 H 0.5469 0.62225 0.13436 0.0
H1274 H 0.54548 0.59413 0.16312 0.0
H1275 H 0.55323 0.58743 0.04633 0.0
H1276 H 0.54884 0.51874 0.11412 0.0
H1277 H 0.60812 0.63562 0.08268 0.0
H1278 H 0.57627 0.64296 0.09189 0.0
H1279 H 0.58039 0.63308 0.054 0.0
H1280 H 0.60414 0.55225 0.1632 0.0
H1281 H 0.57525 0.52307 0.16029 0.0
H1282 H 0.57221 0.55648 0.17564 0.0
C1283 C 0.36131 0.60202 0.20093 0.0
C1284 C 0.36437 0.63202 0.19811 0.0
C1285 C 0.37228 0.58674 0.18027 0.0
C1286 C 0.38685 0.60178 0.15617 0.0
C1287 C 0.38904 0.63191 0.15246 0.0
C1288 C 0.37785 0.64665 0.17346 0.0
C1289 C 0.36967 0.55473 0.18558 0.0
C1290 C 0.4042 0.64878 0.12699 0.0
C1291 C 0.44442 0.5709 0.12885 0.0
C1292 C 0.43301 0.55845 0.10161 0.0
C1293 C 0.42955 0.58483 0.14668 0.0
C1294 C 0.40247 0.58665 0.13714 0.0
C1295 C 0.39069 0.57414 0.10969 0.0
C1296 C 0.4061 0.56015 0.09222 0.0
C1297 C 0.44287 0.59742 0.17595 0.0
C1298 C 0.36175 0.57532 0.09901 0.0
H1299 H 0.35123 0.59048 0.22005 0.0
H1300 H 0.37991 0.66974 0.17076 0.0
H1301 H 0.36722 0.54355 0.16391 0.0
H1302 H 0.38841 0.55036 0.1982 0.0
H1303 H 0.3522 0.54545 0.19934 0.0
H1304 H 0.40184 0.67155 0.12542 0.0
H1305 H 0.42615 0.64821 0.13066 0.0
H1306 H 0.39693 0.63896 0.10497 0.0
H1307 H 0.46513 0.56967 0.13653 0.0
H1308 H 0.39702 0.55041 0.07138 0.0
H1309 H 0.43122 0.58724 0.19536 0.0
H1310 H 0.44277 0.62074 0.17554 0.0
H1311 H 0.46419 0.59438 0.18004 0.0
H1312 H 0.34783 0.56435 0.1162 0.0
H1313 H 0.35566 0.56503 0.07697 0.0
H1314 H 0.35911 0.59796 0.09655 0.0
C1315 C 0.62047 0.37874 0.156 0.0
C1316 C 0.63001 0.39562 0.18101 0.0
C1317 C 0.60364 0.38818 0.13236 0.0
C1318 C 0.59564 0.41494 0.134 0.0
C1319 C 0.60592 0.4325 0.15877 0.0
C1320 C 0.62317 0.42273 0.18184 0.0
C1321 C 0.59367 0.36905 0.10612 0.0
C1322 C 0.59765 0.46101 0.16164 0.0
C1323 C 0.56253 0.44978 0.06491 0.0
C1324 C 0.53481 0.44154 0.07011 0.0
C1325 C 0.58257 0.44074 0.08503 0.0
C1326 C 0.57479 0.42343 0.11126 0.0
C1327 C 0.54685 0.41452 0.11623 0.0
C1328 C 0.52728 0.42344 0.09554 0.0
C1329 C 0.61209 0.45026 0.07857 0.0
C1330 C 0.53759 0.39631 0.14401 0.0
H1331 H 0.62595 0.35789 0.15513 0.0
H1332 H 0.63035 0.43575 0.20123 0.0
H1333 H 0.57149 0.36094 0.10684 0.0
H1334 H 0.59711 0.38139 0.08423 0.0
H1335 H 0.60393 0.35037 0.1066 0.0
H1336 H 0.60868 0.47289 0.18118 0.0
H1337 H 0.60149 0.47461 0.14061 0.0
H1338 H 0.57553 0.45749 0.16466 0.0
H1339 H 0.56866 0.46379 0.04543 0.0
H1340 H 0.50601 0.41704 0.10004 0.0
H1341 H 0.62219 0.43147 0.0794 0.0
H1342 H 0.62267 0.46482 0.09628 0.0
H1343 H 0.61471 0.46167 0.05605 0.0
H1344 H 0.54536 0.37602 0.14489 0.0
H1345 H 0.51511 0.39098 0.14445 0.0
H1346 H 0.546 0.40782 0.1648 0.0
loop_
_geom_bond_atom_site_label_1
_geom_bond_atom_site_label_2
_geom_bond_distance
_geom_bond_site_symmetry_2
_ccdc_geom_bond_type
C0 C1 1.391 . S
C0 C4 1.391 . S
C0 H42 0.948 . S
C1 C0 1.391 . S
C1 C2 1.391 . S
C2 C1 1.391 . S
C2 H58 0.947 . S
C2 C59 1.392 . S
C3 C4 1.391 . S
C3 C7 1.397 . S
C3 C59 1.419 . S
C4 C0 1.391 . S
C4 C3 1.391 . S
C4 C5 1.399 . S
C5 C4 1.399 . S
C5 C8 1.396 . S
C5 C17 1.453 . S
C5 C18 1.684 . S
H6 C30 0.948 . S
C7 C3 1.397 . S
C7 C8 1.394 . S
C7 C26 1.723 . S
C8 C5 1.396 . S
C8 C7 1.394 . S
C8 C38 1.723 . S
H9 C32 0.947 . S
H10 C33 0.948 . S
H11 C39 0.982 . S
H12 C40 0.979 . S
H13 C40 0.980 . S
H14 C40 0.983 . S
H15 C39 0.979 . S
H16 C39 0.977 . S
C17 C5 1.453 . S
C17 H46 0.982 . S
C17 H47 0.979 . S
C17 H48 0.977 . S
C18 C5 1.684 . S
C18 H43 0.979 . S
C18 H44 0.980 . S
C18 H45 0.983 . S
C19 C20 1.391 . S
C19 C24 1.391 . S
C19 H49 0.948 . S
C20 C19 1.391 . S
C20 C21 1.391 . S
C21 C20 1.391 . S
C21 C22 1.392 . S
C21 H50 0.947 . S
C22 C21 1.392 . S
C22 C23 1.419 . S
C22 H51 0.948 . S
C23 C22 1.419 . S
C23 C24 1.391 . S
C23 C27 1.397 . S
C24 C19 1.391 . S
C24 C23 1.391 . S
C24 C25 1.399 . S
C25 C24 1.399 . S
C25 C26 1.396 . S
C25 C28 1.453 . S
C25 C29 1.684 . S
C26 C7 1.723 . S
C26 C25 1.396 . S
C26 C27 1.394 . S
C27 C23 1.397 . S
C27 C26 1.394 . S
C27 C37 1.723 . S
C28 C25 1.453 . S
C28 H52 0.982 . S
C28 H53 0.979 . S
C28 H54 0.977 . S
C29 C25 1.684 . S
C29 H55 0.979 . S
C29 H56 0.980 . S
C29 H57 0.983 . S
C30 H6 0.948 . S
C30 C31 1.391 . S
C30 C35 1.391 . S
C31 C30 1.391 . S
C31 C32 1.391 . S
C32 H9 0.947 . S
C32 C31 1.391 . S
C32 C33 1.392 . S
C33 H10 0.948 . S
C33 C32 1.392 . S
C33 C34 1.419 . S
C34 C33 1.419 . S
C34 C35 1.391 . S
C34 C38 1.397 . S
C35 C30 1.391 . S
C35 C34 1.391 . S
C35 C36 1.399 . S
C36 C35 1.399 . S
C36 C37 1.396 . S
C36 C39 1.453 . S
C36 C40 1.684 . S
C37 C27 1.723 . S
C37 C36 1.396 . S
C37 C38 1.394 . S
C38 C8 1.723 . S
C38 C34 1.397 . S
C38 C37 1.394 . S
C39 H11 0.982 . S
C39 H15 0.979 . S
C39 H16 0.977 . S
C39 C36 1.453 . S
C40 H12 0.979 . S
C40 H13 0.980 . S
C40 H14 0.983 . S
C40 C36 1.684 . S
H41 C59 0.948 . S
H42 C0 0.948 . S
H43 C18 0.979 . S
H44 C18 0.980 . S
H45 C18 0.983 . S
H46 C17 0.982 . S
H47 C17 0.979 . S
H48 C17 0.977 . S
H49 C19 0.948 . S
H50 C21 0.947 . S
H51 C22 0.948 . S
H52 C28 0.982 . S
H53 C28 0.979 . S
H54 C28 0.977 . S
H55 C29 0.979 . S
H56 C29 0.980 . S
H57 C29 0.983 . S
H58 C2 0.947 . S
C59 C2 1.392 . S
C59 C3 1.419 . S
C59 H41 0.948 . S
C60 C61 1.391 . S
C60 C64 1.391 . S
C60 H102 0.948 . S
C61 C60 1.391 . S
C61 C62 1.391 . S
C62 C61 1.391 . S
C62 H118 0.947 . S
C62 C119 1.392 . S
C63 C64 1.391 . S
C63 C67 1.397 . S
C63 C119 1.419 . S
C64 C60 1.391 . S
C64 C63 1.391 . S
C64 C65 1.399 . S
C65 C64 1.399 . S
C65 C68 1.396 . S
C65 C77 1.453 . S
C65 C78 1.684 . S
H66 C90 0.948 . S
C67 C63 1.397 . S
C67 C68 1.394 . S
C67 C86 1.723 . S
C68 C65 1.396 . S
C68 C67 1.394 . S
C68 C98 1.723 . S
H69 C92 0.947 . S
H70 C93 0.948 . S
H71 C99 0.982 . S
H72 C100 0.979 . S
H73 C100 0.980 . S
H74 C100 0.983 . S
H75 C99 0.979 . S
H76 C99 0.977 . S
C77 C65 1.453 . S
C77 H106 0.982 . S
C77 H107 0.979 . S
C77 H108 0.977 . S
C78 C65 1.684 . S
C78 H103 0.979 . S
C78 H104 0.980 . S
C78 H105 0.983 . S
C79 C80 1.391 . S
C79 C84 1.391 . S
C79 H109 0.948 . S
C80 C79 1.391 . S
C80 C81 1.391 . S
C81 C80 1.391 . S
C81 C82 1.392 . S
C81 H110 0.947 . S
C82 C81 1.392 . S
C82 C83 1.419 . S
C82 H111 0.948 . S
C83 C82 1.419 . S
C83 C84 1.391 . S
C83 C87 1.397 . S
C84 C79 1.391 . S
C84 C83 1.391 . S
C84 C85 1.399 . S
C85 C84 1.399 . S
C85 C86 1.396 . S
C85 C88 1.453 . S
C85 C89 1.684 . S
C86 C67 1.723 . S
C86 C85 1.396 . S
C86 C87 1.394 . S
C87 C83 1.397 . S
C87 C86 1.394 . S
C87 C97 1.723 . S
C88 C85 1.453 . S
C88 H112 0.982 . S
C88 H113 0.979 . S
C88 H114 0.977 . S
C89 C85 1.684 . S
C89 H115 0.979 . S
C89 H116 0.980 . S
C89 H117 0.983 . S
C90 H66 0.948 . S
C90 C91 1.391 . S
C90 C95 1.391 . S
C91 C90 1.391 . S
C91 C92 1.391 . S
C92 H69 0.947 . S
C92 C91 1.391 . S
C92 C93 1.392 . S
C93 H70 0.948 . S
C93 C92 1.392 . S
C93 C94 1.419 . S
C94 C93 1.419 . S
C94 C95 1.391 . S
C94 C98 1.397 . S
C95 C90 1.391 . S
C95 C94 1.391 . S
C95 C96 1.399 . S
C96 C95 1.399 . S
C96 C97 1.396 . S
C96 C99 1.453 . S
C96 C100 1.684 . S
C97 C87 1.723 . S
C97 C96 1.396 . S
C97 C98 1.394 . S
C98 C68 1.723 . S
C98 C94 1.397 . S
C98 C97 1.394 . S
C99 H71 0.982 . S
C99 H75 0.979 . S
C99 H76 0.977 . S
C99 C96 1.453 . S
C100 H72 0.979 . S
C100 H73 0.980 . S
C100 H74 0.983 . S
C100 C96 1.684 . S
H101 C119 0.948 . S
H102 C60 0.948 . S
H103 C78 0.979 . S
H104 C78 0.980 . S
H105 C78 0.983 . S
H106 C77 0.982 . S
H107 C77 0.979 . S
H108 C77 0.977 . S
H109 C79 0.948 . S
H110 C81 0.947 . S
H111 C82 0.948 . S
H112 C88 0.982 . S
H113 C88 0.979 . S
H114 C88 0.977 . S
H115 C89 0.979 . S
H116 C89 0.980 . S
H117 C89 0.983 . S
H118 C62 0.947 . S
C119 C62 1.392 . S
C119 C63 1.419 . S
C119 H101 0.948 . S
C120 C121 1.391 . S
C120 C124 1.391 . S
C120 H162 0.948 . S
C121 C120 1.391 . S
C121 C122 1.391 . S
C122 C121 1.391 . S
C122 H178 0.947 . S
C122 C179 1.392 . S
C123 C124 1.391 . S
C123 C127 1.397 . S
C123 C179 1.419 . S
C124 C120 1.391 . S
C124 C123 1.391 . S
C124 C125 1.399 . S
C125 C124 1.399 . S
C125 C128 1.396 . S
C125 C137 1.453 . S
C125 C138 1.684 . S
H126 C150 0.948 . S
C127 C123 1.397 . S
C127 C128 1.394 . S
C127 C146 1.723 . S
C128 C125 1.396 . S
C128 C127 1.394 . S
C128 C158 1.723 . S
H129 C152 0.947 . S
H130 C153 0.948 . S
H131 C159 0.982 . S
H132 C160 0.979 . S
H133 C160 0.980 . S
H134 C160 0.983 . S
H135 C159 0.979 . S
H136 C159 0.977 . S
C137 C125 1.453 . S
C137 H166 0.982 . S
C137 H167 0.979 . S
C137 H168 0.977 . S
C138 C125 1.684 . S
C138 H163 0.979 . S
C138 H164 0.980 . S
C138 H165 0.983 . S
C139 C140 1.391 . S
C139 C144 1.391 . S
C139 H169 0.948 . S
C140 C139 1.391 . S
C140 C141 1.391 . S
C141 C140 1.391 . S
C141 C142 1.392 . S
C141 H170 0.947 . S
C142 C141 1.392 . S
C142 C143 1.419 . S
C142 H171 0.948 . S
C143 C142 1.419 . S
C143 C144 1.391 . S
C143 C147 1.397 . S
C144 C139 1.391 . S
C144 C143 1.391 . S
C144 C145 1.399 . S
C145 C144 1.399 . S
C145 C146 1.396 . S
C145 C148 1.453 . S
C145 C149 1.684 . S
C146 C127 1.723 . S
C146 C145 1.396 . S
C146 C147 1.394 . S
C147 C143 1.397 . S
C147 C146 1.394 . S
C147 C157 1.723 . S
C148 C145 1.453 . S
C148 H172 0.982 . S
C148 H173 0.979 . S
C148 H174 0.977 . S
C149 C145 1.684 . S
C149 H175 0.979 . S
C149 H176 0.980 . S
C149 H177 0.983 . S
C150 H126 0.948 . S
C150 C151 1.391 . S
C150 C155 1.391 . S
C151 C150 1.391 . S
C151 C152 1.391 . S
C152 H129 0.947 . S
C152 C151 1.391 . S
C152 C153 1.392 . S
C153 H130 0.948 . S
C153 C152 1.392 . S
C153 C154 1.419 . S
C154 C153 1.419 . S
C154 C155 1.391 . S
C154 C158 1.397 . S
C155 C150 1.391 . S
C155 C154 1.391 . S
C155 C156 1.399 . S
C156 C155 1.399 . S
C156 C157 1.396 . S
C156 C159 1.453 . S
C156 C160 1.684 . S
C157 C147 1.723 . S
C157 C156 1.396 . S
C157 C158 1.394 . S
C158 C128 1.723 . S
C158 C154 1.397 . S
C158 C157 1.394 . S
C159 H131 0.982 . S
C159 H135 0.979 . S
C159 H136 0.977 . S
C159 C156 1.453 . S
C160 H132 0.979 . S
C160 H133 0.980 . S
C160 H134 0.983 . S
C160 C156 1.684 . S
H161 C179 0.948 . S
H162 C120 0.948 . S
H163 C138 0.979 . S
H164 C138 0.980 . S
H165 C138 0.983 . S
H166 C137 0.982 . S
H167 C137 0.979 . S
H168 C137 0.977 . S
H169 C139 0.948 . S
H170 C141 0.947 . S
H171 C142 0.948 . S
H172 C148 0.982 . S
H173 C148 0.979 . S
H174 C148 0.977 . S
H175 C149 0.979 . S
H176 C149 0.980 . S
H177 C149 0.983 . S
H178 C122 0.947 . S
C179 C122 1.392 . S
C179 C123 1.419 . S
C179 H161 0.948 . S
C180 C181 1.391 . S
C180 C184 1.391 . S
C180 H222 0.948 . S
C181 C180 1.391 . S
C181 C182 1.391 . S
C182 C181 1.391 . S
C182 H238 0.947 . S
C182 C239 1.392 . S
C183 C184 1.391 . S
C183 C187 1.397 . S
C183 C239 1.419 . S
C184 C180 1.391 . S
C184 C183 1.391 . S
C184 C185 1.399 . S
C185 C184 1.399 . S
C185 C188 1.396 . S
C185 C197 1.453 . S
C185 C198 1.684 . S
H186 C210 0.948 . S
C187 C183 1.397 . S
C187 C188 1.394 . S
C187 C206 1.723 . S
C188 C185 1.396 . S
C188 C187 1.394 . S
C188 C218 1.723 . S
H189 C212 0.947 . S
H190 C213 0.948 . S
H191 C219 0.982 . S
H192 C220 0.979 . S
H193 C220 0.980 . S
H194 C220 0.983 . S
H195 C219 0.979 . S
H196 C219 0.977 . S
C197 C185 1.453 . S
C197 H226 0.982 . S
C197 H227 0.979 . S
C197 H228 0.977 . S
C198 C185 1.684 . S
C198 H223 0.979 . S
C198 H224 0.980 . S
C198 H225 0.983 . S
C199 C200 1.391 . S
C199 C204 1.391 . S
C199 H229 0.948 . S
C200 C199 1.391 . S
C200 C201 1.391 . S
C201 C200 1.391 . S
C201 C202 1.392 . S
C201 H230 0.947 . S
C202 C201 1.392 . S
C202 C203 1.419 . S
C202 H231 0.948 . S
C203 C202 1.419 . S
C203 C204 1.391 . S
C203 C207 1.397 . S
C204 C199 1.391 . S
C204 C203 1.391 . S
C204 C205 1.399 . S
C205 C204 1.399 . S
C205 C206 1.396 . S
C205 C208 1.453 . S
C205 C209 1.684 . S
C206 C187 1.723 . S
C206 C205 1.396 . S
C206 C207 1.394 . S
C207 C203 1.397 . S
C207 C206 1.394 . S
C207 C217 1.723 . S
C208 C205 1.453 . S
C208 H232 0.982 . S
C208 H233 0.979 . S
C208 H234 0.977 . S
C209 C205 1.684 . S
C209 H235 0.979 . S
C209 H236 0.980 . S
C209 H237 0.983 . S
C210 H186 0.948 . S
C210 C211 1.391 . S
C210 C215 1.391 . S
C211 C210 1.391 . S
C211 C212 1.391 . S
C212 H189 0.947 . S
C212 C211 1.391 . S
C212 C213 1.392 . S
C213 H190 0.948 . S
C213 C212 1.392 . S
C213 C214 1.419 . S
C214 C213 1.419 . S
C214 C215 1.391 . S
C214 C218 1.397 . S
C215 C210 1.391 . S
C215 C214 1.391 . S
C215 C216 1.399 . S
C216 C215 1.399 . S
C216 C217 1.396 . S
C216 C219 1.453 . S
C216 C220 1.684 . S
C217 C207 1.723 . S
C217 C216 1.396 . S
C217 C218 1.394 . S
C218 C188 1.723 . S
C218 C214 1.397 . S
C218 C217 1.394 . S
C219 H191 0.982 . S
C219 H195 0.979 . S
C219 H196 0.977 . S
C219 C216 1.453 . S
C220 H192 0.979 . S
C220 H193 0.980 . S
C220 H194 0.983 . S
C220 C216 1.684 . S
H221 C239 0.948 . S
H222 C180 0.948 . S
H223 C198 0.979 . S
H224 C198 0.980 . S
H225 C198 0.983 . S
H226 C197 0.982 . S
H227 C197 0.979 . S
H228 C197 0.977 . S
H229 C199 0.948 . S
H230 C201 0.947 . S
H231 C202 0.948 . S
H232 C208 0.982 . S
H233 C208 0.979 . S
H234 C208 0.977 . S
H235 C209 0.979 . S
H236 C209 0.980 . S
H237 C209 0.983 . S
H238 C182 0.947 . S
C239 C182 1.392 . S
C239 C183 1.419 . S
C239 H221 0.948 . S
C240 C241 1.391 . S
C240 C244 1.391 . S
C240 H282 0.948 . S
C241 C240 1.391 . S
C241 C242 1.391 . S
C242 C241 1.391 . S
C242 H298 0.947 . S
C242 C299 1.392 . S
C243 C244 1.391 . S
C243 C247 1.397 . S
C243 C299 1.419 . S
C244 C240 1.391 . S
C244 C243 1.391 . S
C244 C245 1.399 . S
C245 C244 1.399 . S
C245 C248 1.396 . S
C245 C257 1.453 . S
C245 C258 1.684 . S
H246 C270 0.948 . S
C247 C243 1.397 . S
C247 C248 1.394 . S
C247 C266 1.723 . S
C248 C245 1.396 . S
C248 C247 1.394 . S
C248 C278 1.723 . S
H249 C272 0.947 . S
H250 C273 0.948 . S
H251 C279 0.982 . S
H252 C280 0.979 . S
H253 C280 0.980 . S
H254 C280 0.983 . S
H255 C279 0.979 . S
H256 C279 0.977 . S
C257 C245 1.453 . S
C257 H286 0.982 . S
C257 H287 0.979 . S
C257 H288 0.977 . S
C258 C245 1.684 . S
C258 H283 0.979 . S
C258 H284 0.980 . S
C258 H285 0.983 . S
C259 C260 1.391 . S
C259 C264 1.391 . S
C259 H289 0.948 . S
C260 C259 1.391 . S
C260 C261 1.391 . S
C261 C260 1.391 . S
C261 C262 1.392 . S
C261 H290 0.947 . S
C262 C261 1.392 . S
C262 C263 1.419 . S
C262 H291 0.948 . S
C263 C262 1.419 . S
C263 C264 1.391 . S
C263 C267 1.397 . S
C264 C259 1.391 . S
C264 C263 1.391 . S
C264 C265 1.399 . S
C265 C264 1.399 . S
C265 C266 1.396 . S
C265 C268 1.453 . S
C265 C269 1.684 . S
C266 C247 1.723 . S
C266 C265 1.396 . S
C266 C267 1.394 . S
C267 C263 1.397 . S
C267 C266 1.394 . S
C267 C277 1.723 . S
C268 C265 1.453 . S
C268 H292 0.982 . S
C268 H293 0.979 . S
C268 H294 0.977 . S
C269 C265 1.684 . S
C269 H295 0.979 . S
C269 H296 0.980 . S
C269 H297 0.983 . S
C270 H246 0.948 . S
C270 C271 1.391 . S
C270 C275 1.391 . S
C271 C270 1.391 . S
C271 C272 1.391 . S
C272 H249 0.947 . S
C272 C271 1.391 . S
C272 C273 1.392 . S
C273 H250 0.948 . S
C273 C272 1.392 . S
C273 C274 1.419 . S
C274 C273 1.419 . S
C274 C275 1.391 . S
C274 C278 1.397 . S
C275 C270 1.391 . S
C275 C274 1.391 . S
C275 C276 1.399 . S
C276 C275 1.399 . S
C276 C277 1.396 . S
C276 C279 1.453 . S
C276 C280 1.684 . S
C277 C267 1.723 . S
C277 C276 1.396 . S
C277 C278 1.394 . S
C278 C248 1.723 . S
C278 C274 1.397 . S
C278 C277 1.394 . S
C279 H251 0.982 . S
C279 H255 0.979 . S
C279 H256 0.977 . S
C279 C276 1.453 . S
C280 H252 0.979 . S
C280 H253 0.980 . S
C280 H254 0.983 . S
C280 C276 1.684 . S
H281 C299 0.948 . S
H282 C240 0.948 . S
H283 C258 0.979 . S
H284 C258 0.980 . S
H285 C258 0.983 . S
H286 C257 0.982 . S
H287 C257 0.979 . S
H288 C257 0.977 . S
H289 C259 0.948 . S
H290 C261 0.947 . S
H291 C262 0.948 . S
H292 C268 0.982 . S
H293 C268 0.979 . S
H294 C268 0.977 . S
H295 C269 0.979 . S
H296 C269 0.980 . S
H297 C269 0.983 . S
H298 C242 0.947 . S
C299 C242 1.392 . S
C299 C243 1.419 . S
C299 H281 0.948 . S
C300 C301 1.391 . S
C300 C304 1.391 . S
C300 H342 0.948 . S
C301 C300 1.391 . S
C301 C302 1.391 . S
C302 C301 1.391 . S
C302 H358 0.947 . S
C302 C359 1.392 . S
C303 C304 1.391 . S
C303 C307 1.397 . S
C303 C359 1.419 . S
C304 C300 1.391 . S
C304 C303 1.391 . S
C304 C305 1.399 . S
C305 C304 1.399 . S
C305 C308 1.396 . S
C305 C317 1.453 . S
C305 C318 1.684 . S
H306 C330 0.948 . S
C307 C303 1.397 . S
C307 C308 1.394 . S
C307 C326 1.723 . S
C308 C305 1.396 . S
C308 C307 1.394 . S
C308 C338 1.723 . S
H309 C332 0.947 . S
H310 C333 0.948 . S
H311 C339 0.982 . S
H312 C340 0.979 . S
H313 C340 0.980 . S
H314 C340 0.983 . S
H315 C339 0.979 . S
H316 C339 0.977 . S
C317 C305 1.453 . S
C317 H346 0.982 . S
C317 H347 0.979 . S
C317 H348 0.977 . S
C318 C305 1.684 . S
C318 H343 0.979 . S
C318 H344 0.980 . S
C318 H345 0.983 . S
C319 C320 1.391 . S
C319 C324 1.391 . S
C319 H349 0.948 . S
C320 C319 1.391 . S
C320 C321 1.391 . S
C321 C320 1.391 . S
C321 C322 1.392 . S
C321 H350 0.947 . S
C322 C321 1.392 . S
C322 C323 1.419 . S
C322 H351 0.948 . S
C323 C322 1.419 . S
C323 C324 1.391 . S
C323 C327 1.397 . S
C324 C319 1.391 . S
C324 C323 1.391 . S
C324 C325 1.399 . S
C325 C324 1.399 . S
C325 C326 1.396 . S
C325 C328 1.453 . S
C325 C329 1.684 . S
C326 C307 1.723 . S
C326 C325 1.396 . S
C326 C327 1.394 . S
C327 C323 1.397 . S
C327 C326 1.394 . S
C327 C337 1.723 . S
C328 C325 1.453 . S
C328 H352 0.982 . S
C328 H353 0.979 . S
C328 H354 0.977 . S
C329 C325 1.684 . S
C329 H355 0.979 . S
C329 H356 0.980 . S
C329 H357 0.983 . S
C330 H306 0.948 . S
C330 C331 1.391 . S
C330 C335 1.391 . S
C331 C330 1.391 . S
C331 C332 1.391 . S
C332 H309 0.947 . S
C332 C331 1.391 . S
C332 C333 1.392 . S
C333 H310 0.948 . S
C333 C332 1.392 . S
C333 C334 1.419 . S
C334 C333 1.419 . S
C334 C335 1.391 . S
C334 C338 1.397 . S
C335 C330 1.391 . S
C335 C334 1.391 . S
C335 C336 1.399 . S
C336 C335 1.399 . S
C336 C337 1.396 . S
C336 C339 1.453 . S
C336 C340 1.684 . S
C337 C327 1.723 . S
C337 C336 1.396 . S
C337 C338 1.394 . S
C338 C308 1.723 . S
C338 C334 1.397 . S
C338 C337 1.394 . S
C339 H311 0.982 . S
C339 H315 0.979 . S
C339 H316 0.977 . S
C339 C336 1.453 . S
C340 H312 0.979 . S
C340 H313 0.980 . S
C340 H314 0.983 . S
C340 C336 1.684 . S
H341 C359 0.948 . S
H342 C300 0.948 . S
H343 C318 0.979 . S
H344 C318 0.980 . S
H345 C318 0.983 . S
H346 C317 0.982 . S
H347 C317 0.979 . S
H348 C317 0.977 . S
H349 C319 0.948 . S
H350 C321 0.947 . S
H351 C322 0.948 . S
H352 C328 0.982 . S
H353 C328 0.979 . S
H354 C328 0.977 . S
H355 C329 0.979 . S
H356 C329 0.980 . S
H357 C329 0.983 . S
H358 C302 0.947 . S
C359 C302 1.392 . S
C359 C303 1.419 . S
C359 H341 0.948 . S
C360 C361 1.391 . S
C360 C364 1.391 . S
C360 H402 0.948 . S
C361 C360 1.391 . S
C361 C362 1.391 . S
C362 C361 1.391 . S
C362 H418 0.947 . S
C362 C419 1.392 . S
C363 C364 1.391 . S
C363 C367 1.397 . S
C363 C419 1.419 . S
C364 C360 1.391 . S
C364 C363 1.391 . S
C364 C365 1.399 . S
C365 C364 1.399 . S
C365 C368 1.396 . S
C365 C377 1.453 . S
C365 C378 1.684 . S
H366 C390 0.948 . S
C367 C363 1.397 . S
C367 C368 1.394 . S
C367 C386 1.723 . S
C368 C365 1.396 . S
C368 C367 1.394 . S
C368 C398 1.723 . S
H369 C392 0.947 . S
H370 C393 0.948 . S
H371 C399 0.982 . S
H372 C400 0.979 . S
H373 C400 0.980 . S
H374 C400 0.983 . S
H375 C399 0.979 . S
H376 C399 0.977 . S
C377 C365 1.453 . S
C377 H406 0.982 . S
C377 H407 0.979 . S
C377 H408 0.977 . S
C378 C365 1.684 . S
C378 H403 0.979 . S
C378 H404 0.980 . S
C378 H405 0.983 . S
C379 C380 1.391 . S
C379 C384 1.391 . S
C379 H409 0.948 . S
C380 C379 1.391 . S
C380 C381 1.391 . S
C381 C380 1.391 . S
C381 C382 1.392 . S
C381 H410 0.947 . S
C382 C381 1.392 . S
C382 C383 1.419 . S
C382 H411 0.948 . S
C383 C382 1.419 . S
C383 C384 1.391 . S
C383 C387 1.397 . S
C384 C379 1.391 . S
C384 C383 1.391 . S
C384 C385 1.399 . S
C385 C384 1.399 . S
C385 C386 1.396 . S
C385 C388 1.453 . S
C385 C389 1.684 . S
C386 C367 1.723 . S
C386 C385 1.396 . S
C386 C387 1.394 . S
C387 C383 1.397 . S
C387 C386 1.394 . S
C387 C397 1.723 . S
C388 C385 1.453 . S
C388 H412 0.982 . S
C388 H413 0.979 . S
C388 H414 0.977 . S
C389 C385 1.684 . S
C389 H415 0.979 . S
C389 H416 0.980 . S
C389 H417 0.983 . S
C390 H366 0.948 . S
C390 C391 1.391 . S
C390 C395 1.391 . S
C391 C390 1.391 . S
C391 C392 1.391 . S
C392 H369 0.947 . S
C392 C391 1.391 . S
C392 C393 1.392 . S
C393 H370 0.948 . S
C393 C392 1.392 . S
C393 C394 1.419 . S
C394 C393 1.419 . S
C394 C395 1.391 . S
C394 C398 1.397 . S
C395 C390 1.391 . S
C395 C394 1.391 . S
C395 C396 1.399 . S
C396 C395 1.399 . S
C396 C397 1.396 . S
C396 C399 1.453 . S
C396 C400 1.684 . S
C397 C387 1.723 . S
C397 C396 1.396 . S
C397 C398 1.394 . S
C398 C368 1.723 . S
C398 C394 1.397 . S
C398 C397 1.394 . S
C399 H371 0.982 . S
C399 H375 0.979 . S
C399 H376 0.977 . S
C399 C396 1.453 . S
C400 H372 0.979 . S
C400 H373 0.980 . S
C400 H374 0.983 . S
C400 C396 1.684 . S
H401 C419 0.948 . S
H402 C360 0.948 . S
H403 C378 0.979 . S
H404 C378 0.980 . S
H405 C378 0.983 . S
H406 C377 0.982 . S
H407 C377 0.979 . S
H408 C377 0.977 . S
H409 C379 0.948 . S
H410 C381 0.947 . S
H411 C382 0.948 . S
H412 C388 0.982 . S
H413 C388 0.979 . S
H414 C388 0.977 . S
H415 C389 0.979 . S
H416 C389 0.980 . S
H417 C389 0.983 . S
H418 C362 0.947 . S
C419 C362 1.392 . S
C419 C363 1.419 . S
C419 H401 0.948 . S
C420 C421 1.391 . S
C420 C424 1.391 . S
C420 H462 0.948 . S
C421 C420 1.391 . S
C421 C422 1.391 . S
C422 C421 1.391 . S
C422 H478 0.947 . S
C422 C479 1.392 . S
C423 C424 1.391 . S
C423 C427 1.397 . S
C423 C479 1.419 . S
C424 C420 1.391 . S
C424 C423 1.391 . S
C424 C425 1.399 . S
C425 C424 1.399 . S
C425 C428 1.396 . S
C425 C437 1.453 . S
C425 C438 1.684 . S
H426 C450 0.948 . S
C427 C423 1.397 . S
C427 C428 1.394 . S
C427 C446 1.723 . S
C428 C425 1.396 . S
C428 C427 1.394 . S
C428 C458 1.723 . S
H429 C452 0.947 . S
H430 C453 0.948 . S
H431 C459 0.982 . S
H432 C460 0.979 . S
H433 C460 0.980 . S
H434 C460 0.983 . S
H435 C459 0.979 . S
H436 C459 0.977 . S
C437 C425 1.453 . S
C437 H466 0.982 . S
C437 H467 0.979 . S
C437 H468 0.977 . S
C438 C425 1.684 . S
C438 H463 0.979 . S
C438 H464 0.980 . S
C438 H465 0.983 . S
C439 C440 1.391 . S
C439 C444 1.391 . S
C439 H469 0.948 . S
C440 C439 1.391 . S
C440 C441 1.391 . S
C441 C440 1.391 . S
C441 C442 1.392 . S
C441 H470 0.947 . S
C442 C441 1.392 . S
C442 C443 1.419 . S
C442 H471 0.948 . S
C443 C442 1.419 . S
C443 C444 1.391 . S
C443 C447 1.397 . S
C444 C439 1.391 . S
C444 C443 1.391 . S
C444 C445 1.399 . S
C445 C444 1.399 . S
C445 C446 1.396 . S
C445 C448 1.453 . S
C445 C449 1.684 . S
C446 C427 1.723 . S
C446 C445 1.396 . S
C446 C447 1.394 . S
C447 C443 1.397 . S
C447 C446 1.394 . S
C447 C457 1.723 . S
C448 C445 1.453 . S
C448 H472 0.982 . S
C448 H473 0.979 . S
C448 H474 0.977 . S
C449 C445 1.684 . S
C449 H475 0.979 . S
C449 H476 0.980 . S
C449 H477 0.983 . S
C450 H426 0.948 . S
C450 C451 1.391 . S
C450 C455 1.391 . S
C451 C450 1.391 . S
C451 C452 1.391 . S
C452 H429 0.947 . S
C452 C451 1.391 . S
C452 C453 1.392 . S
C453 H430 0.948 . S
C453 C452 1.392 . S
C453 C454 1.419 . S
C454 C453 1.419 . S
C454 C455 1.391 . S
C454 C458 1.397 . S
C455 C450 1.391 . S
C455 C454 1.391 . S
C455 C456 1.399 . S
C456 C455 1.399 . S
C456 C457 1.396 . S
C456 C459 1.453 . S
C456 C460 1.684 . S
C457 C447 1.723 . S
C457 C456 1.396 . S
C457 C458 1.394 . S
C458 C428 1.723 . S
C458 C454 1.397 . S
C458 C457 1.394 . S
C459 H431 0.982 . S
C459 H435 0.979 . S
C459 H436 0.977 . S
C459 C456 1.453 . S
C460 H432 0.979 . S
C460 H433 0.980 . S
C460 H434 0.983 . S
C460 C456 1.684 . S
H461 C479 0.948 . S
H462 C420 0.948 . S
H463 C438 0.979 . S
H464 C438 0.980 . S
H465 C438 0.983 . S
H466 C437 0.982 . S
H467 C437 0.979 . S
H468 C437 0.977 . S
H469 C439 0.948 . S
H470 C441 0.947 . S
H471 C442 0.948 . S
H472 C448 0.982 . S
H473 C448 0.979 . S
H474 C448 0.977 . S
H475 C449 0.979 . S
H476 C449 0.980 . S
H477 C449 0.983 . S
H478 C422 0.947 . S
C479 C422 1.392 . S
C479 C423 1.419 . S
C479 H461 0.948 . S
Co480 O483 2.042 . S
Co480 O490 2.264 . S
Co480 O509 2.286 . S
Co480 O510 2.069 . S
Co480 O512 2.015 . S
Co481 O483 2.122 . S
Co481 O489 2.073 . S
Co481 O490 2.327 . S
Co481 O491 1.976 . S
Co482 O483 2.107 . S
Co482 O485 2.067 1_455 S
Co482 O492 2.121 . S
Co482 O493 2.130 1_455 S
Co482 O497 2.101 1_455 S
Co482 O511 2.157 . S
O483 Co480 2.042 . S
O483 Co481 2.122 . S
O483 Co482 2.107 . S
O483 H484 0.980 . S
H484 O483 0.980 . S
O485 Co482 2.067 1_655 S
O485 Co486 2.042 . S
O485 Co487 2.122 . S
O485 H488 0.980 . S
Co486 O485 2.042 . S
Co486 O494 2.286 . S
Co486 O495 2.069 . S
Co486 O496 2.015 . S
Co486 O499 2.264 . S
Co487 O485 2.122 . S
Co487 O498 1.976 . S
Co487 O499 2.327 . S
Co487 O500 2.073 . S
H488 O485 0.980 . S
O489 Co481 2.073 . S
O489 C504 1.245 . S
O490 Co480 2.264 . S
O490 Co481 2.327 . S
O490 C504 1.257 . S
O491 Co481 1.976 . S
O491 C503 1.251 . S
O492 Co482 2.121 . S
O492 C503 1.274 . S
O493 Co482 2.130 1_655 S
O493 C506 1.246 . S
O494 Co486 2.286 . S
O494 C505 1.259 . S
O495 Co486 2.069 . S
O495 C505 1.289 . S
O496 Co486 2.015 . S
O496 C506 1.257 . S
O497 Co482 2.101 1_655 S
O497 C507 1.274 . S
O498 Co487 1.976 . S
O498 C507 1.251 . S
O499 Co486 2.264 . S
O499 Co487 2.327 . S
O499 C508 1.257 . S
O500 Co487 2.073 . S
O500 C508 1.245 . S
C501 O509 1.259 . S
C501 O510 1.289 . S
C502 O511 1.246 . S
C502 O512 1.257 . S
C503 O491 1.251 . S
C503 O492 1.274 . S
C504 O489 1.245 . S
C504 O490 1.257 . S
C505 O494 1.259 . S
C505 O495 1.289 . S
C506 O493 1.246 . S
C506 O496 1.257 . S
C507 O497 1.274 . S
C507 O498 1.251 . S
C508 O499 1.257 . S
C508 O500 1.245 . S
O509 Co480 2.286 . S
O509 C501 1.259 . S
O510 Co480 2.069 . S
O510 C501 1.289 . S
O511 Co482 2.157 . S
O511 C502 1.246 . S
O512 Co480 2.015 . S
O512 C502 1.257 . S
Co513 O516 2.042 . S
Co513 O523 2.264 . S
Co513 O542 2.286 . S
Co513 O543 2.069 . S
Co513 O545 2.015 . S
Co514 O516 2.122 . S
Co514 O522 2.073 . S
Co514 O523 2.327 . S
Co514 O524 1.976 . S
Co515 O516 2.068 1_545 S
Co515 O518 2.106 . S
Co515 O525 2.103 1_545 S
Co515 O526 2.157 . S
Co515 O530 2.120 . S
Co515 O544 2.130 1_545 S
O516 Co513 2.042 . S
O516 Co514 2.122 . S
O516 Co515 2.068 1_565 S
O516 H517 0.980 . S
H517 O516 0.980 . S
O518 Co515 2.106 . S
O518 Co519 2.042 . S
O518 Co520 2.122 . S
O518 H521 0.980 . S
Co519 O518 2.042 . S
Co519 O527 2.286 . S
Co519 O528 2.069 . S
Co519 O529 2.015 . S
Co519 O532 2.264 . S
Co520 O518 2.122 . S
Co520 O531 1.976 . S
Co520 O532 2.327 . S
Co520 O533 2.073 . S
H521 O518 0.980 . S
O522 Co514 2.073 . S
O522 C537 1.245 . S
O523 Co513 2.264 . S
O523 Co514 2.327 . S
O523 C537 1.257 . S
O524 Co514 1.976 . S
O524 C536 1.251 . S
O525 Co515 2.103 1_565 S
O525 C536 1.274 . S
O526 Co515 2.157 . S
O526 C539 1.246 . S
O527 Co519 2.286 . S
O527 C538 1.259 . S
O528 Co519 2.069 . S
O528 C538 1.289 . S
O529 Co519 2.015 . S
O529 C539 1.257 . S
O530 Co515 2.120 . S
O530 C540 1.274 . S
O531 Co520 1.976 . S
O531 C540 1.251 . S
O532 Co519 2.264 . S
O532 Co520 2.327 . S
O532 C541 1.257 . S
O533 Co520 2.073 . S
O533 C541 1.245 . S
C534 O542 1.259 . S
C534 O543 1.289 . S
C535 O544 1.246 . S
C535 O545 1.257 . S
C536 O524 1.251 . S
C536 O525 1.274 . S
C537 O522 1.245 . S
C537 O523 1.257 . S
C538 O527 1.259 . S
C538 O528 1.289 . S
C539 O526 1.246 . S
C539 O529 1.257 . S
C540 O530 1.274 . S
C540 O531 1.251 . S
C541 O532 1.257 . S
C541 O533 1.245 . S
O542 Co513 2.286 . S
O542 C534 1.259 . S
O543 Co513 2.069 . S
O543 C534 1.289 . S
O544 Co515 2.130 1_565 S
O544 C535 1.246 . S
O545 Co513 2.015 . S
O545 C535 1.257 . S
Co546 O549 2.042 . S
Co546 O556 2.264 . S
Co546 O575 2.286 . S
Co546 O576 2.069 . S
Co546 O578 2.015 . S
Co547 O549 2.122 . S
Co547 O555 2.073 . S
Co547 O556 2.327 . S
Co547 O557 1.976 . S
Co548 O549 2.095 . S
Co548 O551 2.079 1_554 S
Co548 O558 2.115 . S
Co548 O559 2.137 1_554 S
Co548 O563 2.107 1_554 S
Co548 O577 2.150 . S
O549 Co546 2.042 . S
O549 Co547 2.122 . S
O549 Co548 2.095 . S
O549 H550 0.980 . S
H550 O549 0.980 . S
O551 Co548 2.079 1_556 S
O551 Co552 2.042 . S
O551 Co553 2.122 . S
O551 H554 0.980 . S
Co552 O551 2.042 . S
Co552 O560 2.286 . S
Co552 O561 2.069 . S
Co552 O562 2.015 . S
Co552 O565 2.264 . S
Co553 O551 2.122 . S
Co553 O564 1.976 . S
Co553 O565 2.327 . S
Co553 O566 2.073 . S
H554 O551 0.980 . S
O555 Co547 2.073 . S
O555 C570 1.245 . S
O556 Co546 2.264 . S
O556 Co547 2.327 . S
O556 C570 1.257 . S
O557 Co547 1.976 . S
O557 C569 1.251 . S
O558 Co548 2.115 . S
O558 C569 1.274 . S
O559 Co548 2.137 1_556 S
O559 C572 1.246 . S
O560 Co552 2.286 . S
O560 C571 1.259 . S
O561 Co552 2.069 . S
O561 C571 1.289 . S
O562 Co552 2.015 . S
O562 C572 1.257 . S
O563 Co548 2.107 1_556 S
O563 C573 1.274 . S
O564 Co553 1.976 . S
O564 C573 1.251 . S
O565 Co552 2.264 . S
O565 Co553 2.327 . S
O565 C574 1.257 . S
O566 Co553 2.073 . S
O566 C574 1.245 . S
C567 O575 1.259 . S
C567 O576 1.289 . S
C568 O577 1.246 . S
C568 O578 1.257 . S
C569 O557 1.251 . S
C569 O558 1.274 . S
C570 O555 1.245 . S
C570 O556 1.257 . S
C571 O560 1.259 . S
C571 O561 1.289 . S
C572 O559 1.246 . S
C572 O562 1.257 . S
C573 O563 1.274 . S
C573 O564 1.251 . S
C574 O565 1.257 . S
C574 O566 1.245 . S
O575 Co546 2.286 . S
O575 C567 1.259 . S
O576 Co546 2.069 . S
O576 C567 1.289 . S
O577 Co548 2.150 . S
O577 C568 1.246 . S
O578 Co546 2.015 . S
O578 C568 1.257 . S
C579 C580 1.391 . S
C579 C581 1.394 . S
C579 H595 0.931 . S
C580 C579 1.391 . S
C580 C584 1.376 . S
C581 C579 1.394 . S
C581 C582 1.369 . S
C581 C585 1.531 . S
C582 C581 1.369 . S
C582 C583 1.410 . S
C582 C590 1.503 . S
C583 C582 1.410 . S
C583 C584 1.392 . S
C583 C586 1.511 . S
C584 C580 1.376 . S
C584 C583 1.392 . S
C584 H596 0.929 . S
C585 C581 1.531 . S
C585 H597 0.960 . S
C585 H598 0.962 . S
C585 H599 0.960 . S
C586 C583 1.511 . S
C586 H600 0.961 . S
C586 H601 0.961 . S
C586 H602 0.961 . S
C587 C588 1.370 . S
C587 C589 1.363 . S
C587 H603 0.931 . S
C588 C587 1.370 . S
C588 C592 1.408 . S
C589 C587 1.363 . S
C589 C590 1.370 . S
C589 C593 1.524 . S
C590 C582 1.503 . S
C590 C589 1.370 . S
C590 C591 1.403 . S
C591 C590 1.403 . S
C591 C592 1.404 . S
C591 C594 1.539 . S
C592 C588 1.408 . S
C592 C591 1.404 . S
C592 H604 0.930 . S
C593 C589 1.524 . S
C593 H605 0.956 . S
C593 H606 0.961 . S
C593 H607 0.961 . S
C594 C591 1.539 . S
C594 H608 0.958 . S
C594 H609 0.961 . S
C594 H610 0.960 . S
H595 C579 0.931 . S
H596 C584 0.929 . S
H597 C585 0.960 . S
H598 C585 0.962 . S
H599 C585 0.960 . S
H600 C586 0.961 . S
H601 C586 0.961 . S
H602 C586 0.961 . S
H603 C587 0.931 . S
H604 C592 0.930 . S
H605 C593 0.956 . S
H606 C593 0.961 . S
H607 C593 0.961 . S
H608 C594 0.958 . S
H609 C594 0.961 . S
H610 C594 0.960 . S
C611 C612 1.391 . S
C611 C613 1.394 . S
C611 H627 0.931 . S
C612 C611 1.391 . S
C612 C616 1.376 . S
C613 C611 1.394 . S
C613 C614 1.369 . S
C613 C617 1.531 . S
C614 C613 1.369 . S
C614 C615 1.410 . S
C614 C622 1.503 . S
C615 C614 1.410 . S
C615 C616 1.392 . S
C615 C618 1.511 . S
C616 C612 1.376 . S
C616 C615 1.392 . S
C616 H628 0.929 . S
C617 C613 1.531 . S
C617 H629 0.960 . S
C617 H630 0.962 . S
C617 H631 0.960 . S
C618 C615 1.511 . S
C618 H632 0.961 . S
C618 H633 0.961 . S
C618 H634 0.961 . S
C619 C620 1.370 . S
C619 C621 1.363 . S
C619 H635 0.931 . S
C620 C619 1.370 . S
C620 C624 1.408 . S
C621 C619 1.363 . S
C621 C622 1.370 . S
C621 C625 1.524 . S
C622 C614 1.503 . S
C622 C621 1.370 . S
C622 C623 1.403 . S
C623 C622 1.403 . S
C623 C624 1.404 . S
C623 C626 1.539 . S
C624 C620 1.408 . S
C624 C623 1.404 . S
C624 H636 0.930 . S
C625 C621 1.524 . S
C625 H637 0.956 . S
C625 H638 0.961 . S
C625 H639 0.961 . S
C626 C623 1.539 . S
C626 H640 0.958 . S
C626 H641 0.961 . S
C626 H642 0.960 . S
H627 C611 0.931 . S
H628 C616 0.929 . S
H629 C617 0.960 . S
H630 C617 0.962 . S
H631 C617 0.960 . S
H632 C618 0.961 . S
H633 C618 0.961 . S
H634 C618 0.961 . S
H635 C619 0.931 . S
H636 C624 0.930 . S
H637 C625 0.956 . S
H638 C625 0.961 . S
H639 C625 0.961 . S
H640 C626 0.958 . S
H641 C626 0.961 . S
H642 C626 0.960 . S
C643 C644 1.391 . S
C643 C645 1.394 . S
C643 H659 0.931 . S
C644 C643 1.391 . S
C644 C648 1.376 . S
C645 C643 1.394 . S
C645 C646 1.369 . S
C645 C649 1.531 . S
C646 C645 1.369 . S
C646 C647 1.410 . S
C646 C654 1.503 . S
C647 C646 1.410 . S
C647 C648 1.392 . S
C647 C650 1.511 . S
C648 C644 1.376 . S
C648 C647 1.392 . S
C648 H660 0.929 . S
C649 C645 1.531 . S
C649 H661 0.960 . S
C649 H662 0.962 . S
C649 H663 0.960 . S
C650 C647 1.511 . S
C650 H664 0.961 . S
C650 H665 0.961 . S
C650 H666 0.961 . S
C651 C652 1.370 . S
C651 C653 1.363 . S
C651 H667 0.931 . S
C652 C651 1.370 . S
C652 C656 1.408 . S
C653 C651 1.363 . S
C653 C654 1.370 . S
C653 C657 1.524 . S
C654 C646 1.503 . S
C654 C653 1.370 . S
C654 C655 1.403 . S
C655 C654 1.403 . S
C655 C656 1.404 . S
C655 C658 1.539 . S
C656 C652 1.408 . S
C656 C655 1.404 . S
C656 H668 0.930 . S
C657 C653 1.524 . S
C657 H669 0.956 . S
C657 H670 0.961 . S
C657 H671 0.961 . S
C658 C655 1.539 . S
C658 H672 0.958 . S
C658 H673 0.961 . S
C658 H674 0.960 . S
H659 C643 0.931 . S
H660 C648 0.929 . S
H661 C649 0.960 . S
H662 C649 0.962 . S
H663 C649 0.960 . S
H664 C650 0.961 . S
H665 C650 0.961 . S
H666 C650 0.961 . S
H667 C651 0.931 . S
H668 C656 0.930 . S
H669 C657 0.956 . S
H670 C657 0.961 . S
H671 C657 0.961 . S
H672 C658 0.958 . S
H673 C658 0.961 . S
H674 C658 0.960 . S
C675 C676 1.391 . S
C675 C677 1.394 . S
C675 H691 0.931 . S
C676 C675 1.391 . S
C676 C680 1.376 . S
C677 C675 1.394 . S
C677 C678 1.369 . S
C677 C681 1.531 . S
C678 C677 1.369 . S
C678 C679 1.410 . S
C678 C686 1.503 . S
C679 C678 1.410 . S
C679 C680 1.392 . S
C679 C682 1.511 . S
C680 C676 1.376 . S
C680 C679 1.392 . S
C680 H692 0.929 . S
C681 C677 1.531 . S
C681 H693 0.960 . S
C681 H694 0.962 . S
C681 H695 0.960 . S
C682 C679 1.511 . S
C682 H696 0.961 . S
C682 H697 0.961 . S
C682 H698 0.961 . S
C683 C684 1.370 . S
C683 C685 1.363 . S
C683 H699 0.931 . S
C684 C683 1.370 . S
C684 C688 1.408 . S
C685 C683 1.363 . S
C685 C686 1.370 . S
C685 C689 1.524 . S
C686 C678 1.503 . S
C686 C685 1.370 . S
C686 C687 1.403 . S
C687 C686 1.403 . S
C687 C688 1.404 . S
C687 C690 1.539 . S
C688 C684 1.408 . S
C688 C687 1.404 . S
C688 H700 0.930 . S
C689 C685 1.524 . S
C689 H701 0.956 . S
C689 H702 0.961 . S
C689 H703 0.961 . S
C690 C687 1.539 . S
C690 H704 0.958 . S
C690 H705 0.961 . S
C690 H706 0.960 . S
H691 C675 0.931 . S
H692 C680 0.929 . S
H693 C681 0.960 . S
H694 C681 0.962 . S
H695 C681 0.960 . S
H696 C682 0.961 . S
H697 C682 0.961 . S
H698 C682 0.961 . S
H699 C683 0.931 . S
H700 C688 0.930 . S
H701 C689 0.956 . S
H702 C689 0.961 . S
H703 C689 0.961 . S
H704 C690 0.958 . S
H705 C690 0.961 . S
H706 C690 0.960 . S
C707 C708 1.391 . S
C707 C709 1.394 . S
C707 H723 0.931 . S
C708 C707 1.391 . S
C708 C712 1.376 . S
C709 C707 1.394 . S
C709 C710 1.369 . S
C709 C713 1.531 . S
C710 C709 1.369 . S
C710 C711 1.410 . S
C710 C718 1.503 . S
C711 C710 1.410 . S
C711 C712 1.392 . S
C711 C714 1.511 . S
C712 C708 1.376 . S
C712 C711 1.392 . S
C712 H724 0.929 . S
C713 C709 1.531 . S
C713 H725 0.960 . S
C713 H726 0.962 . S
C713 H727 0.960 . S
C714 C711 1.511 . S
C714 H728 0.961 . S
C714 H729 0.961 . S
C714 H730 0.961 . S
C715 C716 1.370 . S
C715 C717 1.363 . S
C715 H731 0.931 . S
C716 C715 1.370 . S
C716 C720 1.408 . S
C717 C715 1.363 . S
C717 C718 1.370 . S
C717 C721 1.524 . S
C718 C710 1.503 . S
C718 C717 1.370 . S
C718 C719 1.403 . S
C719 C718 1.403 . S
C719 C720 1.404 . S
C719 C722 1.539 . S
C720 C716 1.408 . S
C720 C719 1.404 . S
C720 H732 0.930 . S
C721 C717 1.524 . S
C721 H733 0.956 . S
C721 H734 0.961 . S
C721 H735 0.961 . S
C722 C719 1.539 . S
C722 H736 0.958 . S
C722 H737 0.961 . S
C722 H738 0.960 . S
H723 C707 0.931 . S
H724 C712 0.929 . S
H725 C713 0.960 . S
H726 C713 0.962 . S
H727 C713 0.960 . S
H728 C714 0.961 . S
H729 C714 0.961 . S
H730 C714 0.961 . S
H731 C715 0.931 . S
H732 C720 0.930 . S
H733 C721 0.956 . S
H734 C721 0.961 . S
H735 C721 0.961 . S
H736 C722 0.958 . S
H737 C722 0.961 . S
H738 C722 0.960 . S
C739 C740 1.391 . S
C739 C741 1.394 . S
C739 H755 0.931 . S
C740 C739 1.391 . S
C740 C744 1.376 . S
C741 C739 1.394 . S
C741 C742 1.369 . S
C741 C745 1.531 . S
C742 C741 1.369 . S
C742 C743 1.410 . S
C742 C750 1.503 . S
C743 C742 1.410 . S
C743 C744 1.392 . S
C743 C746 1.511 . S
C744 C740 1.376 . S
C744 C743 1.392 . S
C744 H756 0.929 . S
C745 C741 1.531 . S
C745 H757 0.960 . S
C745 H758 0.962 . S
C745 H759 0.960 . S
C746 C743 1.511 . S
C746 H760 0.961 . S
C746 H761 0.961 . S
C746 H762 0.961 . S
C747 C748 1.370 . S
C747 C749 1.363 . S
C747 H763 0.931 . S
C748 C747 1.370 . S
C748 C752 1.408 . S
C749 C747 1.363 . S
C749 C750 1.370 . S
C749 C753 1.524 . S
C750 C742 1.503 . S
C750 C749 1.370 . S
C750 C751 1.403 . S
C751 C750 1.403 . S
C751 C752 1.404 . S
C751 C754 1.539 . S
C752 C748 1.408 . S
C752 C751 1.404 . S
C752 H764 0.930 . S
C753 C749 1.524 . S
C753 H765 0.956 . S
C753 H766 0.961 . S
C753 H767 0.961 . S
C754 C751 1.539 . S
C754 H768 0.958 . S
C754 H769 0.961 . S
C754 H770 0.960 . S
H755 C739 0.931 . S
H756 C744 0.929 . S
H757 C745 0.960 . S
H758 C745 0.962 . S
H759 C745 0.960 . S
H760 C746 0.961 . S
H761 C746 0.961 . S
H762 C746 0.961 . S
H763 C747 0.931 . S
H764 C752 0.930 . S
H765 C753 0.956 . S
H766 C753 0.961 . S
H767 C753 0.961 . S
H768 C754 0.958 . S
H769 C754 0.961 . S
H770 C754 0.960 . S
C771 C772 1.391 . S
C771 C773 1.394 . S
C771 H787 0.931 . S
C772 C771 1.391 . S
C772 C776 1.376 . S
C773 C771 1.394 . S
C773 C774 1.369 . S
C773 C777 1.531 . S
C774 C773 1.369 . S
C774 C775 1.410 . S
C774 C782 1.503 . S
C775 C774 1.410 . S
C775 C776 1.392 . S
C775 C778 1.511 . S
C776 C772 1.376 . S
C776 C775 1.392 . S
C776 H788 0.929 . S
C777 C773 1.531 . S
C777 H789 0.960 . S
C777 H790 0.962 . S
C777 H791 0.960 . S
C778 C775 1.511 . S
C778 H792 0.961 . S
C778 H793 0.961 . S
C778 H794 0.961 . S
C779 C780 1.370 . S
C779 C781 1.363 . S
C779 H795 0.931 . S
C780 C779 1.370 . S
C780 C784 1.408 . S
C781 C779 1.363 . S
C781 C782 1.370 . S
C781 C785 1.524 . S
C782 C774 1.503 . S
C782 C781 1.370 . S
C782 C783 1.403 . S
C783 C782 1.403 . S
C783 C784 1.404 . S
C783 C786 1.539 . S
C784 C780 1.408 . S
C784 C783 1.404 . S
C784 H796 0.930 . S
C785 C781 1.524 . S
C785 H797 0.956 . S
C785 H798 0.961 . S
C785 H799 0.961 . S
C786 C783 1.539 . S
C786 H800 0.958 . S
C786 H801 0.961 . S
C786 H802 0.960 . S
H787 C771 0.931 . S
H788 C776 0.929 . S
H789 C777 0.960 . S
H790 C777 0.962 . S
H791 C777 0.960 . S
H792 C778 0.961 . S
H793 C778 0.961 . S
H794 C778 0.961 . S
H795 C779 0.931 . S
H796 C784 0.930 . S
H797 C785 0.956 . S
H798 C785 0.961 . S
H799 C785 0.961 . S
H800 C786 0.958 . S
H801 C786 0.961 . S
H802 C786 0.960 . S
C803 C804 1.391 . S
C803 C805 1.394 . S
C803 H819 0.931 . S
C804 C803 1.391 . S
C804 C808 1.376 . S
C805 C803 1.394 . S
C805 C806 1.369 . S
C805 C809 1.531 . S
C806 C805 1.369 . S
C806 C807 1.410 . S
C806 C814 1.503 . S
C807 C806 1.410 . S
C807 C808 1.392 . S
C807 C810 1.511 . S
C808 C804 1.376 . S
C808 C807 1.392 . S
C808 H820 0.929 . S
C809 C805 1.531 . S
C809 H821 0.960 . S
C809 H822 0.962 . S
C809 H823 0.960 . S
C810 C807 1.511 . S
C810 H824 0.961 . S
C810 H825 0.961 . S
C810 H826 0.961 . S
C811 C812 1.370 . S
C811 C813 1.363 . S
C811 H827 0.931 . S
C812 C811 1.370 . S
C812 C816 1.408 . S
C813 C811 1.363 . S
C813 C814 1.370 . S
C813 C817 1.524 . S
C814 C806 1.503 . S
C814 C813 1.370 . S
C814 C815 1.403 . S
C815 C814 1.403 . S
C815 C816 1.404 . S
C815 C818 1.539 . S
C816 C812 1.408 . S
C816 C815 1.404 . S
C816 H828 0.930 . S
C817 C813 1.524 . S
C817 H829 0.956 . S
C817 H830 0.961 . S
C817 H831 0.961 . S
C818 C815 1.539 . S
C818 H832 0.958 . S
C818 H833 0.961 . S
C818 H834 0.960 . S
H819 C803 0.931 . S
H820 C808 0.929 . S
H821 C809 0.960 . S
H822 C809 0.962 . S
H823 C809 0.960 . S
H824 C810 0.961 . S
H825 C810 0.961 . S
H826 C810 0.961 . S
H827 C811 0.931 . S
H828 C816 0.930 . S
H829 C817 0.956 . S
H830 C817 0.961 . S
H831 C817 0.961 . S
H832 C818 0.958 . S
H833 C818 0.961 . S
H834 C818 0.960 . S
C835 C836 1.391 . S
C835 C837 1.394 . S
C835 H851 0.931 . S
C836 C835 1.391 . S
C836 C840 1.376 . S
C837 C835 1.394 . S
C837 C838 1.369 . S
C837 C841 1.531 . S
C838 C837 1.369 . S
C838 C839 1.410 . S
C838 C846 1.503 . S
C839 C838 1.410 . S
C839 C840 1.392 . S
C839 C842 1.511 . S
C840 C836 1.376 . S
C840 C839 1.392 . S
C840 H852 0.929 . S
C841 C837 1.531 . S
C841 H853 0.960 . S
C841 H854 0.962 . S
C841 H855 0.960 . S
C842 C839 1.511 . S
C842 H856 0.961 . S
C842 H857 0.961 . S
C842 H858 0.961 . S
C843 C844 1.370 . S
C843 C845 1.363 . S
C843 H859 0.931 . S
C844 C843 1.370 . S
C844 C848 1.408 . S
C845 C843 1.363 . S
C845 C846 1.370 . S
C845 C849 1.524 . S
C846 C838 1.503 . S
C846 C845 1.370 . S
C846 C847 1.403 . S
C847 C846 1.403 . S
C847 C848 1.404 . S
C847 C850 1.539 . S
C848 C844 1.408 . S
C848 C847 1.404 . S
C848 H860 0.930 . S
C849 C845 1.524 . S
C849 H861 0.956 . S
C849 H862 0.961 . S
C849 H863 0.961 . S
C850 C847 1.539 . S
C850 H864 0.958 . S
C850 H865 0.961 . S
C850 H866 0.960 . S
H851 C835 0.931 . S
H852 C840 0.929 . S
H853 C841 0.960 . S
H854 C841 0.962 . S
H855 C841 0.960 . S
H856 C842 0.961 . S
H857 C842 0.961 . S
H858 C842 0.961 . S
H859 C843 0.931 . S
H860 C848 0.930 . S
H861 C849 0.956 . S
H862 C849 0.961 . S
H863 C849 0.961 . S
H864 C850 0.958 . S
H865 C850 0.961 . S
H866 C850 0.960 . S
C867 C868 1.391 . S
C867 C869 1.394 . S
C867 H883 0.931 . S
C868 C867 1.391 . S
C868 C872 1.376 . S
C869 C867 1.394 . S
C869 C870 1.369 . S
C869 C873 1.531 . S
C870 C869 1.369 . S
C870 C871 1.410 . S
C870 C878 1.503 . S
C871 C870 1.410 . S
C871 C872 1.392 . S
C871 C874 1.511 . S
C872 C868 1.376 . S
C872 C871 1.392 . S
C872 H884 0.929 . S
C873 C869 1.531 . S
C873 H885 0.960 . S
C873 H886 0.962 . S
C873 H887 0.960 . S
C874 C871 1.511 . S
C874 H888 0.961 . S
C874 H889 0.961 . S
C874 H890 0.961 . S
C875 C876 1.370 . S
C875 C877 1.363 . S
C875 H891 0.931 . S
C876 C875 1.370 . S
C876 C880 1.408 . S
C877 C875 1.363 . S
C877 C878 1.370 . S
C877 C881 1.524 . S
C878 C870 1.503 . S
C878 C877 1.370 . S
C878 C879 1.403 . S
C879 C878 1.403 . S
C879 C880 1.404 . S
C879 C882 1.539 . S
C880 C876 1.408 . S
C880 C879 1.404 . S
C880 H892 0.930 . S
C881 C877 1.524 . S
C881 H893 0.956 . S
C881 H894 0.961 . S
C881 H895 0.961 . S
C882 C879 1.539 . S
C882 H896 0.958 . S
C882 H897 0.961 . S
C882 H898 0.960 . S
H883 C867 0.931 . S
H884 C872 0.929 . S
H885 C873 0.960 . S
H886 C873 0.962 . S
H887 C873 0.960 . S
H888 C874 0.961 . S
H889 C874 0.961 . S
H890 C874 0.961 . S
H891 C875 0.931 . S
H892 C880 0.930 . S
H893 C881 0.956 . S
H894 C881 0.961 . S
H895 C881 0.961 . S
H896 C882 0.958 . S
H897 C882 0.961 . S
H898 C882 0.960 . S
C899 C900 1.391 . S
C899 C901 1.394 . S
C899 H915 0.931 . S
C900 C899 1.391 . S
C900 C904 1.376 . S
C901 C899 1.394 . S
C901 C902 1.369 . S
C901 C905 1.531 . S
C902 C901 1.369 . S
C902 C903 1.410 . S
C902 C910 1.503 . S
C903 C902 1.410 . S
C903 C904 1.392 . S
C903 C906 1.511 . S
C904 C900 1.376 . S
C904 C903 1.392 . S
C904 H916 0.929 . S
C905 C901 1.531 . S
C905 H917 0.960 . S
C905 H918 0.962 . S
C905 H919 0.960 . S
C906 C903 1.511 . S
C906 H920 0.961 . S
C906 H921 0.961 . S
C906 H922 0.961 . S
C907 C908 1.370 . S
C907 C909 1.363 . S
C907 H923 0.931 . S
C908 C907 1.370 . S
C908 C912 1.408 . S
C909 C907 1.363 . S
C909 C910 1.370 . S
C909 C913 1.524 . S
C910 C902 1.503 . S
C910 C909 1.370 . S
C910 C911 1.403 . S
C911 C910 1.403 . S
C911 C912 1.404 . S
C911 C914 1.539 . S
C912 C908 1.408 . S
C912 C911 1.404 . S
C912 H924 0.930 . S
C913 C909 1.524 . S
C913 H925 0.956 . S
C913 H926 0.961 . S
C913 H927 0.961 . S
C914 C911 1.539 . S
C914 H928 0.958 . S
C914 H929 0.961 . S
C914 H930 0.960 . S
H915 C899 0.931 . S
H916 C904 0.929 . S
H917 C905 0.960 . S
H918 C905 0.962 . S
H919 C905 0.960 . S
H920 C906 0.961 . S
H921 C906 0.961 . S
H922 C906 0.961 . S
H923 C907 0.931 . S
H924 C912 0.930 . S
H925 C913 0.956 . S
H926 C913 0.961 . S
H927 C913 0.961 . S
H928 C914 0.958 . S
H929 C914 0.961 . S
H930 C914 0.960 . S
C931 C932 1.391 . S
C931 C933 1.394 . S
C931 H947 0.931 . S
C932 C931 1.391 . S
C932 C936 1.376 . S
C933 C931 1.394 . S
C933 C934 1.369 . S
C933 C937 1.531 . S
C934 C933 1.369 . S
C934 C935 1.410 . S
C934 C942 1.503 . S
C935 C934 1.410 . S
C935 C936 1.392 . S
C935 C938 1.511 . S
C936 C932 1.376 . S
C936 C935 1.392 . S
C936 H948 0.929 . S
C937 C933 1.531 . S
C937 H949 0.960 . S
C937 H950 0.962 . S
C937 H951 0.960 . S
C938 C935 1.511 . S
C938 H952 0.961 . S
C938 H953 0.961 . S
C938 H954 0.961 . S
C939 C940 1.370 . S
C939 C941 1.363 . S
C939 H955 0.931 . S
C940 C939 1.370 . S
C940 C944 1.408 . S
C941 C939 1.363 . S
C941 C942 1.370 . S
C941 C945 1.524 . S
C942 C934 1.503 . S
C942 C941 1.370 . S
C942 C943 1.403 . S
C943 C942 1.403 . S
C943 C944 1.404 . S
C943 C946 1.539 . S
C944 C940 1.408 . S
C944 C943 1.404 . S
C944 H956 0.930 . S
C945 C941 1.524 . S
C945 H957 0.956 . S
C945 H958 0.961 . S
C945 H959 0.961 . S
C946 C943 1.539 . S
C946 H960 0.958 . S
C946 H961 0.961 . S
C946 H962 0.960 . S
H947 C931 0.931 . S
H948 C936 0.929 . S
H949 C937 0.960 . S
H950 C937 0.962 . S
H951 C937 0.960 . S
H952 C938 0.961 . S
H953 C938 0.961 . S
H954 C938 0.961 . S
H955 C939 0.931 . S
H956 C944 0.930 . S
H957 C945 0.956 . S
H958 C945 0.961 . S
H959 C945 0.961 . S
H960 C946 0.958 . S
H961 C946 0.961 . S
H962 C946 0.960 . S
C963 C964 1.391 . S
C963 C965 1.394 . S
C963 H979 0.931 . S
C964 C963 1.391 . S
C964 C968 1.376 . S
C965 C963 1.394 . S
C965 C966 1.369 . S
C965 C969 1.531 . S
C966 C965 1.369 . S
C966 C967 1.410 . S
C966 C974 1.503 . S
C967 C966 1.410 . S
C967 C968 1.392 . S
C967 C970 1.511 . S
C968 C964 1.376 . S
C968 C967 1.392 . S
C968 H980 0.929 . S
C969 C965 1.531 . S
C969 H981 0.960 . S
C969 H982 0.962 . S
C969 H983 0.960 . S
C970 C967 1.511 . S
C970 H984 0.961 . S
C970 H985 0.961 . S
C970 H986 0.961 . S
C971 C972 1.370 . S
C971 C973 1.363 . S
C971 H987 0.931 . S
C972 C971 1.370 . S
C972 C976 1.408 . S
C973 C971 1.363 . S
C973 C974 1.370 . S
C973 C977 1.524 . S
C974 C966 1.503 . S
C974 C973 1.370 . S
C974 C975 1.403 . S
C975 C974 1.403 . S
C975 C976 1.404 . S
C975 C978 1.539 . S
C976 C972 1.408 . S
C976 C975 1.404 . S
C976 H988 0.930 . S
C977 C973 1.524 . S
C977 H989 0.956 . S
C977 H990 0.961 . S
C977 H991 0.961 . S
C978 C975 1.539 . S
C978 H992 0.958 . S
C978 H993 0.961 . S
C978 H994 0.960 . S
H979 C963 0.931 . S
H980 C968 0.929 . S
H981 C969 0.960 . S
H982 C969 0.962 . S
H983 C969 0.960 . S
H984 C970 0.961 . S
H985 C970 0.961 . S
H986 C970 0.961 . S
H987 C971 0.931 . S
H988 C976 0.930 . S
H989 C977 0.956 . S
H990 C977 0.961 . S
H991 C977 0.961 . S
H992 C978 0.958 . S
H993 C978 0.961 . S
H994 C978 0.960 . S
C995 C996 1.391 . S
C995 C997 1.394 . S
C995 H1011 0.931 . S
C996 C995 1.391 . S
C996 C1000 1.376 . S
C997 C995 1.394 . S
C997 C998 1.369 . S
C997 C1001 1.531 . S
C998 C997 1.369 . S
C998 C999 1.410 . S
C998 C1006 1.503 . S
C999 C998 1.410 . S
C999 C1000 1.392 . S
C999 C1002 1.511 . S
C1000 C996 1.376 . S
C1000 C999 1.392 . S
C1000 H1012 0.929 . S
C1001 C997 1.531 . S
C1001 H1013 0.960 . S
C1001 H1014 0.962 . S
C1001 H1015 0.960 . S
C1002 C999 1.511 . S
C1002 H1016 0.961 . S
C1002 H1017 0.961 . S
C1002 H1018 0.961 . S
C1003 C1004 1.370 . S
C1003 C1005 1.363 . S
C1003 H1019 0.931 . S
C1004 C1003 1.370 . S
C1004 C1008 1.408 . S
C1005 C1003 1.363 . S
C1005 C1006 1.370 . S
C1005 C1009 1.524 . S
C1006 C998 1.503 . S
C1006 C1005 1.370 . S
C1006 C1007 1.403 . S
C1007 C1006 1.403 . S
C1007 C1008 1.404 . S
C1007 C1010 1.539 . S
C1008 C1004 1.408 . S
C1008 C1007 1.404 . S
C1008 H1020 0.930 . S
C1009 C1005 1.524 . S
C1009 H1021 0.956 . S
C1009 H1022 0.961 . S
C1009 H1023 0.961 . S
C1010 C1007 1.539 . S
C1010 H1024 0.958 . S
C1010 H1025 0.961 . S
C1010 H1026 0.960 . S
H1011 C995 0.931 . S
H1012 C1000 0.929 . S
H1013 C1001 0.960 . S
H1014 C1001 0.962 . S
H1015 C1001 0.960 . S
H1016 C1002 0.961 . S
H1017 C1002 0.961 . S
H1018 C1002 0.961 . S
H1019 C1003 0.931 . S
H1020 C1008 0.930 . S
H1021 C1009 0.956 . S
H1022 C1009 0.961 . S
H1023 C1009 0.961 . S
H1024 C1010 0.958 . S
H1025 C1010 0.961 . S
H1026 C1010 0.960 . S
C1027 C1028 1.391 . S
C1027 C1029 1.394 . S
C1027 H1043 0.931 . S
C1028 C1027 1.391 . S
C1028 C1032 1.376 . S
C1029 C1027 1.394 . S
C1029 C1030 1.369 . S
C1029 C1033 1.531 . S
C1030 C1029 1.369 . S
C1030 C1031 1.410 . S
C1030 C1038 1.503 . S
C1031 C1030 1.410 . S
C1031 C1032 1.392 . S
C1031 C1034 1.511 . S
C1032 C1028 1.376 . S
C1032 C1031 1.392 . S
C1032 H1044 0.929 . S
C1033 C1029 1.531 . S
C1033 H1045 0.960 . S
C1033 H1046 0.962 . S
C1033 H1047 0.960 . S
C1034 C1031 1.511 . S
C1034 H1048 0.961 . S
C1034 H1049 0.961 . S
C1034 H1050 0.961 . S
C1035 C1036 1.370 . S
C1035 C1037 1.363 . S
C1035 H1051 0.931 . S
C1036 C1035 1.370 . S
C1036 C1040 1.408 . S
C1037 C1035 1.363 . S
C1037 C1038 1.370 . S
C1037 C1041 1.524 . S
C1038 C1030 1.503 . S
C1038 C1037 1.370 . S
C1038 C1039 1.403 . S
C1039 C1038 1.403 . S
C1039 C1040 1.404 . S
C1039 C1042 1.539 . S
C1040 C1036 1.408 . S
C1040 C1039 1.404 . S
C1040 H1052 0.930 . S
C1041 C1037 1.524 . S
C1041 H1053 0.956 . S
C1041 H1054 0.961 . S
C1041 H1055 0.961 . S
C1042 C1039 1.539 . S
C1042 H1056 0.958 . S
C1042 H1057 0.961 . S
C1042 H1058 0.960 . S
H1043 C1027 0.931 . S
H1044 C1032 0.929 . S
H1045 C1033 0.960 . S
H1046 C1033 0.962 . S
H1047 C1033 0.960 . S
H1048 C1034 0.961 . S
H1049 C1034 0.961 . S
H1050 C1034 0.961 . S
H1051 C1035 0.931 . S
H1052 C1040 0.930 . S
H1053 C1041 0.956 . S
H1054 C1041 0.961 . S
H1055 C1041 0.961 . S
H1056 C1042 0.958 . S
H1057 C1042 0.961 . S
H1058 C1042 0.960 . S
C1059 C1060 1.391 . S
C1059 C1061 1.394 . S
C1059 H1075 0.931 . S
C1060 C1059 1.391 . S
C1060 C1064 1.376 . S
C1061 C1059 1.394 . S
C1061 C1062 1.369 . S
C1061 C1065 1.531 . S
C1062 C1061 1.369 . S
C1062 C1063 1.410 . S
C1062 C1070 1.503 . S
C1063 C1062 1.410 . S
C1063 C1064 1.392 . S
C1063 C1066 1.511 . S
C1064 C1060 1.376 . S
C1064 C1063 1.392 . S
C1064 H1076 0.929 . S
C1065 C1061 1.531 . S
C1065 H1077 0.960 . S
C1065 H1078 0.962 . S
C1065 H1079 0.960 . S
C1066 C1063 1.511 . S
C1066 H1080 0.961 . S
C1066 H1081 0.961 . S
C1066 H1082 0.961 . S
C1067 C1068 1.370 . S
C1067 C1069 1.363 . S
C1067 H1083 0.931 . S
C1068 C1067 1.370 . S
C1068 C1072 1.408 . S
C1069 C1067 1.363 . S
C1069 C1070 1.370 . S
C1069 C1073 1.524 . S
C1070 C1062 1.503 . S
C1070 C1069 1.370 . S
C1070 C1071 1.403 . S
C1071 C1070 1.403 . S
C1071 C1072 1.404 . S
C1071 C1074 1.539 . S
C1072 C1068 1.408 . S
C1072 C1071 1.404 . S
C1072 H1084 0.930 . S
C1073 C1069 1.524 . S
C1073 H1085 0.956 . S
C1073 H1086 0.961 . S
C1073 H1087 0.961 . S
C1074 C1071 1.539 . S
C1074 H1088 0.958 . S
C1074 H1089 0.961 . S
C1074 H1090 0.960 . S
H1075 C1059 0.931 . S
H1076 C1064 0.929 . S
H1077 C1065 0.960 . S
H1078 C1065 0.962 . S
H1079 C1065 0.960 . S
H1080 C1066 0.961 . S
H1081 C1066 0.961 . S
H1082 C1066 0.961 . S
H1083 C1067 0.931 . S
H1084 C1072 0.930 . S
H1085 C1073 0.956 . S
H1086 C1073 0.961 . S
H1087 C1073 0.961 . S
H1088 C1074 0.958 . S
H1089 C1074 0.961 . S
H1090 C1074 0.960 . S
C1091 C1092 1.391 . S
C1091 C1093 1.394 . S
C1091 H1107 0.931 . S
C1092 C1091 1.391 . S
C1092 C1096 1.376 . S
C1093 C1091 1.394 . S
C1093 C1094 1.369 . S
C1093 C1097 1.531 . S
C1094 C1093 1.369 . S
C1094 C1095 1.410 . S
C1094 C1102 1.503 . S
C1095 C1094 1.410 . S
C1095 C1096 1.392 . S
C1095 C1098 1.511 . S
C1096 C1092 1.376 . S
C1096 C1095 1.392 . S
C1096 H1108 0.929 . S
C1097 C1093 1.531 . S
C1097 H1109 0.960 . S
C1097 H1110 0.962 . S
C1097 H1111 0.960 . S
C1098 C1095 1.511 . S
C1098 H1112 0.961 . S
C1098 H1113 0.961 . S
C1098 H1114 0.961 . S
C1099 C1100 1.370 . S
C1099 C1101 1.363 . S
C1099 H1115 0.931 . S
C1100 C1099 1.370 . S
C1100 C1104 1.408 . S
C1101 C1099 1.363 . S
C1101 C1102 1.370 . S
C1101 C1105 1.524 . S
C1102 C1094 1.503 . S
C1102 C1101 1.370 . S
C1102 C1103 1.403 . S
C1103 C1102 1.403 . S
C1103 C1104 1.404 . S
C1103 C1106 1.539 . S
C1104 C1100 1.408 . S
C1104 C1103 1.404 . S
C1104 H1116 0.930 . S
C1105 C1101 1.524 . S
C1105 H1117 0.956 . S
C1105 H1118 0.961 . S
C1105 H1119 0.961 . S
C1106 C1103 1.539 . S
C1106 H1120 0.958 . S
C1106 H1121 0.961 . S
C1106 H1122 0.960 . S
H1107 C1091 0.931 . S
H1108 C1096 0.929 . S
H1109 C1097 0.960 . S
H1110 C1097 0.962 . S
H1111 C1097 0.960 . S
H1112 C1098 0.961 . S
H1113 C1098 0.961 . S
H1114 C1098 0.961 . S
H1115 C1099 0.931 . S
H1116 C1104 0.930 . S
H1117 C1105 0.956 . S
H1118 C1105 0.961 . S
H1119 C1105 0.961 . S
H1120 C1106 0.958 . S
H1121 C1106 0.961 . S
H1122 C1106 0.960 . S
C1123 C1124 1.391 . S
C1123 C1125 1.394 . S
C1123 H1139 0.931 . S
C1124 C1123 1.391 . S
C1124 C1128 1.376 . S
C1125 C1123 1.394 . S
C1125 C1126 1.369 . S
C1125 C1129 1.531 . S
C1126 C1125 1.369 . S
C1126 C1127 1.410 . S
C1126 C1134 1.503 . S
C1127 C1126 1.410 . S
C1127 C1128 1.392 . S
C1127 C1130 1.511 . S
C1128 C1124 1.376 . S
C1128 C1127 1.392 . S
C1128 H1140 0.929 . S
C1129 C1125 1.531 . S
C1129 H1141 0.960 . S
C1129 H1142 0.962 . S
C1129 H1143 0.960 . S
C1130 C1127 1.511 . S
C1130 H1144 0.961 . S
C1130 H1145 0.961 . S
C1130 H1146 0.961 . S
C1131 C1132 1.370 . S
C1131 C1133 1.363 . S
C1131 H1147 0.931 . S
C1132 C1131 1.370 . S
C1132 C1136 1.408 . S
C1133 C1131 1.363 . S
C1133 C1134 1.370 . S
C1133 C1137 1.524 . S
C1134 C1126 1.503 . S
C1134 C1133 1.370 . S
C1134 C1135 1.403 . S
C1135 C1134 1.403 . S
C1135 C1136 1.404 . S
C1135 C1138 1.539 . S
C1136 C1132 1.408 . S
C1136 C1135 1.404 . S
C1136 H1148 0.930 . S
C1137 C1133 1.524 . S
C1137 H1149 0.956 . S
C1137 H1150 0.961 . S
C1137 H1151 0.961 . S
C1138 C1135 1.539 . S
C1138 H1152 0.958 . S
C1138 H1153 0.961 . S
C1138 H1154 0.960 . S
H1139 C1123 0.931 . S
H1140 C1128 0.929 . S
H1141 C1129 0.960 . S
H1142 C1129 0.962 . S
H1143 C1129 0.960 . S
H1144 C1130 0.961 . S
H1145 C1130 0.961 . S
H1146 C1130 0.961 . S
H1147 C1131 0.931 . S
H1148 C1136 0.930 . S
H1149 C1137 0.956 . S
H1150 C1137 0.961 . S
H1151 C1137 0.961 . S
H1152 C1138 0.958 . S
H1153 C1138 0.961 . S
H1154 C1138 0.960 . S
C1155 C1156 1.391 . S
C1155 C1157 1.394 . S
C1155 H1171 0.931 . S
C1156 C1155 1.391 . S
C1156 C1160 1.376 . S
C1157 C1155 1.394 . S
C1157 C1158 1.369 . S
C1157 C1161 1.531 . S
C1158 C1157 1.369 . S
C1158 C1159 1.410 . S
C1158 C1166 1.503 . S
C1159 C1158 1.410 . S
C1159 C1160 1.392 . S
C1159 C1162 1.511 . S
C1160 C1156 1.376 . S
C1160 C1159 1.392 . S
C1160 H1172 0.929 . S
C1161 C1157 1.531 . S
C1161 H1173 0.960 . S
C1161 H1174 0.962 . S
C1161 H1175 0.960 . S
C1162 C1159 1.511 . S
C1162 H1176 0.961 . S
C1162 H1177 0.961 . S
C1162 H1178 0.961 . S
C1163 C1164 1.370 . S
C1163 C1165 1.363 . S
C1163 H1179 0.931 . S
C1164 C1163 1.370 . S
C1164 C1168 1.408 . S
C1165 C1163 1.363 . S
C1165 C1166 1.370 . S
C1165 C1169 1.524 . S
C1166 C1158 1.503 . S
C1166 C1165 1.370 . S
C1166 C1167 1.403 . S
C1167 C1166 1.403 . S
C1167 C1168 1.404 . S
C1167 C1170 1.539 . S
C1168 C1164 1.408 . S
C1168 C1167 1.404 . S
C1168 H1180 0.930 . S
C1169 C1165 1.524 . S
C1169 H1181 0.956 . S
C1169 H1182 0.961 . S
C1169 H1183 0.961 . S
C1170 C1167 1.539 . S
C1170 H1184 0.958 . S
C1170 H1185 0.961 . S
C1170 H1186 0.960 . S
H1171 C1155 0.931 . S
H1172 C1160 0.929 . S
H1173 C1161 0.960 . S
H1174 C1161 0.962 . S
H1175 C1161 0.960 . S
H1176 C1162 0.961 . S
H1177 C1162 0.961 . S
H1178 C1162 0.961 . S
H1179 C1163 0.931 . S
H1180 C1168 0.930 . S
H1181 C1169 0.956 . S
H1182 C1169 0.961 . S
H1183 C1169 0.961 . S
H1184 C1170 0.958 . S
H1185 C1170 0.961 . S
H1186 C1170 0.960 . S
C1187 C1188 1.391 . S
C1187 C1189 1.394 . S
C1187 H1203 0.931 . S
C1188 C1187 1.391 . S
C1188 C1192 1.376 . S
C1189 C1187 1.394 . S
C1189 C1190 1.369 . S
C1189 C1193 1.531 . S
C1190 C1189 1.369 . S
C1190 C1191 1.410 . S
C1190 C1198 1.503 . S
C1191 C1190 1.410 . S
C1191 C1192 1.392 . S
C1191 C1194 1.511 . S
C1192 C1188 1.376 . S
C1192 C1191 1.392 . S
C1192 H1204 0.929 . S
C1193 C1189 1.531 . S
C1193 H1205 0.960 . S
C1193 H1206 0.962 . S
C1193 H1207 0.960 . S
C1194 C1191 1.511 . S
C1194 H1208 0.961 . S
C1194 H1209 0.961 . S
C1194 H1210 0.961 . S
C1195 C1196 1.370 . S
C1195 C1197 1.363 . S
C1195 H1211 0.931 . S
C1196 C1195 1.370 . S
C1196 C1200 1.408 . S
C1197 C1195 1.363 . S
C1197 C1198 1.370 . S
C1197 C1201 1.524 . S
C1198 C1190 1.503 . S
C1198 C1197 1.370 . S
C1198 C1199 1.403 . S
C1199 C1198 1.403 . S
C1199 C1200 1.404 . S
C1199 C1202 1.539 . S
C1200 C1196 1.408 . S
C1200 C1199 1.404 . S
C1200 H1212 0.930 . S
C1201 C1197 1.524 . S
C1201 H1213 0.956 . S
C1201 H1214 0.961 . S
C1201 H1215 0.961 . S
C1202 C1199 1.539 . S
C1202 H1216 0.958 . S
C1202 H1217 0.961 . S
C1202 H1218 0.960 . S
H1203 C1187 0.931 . S
H1204 C1192 0.929 . S
H1205 C1193 0.960 . S
H1206 C1193 0.962 . S
H1207 C1193 0.960 . S
H1208 C1194 0.961 . S
H1209 C1194 0.961 . S
H1210 C1194 0.961 . S
H1211 C1195 0.931 . S
H1212 C1200 0.930 . S
H1213 C1201 0.956 . S
H1214 C1201 0.961 . S
H1215 C1201 0.961 . S
H1216 C1202 0.958 . S
H1217 C1202 0.961 . S
H1218 C1202 0.960 . S
C1219 C1220 1.391 . S
C1219 C1221 1.394 . S
C1219 H1235 0.931 . S
C1220 C1219 1.391 . S
C1220 C1224 1.376 . S
C1221 C1219 1.394 . S
C1221 C1222 1.369 . S
C1221 C1225 1.531 . S
C1222 C1221 1.369 . S
C1222 C1223 1.410 . S
C1222 C1230 1.503 . S
C1223 C1222 1.410 . S
C1223 C1224 1.392 . S
C1223 C1226 1.511 . S
C1224 C1220 1.376 . S
C1224 C1223 1.392 . S
C1224 H1236 0.929 . S
C1225 C1221 1.531 . S
C1225 H1237 0.960 . S
C1225 H1238 0.962 . S
C1225 H1239 0.960 . S
C1226 C1223 1.511 . S
C1226 H1240 0.961 . S
C1226 H1241 0.961 . S
C1226 H1242 0.961 . S
C1227 C1228 1.370 . S
C1227 C1229 1.363 . S
C1227 H1243 0.931 . S
C1228 C1227 1.370 . S
C1228 C1232 1.408 . S
C1229 C1227 1.363 . S
C1229 C1230 1.370 . S
C1229 C1233 1.524 . S
C1230 C1222 1.503 . S
C1230 C1229 1.370 . S
C1230 C1231 1.403 . S
C1231 C1230 1.403 . S
C1231 C1232 1.404 . S
C1231 C1234 1.539 . S
C1232 C1228 1.408 . S
C1232 C1231 1.404 . S
C1232 H1244 0.930 . S
C1233 C1229 1.524 . S
C1233 H1245 0.956 . S
C1233 H1246 0.961 . S
C1233 H1247 0.961 . S
C1234 C1231 1.539 . S
C1234 H1248 0.958 . S
C1234 H1249 0.961 . S
C1234 H1250 0.960 . S
H1235 C1219 0.931 . S
H1236 C1224 0.929 . S
H1237 C1225 0.960 . S
H1238 C1225 0.962 . S
H1239 C1225 0.960 . S
H1240 C1226 0.961 . S
H1241 C1226 0.961 . S
H1242 C1226 0.961 . S
H1243 C1227 0.931 . S
H1244 C1232 0.930 . S
H1245 C1233 0.956 . S
H1246 C1233 0.961 . S
H1247 C1233 0.961 . S
H1248 C1234 0.958 . S
H1249 C1234 0.961 . S
H1250 C1234 0.960 . S
C1251 C1252 1.391 . S
C1251 C1253 1.394 . S
C1251 H1267 0.931 . S
C1252 C1251 1.391 . S
C1252 C1256 1.376 . S
C1253 C1251 1.394 . S
C1253 C1254 1.369 . S
C1253 C1257 1.531 . S
C1254 C1253 1.369 . S
C1254 C1255 1.410 . S
C1254 C1262 1.503 . S
C1255 C1254 1.410 . S
C1255 C1256 1.392 . S
C1255 C1258 1.511 . S
C1256 C1252 1.376 . S
C1256 C1255 1.392 . S
C1256 H1268 0.929 . S
C1257 C1253 1.531 . S
C1257 H1269 0.960 . S
C1257 H1270 0.962 . S
C1257 H1271 0.960 . S
C1258 C1255 1.511 . S
C1258 H1272 0.961 . S
C1258 H1273 0.961 . S
C1258 H1274 0.961 . S
C1259 C1260 1.370 . S
C1259 C1261 1.363 . S
C1259 H1275 0.931 . S
C1260 C1259 1.370 . S
C1260 C1264 1.408 . S
C1261 C1259 1.363 . S
C1261 C1262 1.370 . S
C1261 C1265 1.524 . S
C1262 C1254 1.503 . S
C1262 C1261 1.370 . S
C1262 C1263 1.403 . S
C1263 C1262 1.403 . S
C1263 C1264 1.404 . S
C1263 C1266 1.539 . S
C1264 C1260 1.408 . S
C1264 C1263 1.404 . S
C1264 H1276 0.930 . S
C1265 C1261 1.524 . S
C1265 H1277 0.956 . S
C1265 H1278 0.961 . S
C1265 H1279 0.961 . S
C1266 C1263 1.539 . S
C1266 H1280 0.958 . S
C1266 H1281 0.961 . S
C1266 H1282 0.960 . S
H1267 C1251 0.931 . S
H1268 C1256 0.929 . S
H1269 C1257 0.960 . S
H1270 C1257 0.962 . S
H1271 C1257 0.960 . S
H1272 C1258 0.961 . S
H1273 C1258 0.961 . S
H1274 C1258 0.961 . S
H1275 C1259 0.931 . S
H1276 C1264 0.930 . S
H1277 C1265 0.956 . S
H1278 C1265 0.961 . S
H1279 C1265 0.961 . S
H1280 C1266 0.958 . S
H1281 C1266 0.961 . S
H1282 C1266 0.960 . S
C1283 C1284 1.391 . S
C1283 C1285 1.394 . S
C1283 H1299 0.931 . S
C1284 C1283 1.391 . S
C1284 C1288 1.376 . S
C1285 C1283 1.394 . S
C1285 C1286 1.369 . S
C1285 C1289 1.531 . S
C1286 C1285 1.369 . S
C1286 C1287 1.410 . S
C1286 C1294 1.503 . S
C1287 C1286 1.410 . S
C1287 C1288 1.392 . S
C1287 C1290 1.511 . S
C1288 C1284 1.376 . S
C1288 C1287 1.392 . S
C1288 H1300 0.929 . S
C1289 C1285 1.531 . S
C1289 H1301 0.960 . S
C1289 H1302 0.962 . S
C1289 H1303 0.960 . S
C1290 C1287 1.511 . S
C1290 H1304 0.961 . S
C1290 H1305 0.961 . S
C1290 H1306 0.961 . S
C1291 C1292 1.370 . S
C1291 C1293 1.363 . S
C1291 H1307 0.931 . S
C1292 C1291 1.370 . S
C1292 C1296 1.408 . S
C1293 C1291 1.363 . S
C1293 C1294 1.370 . S
C1293 C1297 1.524 . S
C1294 C1286 1.503 . S
C1294 C1293 1.370 . S
C1294 C1295 1.403 . S
C1295 C1294 1.403 . S
C1295 C1296 1.404 . S
C1295 C1298 1.539 . S
C1296 C1292 1.408 . S
C1296 C1295 1.404 . S
C1296 H1308 0.930 . S
C1297 C1293 1.524 . S
C1297 H1309 0.956 . S
C1297 H1310 0.961 . S
C1297 H1311 0.961 . S
C1298 C1295 1.539 . S
C1298 H1312 0.958 . S
C1298 H1313 0.961 . S
C1298 H1314 0.960 . S
H1299 C1283 0.931 . S
H1300 C1288 0.929 . S
H1301 C1289 0.960 . S
H1302 C1289 0.962 . S
H1303 C1289 0.960 . S
H1304 C1290 0.961 . S
H1305 C1290 0.961 . S
H1306 C1290 0.961 . S
H1307 C1291 0.931 . S
H1308 C1296 0.930 . S
H1309 C1297 0.956 . S
H1310 C1297 0.961 . S
H1311 C1297 0.961 . S
H1312 C1298 0.958 . S
H1313 C1298 0.961 . S
H1314 C1298 0.960 . S
C1315 C1316 1.391 . S
C1315 C1317 1.394 . S
C1315 H1331 0.931 . S
C1316 C1315 1.391 . S
C1316 C1320 1.376 . S
C1317 C1315 1.394 . S
C1317 C1318 1.369 . S
C1317 C1321 1.531 . S
C1318 C1317 1.369 . S
C1318 C1319 1.410 . S
C1318 C1326 1.503 . S
C1319 C1318 1.410 . S
C1319 C1320 1.392 . S
C1319 C1322 1.511 . S
C1320 C1316 1.376 . S
C1320 C1319 1.392 . S
C1320 H1332 0.929 . S
C1321 C1317 1.531 . S
C1321 H1333 0.960 . S
C1321 H1334 0.962 . S
C1321 H1335 0.960 . S
C1322 C1319 1.511 . S
C1322 H1336 0.961 . S
C1322 H1337 0.961 . S
C1322 H1338 0.961 . S
C1323 C1324 1.370 . S
C1323 C1325 1.363 . S
C1323 H1339 0.931 . S
C1324 C1323 1.370 . S
C1324 C1328 1.408 . S
C1325 C1323 1.363 . S
C1325 C1326 1.370 . S
C1325 C1329 1.524 . S
C1326 C1318 1.503 . S
C1326 C1325 1.370 . S
C1326 C1327 1.403 . S
C1327 C1326 1.403 . S
C1327 C1328 1.404 . S
C1327 C1330 1.539 . S
C1328 C1324 1.408 . S
C1328 C1327 1.404 . S
C1328 H1340 0.930 . S
C1329 C1325 1.524 . S
C1329 H1341 0.956 . S
C1329 H1342 0.961 . S
C1329 H1343 0.961 . S
C1330 C1327 1.539 . S
C1330 H1344 0.958 . S
C1330 H1345 0.961 . S
C1330 H1346 0.960 . S
H1331 C1315 0.931 . S
H1332 C1320 0.929 . S
H1333 C1321 0.960 . S
H1334 C1321 0.962 . S
H1335 C1321 0.960 . S
H1336 C1322 0.961 . S
H1337 C1322 0.961 . S
H1338 C1322 0.961 . S
H1339 C1323 0.931 . S
H1340 C1328 0.930 . S
H1341 C1329 0.956 . S
H1342 C1329 0.961 . S
H1343 C1329 0.961 . S
H1344 C1330 0.958 . S
H1345 C1330 0.961 . S
H1346 C1330 0.960 . S
C588 C504 1.051 . S
C580 C31 1.123 . S
C620 C540 1.663 . S
C612 C61 1.751 . S
C652 C505 1.412 . S
C644 C121 1.401 . S
C684 C535 1.538 . S
C676 C181 1.574 . S
C716 C502 1.476 . S
C708 C260 1.474 . S
C740 C331 1.699 . S
C748 C538 1.699 . S
C772 C380 1.202 . S
C780 C507 1.106 . S
C812 C537 1.443 . S
C804 C440 1.446 . S
C844 C541 1.455 . S
C836 C1 1.408 . S
C876 C506 1.495 . S
C868 C91 1.536 . S
C908 C534 1.706 . S
C900 C151 1.684 . S
C940 C503 1.106 . S
C932 C200 1.197 . S
C972 C536 1.674 . S
C964 C271 1.732 . S
C996 C301 1.415 . S
C1004 C501 1.414 . S
C1028 C361 1.590 . S
C1036 C539 1.542 . S
C1068 C508 1.082 . S
C1060 C451 1.078 . S
C1100 C570 1.670 . S
C1092 C20 1.704 . S
C1124 C241 1.982 . S
C1132 C573 1.892 . S
C1164 C572 1.676 . S
C1156 C320 1.722 . S
C1188 C391 2.072 . S
C1196 C571 2.071 . S
C1228 C574 1.672 . S
C1220 C421 1.724 . S
C1252 C140 1.736 . S
C1260 C568 1.685 . S
C1292 C567 2.078 . S
C1284 C211 2.083 . S
C1316 C80 2.024 . S
C1324 C569 1.897 . S
