# Generated by pormake.
# Topology tbo, (3,4)-cn, num edge types: 1
# Building blocks:
#     Node 0, Type 0, BuildingBlock: OLANEW_clean_sbu_2, # of connection points: 3
#     Node 1, Type 0, BuildingBlock: OLANEW_clean_sbu_2, # of connection points: 3
#     Node 2, Type 0, BuildingBlock: OLANEW_clean_sbu_2, # of connection points: 3
#     Node 3, Type 0, BuildingBlock: OLANEW_clean_sbu_2, # of connection points: 3
#     Node 4, Type 0, BuildingBlock: OLANEW_clean_sbu_2, # of connection points: 3
#     Node 5, Type 0, BuildingBlock: OLANEW_clean_sbu_2, # of connection points: 3
#     Node 6, Type 0, BuildingBlock: OLANEW_clean_sbu_2, # of connection points: 3
#     Node 7, Type 0, BuildingBlock: OLANEW_clean_sbu_2, # of connection points: 3
#     Node 8, Type 0, BuildingBlock: OLANEW_clean_sbu_2, # of connection points: 3
#     Node 9, Type 0, BuildingBlock: OLANEW_clean_sbu_2, # of connection points: 3
#     Node 10, Type 0, BuildingBlock: OLANEW_clean_sbu_2, # of connection points: 3
#     Node 11, Type 0, BuildingBlock: OLANEW_clean_sbu_2, # of connection points: 3
#     Node 12, Type 0, BuildingBlock: OLANEW_clean_sbu_2, # of connection points: 3
#     Node 13, Type 0, BuildingBlock: OLANEW_clean_sbu_2, # of connection points: 3
#     Node 14, Type 0, BuildingBlock: OLANEW_clean_sbu_2, # of connection points: 3
#     Node 15, Type 0, BuildingBlock: OLANEW_clean_sbu_2, # of connection points: 3
#     Node 16, Type 0, BuildingBlock: OLANEW_clean_sbu_2, # of connection points: 3
#     Node 17, Type 0, BuildingBlock: OLANEW_clean_sbu_2, # of connection points: 3
#     Node 18, Type 0, BuildingBlock: OLANEW_clean_sbu_2, # of connection points: 3
#     Node 19, Type 0, BuildingBlock: OLANEW_clean_sbu_2, # of connection points: 3
#     Node 20, Type 0, BuildingBlock: OLANEW_clean_sbu_2, # of connection points: 3
#     Node 21, Type 0, BuildingBlock: OLANEW_clean_sbu_2, # of connection points: 3
#     Node 22, Type 0, BuildingBlock: OLANEW_clean_sbu_2, # of connection points: 3
#     Node 23, Type 0, BuildingBlock: OLANEW_clean_sbu_2, # of connection points: 3
#     Node 24, Type 0, BuildingBlock: OLANEW_clean_sbu_2, # of connection points: 3
#     Node 25, Type 0, BuildingBlock: OLANEW_clean_sbu_2, # of connection points: 3
#     Node 26, Type 0, BuildingBlock: OLANEW_clean_sbu_2, # of connection points: 3
#     Node 27, Type 0, BuildingBlock: OLANEW_clean_sbu_2, # of connection points: 3
#     Node 28, Type 0, BuildingBlock: OLANEW_clean_sbu_2, # of connection points: 3
#     Node 29, Type 0, BuildingBlock: OLANEW_clean_sbu_2, # of connection points: 3
#     Node 30, Type 0, BuildingBlock: OLANEW_clean_sbu_2, # of connection points: 3
#     Node 31, Type 0, BuildingBlock: OLANEW_clean_sbu_2, # of connection points: 3
#     Node 32, Type 1, BuildingBlock: MIFKUJ_clean_linker_1, # of connection points: 4
#     Node 33, Type 1, BuildingBlock: MIFKUJ_clean_linker_1, # of connection points: 4
#     Node 34, Type 1, BuildingBlock: MIFKUJ_clean_linker_1, # of connection points: 4
#     Node 35, Type 1, BuildingBlock: MIFKUJ_clean_linker_1, # of connection points: 4
#     Node 36, Type 1, BuildingBlock: MIFKUJ_clean_linker_1, # of connection points: 4
#     Node 37, Type 1, BuildingBlock: MIFKUJ_clean_linker_1, # of connection points: 4
#     Node 38, Type 1, BuildingBlock: MIFKUJ_clean_linker_1, # of connection points: 4
#     Node 39, Type 1, BuildingBlock: MIFKUJ_clean_linker_1, # of connection points: 4
#     Node 40, Type 1, BuildingBlock: MIFKUJ_clean_linker_1, # of connection points: 4
#     Node 41, Type 1, BuildingBlock: MIFKUJ_clean_linker_1, # of connection points: 4
#     Node 42, Type 1, BuildingBlock: MIFKUJ_clean_linker_1, # of connection points: 4
#     Node 43, Type 1, BuildingBlock: MIFKUJ_clean_linker_1, # of connection points: 4
#     Node 44, Type 1, BuildingBlock: MIFKUJ_clean_linker_1, # of connection points: 4
#     Node 45, Type 1, BuildingBlock: MIFKUJ_clean_linker_1, # of connection points: 4
#     Node 46, Type 1, BuildingBlock: MIFKUJ_clean_linker_1, # of connection points: 4
#     Node 47, Type 1, BuildingBlock: MIFKUJ_clean_linker_1, # of connection points: 4
#     Node 48, Type 1, BuildingBlock: MIFKUJ_clean_linker_1, # of connection points: 4
#     Node 49, Type 1, BuildingBlock: MIFKUJ_clean_linker_1, # of connection points: 4
#     Node 50, Type 1, BuildingBlock: MIFKUJ_clean_linker_1, # of connection points: 4
#     Node 51, Type 1, BuildingBlock: MIFKUJ_clean_linker_1, # of connection points: 4
#     Node 52, Type 1, BuildingBlock: MIFKUJ_clean_linker_1, # of connection points: 4
#     Node 53, Type 1, BuildingBlock: MIFKUJ_clean_linker_1, # of connection points: 4
#     Node 54, Type 1, BuildingBlock: MIFKUJ_clean_linker_1, # of connection points: 4
#     Node 55, Type 1, BuildingBlock: MIFKUJ_clean_linker_1, # of connection points: 4
#     Edge 56, Type (0, 1), BuildingBlock: OJICUG_clean_linker_0, # of connection points: 2
#     Edge 57, Type (0, 1), BuildingBlock: OJICUG_clean_linker_0, # of connection points: 2
#     Edge 58, Type (0, 1), BuildingBlock: OJICUG_clean_linker_0, # of connection points: 2
#     Edge 59, Type (0, 1), BuildingBlock: OJICUG_clean_linker_0, # of connection points: 2
#     Edge 60, Type (0, 1), BuildingBlock: OJICUG_clean_linker_0, # of connection points: 2
#     Edge 61, Type (0, 1), BuildingBlock: OJICUG_clean_linker_0, # of connection points: 2
#     Edge 62, Type (0, 1), BuildingBlock: OJICUG_clean_linker_0, # of connection points: 2
#     Edge 63, Type (0, 1), BuildingBlock: OJICUG_clean_linker_0, # of connection points: 2
#     Edge 64, Type (0, 1), BuildingBlock: OJICUG_clean_linker_0, # of connection points: 2
#     Edge 65, Type (0, 1), BuildingBlock: OJICUG_clean_linker_0, # of connection points: 2
#     Edge 66, Type (0, 1), BuildingBlock: OJICUG_clean_linker_0, # of connection points: 2
#     Edge 67, Type (0, 1), BuildingBlock: OJICUG_clean_linker_0, # of connection points: 2
#     Edge 68, Type (0, 1), BuildingBlock: OJICUG_clean_linker_0, # of connection points: 2
#     Edge 69, Type (0, 1), BuildingBlock: OJICUG_clean_linker_0, # of connection points: 2
#     Edge 70, Type (0, 1), BuildingBlock: OJICUG_clean_linker_0, # of connection points: 2
#     Edge 71, Type (0, 1), BuildingBlock: OJICUG_clean_linker_0, # of connection points: 2
#     Edge 72, Type (0, 1), BuildingBlock: OJICUG_clean_linker_0, # of connection points: 2
#     Edge 73, Type (0, 1), BuildingBlock: OJICUG_clean_linker_0, # of connection points: 2
#     Edge 74, Type (0, 1), BuildingBlock: OJICUG_clean_linker_0, # of connection points: 2
#     Edge 75, Type (0, 1), BuildingBlock: OJICUG_clean_linker_0, # of connection points: 2
#     Edge 76, Type (0, 1), BuildingBlock: OJICUG_clean_linker_0, # of connection points: 2
#     Edge 77, Type (0, 1), BuildingBlock: OJICUG_clean_linker_0, # of connection points: 2
#     Edge 78, Type (0, 1), BuildingBlock: OJICUG_clean_linker_0, # of connection points: 2
#     Edge 79, Type (0, 1), BuildingBlock: OJICUG_clean_linker_0, # of connection points: 2
#     Edge 80, Type (0, 1), BuildingBlock: OJICUG_clean_linker_0, # of connection points: 2
#     Edge 81, Type (0, 1), BuildingBlock: OJICUG_clean_linker_0, # of connection points: 2
#     Edge 82, Type (0, 1), BuildingBlock: OJICUG_clean_linker_0, # of connection points: 2
#     Edge 83, Type (0, 1), BuildingBlock: OJICUG_clean_linker_0, # of connection points: 2
#     Edge 84, Type (0, 1), BuildingBlock: OJICUG_clean_linker_0, # of connection points: 2
#     Edge 85, Type (0, 1), BuildingBlock: OJICUG_clean_linker_0, # of connection points: 2
#     Edge 86, Type (0, 1), BuildingBlock: OJICUG_clean_linker_0, # of connection points: 2
#     Edge 87, Type (0, 1), BuildingBlock: OJICUG_clean_linker_0, # of connection points: 2
#     Edge 88, Type (0, 1), BuildingBlock: OJICUG_clean_linker_0, # of connection points: 2
#     Edge 89, Type (0, 1), BuildingBlock: OJICUG_clean_linker_0, # of connection points: 2
#     Edge 90, Type (0, 1), BuildingBlock: OJICUG_clean_linker_0, # of connection points: 2
#     Edge 91, Type (0, 1), BuildingBlock: OJICUG_clean_linker_0, # of connection points: 2
#     Edge 92, Type (0, 1), BuildingBlock: OJICUG_clean_linker_0, # of connection points: 2
#     Edge 93, Type (0, 1), BuildingBlock: OJICUG_clean_linker_0, # of connection points: 2
#     Edge 94, Type (0, 1), BuildingBlock: OJICUG_clean_linker_0, # of connection points: 2
#     Edge 95, Type (0, 1), BuildingBlock: OJICUG_clean_linker_0, # of connection points: 2
#     Edge 96, Type (0, 1), BuildingBlock: OJICUG_clean_linker_0, # of connection points: 2
#     Edge 97, Type (0, 1), BuildingBlock: OJICUG_clean_linker_0, # of connection points: 2
#     Edge 98, Type (0, 1), BuildingBlock: OJICUG_clean_linker_0, # of connection points: 2
#     Edge 99, Type (0, 1), BuildingBlock: OJICUG_clean_linker_0, # of connection points: 2
#     Edge 100, Type (0, 1), BuildingBlock: OJICUG_clean_linker_0, # of connection points: 2
#     Edge 101, Type (0, 1), BuildingBlock: OJICUG_clean_linker_0, # of connection points: 2
#     Edge 102, Type (0, 1), BuildingBlock: OJICUG_clean_linker_0, # of connection points: 2
#     Edge 103, Type (0, 1), BuildingBlock: OJICUG_clean_linker_0, # of connection points: 2
#     Edge 104, Type (0, 1), BuildingBlock: OJICUG_clean_linker_0, # of connection points: 2
#     Edge 105, Type (0, 1), BuildingBlock: OJICUG_clean_linker_0, # of connection points: 2
#     Edge 106, Type (0, 1), BuildingBlock: OJICUG_clean_linker_0, # of connection points: 2
#     Edge 107, Type (0, 1), BuildingBlock: OJICUG_clean_linker_0, # of connection points: 2
#     Edge 108, Type (0, 1), BuildingBlock: OJICUG_clean_linker_0, # of connection points: 2
#     Edge 109, Type (0, 1), BuildingBlock: OJICUG_clean_linker_0, # of connection points: 2
#     Edge 110, Type (0, 1), BuildingBlock: OJICUG_clean_linker_0, # of connection points: 2
#     Edge 111, Type (0, 1), BuildingBlock: OJICUG_clean_linker_0, # of connection points: 2
#     Edge 112, Type (0, 1), BuildingBlock: OJICUG_clean_linker_0, # of connection points: 2
#     Edge 113, Type (0, 1), BuildingBlock: OJICUG_clean_linker_0, # of connection points: 2
#     Edge 114, Type (0, 1), BuildingBlock: OJICUG_clean_linker_0, # of connection points: 2
#     Edge 115, Type (0, 1), BuildingBlock: OJICUG_clean_linker_0, # of connection points: 2
#     Edge 116, Type (0, 1), BuildingBlock: OJICUG_clean_linker_0, # of connection points: 2
#     Edge 117, Type (0, 1), BuildingBlock: OJICUG_clean_linker_0, # of connection points: 2
#     Edge 118, Type (0, 1), BuildingBlock: OJICUG_clean_linker_0, # of connection points: 2
#     Edge 119, Type (0, 1), BuildingBlock: OJICUG_clean_linker_0, # of connection points: 2
#     Edge 120, Type (0, 1), BuildingBlock: OJICUG_clean_linker_0, # of connection points: 2
#     Edge 121, Type (0, 1), BuildingBlock: OJICUG_clean_linker_0, # of connection points: 2
#     Edge 122, Type (0, 1), BuildingBlock: OJICUG_clean_linker_0, # of connection points: 2
#     Edge 123, Type (0, 1), BuildingBlock: OJICUG_clean_linker_0, # of connection points: 2
#     Edge 124, Type (0, 1), BuildingBlock: OJICUG_clean_linker_0, # of connection points: 2
#     Edge 125, Type (0, 1), BuildingBlock: OJICUG_clean_linker_0, # of connection points: 2
#     Edge 126, Type (0, 1), BuildingBlock: OJICUG_clean_linker_0, # of connection points: 2
#     Edge 127, Type (0, 1), BuildingBlock: OJICUG_clean_linker_0, # of connection points: 2
#     Edge 128, Type (0, 1), BuildingBlock: OJICUG_clean_linker_0, # of connection points: 2
#     Edge 129, Type (0, 1), BuildingBlock: OJICUG_clean_linker_0, # of connection points: 2
#     Edge 130, Type (0, 1), BuildingBlock: OJICUG_clean_linker_0, # of connection points: 2
#     Edge 131, Type (0, 1), BuildingBlock: OJICUG_clean_linker_0, # of connection points: 2
#     Edge 132, Type (0, 1), BuildingBlock: OJICUG_clean_linker_0, # of connection points: 2
#     Edge 133, Type (0, 1), BuildingBlock: OJICUG_clean_linker_0, # of connection points: 2
#     Edge 134, Type (0, 1), BuildingBlock: OJICUG_clean_linker_0, # of connection points: 2
#     Edge 135, Type (0, 1), BuildingBlock: OJICUG_clean_linker_0, # of connection points: 2
#     Edge 136, Type (0, 1), BuildingBlock: OJICUG_clean_linker_0, # of connection points: 2
#     Edge 137, Type (0, 1), BuildingBlock: OJICUG_clean_linker_0, # of connection points: 2
#     Edge 138, Type (0, 1), BuildingBlock: OJICUG_clean_linker_0, # of connection points: 2
#     Edge 139, Type (0, 1), BuildingBlock: OJICUG_clean_linker_0, # of connection points: 2
#     Edge 140, Type (0, 1), BuildingBlock: OJICUG_clean_linker_0, # of connection points: 2
#     Edge 141, Type (0, 1), BuildingBlock: OJICUG_clean_linker_0, # of connection points: 2
#     Edge 142, Type (0, 1), BuildingBlock: OJICUG_clean_linker_0, # of connection points: 2
#     Edge 143, Type (0, 1), BuildingBlock: OJICUG_clean_linker_0, # of connection points: 2
#     Edge 144, Type (0, 1), BuildingBlock: OJICUG_clean_linker_0, # of connection points: 2
#     Edge 145, Type (0, 1), BuildingBlock: OJICUG_clean_linker_0, # of connection points: 2
#     Edge 146, Type (0, 1), BuildingBlock: OJICUG_clean_linker_0, # of connection points: 2
#     Edge 147, Type (0, 1), BuildingBlock: OJICUG_clean_linker_0, # of connection points: 2
#     Edge 148, Type (0, 1), BuildingBlock: OJICUG_clean_linker_0, # of connection points: 2
#     Edge 149, Type (0, 1), BuildingBlock: OJICUG_clean_linker_0, # of connection points: 2
#     Edge 150, Type (0, 1), BuildingBlock: OJICUG_clean_linker_0, # of connection points: 2
#     Edge 151, Type (0, 1), BuildingBlock: OJICUG_clean_linker_0, # of connection points: 2
# Relax obj value: 0.023
# Max RMSD: 0.130
# Mean RMSD: 0.093
data_MOF--net-tbo--node1-OLANEW_clean_sbu_2--node2-MIFKUJ_clean_linker_1--edge1-OJICUG_clean_linker_0
_symmetry_space_group_name_H-M    P1
_symmetry_Int_Tables_number       1
_symmetry_cell_setting            triclinic
loop_
_symmetry_equiv_pos_as_xyz
'x, y, z'
_cell_length_a     70.176497
_cell_length_b     71.859699
_cell_length_c     69.40061
_cell_angle_alpha  97.68623
_cell_angle_beta   87.247902
_cell_angle_gamma 98.989308
loop_
_atom_site_label
_atom_site_type_symbol
_atom_site_fract_x
_atom_site_fract_y
_atom_site_fract_z
_atom_type_partial_charge
O0 O 0.22161 0.17598 0.18108 0.0
Cd1 Cd 0.20579 0.16386 0.21006 0.0
O2 O 0.20314 0.19815 0.18115 0.0
Cd3 Cd 0.18317 0.1922 0.20546 0.0
O4 O 0.15667 0.2008 0.21936 0.0
C5 C 0.15239 0.21587 0.21404 0.0
O6 O 0.16403 0.22459 0.20156 0.0
C7 C 0.21706 0.18993 0.17376 0.0
C8 C 0.22419 0.13564 0.22199 0.0
O9 O 0.21008 0.13136 0.21035 0.0
O10 O 0.2296 0.15325 0.22799 0.0
O11 O 0.88108 0.21187 0.16445 0.0
Cd12 Cd 0.85816 0.1897 0.14386 0.0
O13 O 0.87167 0.19687 0.18969 0.0
Cd14 Cd 0.84843 0.17586 0.17682 0.0
O15 O 0.83229 0.15051 0.18721 0.0
C16 C 0.84086 0.14542 0.20091 0.0
O17 O 0.85761 0.1552 0.20626 0.0
C18 C 0.88271 0.2099 0.18219 0.0
C19 C 0.84596 0.20523 0.11273 0.0
O20 O 0.83595 0.20489 0.12866 0.0
O21 O 0.86185 0.1984 0.11159 0.0
O22 O 0.8514 0.81632 0.19087 0.0
Cd23 Cd 0.86222 0.83225 0.22267 0.0
O24 O 0.86445 0.84036 0.17567 0.0
Cd25 Cd 0.86954 0.8598 0.2025 0.0
O26 O 0.86069 0.88378 0.22165 0.0
C27 C 0.84299 0.8854 0.22065 0.0
O28 O 0.83193 0.8725 0.20923 0.0
C29 C 0.85562 0.82344 0.17511 0.0
C30 C 0.89641 0.82025 0.23125 0.0
O31 O 0.87994 0.81139 0.23607 0.0
O32 O 0.89672 0.835 0.22263 0.0
O33 O 0.24814 0.85366 0.21617 0.0
Cd34 Cd 0.23409 0.8206 0.20628 0.0
O35 O 0.24399 0.85131 0.24743 0.0
Cd36 Cd 0.22818 0.82258 0.24259 0.0
O37 O 0.20063 0.80376 0.24157 0.0
C38 C 0.18785 0.80814 0.23136 0.0
O39 O 0.19251 0.82251 0.22128 0.0
C40 C 0.25 0.86111 0.23379 0.0
C41 C 0.24102 0.80988 0.1668 0.0
O42 O 0.22596 0.81724 0.17275 0.0
O43 O 0.25273 0.80749 0.17956 0.0
O44 O 0.23002 0.88452 0.84305 0.0
Cd45 Cd 0.20916 0.85557 0.8502 0.0
O46 O 0.21134 0.90343 0.85928 0.0
Cd47 Cd 0.18847 0.87989 0.8634 0.0
O48 O 0.16313 0.85935 0.85452 0.0
C49 C 0.16349 0.85056 0.83737 0.0
O50 O 0.1791 0.85377 0.82635 0.0
C51 C 0.22671 0.9012 0.84934 0.0
C52 C 0.22116 0.84016 0.88144 0.0
O53 O 0.22681 0.83497 0.86398 0.0
O54 O 0.20994 0.8528 0.88413 0.0
O55 O 0.22231 0.20545 0.87562 0.0
Cd56 Cd 0.20888 0.19657 0.84328 0.0
O57 O 0.19843 0.18873 0.89039 0.0
Cd58 Cd 0.18017 0.18448 0.86511 0.0
O59 O 0.15729 0.19074 0.84786 0.0
C60 C 0.15144 0.20652 0.85338 0.0
O61 O 0.15961 0.21753 0.86833 0.0
C62 C 0.21493 0.19902 0.89094 0.0
C63 C 0.22308 0.16386 0.82643 0.0
O64 O 0.23275 0.18039 0.82542 0.0
O65 O 0.20641 0.16277 0.83496 0.0
O66 O 0.82441 0.28099 0.82349 0.0
Cd67 Cd 0.83837 0.2841 0.79104 0.0
O68 O 0.82904 0.25135 0.81796 0.0
Cd69 Cd 0.82757 0.22173 0.82291 0.0
O70 O 0.82545 0.19087 0.81986 0.0
C71 C 0.81739 0.18169 0.80472 0.0
O72 O 0.81073 0.19115 0.79224 0.0
C73 C 0.82352 0.26491 0.82947 0.0
C74 C 0.87601 0.27623 0.79053 0.0
O75 O 0.87239 0.29326 0.79476 0.0
O76 O 0.86187 0.26299 0.78604 0.0
O77 O 0.88885 0.85702 0.83101 0.0
Cd78 Cd 0.86254 0.87099 0.84902 0.0
O79 O 0.88184 0.83067 0.84456 0.0
Cd80 Cd 0.85919 0.83864 0.86525 0.0
O81 O 0.84392 0.83161 0.89213 0.0
C82 C 0.83425 0.81506 0.89175 0.0
O83 O 0.83281 0.80386 0.87512 0.0
C84 C 0.89202 0.84035 0.83267 0.0
C85 C 0.85261 0.90171 0.83291 0.0
O86 O 0.86492 0.90433 0.84645 0.0
O87 O 0.84513 0.8846 0.82693 0.0
O88 O 0.23106 0.68052 0.67818 0.0
Cd89 Cd 0.21257 0.66528 0.70416 0.0
O90 O 0.21659 0.7059 0.68347 0.0
Cd91 Cd 0.19576 0.69787 0.7064 0.0
O92 O 0.16905 0.70544 0.72062 0.0
C93 C 0.15501 0.70522 0.70962 0.0
O94 O 0.15697 0.69926 0.69099 0.0
C95 C 0.22899 0.69681 0.67409 0.0
C96 C 0.22978 0.63609 0.71568 0.0
O97 O 0.21807 0.63285 0.70159 0.0
O98 O 0.23343 0.65314 0.72428 0.0
O99 O 0.86846 0.7252 0.68907 0.0
Cd100 Cd 0.83557 0.71081 0.68041 0.0
O101 O 0.8781 0.69727 0.6867 0.0
Cd102 Cd 0.84962 0.68066 0.68214 0.0
O103 O 0.83073 0.65843 0.69516 0.0
C104 C 0.83578 0.65659 0.71206 0.0
O105 O 0.85065 0.66821 0.71966 0.0
C106 C 0.88182 0.71528 0.68995 0.0
C107 C 0.82485 0.7213 0.64575 0.0
O108 O 0.82205 0.73121 0.66213 0.0
O109 O 0.83276 0.70639 0.64575 0.0
O110 O 0.85135 0.31578 0.70852 0.0
Cd111 Cd 0.86212 0.32809 0.74133 0.0
O112 O 0.85966 0.34315 0.69718 0.0
Cd113 Cd 0.86389 0.36009 0.72564 0.0
O114 O 0.85641 0.38521 0.74402 0.0
C115 C 0.86075 0.40087 0.73707 0.0
O116 O 0.8705 0.40104 0.72043 0.0
C117 C 0.8534 0.32545 0.6943 0.0
C118 C 0.89842 0.31823 0.74582 0.0
O119 O 0.88295 0.30678 0.7488 0.0
O120 O 0.89674 0.33452 0.74106 0.0
O121 O 0.22518 0.35519 0.70934 0.0
Cd122 Cd 0.20683 0.32343 0.70146 0.0
O123 O 0.24817 0.34662 0.72513 0.0
Cd124 Cd 0.23176 0.31817 0.72441 0.0
O125 O 0.20401 0.30212 0.73194 0.0
C126 C 0.19381 0.31174 0.74381 0.0
O127 O 0.20108 0.32925 0.75058 0.0
C128 C 0.24099 0.35949 0.71829 0.0
C129 C 0.21542 0.30821 0.66357 0.0
O130 O 0.20203 0.31854 0.6672 0.0
O131 O 0.22465 0.30489 0.67794 0.0
O132 O 0.21558 0.37763 0.34865 0.0
Cd133 Cd 0.19739 0.34671 0.35407 0.0
O134 O 0.20189 0.39442 0.37274 0.0
Cd135 Cd 0.18075 0.36973 0.37724 0.0
O136 O 0.15658 0.34983 0.3646 0.0
C137 C 0.15193 0.35368 0.34827 0.0
O138 O 0.16178 0.36847 0.34118 0.0
C139 C 0.21423 0.39355 0.35875 0.0
C140 C 0.21206 0.33117 0.38391 0.0
O141 O 0.21814 0.32768 0.36629 0.0
O142 O 0.1991 0.342 0.38738 0.0
O143 O 0.21934 0.71582 0.38167 0.0
Cd144 Cd 0.20431 0.70543 0.35026 0.0
O145 O 0.1946 0.70312 0.39867 0.0
Cd146 Cd 0.17574 0.6982 0.3738 0.0
O147 O 0.15401 0.70335 0.35445 0.0
C148 C 0.14641 0.71825 0.35959 0.0
O149 O 0.15207 0.72911 0.37568 0.0
C150 C 0.21187 0.71166 0.39789 0.0
C151 C 0.21371 0.66966 0.33648 0.0
O152 O 0.22515 0.68485 0.33367 0.0
O153 O 0.19753 0.67134 0.34541 0.0
O154 O 0.81946 0.76515 0.34142 0.0
Cd155 Cd 0.8294 0.76178 0.30712 0.0
O156 O 0.8174 0.73429 0.33911 0.0
Cd157 Cd 0.81016 0.70568 0.34742 0.0
O158 O 0.80296 0.67478 0.34297 0.0
C159 C 0.79529 0.66779 0.32686 0.0
O160 O 0.79192 0.67942 0.31477 0.0
C161 C 0.8159 0.75004 0.34942 0.0
C162 C 0.86874 0.75977 0.30312 0.0
O163 O 0.86245 0.77566 0.30366 0.0
O164 O 0.85638 0.74479 0.3043 0.0
O165 O 0.87948 0.35627 0.33918 0.0
Cd166 Cd 0.85576 0.37162 0.36011 0.0
O167 O 0.89618 0.3555 0.36505 0.0
Cd168 Cd 0.87392 0.36168 0.38702 0.0
O169 O 0.85763 0.35282 0.41275 0.0
C170 C 0.8478 0.33628 0.41093 0.0
O171 O 0.84695 0.32619 0.39366 0.0
C172 C 0.89458 0.35288 0.34666 0.0
C173 C 0.83957 0.39829 0.34294 0.0
O174 O 0.8565 0.40237 0.34994 0.0
O175 O 0.83034 0.38155 0.34384 0.0
O176 O 0.71729 0.17156 0.67133 0.0
Cd177 Cd 0.69719 0.15646 0.69643 0.0
O178 O 0.71713 0.20054 0.68638 0.0
Cd179 Cd 0.69384 0.19316 0.70735 0.0
O180 O 0.66628 0.20037 0.7199 0.0
C181 C 0.66178 0.21549 0.7149 0.0
O182 O 0.67375 0.22505 0.70331 0.0
C183 C 0.72316 0.18933 0.67248 0.0
C184 C 0.71502 0.12899 0.71059 0.0
O185 O 0.70398 0.12463 0.69596 0.0
O186 O 0.71759 0.14631 0.71856 0.0
O187 O 0.36483 0.21611 0.68887 0.0
Cd188 Cd 0.33244 0.20347 0.6773 0.0
O189 O 0.38058 0.19747 0.66842 0.0
Cd190 Cd 0.35384 0.17834 0.66146 0.0
O191 O 0.33618 0.15379 0.67199 0.0
C192 C 0.3298 0.15611 0.68946 0.0
O193 O 0.33284 0.17317 0.69934 0.0
C194 C 0.38071 0.21141 0.6818 0.0
C195 C 0.32552 0.21626 0.64246 0.0
O196 O 0.3251 0.22704 0.65869 0.0
O197 O 0.32922 0.19937 0.6426 0.0
O198 O 0.36353 0.83192 0.6939 0.0
Cd199 Cd 0.37671 0.85015 0.72382 0.0
O200 O 0.38077 0.85086 0.67506 0.0
Cd201 Cd 0.38703 0.87363 0.6991 0.0
O202 O 0.37997 0.90057 0.71398 0.0
C203 C 0.36936 0.90127 0.72935 0.0
O204 O 0.3637 0.88562 0.73724 0.0
C205 C 0.3693 0.83564 0.67699 0.0
C206 C 0.40921 0.8357 0.73336 0.0
O207 O 0.39223 0.82875 0.73897 0.0
O208 O 0.41088 0.84976 0.72349 0.0
O209 O 0.74047 0.85035 0.72136 0.0
Cd210 Cd 0.73078 0.81613 0.71288 0.0
O211 O 0.75125 0.84767 0.74995 0.0
Cd212 Cd 0.73597 0.8187 0.74856 0.0
O213 O 0.70714 0.80221 0.74959 0.0
C214 C 0.69405 0.81028 0.74366 0.0
O215 O 0.69907 0.8267 0.73704 0.0
C216 C 0.74912 0.8579 0.73683 0.0
C217 C 0.73639 0.80576 0.67315 0.0
O218 O 0.75025 0.80745 0.68493 0.0
O219 O 0.71976 0.80878 0.68018 0.0
O220 O 0.71727 0.87416 0.34727 0.0
Cd221 Cd 0.69666 0.84492 0.35414 0.0
O222 O 0.70453 0.89299 0.37028 0.0
Cd223 Cd 0.68145 0.87005 0.37533 0.0
O224 O 0.65726 0.85035 0.36243 0.0
C225 C 0.65279 0.85424 0.34605 0.0
O226 O 0.66259 0.86917 0.33917 0.0
C227 C 0.71701 0.89062 0.35662 0.0
C228 C 0.70981 0.82986 0.38513 0.0
O229 O 0.71529 0.82477 0.36758 0.0
O230 O 0.69812 0.84203 0.38799 0.0
O231 O 0.71369 0.19592 0.39251 0.0
Cd232 Cd 0.69985 0.18549 0.36052 0.0
O233 O 0.71949 0.22585 0.38729 0.0
Cd234 Cd 0.70153 0.22198 0.3618 0.0
O235 O 0.67854 0.22891 0.34511 0.0
C236 C 0.66999 0.24236 0.35327 0.0
O237 O 0.67548 0.25072 0.37055 0.0
C238 C 0.72111 0.21304 0.39784 0.0
C239 C 0.71541 0.15363 0.34329 0.0
O240 O 0.72442 0.17045 0.34237 0.0
O241 O 0.69886 0.15184 0.35206 0.0
O242 O 0.3349 0.27804 0.34359 0.0
Cd243 Cd 0.34558 0.27604 0.30948 0.0
O244 O 0.33631 0.24766 0.34085 0.0
Cd245 Cd 0.33188 0.21872 0.34845 0.0
O246 O 0.32747 0.18774 0.34462 0.0
C247 C 0.3357 0.17966 0.32981 0.0
O248 O 0.34661 0.19027 0.31831 0.0
C249 C 0.33283 0.26276 0.3513 0.0
C250 C 0.3854 0.27686 0.30587 0.0
O251 O 0.37789 0.29212 0.30676 0.0
O252 O 0.37403 0.26114 0.30655 0.0
O253 O 0.38894 0.85017 0.32659 0.0
Cd254 Cd 0.36533 0.86565 0.34747 0.0
O255 O 0.37966 0.82279 0.33771 0.0
Cd256 Cd 0.35823 0.83147 0.35952 0.0
O257 O 0.34336 0.82586 0.38702 0.0
C258 C 0.35379 0.82722 0.40177 0.0
O259 O 0.3724 0.83313 0.39995 0.0
C260 C 0.39048 0.83275 0.32649 0.0
C261 C 0.35425 0.89659 0.33275 0.0
O262 O 0.36895 0.89875 0.34354 0.0
O263 O 0.34494 0.87978 0.32876 0.0
O264 O 0.71466 0.66475 0.16402 0.0
Cd265 Cd 0.69343 0.6503 0.18879 0.0
O266 O 0.71637 0.69391 0.17914 0.0
Cd267 Cd 0.69344 0.68763 0.20078 0.0
O268 O 0.66679 0.6965 0.21397 0.0
C269 C 0.66331 0.71213 0.20929 0.0
O270 O 0.6757 0.72119 0.19767 0.0
C271 C 0.72151 0.68232 0.1651 0.0
C272 C 0.7088 0.62167 0.20373 0.0
O273 O 0.69892 0.61802 0.18825 0.0
O274 O 0.71149 0.63885 0.2121 0.0
O275 O 0.38169 0.70206 0.16472 0.0
Cd276 Cd 0.35307 0.68353 0.14906 0.0
O277 O 0.38355 0.67911 0.18225 0.0
Cd278 Cd 0.35676 0.66107 0.17323 0.0
O279 O 0.33319 0.64016 0.18199 0.0
C280 C 0.32322 0.64521 0.19701 0.0
O281 O 0.32655 0.66294 0.20518 0.0
C282 C 0.39031 0.69528 0.17726 0.0
C283 C 0.33925 0.70127 0.12045 0.0
O284 O 0.33292 0.70371 0.1381 0.0
O285 O 0.35225 0.69053 0.11638 0.0
O286 O 0.35879 0.31968 0.19297 0.0
Cd287 Cd 0.36927 0.33696 0.22443 0.0
O288 O 0.33749 0.33863 0.19057 0.0
Cd289 Cd 0.34332 0.35744 0.21765 0.0
O290 O 0.33703 0.38327 0.23541 0.0
C291 C 0.33754 0.39753 0.22626 0.0
O292 O 0.34287 0.3959 0.20778 0.0
C293 C 0.34556 0.32445 0.18363 0.0
C294 C 0.40578 0.33052 0.23352 0.0
O295 O 0.39052 0.31951 0.23808 0.0
O296 O 0.40379 0.34461 0.22466 0.0
O297 O 0.80518 0.35274 0.20361 0.0
Cd298 Cd 0.81061 0.32008 0.19376 0.0
O299 O 0.7746 0.34161 0.20729 0.0
Cd300 Cd 0.74375 0.34206 0.21292 0.0
O301 O 0.71287 0.33565 0.21935 0.0
C302 C 0.70537 0.34343 0.23478 0.0
O303 O 0.71639 0.35592 0.24664 0.0
C304 C 0.78807 0.35575 0.20808 0.0
C305 C 0.80213 0.30922 0.15471 0.0
O306 O 0.81913 0.31697 0.15989 0.0
O307 O 0.78913 0.3064 0.16805 0.0
O308 O 0.70586 0.37454 0.84094 0.0
Cd309 Cd 0.68766 0.34539 0.85114 0.0
O310 O 0.70156 0.39312 0.86825 0.0
Cd311 Cd 0.67812 0.37183 0.87654 0.0
O312 O 0.65252 0.35264 0.86589 0.0
C313 C 0.64671 0.35661 0.85009 0.0
O314 O 0.65581 0.37159 0.84275 0.0
C315 C 0.70942 0.39057 0.8514 0.0
C316 C 0.7062 0.33114 0.87943 0.0
O317 O 0.70923 0.32596 0.86129 0.0
O318 O 0.69447 0.34305 0.88417 0.0
O319 O 0.70572 0.69992 0.8791 0.0
Cd320 Cd 0.68861 0.68834 0.8489 0.0
O321 O 0.68575 0.68125 0.89614 0.0
Cd322 Cd 0.66458 0.67615 0.87327 0.0
O323 O 0.64373 0.68449 0.85495 0.0
C324 C 0.63732 0.69979 0.86142 0.0
O325 O 0.64332 0.7089 0.87826 0.0
C326 C 0.70119 0.69301 0.89494 0.0
C327 C 0.7012 0.65455 0.83266 0.0
O328 O 0.70895 0.67052 0.82742 0.0
O329 O 0.68721 0.65452 0.84522 0.0
O330 O 0.32201 0.77319 0.83404 0.0
Cd331 Cd 0.33277 0.77096 0.79999 0.0
O332 O 0.32604 0.74349 0.83208 0.0
Cd333 Cd 0.32501 0.71482 0.83983 0.0
O334 O 0.32392 0.68402 0.83547 0.0
C335 C 0.31874 0.67587 0.81875 0.0
O336 O 0.31433 0.6863 0.80592 0.0
C337 C 0.32145 0.75831 0.84222 0.0
C338 C 0.37171 0.76709 0.79732 0.0
O339 O 0.36634 0.78346 0.79852 0.0
O340 O 0.35862 0.75247 0.79707 0.0
O341 O 0.38193 0.34679 0.82885 0.0
Cd342 Cd 0.35696 0.36163 0.84831 0.0
O343 O 0.37414 0.31987 0.84126 0.0
Cd344 Cd 0.35195 0.32772 0.8626 0.0
O345 O 0.33693 0.32045 0.88956 0.0
C346 C 0.34712 0.3217 0.90447 0.0
O347 O 0.36558 0.32851 0.90324 0.0
C348 C 0.38448 0.32977 0.82966 0.0
C349 C 0.34648 0.39237 0.83263 0.0
O350 O 0.36037 0.39476 0.8445 0.0
O351 O 0.33767 0.37544 0.82807 0.0
H352 H 0.24372 0.23687 0.01102 0.0
H353 H 0.22791 0.22607 0.98008 0.0
H354 H 0.28278 0.21648 0.95275 0.0
H355 H 0.29855 0.22732 0.98383 0.0
H356 H 0.26282 0.22007 0.0337 0.0
H357 H 0.27677 0.27419 0.99909 0.0
H358 H 0.28828 0.29147 0.97171 0.0
H359 H 0.34534 0.27742 0.97697 0.0
H360 H 0.33375 0.26043 0.00454 0.0
H361 H 0.33493 0.25931 0.06774 0.0
H362 H 0.34702 0.27601 0.09893 0.0
H363 H 0.28907 0.28532 0.11692 0.0
H364 H 0.27729 0.26936 0.08558 0.0
H365 H 0.3171 0.27355 0.03993 0.0
H366 H 0.29977 0.22353 0.08126 0.0
H367 H 0.28464 0.21151 0.11064 0.0
H368 H 0.2292 0.2213 0.09299 0.0
H369 H 0.24443 0.23392 0.0642 0.0
C370 C 0.27233 0.23303 0.99972 0.0
C371 C 0.25233 0.2323 0.99841 0.0
C372 C 0.2433 0.22608 0.98072 0.0
C373 C 0.2541 0.22042 0.96396 0.0
C374 C 0.27412 0.22098 0.96534 0.0
C375 C 0.28314 0.22715 0.98309 0.0
C376 C 0.28178 0.24014 0.01852 0.0
C377 C 0.27466 0.23179 0.03509 0.0
C378 C 0.29735 0.25532 0.02028 0.0
C379 C 0.30437 0.26585 0.0037 0.0
C380 C 0.29174 0.27477 0.99426 0.0
C381 C 0.29833 0.28462 0.97859 0.0
C382 C 0.31774 0.28582 0.97209 0.0
C383 C 0.33038 0.27702 0.98175 0.0
C384 C 0.32378 0.26721 0.99745 0.0
C385 C 0.30518 0.26291 0.07442 0.0
C386 C 0.32487 0.26493 0.07846 0.0
C387 C 0.33172 0.27434 0.09633 0.0
C388 C 0.31902 0.28202 0.1104 0.0
C389 C 0.29929 0.27979 0.10632 0.0
C390 C 0.29248 0.27046 0.08848 0.0
C391 C 0.29794 0.25365 0.05521 0.0
C392 C 0.30553 0.26157 0.03851 0.0
C393 C 0.28238 0.23844 0.05346 0.0
C394 C 0.27328 0.22985 0.07062 0.0
C395 C 0.28436 0.22312 0.08378 0.0
C396 C 0.27568 0.21611 0.10047 0.0
C397 C 0.25574 0.21562 0.10425 0.0
C398 C 0.24464 0.22181 0.09072 0.0
C399 C 0.2533 0.22885 0.07412 0.0
H400 H 0.78658 0.23236 0.94491 0.0
H401 H 0.79447 0.23082 0.90987 0.0
H402 H 0.80844 0.29199 0.91613 0.0
H403 H 0.80095 0.29343 0.95089 0.0
H404 H 0.80611 0.24576 0.97814 0.0
H405 H 0.75073 0.25755 0.94969 0.0
H406 H 0.73429 0.27102 0.92586 0.0
H407 H 0.75311 0.32741 0.95509 0.0
H408 H 0.76977 0.31384 0.97884 0.0
H409 H 0.7959 0.30673 0.02989 0.0
H410 H 0.79961 0.31624 0.06483 0.0
H411 H 0.76905 0.26152 0.076 0.0
H412 H 0.7649 0.25234 0.04098 0.0
H413 H 0.76133 0.29055 0.00513 0.0
H414 H 0.82652 0.27292 0.0227 0.0
H415 H 0.84043 0.25929 0.04845 0.0
H416 H 0.79538 0.21076 0.04141 0.0
H417 H 0.78179 0.22427 0.01544 0.0
C418 C 0.79283 0.26303 0.95043 0.0
C419 C 0.79152 0.24538 0.93872 0.0
C420 C 0.79598 0.24453 0.91875 0.0
C421 C 0.80172 0.26131 0.91026 0.0
C422 C 0.80361 0.27886 0.92218 0.0
C423 C 0.79938 0.27969 0.94205 0.0
C424 C 0.78683 0.26445 0.9713 0.0
C425 C 0.796 0.25521 0.98394 0.0
C426 C 0.77335 0.2765 0.97895 0.0
C427 C 0.76168 0.2847 0.9659 0.0
C428 C 0.75129 0.27281 0.95101 0.0
C429 C 0.74197 0.28052 0.93736 0.0
C430 C 0.74262 0.30027 0.93849 0.0
C431 C 0.75232 0.31213 0.95391 0.0
C432 C 0.76179 0.3044 0.9675 0.0
C433 C 0.78024 0.27882 0.03291 0.0
C434 C 0.78961 0.29697 0.03991 0.0
C435 C 0.79192 0.30228 0.05984 0.0
C436 C 0.78486 0.28953 0.07314 0.0
C437 C 0.77458 0.27168 0.06613 0.0
C438 C 0.77226 0.26639 0.04614 0.0
C439 C 0.78102 0.27231 0.0118 0.0
C440 C 0.77099 0.2807 0.99917 0.0
C441 C 0.79309 0.25896 0.0041 0.0
C442 C 0.80327 0.24947 0.01716 0.0
C443 C 0.82 0.25911 0.02638 0.0
C444 C 0.82786 0.25137 0.04108 0.0
C445 C 0.81887 0.23407 0.04692 0.0
C446 C 0.80247 0.22418 0.03721 0.0
C447 C 0.79483 0.23176 0.0223 0.0
H448 H 0.79997 0.79336 0.06529 0.0
H449 H 0.81532 0.80889 0.09528 0.0
H450 H 0.83301 0.75595 0.10476 0.0
H451 H 0.81772 0.74046 0.07456 0.0
H452 H 0.81384 0.77715 0.03259 0.0
H453 H 0.7665 0.75649 0.08116 0.0
H454 H 0.75368 0.74207 0.10988 0.0
H455 H 0.77373 0.68964 0.08577 0.0
H456 H 0.78594 0.7041 0.05674 0.0
H457 H 0.77351 0.70411 0.99634 0.0
H458 H 0.75487 0.6918 0.96712 0.0
H459 H 0.74151 0.74792 0.96385 0.0
H460 H 0.75954 0.76003 0.99329 0.0
H461 H 0.76409 0.71979 0.03127 0.0
H462 H 0.80761 0.74056 0.98022 0.0
H463 H 0.81635 0.75522 0.95062 0.0
H464 H 0.80238 0.80859 0.97987 0.0
H465 H 0.79391 0.79384 0.00953 0.0
C466 C 0.80755 0.76571 0.06773 0.0
C467 C 0.80727 0.78511 0.07374 0.0
C468 C 0.81609 0.79398 0.09086 0.0
C469 C 0.82541 0.78365 0.10236 0.0
C470 C 0.82576 0.76423 0.09631 0.0
C471 C 0.81701 0.75536 0.07908 0.0
C472 C 0.79801 0.75649 0.04952 0.0
C473 C 0.80287 0.76469 0.03234 0.0
C474 C 0.78407 0.73993 0.04903 0.0
C475 C 0.77724 0.73139 0.06689 0.0
C476 C 0.76828 0.74195 0.08217 0.0
C477 C 0.76106 0.73368 0.09865 0.0
C478 C 0.76271 0.71466 0.10025 0.0
C479 C 0.77196 0.70421 0.08497 0.0
C480 C 0.77903 0.71247 0.06839 0.0
C481 C 0.76826 0.73307 0.99682 0.0
C482 C 0.76649 0.71373 0.98938 0.0
C483 C 0.75586 0.70672 0.97272 0.0
C484 C 0.74696 0.71897 0.96314 0.0
C485 C 0.74854 0.73825 0.97074 0.0
C486 C 0.75889 0.74517 0.98753 0.0
C487 C 0.77968 0.74064 0.0144 0.0
C488 C 0.77525 0.73209 0.03144 0.0
C489 C 0.79396 0.75695 0.01479 0.0
C490 C 0.79997 0.76607 0.99704 0.0
C491 C 0.80641 0.75541 0.98024 0.0
C492 C 0.81129 0.7638 0.96329 0.0
C493 C 0.80991 0.78306 0.9628 0.0
C494 C 0.80378 0.79378 0.97978 0.0
C495 C 0.79891 0.78537 0.99675 0.0
H496 H 0.2829 0.73607 0.95991 0.0
H497 H 0.29252 0.73257 0.92531 0.0
H498 H 0.30827 0.79346 0.92858 0.0
H499 H 0.2989 0.79684 0.96307 0.0
H500 H 0.30085 0.75103 0.99378 0.0
H501 H 0.2485 0.76267 0.95819 0.0
H502 H 0.2364 0.77716 0.93223 0.0
H503 H 0.25395 0.83285 0.96362 0.0
H504 H 0.26625 0.81827 0.98949 0.0
H505 H 0.29583 0.79214 0.05254 0.0
H506 H 0.28825 0.80013 0.08707 0.0
H507 H 0.22786 0.77995 0.07656 0.0
H508 H 0.23557 0.77216 0.04192 0.0
H509 H 0.25213 0.79354 0.0143 0.0
H510 H 0.32255 0.76304 0.02427 0.0
H511 H 0.33612 0.74782 0.04887 0.0
H512 H 0.27851 0.72586 0.0681 0.0
H513 H 0.26505 0.74088 0.04338 0.0
C514 C 0.2899 0.76673 0.96397 0.0
C515 C 0.28868 0.74861 0.95321 0.0
C516 C 0.29414 0.74664 0.93347 0.0
C517 C 0.30087 0.76277 0.92421 0.0
C518 C 0.30276 0.78081 0.93523 0.0
C519 C 0.29747 0.78275 0.95494 0.0
C520 C 0.28237 0.76911 0.98434 0.0
C521 C 0.29018 0.76027 0.99828 0.0
C522 C 0.26801 0.78073 0.99009 0.0
C523 C 0.25852 0.78941 0.97564 0.0
C524 C 0.24966 0.778 0.95953 0.0
C525 C 0.24282 0.78628 0.94468 0.0
C526 C 0.24444 0.80613 0.94581 0.0
C527 C 0.25244 0.81751 0.96241 0.0
C528 C 0.25944 0.8092 0.9772 0.0
C529 C 0.26628 0.78138 0.04471 0.0
C530 C 0.28096 0.78939 0.05769 0.0
C531 C 0.27662 0.79387 0.07744 0.0
C532 C 0.25746 0.79054 0.08461 0.0
C533 C 0.24273 0.78285 0.07149 0.0
C534 C 0.2471 0.77836 0.05171 0.0
C535 C 0.2711 0.77596 0.02389 0.0
C536 C 0.2627 0.78419 0.00983 0.0
C537 C 0.28456 0.76339 0.01798 0.0
C538 C 0.29279 0.7533 0.03214 0.0
C539 C 0.31286 0.75478 0.03365 0.0
C540 C 0.32059 0.74609 0.0477 0.0
C541 C 0.30836 0.7358 0.06051 0.0
C542 C 0.28828 0.73399 0.05867 0.0
C543 C 0.28058 0.74254 0.04453 0.0
H544 H 0.04849 0.26881 0.2245 0.0
H545 H 0.07679 0.25415 0.21296 0.0
H546 H 0.08278 0.23917 0.27041 0.0
H547 H 0.05402 0.25321 0.28165 0.0
H548 H 0.01414 0.25621 0.2388 0.0
H549 H 0.06804 0.30055 0.26142 0.0
H550 H 0.09773 0.3147 0.27793 0.0
H551 H 0.07002 0.30382 0.33317 0.0
H552 H 0.04071 0.28869 0.3164 0.0
H553 H 0.98422 0.28621 0.31146 0.0
H554 H 0.95841 0.30218 0.32731 0.0
H555 H 0.95149 0.32617 0.27465 0.0
H556 H 0.97733 0.30972 0.25865 0.0
H557 H 0.0181 0.30429 0.29732 0.0
H558 H 0.96305 0.26092 0.2732 0.0
H559 H 0.93368 0.24852 0.25562 0.0
H560 H 0.96402 0.25908 0.20148 0.0
H561 H 0.99293 0.27298 0.21942 0.0
C562 C 0.04926 0.26234 0.25399 0.0
C563 C 0.05578 0.26219 0.23455 0.0
C564 C 0.07208 0.25396 0.22803 0.0
C565 C 0.0822 0.24565 0.24082 0.0
C566 C 0.07529 0.24534 0.26015 0.0
C567 C 0.05896 0.25353 0.26665 0.0
C568 C 0.03257 0.27202 0.26114 0.0
C569 C 0.01505 0.26694 0.25143 0.0
C570 C 0.03374 0.28587 0.27775 0.0
C571 C 0.05217 0.2934 0.28764 0.0
C572 C 0.06849 0.3008 0.27703 0.0
C573 C 0.0854 0.30913 0.28654 0.0
C574 C 0.08624 0.31054 0.30692 0.0
C575 C 0.06998 0.30278 0.31746 0.0
C576 C 0.05314 0.29429 0.30791 0.0
C577 C 0.98274 0.29683 0.28392 0.0
C578 C 0.97708 0.29482 0.30327 0.0
C579 C 0.96239 0.30406 0.31234 0.0
C580 C 0.95311 0.31572 0.30235 0.0
C581 C 0.95833 0.31725 0.28272 0.0
C582 C 0.97308 0.3079 0.27358 0.0
C583 C 0.99954 0.28819 0.27526 0.0
C584 C 0.01717 0.29358 0.28465 0.0
C585 C 0.99847 0.27486 0.25822 0.0
C586 C 0.98021 0.26816 0.24771 0.0
C587 C 0.96326 0.26114 0.25762 0.0
C588 C 0.94649 0.25371 0.24745 0.0
C589 C 0.94643 0.25259 0.22703 0.0
C590 C 0.96336 0.25992 0.21718 0.0
C591 C 0.98002 0.26769 0.22742 0.0
H592 H 0.78273 0.03871 0.23699 0.0
H593 H 0.79473 0.06518 0.21865 0.0
H594 H 0.81679 0.0987 0.27153 0.0
H595 H 0.8055 0.07199 0.28956 0.0
H596 H 0.80378 0.01921 0.25569 0.0
H597 H 0.7482 0.05194 0.27517 0.0
H598 H 0.73322 0.08018 0.28708 0.0
H599 H 0.76877 0.0904 0.3376 0.0
H600 H 0.78332 0.06187 0.32591 0.0
H601 H 0.78117 0.00126 0.33409 0.0
H602 H 0.76917 0.97339 0.35056 0.0
H603 H 0.74811 0.94275 0.29599 0.0
H604 H 0.7598 0.97057 0.27975 0.0
H605 H 0.76214 0.02264 0.31552 0.0
H606 H 0.81261 0.98439 0.29727 0.0
H607 H 0.82527 0.95514 0.28441 0.0
H608 H 0.7992 0.9555 0.22934 0.0
H609 H 0.7863 0.98444 0.24236 0.0
C610 C 0.79309 0.05341 0.26467 0.0
C611 C 0.79005 0.05182 0.24462 0.0
C612 C 0.79679 0.067 0.23419 0.0
C613 C 0.80678 0.08401 0.24362 0.0
C614 C 0.80937 0.0857 0.26379 0.0
C615 C 0.80269 0.07052 0.27418 0.0
C616 C 0.78737 0.03681 0.27539 0.0
C617 C 0.79449 0.01987 0.26864 0.0
C618 C 0.77572 0.03783 0.29257 0.0
C619 C 0.76685 0.05492 0.29967 0.0
C620 C 0.75271 0.06026 0.28882 0.0
C621 C 0.74416 0.0763 0.29563 0.0
C622 C 0.74993 0.0874 0.31319 0.0
C623 C 0.7642 0.0821 0.32396 0.0
C624 C 0.77243 0.06582 0.31736 0.0
C625 C 0.77166 0.9879 0.30564 0.0
C626 C 0.77402 0.9885 0.3257 0.0
C627 C 0.76717 0.9726 0.33508 0.0
C628 C 0.7579 0.95584 0.32451 0.0
C629 C 0.75558 0.95531 0.30443 0.0
C630 C 0.76226 0.97122 0.29513 0.0
C631 C 0.77837 0.00487 0.29569 0.0
C632 C 0.77153 0.02195 0.30264 0.0
C633 C 0.79022 0.00391 0.2786 0.0
C634 C 0.79838 0.9865 0.27081 0.0
C635 C 0.80957 0.9781 0.28246 0.0
C636 C 0.8169 0.96148 0.27506 0.0
C637 C 0.81313 0.95297 0.25591 0.0
C638 C 0.80211 0.96156 0.24424 0.0
C639 C 0.79487 0.97818 0.2516 0.0
H640 H 0.04751 0.72004 0.28864 0.0
H641 H 0.07231 0.71064 0.3074 0.0
H642 H 0.09967 0.76917 0.3174 0.0
H643 H 0.07454 0.77851 0.29924 0.0
H644 H 0.02127 0.74424 0.30036 0.0
H645 H 0.07458 0.74176 0.25361 0.0
H646 H 0.10832 0.74996 0.24301 0.0
H647 H 0.10145 0.80918 0.24916 0.0
H648 H 0.06797 0.80101 0.26 0.0
H649 H 0.01051 0.80666 0.2661 0.0
H650 H 0.9822 0.81948 0.25731 0.0
H651 H 0.95633 0.76306 0.23339 0.0
H652 H 0.98468 0.75042 0.24218 0.0
H653 H 0.03724 0.78111 0.24452 0.0
H654 H 0.99385 0.78523 0.3032 0.0
H655 H 0.9595 0.78474 0.3111 0.0
H656 H 0.9476 0.72776 0.28069 0.0
H657 H 0.98214 0.72823 0.27346 0.0
C658 C 0.05929 0.74993 0.29238 0.0
C659 C 0.05885 0.73082 0.29492 0.0
C660 C 0.07312 0.72546 0.30549 0.0
C661 C 0.08799 0.73915 0.31386 0.0
C662 C 0.08832 0.75829 0.31132 0.0
C663 C 0.07407 0.76363 0.30078 0.0
C664 C 0.0441 0.75569 0.2813 0.0
C665 C 0.02481 0.75188 0.28789 0.0
C666 C 0.04867 0.7662 0.26533 0.0
C667 C 0.06878 0.77079 0.25779 0.0
C668 C 0.08037 0.75651 0.25271 0.0
C669 C 0.09962 0.76119 0.24664 0.0
C670 C 0.10749 0.7802 0.24523 0.0
C671 C 0.09571 0.79438 0.24983 0.0
C672 C 0.07657 0.78973 0.25606 0.0
C673 C 0.9996 0.77762 0.25483 0.0
C674 C 0.99895 0.79718 0.2585 0.0
C675 C 0.98274 0.80444 0.25354 0.0
C676 C 0.96694 0.79223 0.24489 0.0
C677 C 0.96813 0.77277 0.24035 0.0
C678 C 0.98436 0.76555 0.2452 0.0
C679 C 0.01477 0.76949 0.26355 0.0
C680 C 0.03387 0.77298 0.25666 0.0
C681 C 0.01022 0.75893 0.27934 0.0
C682 C 0.99044 0.75673 0.28786 0.0
C683 C 0.98386 0.77242 0.29882 0.0
C684 C 0.9642 0.77222 0.30304 0.0
C685 C 0.95074 0.75634 0.29623 0.0
C686 C 0.95755 0.74017 0.28628 0.0
C687 C 0.97729 0.74035 0.28219 0.0
H688 H 0.25015 0.03609 0.26817 0.0
H689 H 0.23471 0.06032 0.25605 0.0
H690 H 0.29075 0.09016 0.24142 0.0
H691 H 0.30612 0.06577 0.25334 0.0
H692 H 0.27228 0.01151 0.25173 0.0
H693 H 0.27948 0.06379 0.30307 0.0
H694 H 0.28831 0.09738 0.31529 0.0
H695 H 0.34785 0.09394 0.29827 0.0
H696 H 0.33877 0.06045 0.28547 0.0
H697 H 0.34315 0.00063 0.28416 0.0
H698 H 0.35565 0.9743 0.29599 0.0
H699 H 0.29811 0.9525 0.31557 0.0
H700 H 0.28581 0.9788 0.30389 0.0
H701 H 0.32197 0.0293 0.30226 0.0
H702 H 0.31323 0.97686 0.24903 0.0
H703 H 0.30393 0.9426 0.2395 0.0
H704 H 0.24665 0.94639 0.26383 0.0
H705 H 0.25596 0.98062 0.27317 0.0
C706 C 0.27931 0.0492 0.2619 0.0
C707 C 0.25912 0.04776 0.2622 0.0
C708 C 0.25031 0.06161 0.25525 0.0
C709 C 0.26152 0.07721 0.24786 0.0
C710 C 0.28174 0.07848 0.2473 0.0
C711 C 0.29053 0.06454 0.25411 0.0
C712 C 0.28857 0.03472 0.26989 0.0
C713 C 0.28305 0.01548 0.26284 0.0
C714 C 0.30281 0.03976 0.28427 0.0
C715 C 0.30842 0.05972 0.29308 0.0
C716 C 0.29444 0.07028 0.30198 0.0
C717 C 0.29954 0.08944 0.30913 0.0
C718 C 0.31878 0.09837 0.30767 0.0
C719 C 0.33287 0.08755 0.29935 0.0
C720 C 0.32774 0.06839 0.29217 0.0
C721 C 0.31353 0.9915 0.29289 0.0
C722 C 0.33331 0.99028 0.29122 0.0
C723 C 0.34041 0.97524 0.29797 0.0
C724 C 0.32781 0.96118 0.30648 0.0
C725 C 0.30812 0.96286 0.30871 0.0
C726 C 0.30108 0.97792 0.30211 0.0
C727 C 0.30557 0.00628 0.28412 0.0
C728 C 0.31134 0.02549 0.291 0.0
C729 C 0.29147 0.00127 0.2697 0.0
C730 C 0.28526 0.98119 0.26181 0.0
C731 C 0.29859 0.97032 0.25201 0.0
C732 C 0.29329 0.95082 0.24659 0.0
C733 C 0.27465 0.9419 0.2511 0.0
C734 C 0.26117 0.95293 0.26038 0.0
C735 C 0.2664 0.97246 0.26555 0.0
H736 H 0.04934 0.78545 0.8105 0.0
H737 H 0.07928 0.79894 0.82717 0.0
H738 H 0.10507 0.81535 0.77292 0.0
H739 H 0.07534 0.80147 0.75639 0.0
H740 H 0.02578 0.80291 0.79187 0.0
H741 H 0.06024 0.75121 0.77672 0.0
H742 H 0.08724 0.73427 0.76609 0.0
H743 H 0.08596 0.75161 0.70893 0.0
H744 H 0.05871 0.76826 0.71961 0.0
H745 H 0.99674 0.77948 0.71652 0.0
H746 H 0.96652 0.76607 0.69987 0.0
H747 H 0.94649 0.73705 0.74933 0.0
H748 H 0.97644 0.75075 0.76602 0.0
H749 H 0.02289 0.75538 0.7328 0.0
H750 H 0.98448 0.80652 0.75184 0.0
H751 H 0.95566 0.81923 0.76581 0.0
H752 H 0.96365 0.79814 0.81987 0.0
H753 H 0.99203 0.78512 0.80571 0.0
C754 C 0.06017 0.79236 0.7822 0.0
C755 C 0.06152 0.79186 0.80222 0.0
C756 C 0.07861 0.79964 0.81173 0.0
C757 C 0.09462 0.80822 0.80139 0.0
C758 C 0.0932 0.80853 0.78128 0.0
C759 C 0.07617 0.80067 0.77179 0.0
C760 C 0.04184 0.7849 0.77221 0.0
C761 C 0.02512 0.79239 0.77906 0.0
C762 C 0.041 0.77121 0.75549 0.0
C763 C 0.05758 0.76116 0.74901 0.0
C764 C 0.06587 0.75147 0.76193 0.0
C765 C 0.08134 0.74181 0.75584 0.0
C766 C 0.08881 0.74158 0.73665 0.0
C767 C 0.08039 0.75125 0.72372 0.0
C768 C 0.06488 0.76086 0.72982 0.0
C769 C 0.9887 0.76609 0.74246 0.0
C770 C 0.98575 0.77032 0.72377 0.0
C771 C 0.96854 0.76275 0.71434 0.0
C772 C 0.95432 0.75051 0.72334 0.0
C773 C 0.95733 0.74636 0.74208 0.0
C774 C 0.97434 0.75419 0.75161 0.0
C775 C 0.00699 0.77362 0.75233 0.0
C776 C 0.02367 0.76605 0.74549 0.0
C777 C 0.00765 0.7868 0.7694 0.0
C778 C 0.99028 0.7947 0.77768 0.0
C779 C 0.97989 0.8045 0.76664 0.0
C780 C 0.96355 0.81191 0.77468 0.0
C781 C 0.95732 0.80959 0.7939 0.0
C782 C 0.96789 0.7999 0.80493 0.0
C783 C 0.9842 0.79258 0.79692 0.0
H784 H 0.2871 0.04542 0.72849 0.0
H785 H 0.29282 0.07196 0.70911 0.0
H786 H 0.31886 0.10847 0.75857 0.0
H787 H 0.31278 0.082 0.77782 0.0
H788 H 0.31473 0.02974 0.74849 0.0
H789 H 0.25393 0.05767 0.76542 0.0
H790 H 0.23862 0.08612 0.77534 0.0
H791 H 0.27599 0.10126 0.82443 0.0
H792 H 0.29091 0.07261 0.81471 0.0
H793 H 0.28784 0.01295 0.82712 0.0
H794 H 0.27583 0.98542 0.84405 0.0
H795 H 0.26365 0.95112 0.78876 0.0
H796 H 0.27524 0.97861 0.77197 0.0
H797 H 0.26993 0.03135 0.80603 0.0
H798 H 0.32336 0.99826 0.79484 0.0
H799 H 0.34097 0.97147 0.78545 0.0
H800 H 0.32331 0.96823 0.72618 0.0
H801 H 0.30538 0.99472 0.73567 0.0
C802 C 0.29938 0.06182 0.7546 0.0
C803 C 0.29403 0.05918 0.73509 0.0
C804 C 0.29734 0.07433 0.72405 0.0
C805 C 0.30619 0.09239 0.73231 0.0
C806 C 0.31164 0.09489 0.75186 0.0
C807 C 0.30828 0.07975 0.76287 0.0
C808 C 0.29559 0.04584 0.76635 0.0
C809 C 0.30479 0.02988 0.76095 0.0
C810 C 0.28331 0.04651 0.78304 0.0
C811 C 0.27348 0.06312 0.78939 0.0
C812 C 0.25866 0.06705 0.77841 0.0
C813 C 0.24995 0.08323 0.78407 0.0
C814 C 0.25623 0.09584 0.80057 0.0
C815 C 0.27102 0.0918 0.81157 0.0
C816 C 0.27944 0.07544 0.80612 0.0
C817 C 0.28266 0.99783 0.79825 0.0
C818 C 0.28268 0.99947 0.81865 0.0
C819 C 0.27583 0.98376 0.82831 0.0
C820 C 0.26894 0.96611 0.81771 0.0
C821 C 0.26923 0.96444 0.7973 0.0
C822 C 0.27586 0.98016 0.78768 0.0
C823 C 0.2887 0.01473 0.78797 0.0
C824 C 0.27997 0.031 0.79365 0.0
C825 C 0.30178 0.01441 0.77173 0.0
C826 C 0.31283 0.9984 0.76601 0.0
C827 C 0.32311 0.99168 0.77986 0.0
C828 C 0.33321 0.97641 0.77448 0.0
C829 C 0.33352 0.96779 0.75509 0.0
C830 C 0.32351 0.97474 0.74119 0.0
C831 C 0.31325 0.98986 0.74661 0.0
H832 H 0.99877 0.25986 0.7381 0.0
H833 H 0.96982 0.2722 0.73022 0.0
H834 H 0.9814 0.3183 0.77687 0.0
H835 H 0.01026 0.30584 0.78465 0.0
H836 H 0.0451 0.28558 0.75498 0.0
H837 H 0.98499 0.23516 0.76509 0.0
H838 H 0.95071 0.23792 0.76839 0.0
H839 H 0.96239 0.28031 0.81848 0.0
H840 H 0.99678 0.27789 0.81455 0.0
H841 H 0.05136 0.25483 0.8263 0.0
H842 H 0.07572 0.24196 0.84233 0.0
H843 H 0.09806 0.21983 0.78623 0.0
H844 H 0.07318 0.23215 0.77032 0.0
H845 H 0.02201 0.24077 0.80284 0.0
H846 H 0.08112 0.28337 0.79972 0.0
H847 H 0.11552 0.29278 0.79306 0.0
H848 H 0.10696 0.2737 0.73191 0.0
H849 H 0.07258 0.26377 0.7388 0.0
C850 C 0.00667 0.28205 0.76183 0.0
C851 C 0.99543 0.27301 0.74613 0.0
C852 C 0.97879 0.27992 0.74184 0.0
C853 C 0.97328 0.29609 0.75307 0.0
C854 C 0.98537 0.3059 0.76788 0.0
C855 C 0.00192 0.29888 0.77226 0.0
C856 C 0.02047 0.27185 0.77001 0.0
C857 C 0.04013 0.27549 0.76512 0.0
C858 C 0.01394 0.25925 0.78371 0.0
C859 C 0.99331 0.25627 0.78962 0.0
C860 C 0.98001 0.24449 0.77722 0.0
C861 C 0.96043 0.24617 0.77909 0.0
C862 C 0.95384 0.25957 0.79352 0.0
C863 C 0.96706 0.27015 0.80696 0.0
C864 C 0.98665 0.26854 0.80499 0.0
C865 C 0.06058 0.24463 0.79711 0.0
C866 C 0.0613 0.24693 0.81747 0.0
C867 C 0.07537 0.23974 0.8266 0.0
C868 C 0.08899 0.23007 0.81555 0.0
C869 C 0.08774 0.22712 0.79517 0.0
C870 C 0.07362 0.23428 0.78605 0.0
C871 C 0.04694 0.25402 0.78748 0.0
C872 C 0.02715 0.2504 0.7923 0.0
C873 C 0.05352 0.26691 0.77392 0.0
C874 C 0.07435 0.27271 0.76977 0.0
C875 C 0.08669 0.28104 0.78491 0.0
C876 C 0.10632 0.28654 0.78106 0.0
C877 C 0.11396 0.28397 0.76195 0.0
C878 C 0.10155 0.27562 0.74681 0.0
C879 C 0.08189 0.27012 0.75068 0.0
H880 H 0.76239 0.05831 0.7829 0.0
H881 H 0.7458 0.08145 0.77034 0.0
H882 H 0.76071 0.05896 0.71162 0.0
H883 H 0.77737 0.03585 0.72433 0.0
H884 H 0.76574 0.00748 0.74738 0.0
H885 H 0.79793 0.05992 0.81116 0.0
H886 H 0.8039 0.09458 0.81881 0.0
H887 H 0.81798 0.09952 0.75821 0.0
H888 H 0.81182 0.06495 0.75069 0.0
H889 H 0.82183 0.97988 0.75812 0.0
H890 H 0.83536 0.95502 0.77129 0.0
H891 H 0.82065 0.97897 0.82952 0.0
H892 H 0.80679 0.00367 0.81623 0.0
H893 H 0.81912 0.03167 0.79299 0.0
H894 H 0.78688 0.97881 0.72938 0.0
H895 H 0.77856 0.94429 0.72186 0.0
H896 H 0.7636 0.94035 0.7825 0.0
H897 H 0.77221 0.97475 0.78989 0.0
C898 C 0.77134 0.04552 0.75456 0.0
C899 C 0.76211 0.05838 0.76732 0.0
C900 C 0.75269 0.07164 0.76012 0.0
C901 C 0.75208 0.07217 0.73998 0.0
C902 C 0.76081 0.05885 0.7272 0.0
C903 C 0.77033 0.04564 0.73443 0.0
C904 C 0.78261 0.03242 0.76229 0.0
C905 C 0.77757 0.01278 0.75712 0.0
C906 C 0.79786 0.03928 0.77527 0.0
C907 C 0.80422 0.05993 0.78034 0.0
C908 C 0.80266 0.0685 0.79962 0.0
C909 C 0.80606 0.08829 0.80395 0.0
C910 C 0.81115 0.09979 0.78906 0.0
C911 C 0.81368 0.09107 0.76993 0.0
C912 C 0.8103 0.07133 0.76563 0.0
C913 C 0.81301 0.99345 0.78617 0.0
C914 C 0.82161 0.97985 0.77373 0.0
C915 C 0.82929 0.96563 0.78126 0.0
C916 C 0.82884 0.96492 0.80141 0.0
C917 C 0.82124 0.9792 0.81393 0.0
C918 C 0.81336 0.99333 0.80636 0.0
C919 C 0.80226 0.00672 0.77803 0.0
C920 C 0.80737 0.02637 0.78316 0.0
C921 C 0.78704 0.99988 0.76502 0.0
C922 C 0.7803 0.97927 0.76019 0.0
C923 C 0.78161 0.97048 0.74098 0.0
C924 C 0.77686 0.95077 0.73672 0.0
C925 C 0.7706 0.93954 0.75162 0.0
C926 C 0.76877 0.94852 0.77076 0.0
C927 C 0.77353 0.96819 0.77499 0.0
H928 H 0.33957 0.76861 0.5034 0.0
H929 H 0.35113 0.78435 0.47503 0.0
H930 H 0.29562 0.80263 0.47207 0.0
H931 H 0.28411 0.78666 0.50035 0.0
H932 H 0.32625 0.7833 0.53897 0.0
H933 H 0.30087 0.73738 0.48525 0.0
H934 H 0.28277 0.72687 0.45549 0.0
H935 H 0.23111 0.74234 0.48571 0.0
H936 H 0.24925 0.75269 0.5154 0.0
H937 H 0.25394 0.74971 0.57019 0.0
H938 H 0.24042 0.73657 0.59939 0.0
H939 H 0.29526 0.7197 0.60916 0.0
H940 H 0.30868 0.73259 0.57952 0.0
H941 H 0.26816 0.734 0.53713 0.0
H942 H 0.29062 0.78051 0.58917 0.0
H943 H 0.30667 0.7954 0.619 0.0
H944 H 0.3615 0.78383 0.59315 0.0
H945 H 0.34527 0.76843 0.56338 0.0
C946 C 0.31093 0.77627 0.50385 0.0
C947 C 0.32992 0.77605 0.49665 0.0
C948 C 0.33652 0.78514 0.48049 0.0
C949 C 0.3243 0.79478 0.47127 0.0
C950 C 0.30532 0.79512 0.47864 0.0
C951 C 0.29872 0.78601 0.49482 0.0
C952 C 0.30401 0.76659 0.52102 0.0
C953 C 0.31379 0.77223 0.53851 0.0
C954 C 0.28735 0.75263 0.52053 0.0
C955 C 0.27644 0.74595 0.5025 0.0
C956 C 0.28567 0.73857 0.48542 0.0
C957 C 0.27531 0.73261 0.46842 0.0
C958 C 0.2555 0.73379 0.46823 0.0
C959 C 0.24628 0.741 0.48543 0.0
C960 C 0.25664 0.74697 0.5024 0.0
C961 C 0.28235 0.74225 0.57274 0.0
C962 C 0.26304 0.74308 0.57853 0.0
C963 C 0.25539 0.73572 0.59533 0.0
C964 C 0.26684 0.72727 0.60668 0.0
C965 C 0.28609 0.72608 0.60067 0.0
C966 C 0.29379 0.73354 0.58384 0.0
C967 C 0.29038 0.75072 0.55515 0.0
C968 C 0.28082 0.74485 0.53757 0.0
C969 C 0.30701 0.76474 0.55568 0.0
C970 C 0.31667 0.77302 0.57412 0.0
C971 C 0.30602 0.78073 0.59004 0.0
C972 C 0.31522 0.7893 0.60708 0.0
C973 C 0.33531 0.79068 0.60841 0.0
C974 C 0.34599 0.783 0.59248 0.0
C975 C 0.33674 0.77421 0.5755 0.0
H976 H 0.77592 0.73153 0.46775 0.0
H977 H 0.78569 0.727 0.43323 0.0
H978 H 0.80442 0.78748 0.43551 0.0
H979 H 0.79444 0.79185 0.46977 0.0
H980 H 0.79538 0.74897 0.50277 0.0
H981 H 0.74327 0.75692 0.46388 0.0
H982 H 0.73041 0.76969 0.43713 0.0
H983 H 0.74586 0.82661 0.46654 0.0
H984 H 0.75896 0.81377 0.49316 0.0
H985 H 0.77208 0.80822 0.55222 0.0
H986 H 0.76489 0.81589 0.58709 0.0
H987 H 0.73454 0.75899 0.58857 0.0
H988 H 0.74217 0.75124 0.55376 0.0
H989 H 0.74459 0.79013 0.51882 0.0
H990 H 0.80184 0.7835 0.55264 0.0
H991 H 0.8142 0.77332 0.58121 0.0
H992 H 0.7882 0.71552 0.56248 0.0
H993 H 0.77589 0.7259 0.53382 0.0
C994 C 0.78426 0.76203 0.4712 0.0
C995 C 0.7824 0.74373 0.46083 0.0
C996 C 0.78797 0.74119 0.44113 0.0
C997 C 0.79556 0.75692 0.43156 0.0
C998 C 0.7982 0.77512 0.44231 0.0
C999 C 0.79265 0.77763 0.46193 0.0
C1000 C 0.77618 0.7652 0.49126 0.0
C1001 C 0.78405 0.75767 0.50619 0.0
C1002 C 0.76156 0.77678 0.4958 0.0
C1003 C 0.7523 0.78441 0.48039 0.0
C1004 C 0.74392 0.77215 0.46455 0.0
C1005 C 0.73662 0.77946 0.44927 0.0
C1006 C 0.73727 0.79915 0.44969 0.0
C1007 C 0.74506 0.81136 0.46589 0.0
C1008 C 0.75252 0.80405 0.4811 0.0
C1009 C 0.75757 0.77922 0.55051 0.0
C1010 C 0.76366 0.79751 0.56002 0.0
C1011 C 0.75968 0.80181 0.57989 0.0
C1012 C 0.74922 0.78799 0.5904 0.0
C1013 C 0.74254 0.76988 0.5807 0.0
C1014 C 0.74685 0.76547 0.5609 0.0
C1015 C 0.7639 0.77405 0.53016 0.0
C1016 C 0.75571 0.7812 0.51525 0.0
C1017 C 0.77821 0.76221 0.52563 0.0
C1018 C 0.78784 0.75546 0.54127 0.0
C1019 C 0.79899 0.76861 0.55461 0.0
C1020 C 0.80593 0.76279 0.57096 0.0
C1021 C 0.80196 0.74366 0.57421 0.0
C1022 C 0.79157 0.73034 0.56032 0.0
C1023 C 0.78454 0.73622 0.54395 0.0
H1024 H 0.80327 0.30332 0.58074 0.0
H1025 H 0.81628 0.31695 0.6124 0.0
H1026 H 0.83609 0.26401 0.61823 0.0
H1027 H 0.82286 0.2504 0.58655 0.0
H1028 H 0.81989 0.2897 0.54748 0.0
H1029 H 0.77001 0.26591 0.5913 0.0
H1030 H 0.75577 0.25054 0.61893 0.0
H1031 H 0.77796 0.19912 0.59518 0.0
H1032 H 0.79163 0.21456 0.56716 0.0
H1033 H 0.7867 0.21886 0.50329 0.0
H1034 H 0.77096 0.20854 0.47207 0.0
H1035 H 0.74964 0.26227 0.47612 0.0
H1036 H 0.76567 0.27253 0.50699 0.0
H1037 H 0.77161 0.231 0.54041 0.0
H1038 H 0.8174 0.25593 0.4932 0.0
H1039 H 0.8274 0.27256 0.46509 0.0
H1040 H 0.81059 0.32397 0.49619 0.0
H1041 H 0.80072 0.30722 0.52438 0.0
C1042 C 0.81197 0.27582 0.58134 0.0
C1043 C 0.81052 0.29469 0.58879 0.0
C1044 C 0.81803 0.30248 0.60686 0.0
C1045 C 0.82725 0.29158 0.61784 0.0
C1046 C 0.82884 0.27271 0.61026 0.0
C1047 C 0.82132 0.26492 0.59216 0.0
C1048 C 0.8036 0.26759 0.5623 0.0
C1049 C 0.80925 0.27694 0.54597 0.0
C1050 C 0.78999 0.25074 0.56023 0.0
C1051 C 0.78198 0.24141 0.57727 0.0
C1052 C 0.77192 0.25137 0.59214 0.0
C1053 C 0.76389 0.24256 0.60801 0.0
C1054 C 0.7658 0.22358 0.60943 0.0
C1055 C 0.776 0.21366 0.5945 0.0
C1056 C 0.7839 0.22247 0.57851 0.0
C1057 C 0.77755 0.24654 0.50728 0.0
C1058 C 0.77856 0.22834 0.49743 0.0
C1059 C 0.76951 0.22246 0.47963 0.0
C1060 C 0.75919 0.23465 0.47149 0.0
C1061 C 0.75783 0.25268 0.48172 0.0
C1062 C 0.7669 0.25855 0.49942 0.0
C1063 C 0.78778 0.25323 0.52569 0.0
C1064 C 0.78249 0.24359 0.54187 0.0
C1065 C 0.80153 0.26997 0.52768 0.0
C1066 C 0.80816 0.28028 0.51083 0.0
C1067 C 0.81578 0.27076 0.49394 0.0
C1068 C 0.82142 0.28028 0.47784 0.0
C1069 C 0.81965 0.29957 0.47832 0.0
C1070 C 0.81229 0.30916 0.49539 0.0
C1071 C 0.80663 0.29961 0.5115 0.0
H1072 H 0.288 0.23618 0.46566 0.0
H1073 H 0.30094 0.23433 0.43212 0.0
H1074 H 0.31283 0.29565 0.43769 0.0
H1075 H 0.29965 0.29734 0.47097 0.0
H1076 H 0.30287 0.2546 0.50296 0.0
H1077 H 0.25297 0.25791 0.45818 0.0
H1078 H 0.23999 0.27082 0.43155 0.0
H1079 H 0.24616 0.32622 0.46563 0.0
H1080 H 0.25926 0.31329 0.49211 0.0
H1081 H 0.25749 0.30682 0.5457 0.0
H1082 H 0.24359 0.31377 0.57827 0.0
H1083 H 0.23782 0.25443 0.58579 0.0
H1084 H 0.25137 0.2474 0.55282 0.0
H1085 H 0.24455 0.28623 0.51395 0.0
H1086 H 0.29319 0.28432 0.55901 0.0
H1087 H 0.30438 0.27267 0.58695 0.0
H1088 H 0.30548 0.2177 0.55293 0.0
H1089 H 0.29199 0.22898 0.52578 0.0
C1090 C 0.29269 0.26689 0.47067 0.0
C1091 C 0.2937 0.24918 0.4597 0.0
C1092 C 0.30108 0.24816 0.44056 0.0
C1093 C 0.30765 0.26485 0.43214 0.0
C1094 C 0.30748 0.28253 0.44357 0.0
C1095 C 0.3001 0.28353 0.46264 0.0
C1096 C 0.28245 0.26815 0.48985 0.0
C1097 C 0.28996 0.26124 0.5054 0.0
C1098 C 0.26584 0.27716 0.49298 0.0
C1099 C 0.25724 0.28468 0.47706 0.0
C1100 C 0.25162 0.27286 0.45986 0.0
C1101 C 0.24424 0.28025 0.44465 0.0
C1102 C 0.2421 0.29954 0.44649 0.0
C1103 C 0.24745 0.31126 0.46386 0.0
C1104 C 0.25494 0.30389 0.479 0.0
C1105 C 0.25565 0.27661 0.54685 0.0
C1106 C 0.25298 0.29523 0.55421 0.0
C1107 C 0.24503 0.29919 0.57283 0.0
C1108 C 0.23966 0.28464 0.58455 0.0
C1109 C 0.24201 0.26593 0.5771 0.0
C1110 C 0.24974 0.26191 0.55831 0.0
C1111 C 0.26505 0.27294 0.52737 0.0
C1112 C 0.25736 0.27939 0.51164 0.0
C1113 C 0.28167 0.26379 0.52426 0.0
C1114 C 0.29101 0.25736 0.54047 0.0
C1115 C 0.29552 0.26965 0.55767 0.0
C1116 C 0.30234 0.26299 0.57362 0.0
C1117 C 0.30573 0.24405 0.57251 0.0
C1118 C 0.30248 0.23216 0.55473 0.0
C1119 C 0.29503 0.23869 0.53899 0.0
H1120 H 0.75826 0.55646 0.82753 0.0
H1121 H 0.74054 0.58316 0.83666 0.0
H1122 H 0.73176 0.58597 0.77602 0.0
H1123 H 0.74906 0.55887 0.76692 0.0
H1124 H 0.74932 0.52188 0.80913 0.0
H1125 H 0.79309 0.57826 0.79594 0.0
H1126 H 0.80361 0.60695 0.78055 0.0
H1127 H 0.79885 0.57338 0.72396 0.0
H1128 H 0.78751 0.54494 0.73943 0.0
H1129 H 0.79775 0.49418 0.74567 0.0
H1130 H 0.81704 0.46881 0.73642 0.0
H1131 H 0.82594 0.46588 0.79704 0.0
H1132 H 0.80666 0.49153 0.80628 0.0
H1133 H 0.80602 0.52839 0.76378 0.0
H1134 H 0.76587 0.47165 0.77605 0.0
H1135 H 0.7543 0.44261 0.78989 0.0
H1136 H 0.74823 0.47544 0.84631 0.0
H1137 H 0.7622 0.50411 0.83276 0.0
C1138 C 0.75527 0.55582 0.79653 0.0
C1139 C 0.75231 0.56264 0.81619 0.0
C1140 C 0.74218 0.57789 0.8214 0.0
C1141 C 0.73488 0.58669 0.80704 0.0
C1142 C 0.73745 0.57959 0.78737 0.0
C1143 C 0.74736 0.56415 0.78217 0.0
C1144 C 0.76699 0.54028 0.79118 0.0
C1145 C 0.76193 0.52335 0.79947 0.0
C1146 C 0.783 0.542 0.778 0.0
C1147 C 0.78937 0.55949 0.76882 0.0
C1148 C 0.79408 0.57715 0.78021 0.0
C1149 C 0.80024 0.5935 0.77139 0.0
C1150 C 0.80206 0.59247 0.751 0.0
C1151 C 0.79731 0.57474 0.73966 0.0
C1152 C 0.79104 0.55843 0.74849 0.0
C1153 C 0.80064 0.4947 0.77667 0.0
C1154 C 0.80399 0.48822 0.75699 0.0
C1155 C 0.81507 0.47374 0.75172 0.0
C1156 C 0.82307 0.46539 0.766 0.0
C1157 C 0.81982 0.47194 0.78572 0.0
C1158 C 0.80882 0.48658 0.79101 0.0
C1159 C 0.78857 0.50996 0.78195 0.0
C1160 C 0.79352 0.52685 0.77359 0.0
C1161 C 0.77236 0.50806 0.79495 0.0
C1162 C 0.76535 0.49015 0.80338 0.0
C1163 C 0.76269 0.47256 0.79154 0.0
C1164 C 0.75559 0.45589 0.79947 0.0
C1165 C 0.75008 0.45645 0.81931 0.0
C1166 C 0.75264 0.47416 0.83109 0.0
C1167 C 0.76038 0.49074 0.82327 0.0
H1168 H 0.3208 0.56287 0.7573 0.0
H1169 H 0.32688 0.59698 0.76811 0.0
H1170 H 0.30341 0.58701 0.82519 0.0
H1171 H 0.29761 0.5528 0.81429 0.0
H1172 H 0.31884 0.52428 0.79681 0.0
H1173 H 0.28746 0.53838 0.72493 0.0
H1174 H 0.27352 0.56386 0.71316 0.0
H1175 H 0.25398 0.5818 0.77169 0.0
H1176 H 0.26757 0.55617 0.78328 0.0
H1177 H 0.25322 0.47874 0.75782 0.0
H1178 H 0.24261 0.44554 0.74522 0.0
H1179 H 0.30203 0.43722 0.73438 0.0
H1180 H 0.31259 0.47058 0.74687 0.0
H1181 H 0.27249 0.50816 0.74303 0.0
H1182 H 0.28085 0.47304 0.79463 0.0
H1183 H 0.29171 0.44685 0.80801 0.0
H1184 H 0.35096 0.47018 0.79586 0.0
H1185 H 0.33995 0.49638 0.78242 0.0
C1186 C 0.30858 0.55537 0.78495 0.0
C1187 C 0.31732 0.56802 0.77225 0.0
C1188 C 0.32063 0.58751 0.7784 0.0
C1189 C 0.31531 0.59472 0.79741 0.0
C1190 C 0.30773 0.5819 0.81049 0.0
C1191 C 0.30443 0.56235 0.8043 0.0
C1192 C 0.30171 0.53531 0.77732 0.0
C1193 C 0.30879 0.52071 0.785 0.0
C1194 C 0.28809 0.53071 0.76236 0.0
C1195 C 0.27883 0.54554 0.75502 0.0
C1196 C 0.28002 0.54771 0.73518 0.0
C1197 C 0.27207 0.56227 0.72848 0.0
C1198 C 0.26282 0.57495 0.74154 0.0
C1199 C 0.26132 0.57249 0.76134 0.0
C1200 C 0.26908 0.55783 0.76797 0.0
C1201 C 0.2837 0.47711 0.75345 0.0
C1202 C 0.26397 0.46984 0.7525 0.0
C1203 C 0.25792 0.45087 0.74527 0.0
C1204 C 0.2715 0.43876 0.73882 0.0
C1205 C 0.29126 0.44615 0.73945 0.0
C1206 C 0.29729 0.46519 0.74657 0.0
C1207 C 0.28997 0.49703 0.76213 0.0
C1208 C 0.28268 0.51166 0.75471 0.0
C1209 C 0.30283 0.50157 0.7778 0.0
C1210 C 0.30958 0.48652 0.78727 0.0
C1211 C 0.29618 0.47251 0.79483 0.0
C1212 C 0.30241 0.45751 0.80241 0.0
C1213 C 0.32219 0.45632 0.80281 0.0
C1214 C 0.33563 0.47074 0.79586 0.0
C1215 C 0.32937 0.48572 0.78817 0.0
H1216 H 0.26004 0.54281 0.23927 0.0
H1217 H 0.26905 0.56832 0.21894 0.0
H1218 H 0.29709 0.604 0.26781 0.0
H1219 H 0.28799 0.57852 0.28798 0.0
H1220 H 0.28607 0.52575 0.25702 0.0
H1221 H 0.22949 0.55759 0.27904 0.0
H1222 H 0.21755 0.58779 0.28968 0.0
H1223 H 0.25732 0.59936 0.33688 0.0
H1224 H 0.2689 0.56897 0.32645 0.0
H1225 H 0.26687 0.5087 0.3368 0.0
H1226 H 0.25789 0.48033 0.35339 0.0
H1227 H 0.2376 0.44817 0.29922 0.0
H1228 H 0.24622 0.47641 0.2829 0.0
H1229 H 0.24674 0.52902 0.31843 0.0
H1230 H 0.29841 0.49374 0.30055 0.0
H1231 H 0.31481 0.4667 0.28818 0.0
H1232 H 0.28891 0.46366 0.23238 0.0
H1233 H 0.27256 0.49059 0.2448 0.0
C1234 C 0.27322 0.55884 0.26516 0.0
C1235 C 0.26793 0.55624 0.24563 0.0
C1236 C 0.27312 0.57079 0.23403 0.0
C1237 C 0.28378 0.58818 0.24176 0.0
C1238 C 0.28858 0.59091 0.2615 0.0
C1239 C 0.28341 0.57635 0.27306 0.0
C1240 C 0.26929 0.54279 0.27683 0.0
C1241 C 0.27723 0.5263 0.27029 0.0
C1242 C 0.25853 0.54392 0.29457 0.0
C1243 C 0.25004 0.56113 0.302 0.0
C1244 C 0.23538 0.56652 0.29186 0.0
C1245 C 0.22859 0.5837 0.29793 0.0
C1246 C 0.23662 0.59585 0.31401 0.0
C1247 C 0.25101 0.59024 0.32437 0.0
C1248 C 0.25753 0.57289 0.31852 0.0
C1249 C 0.25752 0.4946 0.30854 0.0
C1250 C 0.26045 0.49552 0.32855 0.0
C1251 C 0.25536 0.47934 0.33798 0.0
C1252 C 0.24733 0.46199 0.32752 0.0
C1253 C 0.24421 0.46121 0.30757 0.0
C1254 C 0.2491 0.47736 0.29822 0.0
C1255 C 0.26304 0.51156 0.29827 0.0
C1256 C 0.25554 0.52833 0.30514 0.0
C1257 C 0.27449 0.51076 0.28089 0.0
C1258 C 0.28417 0.49413 0.27363 0.0
C1259 C 0.29614 0.48713 0.28571 0.0
C1260 C 0.3055 0.47169 0.27863 0.0
C1261 C 0.30323 0.46312 0.25928 0.0
C1262 C 0.29121 0.47016 0.24726 0.0
C1263 C 0.28181 0.48551 0.25435 0.0
H1264 H 0.73778 0.54321 0.27859 0.0
H1265 H 0.72427 0.56727 0.26409 0.0
H1266 H 0.75484 0.55277 0.21003 0.0
H1267 H 0.76873 0.52896 0.22474 0.0
H1268 H 0.75708 0.49783 0.2398 0.0
H1269 H 0.76475 0.54379 0.31647 0.0
H1270 H 0.76941 0.57779 0.32883 0.0
H1271 H 0.79662 0.59048 0.27396 0.0
H1272 H 0.79209 0.55668 0.26181 0.0
H1273 H 0.81579 0.50009 0.2984 0.0
H1274 H 0.82944 0.47749 0.31468 0.0
H1275 H 0.77821 0.43621 0.30224 0.0
H1276 H 0.76388 0.45965 0.28811 0.0
H1277 H 0.78855 0.51879 0.30328 0.0
H1278 H 0.80527 0.47463 0.25149 0.0
H1279 H 0.80798 0.44234 0.23681 0.0
H1280 H 0.74585 0.42945 0.23389 0.0
H1281 H 0.74324 0.46184 0.2491 0.0
C1282 C 0.75453 0.53444 0.25287 0.0
C1283 C 0.74162 0.54521 0.26362 0.0
C1284 C 0.73393 0.55898 0.25534 0.0
C1285 C 0.73866 0.56203 0.23599 0.0
C1286 C 0.75089 0.55068 0.22495 0.0
C1287 C 0.7588 0.53704 0.23333 0.0
C1288 C 0.76427 0.52125 0.26239 0.0
C1289 C 0.76388 0.5024 0.2537 0.0
C1290 C 0.77406 0.52736 0.28006 0.0
C1291 C 0.77777 0.54774 0.28812 0.0
C1292 C 0.77185 0.55392 0.3072 0.0
C1293 C 0.77452 0.57331 0.31423 0.0
C1294 C 0.78314 0.58679 0.30226 0.0
C1295 C 0.78956 0.58047 0.28338 0.0
C1296 C 0.78702 0.56115 0.27644 0.0
C1297 C 0.7889 0.48155 0.29164 0.0
C1298 C 0.80734 0.48629 0.29952 0.0
C1299 C 0.8153 0.47313 0.30856 0.0
C1300 C 0.80517 0.45472 0.30962 0.0
C1301 C 0.78651 0.4502 0.30203 0.0
C1302 C 0.77836 0.46356 0.29354 0.0
C1303 C 0.78084 0.49516 0.28102 0.0
C1304 C 0.78162 0.51414 0.28946 0.0
C1305 C 0.7726 0.48949 0.26248 0.0
C1306 C 0.77405 0.47054 0.25157 0.0
C1307 C 0.79224 0.46489 0.24755 0.0
C1308 C 0.79376 0.44645 0.23904 0.0
C1309 C 0.77712 0.43329 0.23424 0.0
C1310 C 0.75891 0.4392 0.23764 0.0
C1311 C 0.7574 0.45772 0.24614 0.0
H1312 H 0.55478 0.26299 0.7221 0.0
H1313 H 0.58448 0.25031 0.71169 0.0
H1314 H 0.5897 0.23574 0.76945 0.0
H1315 H 0.55961 0.24786 0.77957 0.0
H1316 H 0.52078 0.24763 0.73461 0.0
H1317 H 0.57029 0.29601 0.76021 0.0
H1318 H 0.59782 0.31336 0.77846 0.0
H1319 H 0.56869 0.29938 0.83214 0.0
H1320 H 0.54159 0.28126 0.81368 0.0
H1321 H 0.48445 0.27542 0.80536 0.0
H1322 H 0.45515 0.28768 0.81792 0.0
H1323 H 0.44988 0.30931 0.76356 0.0
H1324 H 0.47955 0.29716 0.7511 0.0
H1325 H 0.51838 0.29508 0.7932 0.0
H1326 H 0.4683 0.24683 0.76631 0.0
H1327 H 0.43904 0.23538 0.74792 0.0
H1328 H 0.46895 0.25222 0.69571 0.0
H1329 H 0.49818 0.26418 0.71432 0.0
C1330 C 0.55505 0.25659 0.75167 0.0
C1331 C 0.56224 0.25694 0.73248 0.0
C1332 C 0.57932 0.24984 0.72661 0.0
C1333 C 0.58956 0.24214 0.73978 0.0
C1334 C 0.58212 0.24145 0.7589 0.0
C1335 C 0.56502 0.24856 0.76476 0.0
C1336 C 0.53716 0.26462 0.75797 0.0
C1337 C 0.52034 0.25818 0.74729 0.0
C1338 C 0.53645 0.27821 0.77466 0.0
C1339 C 0.55392 0.2872 0.78555 0.0
C1340 C 0.57003 0.29627 0.77586 0.0
C1341 C 0.58565 0.30641 0.78635 0.0
C1342 C 0.58538 0.30792 0.80679 0.0
C1343 C 0.56946 0.29837 0.81642 0.0
C1344 C 0.55389 0.28812 0.8059 0.0
C1345 C 0.4841 0.28526 0.77727 0.0
C1346 C 0.477 0.2828 0.79614 0.0
C1347 C 0.46017 0.28969 0.80323 0.0
C1348 C 0.45013 0.29933 0.79166 0.0
C1349 C 0.45735 0.30198 0.77281 0.0
C1350 C 0.4742 0.29496 0.76565 0.0
C1351 C 0.50208 0.27788 0.77008 0.0
C1352 C 0.51888 0.28447 0.78056 0.0
C1353 C 0.50279 0.26459 0.75316 0.0
C1354 C 0.48533 0.25673 0.74178 0.0
C1355 C 0.46853 0.24829 0.75096 0.0
C1356 C 0.45183 0.24173 0.74045 0.0
C1357 C 0.4517 0.24313 0.72045 0.0
C1358 C 0.46869 0.25098 0.71111 0.0
C1359 C 0.48536 0.25778 0.72171 0.0
H1360 H 0.54652 0.71891 0.78779 0.0
H1361 H 0.56835 0.70476 0.806 0.0
H1362 H 0.59836 0.76081 0.82575 0.0
H1363 H 0.57607 0.77483 0.80818 0.0
H1364 H 0.52134 0.74333 0.80128 0.0
H1365 H 0.57846 0.74527 0.75825 0.0
H1366 H 0.6128 0.75387 0.75001 0.0
H1367 H 0.60788 0.81317 0.76607 0.0
H1368 H 0.57376 0.80454 0.7743 0.0
H1369 H 0.51772 0.81238 0.77361 0.0
H1370 H 0.49152 0.82787 0.764 0.0
H1371 H 0.4642 0.77403 0.73501 0.0
H1372 H 0.49052 0.75875 0.74441 0.0
H1373 H 0.54427 0.78795 0.75329 0.0
H1374 H 0.49621 0.78693 0.80713 0.0
H1375 H 0.46165 0.78717 0.81282 0.0
H1376 H 0.44986 0.73282 0.77701 0.0
H1377 H 0.4846 0.73247 0.77202 0.0
C1378 C 0.55979 0.7479 0.79645 0.0
C1379 C 0.5578 0.72812 0.79608 0.0
C1380 C 0.57039 0.72005 0.80636 0.0
C1381 C 0.58513 0.73165 0.81731 0.0
C1382 C 0.58705 0.75147 0.81764 0.0
C1383 C 0.57444 0.75951 0.80742 0.0
C1384 C 0.54624 0.75647 0.78581 0.0
C1385 C 0.52641 0.75271 0.79048 0.0
C1386 C 0.5528 0.76934 0.77223 0.0
C1387 C 0.57355 0.77426 0.76696 0.0
C1388 C 0.58483 0.76011 0.76008 0.0
C1389 C 0.60443 0.76503 0.75539 0.0
C1390 C 0.61301 0.7842 0.7573 0.0
C1391 C 0.60163 0.7983 0.76412 0.0
C1392 C 0.58213 0.79338 0.76887 0.0
C1393 C 0.50593 0.78442 0.75984 0.0
C1394 C 0.50633 0.80405 0.76476 0.0
C1395 C 0.49133 0.81285 0.75933 0.0
C1396 C 0.4757 0.80209 0.749 0.0
C1397 C 0.47589 0.7826 0.74326 0.0
C1398 C 0.49095 0.77389 0.74852 0.0
C1399 C 0.5197 0.77452 0.76859 0.0
C1400 C 0.53938 0.77815 0.76374 0.0
C1401 C 0.51321 0.76188 0.78228 0.0
C1402 C 0.49285 0.75967 0.78922 0.0
C1403 C 0.48615 0.7748 0.80106 0.0
C1404 C 0.46639 0.77504 0.80402 0.0
C1405 C 0.45296 0.76019 0.79505 0.0
C1406 C 0.45979 0.74443 0.78423 0.0
C1407 C 0.47962 0.74415 0.7814 0.0
H1408 H 0.55946 0.76463 0.21698 0.0
H1409 H 0.58864 0.75096 0.20668 0.0
H1410 H 0.59302 0.73628 0.26453 0.0
H1411 H 0.56346 0.74946 0.27457 0.0
H1412 H 0.52513 0.74918 0.22973 0.0
H1413 H 0.57534 0.79735 0.25496 0.0
H1414 H 0.60334 0.81343 0.27326 0.0
H1415 H 0.57333 0.80055 0.32688 0.0
H1416 H 0.54577 0.7836 0.30837 0.0
H1417 H 0.48943 0.77753 0.30051 0.0
H1418 H 0.46019 0.78979 0.31337 0.0
H1419 H 0.4537 0.81032 0.25868 0.0
H1420 H 0.4832 0.79805 0.24586 0.0
H1421 H 0.52295 0.79737 0.28772 0.0
H1422 H 0.47453 0.74679 0.26291 0.0
H1423 H 0.44602 0.73076 0.24535 0.0
H1424 H 0.47211 0.7486 0.19184 0.0
H1425 H 0.50049 0.76513 0.20968 0.0
C1426 C 0.55938 0.75828 0.2466 0.0
C1427 C 0.56666 0.7584 0.22742 0.0
C1428 C 0.58343 0.75071 0.2216 0.0
C1429 C 0.59324 0.74264 0.23483 0.0
C1430 C 0.58575 0.74227 0.25396 0.0
C1431 C 0.56897 0.74998 0.25977 0.0
C1432 C 0.54163 0.7666 0.25273 0.0
C1433 C 0.52476 0.75997 0.24222 0.0
C1434 C 0.541 0.78036 0.26929 0.0
C1435 C 0.55849 0.78912 0.28026 0.0
C1436 C 0.57495 0.79761 0.27062 0.0
C1437 C 0.59087 0.80703 0.28114 0.0
C1438 C 0.59055 0.80842 0.30158 0.0
C1439 C 0.57418 0.79958 0.31116 0.0
C1440 C 0.55832 0.79003 0.30061 0.0
C1441 C 0.48843 0.78681 0.27223 0.0
C1442 C 0.48169 0.78462 0.29127 0.0
C1443 C 0.46492 0.79152 0.29854 0.0
C1444 C 0.45461 0.80092 0.28698 0.0
C1445 C 0.4614 0.80319 0.26791 0.0
C1446 C 0.47815 0.7961 0.26056 0.0
C1447 C 0.50651 0.77972 0.26493 0.0
C1448 C 0.52343 0.78666 0.27518 0.0
C1449 C 0.50718 0.76623 0.24821 0.0
C1450 C 0.48955 0.75731 0.23763 0.0
C1451 C 0.47399 0.74753 0.24747 0.0
C1452 C 0.45779 0.73821 0.23737 0.0
C1453 C 0.45688 0.73834 0.21719 0.0
C1454 C 0.47234 0.7484 0.2074 0.0
C1455 C 0.48859 0.75773 0.21754 0.0
H1456 H 0.56808 0.25095 0.28974 0.0
H1457 H 0.59392 0.23974 0.30538 0.0
H1458 H 0.61888 0.29791 0.32389 0.0
H1459 H 0.59272 0.30897 0.30875 0.0
H1460 H 0.5406 0.27268 0.30564 0.0
H1461 H 0.59369 0.27834 0.25775 0.0
H1462 H 0.62709 0.28926 0.24798 0.0
H1463 H 0.61822 0.34746 0.26479 0.0
H1464 H 0.58497 0.3364 0.27498 0.0
H1465 H 0.52172 0.33554 0.27578 0.0
H1466 H 0.49131 0.34363 0.2656 0.0
H1467 H 0.47646 0.28638 0.23683 0.0
H1468 H 0.50684 0.27849 0.24689 0.0
H1469 H 0.55453 0.31559 0.25448 0.0
H1470 H 0.50919 0.31153 0.31087 0.0
H1471 H 0.47439 0.30779 0.3174 0.0
H1472 H 0.46808 0.25219 0.28362 0.0
H1473 H 0.5031 0.2559 0.27768 0.0
C1474 C 0.57857 0.28078 0.29794 0.0
C1475 C 0.5791 0.26126 0.29724 0.0
C1476 C 0.59396 0.25488 0.30603 0.0
C1477 C 0.6085 0.26793 0.31582 0.0
C1478 C 0.60782 0.28748 0.31662 0.0
C1479 C 0.59297 0.29384 0.30783 0.0
C1480 C 0.56295 0.28748 0.28834 0.0
C1481 C 0.54373 0.28179 0.29426 0.0
C1482 C 0.56694 0.29999 0.27398 0.0
C1483 C 0.58692 0.30655 0.26725 0.0
C1484 C 0.59897 0.29344 0.25936 0.0
C1485 C 0.618 0.29971 0.25365 0.0
C1486 C 0.62531 0.31923 0.25565 0.0
C1487 C 0.61309 0.33233 0.26329 0.0
C1488 C 0.59405 0.32605 0.26896 0.0
C1489 C 0.51645 0.30644 0.26207 0.0
C1490 C 0.51214 0.32495 0.26679 0.0
C1491 C 0.49475 0.32949 0.26107 0.0
C1492 C 0.48143 0.31554 0.25065 0.0
C1493 C 0.48632 0.29732 0.24511 0.0
C1494 C 0.50372 0.29285 0.25067 0.0
C1495 C 0.5325 0.30037 0.27149 0.0
C1496 C 0.55161 0.30629 0.2657 0.0
C1497 C 0.52857 0.28838 0.28619 0.0
C1498 C 0.50863 0.28394 0.29391 0.0
C1499 C 0.50035 0.29828 0.30545 0.0
C1500 C 0.48044 0.29624 0.30889 0.0
C1501 C 0.46841 0.27984 0.30072 0.0
C1502 C 0.47693 0.26495 0.29021 0.0
C1503 C 0.49693 0.26698 0.28688 0.0
C1504 C 0.24195 0.18703 0.14655 0.0
C1505 C 0.22764 0.19667 0.15637 0.0
H1506 H 0.26196 0.18531 0.12224 0.0
C1507 C 0.22315 0.21283 0.14922 0.0
H1508 H 0.24575 0.17453 0.15167 0.0
C1509 C 0.23247 0.21903 0.13252 0.0
C1510 C 0.24648 0.20921 0.12244 0.0
H1511 H 0.21235 0.22074 0.15649 0.0
H1512 H 0.22871 0.23161 0.12754 0.0
C1513 C 0.25129 0.19325 0.12974 0.0
C1514 C 0.81978 0.2154 0.09524 0.0
C1515 C 0.83918 0.21293 0.09601 0.0
H1516 H 0.79815 0.22386 0.07891 0.0
C1517 C 0.85195 0.21761 0.08054 0.0
H1518 H 0.80959 0.21189 0.10691 0.0
C1519 C 0.84542 0.22466 0.06464 0.0
C1520 C 0.82595 0.2268 0.06376 0.0
H1521 H 0.867 0.21591 0.08077 0.0
H1522 H 0.8555 0.22819 0.05289 0.0
C1523 C 0.81319 0.22212 0.07918 0.0
C1524 C 0.83901 0.79404 0.1554 0.0
C1525 C 0.84928 0.81257 0.15626 0.0
H1526 H 0.82333 0.7704 0.1377 0.0
C1527 C 0.85259 0.82101 0.13902 0.0
H1528 H 0.83622 0.78711 0.1684 0.0
C1529 C 0.84522 0.81144 0.12147 0.0
C1530 C 0.83443 0.79317 0.12072 0.0
H1531 H 0.86053 0.83522 0.13912 0.0
H1532 H 0.84784 0.81842 0.10849 0.0
C1533 C 0.83169 0.78443 0.1378 0.0
C1534 C 0.23263 0.80821 0.13184 0.0
C1535 C 0.24493 0.80451 0.14581 0.0
H1536 H 0.22706 0.80694 0.1016 0.0
C1537 C 0.26116 0.79588 0.13952 0.0
H1538 H 0.22002 0.81489 0.13621 0.0
C1539 C 0.26511 0.7912 0.11969 0.0
C1540 C 0.25295 0.7951 0.10569 0.0
H1541 H 0.27087 0.79274 0.1499 0.0
H1542 H 0.27765 0.78441 0.11533 0.0
C1543 C 0.2366 0.80357 0.112 0.0
C1544 C 0.22213 0.8383 0.9172 0.0
C1545 C 0.22724 0.83163 0.89796 0.0
H1546 H 0.22348 0.8354 0.94743 0.0
C1547 C 0.23807 0.81658 0.89462 0.0
H1548 H 0.21378 0.84988 0.92025 0.0
C1549 C 0.24356 0.80829 0.91016 0.0
C1550 C 0.23842 0.81492 0.92939 0.0
H1551 H 0.24228 0.81113 0.87999 0.0
H1552 H 0.25205 0.79681 0.90714 0.0
C1553 C 0.22773 0.83007 0.93276 0.0
C1554 C 0.21697 0.19737 0.92663 0.0
C1555 C 0.22532 0.20385 0.90946 0.0
H1556 H 0.21962 0.1973 0.95721 0.0
C1557 C 0.2435 0.21533 0.91025 0.0
H1558 H 0.20302 0.18844 0.92654 0.0
C1559 C 0.25298 0.22046 0.92787 0.0
C1560 C 0.24447 0.21426 0.94509 0.0
H1561 H 0.25035 0.22058 0.8973 0.0
H1562 H 0.26677 0.22968 0.92807 0.0
C1563 C 0.22643 0.20253 0.94424 0.0
C1564 C 0.82327 0.24937 0.85984 0.0
C1565 C 0.81649 0.26247 0.84954 0.0
H1566 H 0.82382 0.23866 0.88718 0.0
C1567 C 0.80401 0.27443 0.85911 0.0
H1568 H 0.83349 0.2405 0.85316 0.0
C1569 C 0.79873 0.27358 0.87865 0.0
C1570 C 0.80587 0.2608 0.88908 0.0
H1571 H 0.79855 0.28467 0.85156 0.0
H1572 H 0.78926 0.28313 0.88571 0.0
C1573 C 0.81789 0.24844 0.8794 0.0
C1574 C 0.83112 0.81817 0.92819 0.0
C1575 C 0.82659 0.80768 0.90997 0.0
H1576 H 0.82972 0.81853 0.95912 0.0
C1577 C 0.81566 0.78948 0.90931 0.0
H1578 H 0.83957 0.83222 0.92921 0.0
C1579 C 0.80991 0.78169 0.92644 0.0
C1580 C 0.81501 0.79188 0.94466 0.0
H1581 H 0.8118 0.78107 0.89553 0.0
H1582 H 0.80155 0.7676 0.9254 0.0
C1583 C 0.82543 0.81034 0.94535 0.0
C1584 C 0.12117 0.21376 0.23364 0.0
C1585 C 0.13452 0.22341 0.22125 0.0
H1586 H 0.09405 0.21303 0.24933 0.0
C1587 C 0.13054 0.2404 0.21548 0.0
H1588 H 0.12378 0.20061 0.23831 0.0
C1589 C 0.11362 0.24754 0.22184 0.0
C1590 C 0.10017 0.23787 0.23411 0.0
H1591 H 0.14053 0.24827 0.20603 0.0
H1592 H 0.1112 0.26081 0.21731 0.0
C1593 C 0.10418 0.22092 0.24001 0.0
C1594 C 0.81353 0.11956 0.20697 0.0
C1595 C 0.83208 0.12937 0.2113 0.0
H1596 H 0.79082 0.09765 0.21397 0.0
C1597 C 0.84221 0.12401 0.22612 0.0
H1598 H 0.80533 0.12339 0.19566 0.0
C1599 C 0.83397 0.10931 0.2365 0.0
C1600 C 0.81535 0.09961 0.23238 0.0
H1601 H 0.85658 0.13118 0.22977 0.0
H1602 H 0.84232 0.10541 0.24766 0.0
C1603 C 0.80524 0.1048 0.21741 0.0
C1604 C 0.93255 0.82349 0.2304 0.0
C1605 C 0.9145 0.81337 0.23512 0.0
H1606 H 0.96329 0.8247 0.22966 0.0
C1607 C 0.91386 0.79635 0.24319 0.0
H1608 H 0.93353 0.83665 0.22415 0.0
C1609 C 0.93088 0.78949 0.24625 0.0
C1610 C 0.94893 0.79955 0.24143 0.0
H1611 H 0.90021 0.78822 0.24706 0.0
H1612 H 0.92991 0.77637 0.25258 0.0
C1613 C 0.9496 0.81669 0.2336 0.0
C1614 C 0.2551 0.89091 0.25727 0.0
C1615 C 0.25775 0.88151 0.23845 0.0
H1616 H 0.25829 0.91741 0.27592 0.0
C1617 C 0.26677 0.89206 0.22396 0.0
H1618 H 0.24819 0.88323 0.26877 0.0
C1619 C 0.27268 0.91165 0.22814 0.0
C1620 C 0.26938 0.92106 0.24678 0.0
H1621 H 0.26905 0.88523 0.20932 0.0
H1622 H 0.27933 0.91952 0.21667 0.0
C1623 C 0.26074 0.91049 0.26135 0.0
C1624 C 0.14731 0.82699 0.81115 0.0
C1625 C 0.14612 0.83824 0.82922 0.0
H1626 H 0.13212 0.80826 0.78847 0.0
C1627 C 0.12802 0.83845 0.83876 0.0
H1628 H 0.16108 0.82636 0.80352 0.0
C1629 C 0.11136 0.82828 0.82999 0.0
C1630 C 0.11246 0.81756 0.81157 0.0
H1631 H 0.12662 0.84701 0.85269 0.0
H1632 H 0.09755 0.82943 0.83734 0.0
C1633 C 0.13069 0.8167 0.80247 0.0
C1634 C 0.21946 0.12882 0.81551 0.0
C1635 C 0.23133 0.14655 0.81874 0.0
H1636 H 0.2181 0.09882 0.8069 0.0
C1637 C 0.25134 0.14751 0.81534 0.0
H1638 H 0.20399 0.12766 0.81798 0.0
C1639 C 0.25939 0.13102 0.80935 0.0
C1640 C 0.24755 0.1133 0.80629 0.0
H1641 H 0.26087 0.16095 0.81777 0.0
H1642 H 0.27489 0.13209 0.8071 0.0
C1643 C 0.2275 0.11236 0.80913 0.0
C1644 C 0.89953 0.25305 0.788 0.0
C1645 C 0.89587 0.27191 0.79132 0.0
H1646 H 0.92058 0.23428 0.78655 0.0
C1647 C 0.91132 0.2866 0.79579 0.0
H1648 H 0.88791 0.24139 0.78464 0.0
C1649 C 0.93003 0.28253 0.79682 0.0
C1650 C 0.93373 0.26366 0.79347 0.0
H1651 H 0.90902 0.3013 0.79831 0.0
H1652 H 0.94168 0.29425 0.79971 0.0
C1653 C 0.91825 0.24897 0.78908 0.0
C1654 C 0.85294 0.93673 0.83314 0.0
C1655 C 0.84698 0.91796 0.82462 0.0
H1656 H 0.85189 0.96632 0.83248 0.0
C1657 C 0.8353 0.91482 0.80825 0.0
H1658 H 0.86192 0.93963 0.84577 0.0
C1659 C 0.82966 0.93009 0.80061 0.0
C1660 C 0.83544 0.94884 0.80925 0.0
H1661 H 0.83044 0.90054 0.80135 0.0
H1662 H 0.82043 0.92719 0.78815 0.0
C1663 C 0.84714 0.95201 0.8256 0.0
C1664 C 0.2267 0.10137 0.22321 0.0
C1665 C 0.23389 0.12069 0.22838 0.0
H1666 H 0.22984 0.07251 0.2252 0.0
C1667 C 0.25037 0.1256 0.23982 0.0
H1668 H 0.21406 0.0971 0.2144 0.0
C1669 C 0.25942 0.1115 0.24598 0.0
C1670 C 0.25214 0.09218 0.24095 0.0
H1671 H 0.25628 0.14035 0.24406 0.0
H1672 H 0.27195 0.11573 0.25497 0.0
C1673 C 0.23568 0.08727 0.22948 0.0
C1674 C 0.23635 0.93643 0.85076 0.0
C1675 C 0.23959 0.91795 0.8434 0.0
H1676 H 0.24317 0.96615 0.84842 0.0
C1677 C 0.25404 0.91564 0.82891 0.0
H1678 H 0.22538 0.93872 0.86198 0.0
C1679 C 0.26418 0.93137 0.82111 0.0
C1680 C 0.26021 0.94975 0.82777 0.0
H1681 H 0.25696 0.90161 0.82295 0.0
H1682 H 0.27477 0.92912 0.8095 0.0
C1683 C 0.24661 0.95217 0.84307 0.0
C1684 C 0.1261 0.20051 0.82796 0.0
C1685 C 0.13553 0.21239 0.84351 0.0
H1686 H 0.10381 0.19663 0.8071 0.0
C1687 C 0.12951 0.23003 0.84976 0.0
H1688 H 0.13035 0.18681 0.82284 0.0
C1689 C 0.11441 0.23566 0.84072 0.0
C1690 C 0.10489 0.22379 0.82522 0.0
H1691 H 0.13651 0.23957 0.86163 0.0
H1692 H 0.11037 0.24948 0.84571 0.0
C1693 C 0.11094 0.20616 0.8189 0.0
C1694 C 0.80646 0.1508 0.78432 0.0
C1695 C 0.81575 0.16074 0.80095 0.0
H1696 H 0.79751 0.12384 0.76771 0.0
C1697 C 0.82352 0.15048 0.81376 0.0
H1698 H 0.80022 0.15824 0.7742 0.0
C1699 C 0.82209 0.1307 0.80993 0.0
C1700 C 0.81289 0.1208 0.79322 0.0
H1701 H 0.83079 0.15772 0.82669 0.0
H1702 H 0.82839 0.12319 0.81994 0.0
C1703 C 0.80503 0.13107 0.78051 0.0
C1704 C 0.91102 0.81369 0.82339 0.0
C1705 C 0.908 0.83225 0.82149 0.0
H1706 H 0.92868 0.79196 0.81596 0.0
C1707 C 0.92081 0.843 0.80951 0.0
H1708 H 0.90137 0.80491 0.83233 0.0
C1709 C 0.9366 0.83553 0.80013 0.0
C1710 C 0.9399 0.81719 0.8026 0.0
H1711 H 0.91889 0.85733 0.80772 0.0
H1712 H 0.94654 0.84432 0.79145 0.0
C1713 C 0.92675 0.80627 0.81407 0.0
C1714 C 0.81589 0.90422 0.22838 0.0
C1715 C 0.83518 0.90215 0.23087 0.0
H1716 H 0.79381 0.92176 0.2345 0.0
C1717 C 0.84696 0.91655 0.24247 0.0
H1718 H 0.80637 0.89336 0.21963 0.0
C1719 C 0.83972 0.9329 0.25099 0.0
C1720 C 0.82059 0.93519 0.24798 0.0
H1721 H 0.86188 0.91538 0.24469 0.0
H1722 H 0.84925 0.94399 0.25945 0.0
C1723 C 0.8087 0.92055 0.2368 0.0
C1724 C 0.15309 0.80576 0.22351 0.0
C1725 C 0.16749 0.79909 0.23291 0.0
H1726 H 0.12283 0.80484 0.21988 0.0
C1727 C 0.16203 0.78482 0.245 0.0
H1728 H 0.15679 0.81664 0.214 0.0
C1729 C 0.14252 0.77807 0.24836 0.0
C1730 C 0.12812 0.78551 0.23976 0.0
H1731 H 0.17278 0.77934 0.25242 0.0
H1732 H 0.13871 0.76767 0.25839 0.0
C1733 C 0.13362 0.79908 0.22694 0.0
C1734 C 0.90281 0.21627 0.21171 0.0
C1735 C 0.89819 0.22178 0.19404 0.0
H1736 H 0.92177 0.22116 0.23552 0.0
C1737 C 0.90899 0.23808 0.18763 0.0
H1738 H 0.8949 0.2037 0.21703 0.0
C1739 C 0.9243 0.24846 0.19857 0.0
C1740 C 0.92927 0.24261 0.21601 0.0
H1741 H 0.90571 0.24275 0.17412 0.0
H1742 H 0.93228 0.26101 0.19329 0.0
C1743 C 0.91821 0.22643 0.22245 0.0
C1744 C 0.23779 0.72318 0.65369 0.0
C1745 C 0.24016 0.70504 0.65776 0.0
H1746 H 0.24458 0.74446 0.63463 0.0
C1747 C 0.25243 0.69468 0.64551 0.0
H1748 H 0.22861 0.73166 0.66288 0.0
C1749 C 0.26158 0.70207 0.62918 0.0
C1750 C 0.25856 0.71991 0.62477 0.0
H1751 H 0.25459 0.68067 0.64824 0.0
H1752 H 0.27048 0.69355 0.61965 0.0
C1753 C 0.24687 0.73051 0.63742 0.0
C1754 C 0.811 0.74369 0.62761 0.0
C1755 C 0.81907 0.72695 0.62739 0.0
H1756 H 0.79912 0.76193 0.61105 0.0
C1757 C 0.82149 0.71569 0.60951 0.0
H1758 H 0.80886 0.75264 0.64114 0.0
C1759 C 0.81595 0.72107 0.59222 0.0
C1760 C 0.80797 0.73785 0.59246 0.0
H1761 H 0.82767 0.70271 0.60885 0.0
H1762 H 0.81812 0.7122 0.57864 0.0
C1763 C 0.80553 0.74908 0.61035 0.0
C1764 C 0.85057 0.32693 0.65871 0.0
C1765 C 0.84776 0.31638 0.67454 0.0
H1766 H 0.84665 0.3273 0.6284 0.0
C1767 C 0.83887 0.29732 0.6714 0.0
H1768 H 0.85749 0.3416 0.66057 0.0
C1769 C 0.83251 0.28917 0.65295 0.0
C1770 C 0.83492 0.29987 0.63722 0.0
H1771 H 0.83645 0.2888 0.68328 0.0
H1772 H 0.82521 0.27463 0.65114 0.0
C1773 C 0.84425 0.31877 0.64028 0.0
C1774 C 0.21245 0.30715 0.62765 0.0
C1775 C 0.22055 0.30095 0.64333 0.0
H1776 H 0.21206 0.30673 0.59676 0.0
C1777 C 0.23412 0.28836 0.63946 0.0
H1778 H 0.20191 0.3168 0.63013 0.0
C1779 C 0.23984 0.2825 0.6203 0.0
C1780 C 0.23223 0.28927 0.60469 0.0
H1781 H 0.24059 0.28327 0.65122 0.0
H1782 H 0.25072 0.27322 0.61775 0.0
C1783 C 0.21829 0.30145 0.60854 0.0
C1784 C 0.21345 0.32762 0.41917 0.0
C1785 C 0.21971 0.32296 0.39984 0.0
H1786 H 0.21546 0.32373 0.449 0.0
C1787 C 0.23331 0.31041 0.39592 0.0
H1788 H 0.20294 0.3372 0.42269 0.0
C1789 C 0.24051 0.30271 0.41103 0.0
C1790 C 0.2343 0.30746 0.43038 0.0
H1791 H 0.23845 0.30656 0.38118 0.0
H1792 H 0.25115 0.29326 0.40761 0.0
C1793 C 0.22068 0.31998 0.43427 0.0
C1794 C 0.21512 0.71229 0.43382 0.0
C1795 C 0.22317 0.71695 0.41582 0.0
H1796 H 0.21909 0.71369 0.46438 0.0
C1797 C 0.24206 0.72689 0.41514 0.0
H1798 H 0.20064 0.70457 0.43485 0.0
C1799 C 0.25259 0.73221 0.4321 0.0
C1800 C 0.24448 0.72771 0.45012 0.0
H1801 H 0.24869 0.73074 0.40153 0.0
H1802 H 0.26697 0.74018 0.43114 0.0
C1803 C 0.22566 0.71761 0.45077 0.0
C1804 C 0.81439 0.73777 0.38176 0.0
C1805 C 0.80993 0.75105 0.3702 0.0
H1806 H 0.81356 0.72932 0.4103 0.0
C1807 C 0.80047 0.76601 0.37886 0.0
H1808 H 0.82224 0.72646 0.37565 0.0
C1809 C 0.79558 0.76771 0.39868 0.0
C1810 C 0.80022 0.75459 0.41035 0.0
H1811 H 0.79681 0.77644 0.3703 0.0
H1812 H 0.78808 0.7793 0.40485 0.0
C1813 C 0.80954 0.7395 0.40165 0.0
C1814 C 0.82845 0.30934 0.42596 0.0
C1815 C 0.83918 0.32768 0.42819 0.0
H1816 H 0.8136 0.28625 0.43996 0.0
C1817 C 0.84255 0.33715 0.44707 0.0
H1818 H 0.82547 0.30168 0.41163 0.0
C1819 C 0.83588 0.32821 0.46335 0.0
C1820 C 0.82568 0.30961 0.4611 0.0
H1821 H 0.8508 0.35128 0.44931 0.0
H1822 H 0.83927 0.33564 0.47769 0.0
C1823 C 0.82176 0.30042 0.44221 0.0
C1824 C 0.12186 0.71233 0.70496 0.0
C1825 C 0.13752 0.71329 0.71713 0.0
H1826 H 0.09413 0.72015 0.70165 0.0
C1827 C 0.13672 0.72298 0.73607 0.0
H1828 H 0.12196 0.70489 0.69032 0.0
C1829 C 0.12084 0.73196 0.74249 0.0
C1830 C 0.10536 0.73138 0.73015 0.0
H1831 H 0.14858 0.72406 0.74578 0.0
H1832 H 0.12095 0.7398 0.75695 0.0
C1833 C 0.10596 0.72123 0.7114 0.0
C1834 C 0.81038 0.62819 0.71459 0.0
C1835 C 0.82616 0.64092 0.72253 0.0
H1836 H 0.79012 0.60309 0.71755 0.0
C1837 C 0.83329 0.63812 0.74034 0.0
H1838 H 0.80449 0.63002 0.70095 0.0
C1839 C 0.82521 0.62263 0.74973 0.0
C1840 C 0.80973 0.60961 0.7416 0.0
H1841 H 0.84545 0.64764 0.74686 0.0
H1842 H 0.83152 0.62056 0.76307 0.0
C1843 C 0.80223 0.6127 0.72405 0.0
C1844 C 0.91944 0.29348 0.74774 0.0
C1845 C 0.91762 0.31264 0.74748 0.0
H1846 H 0.93847 0.27326 0.74955 0.0
C1847 C 0.93433 0.32633 0.74859 0.0
H1848 H 0.90684 0.28259 0.74689 0.0
C1849 C 0.95246 0.32098 0.75023 0.0
C1850 C 0.95425 0.30181 0.75045 0.0
H1851 H 0.93339 0.3412 0.74841 0.0
H1852 H 0.9651 0.33182 0.75123 0.0
C1853 C 0.93757 0.28811 0.74907 0.0
C1854 C 0.2666 0.38499 0.73328 0.0
C1855 C 0.25012 0.37962 0.7219 0.0
H1856 H 0.28622 0.40794 0.74766 0.0
C1857 C 0.24162 0.39383 0.715 0.0
H1858 H 0.2735 0.37441 0.73883 0.0
C1859 C 0.24892 0.41299 0.72002 0.0
C1860 C 0.26493 0.4184 0.73202 0.0
H1861 H 0.22899 0.39022 0.70608 0.0
H1862 H 0.24187 0.42361 0.71472 0.0
C1863 C 0.27394 0.4042 0.73828 0.0
C1864 C 0.12916 0.34822 0.32084 0.0
C1865 C 0.13551 0.34218 0.33754 0.0
H1866 H 0.10855 0.34326 0.2984 0.0
C1867 C 0.12588 0.32533 0.34386 0.0
H1868 H 0.1362 0.36119 0.31562 0.0
C1869 C 0.1101 0.31483 0.33376 0.0
C1870 C 0.10358 0.32104 0.3172 0.0
H1871 H 0.1305 0.32025 0.35662 0.0
H1872 H 0.10304 0.30184 0.33891 0.0
C1873 C 0.11336 0.33783 0.31085 0.0
C1874 C 0.20547 0.63431 0.32845 0.0
C1875 C 0.21937 0.65076 0.33019 0.0
H1876 H 0.20007 0.60394 0.32167 0.0
C1877 C 0.2389 0.64899 0.3264 0.0
H1878 H 0.19031 0.63526 0.33126 0.0
C1879 C 0.24446 0.63111 0.32129 0.0
C1880 C 0.23058 0.6147 0.31953 0.0
H1881 H 0.24995 0.6614 0.3277 0.0
H1882 H 0.25962 0.63011 0.31855 0.0
C1883 C 0.21101 0.61643 0.32294 0.0
C1884 C 0.90282 0.77475 0.29738 0.0
C1885 C 0.88966 0.75881 0.30136 0.0
H1886 H 0.93227 0.78637 0.29232 0.0
C1887 C 0.89669 0.74202 0.30378 0.0
H1888 H 0.89786 0.78786 0.29527 0.0
C1889 C 0.9165 0.74122 0.30234 0.0
C1890 C 0.92969 0.75718 0.29836 0.0
H1891 H 0.88691 0.7295 0.30694 0.0
H1892 H 0.92149 0.72815 0.30451 0.0
C1893 C 0.92259 0.77394 0.29585 0.0
C1894 C 0.81076 0.41216 0.33523 0.0
C1895 C 0.83083 0.41258 0.33437 0.0
H1896 H 0.78702 0.42552 0.3292 0.0
C1897 C 0.84248 0.42691 0.32549 0.0
H1898 H 0.80146 0.40138 0.34222 0.0
C1899 C 0.83419 0.44042 0.31732 0.0
C1900 C 0.81405 0.44027 0.31835 0.0
H1901 H 0.85801 0.42746 0.3245 0.0
H1902 H 0.84365 0.45078 0.30997 0.0
C1903 C 0.80249 0.42598 0.32759 0.0
C1904 C 0.23583 0.60225 0.71149 0.0
C1905 C 0.23863 0.62055 0.72201 0.0
H1906 H 0.24126 0.5735 0.70942 0.0
C1907 C 0.24974 0.62381 0.73879 0.0
H1908 H 0.22736 0.59927 0.6985 0.0
C1909 C 0.25766 0.60904 0.74506 0.0
C1910 C 0.25475 0.5907 0.73461 0.0
H1911 H 0.25222 0.63774 0.74721 0.0
H1912 H 0.26618 0.61199 0.75803 0.0
C1913 C 0.24387 0.58751 0.71768 0.0
C1914 C 0.23734 0.4104 0.33592 0.0
C1915 C 0.22535 0.41121 0.35274 0.0
H1916 H 0.2539 0.4259 0.31492 0.0
C1917 C 0.22252 0.42909 0.36245 0.0
H1918 H 0.23997 0.3969 0.32815 0.0
C1919 C 0.23051 0.44572 0.35481 0.0
C1920 C 0.24141 0.44478 0.33729 0.0
H1921 H 0.21342 0.43022 0.37548 0.0
H1922 H 0.22728 0.45923 0.36206 0.0
C1923 C 0.24525 0.42701 0.32827 0.0
C1924 C 0.12527 0.71203 0.33049 0.0
C1925 C 0.13145 0.7234 0.34781 0.0
H1926 H 0.10685 0.70818 0.30606 0.0
C1927 C 0.12316 0.73988 0.35388 0.0
H1928 H 0.13139 0.69926 0.32539 0.0
C1929 C 0.10908 0.74491 0.34288 0.0
C1930 C 0.10292 0.73362 0.32553 0.0
H1931 H 0.12751 0.74892 0.36718 0.0
H1932 H 0.10283 0.75758 0.34813 0.0
C1933 C 0.11114 0.71708 0.31947 0.0
C1934 C 0.79513 0.6343 0.33374 0.0
C1935 C 0.7912 0.64699 0.32121 0.0
H1936 H 0.79571 0.60526 0.33756 0.0
C1937 C 0.78384 0.63964 0.3028 0.0
H1938 H 0.80079 0.63951 0.34803 0.0
C1939 C 0.78095 0.62011 0.29685 0.0
C1940 C 0.7853 0.60744 0.30917 0.0
H1941 H 0.78054 0.64899 0.29282 0.0
H1942 H 0.77533 0.61491 0.28254 0.0
C1943 C 0.79215 0.6147 0.3278 0.0
C1944 C 0.90708 0.33725 0.31487 0.0
C1945 C 0.91004 0.34498 0.33441 0.0
H1946 H 0.91832 0.32169 0.28938 0.0
C1947 C 0.9277 0.34414 0.34271 0.0
H1948 H 0.89362 0.33768 0.30805 0.0
C1949 C 0.94178 0.33516 0.33205 0.0
C1950 C 0.93856 0.32663 0.31282 0.0
H1951 H 0.9306 0.35017 0.35762 0.0
H1952 H 0.95517 0.33473 0.339 0.0
C1953 C 0.92123 0.32813 0.30417 0.0
C1954 C 0.8403 0.41749 0.76245 0.0
C1955 C 0.85289 0.41807 0.74608 0.0
H1956 H 0.82092 0.43201 0.78157 0.0
C1957 C 0.8568 0.4349 0.7374 0.0
H1958 H 0.837 0.40475 0.76949 0.0
C1959 C 0.84762 0.45047 0.74433 0.0
C1960 C 0.83436 0.44961 0.76012 0.0
H1961 H 0.86653 0.4359 0.72487 0.0
H1962 H 0.85067 0.46309 0.73708 0.0
C1963 C 0.83114 0.43313 0.76943 0.0
C1964 C 0.16489 0.28622 0.74024 0.0
C1965 C 0.17372 0.30403 0.74904 0.0
H1966 H 0.13908 0.26581 0.73753 0.0
C1967 C 0.16292 0.3149 0.76247 0.0
H1968 H 0.17283 0.27751 0.72984 0.0
C1969 C 0.14364 0.30825 0.76679 0.0
C1970 C 0.13468 0.29059 0.75778 0.0
H1971 H 0.16926 0.3287 0.7695 0.0
H1972 H 0.13562 0.31718 0.77687 0.0
C1973 C 0.14553 0.27958 0.74454 0.0
C1974 C 0.91386 0.71327 0.70298 0.0
C1975 C 0.9012 0.72436 0.69656 0.0
H1976 H 0.94051 0.71297 0.71661 0.0
C1977 C 0.90674 0.74416 0.69792 0.0
H1978 H 0.91005 0.69799 0.70219 0.0
C1979 C 0.92438 0.7527 0.70601 0.0
C1980 C 0.93654 0.74159 0.71317 0.0
H1981 H 0.8973 0.75308 0.69307 0.0
H1982 H 0.9282 0.768 0.70731 0.0
C1983 C 0.93126 0.72181 0.71134 0.0
C1984 C 0.73757 0.18665 0.63862 0.0
C1985 C 0.73586 0.19728 0.65697 0.0
H1986 H 0.74793 0.18666 0.60913 0.0
C1987 C 0.74531 0.21613 0.65996 0.0
H1988 H 0.73039 0.17211 0.63582 0.0
C1989 C 0.75564 0.22439 0.64476 0.0
C1990 C 0.75656 0.2141 0.62609 0.0
H1991 H 0.74446 0.22465 0.674 0.0
H1992 H 0.76268 0.23897 0.6476 0.0
C1993 C 0.74771 0.19499 0.62331 0.0
C1994 C 0.32713 0.24215 0.62156 0.0
C1995 C 0.32146 0.22305 0.62419 0.0
H1996 H 0.3278 0.26351 0.60288 0.0
C1997 C 0.31139 0.21064 0.60949 0.0
H1998 H 0.33513 0.25194 0.63263 0.0
C1999 C 0.3064 0.21739 0.59273 0.0
C2000 C 0.31191 0.23661 0.58999 0.0
H2001 H 0.30674 0.19586 0.61128 0.0
H2002 H 0.29773 0.20755 0.58224 0.0
C2003 C 0.32272 0.24879 0.60453 0.0
C2004 C 0.34589 0.80858 0.66125 0.0
C2005 C 0.36175 0.82293 0.65956 0.0
H2006 H 0.32512 0.78709 0.64635 0.0
C2007 C 0.36961 0.82572 0.64096 0.0
H2008 H 0.3395 0.80605 0.67536 0.0
C2009 C 0.36142 0.81477 0.62438 0.0
C2010 C 0.3451 0.80095 0.62605 0.0
H2011 H 0.38186 0.83661 0.63916 0.0
H2012 H 0.36743 0.8176 0.61021 0.0
C2013 C 0.33758 0.79778 0.64465 0.0
C2014 C 0.72397 0.79402 0.63978 0.0
C2015 C 0.73962 0.80084 0.65201 0.0
H2016 H 0.71483 0.78435 0.61058 0.0
C2017 C 0.75841 0.80319 0.64383 0.0
H2018 H 0.70933 0.79201 0.64569 0.0
C2019 C 0.76148 0.79912 0.62378 0.0
C2020 C 0.74585 0.7923 0.61159 0.0
H2021 H 0.77075 0.80846 0.65288 0.0
H2022 H 0.7761 0.80115 0.61779 0.0
C2023 C 0.72709 0.78959 0.61974 0.0
C2024 C 0.72837 0.80749 0.3983 0.0
C2025 C 0.71679 0.82194 0.40162 0.0
H2026 H 0.744 0.78902 0.41092 0.0
C2027 C 0.71193 0.8288 0.42087 0.0
H2028 H 0.73239 0.80191 0.38365 0.0
C2029 C 0.71859 0.82142 0.43647 0.0
C2030 C 0.73012 0.80694 0.43315 0.0
H2031 H 0.70302 0.83993 0.42392 0.0
H2032 H 0.71452 0.8269 0.45115 0.0
C2033 C 0.73493 0.80002 0.41391 0.0
C2034 C 0.74118 0.23674 0.42128 0.0
C2035 C 0.73137 0.21822 0.4164 0.0
H2036 H 0.75797 0.25627 0.44218 0.0
C2037 C 0.73122 0.20492 0.42956 0.0
H2038 H 0.74173 0.24731 0.41142 0.0
C2039 C 0.74039 0.21015 0.44736 0.0
C2040 C 0.74995 0.22877 0.45235 0.0
H2041 H 0.72377 0.19054 0.42626 0.0
H2042 H 0.73962 0.19971 0.45739 0.0
C2043 C 0.75041 0.24193 0.43899 0.0
C2044 C 0.31461 0.27622 0.38022 0.0
C2045 C 0.32605 0.26274 0.3718 0.0
H2046 H 0.29946 0.28714 0.40564 0.0
C2047 C 0.33144 0.24987 0.38334 0.0
H2048 H 0.31021 0.2863 0.37168 0.0
C2049 C 0.32541 0.25044 0.4029 0.0
C2050 C 0.31397 0.26396 0.41133 0.0
H2051 H 0.34079 0.23976 0.37747 0.0
H2052 H 0.33006 0.24057 0.41153 0.0
C2053 C 0.30855 0.27677 0.39971 0.0
C2054 C 0.32651 0.81105 0.42119 0.0
C2055 C 0.34562 0.82037 0.42008 0.0
H2056 H 0.30488 0.79543 0.43806 0.0
C2057 C 0.35731 0.82206 0.4363 0.0
H2058 H 0.31713 0.80946 0.40893 0.0
C2059 C 0.35025 0.81412 0.45302 0.0
C2060 C 0.33135 0.80426 0.45393 0.0
H2061 H 0.37207 0.82925 0.43599 0.0
H2062 H 0.35968 0.81564 0.46523 0.0
C2063 C 0.31946 0.80306 0.43792 0.0
C2064 C 0.63003 0.212 0.73355 0.0
C2065 C 0.64337 0.22223 0.72162 0.0
H2066 H 0.60247 0.21013 0.74849 0.0
C2067 C 0.63894 0.23907 0.71589 0.0
H2068 H 0.63299 0.19896 0.73819 0.0
C2069 C 0.62155 0.24548 0.72184 0.0
C2070 C 0.60811 0.23523 0.73365 0.0
H2071 H 0.64891 0.24736 0.70678 0.0
H2072 H 0.61873 0.25863 0.71733 0.0
C2073 C 0.61258 0.21845 0.73952 0.0
C2074 C 0.32265 0.12097 0.69069 0.0
C2075 C 0.32154 0.13959 0.69943 0.0
H2076 H 0.319 0.09151 0.69429 0.0
C2077 C 0.3139 0.1424 0.7185 0.0
H2078 H 0.32851 0.11833 0.67602 0.0
C2079 C 0.30829 0.12701 0.72891 0.0
C2080 C 0.31029 0.10847 0.72054 0.0
H2081 H 0.31268 0.15655 0.7256 0.0
H2082 H 0.30266 0.12969 0.74366 0.0
C2083 C 0.31714 0.10558 0.70115 0.0
C2084 C 0.44506 0.83665 0.73415 0.0
C2085 C 0.42629 0.82741 0.73773 0.0
H2086 H 0.47545 0.83589 0.73494 0.0
C2087 C 0.42394 0.8099 0.74514 0.0
H2088 H 0.44734 0.85016 0.72845 0.0
C2089 C 0.43999 0.80167 0.74861 0.0
C2090 C 0.45876 0.81088 0.74503 0.0
H2091 H 0.40968 0.80241 0.74806 0.0
H2092 H 0.43771 0.78814 0.75428 0.0
C2093 C 0.46115 0.82852 0.7379 0.0
C2094 C 0.75094 0.8904 0.72684 0.0
C2095 C 0.75572 0.87865 0.73997 0.0
H2096 H 0.75157 0.91878 0.72037 0.0
C2097 C 0.76609 0.88704 0.75654 0.0
H2098 H 0.7429 0.88441 0.71395 0.0
C2099 C 0.77121 0.90675 0.76013 0.0
C2100 C 0.76597 0.91854 0.74728 0.0
H2101 H 0.77012 0.8784 0.76688 0.0
H2102 H 0.77926 0.91276 0.77301 0.0
C2103 C 0.75597 0.91011 0.73048 0.0
C2104 C 0.62787 0.82505 0.34062 0.0
C2105 C 0.63698 0.84231 0.33477 0.0
H2106 H 0.60637 0.80055 0.3345 0.0
C2107 C 0.6309 0.84817 0.31786 0.0
H2108 H 0.63231 0.8201 0.35353 0.0
C2109 C 0.61597 0.83711 0.30709 0.0
C2110 C 0.60681 0.81982 0.31287 0.0
H2111 H 0.63755 0.86144 0.31299 0.0
H2112 H 0.61136 0.84232 0.29441 0.0
C2113 C 0.61297 0.81389 0.32975 0.0
C2114 C 0.74421 0.13822 0.33183 0.0
C2115 C 0.72413 0.13679 0.33495 0.0
H2116 H 0.76813 0.12353 0.32273 0.0
C2117 C 0.71255 0.11905 0.33052 0.0
H2118 H 0.7535 0.15169 0.33519 0.0
C2119 C 0.72091 0.10305 0.32307 0.0
C2120 C 0.74101 0.10444 0.32036 0.0
H2121 H 0.69703 0.11754 0.33275 0.0
H2122 H 0.71172 0.0895 0.3198 0.0
C2123 C 0.7526 0.12213 0.3248 0.0
C2124 C 0.41867 0.29433 0.30118 0.0
C2125 C 0.40657 0.27744 0.30431 0.0
H2126 H 0.44755 0.3082 0.29725 0.0
C2127 C 0.41492 0.26122 0.30614 0.0
H2128 H 0.4127 0.30702 0.2995 0.0
C2129 C 0.43498 0.26195 0.30507 0.0
C2130 C 0.44709 0.27891 0.30211 0.0
H2131 H 0.40598 0.24799 0.3086 0.0
H2132 H 0.441 0.24931 0.30682 0.0
C2133 C 0.43868 0.29504 0.30005 0.0
C2134 C 0.3309 0.91067 0.31495 0.0
C2135 C 0.34792 0.91305 0.32546 0.0
H2136 H 0.31134 0.92394 0.30059 0.0
C2137 C 0.35858 0.93136 0.32929 0.0
H2138 H 0.32238 0.89676 0.31169 0.0
C2139 C 0.35222 0.94697 0.32293 0.0
C2140 C 0.33501 0.94461 0.31273 0.0
H2141 H 0.37176 0.93368 0.33734 0.0
H2142 H 0.36056 0.96094 0.32637 0.0
C2143 C 0.3245 0.92626 0.30869 0.0
C2144 C 0.72191 0.09556 0.70899 0.0
C2145 C 0.72451 0.11445 0.71807 0.0
H2146 H 0.72841 0.06739 0.70886 0.0
C2147 C 0.73628 0.11932 0.73436 0.0
H2148 H 0.71292 0.09132 0.69642 0.0
C2149 C 0.7452 0.10561 0.74144 0.0
C2150 C 0.74258 0.08671 0.73239 0.0
H2151 H 0.73865 0.13375 0.74165 0.0
H2152 H 0.75436 0.10989 0.75388 0.0
C2153 C 0.73087 0.08186 0.71605 0.0
C2154 C 0.74183 0.90491 0.33356 0.0
C2155 C 0.72979 0.90721 0.35022 0.0
H2156 H 0.76035 0.91852 0.31251 0.0
C2157 C 0.72872 0.92567 0.35952 0.0
H2158 H 0.7431 0.89091 0.32611 0.0
C2159 C 0.73862 0.9415 0.35168 0.0
C2160 C 0.74971 0.93918 0.33437 0.0
H2161 H 0.71963 0.92794 0.37241 0.0
H2162 H 0.7368 0.95555 0.35864 0.0
C2163 C 0.75164 0.92073 0.3257 0.0
C2164 C 0.648 0.23985 0.32519 0.0
C2165 C 0.65421 0.24869 0.3436 0.0
H2166 H 0.62883 0.23909 0.30188 0.0
C2167 C 0.6452 0.2638 0.3528 0.0
H2168 H 0.65466 0.22819 0.3177 0.0
C2169 C 0.63039 0.26998 0.3438 0.0
C2170 C 0.6242 0.26121 0.32537 0.0
H2171 H 0.64956 0.2709 0.36702 0.0
H2172 H 0.62362 0.28153 0.35139 0.0
C2173 C 0.63313 0.24603 0.31618 0.0
C2174 C 0.3198 0.1473 0.33654 0.0
C2175 C 0.33219 0.15875 0.32487 0.0
H2176 H 0.30607 0.11921 0.34043 0.0
C2177 C 0.34072 0.15009 0.30797 0.0
H2178 H 0.31306 0.15352 0.3497 0.0
C2179 C 0.33664 0.13048 0.30262 0.0
C2180 C 0.32395 0.11905 0.31405 0.0
H2181 H 0.35031 0.15848 0.29863 0.0
H2182 H 0.34302 0.12435 0.2892 0.0
C2183 C 0.31572 0.12766 0.33118 0.0
C2184 C 0.41894 0.835 0.30293 0.0
C2185 C 0.40569 0.82417 0.31446 0.0
H2186 H 0.44484 0.83609 0.28511 0.0
C2187 C 0.40785 0.80519 0.31547 0.0
H2188 H 0.41767 0.84964 0.3018 0.0
C2189 C 0.42336 0.79751 0.30598 0.0
C2190 C 0.43706 0.80855 0.29516 0.0
H2191 H 0.39786 0.79635 0.32407 0.0
H2192 H 0.42483 0.78297 0.3074 0.0
C2193 C 0.43445 0.82723 0.29331 0.0
C2194 C 0.35047 0.92009 0.75426 0.0
C2195 C 0.36167 0.91897 0.73692 0.0
H2196 H 0.33278 0.93643 0.77361 0.0
C2197 C 0.36441 0.9345 0.72619 0.0
H2198 H 0.34809 0.90838 0.76287 0.0
C2199 C 0.35556 0.95048 0.73229 0.0
C2200 C 0.34393 0.95137 0.74934 0.0
H2201 H 0.37297 0.93413 0.71278 0.0
H2202 H 0.35768 0.9621 0.72357 0.0
C2203 C 0.34175 0.93617 0.76046 0.0
C2204 C 0.66746 0.78619 0.75507 0.0
C2205 C 0.67339 0.80236 0.74565 0.0
H2206 H 0.64367 0.7678 0.76627 0.0
C2207 C 0.65928 0.81165 0.73897 0.0
H2208 H 0.67799 0.7787 0.76037 0.0
C2209 C 0.63972 0.80539 0.74228 0.0
C2210 C 0.63376 0.78969 0.75236 0.0
H2211 H 0.66332 0.82404 0.73149 0.0
H2212 H 0.62922 0.81301 0.73712 0.0
C2213 C 0.64782 0.7799 0.75838 0.0
C2214 C 0.39898 0.23373 0.70769 0.0
C2215 C 0.39913 0.22105 0.69042 0.0
H2216 H 0.4155 0.25063 0.73067 0.0
C2217 C 0.41693 0.21666 0.68239 0.0
H2218 H 0.38555 0.23745 0.71427 0.0
C2219 C 0.43413 0.22432 0.6918 0.0
C2220 C 0.43381 0.23631 0.70951 0.0
H2221 H 0.41755 0.20697 0.66909 0.0
H2222 H 0.44759 0.2203 0.68561 0.0
C2223 C 0.41611 0.24119 0.71718 0.0
C2224 C 0.73492 0.67876 0.13087 0.0
C2225 C 0.73407 0.68969 0.14918 0.0
H2226 H 0.74417 0.67813 0.10103 0.0
C2227 C 0.74405 0.70836 0.15165 0.0
H2228 H 0.72731 0.66436 0.12846 0.0
C2229 C 0.75399 0.71618 0.13599 0.0
C2230 C 0.754 0.70562 0.11739 0.0
H2231 H 0.74385 0.7171 0.16562 0.0
H2232 H 0.76141 0.73065 0.13842 0.0
C2233 C 0.74467 0.68667 0.11514 0.0
C2234 C 0.31603 0.72054 0.10941 0.0
C2235 C 0.3316 0.71037 0.10519 0.0
H2236 H 0.29657 0.73662 0.09862 0.0
C2237 C 0.33961 0.70878 0.08618 0.0
H2238 H 0.30955 0.72205 0.12391 0.0
C2239 C 0.33217 0.71714 0.0717 0.0
C2240 C 0.31648 0.72714 0.07589 0.0
H2241 H 0.35161 0.70103 0.08246 0.0
H2242 H 0.33849 0.71552 0.05714 0.0
C2243 C 0.30852 0.72879 0.0949 0.0
C2244 C 0.34677 0.29702 0.15712 0.0
C2245 C 0.33927 0.31361 0.16473 0.0
H2246 H 0.34611 0.27387 0.13406 0.0
C2247 C 0.3254 0.31982 0.15416 0.0
H2248 H 0.35746 0.29185 0.1649 0.0
C2249 C 0.31902 0.30963 0.13654 0.0
C2250 C 0.32627 0.29291 0.12901 0.0
H2251 H 0.3194 0.33261 0.15948 0.0
H2252 H 0.30847 0.31498 0.12872 0.0
C2253 C 0.34033 0.28677 0.13942 0.0
C2254 C 0.7791 0.29507 0.12821 0.0
C2255 C 0.79765 0.30394 0.1339 0.0
H2256 H 0.76044 0.28369 0.10453 0.0
C2257 C 0.81188 0.30793 0.11948 0.0
H2258 H 0.76781 0.29182 0.13898 0.0
C2259 C 0.80766 0.30328 0.09981 0.0
C2260 C 0.78911 0.29451 0.0941 0.0
H2261 H 0.82633 0.31468 0.12335 0.0
H2262 H 0.81903 0.30635 0.08907 0.0
C2263 C 0.77489 0.29035 0.1085 0.0
C2264 C 0.71341 0.33034 0.91429 0.0
C2265 C 0.7158 0.32349 0.89451 0.0
H2266 H 0.71997 0.32833 0.94371 0.0
C2267 C 0.72727 0.30914 0.88931 0.0
H2268 H 0.70467 0.34141 0.91877 0.0
C2269 C 0.73599 0.30165 0.9036 0.0
C2270 C 0.73351 0.30842 0.92338 0.0
H2271 H 0.72944 0.30359 0.8742 0.0
H2272 H 0.74484 0.29066 0.89915 0.0
C2273 C 0.72224 0.32293 0.92857 0.0
C2274 C 0.72781 0.71516 0.91245 0.0
C2275 C 0.7135 0.69908 0.91207 0.0
H2276 H 0.74958 0.73404 0.92895 0.0
C2277 C 0.71073 0.6892 0.9284 0.0
H2278 H 0.73031 0.72309 0.90011 0.0
C2279 C 0.7219 0.6954 0.94484 0.0
C2280 C 0.73586 0.71174 0.94536 0.0
H2281 H 0.69986 0.67673 0.92854 0.0
H2282 H 0.71929 0.68769 0.95734 0.0
C2283 C 0.73879 0.72149 0.92897 0.0
C2284 C 0.30415 0.7721 0.87165 0.0
C2285 C 0.31545 0.75857 0.86296 0.0
H2286 H 0.29045 0.7838 0.8977 0.0
C2287 C 0.32167 0.74617 0.87453 0.0
H2288 H 0.29913 0.78186 0.86314 0.0
C2289 C 0.31666 0.74727 0.89436 0.0
C2290 C 0.30556 0.76095 0.90305 0.0
H2291 H 0.331 0.73611 0.86851 0.0
H2292 H 0.32196 0.73779 0.90302 0.0
C2293 C 0.29924 0.77326 0.89145 0.0
C2294 C 0.32028 0.30332 0.92255 0.0
C2295 C 0.33893 0.31383 0.92228 0.0
H2296 H 0.2991 0.28598 0.93826 0.0
C2297 C 0.35019 0.31578 0.93885 0.0
H2298 H 0.31126 0.30148 0.90999 0.0
C2299 C 0.34317 0.30702 0.95511 0.0
C2300 C 0.32475 0.29602 0.95519 0.0
H2301 H 0.36458 0.32386 0.93919 0.0
H2302 H 0.35224 0.30882 0.96762 0.0
C2303 C 0.31328 0.29449 0.9388 0.0
C2304 C 0.64206 0.73719 0.21071 0.0
C2305 C 0.64552 0.71994 0.21629 0.0
H2306 H 0.62308 0.75794 0.21237 0.0
C2307 C 0.63177 0.71029 0.22831 0.0
H2308 H 0.65238 0.74506 0.20154 0.0
C2309 C 0.61484 0.71768 0.23445 0.0
C2310 C 0.61132 0.73484 0.22867 0.0
H2311 H 0.63398 0.69696 0.23285 0.0
H2312 H 0.60437 0.70977 0.24345 0.0
C2313 C 0.62519 0.74454 0.21682 0.0
C2314 C 0.30895 0.61143 0.19966 0.0
C2315 C 0.31052 0.63079 0.20696 0.0
H2316 H 0.2994 0.58279 0.20499 0.0
C2317 C 0.30136 0.63609 0.22488 0.0
H2318 H 0.31579 0.60687 0.18588 0.0
C2319 C 0.29186 0.62226 0.2358 0.0
C2320 C 0.29129 0.60287 0.22903 0.0
H2321 H 0.30215 0.6509 0.23085 0.0
H2322 H 0.28542 0.62676 0.24981 0.0
C2323 C 0.29945 0.59761 0.21058 0.0
C2324 C 0.44172 0.33994 0.23474 0.0
C2325 C 0.42514 0.32691 0.23818 0.0
H2326 H 0.47256 0.34656 0.23601 0.0
C2327 C 0.42724 0.31029 0.24596 0.0
H2328 H 0.44058 0.3529 0.22881 0.0
C2329 C 0.44552 0.30664 0.24993 0.0
C2330 C 0.4621 0.3196 0.2464 0.0
H2331 H 0.41477 0.30001 0.24887 0.0
H2332 H 0.44668 0.29372 0.25596 0.0
C2333 C 0.46001 0.33636 0.23892 0.0
C2334 C 0.79628 0.39057 0.20661 0.0
C2335 C 0.78424 0.37541 0.21386 0.0
H2336 H 0.80313 0.42068 0.20691 0.0
C2337 C 0.76931 0.37935 0.22728 0.0
H2338 H 0.80788 0.38795 0.19622 0.0
C2339 C 0.76662 0.39813 0.23347 0.0
C2340 C 0.77888 0.41333 0.22644 0.0
H2341 H 0.76024 0.36805 0.23366 0.0
H2342 H 0.75541 0.40076 0.24431 0.0
C2343 C 0.79358 0.40931 0.21277 0.0
C2344 C 0.62268 0.32667 0.84544 0.0
C2345 C 0.63073 0.34421 0.83946 0.0
H2346 H 0.60231 0.30123 0.83959 0.0
C2347 C 0.62376 0.34969 0.82277 0.0
H2348 H 0.62783 0.322 0.85818 0.0
C2349 C 0.60912 0.33789 0.81223 0.0
C2350 C 0.60114 0.32025 0.81803 0.0
H2351 H 0.62957 0.36315 0.81782 0.0
H2352 H 0.60387 0.34274 0.79964 0.0
C2353 C 0.60804 0.31479 0.83481 0.0
C2354 C 0.70304 0.62022 0.83396 0.0
C2355 C 0.70876 0.63679 0.82513 0.0
H2356 H 0.70683 0.59137 0.83513 0.0
C2357 C 0.72242 0.63643 0.80964 0.0
H2358 H 0.69255 0.62003 0.84593 0.0
C2359 C 0.73048 0.61997 0.80338 0.0
C2360 C 0.7252 0.60362 0.81264 0.0
H2361 H 0.72711 0.64896 0.80252 0.0
H2362 H 0.7413 0.62023 0.79171 0.0
C2363 C 0.71127 0.60384 0.82786 0.0
C2364 C 0.40655 0.78107 0.79489 0.0
C2365 C 0.39242 0.76517 0.79656 0.0
H2366 H 0.43658 0.7919 0.79283 0.0
C2367 C 0.3983 0.74755 0.79782 0.0
H2368 H 0.40251 0.79482 0.79374 0.0
C2369 C 0.41792 0.7459 0.7975 0.0
C2370 C 0.43206 0.76183 0.79589 0.0
H2371 H 0.38775 0.73505 0.79921 0.0
H2372 H 0.42199 0.73219 0.79874 0.0
C2373 C 0.42611 0.77942 0.79453 0.0
C2374 C 0.35052 0.42719 0.82949 0.0
C2375 C 0.34059 0.40869 0.82468 0.0
H2376 H 0.35244 0.45673 0.82651 0.0
C2377 C 0.32476 0.40597 0.8124 0.0
H2378 H 0.36277 0.42978 0.83892 0.0
C2379 C 0.31888 0.4214 0.80528 0.0
C2380 C 0.3287 0.43992 0.81022 0.0
H2381 H 0.31683 0.39191 0.80835 0.0
H2382 H 0.3067 0.4188 0.79575 0.0
C2383 C 0.34467 0.44263 0.82231 0.0
C2384 C 0.72473 0.60992 0.23035 0.0
C2385 C 0.71667 0.60646 0.21182 0.0
H2386 H 0.73798 0.59859 0.25247 0.0
C2387 C 0.71605 0.58829 0.2012 0.0
H2388 H 0.72545 0.62375 0.23891 0.0
C2389 C 0.72333 0.5739 0.20894 0.0
C2390 C 0.73116 0.57731 0.22757 0.0
H2391 H 0.70996 0.58516 0.18687 0.0
H2392 H 0.72255 0.56 0.20049 0.0
C2393 C 0.73181 0.59548 0.23817 0.0
C2394 C 0.73245 0.42107 0.85505 0.0
C2395 C 0.72111 0.40664 0.84317 0.0
H2396 H 0.7514 0.44751 0.85675 0.0
C2397 C 0.72003 0.40817 0.82333 0.0
H2398 H 0.7336 0.42012 0.87039 0.0
C2399 C 0.7295 0.42419 0.81562 0.0
C2400 C 0.74082 0.43887 0.82744 0.0
H2401 H 0.71114 0.39734 0.8139 0.0
H2402 H 0.72732 0.42523 0.8005 0.0
C2403 C 0.74248 0.43686 0.84721 0.0
C2404 C 0.61813 0.69878 0.83153 0.0
C2405 C 0.62368 0.70757 0.85017 0.0
H2406 H 0.60183 0.69961 0.80642 0.0
C2407 C 0.61627 0.72413 0.85797 0.0
H2408 H 0.62363 0.68602 0.82509 0.0
C2409 C 0.60371 0.73183 0.84735 0.0
C2410 C 0.59828 0.72319 0.82864 0.0
H2411 H 0.62015 0.73122 0.87232 0.0
H2412 H 0.59811 0.74449 0.85392 0.0
C2413 C 0.60557 0.70651 0.82088 0.0
C2414 C 0.31147 0.64639 0.79517 0.0
C2415 C 0.31788 0.6551 0.81355 0.0
H2416 H 0.3054 0.62058 0.77585 0.0
C2417 C 0.3235 0.64381 0.82668 0.0
H2418 H 0.30692 0.65463 0.78474 0.0
C2419 C 0.32278 0.62421 0.82149 0.0
C2420 C 0.31647 0.61554 0.80305 0.0
H2421 H 0.32853 0.65011 0.84095 0.0
H2422 H 0.32736 0.61588 0.83182 0.0
C2423 C 0.31075 0.62686 0.79 0.0
C2424 C 0.40274 0.30274 0.81926 0.0
C2425 C 0.40022 0.3216 0.81811 0.0
H2426 H 0.42025 0.28091 0.81158 0.0
C2427 C 0.41352 0.33266 0.80683 0.0
H2428 H 0.3927 0.29372 0.82764 0.0
C2429 C 0.42941 0.32525 0.79761 0.0
C2430 C 0.43232 0.30667 0.79956 0.0
H2431 H 0.41198 0.34722 0.80561 0.0
H2432 H 0.43981 0.33429 0.7896 0.0
C2433 C 0.41858 0.29539 0.81012 0.0
C2434 C 0.3224 0.4161 0.25456 0.0
C2435 C 0.33033 0.41496 0.23551 0.0
H2436 H 0.30745 0.43218 0.27697 0.0
C2437 C 0.33025 0.43024 0.22484 0.0
H2438 H 0.32223 0.40456 0.26316 0.0
C2439 C 0.32184 0.44602 0.23275 0.0
C2440 C 0.31332 0.44691 0.25152 0.0
H2441 H 0.33635 0.42989 0.21019 0.0
H2442 H 0.32188 0.45749 0.22408 0.0
C2443 C 0.31399 0.43194 0.26249 0.0
C2444 C 0.67327 0.32347 0.2277 0.0
C2445 C 0.68471 0.33778 0.23975 0.0
H2446 H 0.64553 0.30654 0.22317 0.0
C2447 C 0.67633 0.34624 0.25686 0.0
H2448 H 0.67924 0.31669 0.21439 0.0
C2449 C 0.65701 0.34036 0.26191 0.0
C2450 C 0.64566 0.32587 0.24999 0.0
H2451 H 0.68474 0.35727 0.26648 0.0
H2452 H 0.65108 0.3469 0.27537 0.0
C2453 C 0.65397 0.31757 0.23278 0.0
C2454 C 0.41676 0.69855 0.20086 0.0
C2455 C 0.40781 0.70623 0.18671 0.0
H2456 H 0.43929 0.70254 0.22132 0.0
C2457 C 0.41543 0.7245 0.18224 0.0
H2458 H 0.41138 0.68449 0.20461 0.0
C2459 C 0.4315 0.73493 0.19196 0.0
C2460 C 0.44016 0.72731 0.20638 0.0
H2461 H 0.40887 0.73083 0.17142 0.0
H2462 H 0.4369 0.74908 0.18849 0.0
C2463 C 0.43271 0.70895 0.21056 0.0
loop_
_geom_bond_atom_site_label_1
_geom_bond_atom_site_label_2
_geom_bond_distance
_geom_bond_site_symmetry_2
_ccdc_geom_bond_type
O0 Cd1 2.300 . S
O0 C7 1.275 . S
Cd1 O0 2.300 . S
Cd1 O9 2.381 . S
Cd1 O10 2.378 . S
O2 Cd3 2.385 . S
O2 C7 1.255 . S
Cd3 O2 2.385 . S
Cd3 O4 2.317 . S
O4 Cd3 2.317 . S
O4 C5 1.232 . S
C5 O4 1.232 . S
C5 O6 1.218 . S
O6 C5 1.218 . S
C7 O0 1.275 . S
C7 O2 1.255 . S
C8 O9 1.258 . S
C8 O10 1.256 . S
O9 Cd1 2.381 . S
O9 C8 1.258 . S
O10 Cd1 2.378 . S
O10 C8 1.256 . S
O11 Cd12 2.300 . S
O11 C18 1.275 . S
Cd12 O11 2.300 . S
Cd12 O20 2.381 . S
Cd12 O21 2.378 . S
O13 Cd14 2.385 . S
O13 C18 1.255 . S
Cd14 O13 2.385 . S
Cd14 O15 2.317 . S
O15 Cd14 2.317 . S
O15 C16 1.232 . S
C16 O15 1.232 . S
C16 O17 1.218 . S
O17 C16 1.218 . S
C18 O11 1.275 . S
C18 O13 1.255 . S
C19 O20 1.258 . S
C19 O21 1.256 . S
O20 Cd12 2.381 . S
O20 C19 1.258 . S
O21 Cd12 2.378 . S
O21 C19 1.256 . S
O22 Cd23 2.300 . S
O22 C29 1.275 . S
Cd23 O22 2.300 . S
Cd23 O31 2.381 . S
Cd23 O32 2.378 . S
O24 Cd25 2.385 . S
O24 C29 1.255 . S
Cd25 O24 2.385 . S
Cd25 O26 2.317 . S
O26 Cd25 2.317 . S
O26 C27 1.232 . S
C27 O26 1.232 . S
C27 O28 1.218 . S
O28 C27 1.218 . S
C29 O22 1.275 . S
C29 O24 1.255 . S
C30 O31 1.258 . S
C30 O32 1.256 . S
O31 Cd23 2.381 . S
O31 C30 1.258 . S
O32 Cd23 2.378 . S
O32 C30 1.256 . S
O33 Cd34 2.300 . S
O33 C40 1.275 . S
Cd34 O33 2.300 . S
Cd34 O42 2.381 . S
Cd34 O43 2.378 . S
O35 Cd36 2.385 . S
O35 C40 1.255 . S
Cd36 O35 2.385 . S
Cd36 O37 2.317 . S
O37 Cd36 2.317 . S
O37 C38 1.232 . S
C38 O37 1.232 . S
C38 O39 1.218 . S
O39 C38 1.218 . S
C40 O33 1.275 . S
C40 O35 1.255 . S
C41 O42 1.258 . S
C41 O43 1.256 . S
O42 Cd34 2.381 . S
O42 C41 1.258 . S
O43 Cd34 2.378 . S
O43 C41 1.256 . S
O44 Cd45 2.300 . S
O44 C51 1.275 . S
Cd45 O44 2.300 . S
Cd45 O53 2.381 . S
Cd45 O54 2.378 . S
O46 Cd47 2.385 . S
O46 C51 1.255 . S
Cd47 O46 2.385 . S
Cd47 O48 2.317 . S
O48 Cd47 2.317 . S
O48 C49 1.232 . S
C49 O48 1.232 . S
C49 O50 1.218 . S
O50 C49 1.218 . S
C51 O44 1.275 . S
C51 O46 1.255 . S
C52 O53 1.258 . S
C52 O54 1.256 . S
O53 Cd45 2.381 . S
O53 C52 1.258 . S
O54 Cd45 2.378 . S
O54 C52 1.256 . S
O55 Cd56 2.300 . S
O55 C62 1.275 . S
Cd56 O55 2.300 . S
Cd56 O64 2.381 . S
Cd56 O65 2.378 . S
O57 Cd58 2.385 . S
O57 C62 1.255 . S
Cd58 O57 2.385 . S
Cd58 O59 2.317 . S
O59 Cd58 2.317 . S
O59 C60 1.232 . S
C60 O59 1.232 . S
C60 O61 1.218 . S
O61 C60 1.218 . S
C62 O55 1.275 . S
C62 O57 1.255 . S
C63 O64 1.258 . S
C63 O65 1.256 . S
O64 Cd56 2.381 . S
O64 C63 1.258 . S
O65 Cd56 2.378 . S
O65 C63 1.256 . S
O66 Cd67 2.300 . S
O66 C73 1.275 . S
Cd67 O66 2.300 . S
Cd67 O75 2.381 . S
Cd67 O76 2.378 . S
O68 Cd69 2.385 . S
O68 C73 1.255 . S
Cd69 O68 2.385 . S
Cd69 O70 2.317 . S
O70 Cd69 2.317 . S
O70 C71 1.232 . S
C71 O70 1.232 . S
C71 O72 1.218 . S
O72 C71 1.218 . S
C73 O66 1.275 . S
C73 O68 1.255 . S
C74 O75 1.258 . S
C74 O76 1.256 . S
O75 Cd67 2.381 . S
O75 C74 1.258 . S
O76 Cd67 2.378 . S
O76 C74 1.256 . S
O77 Cd78 2.300 . S
O77 C84 1.275 . S
Cd78 O77 2.300 . S
Cd78 O86 2.381 . S
Cd78 O87 2.378 . S
O79 Cd80 2.385 . S
O79 C84 1.255 . S
Cd80 O79 2.385 . S
Cd80 O81 2.317 . S
O81 Cd80 2.317 . S
O81 C82 1.232 . S
C82 O81 1.232 . S
C82 O83 1.218 . S
O83 C82 1.218 . S
C84 O77 1.275 . S
C84 O79 1.255 . S
C85 O86 1.258 . S
C85 O87 1.256 . S
O86 Cd78 2.381 . S
O86 C85 1.258 . S
O87 Cd78 2.378 . S
O87 C85 1.256 . S
O88 Cd89 2.300 . S
O88 C95 1.275 . S
Cd89 O88 2.300 . S
Cd89 O97 2.381 . S
Cd89 O98 2.378 . S
O90 Cd91 2.385 . S
O90 C95 1.255 . S
Cd91 O90 2.385 . S
Cd91 O92 2.317 . S
O92 Cd91 2.317 . S
O92 C93 1.232 . S
C93 O92 1.232 . S
C93 O94 1.218 . S
O94 C93 1.218 . S
C95 O88 1.275 . S
C95 O90 1.255 . S
C96 O97 1.258 . S
C96 O98 1.256 . S
O97 Cd89 2.381 . S
O97 C96 1.258 . S
O98 Cd89 2.378 . S
O98 C96 1.256 . S
O99 Cd100 2.300 . S
O99 C106 1.275 . S
Cd100 O99 2.300 . S
Cd100 O108 2.381 . S
Cd100 O109 2.378 . S
O101 Cd102 2.385 . S
O101 C106 1.255 . S
Cd102 O101 2.385 . S
Cd102 O103 2.317 . S
O103 Cd102 2.317 . S
O103 C104 1.232 . S
C104 O103 1.232 . S
C104 O105 1.218 . S
O105 C104 1.218 . S
C106 O99 1.275 . S
C106 O101 1.255 . S
C107 O108 1.258 . S
C107 O109 1.256 . S
O108 Cd100 2.381 . S
O108 C107 1.258 . S
O109 Cd100 2.378 . S
O109 C107 1.256 . S
O110 Cd111 2.300 . S
O110 C117 1.275 . S
Cd111 O110 2.300 . S
Cd111 O119 2.381 . S
Cd111 O120 2.378 . S
O112 Cd113 2.385 . S
O112 C117 1.255 . S
Cd113 O112 2.385 . S
Cd113 O114 2.317 . S
O114 Cd113 2.317 . S
O114 C115 1.232 . S
C115 O114 1.232 . S
C115 O116 1.218 . S
O116 C115 1.218 . S
C117 O110 1.275 . S
C117 O112 1.255 . S
C118 O119 1.258 . S
C118 O120 1.256 . S
O119 Cd111 2.381 . S
O119 C118 1.258 . S
O120 Cd111 2.378 . S
O120 C118 1.256 . S
O121 Cd122 2.300 . S
O121 C128 1.275 . S
Cd122 O121 2.300 . S
Cd122 O130 2.381 . S
Cd122 O131 2.378 . S
O123 Cd124 2.385 . S
O123 C128 1.255 . S
Cd124 O123 2.385 . S
Cd124 O125 2.317 . S
O125 Cd124 2.317 . S
O125 C126 1.232 . S
C126 O125 1.232 . S
C126 O127 1.218 . S
O127 C126 1.218 . S
C128 O121 1.275 . S
C128 O123 1.255 . S
C129 O130 1.258 . S
C129 O131 1.256 . S
O130 Cd122 2.381 . S
O130 C129 1.258 . S
O131 Cd122 2.378 . S
O131 C129 1.256 . S
O132 Cd133 2.300 . S
O132 C139 1.275 . S
Cd133 O132 2.300 . S
Cd133 O141 2.381 . S
Cd133 O142 2.378 . S
O134 Cd135 2.385 . S
O134 C139 1.255 . S
Cd135 O134 2.385 . S
Cd135 O136 2.317 . S
O136 Cd135 2.317 . S
O136 C137 1.232 . S
C137 O136 1.232 . S
C137 O138 1.218 . S
O138 C137 1.218 . S
C139 O132 1.275 . S
C139 O134 1.255 . S
C140 O141 1.258 . S
C140 O142 1.256 . S
O141 Cd133 2.381 . S
O141 C140 1.258 . S
O142 Cd133 2.378 . S
O142 C140 1.256 . S
O143 Cd144 2.300 . S
O143 C150 1.275 . S
Cd144 O143 2.300 . S
Cd144 O152 2.381 . S
Cd144 O153 2.378 . S
O145 Cd146 2.385 . S
O145 C150 1.255 . S
Cd146 O145 2.385 . S
Cd146 O147 2.317 . S
O147 Cd146 2.317 . S
O147 C148 1.232 . S
C148 O147 1.232 . S
C148 O149 1.218 . S
O149 C148 1.218 . S
C150 O143 1.275 . S
C150 O145 1.255 . S
C151 O152 1.258 . S
C151 O153 1.256 . S
O152 Cd144 2.381 . S
O152 C151 1.258 . S
O153 Cd144 2.378 . S
O153 C151 1.256 . S
O154 Cd155 2.300 . S
O154 C161 1.275 . S
Cd155 O154 2.300 . S
Cd155 O163 2.381 . S
Cd155 O164 2.378 . S
O156 Cd157 2.385 . S
O156 C161 1.255 . S
Cd157 O156 2.385 . S
Cd157 O158 2.317 . S
O158 Cd157 2.317 . S
O158 C159 1.232 . S
C159 O158 1.232 . S
C159 O160 1.218 . S
O160 C159 1.218 . S
C161 O154 1.275 . S
C161 O156 1.255 . S
C162 O163 1.258 . S
C162 O164 1.256 . S
O163 Cd155 2.381 . S
O163 C162 1.258 . S
O164 Cd155 2.378 . S
O164 C162 1.256 . S
O165 Cd166 2.300 . S
O165 C172 1.275 . S
Cd166 O165 2.300 . S
Cd166 O174 2.381 . S
Cd166 O175 2.378 . S
O167 Cd168 2.385 . S
O167 C172 1.255 . S
Cd168 O167 2.385 . S
Cd168 O169 2.317 . S
O169 Cd168 2.317 . S
O169 C170 1.232 . S
C170 O169 1.232 . S
C170 O171 1.218 . S
O171 C170 1.218 . S
C172 O165 1.275 . S
C172 O167 1.255 . S
C173 O174 1.258 . S
C173 O175 1.256 . S
O174 Cd166 2.381 . S
O174 C173 1.258 . S
O175 Cd166 2.378 . S
O175 C173 1.256 . S
O176 Cd177 2.300 . S
O176 C183 1.275 . S
Cd177 O176 2.300 . S
Cd177 O185 2.381 . S
Cd177 O186 2.378 . S
O178 Cd179 2.385 . S
O178 C183 1.255 . S
Cd179 O178 2.385 . S
Cd179 O180 2.317 . S
O180 Cd179 2.317 . S
O180 C181 1.232 . S
C181 O180 1.232 . S
C181 O182 1.218 . S
O182 C181 1.218 . S
C183 O176 1.275 . S
C183 O178 1.255 . S
C184 O185 1.258 . S
C184 O186 1.256 . S
O185 Cd177 2.381 . S
O185 C184 1.258 . S
O186 Cd177 2.378 . S
O186 C184 1.256 . S
O187 Cd188 2.300 . S
O187 C194 1.275 . S
Cd188 O187 2.300 . S
Cd188 O196 2.381 . S
Cd188 O197 2.378 . S
O189 Cd190 2.385 . S
O189 C194 1.255 . S
Cd190 O189 2.385 . S
Cd190 O191 2.317 . S
O191 Cd190 2.317 . S
O191 C192 1.232 . S
C192 O191 1.232 . S
C192 O193 1.218 . S
O193 C192 1.218 . S
C194 O187 1.275 . S
C194 O189 1.255 . S
C195 O196 1.258 . S
C195 O197 1.256 . S
O196 Cd188 2.381 . S
O196 C195 1.258 . S
O197 Cd188 2.378 . S
O197 C195 1.256 . S
O198 Cd199 2.300 . S
O198 C205 1.275 . S
Cd199 O198 2.300 . S
Cd199 O207 2.381 . S
Cd199 O208 2.378 . S
O200 Cd201 2.385 . S
O200 C205 1.255 . S
Cd201 O200 2.385 . S
Cd201 O202 2.317 . S
O202 Cd201 2.317 . S
O202 C203 1.232 . S
C203 O202 1.232 . S
C203 O204 1.218 . S
O204 C203 1.218 . S
C205 O198 1.275 . S
C205 O200 1.255 . S
C206 O207 1.258 . S
C206 O208 1.256 . S
O207 Cd199 2.381 . S
O207 C206 1.258 . S
O208 Cd199 2.378 . S
O208 C206 1.256 . S
O209 Cd210 2.300 . S
O209 C216 1.275 . S
Cd210 O209 2.300 . S
Cd210 O218 2.381 . S
Cd210 O219 2.378 . S
O211 Cd212 2.385 . S
O211 C216 1.255 . S
Cd212 O211 2.385 . S
Cd212 O213 2.317 . S
O213 Cd212 2.317 . S
O213 C214 1.232 . S
C214 O213 1.232 . S
C214 O215 1.218 . S
O215 C214 1.218 . S
C216 O209 1.275 . S
C216 O211 1.255 . S
C217 O218 1.258 . S
C217 O219 1.256 . S
O218 Cd210 2.381 . S
O218 C217 1.258 . S
O219 Cd210 2.378 . S
O219 C217 1.256 . S
O220 Cd221 2.300 . S
O220 C227 1.275 . S
Cd221 O220 2.300 . S
Cd221 O229 2.381 . S
Cd221 O230 2.378 . S
O222 Cd223 2.385 . S
O222 C227 1.255 . S
Cd223 O222 2.385 . S
Cd223 O224 2.317 . S
O224 Cd223 2.317 . S
O224 C225 1.232 . S
C225 O224 1.232 . S
C225 O226 1.218 . S
O226 C225 1.218 . S
C227 O220 1.275 . S
C227 O222 1.255 . S
C228 O229 1.258 . S
C228 O230 1.256 . S
O229 Cd221 2.381 . S
O229 C228 1.258 . S
O230 Cd221 2.378 . S
O230 C228 1.256 . S
O231 Cd232 2.300 . S
O231 C238 1.275 . S
Cd232 O231 2.300 . S
Cd232 O240 2.381 . S
Cd232 O241 2.378 . S
O233 Cd234 2.385 . S
O233 C238 1.255 . S
Cd234 O233 2.385 . S
Cd234 O235 2.317 . S
O235 Cd234 2.317 . S
O235 C236 1.232 . S
C236 O235 1.232 . S
C236 O237 1.218 . S
O237 C236 1.218 . S
C238 O231 1.275 . S
C238 O233 1.255 . S
C239 O240 1.258 . S
C239 O241 1.256 . S
O240 Cd232 2.381 . S
O240 C239 1.258 . S
O241 Cd232 2.378 . S
O241 C239 1.256 . S
O242 Cd243 2.300 . S
O242 C249 1.275 . S
Cd243 O242 2.300 . S
Cd243 O251 2.381 . S
Cd243 O252 2.378 . S
O244 Cd245 2.385 . S
O244 C249 1.255 . S
Cd245 O244 2.385 . S
Cd245 O246 2.317 . S
O246 Cd245 2.317 . S
O246 C247 1.232 . S
C247 O246 1.232 . S
C247 O248 1.218 . S
O248 C247 1.218 . S
C249 O242 1.275 . S
C249 O244 1.255 . S
C250 O251 1.258 . S
C250 O252 1.256 . S
O251 Cd243 2.381 . S
O251 C250 1.258 . S
O252 Cd243 2.378 . S
O252 C250 1.256 . S
O253 Cd254 2.300 . S
O253 C260 1.275 . S
Cd254 O253 2.300 . S
Cd254 O262 2.381 . S
Cd254 O263 2.378 . S
O255 Cd256 2.385 . S
O255 C260 1.255 . S
Cd256 O255 2.385 . S
Cd256 O257 2.317 . S
O257 Cd256 2.317 . S
O257 C258 1.232 . S
C258 O257 1.232 . S
C258 O259 1.218 . S
O259 C258 1.218 . S
C260 O253 1.275 . S
C260 O255 1.255 . S
C261 O262 1.258 . S
C261 O263 1.256 . S
O262 Cd254 2.381 . S
O262 C261 1.258 . S
O263 Cd254 2.378 . S
O263 C261 1.256 . S
O264 Cd265 2.300 . S
O264 C271 1.275 . S
Cd265 O264 2.300 . S
Cd265 O273 2.381 . S
Cd265 O274 2.378 . S
O266 Cd267 2.385 . S
O266 C271 1.255 . S
Cd267 O266 2.385 . S
Cd267 O268 2.317 . S
O268 Cd267 2.317 . S
O268 C269 1.232 . S
C269 O268 1.232 . S
C269 O270 1.218 . S
O270 C269 1.218 . S
C271 O264 1.275 . S
C271 O266 1.255 . S
C272 O273 1.258 . S
C272 O274 1.256 . S
O273 Cd265 2.381 . S
O273 C272 1.258 . S
O274 Cd265 2.378 . S
O274 C272 1.256 . S
O275 Cd276 2.300 . S
O275 C282 1.275 . S
Cd276 O275 2.300 . S
Cd276 O284 2.381 . S
Cd276 O285 2.378 . S
O277 Cd278 2.385 . S
O277 C282 1.255 . S
Cd278 O277 2.385 . S
Cd278 O279 2.317 . S
O279 Cd278 2.317 . S
O279 C280 1.232 . S
C280 O279 1.232 . S
C280 O281 1.218 . S
O281 C280 1.218 . S
C282 O275 1.275 . S
C282 O277 1.255 . S
C283 O284 1.258 . S
C283 O285 1.256 . S
O284 Cd276 2.381 . S
O284 C283 1.258 . S
O285 Cd276 2.378 . S
O285 C283 1.256 . S
O286 Cd287 2.300 . S
O286 C293 1.275 . S
Cd287 O286 2.300 . S
Cd287 O295 2.381 . S
Cd287 O296 2.378 . S
O288 Cd289 2.385 . S
O288 C293 1.255 . S
Cd289 O288 2.385 . S
Cd289 O290 2.317 . S
O290 Cd289 2.317 . S
O290 C291 1.232 . S
C291 O290 1.232 . S
C291 O292 1.218 . S
O292 C291 1.218 . S
C293 O286 1.275 . S
C293 O288 1.255 . S
C294 O295 1.258 . S
C294 O296 1.256 . S
O295 Cd287 2.381 . S
O295 C294 1.258 . S
O296 Cd287 2.378 . S
O296 C294 1.256 . S
O297 Cd298 2.300 . S
O297 C304 1.275 . S
Cd298 O297 2.300 . S
Cd298 O306 2.381 . S
Cd298 O307 2.378 . S
O299 Cd300 2.385 . S
O299 C304 1.255 . S
Cd300 O299 2.385 . S
Cd300 O301 2.317 . S
O301 Cd300 2.317 . S
O301 C302 1.232 . S
C302 O301 1.232 . S
C302 O303 1.218 . S
O303 C302 1.218 . S
C304 O297 1.275 . S
C304 O299 1.255 . S
C305 O306 1.258 . S
C305 O307 1.256 . S
O306 Cd298 2.381 . S
O306 C305 1.258 . S
O307 Cd298 2.378 . S
O307 C305 1.256 . S
O308 Cd309 2.300 . S
O308 C315 1.275 . S
Cd309 O308 2.300 . S
Cd309 O317 2.381 . S
Cd309 O318 2.378 . S
O310 Cd311 2.385 . S
O310 C315 1.255 . S
Cd311 O310 2.385 . S
Cd311 O312 2.317 . S
O312 Cd311 2.317 . S
O312 C313 1.232 . S
C313 O312 1.232 . S
C313 O314 1.218 . S
O314 C313 1.218 . S
C315 O308 1.275 . S
C315 O310 1.255 . S
C316 O317 1.258 . S
C316 O318 1.256 . S
O317 Cd309 2.381 . S
O317 C316 1.258 . S
O318 Cd309 2.378 . S
O318 C316 1.256 . S
O319 Cd320 2.300 . S
O319 C326 1.275 . S
Cd320 O319 2.300 . S
Cd320 O328 2.381 . S
Cd320 O329 2.378 . S
O321 Cd322 2.385 . S
O321 C326 1.255 . S
Cd322 O321 2.385 . S
Cd322 O323 2.317 . S
O323 Cd322 2.317 . S
O323 C324 1.232 . S
C324 O323 1.232 . S
C324 O325 1.218 . S
O325 C324 1.218 . S
C326 O319 1.275 . S
C326 O321 1.255 . S
C327 O328 1.258 . S
C327 O329 1.256 . S
O328 Cd320 2.381 . S
O328 C327 1.258 . S
O329 Cd320 2.378 . S
O329 C327 1.256 . S
O330 Cd331 2.300 . S
O330 C337 1.275 . S
Cd331 O330 2.300 . S
Cd331 O339 2.381 . S
Cd331 O340 2.378 . S
O332 Cd333 2.385 . S
O332 C337 1.255 . S
Cd333 O332 2.385 . S
Cd333 O334 2.317 . S
O334 Cd333 2.317 . S
O334 C335 1.232 . S
C335 O334 1.232 . S
C335 O336 1.218 . S
O336 C335 1.218 . S
C337 O330 1.275 . S
C337 O332 1.255 . S
C338 O339 1.258 . S
C338 O340 1.256 . S
O339 Cd331 2.381 . S
O339 C338 1.258 . S
O340 Cd331 2.378 . S
O340 C338 1.256 . S
O341 Cd342 2.300 . S
O341 C348 1.275 . S
Cd342 O341 2.300 . S
Cd342 O350 2.381 . S
Cd342 O351 2.378 . S
O343 Cd344 2.385 . S
O343 C348 1.255 . S
Cd344 O343 2.385 . S
Cd344 O345 2.317 . S
O345 Cd344 2.317 . S
O345 C346 1.232 . S
C346 O345 1.232 . S
C346 O347 1.218 . S
O347 C346 1.218 . S
C348 O341 1.275 . S
C348 O343 1.255 . S
C349 O350 1.258 . S
C349 O351 1.256 . S
O350 Cd342 2.381 . S
O350 C349 1.258 . S
O351 Cd342 2.378 . S
O351 C349 1.256 . S
H352 C371 0.950 1_554 S
H353 C372 0.950 . S
H354 C374 0.950 . S
H355 C375 0.950 . S
H356 C377 0.950 . S
H357 C380 0.950 . S
H358 C381 0.950 . S
H359 C383 0.951 . S
H360 C384 0.949 . S
H361 C386 0.949 . S
H362 C387 0.950 . S
H363 C389 0.950 . S
H364 C390 0.950 . S
H365 C392 0.950 . S
H366 C395 0.950 . S
H367 C396 0.950 . S
H368 C398 0.951 . S
H369 C399 0.949 . S
C370 C371 1.376 1_554 S
C370 C375 1.386 1_554 S
C370 C376 1.483 . S
C371 H352 0.950 1_556 S
C371 C370 1.376 1_556 S
C371 C372 1.395 . S
C372 H353 0.950 . S
C372 C371 1.395 . S
C372 C373 1.391 . S
C373 C372 1.391 . S
C373 C374 1.405 . S
C374 H354 0.950 . S
C374 C373 1.405 . S
C374 C375 1.367 . S
C375 H355 0.950 . S
C375 C370 1.386 1_556 S
C375 C374 1.367 . S
C376 C370 1.483 . S
C376 C377 1.382 . S
C376 C378 1.403 . S
C377 H356 0.950 . S
C377 C376 1.382 . S
C377 C393 1.411 . S
C378 C376 1.403 . S
C378 C379 1.489 . S
C378 C392 1.411 . S
C379 C378 1.489 . S
C379 C380 1.383 1_554 S
C379 C384 1.382 . S
C380 H357 0.950 . S
C380 C379 1.383 1_556 S
C380 C381 1.395 . S
C381 H358 0.950 . S
C381 C380 1.395 . S
C381 C382 1.288 . S
C382 C381 1.288 . S
C382 C383 1.392 . S
C383 H359 0.951 . S
C383 C382 1.392 . S
C383 C384 1.392 1_556 S
C384 H360 0.949 . S
C384 C379 1.382 . S
C384 C383 1.392 1_554 S
C385 C386 1.376 . S
C385 C390 1.386 . S
C385 C391 1.483 . S
C386 H361 0.949 . S
C386 C385 1.376 . S
C386 C387 1.397 . S
C387 H362 0.950 . S
C387 C386 1.397 . S
C387 C388 1.391 . S
C388 C387 1.391 . S
C388 C389 1.405 . S
C389 H363 0.950 . S
C389 C388 1.405 . S
C389 C390 1.367 . S
C390 H364 0.950 . S
C390 C385 1.386 . S
C390 C389 1.367 . S
C391 C385 1.483 . S
C391 C392 1.382 . S
C391 C393 1.403 . S
C392 H365 0.950 . S
C392 C378 1.411 . S
C392 C391 1.382 . S
C393 C377 1.411 . S
C393 C391 1.403 . S
C393 C394 1.489 . S
C394 C393 1.489 . S
C394 C395 1.383 . S
C394 C399 1.382 . S
C395 H366 0.950 . S
C395 C394 1.383 . S
C395 C396 1.395 . S
C396 H367 0.950 . S
C396 C395 1.395 . S
C396 C397 1.288 . S
C397 C396 1.288 . S
C397 C398 1.392 . S
C398 H368 0.951 . S
C398 C397 1.392 . S
C398 C399 1.392 . S
C399 H369 0.949 . S
C399 C394 1.382 . S
C399 C398 1.392 . S
H400 C419 0.949 . S
H401 C420 0.950 . S
H402 C422 0.950 . S
H403 C423 0.950 . S
H404 C425 0.950 . S
H405 C428 0.950 . S
H406 C429 0.950 . S
H407 C431 0.951 . S
H408 C432 0.949 . S
H409 C434 0.949 . S
H410 C435 0.950 . S
H411 C437 0.950 . S
H412 C438 0.950 . S
H413 C440 0.950 . S
H414 C443 0.950 . S
H415 C444 0.950 . S
H416 C446 0.951 . S
H417 C447 0.949 . S
C418 C419 1.376 . S
C418 C423 1.386 . S
C418 C424 1.483 . S
C419 H400 0.949 . S
C419 C418 1.376 . S
C419 C420 1.397 . S
C420 H401 0.950 . S
C420 C419 1.397 . S
C420 C421 1.391 . S
C421 C420 1.391 . S
C421 C422 1.405 . S
C422 H402 0.950 . S
C422 C421 1.405 . S
C422 C423 1.367 . S
C423 H403 0.950 . S
C423 C418 1.386 . S
C423 C422 1.367 . S
C424 C418 1.483 . S
C424 C425 1.382 . S
C424 C426 1.403 . S
C425 H404 0.950 . S
C425 C424 1.382 . S
C425 C441 1.411 1_556 S
C426 C424 1.403 . S
C426 C427 1.489 . S
C426 C440 1.411 1_556 S
C427 C426 1.489 . S
C427 C428 1.383 . S
C427 C432 1.382 . S
C428 H405 0.950 . S
C428 C427 1.383 . S
C428 C429 1.395 . S
C429 H406 0.950 . S
C429 C428 1.395 . S
C429 C430 1.288 . S
C430 C429 1.288 . S
C430 C431 1.392 . S
C431 H407 0.951 . S
C431 C430 1.392 . S
C431 C432 1.392 . S
C432 H408 0.949 . S
C432 C427 1.382 . S
C432 C431 1.392 . S
C433 C434 1.376 . S
C433 C438 1.386 . S
C433 C439 1.483 . S
C434 H409 0.949 . S
C434 C433 1.376 . S
C434 C435 1.397 . S
C435 H410 0.950 . S
C435 C434 1.397 . S
C435 C436 1.391 . S
C436 C435 1.391 . S
C436 C437 1.405 . S
C437 H411 0.950 . S
C437 C436 1.405 . S
C437 C438 1.367 . S
C438 H412 0.950 . S
C438 C433 1.386 . S
C438 C437 1.367 . S
C439 C433 1.483 . S
C439 C440 1.382 . S
C439 C441 1.403 . S
C440 H413 0.950 . S
C440 C426 1.411 1_554 S
C440 C439 1.382 . S
C441 C425 1.411 1_554 S
C441 C439 1.403 . S
C441 C442 1.489 . S
C442 C441 1.489 . S
C442 C443 1.383 . S
C442 C447 1.382 . S
C443 H414 0.950 . S
C443 C442 1.383 . S
C443 C444 1.395 . S
C444 H415 0.950 . S
C444 C443 1.395 . S
C444 C445 1.288 . S
C445 C444 1.288 . S
C445 C446 1.392 . S
C446 H416 0.951 . S
C446 C445 1.392 . S
C446 C447 1.392 . S
C447 H417 0.949 . S
C447 C442 1.382 . S
C447 C446 1.392 . S
H448 C467 0.949 . S
H449 C468 0.950 . S
H450 C470 0.950 . S
H451 C471 0.950 . S
H452 C473 0.950 . S
H453 C476 0.950 . S
H454 C477 0.950 . S
H455 C479 0.951 . S
H456 C480 0.949 . S
H457 C482 0.949 1_554 S
H458 C483 0.950 . S
H459 C485 0.950 . S
H460 C486 0.950 . S
H461 C488 0.950 . S
H462 C491 0.950 . S
H463 C492 0.950 . S
H464 C494 0.951 . S
H465 C495 0.949 . S
C466 C467 1.376 . S
C466 C471 1.386 . S
C466 C472 1.483 . S
C467 H448 0.949 . S
C467 C466 1.376 . S
C467 C468 1.397 . S
C468 H449 0.950 . S
C468 C467 1.397 . S
C468 C469 1.391 . S
C469 C468 1.391 . S
C469 C470 1.405 . S
C470 H450 0.950 . S
C470 C469 1.405 . S
C470 C471 1.367 . S
C471 H451 0.950 . S
C471 C466 1.386 . S
C471 C470 1.367 . S
C472 C466 1.483 . S
C472 C473 1.382 . S
C472 C474 1.403 . S
C473 H452 0.950 . S
C473 C472 1.382 . S
C473 C489 1.411 . S
C474 C472 1.403 . S
C474 C475 1.489 . S
C474 C488 1.411 . S
C475 C474 1.489 . S
C475 C476 1.383 . S
C475 C480 1.382 . S
C476 H453 0.950 . S
C476 C475 1.383 . S
C476 C477 1.395 . S
C477 H454 0.950 . S
C477 C476 1.395 . S
C477 C478 1.288 . S
C478 C477 1.288 . S
C478 C479 1.392 . S
C479 H455 0.951 . S
C479 C478 1.392 . S
C479 C480 1.392 . S
C480 H456 0.949 . S
C480 C475 1.382 . S
C480 C479 1.392 . S
C481 C482 1.376 1_554 S
C481 C486 1.386 1_554 S
C481 C487 1.483 . S
C482 H457 0.949 1_556 S
C482 C481 1.376 1_556 S
C482 C483 1.397 . S
C483 H458 0.950 . S
C483 C482 1.397 . S
C483 C484 1.391 . S
C484 C483 1.391 . S
C484 C485 1.405 . S
C485 H459 0.950 . S
C485 C484 1.405 . S
C485 C486 1.367 . S
C486 H460 0.950 . S
C486 C481 1.386 1_556 S
C486 C485 1.367 . S
C487 C481 1.483 . S
C487 C488 1.382 . S
C487 C489 1.403 . S
C488 H461 0.950 . S
C488 C474 1.411 . S
C488 C487 1.382 . S
C489 C473 1.411 . S
C489 C487 1.403 . S
C489 C490 1.489 . S
C490 C489 1.489 . S
C490 C491 1.383 1_554 S
C490 C495 1.382 . S
C491 H462 0.950 . S
C491 C490 1.383 1_556 S
C491 C492 1.395 . S
C492 H463 0.950 . S
C492 C491 1.395 . S
C492 C493 1.288 . S
C493 C492 1.288 . S
C493 C494 1.392 . S
C494 H464 0.951 . S
C494 C493 1.392 . S
C494 C495 1.392 1_556 S
C495 H465 0.949 . S
C495 C490 1.382 . S
C495 C494 1.392 1_554 S
H496 C515 0.949 . S
H497 C516 0.950 . S
H498 C518 0.950 . S
H499 C519 0.950 . S
H500 C521 0.950 . S
H501 C524 0.950 . S
H502 C525 0.950 . S
H503 C527 0.951 . S
H504 C528 0.949 . S
H505 C530 0.949 . S
H506 C531 0.950 . S
H507 C533 0.950 . S
H508 C534 0.950 . S
H509 C536 0.950 . S
H510 C539 0.950 . S
H511 C540 0.950 . S
H512 C542 0.951 . S
H513 C543 0.949 . S
C514 C515 1.376 . S
C514 C519 1.386 . S
C514 C520 1.483 . S
C515 H496 0.949 . S
C515 C514 1.376 . S
C515 C516 1.397 . S
C516 H497 0.950 . S
C516 C515 1.397 . S
C516 C517 1.391 . S
C517 C516 1.391 . S
C517 C518 1.405 . S
C518 H498 0.950 . S
C518 C517 1.405 . S
C518 C519 1.367 . S
C519 H499 0.950 . S
C519 C514 1.386 . S
C519 C518 1.367 . S
C520 C514 1.483 . S
C520 C521 1.382 . S
C520 C522 1.403 . S
C521 H500 0.950 . S
C521 C520 1.382 . S
C521 C537 1.411 1_556 S
C522 C520 1.403 . S
C522 C523 1.489 . S
C522 C536 1.411 1_556 S
C523 C522 1.489 . S
C523 C524 1.383 . S
C523 C528 1.382 . S
C524 H501 0.950 . S
C524 C523 1.383 . S
C524 C525 1.395 . S
C525 H502 0.950 . S
C525 C524 1.395 . S
C525 C526 1.288 . S
C526 C525 1.288 . S
C526 C527 1.392 . S
C527 H503 0.951 . S
C527 C526 1.392 . S
C527 C528 1.392 . S
C528 H504 0.949 . S
C528 C523 1.382 . S
C528 C527 1.392 . S
C529 C530 1.376 . S
C529 C534 1.386 . S
C529 C535 1.483 . S
C530 H505 0.949 . S
C530 C529 1.376 . S
C530 C531 1.397 . S
C531 H506 0.950 . S
C531 C530 1.397 . S
C531 C532 1.391 . S
C532 C531 1.391 . S
C532 C533 1.405 . S
C533 H507 0.950 . S
C533 C532 1.405 . S
C533 C534 1.367 . S
C534 H508 0.950 . S
C534 C529 1.386 . S
C534 C533 1.367 . S
C535 C529 1.483 . S
C535 C536 1.382 . S
C535 C537 1.403 . S
C536 H509 0.950 . S
C536 C522 1.411 1_554 S
C536 C535 1.382 . S
C537 C521 1.411 1_554 S
C537 C535 1.403 . S
C537 C538 1.489 . S
C538 C537 1.489 . S
C538 C539 1.383 . S
C538 C543 1.382 . S
C539 H510 0.950 . S
C539 C538 1.383 . S
C539 C540 1.395 . S
C540 H511 0.950 . S
C540 C539 1.395 . S
C540 C541 1.288 . S
C541 C540 1.288 . S
C541 C542 1.392 . S
C542 H512 0.951 . S
C542 C541 1.392 . S
C542 C543 1.392 . S
C543 H513 0.949 . S
C543 C538 1.382 . S
C543 C542 1.392 . S
H544 C563 0.949 . S
H545 C564 0.950 . S
H546 C566 0.950 . S
H547 C567 0.950 . S
H548 C569 0.950 . S
H549 C572 0.950 . S
H550 C573 0.950 . S
H551 C575 0.951 . S
H552 C576 0.949 . S
H553 C578 0.949 . S
H554 C579 0.950 . S
H555 C581 0.950 . S
H556 C582 0.950 . S
H557 C584 0.950 . S
H558 C587 0.950 . S
H559 C588 0.950 . S
H560 C590 0.951 . S
H561 C591 0.949 . S
C562 C563 1.376 . S
C562 C567 1.386 . S
C562 C568 1.483 . S
C563 H544 0.949 . S
C563 C562 1.376 . S
C563 C564 1.397 . S
C564 H545 0.950 . S
C564 C563 1.397 . S
C564 C565 1.391 . S
C565 C564 1.391 . S
C565 C566 1.405 . S
C566 H546 0.950 . S
C566 C565 1.405 . S
C566 C567 1.367 . S
C567 H547 0.950 . S
C567 C562 1.386 . S
C567 C566 1.367 . S
C568 C562 1.483 . S
C568 C569 1.382 . S
C568 C570 1.403 . S
C569 H548 0.950 . S
C569 C568 1.382 . S
C569 C585 1.411 1_455 S
C570 C568 1.403 . S
C570 C571 1.489 . S
C570 C584 1.411 . S
C571 C570 1.489 . S
C571 C572 1.383 . S
C571 C576 1.382 . S
C572 H549 0.950 . S
C572 C571 1.383 . S
C572 C573 1.395 . S
C573 H550 0.950 . S
C573 C572 1.395 . S
C573 C574 1.288 . S
C574 C573 1.288 . S
C574 C575 1.392 . S
C575 H551 0.951 . S
C575 C574 1.392 . S
C575 C576 1.392 . S
C576 H552 0.949 . S
C576 C571 1.382 . S
C576 C575 1.392 . S
C577 C578 1.376 . S
C577 C582 1.386 . S
C577 C583 1.483 . S
C578 H553 0.949 . S
C578 C577 1.376 . S
C578 C579 1.397 . S
C579 H554 0.950 . S
C579 C578 1.397 . S
C579 C580 1.391 . S
C580 C579 1.391 . S
C580 C581 1.405 . S
C581 H555 0.950 . S
C581 C580 1.405 . S
C581 C582 1.367 . S
C582 H556 0.950 . S
C582 C577 1.386 . S
C582 C581 1.367 . S
C583 C577 1.483 . S
C583 C584 1.382 1_655 S
C583 C585 1.403 . S
C584 H557 0.950 . S
C584 C570 1.411 . S
C584 C583 1.382 1_455 S
C585 C569 1.411 1_655 S
C585 C583 1.403 . S
C585 C586 1.489 . S
C586 C585 1.489 . S
C586 C587 1.383 . S
C586 C591 1.382 . S
C587 H558 0.950 . S
C587 C586 1.383 . S
C587 C588 1.395 . S
C588 H559 0.950 . S
C588 C587 1.395 . S
C588 C589 1.288 . S
C589 C588 1.288 . S
C589 C590 1.392 . S
C590 H560 0.951 . S
C590 C589 1.392 . S
C590 C591 1.392 . S
C591 H561 0.949 . S
C591 C586 1.382 . S
C591 C590 1.392 . S
H592 C611 0.949 . S
H593 C612 0.950 . S
H594 C614 0.950 . S
H595 C615 0.950 . S
H596 C617 0.950 . S
H597 C620 0.950 . S
H598 C621 0.950 . S
H599 C623 0.951 . S
H600 C624 0.949 . S
H601 C626 0.949 . S
H602 C627 0.950 . S
H603 C629 0.950 . S
H604 C630 0.950 . S
H605 C632 0.950 . S
H606 C635 0.950 . S
H607 C636 0.950 . S
H608 C638 0.951 . S
H609 C639 0.949 . S
C610 C611 1.376 . S
C610 C615 1.386 . S
C610 C616 1.483 . S
C611 H592 0.949 . S
C611 C610 1.376 . S
C611 C612 1.397 . S
C612 H593 0.950 . S
C612 C611 1.397 . S
C612 C613 1.391 . S
C613 C612 1.391 . S
C613 C614 1.405 . S
C614 H594 0.950 . S
C614 C613 1.405 . S
C614 C615 1.367 . S
C615 H595 0.950 . S
C615 C610 1.386 . S
C615 C614 1.367 . S
C616 C610 1.483 . S
C616 C617 1.382 . S
C616 C618 1.403 . S
C617 H596 0.950 . S
C617 C616 1.382 . S
C617 C633 1.411 1_545 S
C618 C616 1.403 . S
C618 C619 1.489 . S
C618 C632 1.411 . S
C619 C618 1.489 . S
C619 C620 1.383 . S
C619 C624 1.382 . S
C620 H597 0.950 . S
C620 C619 1.383 . S
C620 C621 1.395 . S
C621 H598 0.950 . S
C621 C620 1.395 . S
C621 C622 1.288 . S
C622 C621 1.288 . S
C622 C623 1.392 . S
C623 H599 0.951 . S
C623 C622 1.392 . S
C623 C624 1.392 . S
C624 H600 0.949 . S
C624 C619 1.382 . S
C624 C623 1.392 . S
C625 C626 1.376 . S
C625 C630 1.386 . S
C625 C631 1.483 . S
C626 H601 0.949 . S
C626 C625 1.376 . S
C626 C627 1.397 . S
C627 H602 0.950 . S
C627 C626 1.397 . S
C627 C628 1.391 . S
C628 C627 1.391 . S
C628 C629 1.405 . S
C629 H603 0.950 . S
C629 C628 1.405 . S
C629 C630 1.367 . S
C630 H604 0.950 . S
C630 C625 1.386 . S
C630 C629 1.367 . S
C631 C625 1.483 . S
C631 C632 1.382 1_565 S
C631 C633 1.403 . S
C632 H605 0.950 . S
C632 C618 1.411 . S
C632 C631 1.382 1_545 S
C633 C617 1.411 1_565 S
C633 C631 1.403 . S
C633 C634 1.489 . S
C634 C633 1.489 . S
C634 C635 1.383 . S
C634 C639 1.382 . S
C635 H606 0.950 . S
C635 C634 1.383 . S
C635 C636 1.395 . S
C636 H607 0.950 . S
C636 C635 1.395 . S
C636 C637 1.288 . S
C637 C636 1.288 . S
C637 C638 1.392 . S
C638 H608 0.951 . S
C638 C637 1.392 . S
C638 C639 1.392 . S
C639 H609 0.949 . S
C639 C634 1.382 . S
C639 C638 1.392 . S
H640 C659 0.949 . S
H641 C660 0.950 . S
H642 C662 0.950 . S
H643 C663 0.950 . S
H644 C665 0.950 . S
H645 C668 0.950 . S
H646 C669 0.950 . S
H647 C671 0.951 . S
H648 C672 0.949 . S
H649 C674 0.949 . S
H650 C675 0.950 . S
H651 C677 0.950 1_655 S
H652 C678 0.950 . S
H653 C680 0.950 . S
H654 C683 0.950 . S
H655 C684 0.950 . S
H656 C686 0.951 . S
H657 C687 0.949 . S
C658 C659 1.376 . S
C658 C663 1.386 . S
C658 C664 1.483 . S
C659 H640 0.949 . S
C659 C658 1.376 . S
C659 C660 1.397 . S
C660 H641 0.950 . S
C660 C659 1.397 . S
C660 C661 1.391 . S
C661 C660 1.391 . S
C661 C662 1.405 . S
C662 H642 0.950 . S
C662 C661 1.405 . S
C662 C663 1.367 . S
C663 H643 0.950 . S
C663 C658 1.386 . S
C663 C662 1.367 . S
C664 C658 1.483 . S
C664 C665 1.382 . S
C664 C666 1.403 . S
C665 H644 0.950 . S
C665 C664 1.382 . S
C665 C681 1.411 . S
C666 C664 1.403 . S
C666 C667 1.489 . S
C666 C680 1.411 . S
C667 C666 1.489 . S
C667 C668 1.383 . S
C667 C672 1.382 . S
C668 H645 0.950 . S
C668 C667 1.383 . S
C668 C669 1.395 . S
C669 H646 0.950 . S
C669 C668 1.395 . S
C669 C670 1.288 . S
C670 C669 1.288 . S
C670 C671 1.392 . S
C671 H647 0.951 . S
C671 C670 1.392 . S
C671 C672 1.392 . S
C672 H648 0.949 . S
C672 C667 1.382 . S
C672 C671 1.392 . S
C673 C674 1.376 . S
C673 C678 1.386 . S
C673 C679 1.483 . S
C674 H649 0.949 . S
C674 C673 1.376 . S
C674 C675 1.397 . S
C675 H650 0.950 . S
C675 C674 1.397 . S
C675 C676 1.391 . S
C676 C675 1.391 . S
C676 C677 1.405 . S
C677 H651 0.950 1_455 S
C677 C676 1.405 . S
C677 C678 1.367 . S
C678 H652 0.950 . S
C678 C673 1.386 . S
C678 C677 1.367 . S
C679 C673 1.483 . S
C679 C680 1.382 . S
C679 C681 1.403 . S
C680 H653 0.950 . S
C680 C666 1.411 . S
C680 C679 1.382 . S
C681 C665 1.411 . S
C681 C679 1.403 . S
C681 C682 1.489 . S
C682 C681 1.489 . S
C682 C683 1.383 . S
C682 C687 1.382 . S
C683 H654 0.950 . S
C683 C682 1.383 . S
C683 C684 1.395 1_455 S
C684 H655 0.950 . S
C684 C683 1.395 1_655 S
C684 C685 1.288 . S
C685 C684 1.288 . S
C685 C686 1.392 . S
C686 H656 0.951 . S
C686 C685 1.392 . S
C686 C687 1.392 1_655 S
C687 H657 0.949 . S
C687 C682 1.382 . S
C687 C686 1.392 1_455 S
H688 C707 0.949 . S
H689 C708 0.950 . S
H690 C710 0.950 . S
H691 C711 0.950 . S
H692 C713 0.950 . S
H693 C716 0.950 . S
H694 C717 0.950 . S
H695 C719 0.951 . S
H696 C720 0.949 . S
H697 C722 0.949 . S
H698 C723 0.950 . S
H699 C725 0.950 . S
H700 C726 0.950 . S
H701 C728 0.950 . S
H702 C731 0.950 . S
H703 C732 0.950 . S
H704 C734 0.951 . S
H705 C735 0.949 . S
C706 C707 1.376 . S
C706 C711 1.386 . S
C706 C712 1.483 . S
C707 H688 0.949 . S
C707 C706 1.376 . S
C707 C708 1.397 . S
C708 H689 0.950 . S
C708 C707 1.397 . S
C708 C709 1.391 . S
C709 C708 1.391 . S
C709 C710 1.405 . S
C710 H690 0.950 . S
C710 C709 1.405 . S
C710 C711 1.367 . S
C711 H691 0.950 . S
C711 C706 1.386 . S
C711 C710 1.367 . S
C712 C706 1.483 . S
C712 C713 1.382 . S
C712 C714 1.403 . S
C713 H692 0.950 . S
C713 C712 1.382 . S
C713 C729 1.410 1_545 S
C714 C712 1.403 . S
C714 C715 1.489 . S
C714 C728 1.411 . S
C715 C714 1.489 . S
C715 C716 1.383 . S
C715 C720 1.382 . S
C716 H693 0.950 . S
C716 C715 1.383 . S
C716 C717 1.395 . S
C717 H694 0.950 . S
C717 C716 1.395 . S
C717 C718 1.288 . S
C718 C717 1.288 . S
C718 C719 1.392 . S
C719 H695 0.951 . S
C719 C718 1.392 . S
C719 C720 1.392 . S
C720 H696 0.949 . S
C720 C715 1.382 . S
C720 C719 1.392 . S
C721 C722 1.376 . S
C721 C726 1.386 . S
C721 C727 1.483 1_565 S
C722 H697 0.949 . S
C722 C721 1.376 . S
C722 C723 1.397 . S
C723 H698 0.950 . S
C723 C722 1.397 . S
C723 C724 1.391 . S
C724 C723 1.391 . S
C724 C725 1.405 . S
C725 H699 0.950 . S
C725 C724 1.405 . S
C725 C726 1.367 . S
C726 H700 0.950 . S
C726 C721 1.386 . S
C726 C725 1.367 . S
C727 C721 1.483 1_545 S
C727 C728 1.382 . S
C727 C729 1.403 1_545 S
C728 H701 0.950 . S
C728 C714 1.411 . S
C728 C727 1.382 . S
C729 C713 1.410 1_565 S
C729 C727 1.403 1_565 S
C729 C730 1.490 . S
C730 C729 1.490 . S
C730 C731 1.383 . S
C730 C735 1.382 . S
C731 H702 0.950 . S
C731 C730 1.383 . S
C731 C732 1.395 . S
C732 H703 0.950 . S
C732 C731 1.395 . S
C732 C733 1.288 . S
C733 C732 1.288 . S
C733 C734 1.392 . S
C734 H704 0.951 . S
C734 C733 1.392 . S
C734 C735 1.392 . S
C735 H705 0.949 . S
C735 C730 1.382 . S
C735 C734 1.392 . S
H736 C755 0.949 . S
H737 C756 0.950 . S
H738 C758 0.950 . S
H739 C759 0.950 . S
H740 C761 0.950 . S
H741 C764 0.950 . S
H742 C765 0.950 . S
H743 C767 0.951 . S
H744 C768 0.949 . S
H745 C770 0.949 . S
H746 C771 0.950 . S
H747 C773 0.950 . S
H748 C774 0.950 . S
H749 C776 0.950 . S
H750 C779 0.950 . S
H751 C780 0.950 . S
H752 C782 0.951 . S
H753 C783 0.949 . S
C754 C755 1.376 . S
C754 C759 1.386 . S
C754 C760 1.483 . S
C755 H736 0.949 . S
C755 C754 1.376 . S
C755 C756 1.397 . S
C756 H737 0.950 . S
C756 C755 1.397 . S
C756 C757 1.391 . S
C757 C756 1.391 . S
C757 C758 1.405 . S
C758 H738 0.950 . S
C758 C757 1.405 . S
C758 C759 1.367 . S
C759 H739 0.950 . S
C759 C754 1.386 . S
C759 C758 1.367 . S
C760 C754 1.483 . S
C760 C761 1.382 . S
C760 C762 1.403 . S
C761 H740 0.950 . S
C761 C760 1.382 . S
C761 C777 1.411 1_455 S
C762 C760 1.403 . S
C762 C763 1.489 . S
C762 C776 1.411 . S
C763 C762 1.489 . S
C763 C764 1.383 . S
C763 C768 1.382 . S
C764 H741 0.950 . S
C764 C763 1.383 . S
C764 C765 1.395 . S
C765 H742 0.950 . S
C765 C764 1.395 . S
C765 C766 1.288 . S
C766 C765 1.288 . S
C766 C767 1.392 . S
C767 H743 0.951 . S
C767 C766 1.392 . S
C767 C768 1.392 . S
C768 H744 0.949 . S
C768 C763 1.382 . S
C768 C767 1.392 . S
C769 C770 1.376 . S
C769 C774 1.386 . S
C769 C775 1.483 . S
C770 H745 0.949 . S
C770 C769 1.376 . S
C770 C771 1.397 . S
C771 H746 0.950 . S
C771 C770 1.397 . S
C771 C772 1.391 . S
C772 C771 1.391 . S
C772 C773 1.405 . S
C773 H747 0.950 . S
C773 C772 1.405 . S
C773 C774 1.367 . S
C774 H748 0.950 . S
C774 C769 1.386 . S
C774 C773 1.367 . S
C775 C769 1.483 . S
C775 C776 1.382 1_655 S
C775 C777 1.403 . S
C776 H749 0.950 . S
C776 C762 1.411 . S
C776 C775 1.382 1_455 S
C777 C761 1.411 1_655 S
C777 C775 1.403 . S
C777 C778 1.489 . S
C778 C777 1.489 . S
C778 C779 1.383 . S
C778 C783 1.382 . S
C779 H750 0.950 . S
C779 C778 1.383 . S
C779 C780 1.395 . S
C780 H751 0.950 . S
C780 C779 1.395 . S
C780 C781 1.288 . S
C781 C780 1.288 . S
C781 C782 1.392 . S
C782 H752 0.951 . S
C782 C781 1.392 . S
C782 C783 1.392 . S
C783 H753 0.949 . S
C783 C778 1.382 . S
C783 C782 1.392 . S
H784 C803 0.949 . S
H785 C804 0.950 . S
H786 C806 0.950 . S
H787 C807 0.950 . S
H788 C809 0.950 . S
H789 C812 0.950 . S
H790 C813 0.950 . S
H791 C815 0.951 . S
H792 C816 0.949 . S
H793 C818 0.949 . S
H794 C819 0.950 . S
H795 C821 0.950 . S
H796 C822 0.950 . S
H797 C824 0.950 . S
H798 C827 0.950 . S
H799 C828 0.950 . S
H800 C830 0.951 . S
H801 C831 0.949 . S
C802 C803 1.376 . S
C802 C807 1.386 . S
C802 C808 1.483 . S
C803 H784 0.949 . S
C803 C802 1.376 . S
C803 C804 1.397 . S
C804 H785 0.950 . S
C804 C803 1.397 . S
C804 C805 1.391 . S
C805 C804 1.391 . S
C805 C806 1.405 . S
C806 H786 0.950 . S
C806 C805 1.405 . S
C806 C807 1.367 . S
C807 H787 0.950 . S
C807 C802 1.386 . S
C807 C806 1.367 . S
C808 C802 1.483 . S
C808 C809 1.382 . S
C808 C810 1.403 . S
C809 H788 0.950 . S
C809 C808 1.382 . S
C809 C825 1.411 1_545 S
C810 C808 1.403 . S
C810 C811 1.489 . S
C810 C824 1.411 . S
C811 C810 1.489 . S
C811 C812 1.383 . S
C811 C816 1.382 . S
C812 H789 0.950 . S
C812 C811 1.383 . S
C812 C813 1.395 . S
C813 H790 0.950 . S
C813 C812 1.395 . S
C813 C814 1.288 . S
C814 C813 1.288 . S
C814 C815 1.392 . S
C815 H791 0.951 . S
C815 C814 1.392 . S
C815 C816 1.392 . S
C816 H792 0.949 . S
C816 C811 1.382 . S
C816 C815 1.392 . S
C817 C818 1.376 . S
C817 C822 1.386 . S
C817 C823 1.483 . S
C818 H793 0.949 . S
C818 C817 1.376 . S
C818 C819 1.397 . S
C819 H794 0.950 . S
C819 C818 1.397 . S
C819 C820 1.391 . S
C820 C819 1.391 . S
C820 C821 1.405 . S
C821 H795 0.950 . S
C821 C820 1.405 . S
C821 C822 1.367 . S
C822 H796 0.950 . S
C822 C817 1.386 . S
C822 C821 1.367 . S
C823 C817 1.483 . S
C823 C824 1.382 1_565 S
C823 C825 1.403 . S
C824 H797 0.950 . S
C824 C810 1.411 . S
C824 C823 1.382 1_545 S
C825 C809 1.411 1_565 S
C825 C823 1.403 . S
C825 C826 1.489 . S
C826 C825 1.489 . S
C826 C827 1.383 . S
C826 C831 1.382 . S
C827 H798 0.950 . S
C827 C826 1.383 . S
C827 C828 1.395 . S
C828 H799 0.950 . S
C828 C827 1.395 . S
C828 C829 1.288 . S
C829 C828 1.288 . S
C829 C830 1.392 . S
C830 H800 0.951 . S
C830 C829 1.392 . S
C830 C831 1.392 . S
C831 H801 0.949 . S
C831 C826 1.382 . S
C831 C830 1.392 . S
H832 C851 0.949 . S
H833 C852 0.950 . S
H834 C854 0.950 1_655 S
H835 C855 0.950 . S
H836 C857 0.950 . S
H837 C860 0.950 . S
H838 C861 0.950 . S
H839 C863 0.951 1_655 S
H840 C864 0.949 . S
H841 C866 0.949 . S
H842 C867 0.950 . S
H843 C869 0.950 . S
H844 C870 0.950 . S
H845 C872 0.950 . S
H846 C875 0.950 . S
H847 C876 0.950 . S
H848 C878 0.951 . S
H849 C879 0.949 . S
C850 C851 1.376 . S
C850 C855 1.386 . S
C850 C856 1.483 . S
C851 H832 0.949 . S
C851 C850 1.376 . S
C851 C852 1.397 . S
C852 H833 0.950 . S
C852 C851 1.397 . S
C852 C853 1.391 . S
C853 C852 1.391 . S
C853 C854 1.405 . S
C854 H834 0.950 1_455 S
C854 C853 1.405 . S
C854 C855 1.367 . S
C855 H835 0.950 . S
C855 C850 1.386 . S
C855 C854 1.367 . S
C856 C850 1.483 . S
C856 C857 1.382 . S
C856 C858 1.403 . S
C857 H836 0.950 . S
C857 C856 1.382 . S
C857 C873 1.411 . S
C858 C856 1.403 . S
C858 C859 1.489 . S
C858 C872 1.411 . S
C859 C858 1.489 . S
C859 C860 1.383 . S
C859 C864 1.382 . S
C860 H837 0.950 . S
C860 C859 1.383 . S
C860 C861 1.395 1_455 S
C861 H838 0.950 . S
C861 C860 1.395 1_655 S
C861 C862 1.288 . S
C862 C861 1.288 . S
C862 C863 1.392 1_655 S
C863 H839 0.951 1_455 S
C863 C862 1.392 1_455 S
C863 C864 1.392 . S
C864 H840 0.949 . S
C864 C859 1.382 . S
C864 C863 1.392 . S
C865 C866 1.376 . S
C865 C870 1.386 . S
C865 C871 1.483 . S
C866 H841 0.949 . S
C866 C865 1.376 . S
C866 C867 1.397 . S
C867 H842 0.950 . S
C867 C866 1.397 . S
C867 C868 1.391 . S
C868 C867 1.391 . S
C868 C869 1.405 . S
C869 H843 0.950 . S
C869 C868 1.405 . S
C869 C870 1.367 . S
C870 H844 0.950 . S
C870 C865 1.386 . S
C870 C869 1.367 . S
C871 C865 1.483 . S
C871 C872 1.382 . S
C871 C873 1.403 . S
C872 H845 0.950 . S
C872 C858 1.411 . S
C872 C871 1.382 . S
C873 C857 1.411 . S
C873 C871 1.403 . S
C873 C874 1.489 . S
C874 C873 1.489 . S
C874 C875 1.383 . S
C874 C879 1.382 . S
C875 H846 0.950 . S
C875 C874 1.383 . S
C875 C876 1.395 . S
C876 H847 0.950 . S
C876 C875 1.395 . S
C876 C877 1.288 . S
C877 C876 1.288 . S
C877 C878 1.392 . S
C878 H848 0.951 . S
C878 C877 1.392 . S
C878 C879 1.392 . S
C879 H849 0.949 . S
C879 C874 1.382 . S
C879 C878 1.392 . S
H880 C899 0.949 . S
H881 C900 0.950 . S
H882 C902 0.950 . S
H883 C903 0.950 . S
H884 C905 0.950 . S
H885 C908 0.950 . S
H886 C909 0.950 . S
H887 C911 0.951 . S
H888 C912 0.949 . S
H889 C914 0.949 . S
H890 C915 0.950 . S
H891 C917 0.950 . S
H892 C918 0.950 . S
H893 C920 0.950 . S
H894 C923 0.950 . S
H895 C924 0.950 . S
H896 C926 0.951 . S
H897 C927 0.949 . S
C898 C899 1.376 . S
C898 C903 1.386 . S
C898 C904 1.483 . S
C899 H880 0.949 . S
C899 C898 1.376 . S
C899 C900 1.397 . S
C900 H881 0.950 . S
C900 C899 1.397 . S
C900 C901 1.391 . S
C901 C900 1.391 . S
C901 C902 1.405 . S
C902 H882 0.950 . S
C902 C901 1.405 . S
C902 C903 1.367 . S
C903 H883 0.950 . S
C903 C898 1.386 . S
C903 C902 1.367 . S
C904 C898 1.483 . S
C904 C905 1.382 . S
C904 C906 1.403 . S
C905 H884 0.950 . S
C905 C904 1.382 . S
C905 C921 1.417 1_545 S
C906 C904 1.403 . S
C906 C907 1.489 . S
C906 C920 1.411 . S
C907 C906 1.489 . S
C907 C908 1.383 . S
C907 C912 1.382 . S
C908 H885 0.950 . S
C908 C907 1.383 . S
C908 C909 1.395 . S
C909 H886 0.950 . S
C909 C908 1.395 . S
C909 C910 1.288 . S
C910 C909 1.288 . S
C910 C911 1.392 . S
C911 H887 0.951 . S
C911 C910 1.392 . S
C911 C912 1.392 . S
C912 H888 0.949 . S
C912 C907 1.382 . S
C912 C911 1.392 . S
C913 C914 1.376 . S
C913 C918 1.386 . S
C913 C919 1.483 1_565 S
C914 H889 0.949 . S
C914 C913 1.376 . S
C914 C915 1.397 . S
C915 H890 0.950 . S
C915 C914 1.397 . S
C915 C916 1.391 . S
C916 C915 1.391 . S
C916 C917 1.405 . S
C917 H891 0.950 . S
C917 C916 1.405 . S
C917 C918 1.367 . S
C918 H892 0.950 . S
C918 C913 1.386 . S
C918 C917 1.367 . S
C919 C913 1.483 1_545 S
C919 C920 1.382 . S
C919 C921 1.403 1_545 S
C920 H893 0.950 . S
C920 C906 1.411 . S
C920 C919 1.382 . S
C921 C905 1.417 1_565 S
C921 C919 1.403 1_565 S
C921 C922 1.483 . S
C922 C921 1.483 . S
C922 C923 1.383 . S
C922 C927 1.382 . S
C923 H894 0.950 . S
C923 C922 1.383 . S
C923 C924 1.395 . S
C924 H895 0.950 . S
C924 C923 1.395 . S
C924 C925 1.288 . S
C925 C924 1.288 . S
C925 C926 1.392 . S
C926 H896 0.951 . S
C926 C925 1.392 . S
C926 C927 1.392 . S
C927 H897 0.949 . S
C927 C922 1.382 . S
C927 C926 1.392 . S
H928 C947 0.949 . S
H929 C948 0.950 . S
H930 C950 0.950 . S
H931 C951 0.950 . S
H932 C953 0.950 . S
H933 C956 0.950 . S
H934 C957 0.950 . S
H935 C959 0.951 . S
H936 C960 0.949 . S
H937 C962 0.949 . S
H938 C963 0.950 . S
H939 C965 0.950 . S
H940 C966 0.950 . S
H941 C968 0.950 . S
H942 C971 0.950 . S
H943 C972 0.950 . S
H944 C974 0.951 . S
H945 C975 0.949 . S
C946 C947 1.376 . S
C946 C951 1.386 . S
C946 C952 1.483 . S
C947 H928 0.949 . S
C947 C946 1.376 . S
C947 C948 1.397 . S
C948 H929 0.950 . S
C948 C947 1.397 . S
C948 C949 1.391 . S
C949 C948 1.391 . S
C949 C950 1.405 . S
C950 H930 0.950 . S
C950 C949 1.405 . S
C950 C951 1.367 . S
C951 H931 0.950 . S
C951 C946 1.386 . S
C951 C950 1.367 . S
C952 C946 1.483 . S
C952 C953 1.382 . S
C952 C954 1.403 . S
C953 H932 0.950 . S
C953 C952 1.382 . S
C953 C969 1.411 . S
C954 C952 1.403 . S
C954 C955 1.489 . S
C954 C968 1.411 . S
C955 C954 1.489 . S
C955 C956 1.383 . S
C955 C960 1.382 . S
C956 H933 0.950 . S
C956 C955 1.383 . S
C956 C957 1.395 . S
C957 H934 0.950 . S
C957 C956 1.395 . S
C957 C958 1.288 . S
C958 C957 1.288 . S
C958 C959 1.392 . S
C959 H935 0.951 . S
C959 C958 1.392 . S
C959 C960 1.392 . S
C960 H936 0.949 . S
C960 C955 1.382 . S
C960 C959 1.392 . S
C961 C962 1.376 . S
C961 C966 1.386 . S
C961 C967 1.483 . S
C962 H937 0.949 . S
C962 C961 1.376 . S
C962 C963 1.397 . S
C963 H938 0.950 . S
C963 C962 1.397 . S
C963 C964 1.391 . S
C964 C963 1.391 . S
C964 C965 1.405 . S
C965 H939 0.950 . S
C965 C964 1.405 . S
C965 C966 1.367 . S
C966 H940 0.950 . S
C966 C961 1.386 . S
C966 C965 1.367 . S
C967 C961 1.483 . S
C967 C968 1.382 . S
C967 C969 1.403 . S
C968 H941 0.950 . S
C968 C954 1.411 . S
C968 C967 1.382 . S
C969 C953 1.411 . S
C969 C967 1.403 . S
C969 C970 1.489 . S
C970 C969 1.489 . S
C970 C971 1.383 . S
C970 C975 1.382 . S
C971 H942 0.950 . S
C971 C970 1.383 . S
C971 C972 1.395 . S
C972 H943 0.950 . S
C972 C971 1.395 . S
C972 C973 1.288 . S
C973 C972 1.288 . S
C973 C974 1.392 . S
C974 H944 0.951 . S
C974 C973 1.392 . S
C974 C975 1.392 . S
C975 H945 0.949 . S
C975 C970 1.382 . S
C975 C974 1.392 . S
H976 C995 0.949 . S
H977 C996 0.950 . S
H978 C998 0.950 . S
H979 C999 0.950 . S
H980 C1001 0.950 . S
H981 C1004 0.950 . S
H982 C1005 0.950 . S
H983 C1007 0.951 . S
H984 C1008 0.949 . S
H985 C1010 0.949 . S
H986 C1011 0.950 . S
H987 C1013 0.950 . S
H988 C1014 0.950 . S
H989 C1016 0.950 . S
H990 C1019 0.950 . S
H991 C1020 0.950 . S
H992 C1022 0.951 . S
H993 C1023 0.949 . S
C994 C995 1.376 . S
C994 C999 1.386 . S
C994 C1000 1.483 . S
C995 H976 0.949 . S
C995 C994 1.376 . S
C995 C996 1.397 . S
C996 H977 0.950 . S
C996 C995 1.397 . S
C996 C997 1.391 . S
C997 C996 1.391 . S
C997 C998 1.405 . S
C998 H978 0.950 . S
C998 C997 1.405 . S
C998 C999 1.367 . S
C999 H979 0.950 . S
C999 C994 1.386 . S
C999 C998 1.367 . S
C1000 C994 1.483 . S
C1000 C1001 1.382 . S
C1000 C1002 1.403 . S
C1001 H980 0.950 . S
C1001 C1000 1.382 . S
C1001 C1017 1.411 . S
C1002 C1000 1.403 . S
C1002 C1003 1.489 . S
C1002 C1016 1.411 . S
C1003 C1002 1.489 . S
C1003 C1004 1.383 . S
C1003 C1008 1.382 . S
C1004 H981 0.950 . S
C1004 C1003 1.383 . S
C1004 C1005 1.395 . S
C1005 H982 0.950 . S
C1005 C1004 1.395 . S
C1005 C1006 1.288 . S
C1006 C1005 1.288 . S
C1006 C1007 1.392 . S
C1007 H983 0.951 . S
C1007 C1006 1.392 . S
C1007 C1008 1.392 . S
C1008 H984 0.949 . S
C1008 C1003 1.382 . S
C1008 C1007 1.392 . S
C1009 C1010 1.376 . S
C1009 C1014 1.386 . S
C1009 C1015 1.483 . S
C1010 H985 0.949 . S
C1010 C1009 1.376 . S
C1010 C1011 1.397 . S
C1011 H986 0.950 . S
C1011 C1010 1.397 . S
C1011 C1012 1.391 . S
C1012 C1011 1.391 . S
C1012 C1013 1.405 . S
C1013 H987 0.950 . S
C1013 C1012 1.405 . S
C1013 C1014 1.367 . S
C1014 H988 0.950 . S
C1014 C1009 1.386 . S
C1014 C1013 1.367 . S
C1015 C1009 1.483 . S
C1015 C1016 1.382 . S
C1015 C1017 1.403 . S
C1016 H989 0.950 . S
C1016 C1002 1.411 . S
C1016 C1015 1.382 . S
C1017 C1001 1.411 . S
C1017 C1015 1.403 . S
C1017 C1018 1.489 . S
C1018 C1017 1.489 . S
C1018 C1019 1.383 . S
C1018 C1023 1.382 . S
C1019 H990 0.950 . S
C1019 C1018 1.383 . S
C1019 C1020 1.395 . S
C1020 H991 0.950 . S
C1020 C1019 1.395 . S
C1020 C1021 1.288 . S
C1021 C1020 1.288 . S
C1021 C1022 1.392 . S
C1022 H992 0.951 . S
C1022 C1021 1.392 . S
C1022 C1023 1.392 . S
C1023 H993 0.949 . S
C1023 C1018 1.382 . S
C1023 C1022 1.392 . S
H1024 C1043 0.949 . S
H1025 C1044 0.950 . S
H1026 C1046 0.950 . S
H1027 C1047 0.950 . S
H1028 C1049 0.950 . S
H1029 C1052 0.950 . S
H1030 C1053 0.950 . S
H1031 C1055 0.951 . S
H1032 C1056 0.949 . S
H1033 C1058 0.949 . S
H1034 C1059 0.950 . S
H1035 C1061 0.950 . S
H1036 C1062 0.950 . S
H1037 C1064 0.950 . S
H1038 C1067 0.950 . S
H1039 C1068 0.950 . S
H1040 C1070 0.951 . S
H1041 C1071 0.949 . S
C1042 C1043 1.376 . S
C1042 C1047 1.386 . S
C1042 C1048 1.483 . S
C1043 H1024 0.949 . S
C1043 C1042 1.376 . S
C1043 C1044 1.397 . S
C1044 H1025 0.950 . S
C1044 C1043 1.397 . S
C1044 C1045 1.391 . S
C1045 C1044 1.391 . S
C1045 C1046 1.405 . S
C1046 H1026 0.950 . S
C1046 C1045 1.405 . S
C1046 C1047 1.367 . S
C1047 H1027 0.950 . S
C1047 C1042 1.386 . S
C1047 C1046 1.367 . S
C1048 C1042 1.483 . S
C1048 C1049 1.382 . S
C1048 C1050 1.403 . S
C1049 H1028 0.950 . S
C1049 C1048 1.382 . S
C1049 C1065 1.411 . S
C1050 C1048 1.403 . S
C1050 C1051 1.489 . S
C1050 C1064 1.411 . S
C1051 C1050 1.489 . S
C1051 C1052 1.383 . S
C1051 C1056 1.382 . S
C1052 H1029 0.950 . S
C1052 C1051 1.383 . S
C1052 C1053 1.395 . S
C1053 H1030 0.950 . S
C1053 C1052 1.395 . S
C1053 C1054 1.288 . S
C1054 C1053 1.288 . S
C1054 C1055 1.392 . S
C1055 H1031 0.951 . S
C1055 C1054 1.392 . S
C1055 C1056 1.392 . S
C1056 H1032 0.949 . S
C1056 C1051 1.382 . S
C1056 C1055 1.392 . S
C1057 C1058 1.376 . S
C1057 C1062 1.386 . S
C1057 C1063 1.483 . S
C1058 H1033 0.949 . S
C1058 C1057 1.376 . S
C1058 C1059 1.397 . S
C1059 H1034 0.950 . S
C1059 C1058 1.397 . S
C1059 C1060 1.391 . S
C1060 C1059 1.391 . S
C1060 C1061 1.405 . S
C1061 H1035 0.950 . S
C1061 C1060 1.405 . S
C1061 C1062 1.367 . S
C1062 H1036 0.950 . S
C1062 C1057 1.386 . S
C1062 C1061 1.367 . S
C1063 C1057 1.483 . S
C1063 C1064 1.382 . S
C1063 C1065 1.403 . S
C1064 H1037 0.950 . S
C1064 C1050 1.411 . S
C1064 C1063 1.382 . S
C1065 C1049 1.411 . S
C1065 C1063 1.403 . S
C1065 C1066 1.489 . S
C1066 C1065 1.489 . S
C1066 C1067 1.383 . S
C1066 C1071 1.382 . S
C1067 H1038 0.950 . S
C1067 C1066 1.383 . S
C1067 C1068 1.395 . S
C1068 H1039 0.950 . S
C1068 C1067 1.395 . S
C1068 C1069 1.288 . S
C1069 C1068 1.288 . S
C1069 C1070 1.392 . S
C1070 H1040 0.951 . S
C1070 C1069 1.392 . S
C1070 C1071 1.392 . S
C1071 H1041 0.949 . S
C1071 C1066 1.382 . S
C1071 C1070 1.392 . S
H1072 C1091 0.949 . S
H1073 C1092 0.950 . S
H1074 C1094 0.950 . S
H1075 C1095 0.950 . S
H1076 C1097 0.950 . S
H1077 C1100 0.950 . S
H1078 C1101 0.950 . S
H1079 C1103 0.951 . S
H1080 C1104 0.949 . S
H1081 C1106 0.949 . S
H1082 C1107 0.950 . S
H1083 C1109 0.950 . S
H1084 C1110 0.950 . S
H1085 C1112 0.950 . S
H1086 C1115 0.950 . S
H1087 C1116 0.950 . S
H1088 C1118 0.951 . S
H1089 C1119 0.949 . S
C1090 C1091 1.376 . S
C1090 C1095 1.386 . S
C1090 C1096 1.483 . S
C1091 H1072 0.949 . S
C1091 C1090 1.376 . S
C1091 C1092 1.397 . S
C1092 H1073 0.950 . S
C1092 C1091 1.397 . S
C1092 C1093 1.391 . S
C1093 C1092 1.391 . S
C1093 C1094 1.405 . S
C1094 H1074 0.950 . S
C1094 C1093 1.405 . S
C1094 C1095 1.367 . S
C1095 H1075 0.950 . S
C1095 C1090 1.386 . S
C1095 C1094 1.367 . S
C1096 C1090 1.483 . S
C1096 C1097 1.382 . S
C1096 C1098 1.403 . S
C1097 H1076 0.950 . S
C1097 C1096 1.382 . S
C1097 C1113 1.411 . S
C1098 C1096 1.403 . S
C1098 C1099 1.489 . S
C1098 C1112 1.411 . S
C1099 C1098 1.489 . S
C1099 C1100 1.383 . S
C1099 C1104 1.382 . S
C1100 H1077 0.950 . S
C1100 C1099 1.383 . S
C1100 C1101 1.395 . S
C1101 H1078 0.950 . S
C1101 C1100 1.395 . S
C1101 C1102 1.288 . S
C1102 C1101 1.288 . S
C1102 C1103 1.392 . S
C1103 H1079 0.951 . S
C1103 C1102 1.392 . S
C1103 C1104 1.392 . S
C1104 H1080 0.949 . S
C1104 C1099 1.382 . S
C1104 C1103 1.392 . S
C1105 C1106 1.376 . S
C1105 C1110 1.386 . S
C1105 C1111 1.483 . S
C1106 H1081 0.949 . S
C1106 C1105 1.376 . S
C1106 C1107 1.397 . S
C1107 H1082 0.950 . S
C1107 C1106 1.397 . S
C1107 C1108 1.391 . S
C1108 C1107 1.391 . S
C1108 C1109 1.405 . S
C1109 H1083 0.950 . S
C1109 C1108 1.405 . S
C1109 C1110 1.367 . S
C1110 H1084 0.950 . S
C1110 C1105 1.386 . S
C1110 C1109 1.367 . S
C1111 C1105 1.483 . S
C1111 C1112 1.382 . S
C1111 C1113 1.403 . S
C1112 H1085 0.950 . S
C1112 C1098 1.411 . S
C1112 C1111 1.382 . S
C1113 C1097 1.411 . S
C1113 C1111 1.403 . S
C1113 C1114 1.489 . S
C1114 C1113 1.489 . S
C1114 C1115 1.383 . S
C1114 C1119 1.382 . S
C1115 H1086 0.950 . S
C1115 C1114 1.383 . S
C1115 C1116 1.395 . S
C1116 H1087 0.950 . S
C1116 C1115 1.395 . S
C1116 C1117 1.288 . S
C1117 C1116 1.288 . S
C1117 C1118 1.392 . S
C1118 H1088 0.951 . S
C1118 C1117 1.392 . S
C1118 C1119 1.392 . S
C1119 H1089 0.949 . S
C1119 C1114 1.382 . S
C1119 C1118 1.392 . S
H1120 C1139 0.949 . S
H1121 C1140 0.950 . S
H1122 C1142 0.950 . S
H1123 C1143 0.950 . S
H1124 C1145 0.950 . S
H1125 C1148 0.950 . S
H1126 C1149 0.950 . S
H1127 C1151 0.951 . S
H1128 C1152 0.949 . S
H1129 C1154 0.949 . S
H1130 C1155 0.950 . S
H1131 C1157 0.950 . S
H1132 C1158 0.950 . S
H1133 C1160 0.950 . S
H1134 C1163 0.950 . S
H1135 C1164 0.950 . S
H1136 C1166 0.951 . S
H1137 C1167 0.949 . S
C1138 C1139 1.376 . S
C1138 C1143 1.386 . S
C1138 C1144 1.483 . S
C1139 H1120 0.949 . S
C1139 C1138 1.376 . S
C1139 C1140 1.397 . S
C1140 H1121 0.950 . S
C1140 C1139 1.397 . S
C1140 C1141 1.391 . S
C1141 C1140 1.391 . S
C1141 C1142 1.405 . S
C1142 H1122 0.950 . S
C1142 C1141 1.405 . S
C1142 C1143 1.367 . S
C1143 H1123 0.950 . S
C1143 C1138 1.386 . S
C1143 C1142 1.367 . S
C1144 C1138 1.483 . S
C1144 C1145 1.382 . S
C1144 C1146 1.403 . S
C1145 H1124 0.950 . S
C1145 C1144 1.382 . S
C1145 C1161 1.411 . S
C1146 C1144 1.403 . S
C1146 C1147 1.489 . S
C1146 C1160 1.411 . S
C1147 C1146 1.489 . S
C1147 C1148 1.383 . S
C1147 C1152 1.382 . S
C1148 H1125 0.950 . S
C1148 C1147 1.383 . S
C1148 C1149 1.395 . S
C1149 H1126 0.950 . S
C1149 C1148 1.395 . S
C1149 C1150 1.288 . S
C1150 C1149 1.288 . S
C1150 C1151 1.392 . S
C1151 H1127 0.951 . S
C1151 C1150 1.392 . S
C1151 C1152 1.392 . S
C1152 H1128 0.949 . S
C1152 C1147 1.382 . S
C1152 C1151 1.392 . S
C1153 C1154 1.376 . S
C1153 C1158 1.386 . S
C1153 C1159 1.483 . S
C1154 H1129 0.949 . S
C1154 C1153 1.376 . S
C1154 C1155 1.397 . S
C1155 H1130 0.950 . S
C1155 C1154 1.397 . S
C1155 C1156 1.391 . S
C1156 C1155 1.391 . S
C1156 C1157 1.405 . S
C1157 H1131 0.950 . S
C1157 C1156 1.405 . S
C1157 C1158 1.367 . S
C1158 H1132 0.950 . S
C1158 C1153 1.386 . S
C1158 C1157 1.367 . S
C1159 C1153 1.483 . S
C1159 C1160 1.382 . S
C1159 C1161 1.403 . S
C1160 H1133 0.950 . S
C1160 C1146 1.411 . S
C1160 C1159 1.382 . S
C1161 C1145 1.411 . S
C1161 C1159 1.403 . S
C1161 C1162 1.489 . S
C1162 C1161 1.489 . S
C1162 C1163 1.383 . S
C1162 C1167 1.382 . S
C1163 H1134 0.950 . S
C1163 C1162 1.383 . S
C1163 C1164 1.395 . S
C1164 H1135 0.950 . S
C1164 C1163 1.395 . S
C1164 C1165 1.288 . S
C1165 C1164 1.288 . S
C1165 C1166 1.392 . S
C1166 H1136 0.951 . S
C1166 C1165 1.392 . S
C1166 C1167 1.392 . S
C1167 H1137 0.949 . S
C1167 C1162 1.382 . S
C1167 C1166 1.392 . S
H1168 C1187 0.949 . S
H1169 C1188 0.950 . S
H1170 C1190 0.950 . S
H1171 C1191 0.950 . S
H1172 C1193 0.950 . S
H1173 C1196 0.950 . S
H1174 C1197 0.950 . S
H1175 C1199 0.951 . S
H1176 C1200 0.949 . S
H1177 C1202 0.949 . S
H1178 C1203 0.950 . S
H1179 C1205 0.950 . S
H1180 C1206 0.950 . S
H1181 C1208 0.950 . S
H1182 C1211 0.950 . S
H1183 C1212 0.950 . S
H1184 C1214 0.951 . S
H1185 C1215 0.949 . S
C1186 C1187 1.376 . S
C1186 C1191 1.386 . S
C1186 C1192 1.483 . S
C1187 H1168 0.949 . S
C1187 C1186 1.376 . S
C1187 C1188 1.397 . S
C1188 H1169 0.950 . S
C1188 C1187 1.397 . S
C1188 C1189 1.391 . S
C1189 C1188 1.391 . S
C1189 C1190 1.405 . S
C1190 H1170 0.950 . S
C1190 C1189 1.405 . S
C1190 C1191 1.367 . S
C1191 H1171 0.950 . S
C1191 C1186 1.386 . S
C1191 C1190 1.367 . S
C1192 C1186 1.483 . S
C1192 C1193 1.382 . S
C1192 C1194 1.403 . S
C1193 H1172 0.950 . S
C1193 C1192 1.382 . S
C1193 C1209 1.411 . S
C1194 C1192 1.403 . S
C1194 C1195 1.489 . S
C1194 C1208 1.411 . S
C1195 C1194 1.489 . S
C1195 C1196 1.383 . S
C1195 C1200 1.382 . S
C1196 H1173 0.950 . S
C1196 C1195 1.383 . S
C1196 C1197 1.395 . S
C1197 H1174 0.950 . S
C1197 C1196 1.395 . S
C1197 C1198 1.288 . S
C1198 C1197 1.288 . S
C1198 C1199 1.392 . S
C1199 H1175 0.951 . S
C1199 C1198 1.392 . S
C1199 C1200 1.392 . S
C1200 H1176 0.949 . S
C1200 C1195 1.382 . S
C1200 C1199 1.392 . S
C1201 C1202 1.376 . S
C1201 C1206 1.386 . S
C1201 C1207 1.483 . S
C1202 H1177 0.949 . S
C1202 C1201 1.376 . S
C1202 C1203 1.397 . S
C1203 H1178 0.950 . S
C1203 C1202 1.397 . S
C1203 C1204 1.391 . S
C1204 C1203 1.391 . S
C1204 C1205 1.405 . S
C1205 H1179 0.950 . S
C1205 C1204 1.405 . S
C1205 C1206 1.367 . S
C1206 H1180 0.950 . S
C1206 C1201 1.386 . S
C1206 C1205 1.367 . S
C1207 C1201 1.483 . S
C1207 C1208 1.382 . S
C1207 C1209 1.403 . S
C1208 H1181 0.950 . S
C1208 C1194 1.411 . S
C1208 C1207 1.382 . S
C1209 C1193 1.411 . S
C1209 C1207 1.403 . S
C1209 C1210 1.489 . S
C1210 C1209 1.489 . S
C1210 C1211 1.383 . S
C1210 C1215 1.382 . S
C1211 H1182 0.950 . S
C1211 C1210 1.383 . S
C1211 C1212 1.395 . S
C1212 H1183 0.950 . S
C1212 C1211 1.395 . S
C1212 C1213 1.288 . S
C1213 C1212 1.288 . S
C1213 C1214 1.392 . S
C1214 H1184 0.951 . S
C1214 C1213 1.392 . S
C1214 C1215 1.392 . S
C1215 H1185 0.949 . S
C1215 C1210 1.382 . S
C1215 C1214 1.392 . S
H1216 C1235 0.949 . S
H1217 C1236 0.950 . S
H1218 C1238 0.950 . S
H1219 C1239 0.950 . S
H1220 C1241 0.950 . S
H1221 C1244 0.950 . S
H1222 C1245 0.950 . S
H1223 C1247 0.951 . S
H1224 C1248 0.949 . S
H1225 C1250 0.949 . S
H1226 C1251 0.950 . S
H1227 C1253 0.950 . S
H1228 C1254 0.950 . S
H1229 C1256 0.950 . S
H1230 C1259 0.950 . S
H1231 C1260 0.950 . S
H1232 C1262 0.951 . S
H1233 C1263 0.949 . S
C1234 C1235 1.376 . S
C1234 C1239 1.386 . S
C1234 C1240 1.483 . S
C1235 H1216 0.949 . S
C1235 C1234 1.376 . S
C1235 C1236 1.397 . S
C1236 H1217 0.950 . S
C1236 C1235 1.397 . S
C1236 C1237 1.391 . S
C1237 C1236 1.391 . S
C1237 C1238 1.405 . S
C1238 H1218 0.950 . S
C1238 C1237 1.405 . S
C1238 C1239 1.367 . S
C1239 H1219 0.950 . S
C1239 C1234 1.386 . S
C1239 C1238 1.367 . S
C1240 C1234 1.483 . S
C1240 C1241 1.382 . S
C1240 C1242 1.403 . S
C1241 H1220 0.950 . S
C1241 C1240 1.382 . S
C1241 C1257 1.411 . S
C1242 C1240 1.403 . S
C1242 C1243 1.489 . S
C1242 C1256 1.411 . S
C1243 C1242 1.489 . S
C1243 C1244 1.383 . S
C1243 C1248 1.382 . S
C1244 H1221 0.950 . S
C1244 C1243 1.383 . S
C1244 C1245 1.395 . S
C1245 H1222 0.950 . S
C1245 C1244 1.395 . S
C1245 C1246 1.288 . S
C1246 C1245 1.288 . S
C1246 C1247 1.392 . S
C1247 H1223 0.951 . S
C1247 C1246 1.392 . S
C1247 C1248 1.392 . S
C1248 H1224 0.949 . S
C1248 C1243 1.382 . S
C1248 C1247 1.392 . S
C1249 C1250 1.376 . S
C1249 C1254 1.386 . S
C1249 C1255 1.483 . S
C1250 H1225 0.949 . S
C1250 C1249 1.376 . S
C1250 C1251 1.397 . S
C1251 H1226 0.950 . S
C1251 C1250 1.397 . S
C1251 C1252 1.391 . S
C1252 C1251 1.391 . S
C1252 C1253 1.405 . S
C1253 H1227 0.950 . S
C1253 C1252 1.405 . S
C1253 C1254 1.367 . S
C1254 H1228 0.950 . S
C1254 C1249 1.386 . S
C1254 C1253 1.367 . S
C1255 C1249 1.483 . S
C1255 C1256 1.382 . S
C1255 C1257 1.403 . S
C1256 H1229 0.950 . S
C1256 C1242 1.411 . S
C1256 C1255 1.382 . S
C1257 C1241 1.411 . S
C1257 C1255 1.403 . S
C1257 C1258 1.489 . S
C1258 C1257 1.489 . S
C1258 C1259 1.383 . S
C1258 C1263 1.382 . S
C1259 H1230 0.950 . S
C1259 C1258 1.383 . S
C1259 C1260 1.395 . S
C1260 H1231 0.950 . S
C1260 C1259 1.395 . S
C1260 C1261 1.288 . S
C1261 C1260 1.288 . S
C1261 C1262 1.392 . S
C1262 H1232 0.951 . S
C1262 C1261 1.392 . S
C1262 C1263 1.392 . S
C1263 H1233 0.949 . S
C1263 C1258 1.382 . S
C1263 C1262 1.392 . S
H1264 C1283 0.949 . S
H1265 C1284 0.950 . S
H1266 C1286 0.950 . S
H1267 C1287 0.950 . S
H1268 C1289 0.950 . S
H1269 C1292 0.950 . S
H1270 C1293 0.950 . S
H1271 C1295 0.951 . S
H1272 C1296 0.949 . S
H1273 C1298 0.949 . S
H1274 C1299 0.950 . S
H1275 C1301 0.950 . S
H1276 C1302 0.950 . S
H1277 C1304 0.950 . S
H1278 C1307 0.950 . S
H1279 C1308 0.950 . S
H1280 C1310 0.951 . S
H1281 C1311 0.949 . S
C1282 C1283 1.376 . S
C1282 C1287 1.386 . S
C1282 C1288 1.483 . S
C1283 H1264 0.949 . S
C1283 C1282 1.376 . S
C1283 C1284 1.397 . S
C1284 H1265 0.950 . S
C1284 C1283 1.397 . S
C1284 C1285 1.391 . S
C1285 C1284 1.391 . S
C1285 C1286 1.405 . S
C1286 H1266 0.950 . S
C1286 C1285 1.405 . S
C1286 C1287 1.367 . S
C1287 H1267 0.950 . S
C1287 C1282 1.386 . S
C1287 C1286 1.367 . S
C1288 C1282 1.483 . S
C1288 C1289 1.382 . S
C1288 C1290 1.403 . S
C1289 H1268 0.950 . S
C1289 C1288 1.382 . S
C1289 C1305 1.411 . S
C1290 C1288 1.403 . S
C1290 C1291 1.489 . S
C1290 C1304 1.411 . S
C1291 C1290 1.489 . S
C1291 C1292 1.383 . S
C1291 C1296 1.382 . S
C1292 H1269 0.950 . S
C1292 C1291 1.383 . S
C1292 C1293 1.395 . S
C1293 H1270 0.950 . S
C1293 C1292 1.395 . S
C1293 C1294 1.288 . S
C1294 C1293 1.288 . S
C1294 C1295 1.392 . S
C1295 H1271 0.951 . S
C1295 C1294 1.392 . S
C1295 C1296 1.392 . S
C1296 H1272 0.949 . S
C1296 C1291 1.382 . S
C1296 C1295 1.392 . S
C1297 C1298 1.376 . S
C1297 C1302 1.386 . S
C1297 C1303 1.483 . S
C1298 H1273 0.949 . S
C1298 C1297 1.376 . S
C1298 C1299 1.397 . S
C1299 H1274 0.950 . S
C1299 C1298 1.397 . S
C1299 C1300 1.391 . S
C1300 C1299 1.391 . S
C1300 C1301 1.405 . S
C1301 H1275 0.950 . S
C1301 C1300 1.405 . S
C1301 C1302 1.367 . S
C1302 H1276 0.950 . S
C1302 C1297 1.386 . S
C1302 C1301 1.367 . S
C1303 C1297 1.483 . S
C1303 C1304 1.382 . S
C1303 C1305 1.403 . S
C1304 H1277 0.950 . S
C1304 C1290 1.411 . S
C1304 C1303 1.382 . S
C1305 C1289 1.411 . S
C1305 C1303 1.403 . S
C1305 C1306 1.489 . S
C1306 C1305 1.489 . S
C1306 C1307 1.383 . S
C1306 C1311 1.382 . S
C1307 H1278 0.950 . S
C1307 C1306 1.383 . S
C1307 C1308 1.395 . S
C1308 H1279 0.950 . S
C1308 C1307 1.395 . S
C1308 C1309 1.288 . S
C1309 C1308 1.288 . S
C1309 C1310 1.392 . S
C1310 H1280 0.951 . S
C1310 C1309 1.392 . S
C1310 C1311 1.392 . S
C1311 H1281 0.949 . S
C1311 C1306 1.382 . S
C1311 C1310 1.392 . S
H1312 C1331 0.949 . S
H1313 C1332 0.950 . S
H1314 C1334 0.950 . S
H1315 C1335 0.950 . S
H1316 C1337 0.950 . S
H1317 C1340 0.950 . S
H1318 C1341 0.950 . S
H1319 C1343 0.951 . S
H1320 C1344 0.949 . S
H1321 C1346 0.949 . S
H1322 C1347 0.950 . S
H1323 C1349 0.950 . S
H1324 C1350 0.950 . S
H1325 C1352 0.950 . S
H1326 C1355 0.950 . S
H1327 C1356 0.950 . S
H1328 C1358 0.951 . S
H1329 C1359 0.949 . S
C1330 C1331 1.376 . S
C1330 C1335 1.386 . S
C1330 C1336 1.483 . S
C1331 H1312 0.949 . S
C1331 C1330 1.376 . S
C1331 C1332 1.397 . S
C1332 H1313 0.950 . S
C1332 C1331 1.397 . S
C1332 C1333 1.391 . S
C1333 C1332 1.391 . S
C1333 C1334 1.405 . S
C1334 H1314 0.950 . S
C1334 C1333 1.405 . S
C1334 C1335 1.367 . S
C1335 H1315 0.950 . S
C1335 C1330 1.386 . S
C1335 C1334 1.367 . S
C1336 C1330 1.483 . S
C1336 C1337 1.382 . S
C1336 C1338 1.403 . S
C1337 H1316 0.950 . S
C1337 C1336 1.382 . S
C1337 C1353 1.411 . S
C1338 C1336 1.403 . S
C1338 C1339 1.489 . S
C1338 C1352 1.411 . S
C1339 C1338 1.489 . S
C1339 C1340 1.383 . S
C1339 C1344 1.382 . S
C1340 H1317 0.950 . S
C1340 C1339 1.383 . S
C1340 C1341 1.395 . S
C1341 H1318 0.950 . S
C1341 C1340 1.395 . S
C1341 C1342 1.288 . S
C1342 C1341 1.288 . S
C1342 C1343 1.392 . S
C1343 H1319 0.951 . S
C1343 C1342 1.392 . S
C1343 C1344 1.392 . S
C1344 H1320 0.949 . S
C1344 C1339 1.382 . S
C1344 C1343 1.392 . S
C1345 C1346 1.376 . S
C1345 C1350 1.386 . S
C1345 C1351 1.483 . S
C1346 H1321 0.949 . S
C1346 C1345 1.376 . S
C1346 C1347 1.397 . S
C1347 H1322 0.950 . S
C1347 C1346 1.397 . S
C1347 C1348 1.391 . S
C1348 C1347 1.391 . S
C1348 C1349 1.405 . S
C1349 H1323 0.950 . S
C1349 C1348 1.405 . S
C1349 C1350 1.367 . S
C1350 H1324 0.950 . S
C1350 C1345 1.386 . S
C1350 C1349 1.367 . S
C1351 C1345 1.483 . S
C1351 C1352 1.382 . S
C1351 C1353 1.403 . S
C1352 H1325 0.950 . S
C1352 C1338 1.411 . S
C1352 C1351 1.382 . S
C1353 C1337 1.411 . S
C1353 C1351 1.403 . S
C1353 C1354 1.489 . S
C1354 C1353 1.489 . S
C1354 C1355 1.383 . S
C1354 C1359 1.382 . S
C1355 H1326 0.950 . S
C1355 C1354 1.383 . S
C1355 C1356 1.395 . S
C1356 H1327 0.950 . S
C1356 C1355 1.395 . S
C1356 C1357 1.288 . S
C1357 C1356 1.288 . S
C1357 C1358 1.392 . S
C1358 H1328 0.951 . S
C1358 C1357 1.392 . S
C1358 C1359 1.392 . S
C1359 H1329 0.949 . S
C1359 C1354 1.382 . S
C1359 C1358 1.392 . S
H1360 C1379 0.949 . S
H1361 C1380 0.950 . S
H1362 C1382 0.950 . S
H1363 C1383 0.950 . S
H1364 C1385 0.950 . S
H1365 C1388 0.950 . S
H1366 C1389 0.950 . S
H1367 C1391 0.951 . S
H1368 C1392 0.949 . S
H1369 C1394 0.949 . S
H1370 C1395 0.950 . S
H1371 C1397 0.950 . S
H1372 C1398 0.950 . S
H1373 C1400 0.950 . S
H1374 C1403 0.950 . S
H1375 C1404 0.950 . S
H1376 C1406 0.951 . S
H1377 C1407 0.949 . S
C1378 C1379 1.376 . S
C1378 C1383 1.386 . S
C1378 C1384 1.483 . S
C1379 H1360 0.949 . S
C1379 C1378 1.376 . S
C1379 C1380 1.397 . S
C1380 H1361 0.950 . S
C1380 C1379 1.397 . S
C1380 C1381 1.391 . S
C1381 C1380 1.391 . S
C1381 C1382 1.405 . S
C1382 H1362 0.950 . S
C1382 C1381 1.405 . S
C1382 C1383 1.367 . S
C1383 H1363 0.950 . S
C1383 C1378 1.386 . S
C1383 C1382 1.367 . S
C1384 C1378 1.483 . S
C1384 C1385 1.382 . S
C1384 C1386 1.403 . S
C1385 H1364 0.950 . S
C1385 C1384 1.382 . S
C1385 C1401 1.411 . S
C1386 C1384 1.403 . S
C1386 C1387 1.489 . S
C1386 C1400 1.411 . S
C1387 C1386 1.489 . S
C1387 C1388 1.383 . S
C1387 C1392 1.382 . S
C1388 H1365 0.950 . S
C1388 C1387 1.383 . S
C1388 C1389 1.395 . S
C1389 H1366 0.950 . S
C1389 C1388 1.395 . S
C1389 C1390 1.288 . S
C1390 C1389 1.288 . S
C1390 C1391 1.392 . S
C1391 H1367 0.951 . S
C1391 C1390 1.392 . S
C1391 C1392 1.392 . S
C1392 H1368 0.949 . S
C1392 C1387 1.382 . S
C1392 C1391 1.392 . S
C1393 C1394 1.376 . S
C1393 C1398 1.386 . S
C1393 C1399 1.483 . S
C1394 H1369 0.949 . S
C1394 C1393 1.376 . S
C1394 C1395 1.397 . S
C1395 H1370 0.950 . S
C1395 C1394 1.397 . S
C1395 C1396 1.391 . S
C1396 C1395 1.391 . S
C1396 C1397 1.405 . S
C1397 H1371 0.950 . S
C1397 C1396 1.405 . S
C1397 C1398 1.367 . S
C1398 H1372 0.950 . S
C1398 C1393 1.386 . S
C1398 C1397 1.367 . S
C1399 C1393 1.483 . S
C1399 C1400 1.382 . S
C1399 C1401 1.403 . S
C1400 H1373 0.950 . S
C1400 C1386 1.411 . S
C1400 C1399 1.382 . S
C1401 C1385 1.411 . S
C1401 C1399 1.403 . S
C1401 C1402 1.489 . S
C1402 C1401 1.489 . S
C1402 C1403 1.383 . S
C1402 C1407 1.382 . S
C1403 H1374 0.950 . S
C1403 C1402 1.383 . S
C1403 C1404 1.395 . S
C1404 H1375 0.950 . S
C1404 C1403 1.395 . S
C1404 C1405 1.288 . S
C1405 C1404 1.288 . S
C1405 C1406 1.392 . S
C1406 H1376 0.951 . S
C1406 C1405 1.392 . S
C1406 C1407 1.392 . S
C1407 H1377 0.949 . S
C1407 C1402 1.382 . S
C1407 C1406 1.392 . S
H1408 C1427 0.949 . S
H1409 C1428 0.950 . S
H1410 C1430 0.950 . S
H1411 C1431 0.950 . S
H1412 C1433 0.950 . S
H1413 C1436 0.950 . S
H1414 C1437 0.950 . S
H1415 C1439 0.951 . S
H1416 C1440 0.949 . S
H1417 C1442 0.949 . S
H1418 C1443 0.950 . S
H1419 C1445 0.950 . S
H1420 C1446 0.950 . S
H1421 C1448 0.950 . S
H1422 C1451 0.950 . S
H1423 C1452 0.950 . S
H1424 C1454 0.951 . S
H1425 C1455 0.949 . S
C1426 C1427 1.376 . S
C1426 C1431 1.386 . S
C1426 C1432 1.483 . S
C1427 H1408 0.949 . S
C1427 C1426 1.376 . S
C1427 C1428 1.397 . S
C1428 H1409 0.950 . S
C1428 C1427 1.397 . S
C1428 C1429 1.391 . S
C1429 C1428 1.391 . S
C1429 C1430 1.405 . S
C1430 H1410 0.950 . S
C1430 C1429 1.405 . S
C1430 C1431 1.367 . S
C1431 H1411 0.950 . S
C1431 C1426 1.386 . S
C1431 C1430 1.367 . S
C1432 C1426 1.483 . S
C1432 C1433 1.382 . S
C1432 C1434 1.403 . S
C1433 H1412 0.950 . S
C1433 C1432 1.382 . S
C1433 C1449 1.411 . S
C1434 C1432 1.403 . S
C1434 C1435 1.489 . S
C1434 C1448 1.411 . S
C1435 C1434 1.489 . S
C1435 C1436 1.383 . S
C1435 C1440 1.382 . S
C1436 H1413 0.950 . S
C1436 C1435 1.383 . S
C1436 C1437 1.395 . S
C1437 H1414 0.950 . S
C1437 C1436 1.395 . S
C1437 C1438 1.288 . S
C1438 C1437 1.288 . S
C1438 C1439 1.392 . S
C1439 H1415 0.951 . S
C1439 C1438 1.392 . S
C1439 C1440 1.392 . S
C1440 H1416 0.949 . S
C1440 C1435 1.382 . S
C1440 C1439 1.392 . S
C1441 C1442 1.376 . S
C1441 C1446 1.386 . S
C1441 C1447 1.483 . S
C1442 H1417 0.949 . S
C1442 C1441 1.376 . S
C1442 C1443 1.397 . S
C1443 H1418 0.950 . S
C1443 C1442 1.397 . S
C1443 C1444 1.391 . S
C1444 C1443 1.391 . S
C1444 C1445 1.405 . S
C1445 H1419 0.950 . S
C1445 C1444 1.405 . S
C1445 C1446 1.367 . S
C1446 H1420 0.950 . S
C1446 C1441 1.386 . S
C1446 C1445 1.367 . S
C1447 C1441 1.483 . S
C1447 C1448 1.382 . S
C1447 C1449 1.403 . S
C1448 H1421 0.950 . S
C1448 C1434 1.411 . S
C1448 C1447 1.382 . S
C1449 C1433 1.411 . S
C1449 C1447 1.403 . S
C1449 C1450 1.489 . S
C1450 C1449 1.489 . S
C1450 C1451 1.383 . S
C1450 C1455 1.382 . S
C1451 H1422 0.950 . S
C1451 C1450 1.383 . S
C1451 C1452 1.395 . S
C1452 H1423 0.950 . S
C1452 C1451 1.395 . S
C1452 C1453 1.288 . S
C1453 C1452 1.288 . S
C1453 C1454 1.392 . S
C1454 H1424 0.951 . S
C1454 C1453 1.392 . S
C1454 C1455 1.392 . S
C1455 H1425 0.949 . S
C1455 C1450 1.382 . S
C1455 C1454 1.392 . S
H1456 C1475 0.949 . S
H1457 C1476 0.950 . S
H1458 C1478 0.950 . S
H1459 C1479 0.950 . S
H1460 C1481 0.950 . S
H1461 C1484 0.950 . S
H1462 C1485 0.950 . S
H1463 C1487 0.951 . S
H1464 C1488 0.949 . S
H1465 C1490 0.949 . S
H1466 C1491 0.950 . S
H1467 C1493 0.950 . S
H1468 C1494 0.950 . S
H1469 C1496 0.950 . S
H1470 C1499 0.950 . S
H1471 C1500 0.950 . S
H1472 C1502 0.951 . S
H1473 C1503 0.949 . S
C1474 C1475 1.376 . S
C1474 C1479 1.386 . S
C1474 C1480 1.483 . S
C1475 H1456 0.949 . S
C1475 C1474 1.376 . S
C1475 C1476 1.397 . S
C1476 H1457 0.950 . S
C1476 C1475 1.397 . S
C1476 C1477 1.391 . S
C1477 C1476 1.391 . S
C1477 C1478 1.405 . S
C1478 H1458 0.950 . S
C1478 C1477 1.405 . S
C1478 C1479 1.367 . S
C1479 H1459 0.950 . S
C1479 C1474 1.386 . S
C1479 C1478 1.367 . S
C1480 C1474 1.483 . S
C1480 C1481 1.382 . S
C1480 C1482 1.403 . S
C1481 H1460 0.950 . S
C1481 C1480 1.382 . S
C1481 C1497 1.411 . S
C1482 C1480 1.403 . S
C1482 C1483 1.489 . S
C1482 C1496 1.411 . S
C1483 C1482 1.489 . S
C1483 C1484 1.383 . S
C1483 C1488 1.382 . S
C1484 H1461 0.950 . S
C1484 C1483 1.383 . S
C1484 C1485 1.395 . S
C1485 H1462 0.950 . S
C1485 C1484 1.395 . S
C1485 C1486 1.288 . S
C1486 C1485 1.288 . S
C1486 C1487 1.392 . S
C1487 H1463 0.951 . S
C1487 C1486 1.392 . S
C1487 C1488 1.392 . S
C1488 H1464 0.949 . S
C1488 C1483 1.382 . S
C1488 C1487 1.392 . S
C1489 C1490 1.376 . S
C1489 C1494 1.386 . S
C1489 C1495 1.483 . S
C1490 H1465 0.949 . S
C1490 C1489 1.376 . S
C1490 C1491 1.397 . S
C1491 H1466 0.950 . S
C1491 C1490 1.397 . S
C1491 C1492 1.391 . S
C1492 C1491 1.391 . S
C1492 C1493 1.405 . S
C1493 H1467 0.950 . S
C1493 C1492 1.405 . S
C1493 C1494 1.367 . S
C1494 H1468 0.950 . S
C1494 C1489 1.386 . S
C1494 C1493 1.367 . S
C1495 C1489 1.483 . S
C1495 C1496 1.382 . S
C1495 C1497 1.403 . S
C1496 H1469 0.950 . S
C1496 C1482 1.411 . S
C1496 C1495 1.382 . S
C1497 C1481 1.411 . S
C1497 C1495 1.403 . S
C1497 C1498 1.489 . S
C1498 C1497 1.489 . S
C1498 C1499 1.383 . S
C1498 C1503 1.382 . S
C1499 H1470 0.950 . S
C1499 C1498 1.383 . S
C1499 C1500 1.395 . S
C1500 H1471 0.950 . S
C1500 C1499 1.395 . S
C1500 C1501 1.288 . S
C1501 C1500 1.288 . S
C1501 C1502 1.392 . S
C1502 H1472 0.951 . S
C1502 C1501 1.392 . S
C1502 C1503 1.392 . S
C1503 H1473 0.949 . S
C1503 C1498 1.382 . S
C1503 C1502 1.392 . S
C1504 C1505 1.387 . S
C1504 H1508 0.950 . S
C1504 C1513 1.390 . S
C1505 C1504 1.387 . S
C1505 C1507 1.387 . S
H1506 C1513 0.950 . S
C1507 C1505 1.387 . S
C1507 C1509 1.390 . S
C1507 H1511 0.950 . S
H1508 C1504 0.950 . S
C1509 C1507 1.390 . S
C1509 C1510 1.387 . S
C1509 H1512 0.950 . S
C1510 C1509 1.387 . S
C1510 C1513 1.387 . S
H1511 C1507 0.950 . S
H1512 C1509 0.950 . S
C1513 C1504 1.390 . S
C1513 H1506 0.950 . S
C1513 C1510 1.387 . S
C1514 C1515 1.387 . S
C1514 H1518 0.950 . S
C1514 C1523 1.390 . S
C1515 C1514 1.387 . S
C1515 C1517 1.387 . S
H1516 C1523 0.950 . S
C1517 C1515 1.387 . S
C1517 C1519 1.390 . S
C1517 H1521 0.950 . S
H1518 C1514 0.950 . S
C1519 C1517 1.390 . S
C1519 C1520 1.387 . S
C1519 H1522 0.950 . S
C1520 C1519 1.387 . S
C1520 C1523 1.387 . S
H1521 C1517 0.950 . S
H1522 C1519 0.950 . S
C1523 C1514 1.390 . S
C1523 H1516 0.950 . S
C1523 C1520 1.387 . S
C1524 C1525 1.387 . S
C1524 H1528 0.950 . S
C1524 C1533 1.390 . S
C1525 C1524 1.387 . S
C1525 C1527 1.387 . S
H1526 C1533 0.950 . S
C1527 C1525 1.387 . S
C1527 C1529 1.390 . S
C1527 H1531 0.950 . S
H1528 C1524 0.950 . S
C1529 C1527 1.390 . S
C1529 C1530 1.387 . S
C1529 H1532 0.950 . S
C1530 C1529 1.387 . S
C1530 C1533 1.387 . S
H1531 C1527 0.950 . S
H1532 C1529 0.950 . S
C1533 C1524 1.390 . S
C1533 H1526 0.950 . S
C1533 C1530 1.387 . S
C1534 C1535 1.387 . S
C1534 H1538 0.950 . S
C1534 C1543 1.390 . S
C1535 C1534 1.387 . S
C1535 C1537 1.387 . S
H1536 C1543 0.950 . S
C1537 C1535 1.387 . S
C1537 C1539 1.390 . S
C1537 H1541 0.950 . S
H1538 C1534 0.950 . S
C1539 C1537 1.390 . S
C1539 C1540 1.387 . S
C1539 H1542 0.950 . S
C1540 C1539 1.387 . S
C1540 C1543 1.387 . S
H1541 C1537 0.950 . S
H1542 C1539 0.950 . S
C1543 C1534 1.390 . S
C1543 H1536 0.950 . S
C1543 C1540 1.387 . S
C1544 C1545 1.387 . S
C1544 H1548 0.950 . S
C1544 C1553 1.390 . S
C1545 C1544 1.387 . S
C1545 C1547 1.387 . S
H1546 C1553 0.950 . S
C1547 C1545 1.387 . S
C1547 C1549 1.390 . S
C1547 H1551 0.950 . S
H1548 C1544 0.950 . S
C1549 C1547 1.390 . S
C1549 C1550 1.387 . S
C1549 H1552 0.950 . S
C1550 C1549 1.387 . S
C1550 C1553 1.387 . S
H1551 C1547 0.950 . S
H1552 C1549 0.950 . S
C1553 C1544 1.390 . S
C1553 H1546 0.950 . S
C1553 C1550 1.387 . S
C1554 C1555 1.387 . S
C1554 H1558 0.950 . S
C1554 C1563 1.390 . S
C1555 C1554 1.387 . S
C1555 C1557 1.387 . S
H1556 C1563 0.950 . S
C1557 C1555 1.387 . S
C1557 C1559 1.390 . S
C1557 H1561 0.950 . S
H1558 C1554 0.950 . S
C1559 C1557 1.390 . S
C1559 C1560 1.387 . S
C1559 H1562 0.950 . S
C1560 C1559 1.387 . S
C1560 C1563 1.387 . S
H1561 C1557 0.950 . S
H1562 C1559 0.950 . S
C1563 C1554 1.390 . S
C1563 H1556 0.950 . S
C1563 C1560 1.387 . S
C1564 C1565 1.387 . S
C1564 H1568 0.950 . S
C1564 C1573 1.390 . S
C1565 C1564 1.387 . S
C1565 C1567 1.387 . S
H1566 C1573 0.950 . S
C1567 C1565 1.387 . S
C1567 C1569 1.390 . S
C1567 H1571 0.950 . S
H1568 C1564 0.950 . S
C1569 C1567 1.390 . S
C1569 C1570 1.387 . S
C1569 H1572 0.950 . S
C1570 C1569 1.387 . S
C1570 C1573 1.387 . S
H1571 C1567 0.950 . S
H1572 C1569 0.950 . S
C1573 C1564 1.390 . S
C1573 H1566 0.950 . S
C1573 C1570 1.387 . S
C1574 C1575 1.387 . S
C1574 H1578 0.950 . S
C1574 C1583 1.390 . S
C1575 C1574 1.387 . S
C1575 C1577 1.387 . S
H1576 C1583 0.950 . S
C1577 C1575 1.387 . S
C1577 C1579 1.390 . S
C1577 H1581 0.950 . S
H1578 C1574 0.950 . S
C1579 C1577 1.390 . S
C1579 C1580 1.387 . S
C1579 H1582 0.950 . S
C1580 C1579 1.387 . S
C1580 C1583 1.387 . S
H1581 C1577 0.950 . S
H1582 C1579 0.950 . S
C1583 C1574 1.390 . S
C1583 H1576 0.950 . S
C1583 C1580 1.387 . S
C1584 C1585 1.387 . S
C1584 H1588 0.950 . S
C1584 C1593 1.390 . S
C1585 C1584 1.387 . S
C1585 C1587 1.387 . S
H1586 C1593 0.950 . S
C1587 C1585 1.387 . S
C1587 C1589 1.390 . S
C1587 H1591 0.950 . S
H1588 C1584 0.950 . S
C1589 C1587 1.390 . S
C1589 C1590 1.387 . S
C1589 H1592 0.950 . S
C1590 C1589 1.387 . S
C1590 C1593 1.387 . S
H1591 C1587 0.950 . S
H1592 C1589 0.950 . S
C1593 C1584 1.390 . S
C1593 H1586 0.950 . S
C1593 C1590 1.387 . S
C1594 C1595 1.387 . S
C1594 H1598 0.950 . S
C1594 C1603 1.390 . S
C1595 C1594 1.387 . S
C1595 C1597 1.387 . S
H1596 C1603 0.950 . S
C1597 C1595 1.387 . S
C1597 C1599 1.390 . S
C1597 H1601 0.950 . S
H1598 C1594 0.950 . S
C1599 C1597 1.390 . S
C1599 C1600 1.387 . S
C1599 H1602 0.950 . S
C1600 C1599 1.387 . S
C1600 C1603 1.387 . S
H1601 C1597 0.950 . S
H1602 C1599 0.950 . S
C1603 C1594 1.390 . S
C1603 H1596 0.950 . S
C1603 C1600 1.387 . S
C1604 C1605 1.387 . S
C1604 H1608 0.950 . S
C1604 C1613 1.390 . S
C1605 C1604 1.387 . S
C1605 C1607 1.387 . S
H1606 C1613 0.950 . S
C1607 C1605 1.387 . S
C1607 C1609 1.390 . S
C1607 H1611 0.950 . S
H1608 C1604 0.950 . S
C1609 C1607 1.390 . S
C1609 C1610 1.387 . S
C1609 H1612 0.950 . S
C1610 C1609 1.387 . S
C1610 C1613 1.387 . S
H1611 C1607 0.950 . S
H1612 C1609 0.950 . S
C1613 C1604 1.390 . S
C1613 H1606 0.950 . S
C1613 C1610 1.387 . S
C1614 C1615 1.387 . S
C1614 H1618 0.950 . S
C1614 C1623 1.390 . S
C1615 C1614 1.387 . S
C1615 C1617 1.387 . S
H1616 C1623 0.950 . S
C1617 C1615 1.387 . S
C1617 C1619 1.390 . S
C1617 H1621 0.950 . S
H1618 C1614 0.950 . S
C1619 C1617 1.390 . S
C1619 C1620 1.387 . S
C1619 H1622 0.950 . S
C1620 C1619 1.387 . S
C1620 C1623 1.387 . S
H1621 C1617 0.950 . S
H1622 C1619 0.950 . S
C1623 C1614 1.390 . S
C1623 H1616 0.950 . S
C1623 C1620 1.387 . S
C1624 C1625 1.387 . S
C1624 H1628 0.950 . S
C1624 C1633 1.390 . S
C1625 C1624 1.387 . S
C1625 C1627 1.387 . S
H1626 C1633 0.950 . S
C1627 C1625 1.387 . S
C1627 C1629 1.390 . S
C1627 H1631 0.950 . S
H1628 C1624 0.950 . S
C1629 C1627 1.390 . S
C1629 C1630 1.387 . S
C1629 H1632 0.950 . S
C1630 C1629 1.387 . S
C1630 C1633 1.387 . S
H1631 C1627 0.950 . S
H1632 C1629 0.950 . S
C1633 C1624 1.390 . S
C1633 H1626 0.950 . S
C1633 C1630 1.387 . S
C1634 C1635 1.387 . S
C1634 H1638 0.950 . S
C1634 C1643 1.390 . S
C1635 C1634 1.387 . S
C1635 C1637 1.387 . S
H1636 C1643 0.950 . S
C1637 C1635 1.387 . S
C1637 C1639 1.390 . S
C1637 H1641 0.950 . S
H1638 C1634 0.950 . S
C1639 C1637 1.390 . S
C1639 C1640 1.387 . S
C1639 H1642 0.950 . S
C1640 C1639 1.387 . S
C1640 C1643 1.387 . S
H1641 C1637 0.950 . S
H1642 C1639 0.950 . S
C1643 C1634 1.390 . S
C1643 H1636 0.950 . S
C1643 C1640 1.387 . S
C1644 C1645 1.387 . S
C1644 H1648 0.950 . S
C1644 C1653 1.390 . S
C1645 C1644 1.387 . S
C1645 C1647 1.387 . S
H1646 C1653 0.950 . S
C1647 C1645 1.387 . S
C1647 C1649 1.390 . S
C1647 H1651 0.950 . S
H1648 C1644 0.950 . S
C1649 C1647 1.390 . S
C1649 C1650 1.387 . S
C1649 H1652 0.950 . S
C1650 C1649 1.387 . S
C1650 C1653 1.387 . S
H1651 C1647 0.950 . S
H1652 C1649 0.950 . S
C1653 C1644 1.390 . S
C1653 H1646 0.950 . S
C1653 C1650 1.387 . S
C1654 C1655 1.387 . S
C1654 H1658 0.950 . S
C1654 C1663 1.390 . S
C1655 C1654 1.387 . S
C1655 C1657 1.387 . S
H1656 C1663 0.950 . S
C1657 C1655 1.387 . S
C1657 C1659 1.390 . S
C1657 H1661 0.950 . S
H1658 C1654 0.950 . S
C1659 C1657 1.390 . S
C1659 C1660 1.387 . S
C1659 H1662 0.950 . S
C1660 C1659 1.387 . S
C1660 C1663 1.387 . S
H1661 C1657 0.950 . S
H1662 C1659 0.950 . S
C1663 C1654 1.390 . S
C1663 H1656 0.950 . S
C1663 C1660 1.387 . S
C1664 C1665 1.387 . S
C1664 H1668 0.950 . S
C1664 C1673 1.390 . S
C1665 C1664 1.387 . S
C1665 C1667 1.387 . S
H1666 C1673 0.950 . S
C1667 C1665 1.387 . S
C1667 C1669 1.390 . S
C1667 H1671 0.950 . S
H1668 C1664 0.950 . S
C1669 C1667 1.390 . S
C1669 C1670 1.387 . S
C1669 H1672 0.950 . S
C1670 C1669 1.387 . S
C1670 C1673 1.387 . S
H1671 C1667 0.950 . S
H1672 C1669 0.950 . S
C1673 C1664 1.390 . S
C1673 H1666 0.950 . S
C1673 C1670 1.387 . S
C1674 C1675 1.387 . S
C1674 H1678 0.950 . S
C1674 C1683 1.390 . S
C1675 C1674 1.387 . S
C1675 C1677 1.387 . S
H1676 C1683 0.950 . S
C1677 C1675 1.387 . S
C1677 C1679 1.390 . S
C1677 H1681 0.950 . S
H1678 C1674 0.950 . S
C1679 C1677 1.390 . S
C1679 C1680 1.387 . S
C1679 H1682 0.950 . S
C1680 C1679 1.387 . S
C1680 C1683 1.387 . S
H1681 C1677 0.950 . S
H1682 C1679 0.950 . S
C1683 C1674 1.390 . S
C1683 H1676 0.950 . S
C1683 C1680 1.387 . S
C1684 C1685 1.387 . S
C1684 H1688 0.950 . S
C1684 C1693 1.390 . S
C1685 C1684 1.387 . S
C1685 C1687 1.387 . S
H1686 C1693 0.950 . S
C1687 C1685 1.387 . S
C1687 C1689 1.390 . S
C1687 H1691 0.950 . S
H1688 C1684 0.950 . S
C1689 C1687 1.390 . S
C1689 C1690 1.387 . S
C1689 H1692 0.950 . S
C1690 C1689 1.387 . S
C1690 C1693 1.387 . S
H1691 C1687 0.950 . S
H1692 C1689 0.950 . S
C1693 C1684 1.390 . S
C1693 H1686 0.950 . S
C1693 C1690 1.387 . S
C1694 C1695 1.387 . S
C1694 H1698 0.950 . S
C1694 C1703 1.390 . S
C1695 C1694 1.387 . S
C1695 C1697 1.387 . S
H1696 C1703 0.950 . S
C1697 C1695 1.387 . S
C1697 C1699 1.390 . S
C1697 H1701 0.950 . S
H1698 C1694 0.950 . S
C1699 C1697 1.390 . S
C1699 C1700 1.387 . S
C1699 H1702 0.950 . S
C1700 C1699 1.387 . S
C1700 C1703 1.387 . S
H1701 C1697 0.950 . S
H1702 C1699 0.950 . S
C1703 C1694 1.390 . S
C1703 H1696 0.950 . S
C1703 C1700 1.387 . S
C1704 C1705 1.387 . S
C1704 H1708 0.950 . S
C1704 C1713 1.390 . S
C1705 C1704 1.387 . S
C1705 C1707 1.387 . S
H1706 C1713 0.950 . S
C1707 C1705 1.387 . S
C1707 C1709 1.390 . S
C1707 H1711 0.950 . S
H1708 C1704 0.950 . S
C1709 C1707 1.390 . S
C1709 C1710 1.387 . S
C1709 H1712 0.950 . S
C1710 C1709 1.387 . S
C1710 C1713 1.387 . S
H1711 C1707 0.950 . S
H1712 C1709 0.950 . S
C1713 C1704 1.390 . S
C1713 H1706 0.950 . S
C1713 C1710 1.387 . S
C1714 C1715 1.387 . S
C1714 H1718 0.950 . S
C1714 C1723 1.390 . S
C1715 C1714 1.387 . S
C1715 C1717 1.387 . S
H1716 C1723 0.950 . S
C1717 C1715 1.387 . S
C1717 C1719 1.390 . S
C1717 H1721 0.950 . S
H1718 C1714 0.950 . S
C1719 C1717 1.390 . S
C1719 C1720 1.387 . S
C1719 H1722 0.950 . S
C1720 C1719 1.387 . S
C1720 C1723 1.387 . S
H1721 C1717 0.950 . S
H1722 C1719 0.950 . S
C1723 C1714 1.390 . S
C1723 H1716 0.950 . S
C1723 C1720 1.387 . S
C1724 C1725 1.387 . S
C1724 H1728 0.950 . S
C1724 C1733 1.390 . S
C1725 C1724 1.387 . S
C1725 C1727 1.387 . S
H1726 C1733 0.950 . S
C1727 C1725 1.387 . S
C1727 C1729 1.390 . S
C1727 H1731 0.950 . S
H1728 C1724 0.950 . S
C1729 C1727 1.390 . S
C1729 C1730 1.387 . S
C1729 H1732 0.950 . S
C1730 C1729 1.387 . S
C1730 C1733 1.387 . S
H1731 C1727 0.950 . S
H1732 C1729 0.950 . S
C1733 C1724 1.390 . S
C1733 H1726 0.950 . S
C1733 C1730 1.387 . S
C1734 C1735 1.387 . S
C1734 H1738 0.950 . S
C1734 C1743 1.390 . S
C1735 C1734 1.387 . S
C1735 C1737 1.387 . S
H1736 C1743 0.950 . S
C1737 C1735 1.387 . S
C1737 C1739 1.390 . S
C1737 H1741 0.950 . S
H1738 C1734 0.950 . S
C1739 C1737 1.390 . S
C1739 C1740 1.387 . S
C1739 H1742 0.950 . S
C1740 C1739 1.387 . S
C1740 C1743 1.387 . S
H1741 C1737 0.950 . S
H1742 C1739 0.950 . S
C1743 C1734 1.390 . S
C1743 H1736 0.950 . S
C1743 C1740 1.387 . S
C1744 C1745 1.387 . S
C1744 H1748 0.950 . S
C1744 C1753 1.390 . S
C1745 C1744 1.387 . S
C1745 C1747 1.387 . S
H1746 C1753 0.950 . S
C1747 C1745 1.387 . S
C1747 C1749 1.390 . S
C1747 H1751 0.950 . S
H1748 C1744 0.950 . S
C1749 C1747 1.390 . S
C1749 C1750 1.387 . S
C1749 H1752 0.950 . S
C1750 C1749 1.387 . S
C1750 C1753 1.387 . S
H1751 C1747 0.950 . S
H1752 C1749 0.950 . S
C1753 C1744 1.390 . S
C1753 H1746 0.950 . S
C1753 C1750 1.387 . S
C1754 C1755 1.387 . S
C1754 H1758 0.950 . S
C1754 C1763 1.390 . S
C1755 C1754 1.387 . S
C1755 C1757 1.387 . S
H1756 C1763 0.950 . S
C1757 C1755 1.387 . S
C1757 C1759 1.390 . S
C1757 H1761 0.950 . S
H1758 C1754 0.950 . S
C1759 C1757 1.390 . S
C1759 C1760 1.387 . S
C1759 H1762 0.950 . S
C1760 C1759 1.387 . S
C1760 C1763 1.387 . S
H1761 C1757 0.950 . S
H1762 C1759 0.950 . S
C1763 C1754 1.390 . S
C1763 H1756 0.950 . S
C1763 C1760 1.387 . S
C1764 C1765 1.387 . S
C1764 H1768 0.950 . S
C1764 C1773 1.390 . S
C1765 C1764 1.387 . S
C1765 C1767 1.387 . S
H1766 C1773 0.950 . S
C1767 C1765 1.387 . S
C1767 C1769 1.390 . S
C1767 H1771 0.950 . S
H1768 C1764 0.950 . S
C1769 C1767 1.390 . S
C1769 C1770 1.387 . S
C1769 H1772 0.950 . S
C1770 C1769 1.387 . S
C1770 C1773 1.387 . S
H1771 C1767 0.950 . S
H1772 C1769 0.950 . S
C1773 C1764 1.390 . S
C1773 H1766 0.950 . S
C1773 C1770 1.387 . S
C1774 C1775 1.387 . S
C1774 H1778 0.950 . S
C1774 C1783 1.390 . S
C1775 C1774 1.387 . S
C1775 C1777 1.387 . S
H1776 C1783 0.950 . S
C1777 C1775 1.387 . S
C1777 C1779 1.390 . S
C1777 H1781 0.950 . S
H1778 C1774 0.950 . S
C1779 C1777 1.390 . S
C1779 C1780 1.387 . S
C1779 H1782 0.950 . S
C1780 C1779 1.387 . S
C1780 C1783 1.387 . S
H1781 C1777 0.950 . S
H1782 C1779 0.950 . S
C1783 C1774 1.390 . S
C1783 H1776 0.950 . S
C1783 C1780 1.387 . S
C1784 C1785 1.387 . S
C1784 H1788 0.950 . S
C1784 C1793 1.390 . S
C1785 C1784 1.387 . S
C1785 C1787 1.387 . S
H1786 C1793 0.950 . S
C1787 C1785 1.387 . S
C1787 C1789 1.390 . S
C1787 H1791 0.950 . S
H1788 C1784 0.950 . S
C1789 C1787 1.390 . S
C1789 C1790 1.387 . S
C1789 H1792 0.950 . S
C1790 C1789 1.387 . S
C1790 C1793 1.387 . S
H1791 C1787 0.950 . S
H1792 C1789 0.950 . S
C1793 C1784 1.390 . S
C1793 H1786 0.950 . S
C1793 C1790 1.387 . S
C1794 C1795 1.387 . S
C1794 H1798 0.950 . S
C1794 C1803 1.390 . S
C1795 C1794 1.387 . S
C1795 C1797 1.387 . S
H1796 C1803 0.950 . S
C1797 C1795 1.387 . S
C1797 C1799 1.390 . S
C1797 H1801 0.950 . S
H1798 C1794 0.950 . S
C1799 C1797 1.390 . S
C1799 C1800 1.387 . S
C1799 H1802 0.950 . S
C1800 C1799 1.387 . S
C1800 C1803 1.387 . S
H1801 C1797 0.950 . S
H1802 C1799 0.950 . S
C1803 C1794 1.390 . S
C1803 H1796 0.950 . S
C1803 C1800 1.387 . S
C1804 C1805 1.387 . S
C1804 H1808 0.950 . S
C1804 C1813 1.390 . S
C1805 C1804 1.387 . S
C1805 C1807 1.387 . S
H1806 C1813 0.950 . S
C1807 C1805 1.387 . S
C1807 C1809 1.390 . S
C1807 H1811 0.950 . S
H1808 C1804 0.950 . S
C1809 C1807 1.390 . S
C1809 C1810 1.387 . S
C1809 H1812 0.950 . S
C1810 C1809 1.387 . S
C1810 C1813 1.387 . S
H1811 C1807 0.950 . S
H1812 C1809 0.950 . S
C1813 C1804 1.390 . S
C1813 H1806 0.950 . S
C1813 C1810 1.387 . S
C1814 C1815 1.387 . S
C1814 H1818 0.950 . S
C1814 C1823 1.390 . S
C1815 C1814 1.387 . S
C1815 C1817 1.387 . S
H1816 C1823 0.950 . S
C1817 C1815 1.387 . S
C1817 C1819 1.390 . S
C1817 H1821 0.950 . S
H1818 C1814 0.950 . S
C1819 C1817 1.390 . S
C1819 C1820 1.387 . S
C1819 H1822 0.950 . S
C1820 C1819 1.387 . S
C1820 C1823 1.387 . S
H1821 C1817 0.950 . S
H1822 C1819 0.950 . S
C1823 C1814 1.390 . S
C1823 H1816 0.950 . S
C1823 C1820 1.387 . S
C1824 C1825 1.387 . S
C1824 H1828 0.950 . S
C1824 C1833 1.390 . S
C1825 C1824 1.387 . S
C1825 C1827 1.387 . S
H1826 C1833 0.950 . S
C1827 C1825 1.387 . S
C1827 C1829 1.390 . S
C1827 H1831 0.950 . S
H1828 C1824 0.950 . S
C1829 C1827 1.390 . S
C1829 C1830 1.387 . S
C1829 H1832 0.950 . S
C1830 C1829 1.387 . S
C1830 C1833 1.387 . S
H1831 C1827 0.950 . S
H1832 C1829 0.950 . S
C1833 C1824 1.390 . S
C1833 H1826 0.950 . S
C1833 C1830 1.387 . S
C1834 C1835 1.387 . S
C1834 H1838 0.950 . S
C1834 C1843 1.390 . S
C1835 C1834 1.387 . S
C1835 C1837 1.387 . S
H1836 C1843 0.950 . S
C1837 C1835 1.387 . S
C1837 C1839 1.390 . S
C1837 H1841 0.950 . S
H1838 C1834 0.950 . S
C1839 C1837 1.390 . S
C1839 C1840 1.387 . S
C1839 H1842 0.950 . S
C1840 C1839 1.387 . S
C1840 C1843 1.387 . S
H1841 C1837 0.950 . S
H1842 C1839 0.950 . S
C1843 C1834 1.390 . S
C1843 H1836 0.950 . S
C1843 C1840 1.387 . S
C1844 C1845 1.387 . S
C1844 H1848 0.950 . S
C1844 C1853 1.390 . S
C1845 C1844 1.387 . S
C1845 C1847 1.387 . S
H1846 C1853 0.950 . S
C1847 C1845 1.387 . S
C1847 C1849 1.390 . S
C1847 H1851 0.950 . S
H1848 C1844 0.950 . S
C1849 C1847 1.390 . S
C1849 C1850 1.387 . S
C1849 H1852 0.950 . S
C1850 C1849 1.387 . S
C1850 C1853 1.387 . S
H1851 C1847 0.950 . S
H1852 C1849 0.950 . S
C1853 C1844 1.390 . S
C1853 H1846 0.950 . S
C1853 C1850 1.387 . S
C1854 C1855 1.387 . S
C1854 H1858 0.950 . S
C1854 C1863 1.390 . S
C1855 C1854 1.387 . S
C1855 C1857 1.387 . S
H1856 C1863 0.950 . S
C1857 C1855 1.387 . S
C1857 C1859 1.390 . S
C1857 H1861 0.950 . S
H1858 C1854 0.950 . S
C1859 C1857 1.390 . S
C1859 C1860 1.387 . S
C1859 H1862 0.950 . S
C1860 C1859 1.387 . S
C1860 C1863 1.387 . S
H1861 C1857 0.950 . S
H1862 C1859 0.950 . S
C1863 C1854 1.390 . S
C1863 H1856 0.950 . S
C1863 C1860 1.387 . S
C1864 C1865 1.387 . S
C1864 H1868 0.950 . S
C1864 C1873 1.390 . S
C1865 C1864 1.387 . S
C1865 C1867 1.387 . S
H1866 C1873 0.950 . S
C1867 C1865 1.387 . S
C1867 C1869 1.390 . S
C1867 H1871 0.950 . S
H1868 C1864 0.950 . S
C1869 C1867 1.390 . S
C1869 C1870 1.387 . S
C1869 H1872 0.950 . S
C1870 C1869 1.387 . S
C1870 C1873 1.387 . S
H1871 C1867 0.950 . S
H1872 C1869 0.950 . S
C1873 C1864 1.390 . S
C1873 H1866 0.950 . S
C1873 C1870 1.387 . S
C1874 C1875 1.387 . S
C1874 H1878 0.950 . S
C1874 C1883 1.390 . S
C1875 C1874 1.387 . S
C1875 C1877 1.387 . S
H1876 C1883 0.950 . S
C1877 C1875 1.387 . S
C1877 C1879 1.390 . S
C1877 H1881 0.950 . S
H1878 C1874 0.950 . S
C1879 C1877 1.390 . S
C1879 C1880 1.387 . S
C1879 H1882 0.950 . S
C1880 C1879 1.387 . S
C1880 C1883 1.387 . S
H1881 C1877 0.950 . S
H1882 C1879 0.950 . S
C1883 C1874 1.390 . S
C1883 H1876 0.950 . S
C1883 C1880 1.387 . S
C1884 C1885 1.387 . S
C1884 H1888 0.950 . S
C1884 C1893 1.390 . S
C1885 C1884 1.387 . S
C1885 C1887 1.387 . S
H1886 C1893 0.950 . S
C1887 C1885 1.387 . S
C1887 C1889 1.390 . S
C1887 H1891 0.950 . S
H1888 C1884 0.950 . S
C1889 C1887 1.390 . S
C1889 C1890 1.387 . S
C1889 H1892 0.950 . S
C1890 C1889 1.387 . S
C1890 C1893 1.387 . S
H1891 C1887 0.950 . S
H1892 C1889 0.950 . S
C1893 C1884 1.390 . S
C1893 H1886 0.950 . S
C1893 C1890 1.387 . S
C1894 C1895 1.387 . S
C1894 H1898 0.950 . S
C1894 C1903 1.390 . S
C1895 C1894 1.387 . S
C1895 C1897 1.387 . S
H1896 C1903 0.950 . S
C1897 C1895 1.387 . S
C1897 C1899 1.390 . S
C1897 H1901 0.950 . S
H1898 C1894 0.950 . S
C1899 C1897 1.390 . S
C1899 C1900 1.387 . S
C1899 H1902 0.950 . S
C1900 C1899 1.387 . S
C1900 C1903 1.387 . S
H1901 C1897 0.950 . S
H1902 C1899 0.950 . S
C1903 C1894 1.390 . S
C1903 H1896 0.950 . S
C1903 C1900 1.387 . S
C1904 C1905 1.387 . S
C1904 H1908 0.950 . S
C1904 C1913 1.390 . S
C1905 C1904 1.387 . S
C1905 C1907 1.387 . S
H1906 C1913 0.950 . S
C1907 C1905 1.387 . S
C1907 C1909 1.390 . S
C1907 H1911 0.950 . S
H1908 C1904 0.950 . S
C1909 C1907 1.390 . S
C1909 C1910 1.387 . S
C1909 H1912 0.950 . S
C1910 C1909 1.387 . S
C1910 C1913 1.387 . S
H1911 C1907 0.950 . S
H1912 C1909 0.950 . S
C1913 C1904 1.390 . S
C1913 H1906 0.950 . S
C1913 C1910 1.387 . S
C1914 C1915 1.387 . S
C1914 H1918 0.950 . S
C1914 C1923 1.390 . S
C1915 C1914 1.387 . S
C1915 C1917 1.387 . S
H1916 C1923 0.950 . S
C1917 C1915 1.387 . S
C1917 C1919 1.390 . S
C1917 H1921 0.950 . S
H1918 C1914 0.950 . S
C1919 C1917 1.390 . S
C1919 C1920 1.387 . S
C1919 H1922 0.950 . S
C1920 C1919 1.387 . S
C1920 C1923 1.387 . S
H1921 C1917 0.950 . S
H1922 C1919 0.950 . S
C1923 C1914 1.390 . S
C1923 H1916 0.950 . S
C1923 C1920 1.387 . S
C1924 C1925 1.387 . S
C1924 H1928 0.950 . S
C1924 C1933 1.390 . S
C1925 C1924 1.387 . S
C1925 C1927 1.387 . S
H1926 C1933 0.950 . S
C1927 C1925 1.387 . S
C1927 C1929 1.390 . S
C1927 H1931 0.950 . S
H1928 C1924 0.950 . S
C1929 C1927 1.390 . S
C1929 C1930 1.387 . S
C1929 H1932 0.950 . S
C1930 C1929 1.387 . S
C1930 C1933 1.387 . S
H1931 C1927 0.950 . S
H1932 C1929 0.950 . S
C1933 C1924 1.390 . S
C1933 H1926 0.950 . S
C1933 C1930 1.387 . S
C1934 C1935 1.387 . S
C1934 H1938 0.950 . S
C1934 C1943 1.390 . S
C1935 C1934 1.387 . S
C1935 C1937 1.387 . S
H1936 C1943 0.950 . S
C1937 C1935 1.387 . S
C1937 C1939 1.390 . S
C1937 H1941 0.950 . S
H1938 C1934 0.950 . S
C1939 C1937 1.390 . S
C1939 C1940 1.387 . S
C1939 H1942 0.950 . S
C1940 C1939 1.387 . S
C1940 C1943 1.387 . S
H1941 C1937 0.950 . S
H1942 C1939 0.950 . S
C1943 C1934 1.390 . S
C1943 H1936 0.950 . S
C1943 C1940 1.387 . S
C1944 C1945 1.387 . S
C1944 H1948 0.950 . S
C1944 C1953 1.390 . S
C1945 C1944 1.387 . S
C1945 C1947 1.387 . S
H1946 C1953 0.950 . S
C1947 C1945 1.387 . S
C1947 C1949 1.390 . S
C1947 H1951 0.950 . S
H1948 C1944 0.950 . S
C1949 C1947 1.390 . S
C1949 C1950 1.387 . S
C1949 H1952 0.950 . S
C1950 C1949 1.387 . S
C1950 C1953 1.387 . S
H1951 C1947 0.950 . S
H1952 C1949 0.950 . S
C1953 C1944 1.390 . S
C1953 H1946 0.950 . S
C1953 C1950 1.387 . S
C1954 C1955 1.387 . S
C1954 H1958 0.950 . S
C1954 C1963 1.390 . S
C1955 C1954 1.387 . S
C1955 C1957 1.387 . S
H1956 C1963 0.950 . S
C1957 C1955 1.387 . S
C1957 C1959 1.390 . S
C1957 H1961 0.950 . S
H1958 C1954 0.950 . S
C1959 C1957 1.390 . S
C1959 C1960 1.387 . S
C1959 H1962 0.950 . S
C1960 C1959 1.387 . S
C1960 C1963 1.387 . S
H1961 C1957 0.950 . S
H1962 C1959 0.950 . S
C1963 C1954 1.390 . S
C1963 H1956 0.950 . S
C1963 C1960 1.387 . S
C1964 C1965 1.387 . S
C1964 H1968 0.950 . S
C1964 C1973 1.390 . S
C1965 C1964 1.387 . S
C1965 C1967 1.387 . S
H1966 C1973 0.950 . S
C1967 C1965 1.387 . S
C1967 C1969 1.390 . S
C1967 H1971 0.950 . S
H1968 C1964 0.950 . S
C1969 C1967 1.390 . S
C1969 C1970 1.387 . S
C1969 H1972 0.950 . S
C1970 C1969 1.387 . S
C1970 C1973 1.387 . S
H1971 C1967 0.950 . S
H1972 C1969 0.950 . S
C1973 C1964 1.390 . S
C1973 H1966 0.950 . S
C1973 C1970 1.387 . S
C1974 C1975 1.387 . S
C1974 H1978 0.950 . S
C1974 C1983 1.390 . S
C1975 C1974 1.387 . S
C1975 C1977 1.387 . S
H1976 C1983 0.950 . S
C1977 C1975 1.387 . S
C1977 C1979 1.390 . S
C1977 H1981 0.950 . S
H1978 C1974 0.950 . S
C1979 C1977 1.390 . S
C1979 C1980 1.387 . S
C1979 H1982 0.950 . S
C1980 C1979 1.387 . S
C1980 C1983 1.387 . S
H1981 C1977 0.950 . S
H1982 C1979 0.950 . S
C1983 C1974 1.390 . S
C1983 H1976 0.950 . S
C1983 C1980 1.387 . S
C1984 C1985 1.387 . S
C1984 H1988 0.950 . S
C1984 C1993 1.390 . S
C1985 C1984 1.387 . S
C1985 C1987 1.387 . S
H1986 C1993 0.950 . S
C1987 C1985 1.387 . S
C1987 C1989 1.390 . S
C1987 H1991 0.950 . S
H1988 C1984 0.950 . S
C1989 C1987 1.390 . S
C1989 C1990 1.387 . S
C1989 H1992 0.950 . S
C1990 C1989 1.387 . S
C1990 C1993 1.387 . S
H1991 C1987 0.950 . S
H1992 C1989 0.950 . S
C1993 C1984 1.390 . S
C1993 H1986 0.950 . S
C1993 C1990 1.387 . S
C1994 C1995 1.387 . S
C1994 H1998 0.950 . S
C1994 C2003 1.390 . S
C1995 C1994 1.387 . S
C1995 C1997 1.387 . S
H1996 C2003 0.950 . S
C1997 C1995 1.387 . S
C1997 C1999 1.390 . S
C1997 H2001 0.950 . S
H1998 C1994 0.950 . S
C1999 C1997 1.390 . S
C1999 C2000 1.387 . S
C1999 H2002 0.950 . S
C2000 C1999 1.387 . S
C2000 C2003 1.387 . S
H2001 C1997 0.950 . S
H2002 C1999 0.950 . S
C2003 C1994 1.390 . S
C2003 H1996 0.950 . S
C2003 C2000 1.387 . S
C2004 C2005 1.387 . S
C2004 H2008 0.950 . S
C2004 C2013 1.390 . S
C2005 C2004 1.387 . S
C2005 C2007 1.387 . S
H2006 C2013 0.950 . S
C2007 C2005 1.387 . S
C2007 C2009 1.390 . S
C2007 H2011 0.950 . S
H2008 C2004 0.950 . S
C2009 C2007 1.390 . S
C2009 C2010 1.387 . S
C2009 H2012 0.950 . S
C2010 C2009 1.387 . S
C2010 C2013 1.387 . S
H2011 C2007 0.950 . S
H2012 C2009 0.950 . S
C2013 C2004 1.390 . S
C2013 H2006 0.950 . S
C2013 C2010 1.387 . S
C2014 C2015 1.387 . S
C2014 H2018 0.950 . S
C2014 C2023 1.390 . S
C2015 C2014 1.387 . S
C2015 C2017 1.387 . S
H2016 C2023 0.950 . S
C2017 C2015 1.387 . S
C2017 C2019 1.390 . S
C2017 H2021 0.950 . S
H2018 C2014 0.950 . S
C2019 C2017 1.390 . S
C2019 C2020 1.387 . S
C2019 H2022 0.950 . S
C2020 C2019 1.387 . S
C2020 C2023 1.387 . S
H2021 C2017 0.950 . S
H2022 C2019 0.950 . S
C2023 C2014 1.390 . S
C2023 H2016 0.950 . S
C2023 C2020 1.387 . S
C2024 C2025 1.387 . S
C2024 H2028 0.950 . S
C2024 C2033 1.390 . S
C2025 C2024 1.387 . S
C2025 C2027 1.387 . S
H2026 C2033 0.950 . S
C2027 C2025 1.387 . S
C2027 C2029 1.390 . S
C2027 H2031 0.950 . S
H2028 C2024 0.950 . S
C2029 C2027 1.390 . S
C2029 C2030 1.387 . S
C2029 H2032 0.950 . S
C2030 C2029 1.387 . S
C2030 C2033 1.387 . S
H2031 C2027 0.950 . S
H2032 C2029 0.950 . S
C2033 C2024 1.390 . S
C2033 H2026 0.950 . S
C2033 C2030 1.387 . S
C2034 C2035 1.387 . S
C2034 H2038 0.950 . S
C2034 C2043 1.390 . S
C2035 C2034 1.387 . S
C2035 C2037 1.387 . S
H2036 C2043 0.950 . S
C2037 C2035 1.387 . S
C2037 C2039 1.390 . S
C2037 H2041 0.950 . S
H2038 C2034 0.950 . S
C2039 C2037 1.390 . S
C2039 C2040 1.387 . S
C2039 H2042 0.950 . S
C2040 C2039 1.387 . S
C2040 C2043 1.387 . S
H2041 C2037 0.950 . S
H2042 C2039 0.950 . S
C2043 C2034 1.390 . S
C2043 H2036 0.950 . S
C2043 C2040 1.387 . S
C2044 C2045 1.387 . S
C2044 H2048 0.950 . S
C2044 C2053 1.390 . S
C2045 C2044 1.387 . S
C2045 C2047 1.387 . S
H2046 C2053 0.950 . S
C2047 C2045 1.387 . S
C2047 C2049 1.390 . S
C2047 H2051 0.950 . S
H2048 C2044 0.950 . S
C2049 C2047 1.390 . S
C2049 C2050 1.387 . S
C2049 H2052 0.950 . S
C2050 C2049 1.387 . S
C2050 C2053 1.387 . S
H2051 C2047 0.950 . S
H2052 C2049 0.950 . S
C2053 C2044 1.390 . S
C2053 H2046 0.950 . S
C2053 C2050 1.387 . S
C2054 C2055 1.387 . S
C2054 H2058 0.950 . S
C2054 C2063 1.390 . S
C2055 C2054 1.387 . S
C2055 C2057 1.387 . S
H2056 C2063 0.950 . S
C2057 C2055 1.387 . S
C2057 C2059 1.390 . S
C2057 H2061 0.950 . S
H2058 C2054 0.950 . S
C2059 C2057 1.390 . S
C2059 C2060 1.387 . S
C2059 H2062 0.950 . S
C2060 C2059 1.387 . S
C2060 C2063 1.387 . S
H2061 C2057 0.950 . S
H2062 C2059 0.950 . S
C2063 C2054 1.390 . S
C2063 H2056 0.950 . S
C2063 C2060 1.387 . S
C2064 C2065 1.387 . S
C2064 H2068 0.950 . S
C2064 C2073 1.390 . S
C2065 C2064 1.387 . S
C2065 C2067 1.387 . S
H2066 C2073 0.950 . S
C2067 C2065 1.387 . S
C2067 C2069 1.390 . S
C2067 H2071 0.950 . S
H2068 C2064 0.950 . S
C2069 C2067 1.390 . S
C2069 C2070 1.387 . S
C2069 H2072 0.950 . S
C2070 C2069 1.387 . S
C2070 C2073 1.387 . S
H2071 C2067 0.950 . S
H2072 C2069 0.950 . S
C2073 C2064 1.390 . S
C2073 H2066 0.950 . S
C2073 C2070 1.387 . S
C2074 C2075 1.387 . S
C2074 H2078 0.950 . S
C2074 C2083 1.390 . S
C2075 C2074 1.387 . S
C2075 C2077 1.387 . S
H2076 C2083 0.950 . S
C2077 C2075 1.387 . S
C2077 C2079 1.390 . S
C2077 H2081 0.950 . S
H2078 C2074 0.950 . S
C2079 C2077 1.390 . S
C2079 C2080 1.387 . S
C2079 H2082 0.950 . S
C2080 C2079 1.387 . S
C2080 C2083 1.387 . S
H2081 C2077 0.950 . S
H2082 C2079 0.950 . S
C2083 C2074 1.390 . S
C2083 H2076 0.950 . S
C2083 C2080 1.387 . S
C2084 C2085 1.387 . S
C2084 H2088 0.950 . S
C2084 C2093 1.390 . S
C2085 C2084 1.387 . S
C2085 C2087 1.387 . S
H2086 C2093 0.950 . S
C2087 C2085 1.387 . S
C2087 C2089 1.390 . S
C2087 H2091 0.950 . S
H2088 C2084 0.950 . S
C2089 C2087 1.390 . S
C2089 C2090 1.387 . S
C2089 H2092 0.950 . S
C2090 C2089 1.387 . S
C2090 C2093 1.387 . S
H2091 C2087 0.950 . S
H2092 C2089 0.950 . S
C2093 C2084 1.390 . S
C2093 H2086 0.950 . S
C2093 C2090 1.387 . S
C2094 C2095 1.387 . S
C2094 H2098 0.950 . S
C2094 C2103 1.390 . S
C2095 C2094 1.387 . S
C2095 C2097 1.387 . S
H2096 C2103 0.950 . S
C2097 C2095 1.387 . S
C2097 C2099 1.390 . S
C2097 H2101 0.950 . S
H2098 C2094 0.950 . S
C2099 C2097 1.390 . S
C2099 C2100 1.387 . S
C2099 H2102 0.950 . S
C2100 C2099 1.387 . S
C2100 C2103 1.387 . S
H2101 C2097 0.950 . S
H2102 C2099 0.950 . S
C2103 C2094 1.390 . S
C2103 H2096 0.950 . S
C2103 C2100 1.387 . S
C2104 C2105 1.387 . S
C2104 H2108 0.950 . S
C2104 C2113 1.390 . S
C2105 C2104 1.387 . S
C2105 C2107 1.387 . S
H2106 C2113 0.950 . S
C2107 C2105 1.387 . S
C2107 C2109 1.390 . S
C2107 H2111 0.950 . S
H2108 C2104 0.950 . S
C2109 C2107 1.390 . S
C2109 C2110 1.387 . S
C2109 H2112 0.950 . S
C2110 C2109 1.387 . S
C2110 C2113 1.387 . S
H2111 C2107 0.950 . S
H2112 C2109 0.950 . S
C2113 C2104 1.390 . S
C2113 H2106 0.950 . S
C2113 C2110 1.387 . S
C2114 C2115 1.387 . S
C2114 H2118 0.950 . S
C2114 C2123 1.390 . S
C2115 C2114 1.387 . S
C2115 C2117 1.387 . S
H2116 C2123 0.950 . S
C2117 C2115 1.387 . S
C2117 C2119 1.390 . S
C2117 H2121 0.950 . S
H2118 C2114 0.950 . S
C2119 C2117 1.390 . S
C2119 C2120 1.387 . S
C2119 H2122 0.950 . S
C2120 C2119 1.387 . S
C2120 C2123 1.387 . S
H2121 C2117 0.950 . S
H2122 C2119 0.950 . S
C2123 C2114 1.390 . S
C2123 H2116 0.950 . S
C2123 C2120 1.387 . S
C2124 C2125 1.387 . S
C2124 H2128 0.950 . S
C2124 C2133 1.390 . S
C2125 C2124 1.387 . S
C2125 C2127 1.387 . S
H2126 C2133 0.950 . S
C2127 C2125 1.387 . S
C2127 C2129 1.390 . S
C2127 H2131 0.950 . S
H2128 C2124 0.950 . S
C2129 C2127 1.390 . S
C2129 C2130 1.387 . S
C2129 H2132 0.950 . S
C2130 C2129 1.387 . S
C2130 C2133 1.387 . S
H2131 C2127 0.950 . S
H2132 C2129 0.950 . S
C2133 C2124 1.390 . S
C2133 H2126 0.950 . S
C2133 C2130 1.387 . S
C2134 C2135 1.387 . S
C2134 H2138 0.950 . S
C2134 C2143 1.390 . S
C2135 C2134 1.387 . S
C2135 C2137 1.387 . S
H2136 C2143 0.950 . S
C2137 C2135 1.387 . S
C2137 C2139 1.390 . S
C2137 H2141 0.950 . S
H2138 C2134 0.950 . S
C2139 C2137 1.390 . S
C2139 C2140 1.387 . S
C2139 H2142 0.950 . S
C2140 C2139 1.387 . S
C2140 C2143 1.387 . S
H2141 C2137 0.950 . S
H2142 C2139 0.950 . S
C2143 C2134 1.390 . S
C2143 H2136 0.950 . S
C2143 C2140 1.387 . S
C2144 C2145 1.387 . S
C2144 H2148 0.950 . S
C2144 C2153 1.390 . S
C2145 C2144 1.387 . S
C2145 C2147 1.387 . S
H2146 C2153 0.950 . S
C2147 C2145 1.387 . S
C2147 C2149 1.390 . S
C2147 H2151 0.950 . S
H2148 C2144 0.950 . S
C2149 C2147 1.390 . S
C2149 C2150 1.387 . S
C2149 H2152 0.950 . S
C2150 C2149 1.387 . S
C2150 C2153 1.387 . S
H2151 C2147 0.950 . S
H2152 C2149 0.950 . S
C2153 C2144 1.390 . S
C2153 H2146 0.950 . S
C2153 C2150 1.387 . S
C2154 C2155 1.387 . S
C2154 H2158 0.950 . S
C2154 C2163 1.390 . S
C2155 C2154 1.387 . S
C2155 C2157 1.387 . S
H2156 C2163 0.950 . S
C2157 C2155 1.387 . S
C2157 C2159 1.390 . S
C2157 H2161 0.950 . S
H2158 C2154 0.950 . S
C2159 C2157 1.390 . S
C2159 C2160 1.387 . S
C2159 H2162 0.950 . S
C2160 C2159 1.387 . S
C2160 C2163 1.387 . S
H2161 C2157 0.950 . S
H2162 C2159 0.950 . S
C2163 C2154 1.390 . S
C2163 H2156 0.950 . S
C2163 C2160 1.387 . S
C2164 C2165 1.387 . S
C2164 H2168 0.950 . S
C2164 C2173 1.390 . S
C2165 C2164 1.387 . S
C2165 C2167 1.387 . S
H2166 C2173 0.950 . S
C2167 C2165 1.387 . S
C2167 C2169 1.390 . S
C2167 H2171 0.950 . S
H2168 C2164 0.950 . S
C2169 C2167 1.390 . S
C2169 C2170 1.387 . S
C2169 H2172 0.950 . S
C2170 C2169 1.387 . S
C2170 C2173 1.387 . S
H2171 C2167 0.950 . S
H2172 C2169 0.950 . S
C2173 C2164 1.390 . S
C2173 H2166 0.950 . S
C2173 C2170 1.387 . S
C2174 C2175 1.387 . S
C2174 H2178 0.950 . S
C2174 C2183 1.390 . S
C2175 C2174 1.387 . S
C2175 C2177 1.387 . S
H2176 C2183 0.950 . S
C2177 C2175 1.387 . S
C2177 C2179 1.390 . S
C2177 H2181 0.950 . S
H2178 C2174 0.950 . S
C2179 C2177 1.390 . S
C2179 C2180 1.387 . S
C2179 H2182 0.950 . S
C2180 C2179 1.387 . S
C2180 C2183 1.387 . S
H2181 C2177 0.950 . S
H2182 C2179 0.950 . S
C2183 C2174 1.390 . S
C2183 H2176 0.950 . S
C2183 C2180 1.387 . S
C2184 C2185 1.387 . S
C2184 H2188 0.950 . S
C2184 C2193 1.390 . S
C2185 C2184 1.387 . S
C2185 C2187 1.387 . S
H2186 C2193 0.950 . S
C2187 C2185 1.387 . S
C2187 C2189 1.390 . S
C2187 H2191 0.950 . S
H2188 C2184 0.950 . S
C2189 C2187 1.390 . S
C2189 C2190 1.387 . S
C2189 H2192 0.950 . S
C2190 C2189 1.387 . S
C2190 C2193 1.387 . S
H2191 C2187 0.950 . S
H2192 C2189 0.950 . S
C2193 C2184 1.390 . S
C2193 H2186 0.950 . S
C2193 C2190 1.387 . S
C2194 C2195 1.387 . S
C2194 H2198 0.950 . S
C2194 C2203 1.390 . S
C2195 C2194 1.387 . S
C2195 C2197 1.387 . S
H2196 C2203 0.950 . S
C2197 C2195 1.387 . S
C2197 C2199 1.390 . S
C2197 H2201 0.950 . S
H2198 C2194 0.950 . S
C2199 C2197 1.390 . S
C2199 C2200 1.387 . S
C2199 H2202 0.950 . S
C2200 C2199 1.387 . S
C2200 C2203 1.387 . S
H2201 C2197 0.950 . S
H2202 C2199 0.950 . S
C2203 C2194 1.390 . S
C2203 H2196 0.950 . S
C2203 C2200 1.387 . S
C2204 C2205 1.387 . S
C2204 H2208 0.950 . S
C2204 C2213 1.390 . S
C2205 C2204 1.387 . S
C2205 C2207 1.387 . S
H2206 C2213 0.950 . S
C2207 C2205 1.387 . S
C2207 C2209 1.390 . S
C2207 H2211 0.950 . S
H2208 C2204 0.950 . S
C2209 C2207 1.390 . S
C2209 C2210 1.387 . S
C2209 H2212 0.950 . S
C2210 C2209 1.387 . S
C2210 C2213 1.387 . S
H2211 C2207 0.950 . S
H2212 C2209 0.950 . S
C2213 C2204 1.390 . S
C2213 H2206 0.950 . S
C2213 C2210 1.387 . S
C2214 C2215 1.387 . S
C2214 H2218 0.950 . S
C2214 C2223 1.390 . S
C2215 C2214 1.387 . S
C2215 C2217 1.387 . S
H2216 C2223 0.950 . S
C2217 C2215 1.387 . S
C2217 C2219 1.390 . S
C2217 H2221 0.950 . S
H2218 C2214 0.950 . S
C2219 C2217 1.390 . S
C2219 C2220 1.387 . S
C2219 H2222 0.950 . S
C2220 C2219 1.387 . S
C2220 C2223 1.387 . S
H2221 C2217 0.950 . S
H2222 C2219 0.950 . S
C2223 C2214 1.390 . S
C2223 H2216 0.950 . S
C2223 C2220 1.387 . S
C2224 C2225 1.387 . S
C2224 H2228 0.950 . S
C2224 C2233 1.390 . S
C2225 C2224 1.387 . S
C2225 C2227 1.387 . S
H2226 C2233 0.950 . S
C2227 C2225 1.387 . S
C2227 C2229 1.390 . S
C2227 H2231 0.950 . S
H2228 C2224 0.950 . S
C2229 C2227 1.390 . S
C2229 C2230 1.387 . S
C2229 H2232 0.950 . S
C2230 C2229 1.387 . S
C2230 C2233 1.387 . S
H2231 C2227 0.950 . S
H2232 C2229 0.950 . S
C2233 C2224 1.390 . S
C2233 H2226 0.950 . S
C2233 C2230 1.387 . S
C2234 C2235 1.387 . S
C2234 H2238 0.950 . S
C2234 C2243 1.390 . S
C2235 C2234 1.387 . S
C2235 C2237 1.387 . S
H2236 C2243 0.950 . S
C2237 C2235 1.387 . S
C2237 C2239 1.390 . S
C2237 H2241 0.950 . S
H2238 C2234 0.950 . S
C2239 C2237 1.390 . S
C2239 C2240 1.387 . S
C2239 H2242 0.950 . S
C2240 C2239 1.387 . S
C2240 C2243 1.387 . S
H2241 C2237 0.950 . S
H2242 C2239 0.950 . S
C2243 C2234 1.390 . S
C2243 H2236 0.950 . S
C2243 C2240 1.387 . S
C2244 C2245 1.387 . S
C2244 H2248 0.950 . S
C2244 C2253 1.390 . S
C2245 C2244 1.387 . S
C2245 C2247 1.387 . S
H2246 C2253 0.950 . S
C2247 C2245 1.387 . S
C2247 C2249 1.390 . S
C2247 H2251 0.950 . S
H2248 C2244 0.950 . S
C2249 C2247 1.390 . S
C2249 C2250 1.387 . S
C2249 H2252 0.950 . S
C2250 C2249 1.387 . S
C2250 C2253 1.387 . S
H2251 C2247 0.950 . S
H2252 C2249 0.950 . S
C2253 C2244 1.390 . S
C2253 H2246 0.950 . S
C2253 C2250 1.387 . S
C2254 C2255 1.387 . S
C2254 H2258 0.950 . S
C2254 C2263 1.390 . S
C2255 C2254 1.387 . S
C2255 C2257 1.387 . S
H2256 C2263 0.950 . S
C2257 C2255 1.387 . S
C2257 C2259 1.390 . S
C2257 H2261 0.950 . S
H2258 C2254 0.950 . S
C2259 C2257 1.390 . S
C2259 C2260 1.387 . S
C2259 H2262 0.950 . S
C2260 C2259 1.387 . S
C2260 C2263 1.387 . S
H2261 C2257 0.950 . S
H2262 C2259 0.950 . S
C2263 C2254 1.390 . S
C2263 H2256 0.950 . S
C2263 C2260 1.387 . S
C2264 C2265 1.387 . S
C2264 H2268 0.950 . S
C2264 C2273 1.390 . S
C2265 C2264 1.387 . S
C2265 C2267 1.387 . S
H2266 C2273 0.950 . S
C2267 C2265 1.387 . S
C2267 C2269 1.390 . S
C2267 H2271 0.950 . S
H2268 C2264 0.950 . S
C2269 C2267 1.390 . S
C2269 C2270 1.387 . S
C2269 H2272 0.950 . S
C2270 C2269 1.387 . S
C2270 C2273 1.387 . S
H2271 C2267 0.950 . S
H2272 C2269 0.950 . S
C2273 C2264 1.390 . S
C2273 H2266 0.950 . S
C2273 C2270 1.387 . S
C2274 C2275 1.387 . S
C2274 H2278 0.950 . S
C2274 C2283 1.390 . S
C2275 C2274 1.387 . S
C2275 C2277 1.387 . S
H2276 C2283 0.950 . S
C2277 C2275 1.387 . S
C2277 C2279 1.390 . S
C2277 H2281 0.950 . S
H2278 C2274 0.950 . S
C2279 C2277 1.390 . S
C2279 C2280 1.387 . S
C2279 H2282 0.950 . S
C2280 C2279 1.387 . S
C2280 C2283 1.387 . S
H2281 C2277 0.950 . S
H2282 C2279 0.950 . S
C2283 C2274 1.390 . S
C2283 H2276 0.950 . S
C2283 C2280 1.387 . S
C2284 C2285 1.387 . S
C2284 H2288 0.950 . S
C2284 C2293 1.390 . S
C2285 C2284 1.387 . S
C2285 C2287 1.387 . S
H2286 C2293 0.950 . S
C2287 C2285 1.387 . S
C2287 C2289 1.390 . S
C2287 H2291 0.950 . S
H2288 C2284 0.950 . S
C2289 C2287 1.390 . S
C2289 C2290 1.387 . S
C2289 H2292 0.950 . S
C2290 C2289 1.387 . S
C2290 C2293 1.387 . S
H2291 C2287 0.950 . S
H2292 C2289 0.950 . S
C2293 C2284 1.390 . S
C2293 H2286 0.950 . S
C2293 C2290 1.387 . S
C2294 C2295 1.387 . S
C2294 H2298 0.950 . S
C2294 C2303 1.390 . S
C2295 C2294 1.387 . S
C2295 C2297 1.387 . S
H2296 C2303 0.950 . S
C2297 C2295 1.387 . S
C2297 C2299 1.390 . S
C2297 H2301 0.950 . S
H2298 C2294 0.950 . S
C2299 C2297 1.390 . S
C2299 C2300 1.387 . S
C2299 H2302 0.950 . S
C2300 C2299 1.387 . S
C2300 C2303 1.387 . S
H2301 C2297 0.950 . S
H2302 C2299 0.950 . S
C2303 C2294 1.390 . S
C2303 H2296 0.950 . S
C2303 C2300 1.387 . S
C2304 C2305 1.387 . S
C2304 H2308 0.950 . S
C2304 C2313 1.390 . S
C2305 C2304 1.387 . S
C2305 C2307 1.387 . S
H2306 C2313 0.950 . S
C2307 C2305 1.387 . S
C2307 C2309 1.390 . S
C2307 H2311 0.950 . S
H2308 C2304 0.950 . S
C2309 C2307 1.390 . S
C2309 C2310 1.387 . S
C2309 H2312 0.950 . S
C2310 C2309 1.387 . S
C2310 C2313 1.387 . S
H2311 C2307 0.950 . S
H2312 C2309 0.950 . S
C2313 C2304 1.390 . S
C2313 H2306 0.950 . S
C2313 C2310 1.387 . S
C2314 C2315 1.387 . S
C2314 H2318 0.950 . S
C2314 C2323 1.390 . S
C2315 C2314 1.387 . S
C2315 C2317 1.387 . S
H2316 C2323 0.950 . S
C2317 C2315 1.387 . S
C2317 C2319 1.390 . S
C2317 H2321 0.950 . S
H2318 C2314 0.950 . S
C2319 C2317 1.390 . S
C2319 C2320 1.387 . S
C2319 H2322 0.950 . S
C2320 C2319 1.387 . S
C2320 C2323 1.387 . S
H2321 C2317 0.950 . S
H2322 C2319 0.950 . S
C2323 C2314 1.390 . S
C2323 H2316 0.950 . S
C2323 C2320 1.387 . S
C2324 C2325 1.387 . S
C2324 H2328 0.950 . S
C2324 C2333 1.390 . S
C2325 C2324 1.387 . S
C2325 C2327 1.387 . S
H2326 C2333 0.950 . S
C2327 C2325 1.387 . S
C2327 C2329 1.390 . S
C2327 H2331 0.950 . S
H2328 C2324 0.950 . S
C2329 C2327 1.390 . S
C2329 C2330 1.387 . S
C2329 H2332 0.950 . S
C2330 C2329 1.387 . S
C2330 C2333 1.387 . S
H2331 C2327 0.950 . S
H2332 C2329 0.950 . S
C2333 C2324 1.390 . S
C2333 H2326 0.950 . S
C2333 C2330 1.387 . S
C2334 C2335 1.387 . S
C2334 H2338 0.950 . S
C2334 C2343 1.390 . S
C2335 C2334 1.387 . S
C2335 C2337 1.387 . S
H2336 C2343 0.950 . S
C2337 C2335 1.387 . S
C2337 C2339 1.390 . S
C2337 H2341 0.950 . S
H2338 C2334 0.950 . S
C2339 C2337 1.390 . S
C2339 C2340 1.387 . S
C2339 H2342 0.950 . S
C2340 C2339 1.387 . S
C2340 C2343 1.387 . S
H2341 C2337 0.950 . S
H2342 C2339 0.950 . S
C2343 C2334 1.390 . S
C2343 H2336 0.950 . S
C2343 C2340 1.387 . S
C2344 C2345 1.387 . S
C2344 H2348 0.950 . S
C2344 C2353 1.390 . S
C2345 C2344 1.387 . S
C2345 C2347 1.387 . S
H2346 C2353 0.950 . S
C2347 C2345 1.387 . S
C2347 C2349 1.390 . S
C2347 H2351 0.950 . S
H2348 C2344 0.950 . S
C2349 C2347 1.390 . S
C2349 C2350 1.387 . S
C2349 H2352 0.950 . S
C2350 C2349 1.387 . S
C2350 C2353 1.387 . S
H2351 C2347 0.950 . S
H2352 C2349 0.950 . S
C2353 C2344 1.390 . S
C2353 H2346 0.950 . S
C2353 C2350 1.387 . S
C2354 C2355 1.387 . S
C2354 H2358 0.950 . S
C2354 C2363 1.390 . S
C2355 C2354 1.387 . S
C2355 C2357 1.387 . S
H2356 C2363 0.950 . S
C2357 C2355 1.387 . S
C2357 C2359 1.390 . S
C2357 H2361 0.950 . S
H2358 C2354 0.950 . S
C2359 C2357 1.390 . S
C2359 C2360 1.387 . S
C2359 H2362 0.950 . S
C2360 C2359 1.387 . S
C2360 C2363 1.387 . S
H2361 C2357 0.950 . S
H2362 C2359 0.950 . S
C2363 C2354 1.390 . S
C2363 H2356 0.950 . S
C2363 C2360 1.387 . S
C2364 C2365 1.387 . S
C2364 H2368 0.950 . S
C2364 C2373 1.390 . S
C2365 C2364 1.387 . S
C2365 C2367 1.387 . S
H2366 C2373 0.950 . S
C2367 C2365 1.387 . S
C2367 C2369 1.390 . S
C2367 H2371 0.950 . S
H2368 C2364 0.950 . S
C2369 C2367 1.390 . S
C2369 C2370 1.387 . S
C2369 H2372 0.950 . S
C2370 C2369 1.387 . S
C2370 C2373 1.387 . S
H2371 C2367 0.950 . S
H2372 C2369 0.950 . S
C2373 C2364 1.390 . S
C2373 H2366 0.950 . S
C2373 C2370 1.387 . S
C2374 C2375 1.387 . S
C2374 H2378 0.950 . S
C2374 C2383 1.390 . S
C2375 C2374 1.387 . S
C2375 C2377 1.387 . S
H2376 C2383 0.950 . S
C2377 C2375 1.387 . S
C2377 C2379 1.390 . S
C2377 H2381 0.950 . S
H2378 C2374 0.950 . S
C2379 C2377 1.390 . S
C2379 C2380 1.387 . S
C2379 H2382 0.950 . S
C2380 C2379 1.387 . S
C2380 C2383 1.387 . S
H2381 C2377 0.950 . S
H2382 C2379 0.950 . S
C2383 C2374 1.390 . S
C2383 H2376 0.950 . S
C2383 C2380 1.387 . S
C2384 C2385 1.387 . S
C2384 H2388 0.950 . S
C2384 C2393 1.390 . S
C2385 C2384 1.387 . S
C2385 C2387 1.387 . S
H2386 C2393 0.950 . S
C2387 C2385 1.387 . S
C2387 C2389 1.390 . S
C2387 H2391 0.950 . S
H2388 C2384 0.950 . S
C2389 C2387 1.390 . S
C2389 C2390 1.387 . S
C2389 H2392 0.950 . S
C2390 C2389 1.387 . S
C2390 C2393 1.387 . S
H2391 C2387 0.950 . S
H2392 C2389 0.950 . S
C2393 C2384 1.390 . S
C2393 H2386 0.950 . S
C2393 C2390 1.387 . S
C2394 C2395 1.387 . S
C2394 H2398 0.950 . S
C2394 C2403 1.390 . S
C2395 C2394 1.387 . S
C2395 C2397 1.387 . S
H2396 C2403 0.950 . S
C2397 C2395 1.387 . S
C2397 C2399 1.390 . S
C2397 H2401 0.950 . S
H2398 C2394 0.950 . S
C2399 C2397 1.390 . S
C2399 C2400 1.387 . S
C2399 H2402 0.950 . S
C2400 C2399 1.387 . S
C2400 C2403 1.387 . S
H2401 C2397 0.950 . S
H2402 C2399 0.950 . S
C2403 C2394 1.390 . S
C2403 H2396 0.950 . S
C2403 C2400 1.387 . S
C2404 C2405 1.387 . S
C2404 H2408 0.950 . S
C2404 C2413 1.390 . S
C2405 C2404 1.387 . S
C2405 C2407 1.387 . S
H2406 C2413 0.950 . S
C2407 C2405 1.387 . S
C2407 C2409 1.390 . S
C2407 H2411 0.950 . S
H2408 C2404 0.950 . S
C2409 C2407 1.390 . S
C2409 C2410 1.387 . S
C2409 H2412 0.950 . S
C2410 C2409 1.387 . S
C2410 C2413 1.387 . S
H2411 C2407 0.950 . S
H2412 C2409 0.950 . S
C2413 C2404 1.390 . S
C2413 H2406 0.950 . S
C2413 C2410 1.387 . S
C2414 C2415 1.387 . S
C2414 H2418 0.950 . S
C2414 C2423 1.390 . S
C2415 C2414 1.387 . S
C2415 C2417 1.387 . S
H2416 C2423 0.950 . S
C2417 C2415 1.387 . S
C2417 C2419 1.390 . S
C2417 H2421 0.950 . S
H2418 C2414 0.950 . S
C2419 C2417 1.390 . S
C2419 C2420 1.387 . S
C2419 H2422 0.950 . S
C2420 C2419 1.387 . S
C2420 C2423 1.387 . S
H2421 C2417 0.950 . S
H2422 C2419 0.950 . S
C2423 C2414 1.390 . S
C2423 H2416 0.950 . S
C2423 C2420 1.387 . S
C2424 C2425 1.387 . S
C2424 H2428 0.950 . S
C2424 C2433 1.390 . S
C2425 C2424 1.387 . S
C2425 C2427 1.387 . S
H2426 C2433 0.950 . S
C2427 C2425 1.387 . S
C2427 C2429 1.390 . S
C2427 H2431 0.950 . S
H2428 C2424 0.950 . S
C2429 C2427 1.390 . S
C2429 C2430 1.387 . S
C2429 H2432 0.950 . S
C2430 C2429 1.387 . S
C2430 C2433 1.387 . S
H2431 C2427 0.950 . S
H2432 C2429 0.950 . S
C2433 C2424 1.390 . S
C2433 H2426 0.950 . S
C2433 C2430 1.387 . S
C2434 C2435 1.387 . S
C2434 H2438 0.950 . S
C2434 C2443 1.390 . S
C2435 C2434 1.387 . S
C2435 C2437 1.387 . S
H2436 C2443 0.950 . S
C2437 C2435 1.387 . S
C2437 C2439 1.390 . S
C2437 H2441 0.950 . S
H2438 C2434 0.950 . S
C2439 C2437 1.390 . S
C2439 C2440 1.387 . S
C2439 H2442 0.950 . S
C2440 C2439 1.387 . S
C2440 C2443 1.387 . S
H2441 C2437 0.950 . S
H2442 C2439 0.950 . S
C2443 C2434 1.390 . S
C2443 H2436 0.950 . S
C2443 C2440 1.387 . S
C2444 C2445 1.387 . S
C2444 H2448 0.950 . S
C2444 C2453 1.390 . S
C2445 C2444 1.387 . S
C2445 C2447 1.387 . S
H2446 C2453 0.950 . S
C2447 C2445 1.387 . S
C2447 C2449 1.390 . S
C2447 H2451 0.950 . S
H2448 C2444 0.950 . S
C2449 C2447 1.390 . S
C2449 C2450 1.387 . S
C2449 H2452 0.950 . S
C2450 C2449 1.387 . S
C2450 C2453 1.387 . S
H2451 C2447 0.950 . S
H2452 C2449 0.950 . S
C2453 C2444 1.390 . S
C2453 H2446 0.950 . S
C2453 C2450 1.387 . S
C2454 C2455 1.387 . S
C2454 H2458 0.950 . S
C2454 C2463 1.390 . S
C2455 C2454 1.387 . S
C2455 C2457 1.387 . S
H2456 C2463 0.950 . S
C2457 C2455 1.387 . S
C2457 C2459 1.390 . S
C2457 H2461 0.950 . S
H2458 C2454 0.950 . S
C2459 C2457 1.390 . S
C2459 C2460 1.387 . S
C2459 H2462 0.950 . S
C2460 C2459 1.387 . S
C2460 C2463 1.387 . S
H2461 C2457 0.950 . S
H2462 C2459 0.950 . S
C2463 C2454 1.390 . S
C2463 H2456 0.950 . S
C2463 C2460 1.387 . S
C1510 C397 1.937 . S
C1505 C7 1.850 . S
C1520 C445 1.357 . S
C1515 C19 1.355 . S
C1525 C29 1.791 . S
C1530 C469 1.809 . S
C1540 C532 1.310 . S
C1535 C41 1.339 . S
C1545 C52 1.438 . S
C1550 C526 1.437 . S
C1555 C62 1.569 . S
C1560 C373 1.630 . S
C1565 C73 1.185 . S
C1570 C421 1.260 . S
C1580 C493 1.760 . S
C1575 C82 1.548 . S
C1590 C565 1.805 . S
C1585 C5 1.586 . S
C1595 C16 1.377 . S
C1600 C613 1.583 . S
C1605 C30 1.812 . S
C1610 C676 1.803 1_655 S
C1620 C733 1.375 . S
C1615 C40 1.402 . S
C1625 C49 1.236 . S
C1630 C757 1.429 . S
C1640 C814 1.513 . S
C1635 C63 1.553 . S
C1645 C74 1.346 . S
C1650 C862 1.416 . S
C1660 C916 1.584 . S
C1655 C85 1.577 . S
C1665 C8 1.611 . S
C1670 C709 1.621 . S
C1675 C51 1.547 . S
C1680 C820 1.604 . S
C1690 C868 1.814 . S
C1685 C60 1.622 . S
C1695 C71 1.101 . S
C1700 C910 1.392 . S
C1710 C781 1.989 . S
C1705 C84 1.905 . S
C1720 C637 1.559 . S
C1715 C27 1.357 . S
C1725 C38 1.322 . S
C1730 C670 1.477 . S
C1740 C589 1.657 . S
C1735 C18 1.596 . S
C1750 C964 1.963 . S
C1745 C95 1.853 . S
C1755 C107 1.357 . S
C1760 C1021 1.359 . S
C1765 C117 1.793 . S
C1770 C1045 1.809 . S
C1780 C1108 1.309 . S
C1775 C129 1.338 . S
C1785 C140 1.438 . S
C1790 C1102 1.437 . S
C1795 C150 1.567 . S
C1800 C958 1.628 . S
C1805 C161 1.181 . S
C1810 C997 1.259 . S
C1815 C170 1.546 . S
C1820 C1069 1.762 . S
C1830 C766 1.806 . S
C1825 C93 1.579 . S
C1835 C104 1.377 . S
C1840 C1150 1.582 . S
C1850 C853 1.775 1_655 S
C1845 C118 1.813 . S
C1855 C128 1.401 . S
C1860 C1204 1.349 . S
C1865 C137 1.232 . S
C1870 C574 1.431 . S
C1880 C1246 1.511 . S
C1875 C151 1.551 . S
C1885 C162 1.348 . S
C1890 C685 1.341 . S
C1900 C1300 1.586 . S
C1895 C173 1.578 . S
C1905 C96 1.611 . S
C1910 C1198 1.616 . S
C1920 C1252 1.604 . S
C1915 C139 1.545 . S
C1925 C148 1.620 . S
C1930 C661 1.795 . S
C1940 C1294 1.392 . S
C1935 C159 1.097 . S
C1945 C172 1.906 . S
C1950 C580 2.016 . S
C1955 C115 1.360 . S
C1960 C1156 1.551 . S
C1965 C126 1.326 . S
C1970 C877 1.411 . S
C1975 C106 1.595 . S
C1980 C772 1.665 . S
C1985 C183 1.850 . S
C1990 C1054 1.965 . S
C2000 C1117 1.359 . S
C1995 C195 1.358 . S
C2005 C205 1.790 . S
C2010 C973 1.785 . S
C2015 C217 1.338 . S
C2020 C1012 1.310 . S
C2025 C228 1.437 . S
C2030 C1006 1.436 . S
C2035 C238 1.569 . S
C2040 C1060 1.630 . S
C2050 C1093 1.260 . S
C2045 C249 1.185 . S
C2055 C258 1.548 . S
C2060 C949 1.765 . S
C2070 C1333 1.803 . S
C2065 C181 1.585 . S
C2075 C192 1.376 . S
C2080 C805 1.583 . S
C2090 C1396 1.803 . S
C2085 C206 1.812 . S
C2095 C216 1.403 . S
C2100 C925 1.377 . S
C2105 C225 1.239 . S
C2110 C1438 1.433 . S
C2115 C239 1.554 . S
C2120 C622 1.512 . S
C2130 C1501 1.342 . S
C2125 C250 1.349 . S
C2135 C261 1.579 . S
C2140 C724 1.586 . S
C2150 C901 1.619 . S
C2145 C184 1.611 . S
C2160 C628 1.604 . S
C2155 C227 1.545 . S
C2165 C236 1.621 . S
C2170 C1477 1.796 . S
C2175 C247 1.097 . S
C2180 C718 1.393 . S
C2190 C1444 2.015 . S
C2185 C260 1.905 . S
C2200 C829 1.558 . S
C2195 C203 1.360 . S
C2210 C1390 1.479 . S
C2205 C214 1.325 . S
C2220 C1357 1.659 . S
C2215 C194 1.593 . S
C2225 C271 1.850 . S
C2230 C478 1.966 . S
C2235 C283 1.356 . S
C2240 C541 1.358 . S
C2250 C388 1.802 . S
C2245 C293 1.790 . S
C2260 C436 1.309 . S
C2255 C305 1.339 . S
C2270 C430 1.435 . S
C2265 C316 1.437 . S
C2280 C484 1.630 . S
C2275 C326 1.568 . S
C2290 C517 1.261 . S
C2285 C337 1.186 . S
C2295 C346 1.546 . S
C2300 C382 1.762 . S
C2305 C269 1.581 . S
C2310 C1429 1.805 . S
C2320 C1237 1.584 . S
C2315 C280 1.376 . S
C2330 C1492 1.804 . S
C2325 C294 1.813 . S
C2340 C1309 1.375 . S
C2335 C304 1.402 . S
C2345 C313 1.238 . S
C2350 C1342 1.432 . S
C2360 C1141 1.531 . S
C2355 C327 1.553 . S
C2370 C1405 1.342 . S
C2365 C338 1.349 . S
C2375 C349 1.577 . S
C2380 C1213 1.582 . S
C2390 C1285 1.620 . S
C2385 C272 1.611 . S
C2400 C1165 1.603 . S
C2395 C315 1.545 . S
C2410 C1381 1.796 . S
C2405 C324 1.621 . S
C2415 C335 1.100 . S
C2420 C1189 1.398 . S
C2425 C348 1.905 . S
C2430 C1348 2.014 . S
C2435 C291 1.360 . S
C2440 C1261 1.558 . S
C2445 C302 1.325 . S
C2450 C1486 1.479 . S
C2460 C1453 1.659 . S
C2455 C282 1.596 . S
