# Generated by pormake.
# Topology anh, (6,3)-cn, num edge types: 1
# Building blocks:
#     Node 0, Type 0, BuildingBlock: CUKXOW_clean_sbu_0, # of connection points: 6
#     Node 1, Type 0, BuildingBlock: CUKXOW_clean_sbu_0, # of connection points: 6
#     Node 2, Type 0, BuildingBlock: CUKXOW_clean_sbu_0, # of connection points: 6
#     Node 3, Type 1, BuildingBlock: BELTOD_clean_linker_0, # of connection points: 3
#     Node 4, Type 1, BuildingBlock: BELTOD_clean_linker_0, # of connection points: 3
#     Node 5, Type 1, BuildingBlock: BELTOD_clean_linker_0, # of connection points: 3
#     Node 6, Type 1, BuildingBlock: BELTOD_clean_linker_0, # of connection points: 3
#     Node 7, Type 1, BuildingBlock: BELTOD_clean_linker_0, # of connection points: 3
#     Node 8, Type 1, BuildingBlock: BELTOD_clean_linker_0, # of connection points: 3
#     Edge 9, Type (0, 1), BuildingBlock: AJUNOK_clean_linker_0, # of connection points: 2
#     Edge 10, Type (0, 1), BuildingBlock: AJUNOK_clean_linker_0, # of connection points: 2
#     Edge 11, Type (0, 1), BuildingBlock: AJUNOK_clean_linker_0, # of connection points: 2
#     Edge 12, Type (0, 1), BuildingBlock: AJUNOK_clean_linker_0, # of connection points: 2
#     Edge 13, Type (0, 1), BuildingBlock: AJUNOK_clean_linker_0, # of connection points: 2
#     Edge 14, Type (0, 1), BuildingBlock: AJUNOK_clean_linker_0, # of connection points: 2
#     Edge 15, Type (0, 1), BuildingBlock: AJUNOK_clean_linker_0, # of connection points: 2
#     Edge 16, Type (0, 1), BuildingBlock: AJUNOK_clean_linker_0, # of connection points: 2
#     Edge 17, Type (0, 1), BuildingBlock: AJUNOK_clean_linker_0, # of connection points: 2
#     Edge 18, Type (0, 1), BuildingBlock: AJUNOK_clean_linker_0, # of connection points: 2
#     Edge 19, Type (0, 1), BuildingBlock: AJUNOK_clean_linker_0, # of connection points: 2
#     Edge 20, Type (0, 1), BuildingBlock: AJUNOK_clean_linker_0, # of connection points: 2
#     Edge 21, Type (0, 1), BuildingBlock: AJUNOK_clean_linker_0, # of connection points: 2
#     Edge 22, Type (0, 1), BuildingBlock: AJUNOK_clean_linker_0, # of connection points: 2
#     Edge 23, Type (0, 1), BuildingBlock: AJUNOK_clean_linker_0, # of connection points: 2
#     Edge 24, Type (0, 1), BuildingBlock: AJUNOK_clean_linker_0, # of connection points: 2
#     Edge 25, Type (0, 1), BuildingBlock: AJUNOK_clean_linker_0, # of connection points: 2
#     Edge 26, Type (0, 1), BuildingBlock: AJUNOK_clean_linker_0, # of connection points: 2
# Relax obj value: 0.127
# Max RMSD: 0.188
# Mean RMSD: 0.133
data_MOF--net-anh--node1-CUKXOW_clean_sbu_0--node2-BELTOD_clean_linker_0--edge1-AJUNOK_clean_linker_0
_symmetry_space_group_name_H-M    P1
_symmetry_Int_Tables_number       1
_symmetry_cell_setting            triclinic
loop_
_symmetry_equiv_pos_as_xyz
'x, y, z'
_cell_length_a     24.952543
_cell_length_b     24.228721
_cell_length_c     45.79107
_cell_angle_alpha  93.993008
_cell_angle_beta   90.890517
_cell_angle_gamma 113.12102
loop_
_atom_site_label
_atom_site_type_symbol
_atom_site_fract_x
_atom_site_fract_y
_atom_site_fract_z
_atom_type_partial_charge
Tb0 Tb 0.08803 0.60503 0.157 0.0
C1 C 0.04914 0.52056 0.20815 0.0
Tb2 Tb 1.0072 0.46985 0.14147 0.0
O3 O 1.01899 0.64122 0.16131 0.0
O4 O 0.9988 0.55132 0.15212 0.0
O5 O 0.08744 0.57196 0.19966 0.0
C6 C 0.92168 0.3602 0.14075 0.0
O7 O 1.01081 0.47804 0.18963 0.0
C8 C 0.12007 0.50036 0.1332 0.0
C9 C 0.03529 0.55906 0.09211 0.0
O10 O 0.97634 0.37354 0.14736 0.0
O11 O 0.91558 0.40842 0.13372 0.0
O12 O 0.07803 0.4576 0.11774 0.0
O13 O 0.09729 0.52091 0.15345 0.0
O14 O 0.999 0.50601 0.1001 0.0
O15 O 0.07671 0.59963 0.10979 0.0
C16 C 0.19022 0.6983 0.15903 0.0
O17 O 0.14856 0.69298 0.17687 0.0
O18 O 0.17369 0.65172 0.14013 0.0
C19 C 0.97564 0.589 0.15594 0.0
Tb20 Tb 0.49493 0.99362 0.49973 0.0
C21 C 0.56354 0.0302 0.44245 0.0
Tb22 Tb 0.62162 0.08029 0.50606 0.0
O23 O 0.46831 0.06402 0.48517 0.0
O24 O 0.54081 0.08606 0.51353 0.0
O25 O 0.51905 0.98814 0.45421 0.0
C26 C 0.72278 0.17476 0.50325 0.0
O27 O 0.60577 0.07286 0.45881 0.0
C28 C 0.60363 0.96653 0.50913 0.0
C29 C 0.55641 0.04391 0.56333 0.0
O30 O 0.71625 0.12426 0.51369 0.0
O31 O 0.67215 0.17216 0.49445 0.0
O32 O 0.64748 0.0113 0.52202 0.0
O33 O 0.57586 0.98687 0.49268 0.0
O34 O 0.59992 0.08634 0.55133 0.0
O35 O 0.51219 1.00175 0.54751 0.0
C36 C 0.39642 0.89497 0.50059 0.0
O37 O 0.40097 0.94474 0.4899 0.0
O38 O 0.44718 0.90124 0.51108 0.0
C39 C 0.51311 0.10783 0.49805 0.0
Tb40 Tb 0.46809 0.46003 0.82168 0.0
C41 C 0.53696 0.49093 0.88376 0.0
Tb42 Tb 0.59665 0.50361 0.82473 0.0
O43 O 0.45558 0.3694 0.80385 0.0
O44 O 0.52768 0.42042 0.83133 0.0
O45 O 0.49074 0.48944 0.86837 0.0
C46 C 0.70927 0.53159 0.81649 0.0
O47 O 0.58337 0.4892 0.87069 0.0
C48 C 0.55704 0.58915 0.83407 0.0
C49 C 0.53088 0.47749 0.76314 0.0
O50 O 0.67594 0.48608 0.83014 0.0
O51 O 0.6792 0.5609 0.80797 0.0
O52 O 0.60437 0.58979 0.84641 0.0
O53 O 0.53667 0.54363 0.81589 0.0
O54 O 0.57528 0.47463 0.7782 0.0
O55 O 0.48529 0.47999 0.7765 0.0
C56 C 0.35979 0.4547 0.8266 0.0
O57 O 0.3918 0.47179 0.8044 0.0
O58 O 0.3884 0.43878 0.84581 0.0
C59 C 0.50517 0.37271 0.81481 0.0
P60 P 0.61749 0.97267 0.21892 0.0
H61 H 0.5657 0.92992 0.15947 0.0
H62 H 0.46477 0.8753 0.14065 0.0
H63 H 0.40545 0.88235 0.22848 0.0
H64 H 0.5044 0.9404 0.24654 0.0
H65 H 0.73655 0.05357 0.23383 0.0
H66 H 0.80439 0.14308 0.21285 0.0
H67 H 0.67148 0.12794 0.14749 0.0
H68 H 0.60272 0.04041 0.1697 0.0
H69 H 0.62075 0.905 0.26889 0.0
H70 H 0.60789 0.07325 0.25401 0.0
O71 O 0.64588 0.92125 0.2128 0.0
H72 H 0.60719 0.92084 0.32116 0.0
H73 H 0.59265 0.08857 0.30611 0.0
C74 C 0.54307 0.94028 0.20433 0.0
C75 C 0.53071 0.92124 0.17447 0.0
C76 C 0.47304 0.88909 0.16384 0.0
C77 C 0.42698 0.87339 0.18316 0.0
C78 C 0.4396 0.89409 0.21289 0.0
C79 C 0.49684 0.9273 0.22332 0.0
C80 C 0.66465 0.04015 0.20335 0.0
C81 C 0.7218 0.06988 0.21516 0.0
C82 C 0.76068 0.12075 0.20299 0.0
C83 C 0.74341 0.14265 0.17846 0.0
C84 C 0.6859 0.11282 0.16666 0.0
C85 C 0.64666 0.06219 0.17916 0.0
C86 C 0.61704 0.98886 0.25781 0.0
C87 C 0.61618 0.94592 0.27698 0.0
C88 C 0.60767 0.95461 0.30674 0.0
C89 C 0.59936 0.00616 0.31772 0.0
C90 C 0.60032 0.04913 0.2984 0.0
C91 C 0.60915 0.04053 0.26867 0.0
P92 P 0.61917 0.55762 0.54486 0.0
H93 H 0.6821 0.49709 0.51124 0.0
H94 H 0.65447 0.39105 0.49529 0.0
H95 H 0.47555 0.35514 0.5143 0.0
H96 H 0.50344 0.46202 0.53017 0.0
H97 H 0.68701 0.65804 0.51175 0.0
H98 H 0.67452 0.7493 0.50043 0.0
H99 H 0.50142 0.67924 0.53321 0.0
H100 H 0.51419 0.58705 0.5449 0.0
H101 H 0.596 0.45208 0.57748 0.0
H102 H 0.59065 0.62755 0.59321 0.0
O103 O 0.69171 0.58382 0.54919 0.0
H104 H 0.56927 0.43051 0.62756 0.0
H105 H 0.56454 0.60614 0.64378 0.0
C106 C 0.59488 0.48752 0.52212 0.0
C107 C 0.63651 0.46711 0.511 0.0
C108 C 0.62079 0.40627 0.50207 0.0
C109 C 0.56306 0.36471 0.50394 0.0
C110 C 0.52031 0.38619 0.51242 0.0
C111 C 0.53615 0.44732 0.52137 0.0
C112 C 0.60211 0.61631 0.52988 0.0
C113 C 0.64581 0.66141 0.51605 0.0
C114 C 0.63868 0.7136 0.50949 0.0
C115 C 0.58727 0.72137 0.51617 0.0
C116 C 0.5414 0.6741 0.52778 0.0
C117 C 0.54874 0.62164 0.53452 0.0
C118 C 0.59276 0.54047 0.581 0.0
C119 C 0.58752 0.48548 0.59138 0.0
C120 C 0.57284 0.47329 0.62017 0.0
C121 C 0.56393 0.51622 0.63941 0.0
C122 C 0.56957 0.57156 0.62916 0.0
C123 C 0.5844 0.58379 0.60022 0.0
P124 P 0.12609 0.70737 0.88754 0.0
H125 H 0.22613 0.72422 0.85167 0.0
H126 H 0.27338 0.65627 0.83594 0.0
H127 H 0.15874 0.52096 0.88849 0.0
H128 H 0.11311 0.58903 0.9047 0.0
H129 H 0.04333 0.76039 0.87477 0.0
H130 H 0.94806 0.71764 0.84844 0.0
H131 H 0.98246 0.56363 0.81616 0.0
H132 H 0.07727 0.60617 0.8421 0.0
H133 H 0.17645 0.74912 0.94659 0.0
H134 H 1.01224 0.62442 0.906 0.0
O135 O 0.16847 0.78046 0.88756 0.0
H136 H 0.14409 0.71183 -0.00577 0.0
H137 H 0.97968 0.58753 0.95357 0.0
C138 C 0.1672 0.6623 0.87985 0.0
C139 C 0.21209 0.6804 0.86022 0.0
C140 C 0.2382 0.64122 0.85087 0.0
C141 C 0.21876 0.58306 0.86064 0.0
C142 C 0.17446 0.56555 0.88069 0.0
C143 C 0.14875 0.60479 0.89014 0.0
C144 C 0.06734 0.68662 0.86052 0.0
C145 C 0.03139 0.71872 0.86103 0.0
C146 C 0.97712 0.69431 0.84597 0.0
C147 C 0.95833 0.6374 0.8304 0.0
C148 C 0.99626 0.60757 0.82807 0.0
C149 C 0.05055 0.6321 0.84298 0.0
C150 C 0.09647 0.69055 0.92289 0.0
C151 C 0.13285 0.71511 0.94806 0.0
C152 C 0.11443 0.69354 0.97518 0.0
C153 C 0.05958 0.64651 0.9774 0.0
C154 C 1.02235 0.62336 0.95232 0.0
C155 C 0.04072 0.64515 0.92521 0.0
P156 P 0.1118 0.46913 0.42827 0.0
H157 H 0.1521 0.51673 0.48836 0.0
H158 H 0.20964 0.6189 0.51036 0.0
H159 H 0.20344 0.68925 0.42682 0.0
H160 H 0.14526 0.58816 0.40529 0.0
H161 H 0.05854 0.34098 0.43465 0.0
H162 H 0.96842 0.27684 0.45595 0.0
H163 H 0.93107 0.4329 0.48065 0.0
H164 H 1.02163 0.49722 0.45891 0.0
H165 H 0.18063 0.47719 0.37689 0.0
H166 H 1.00745 0.46446 0.39558 0.0
O167 O 0.16069 0.43845 0.43154 0.0
H168 H 0.16193 0.48537 0.32511 0.0
H169 H 0.98864 0.47291 0.34373 0.0
C170 C 0.14432 0.54478 0.44525 0.0
C171 C 0.16195 0.55444 0.47503 0.0
C172 C 0.19491 0.61267 0.48752 0.0
C173 C 0.21067 0.6621 0.47037 0.0
C174 C 0.19087 0.65235 0.4408 0.0
C175 C 0.15792 0.59422 0.42837 0.0
C176 C 0.04732 0.42385 0.4459 0.0
C177 C 0.03151 0.36158 0.44507 0.0
C178 C 0.98016 0.32503 0.45734 0.0
C179 C 0.94353 0.35017 0.4705 0.0
C180 C 0.95896 0.41261 0.4709 0.0
C181 C 1.01066 0.44928 0.45866 0.0
C182 C 0.09503 0.46891 0.38992 0.0
C183 C 0.13824 0.47509 0.36976 0.0
C184 C 0.12765 0.48009 0.34026 0.0
C185 C 0.07366 0.47916 0.33045 0.0
C186 C 0.03018 0.47252 0.35065 0.0
C187 C 0.04096 0.46782 0.38026 0.0
P188 P 0.62202 0.01256 0.78536 0.0
H189 H 0.68835 0.13575 0.80857 0.0
H190 H 0.6592 0.21929 0.81909 0.0
H191 H 0.47805 0.09625 0.81133 0.0
H192 H 0.50793 0.01235 0.79965 0.0
H193 H 0.60389 0.89813 0.754 0.0
H194 H 0.57148 0.79597 0.76867 0.0
H195 H 0.5412 0.857 0.85522 0.0
H196 H 0.57215 0.96017 0.83997 0.0
H197 H 0.6834 0.09984 0.74466 0.0
H198 H 0.52454 0.94032 0.74345 0.0
O199 O 0.69383 0.03358 0.79085 0.0
H200 H 0.66249 0.11148 0.6938 0.0
H201 H 0.50618 0.94801 0.69176 0.0
C202 C 0.60032 0.06756 0.80403 0.0
C203 C 0.64238 0.12615 0.81034 0.0
C204 C 0.6256 0.17414 0.81637 0.0
C205 C 0.56627 0.16445 0.81629 0.0
C206 C 0.52411 0.1051 0.81154 0.0
C207 C 0.54106 0.05702 0.80529 0.0
C208 C 0.58805 0.93639 0.79548 0.0
C209 C 0.58784 0.8894 0.77575 0.0
C210 C 0.56941 0.8309 0.78416 0.0
C211 C 0.55254 0.81839 0.81285 0.0
C212 C 0.55292 0.86542 0.83279 0.0
C213 C 0.57041 0.92415 0.8241 0.0
C214 C 0.607 0.01772 0.74738 0.0
C215 C 0.64467 0.06653 0.73321 0.0
C216 C 0.63258 0.0731 0.70413 0.0
C217 C 0.58281 0.03048 0.68853 0.0
C218 C 0.54434 0.98231 0.70313 0.0
C219 C 0.55562 0.97691 0.73255 0.0
P220 P 0.53 0.47681 0.11157 0.0
H221 H 0.59163 0.4573 0.16264 0.0
H222 H 0.69561 0.48557 0.17449 0.0
H223 H 0.73859 0.60517 0.10503 0.0
H224 H 0.63505 0.57798 0.09382 0.0
H225 H 0.40971 0.39508 0.11691 0.0
H226 H 0.31894 0.4078 0.12335 0.0
H227 H 0.41354 0.60016 0.1368 0.0
H228 H 0.50626 0.58701 0.13043 0.0
H229 H 0.55557 0.4064 0.06346 0.0
H230 H 0.51292 0.56259 0.07364 0.0
O231 O 0.51429 0.40435 0.11607 0.0
H232 H 0.55759 0.4128 0.01043 0.0
H233 H 0.51597 0.56985 0.02061 0.0
C234 C 0.60455 0.51557 0.12739 0.0
C235 C 0.6233 0.49139 0.15064 0.0
C236 C 0.68312 0.50688 0.15711 0.0
C237 C 0.72621 0.54753 0.14069 0.0
C238 C 0.70728 0.57445 0.11857 0.0
C239 C 0.64746 0.55889 0.11212 0.0
C240 C 0.46589 0.48986 0.12381 0.0
C241 C 0.41191 0.44021 0.12208 0.0
C242 C 0.35933 0.44753 0.12543 0.0
C243 C 0.35828 0.50497 0.13046 0.0
C244 C 0.41245 0.5551 0.13323 0.0
C245 C 0.46569 0.54764 0.12971 0.0
C246 C 0.53229 0.48287 0.07248 0.0
C247 C 0.54627 0.44188 0.05431 0.0
C248 C 0.54786 0.44583 0.02401 0.0
C249 C 0.53591 0.49118 0.0113 0.0
C250 C 0.52375 0.53341 0.02968 0.0
C251 C 0.52209 0.52934 0.06002 0.0
C252 C 0.20014 0.47798 0.10922 0.0
C253 C 0.18298 0.50824 0.13225 0.0
C254 C 0.25698 0.47909 0.10853 0.0
C255 C 0.3001 0.51077 0.13076 0.0
H256 H 0.16891 0.45192 0.0917 0.0
H257 H 0.26703 0.45399 0.09046 0.0
S258 S 0.27912 0.59978 0.19563 0.0
N259 N 0.21493 0.57259 0.17767 0.0
N260 N 0.32168 0.57506 0.17622 0.0
C261 C 0.28431 0.54304 0.15349 0.0
C262 C 0.22596 0.54161 0.1543 0.0
C263 C 0.78146 0.26978 0.48086 0.0
C264 C 0.77928 0.2237 0.49846 0.0
C265 C 0.835 0.31244 0.47294 0.0
C266 C 0.88801 0.31032 0.48239 0.0
H267 H 0.74157 0.27157 0.47219 0.0
H268 H 0.8348 0.34561 0.45829 0.0
S269 S 0.90601 0.20375 0.5321 0.0
N270 N 0.83469 0.18198 0.52738 0.0
N271 N 0.93522 0.26247 0.5127 0.0
C272 C 0.88639 0.26655 0.50133 0.0
C273 C 0.83201 0.22315 0.50934 0.0
C274 C 0.58032 0.69701 0.84976 0.0
C275 C 0.54575 0.64444 0.83226 0.0
C276 C 0.57872 0.75286 0.84492 0.0
C277 C 0.54253 0.75804 0.82238 0.0
H278 H 0.61117 0.69567 0.86633 0.0
H279 H 0.60885 0.79275 0.85759 0.0
S280 S 0.43606 0.63277 0.77392 0.0
N281 N 0.46861 0.60007 0.79413 0.0
N282 N 0.4659 0.70519 0.78498 0.0
C283 C 0.50436 0.70522 0.80633 0.0
C284 C 0.50579 0.6483 0.81133 0.0
C285 C 0.86745 0.52087 0.15242 0.0
C286 C 0.9122 0.57877 0.15251 0.0
C287 C 0.80788 0.51128 0.14902 0.0
C288 C 0.79008 0.55923 0.14554 0.0
H289 H 0.87836 0.48268 0.15542 0.0
H290 H 0.7755 0.4656 0.14869 0.0
S291 S 0.88982 0.72051 0.14641 0.0
N292 N 0.93399 0.68527 0.15009 0.0
N293 N 0.82311 0.66759 0.14418 0.0
C294 C 0.83451 0.61754 0.14624 0.0
C295 C 0.89502 0.62721 0.1497 0.0
C296 C 0.35082 0.78402 0.50339 0.0
C297 C 0.34504 0.83729 0.49681 0.0
C298 C 0.3058 0.7276 0.49612 0.0
C299 C 0.25327 0.72238 0.48207 0.0
H300 H 0.39139 0.78566 0.51305 0.0
H301 H 0.31343 0.68771 0.5002 0.0
S302 S 0.21335 0.84861 0.46391 0.0
N303 N 0.28079 0.88176 0.47806 0.0
N304 N 0.19569 0.77553 0.46476 0.0
C305 C 0.24564 0.77548 0.47699 0.0
C306 C 0.29162 0.833 0.48431 0.0
C307 C 0.49388 0.26933 0.79621 0.0
C308 C 0.52125 0.32027 0.81601 0.0
C309 C 0.50757 0.21858 0.79702 0.0
C310 C 0.5489 0.21667 0.81779 0.0
H311 H 0.46211 0.2689 0.7797 0.0
H312 H 0.48664 0.18115 0.78073 0.0
S313 S 0.62977 0.33684 0.87593 0.0
N314 N 0.58998 0.36493 0.85776 0.0
N315 N 0.61466 0.26906 0.8597 0.0
C316 C 0.57566 0.26689 0.83814 0.0
C317 C 0.56211 0.3188 0.83714 0.0
C318 C 0.62981 0.88908 0.53118 0.0
C319 C 0.59471 0.90252 0.51085 0.0
C320 C 0.6258 0.83017 0.53299 0.0
C321 C 0.58603 0.78192 0.51481 0.0
H322 H 0.66146 0.92457 0.54566 0.0
H323 H 0.65457 0.82231 0.54863 0.0
S324 S 0.48331 0.79186 0.45813 0.0
N325 N 0.51858 0.86214 0.472 0.0
N326 N 0.50987 0.7507 0.47618 0.0
C327 C 0.54947 0.79403 0.49485 0.0
C328 C 0.55412 0.85451 0.49267 0.0
C329 C 0.80308 0.52446 0.82985 0.0
C330 C 0.77287 0.55284 0.81487 0.0
C331 C 0.86398 0.55026 0.83298 0.0
C332 C 0.89631 0.6052 0.82127 0.0
H333 H 0.77953 0.48385 0.84052 0.0
H334 H 0.88561 0.52902 0.84621 0.0
S335 S 0.83839 0.69222 0.77625 0.0
N336 N 0.77999 0.63485 0.78514 0.0
N337 N 0.89471 0.68343 0.7914 0.0
C338 C 0.86693 0.63168 0.80451 0.0
C339 C 0.80501 0.60535 0.80115 0.0
C340 C 0.26131 0.79937 0.17924 0.0
C341 C 0.2498 0.74548 0.16198 0.0
C342 C 0.31854 0.84212 0.18458 0.0
C343 C 0.36648 0.83192 0.17335 0.0
H344 H 0.22597 0.80818 0.1891 0.0
H345 H 0.3254 0.88284 0.19827 0.0
S346 S 0.35883 0.69728 0.12651 0.0
N347 N 0.29021 0.68492 0.13255 0.0
N348 N 0.3979 0.76331 0.14398 0.0
C349 C 0.35516 0.77859 0.15541 0.0
C350 C 0.29679 0.73579 0.14943 0.0
C351 C 0.57144 0.21486 0.51628 0.0
C352 C 0.52496 0.17289 0.49842 0.0
C353 C 0.58377 0.27661 0.5174 0.0
C354 C 0.54972 0.29901 0.50096 0.0
H355 H 0.59836 0.19994 0.52979 0.0
H356 H 0.61964 0.30703 0.53179 0.0
S357 S 0.42347 0.20833 0.45041 0.0
N358 N 0.44509 0.15822 0.46351 0.0
N359 N 0.46793 0.2745 0.466 0.0
C360 C 0.50302 0.25766 0.48303 0.0
C361 C 0.49077 0.19461 0.48165 0.0
C362 C 0.29798 0.47878 0.86282 0.0
C363 C 0.31194 0.47343 0.83345 0.0
C364 C 0.26548 0.51232 0.87129 0.0
C365 C 0.24577 0.54122 0.85061 0.0
H366 H 0.3157 0.46068 0.87971 0.0
H367 H 0.25865 0.5185 0.89439 0.0
S368 S 0.26137 0.53102 0.77026 0.0
N369 N 0.29723 0.49264 0.78315 0.0
N370 N 0.23503 0.55496 0.79906 0.0
C371 C 0.25516 0.53179 0.82086 0.0
C372 C 0.28838 0.4978 0.81225 0.0
C373 C 0.88658 0.25319 0.15235 0.0
C374 C 0.87368 0.30273 0.14617 0.0
C375 C 0.84359 0.20086 0.16166 0.0
C376 C 0.78611 0.19622 0.16546 0.0
H377 H 0.93063 0.25538 0.15072 0.0
H378 H 0.85583 0.16412 0.16651 0.0
S379 S 0.72973 0.31326 0.15152 0.0
N380 N 0.79899 0.34338 0.14336 0.0
N381 N 0.71846 0.24565 0.16169 0.0
C382 C 0.77219 0.24482 0.15842 0.0
C383 C 0.81594 0.29796 0.14861 0.0
C384 C 0.04332 0.63767 0.05881 0.0
C385 C 0.03043 0.57661 0.06237 0.0
C386 C 0.04955 0.65923 0.03106 0.0
C387 C 0.04316 0.62054 0.00581 0.0
H388 H 0.05066 0.66963 0.07775 0.0
H389 H 0.06144 0.70696 0.02941 0.0
S390 S 1.00598 0.45612 0.00311 0.0
N391 N 1.00815 0.47703 0.03838 0.0
N392 N 1.02041 0.51768 0.98584 0.0
C393 C 0.02713 0.55871 0.00887 0.0
C394 C 1.02054 0.53666 0.03729 0.0
C395 C 0.53791 0.97298 0.39297 0.0
C396 C 0.57012 0.02659 0.41031 0.0
C397 C 0.54726 0.96693 0.36301 0.0
C398 C 0.58885 0.01437 0.34922 0.0
H399 H 0.5062 0.93479 0.40269 0.0
H400 H 0.52183 0.92468 0.35054 0.0
S401 S 0.68321 0.1649 0.38435 0.0
N402 N 0.64389 0.12904 0.41101 0.0
N403 N 0.66192 0.11688 0.35495 0.0
C404 C 0.62042 0.06861 0.36609 0.0
C405 C 0.61097 0.07489 0.39656 0.0
C406 C 0.58071 0.47455 0.71641 0.0
C407 C 0.53525 0.48351 0.7311 0.0
C408 C 0.58905 0.48455 0.68675 0.0
C409 C 0.5526 0.50435 0.67057 0.0
H410 H 0.61074 0.4604 0.72796 0.0
H411 H 0.62522 0.47795 0.67656 0.0
S412 S 0.42569 0.53224 0.69795 0.0
N413 N 0.45197 0.51168 0.72665 0.0
N414 N 0.46804 0.53038 0.67087 0.0
C415 C 0.50642 0.51259 0.6847 0.0
C416 C 0.49755 0.50202 0.71492 0.0
C417 C 0.61554 0.05469 0.60879 0.0
C418 C 0.56055 0.0416 0.59527 0.0
C419 C 0.62189 0.05076 0.6388 0.0
C420 C 0.57367 0.03479 0.65673 0.0
H421 H 0.65398 0.06656 0.59591 0.0
H422 H 0.66503 0.05935 0.6479 0.0
S423 S 0.42057 1.00057 0.63202 0.0
N424 N 0.45707 0.0135 0.60172 0.0
N425 N 0.46911 0.00906 0.65874 0.0
C426 C 0.51835 0.02272 0.6435 0.0
C427 C 0.51178 0.02545 0.61264 0.0
C428 C 0.5829 0.48972 0.93271 0.0
C429 C 0.53649 0.49383 0.91634 0.0
C430 C 0.58264 0.48963 0.96333 0.0
C431 C 0.53615 0.49396 0.97894 0.0
H432 H 0.61961 0.48576 0.92183 0.0
H433 H 0.61924 0.48612 0.9749 0.0
S434 S 0.40384 0.50564 0.94694 0.0
N435 N 0.44268 0.50288 0.91844 0.0
N436 N 0.44223 0.50201 0.97588 0.0
C437 C 0.48975 0.49875 0.96301 0.0
C438 C 0.48987 0.49878 0.93179 0.0
C439 C 0.09962 0.54877 0.25779 0.0
C440 C 0.05206 0.50939 0.23953 0.0
C441 C 0.10581 0.53861 0.28709 0.0
C442 C 0.06459 0.48893 0.2995 0.0
H443 H 0.13314 0.58754 0.2494 0.0
H444 H 0.14327 0.57009 0.3002 0.0
S445 S 0.93171 0.37235 0.26176 0.0
N446 N 0.96237 0.41867 0.23641 0.0
N447 N 0.97444 0.3999 0.29168 0.0
C448 C 1.01636 0.44953 0.28183 0.0
C449 C 1.01007 0.45961 0.2518 0.0
loop_
_geom_bond_atom_site_label_1
_geom_bond_atom_site_label_2
_geom_bond_distance
_geom_bond_site_symmetry_2
_ccdc_geom_bond_type
Tb0 O3 2.453 1_455 S
Tb0 O4 2.596 1_455 S
Tb0 O5 2.374 . S
Tb0 O13 2.343 . S
Tb0 O15 2.353 . S
Tb0 O17 2.427 . S
Tb0 O18 2.513 . S
C1 O5 1.251 . S
C1 O7 1.263 . S
Tb2 O4 2.343 1_455 S
Tb2 O7 2.353 . S
Tb2 O10 2.427 1_455 S
Tb2 O11 2.513 1_455 S
Tb2 O12 2.453 . S
Tb2 O13 2.596 . S
Tb2 O14 2.374 . S
O3 Tb0 2.453 1_655 S
O3 C19 1.245 . S
O4 Tb0 2.596 1_655 S
O4 Tb2 2.343 1_655 S
O4 C19 1.259 . S
O5 Tb0 2.374 . S
O5 C1 1.251 . S
C6 O10 1.275 . S
C6 O11 1.246 . S
O7 C1 1.263 . S
O7 Tb2 2.353 . S
C8 O12 1.245 . S
C8 O13 1.259 . S
C9 O14 1.250 . S
C9 O15 1.263 . S
O10 Tb2 2.427 1_655 S
O10 C6 1.275 . S
O11 Tb2 2.513 1_655 S
O11 C6 1.246 . S
O12 Tb2 2.453 . S
O12 C8 1.245 . S
O13 Tb0 2.343 . S
O13 Tb2 2.596 . S
O13 C8 1.259 . S
O14 Tb2 2.374 . S
O14 C9 1.250 . S
O15 Tb0 2.353 . S
O15 C9 1.263 . S
C16 O17 1.275 . S
C16 O18 1.246 . S
O17 Tb0 2.427 . S
O17 C16 1.275 . S
O18 Tb0 2.513 . S
O18 C16 1.246 . S
C19 O3 1.245 . S
C19 O4 1.259 . S
Tb20 O23 2.453 . S
Tb20 O24 2.596 . S
Tb20 O25 2.374 . S
Tb20 O33 2.343 1_545 S
Tb20 O35 2.353 . S
Tb20 O37 2.427 1_545 S
Tb20 O38 2.513 1_545 S
C21 O25 1.251 . S
C21 O27 1.263 . S
Tb22 O24 2.343 . S
Tb22 O27 2.353 . S
Tb22 O30 2.427 . S
Tb22 O31 2.513 . S
Tb22 O32 2.453 1_545 S
Tb22 O33 2.596 1_545 S
Tb22 O34 2.374 . S
O23 Tb20 2.453 . S
O23 C39 1.245 . S
O24 Tb20 2.596 . S
O24 Tb22 2.343 . S
O24 C39 1.259 . S
O25 Tb20 2.374 . S
O25 C21 1.251 . S
C26 O30 1.275 . S
C26 O31 1.246 . S
O27 C21 1.263 . S
O27 Tb22 2.353 . S
C28 O32 1.245 . S
C28 O33 1.259 . S
C29 O34 1.250 . S
C29 O35 1.263 . S
O30 Tb22 2.427 . S
O30 C26 1.275 . S
O31 Tb22 2.513 . S
O31 C26 1.246 . S
O32 Tb22 2.453 1_565 S
O32 C28 1.245 . S
O33 Tb20 2.343 1_565 S
O33 Tb22 2.596 1_565 S
O33 C28 1.259 . S
O34 Tb22 2.374 . S
O34 C29 1.250 . S
O35 Tb20 2.353 . S
O35 C29 1.263 . S
C36 O37 1.275 . S
C36 O38 1.246 . S
O37 Tb20 2.427 1_565 S
O37 C36 1.275 . S
O38 Tb20 2.513 1_565 S
O38 C36 1.246 . S
C39 O23 1.245 . S
C39 O24 1.259 . S
Tb40 O43 2.453 . S
Tb40 O44 2.596 . S
Tb40 O45 2.374 . S
Tb40 O53 2.343 . S
Tb40 O55 2.353 . S
Tb40 O57 2.427 . S
Tb40 O58 2.513 . S
C41 O45 1.251 . S
C41 O47 1.263 . S
Tb42 O44 2.343 . S
Tb42 O47 2.353 . S
Tb42 O50 2.427 . S
Tb42 O51 2.513 . S
Tb42 O52 2.453 . S
Tb42 O53 2.596 . S
Tb42 O54 2.374 . S
O43 Tb40 2.453 . S
O43 C59 1.245 . S
O44 Tb40 2.596 . S
O44 Tb42 2.343 . S
O44 C59 1.259 . S
O45 Tb40 2.374 . S
O45 C41 1.251 . S
C46 O50 1.275 . S
C46 O51 1.246 . S
O47 C41 1.263 . S
O47 Tb42 2.353 . S
C48 O52 1.245 . S
C48 O53 1.259 . S
C49 O54 1.250 . S
C49 O55 1.263 . S
O50 Tb42 2.427 . S
O50 C46 1.275 . S
O51 Tb42 2.513 . S
O51 C46 1.246 . S
O52 Tb42 2.453 . S
O52 C48 1.245 . S
O53 Tb40 2.343 . S
O53 Tb42 2.596 . S
O53 C48 1.259 . S
O54 Tb42 2.374 . S
O54 C49 1.250 . S
O55 Tb40 2.353 . S
O55 C49 1.263 . S
C56 O57 1.275 . S
C56 O58 1.246 . S
O57 Tb40 2.427 . S
O57 C56 1.275 . S
O58 Tb40 2.513 . S
O58 C56 1.246 . S
C59 O43 1.245 . S
C59 O44 1.259 . S
P60 O71 1.490 . S
P60 C74 1.812 . S
P60 C80 1.803 1_565 S
P60 C86 1.819 1_565 S
H61 C75 0.941 . S
H62 C76 0.939 . S
H63 C78 0.940 . S
H64 C79 0.933 1_545 S
H65 C81 0.939 . S
H66 C82 0.942 . S
H67 C84 0.940 . S
H68 C85 0.939 . S
H69 C87 0.941 . S
H70 C91 0.939 . S
O71 P60 1.490 . S
H72 C88 0.939 . S
H73 C90 0.940 . S
C74 P60 1.812 . S
C74 C75 1.389 . S
C74 C79 1.391 . S
C75 H61 0.941 . S
C75 C74 1.389 . S
C75 C76 1.397 . S
C76 H62 0.939 . S
C76 C75 1.397 . S
C76 C77 1.378 . S
C77 C76 1.378 . S
C77 C78 1.378 . S
C78 H63 0.940 . S
C78 C77 1.378 . S
C78 C79 1.396 . S
C79 H64 0.933 1_565 S
C79 C74 1.391 . S
C79 C78 1.396 . S
C80 P60 1.803 1_545 S
C80 C81 1.378 . S
C80 C85 1.400 . S
C81 H65 0.939 . S
C81 C80 1.378 . S
C81 C82 1.361 . S
C82 H66 0.942 . S
C82 C81 1.361 . S
C82 C83 1.369 . S
C83 C82 1.369 . S
C83 C84 1.404 . S
C84 H67 0.940 . S
C84 C83 1.404 . S
C84 C85 1.389 . S
C85 H68 0.939 . S
C85 C80 1.400 . S
C85 C84 1.389 . S
C86 P60 1.819 1_545 S
C86 C87 1.391 1_545 S
C86 C91 1.391 . S
C87 H69 0.941 . S
C87 C86 1.391 1_565 S
C87 C88 1.396 . S
C88 H72 0.939 . S
C88 C87 1.396 . S
C88 C89 1.397 1_565 S
C89 C88 1.397 1_545 S
C89 C90 1.385 . S
C90 H73 0.940 . S
C90 C89 1.385 . S
C90 C91 1.388 . S
C91 H70 0.939 . S
C91 C86 1.391 . S
C91 C90 1.388 . S
P92 O103 1.490 . S
P92 C106 1.812 . S
P92 C112 1.803 . S
P92 C118 1.819 . S
H93 C107 0.941 . S
H94 C108 0.939 . S
H95 C110 0.940 . S
H96 C111 0.940 . S
H97 C113 0.939 . S
H98 C114 0.942 . S
H99 C116 0.940 . S
H100 C117 0.939 . S
H101 C119 0.941 . S
H102 C123 0.939 . S
O103 P92 1.490 . S
H104 C120 0.939 . S
H105 C122 0.940 . S
C106 P92 1.812 . S
C106 C107 1.389 . S
C106 C111 1.391 . S
C107 H93 0.941 . S
C107 C106 1.389 . S
C107 C108 1.397 . S
C108 H94 0.939 . S
C108 C107 1.397 . S
C108 C109 1.378 . S
C109 C108 1.378 . S
C109 C110 1.378 . S
C110 H95 0.940 . S
C110 C109 1.378 . S
C110 C111 1.396 . S
C111 H96 0.940 . S
C111 C106 1.391 . S
C111 C110 1.396 . S
C112 P92 1.803 . S
C112 C113 1.378 . S
C112 C117 1.400 . S
C113 H97 0.939 . S
C113 C112 1.378 . S
C113 C114 1.361 . S
C114 H98 0.942 . S
C114 C113 1.361 . S
C114 C115 1.369 . S
C115 C114 1.369 . S
C115 C116 1.404 . S
C116 H99 0.940 . S
C116 C115 1.404 . S
C116 C117 1.389 . S
C117 H100 0.939 . S
C117 C112 1.400 . S
C117 C116 1.389 . S
C118 P92 1.819 . S
C118 C119 1.391 . S
C118 C123 1.391 . S
C119 H101 0.941 . S
C119 C118 1.391 . S
C119 C120 1.396 . S
C120 H104 0.939 . S
C120 C119 1.396 . S
C120 C121 1.397 . S
C121 C120 1.397 . S
C121 C122 1.385 . S
C122 H105 0.940 . S
C122 C121 1.385 . S
C122 C123 1.388 . S
C123 H102 0.939 . S
C123 C118 1.391 . S
C123 C122 1.388 . S
P124 O135 1.490 . S
P124 C138 1.812 . S
P124 C144 1.803 . S
P124 C150 1.819 . S
H125 C139 0.941 . S
H126 C140 0.939 . S
H127 C142 0.940 . S
H128 C143 0.940 . S
H129 C145 0.939 . S
H130 C146 0.942 . S
H131 C148 0.940 . S
H132 C149 0.939 . S
H133 C151 0.941 . S
H134 C155 0.939 . S
O135 P124 1.490 . S
H136 C152 0.939 . S
H137 C154 0.940 1_655 S
C138 P124 1.812 . S
C138 C139 1.389 . S
C138 C143 1.391 . S
C139 H125 0.941 . S
C139 C138 1.389 . S
C139 C140 1.397 . S
C140 H126 0.939 . S
C140 C139 1.397 . S
C140 C141 1.378 . S
C141 C140 1.378 . S
C141 C142 1.378 . S
C142 H127 0.940 . S
C142 C141 1.378 . S
C142 C143 1.396 . S
C143 H128 0.940 . S
C143 C138 1.391 . S
C143 C142 1.396 . S
C144 P124 1.803 . S
C144 C145 1.378 . S
C144 C149 1.400 . S
C145 H129 0.939 . S
C145 C144 1.378 . S
C145 C146 1.361 1_455 S
C146 H130 0.942 . S
C146 C145 1.361 1_655 S
C146 C147 1.369 . S
C147 C146 1.369 . S
C147 C148 1.404 . S
C148 H131 0.940 . S
C148 C147 1.404 . S
C148 C149 1.389 1_655 S
C149 H132 0.939 . S
C149 C144 1.400 . S
C149 C148 1.389 1_455 S
C150 P124 1.819 . S
C150 C151 1.391 . S
C150 C155 1.391 . S
C151 H133 0.941 . S
C151 C150 1.391 . S
C151 C152 1.396 . S
C152 H136 0.939 . S
C152 C151 1.396 . S
C152 C153 1.397 . S
C153 C152 1.397 . S
C153 C154 1.385 . S
C154 H137 0.940 1_455 S
C154 C153 1.385 . S
C154 C155 1.388 . S
C155 H134 0.939 . S
C155 C150 1.391 . S
C155 C154 1.388 . S
P156 O167 1.490 . S
P156 C170 1.812 . S
P156 C176 1.803 1_455 S
P156 C182 1.819 . S
H157 C171 0.941 . S
H158 C172 0.939 . S
H159 C174 0.940 . S
H160 C175 0.940 . S
H161 C177 0.939 . S
H162 C178 0.942 . S
H163 C180 0.940 . S
H164 C181 0.939 . S
H165 C183 0.941 . S
H166 C187 0.939 . S
O167 P156 1.490 . S
H168 C184 0.939 . S
H169 C186 0.940 . S
C170 P156 1.812 . S
C170 C171 1.389 . S
C170 C175 1.391 . S
C171 H157 0.941 . S
C171 C170 1.389 . S
C171 C172 1.397 . S
C172 H158 0.939 . S
C172 C171 1.397 . S
C172 C173 1.378 . S
C173 C172 1.378 . S
C173 C174 1.378 . S
C174 H159 0.940 . S
C174 C173 1.378 . S
C174 C175 1.396 . S
C175 H160 0.940 . S
C175 C170 1.391 . S
C175 C174 1.396 . S
C176 P156 1.803 1_655 S
C176 C177 1.378 . S
C176 C181 1.400 . S
C177 H161 0.939 . S
C177 C176 1.378 . S
C177 C178 1.361 . S
C178 H162 0.942 . S
C178 C177 1.361 . S
C178 C179 1.369 . S
C179 C178 1.369 . S
C179 C180 1.404 . S
C180 H163 0.940 . S
C180 C179 1.404 . S
C180 C181 1.389 . S
C181 H164 0.939 . S
C181 C176 1.400 . S
C181 C180 1.389 . S
C182 P156 1.819 . S
C182 C183 1.391 . S
C182 C187 1.391 1_455 S
C183 H165 0.941 . S
C183 C182 1.391 . S
C183 C184 1.396 . S
C184 H168 0.939 . S
C184 C183 1.396 . S
C184 C185 1.397 . S
C185 C184 1.397 . S
C185 C186 1.385 1_455 S
C186 H169 0.940 . S
C186 C185 1.385 1_655 S
C186 C187 1.388 . S
C187 H166 0.939 . S
C187 C182 1.391 1_655 S
C187 C186 1.388 . S
P188 O199 1.490 . S
P188 C202 1.812 . S
P188 C208 1.803 1_545 S
P188 C214 1.819 . S
H189 C203 0.941 . S
H190 C204 0.939 . S
H191 C206 0.940 . S
H192 C207 0.940 . S
H193 C209 0.939 . S
H194 C210 0.942 . S
H195 C212 0.940 . S
H196 C213 0.939 . S
H197 C215 0.941 . S
H198 C219 0.939 . S
O199 P188 1.490 . S
H200 C216 0.939 . S
H201 C218 0.940 . S
C202 P188 1.812 . S
C202 C203 1.389 . S
C202 C207 1.391 . S
C203 H189 0.941 . S
C203 C202 1.389 . S
C203 C204 1.397 . S
C204 H190 0.939 . S
C204 C203 1.397 . S
C204 C205 1.378 . S
C205 C204 1.378 . S
C205 C206 1.378 . S
C206 H191 0.940 . S
C206 C205 1.378 . S
C206 C207 1.396 . S
C207 H192 0.940 . S
C207 C202 1.391 . S
C207 C206 1.396 . S
C208 P188 1.803 1_565 S
C208 C209 1.378 . S
C208 C213 1.400 . S
C209 H193 0.939 . S
C209 C208 1.378 . S
C209 C210 1.361 . S
C210 H194 0.942 . S
C210 C209 1.361 . S
C210 C211 1.369 . S
C211 C210 1.369 . S
C211 C212 1.404 . S
C212 H195 0.940 . S
C212 C211 1.404 . S
C212 C213 1.389 . S
C213 H196 0.939 . S
C213 C208 1.400 . S
C213 C212 1.389 . S
C214 P188 1.819 . S
C214 C215 1.391 . S
C214 C219 1.391 1_545 S
C215 H197 0.941 . S
C215 C214 1.391 . S
C215 C216 1.396 . S
C216 H200 0.939 . S
C216 C215 1.396 . S
C216 C217 1.397 . S
C217 C216 1.397 . S
C217 C218 1.385 1_545 S
C218 H201 0.940 . S
C218 C217 1.385 1_565 S
C218 C219 1.388 . S
C219 H198 0.939 . S
C219 C214 1.391 1_565 S
C219 C218 1.388 . S
P220 O231 1.490 . S
P220 C234 1.812 . S
P220 C240 1.803 . S
P220 C246 1.819 . S
H221 C235 0.941 . S
H222 C236 0.939 . S
H223 C238 0.940 . S
H224 C239 0.940 . S
H225 C241 0.939 . S
H226 C242 0.942 . S
H227 C244 0.940 . S
H228 C245 0.939 . S
H229 C247 0.941 . S
H230 C251 0.939 . S
O231 P220 1.490 . S
H232 C248 0.939 . S
H233 C250 0.940 . S
C234 P220 1.812 . S
C234 C235 1.389 . S
C234 C239 1.391 . S
C235 H221 0.941 . S
C235 C234 1.389 . S
C235 C236 1.397 . S
C236 H222 0.939 . S
C236 C235 1.397 . S
C236 C237 1.378 . S
C237 C236 1.378 . S
C237 C238 1.378 . S
C238 H223 0.940 . S
C238 C237 1.378 . S
C238 C239 1.396 . S
C239 H224 0.940 . S
C239 C234 1.391 . S
C239 C238 1.396 . S
C240 P220 1.803 . S
C240 C241 1.378 . S
C240 C245 1.400 . S
C241 H225 0.939 . S
C241 C240 1.378 . S
C241 C242 1.361 . S
C242 H226 0.942 . S
C242 C241 1.361 . S
C242 C243 1.369 . S
C243 C242 1.369 . S
C243 C244 1.404 . S
C244 H227 0.940 . S
C244 C243 1.404 . S
C244 C245 1.389 . S
C245 H228 0.939 . S
C245 C240 1.400 . S
C245 C244 1.389 . S
C246 P220 1.819 . S
C246 C247 1.391 . S
C246 C251 1.391 . S
C247 H229 0.941 . S
C247 C246 1.391 . S
C247 C248 1.396 . S
C248 H232 0.939 . S
C248 C247 1.396 . S
C248 C249 1.397 . S
C249 C248 1.397 . S
C249 C250 1.385 . S
C250 H233 0.940 . S
C250 C249 1.385 . S
C250 C251 1.388 . S
C251 H230 0.939 . S
C251 C246 1.391 . S
C251 C250 1.388 . S
C252 C253 1.369 . S
C252 C254 1.419 . S
C252 H256 0.930 . S
C253 C252 1.369 . S
C253 C262 1.429 . S
C254 C252 1.419 . S
C254 C255 1.363 . S
C254 H257 0.929 . S
C255 C254 1.363 . S
C255 C261 1.428 . S
H256 C252 0.930 . S
H257 C254 0.929 . S
S258 N259 1.613 . S
S258 N260 1.610 . S
N259 S258 1.613 . S
N259 C262 1.350 . S
N260 S258 1.610 . S
N260 C261 1.351 . S
C261 C255 1.428 . S
C261 N260 1.351 . S
C261 C262 1.434 . S
C262 C253 1.429 . S
C262 N259 1.350 . S
C262 C261 1.434 . S
C263 C264 1.369 . S
C263 C265 1.419 . S
C263 H267 0.930 . S
C264 C263 1.369 . S
C264 C273 1.429 . S
C265 C263 1.419 . S
C265 C266 1.363 . S
C265 H268 0.929 . S
C266 C265 1.363 . S
C266 C272 1.428 . S
H267 C263 0.930 . S
H268 C265 0.929 . S
S269 N270 1.613 . S
S269 N271 1.610 . S
N270 S269 1.613 . S
N270 C273 1.350 . S
N271 S269 1.610 . S
N271 C272 1.351 . S
C272 C266 1.428 . S
C272 N271 1.351 . S
C272 C273 1.434 . S
C273 C264 1.429 . S
C273 N270 1.350 . S
C273 C272 1.434 . S
C274 C275 1.369 . S
C274 C276 1.419 . S
C274 H278 0.930 . S
C275 C274 1.369 . S
C275 C284 1.429 . S
C276 C274 1.419 . S
C276 C277 1.363 . S
C276 H279 0.929 . S
C277 C276 1.363 . S
C277 C283 1.428 . S
H278 C274 0.930 . S
H279 C276 0.929 . S
S280 N281 1.613 . S
S280 N282 1.610 . S
N281 S280 1.613 . S
N281 C284 1.350 . S
N282 S280 1.610 . S
N282 C283 1.351 . S
C283 C277 1.428 . S
C283 N282 1.351 . S
C283 C284 1.434 . S
C284 C275 1.429 . S
C284 N281 1.350 . S
C284 C283 1.434 . S
C285 C286 1.369 . S
C285 C287 1.419 . S
C285 H289 0.930 . S
C286 C285 1.369 . S
C286 C295 1.429 . S
C287 C285 1.419 . S
C287 C288 1.363 . S
C287 H290 0.929 . S
C288 C287 1.363 . S
C288 C294 1.428 . S
H289 C285 0.930 . S
H290 C287 0.929 . S
S291 N292 1.613 . S
S291 N293 1.610 . S
N292 S291 1.613 . S
N292 C295 1.350 . S
N293 S291 1.610 . S
N293 C294 1.351 . S
C294 C288 1.428 . S
C294 N293 1.351 . S
C294 C295 1.434 . S
C295 C286 1.429 . S
C295 N292 1.350 . S
C295 C294 1.434 . S
C296 C297 1.369 . S
C296 C298 1.419 . S
C296 H300 0.930 . S
C297 C296 1.369 . S
C297 C306 1.429 . S
C298 C296 1.419 . S
C298 C299 1.363 . S
C298 H301 0.929 . S
C299 C298 1.363 . S
C299 C305 1.428 . S
H300 C296 0.930 . S
H301 C298 0.929 . S
S302 N303 1.613 . S
S302 N304 1.610 . S
N303 S302 1.613 . S
N303 C306 1.350 . S
N304 S302 1.610 . S
N304 C305 1.351 . S
C305 C299 1.428 . S
C305 N304 1.351 . S
C305 C306 1.434 . S
C306 C297 1.429 . S
C306 N303 1.350 . S
C306 C305 1.434 . S
C307 C308 1.369 . S
C307 C309 1.419 . S
C307 H311 0.930 . S
C308 C307 1.369 . S
C308 C317 1.429 . S
C309 C307 1.419 . S
C309 C310 1.363 . S
C309 H312 0.929 . S
C310 C309 1.363 . S
C310 C316 1.428 . S
H311 C307 0.930 . S
H312 C309 0.929 . S
S313 N314 1.613 . S
S313 N315 1.610 . S
N314 S313 1.613 . S
N314 C317 1.350 . S
N315 S313 1.610 . S
N315 C316 1.351 . S
C316 C310 1.428 . S
C316 N315 1.351 . S
C316 C317 1.434 . S
C317 C308 1.429 . S
C317 N314 1.350 . S
C317 C316 1.434 . S
C318 C319 1.369 . S
C318 C320 1.419 . S
C318 H322 0.930 . S
C319 C318 1.369 . S
C319 C328 1.429 . S
C320 C318 1.419 . S
C320 C321 1.363 . S
C320 H323 0.929 . S
C321 C320 1.363 . S
C321 C327 1.428 . S
H322 C318 0.930 . S
H323 C320 0.929 . S
S324 N325 1.613 . S
S324 N326 1.610 . S
N325 S324 1.613 . S
N325 C328 1.350 . S
N326 S324 1.610 . S
N326 C327 1.351 . S
C327 C321 1.428 . S
C327 N326 1.351 . S
C327 C328 1.434 . S
C328 C319 1.429 . S
C328 N325 1.350 . S
C328 C327 1.434 . S
C329 C330 1.369 . S
C329 C331 1.419 . S
C329 H333 0.930 . S
C330 C329 1.369 . S
C330 C339 1.429 . S
C331 C329 1.419 . S
C331 C332 1.363 . S
C331 H334 0.929 . S
C332 C331 1.363 . S
C332 C338 1.428 . S
H333 C329 0.930 . S
H334 C331 0.929 . S
S335 N336 1.613 . S
S335 N337 1.610 . S
N336 S335 1.613 . S
N336 C339 1.350 . S
N337 S335 1.610 . S
N337 C338 1.351 . S
C338 C332 1.428 . S
C338 N337 1.351 . S
C338 C339 1.434 . S
C339 C330 1.429 . S
C339 N336 1.350 . S
C339 C338 1.434 . S
C340 C341 1.369 . S
C340 C342 1.419 . S
C340 H344 0.930 . S
C341 C340 1.369 . S
C341 C350 1.429 . S
C342 C340 1.419 . S
C342 C343 1.363 . S
C342 H345 0.929 . S
C343 C342 1.363 . S
C343 C349 1.428 . S
H344 C340 0.930 . S
H345 C342 0.929 . S
S346 N347 1.613 . S
S346 N348 1.610 . S
N347 S346 1.613 . S
N347 C350 1.350 . S
N348 S346 1.610 . S
N348 C349 1.351 . S
C349 C343 1.428 . S
C349 N348 1.351 . S
C349 C350 1.434 . S
C350 C341 1.429 . S
C350 N347 1.350 . S
C350 C349 1.434 . S
C351 C352 1.369 . S
C351 C353 1.419 . S
C351 H355 0.930 . S
C352 C351 1.369 . S
C352 C361 1.429 . S
C353 C351 1.419 . S
C353 C354 1.363 . S
C353 H356 0.929 . S
C354 C353 1.363 . S
C354 C360 1.428 . S
H355 C351 0.930 . S
H356 C353 0.929 . S
S357 N358 1.613 . S
S357 N359 1.610 . S
N358 S357 1.613 . S
N358 C361 1.350 . S
N359 S357 1.610 . S
N359 C360 1.351 . S
C360 C354 1.428 . S
C360 N359 1.351 . S
C360 C361 1.434 . S
C361 C352 1.429 . S
C361 N358 1.350 . S
C361 C360 1.434 . S
C362 C363 1.369 . S
C362 C364 1.419 . S
C362 H366 0.930 . S
C363 C362 1.369 . S
C363 C372 1.429 . S
C364 C362 1.419 . S
C364 C365 1.363 . S
C364 H367 0.929 . S
C365 C364 1.363 . S
C365 C371 1.428 . S
H366 C362 0.930 . S
H367 C364 0.929 . S
S368 N369 1.613 . S
S368 N370 1.610 . S
N369 S368 1.613 . S
N369 C372 1.350 . S
N370 S368 1.610 . S
N370 C371 1.351 . S
C371 C365 1.428 . S
C371 N370 1.351 . S
C371 C372 1.434 . S
C372 C363 1.429 . S
C372 N369 1.350 . S
C372 C371 1.434 . S
C373 C374 1.369 . S
C373 C375 1.419 . S
C373 H377 0.930 . S
C374 C373 1.369 . S
C374 C383 1.429 . S
C375 C373 1.419 . S
C375 C376 1.363 . S
C375 H378 0.929 . S
C376 C375 1.363 . S
C376 C382 1.428 . S
H377 C373 0.930 . S
H378 C375 0.929 . S
S379 N380 1.613 . S
S379 N381 1.610 . S
N380 S379 1.613 . S
N380 C383 1.350 . S
N381 S379 1.610 . S
N381 C382 1.351 . S
C382 C376 1.428 . S
C382 N381 1.351 . S
C382 C383 1.434 . S
C383 C374 1.429 . S
C383 N380 1.350 . S
C383 C382 1.434 . S
C384 C385 1.369 . S
C384 C386 1.419 . S
C384 H388 0.930 . S
C385 C384 1.369 . S
C385 C394 1.429 . S
C386 C384 1.419 . S
C386 C387 1.363 . S
C386 H389 0.929 . S
C387 C386 1.363 . S
C387 C393 1.428 . S
H388 C384 0.930 . S
H389 C386 0.929 . S
S390 N391 1.613 1_655 S
S390 N392 1.610 1_654 S
N391 S390 1.613 1_455 S
N391 C394 1.350 . S
N392 S390 1.610 1_456 S
N392 C393 1.351 1_556 S
C393 C387 1.428 . S
C393 N392 1.351 1_554 S
C393 C394 1.434 . S
C394 C385 1.429 . S
C394 N391 1.350 . S
C394 C393 1.434 . S
C395 C396 1.382 . S
C395 C397 1.422 . S
C395 H399 0.914 1_545 S
C396 C395 1.382 . S
C396 C405 1.429 . S
C397 C395 1.422 . S
C397 C398 1.363 . S
C397 H400 0.929 1_545 S
C398 C397 1.363 . S
C398 C404 1.428 . S
H399 C395 0.914 1_565 S
H400 C397 0.929 1_565 S
S401 N402 1.613 . S
S401 N403 1.610 . S
N402 S401 1.613 . S
N402 C405 1.350 . S
N403 S401 1.610 . S
N403 C404 1.351 . S
C404 C398 1.428 . S
C404 N403 1.351 . S
C404 C405 1.434 . S
C405 C396 1.429 . S
C405 N402 1.350 . S
C405 C404 1.434 . S
C406 C407 1.369 . S
C406 C408 1.419 . S
C406 H410 0.930 . S
C407 C406 1.369 . S
C407 C416 1.429 . S
C408 C406 1.419 . S
C408 C409 1.363 . S
C408 H411 0.929 . S
C409 C408 1.363 . S
C409 C415 1.428 . S
H410 C406 0.930 . S
H411 C408 0.929 . S
S412 N413 1.613 . S
S412 N414 1.610 . S
N413 S412 1.613 . S
N413 C416 1.350 . S
N414 S412 1.610 . S
N414 C415 1.351 . S
C415 C409 1.428 . S
C415 N414 1.351 . S
C415 C416 1.434 . S
C416 C407 1.429 . S
C416 N413 1.350 . S
C416 C415 1.434 . S
C417 C418 1.369 1_565 S
C417 C419 1.419 . S
C417 H421 0.930 . S
C418 C417 1.369 1_545 S
C418 C427 1.429 . S
C419 C417 1.419 . S
C419 C420 1.363 1_565 S
C419 H422 0.929 . S
C420 C419 1.363 1_545 S
C420 C426 1.428 . S
H421 C417 0.930 . S
H422 C419 0.929 . S
S423 N424 1.613 . S
S423 N425 1.610 . S
N424 S423 1.613 . S
N424 C427 1.350 . S
N425 S423 1.610 . S
N425 C426 1.351 . S
C426 C420 1.428 . S
C426 N425 1.351 . S
C426 C427 1.434 . S
C427 C418 1.429 . S
C427 N424 1.350 . S
C427 C426 1.434 . S
C428 C429 1.369 . S
C428 C430 1.419 . S
C428 H432 0.930 . S
C429 C428 1.369 . S
C429 C438 1.429 . S
C430 C428 1.419 . S
C430 C431 1.363 . S
C430 H433 0.929 . S
C431 C430 1.363 . S
C431 C437 1.428 . S
H432 C428 0.930 . S
H433 C430 0.929 . S
S434 N435 1.613 . S
S434 N436 1.610 . S
N435 S434 1.613 . S
N435 C438 1.350 . S
N436 S434 1.610 . S
N436 C437 1.351 . S
C437 C431 1.428 . S
C437 N436 1.351 . S
C437 C438 1.434 . S
C438 C429 1.429 . S
C438 N435 1.350 . S
C438 C437 1.434 . S
C439 C440 1.369 . S
C439 C441 1.419 . S
C439 H443 0.930 . S
C440 C439 1.369 . S
C440 C449 1.429 1_455 S
C441 C439 1.419 . S
C441 C442 1.363 . S
C441 H444 0.929 . S
C442 C441 1.363 . S
C442 C448 1.428 1_455 S
H443 C439 0.930 . S
H444 C441 0.929 . S
S445 N446 1.613 . S
S445 N447 1.610 . S
N446 S445 1.613 . S
N446 C449 1.350 . S
N447 S445 1.610 . S
N447 C448 1.351 . S
C448 C442 1.428 1_655 S
C448 N447 1.351 . S
C448 C449 1.434 . S
C449 C440 1.429 1_655 S
C449 N446 1.350 . S
C449 C448 1.434 . S
C253 C8 1.985 . S
C255 C243 2.032 . S
C264 C26 1.384 . S
C266 C179 1.352 . S
C275 C48 1.545 . S
C277 C211 1.562 . S
C286 C19 1.889 . S
C288 C237 1.923 . S
C299 C173 1.466 . S
C297 C36 1.479 . S
C310 C205 1.709 . S
C308 C59 1.695 . S
C319 C28 1.562 . S
C321 C115 1.589 . S
C330 C46 1.211 . S
C332 C147 1.229 . S
C341 C16 1.541 . S
C343 C77 1.498 . S
C354 C109 1.691 . S
C352 C39 1.677 . S
C365 C141 1.078 . S
C363 C56 1.075 . S
C374 C6 1.452 . S
C376 C83 1.382 . S
C387 C153 1.436 1_554 S
C385 C9 1.414 . S
C396 C21 1.505 . S
C398 C89 1.471 . S
C407 C49 1.471 . S
C409 C121 1.454 . S
C420 C217 1.443 . S
C418 C29 1.468 . S
C431 C249 1.565 1_556 S
C429 C41 1.565 . S
C440 C1 1.500 . S
C442 C185 1.470 . S
