# Generated by pormake.
# Topology zzz, (3,6)-cn, num edge types: 1
# Building blocks:
#     Node 0, Type 0, BuildingBlock: BETDAH_clean_linker_0, # of connection points: 3
#     Node 1, Type 0, BuildingBlock: BETDAH_clean_linker_0, # of connection points: 3
#     Node 2, Type 0, BuildingBlock: BETDAH_clean_linker_0, # of connection points: 3
#     Node 3, Type 0, BuildingBlock: BETDAH_clean_linker_0, # of connection points: 3
#     Node 4, Type 0, BuildingBlock: BETDAH_clean_linker_0, # of connection points: 3
#     Node 5, Type 0, BuildingBlock: BETDAH_clean_linker_0, # of connection points: 3
#     Node 6, Type 0, BuildingBlock: BETDAH_clean_linker_0, # of connection points: 3
#     Node 7, Type 0, BuildingBlock: BETDAH_clean_linker_0, # of connection points: 3
#     Node 8, Type 1, BuildingBlock: CUWYAW_clean_sbu_0, # of connection points: 6
#     Node 9, Type 1, BuildingBlock: CUWYAW_clean_sbu_0, # of connection points: 6
#     Node 10, Type 1, BuildingBlock: CUWYAW_clean_sbu_0, # of connection points: 6
#     Node 11, Type 1, BuildingBlock: CUWYAW_clean_sbu_0, # of connection points: 6
#     Edge 12, Type (0, 1), BuildingBlock: OJICUG_clean_linker_0, # of connection points: 2
#     Edge 13, Type (0, 1), BuildingBlock: OJICUG_clean_linker_0, # of connection points: 2
#     Edge 14, Type (0, 1), BuildingBlock: OJICUG_clean_linker_0, # of connection points: 2
#     Edge 15, Type (0, 1), BuildingBlock: OJICUG_clean_linker_0, # of connection points: 2
#     Edge 16, Type (0, 1), BuildingBlock: OJICUG_clean_linker_0, # of connection points: 2
#     Edge 17, Type (0, 1), BuildingBlock: OJICUG_clean_linker_0, # of connection points: 2
#     Edge 18, Type (0, 1), BuildingBlock: OJICUG_clean_linker_0, # of connection points: 2
#     Edge 19, Type (0, 1), BuildingBlock: OJICUG_clean_linker_0, # of connection points: 2
#     Edge 20, Type (0, 1), BuildingBlock: OJICUG_clean_linker_0, # of connection points: 2
#     Edge 21, Type (0, 1), BuildingBlock: OJICUG_clean_linker_0, # of connection points: 2
#     Edge 22, Type (0, 1), BuildingBlock: OJICUG_clean_linker_0, # of connection points: 2
#     Edge 23, Type (0, 1), BuildingBlock: OJICUG_clean_linker_0, # of connection points: 2
#     Edge 24, Type (0, 1), BuildingBlock: OJICUG_clean_linker_0, # of connection points: 2
#     Edge 25, Type (0, 1), BuildingBlock: OJICUG_clean_linker_0, # of connection points: 2
#     Edge 26, Type (0, 1), BuildingBlock: OJICUG_clean_linker_0, # of connection points: 2
#     Edge 27, Type (0, 1), BuildingBlock: OJICUG_clean_linker_0, # of connection points: 2
#     Edge 28, Type (0, 1), BuildingBlock: OJICUG_clean_linker_0, # of connection points: 2
#     Edge 29, Type (0, 1), BuildingBlock: OJICUG_clean_linker_0, # of connection points: 2
#     Edge 30, Type (0, 1), BuildingBlock: OJICUG_clean_linker_0, # of connection points: 2
#     Edge 31, Type (0, 1), BuildingBlock: OJICUG_clean_linker_0, # of connection points: 2
#     Edge 32, Type (0, 1), BuildingBlock: OJICUG_clean_linker_0, # of connection points: 2
#     Edge 33, Type (0, 1), BuildingBlock: OJICUG_clean_linker_0, # of connection points: 2
#     Edge 34, Type (0, 1), BuildingBlock: OJICUG_clean_linker_0, # of connection points: 2
#     Edge 35, Type (0, 1), BuildingBlock: OJICUG_clean_linker_0, # of connection points: 2
# Relax obj value: 0.359
# Max RMSD: 0.188
# Mean RMSD: 0.137
data_MOF--net-zzz--node1-CUWYAW_clean_sbu_0--node2-BETDAH_clean_linker_0--edge1-OJICUG_clean_linker_0
_symmetry_space_group_name_H-M    P1
_symmetry_Int_Tables_number       1
_symmetry_cell_setting            triclinic
loop_
_symmetry_equiv_pos_as_xyz
'x, y, z'
_cell_length_a     37.122388
_cell_length_b     37.067509
_cell_length_c     10.502887
_cell_angle_alpha  89.593822
_cell_angle_beta   89.709974
_cell_angle_gamma 90.033883
loop_
_atom_site_label
_atom_site_type_symbol
_atom_site_fract_x
_atom_site_fract_y
_atom_site_fract_z
_atom_type_partial_charge
H0 H 0.83796 0.46244 0.53604 0.0
H1 H 0.73746 0.48376 0.34772 0.0
H2 H 0.78521 0.56378 0.59145 0.0
C3 C 0.81443 0.47929 0.52198 0.0
C4 C 0.81436 0.51345 0.57748 0.0
C5 C 0.78735 0.46848 0.43688 0.0
C6 C 0.75823 0.49182 0.41375 0.0
C7 C 0.75693 0.52614 0.47034 0.0
C8 C 0.78539 0.53696 0.55116 0.0
N9 N 0.72835 0.55081 0.44357 0.0
C10 C 0.70224 0.54639 0.3489 0.0
H11 H 0.97281 0.84701 0.37471 0.0
H12 H 0.98551 0.73542 0.2892 0.0
H13 H 1.0247 0.77745 0.64594 0.0
C14 C 0.97995 0.82009 0.40633 0.0
C15 C 0.99715 0.81622 0.52421 0.0
C16 C 0.97626 0.79128 0.321 0.0
C17 C 0.98777 0.75701 0.35748 0.0
C18 C 1.00542 0.75136 0.47384 0.0
C19 C 1.01038 0.7813 0.55732 0.0
N20 N 1.02003 0.71644 0.50311 0.0
C21 C 1.01907 0.68701 0.41863 0.0
H22 H 0.73109 0.09635 0.53095 0.0
H23 H 0.83009 0.08136 0.32543 0.0
H24 H 0.78737 0.99598 0.56438 0.0
C25 C 0.75505 0.08048 0.51183 0.0
C26 C 0.75656 0.04547 0.56095 0.0
C27 C 0.7809 0.09337 0.42474 0.0
C28 C 0.81058 0.07156 0.39419 0.0
C29 C 0.81377 0.03658 0.44693 0.0
C30 C 0.78616 1.02344 0.52863 0.0
N31 N 0.84321 1.01348 0.41457 0.0
C32 C 0.86974 1.02139 0.32318 0.0
H33 H 0.47898 0.72045 0.46003 0.0
H34 H 0.49246 0.82667 0.30376 0.0
H35 H 0.56786 0.78555 0.58191 0.0
C36 C 0.49298 0.74618 0.45973 0.0
C37 C 0.52392 0.74979 0.53346 0.0
C38 C 0.48194 0.77354 0.37579 0.0
C39 C 0.50118 0.80599 0.36974 0.0
C40 C 0.53195 0.81108 0.44571 0.0
C41 C 0.5435 0.78251 0.52667 0.0
N42 N 0.55228 0.84387 0.43867 0.0
C43 C 0.54643 0.87133 0.34846 0.0
H44 H 0.22687 0.58508 0.1807 0.0
H45 H 0.33148 0.56555 0.34063 0.0
H46 H 0.28414 0.48894 0.08217 0.0
C47 C 0.25149 0.56934 0.18444 0.0
C48 C 0.25243 0.53668 0.11922 0.0
C49 C 0.27947 0.57974 0.266 0.0
C50 C 0.31021 0.55785 0.27602 0.0
C51 C 0.31256 0.52531 0.2078 0.0
C52 C 0.2832 0.51459 0.13085 0.0
N53 N 0.34318 0.50219 0.21894 0.0
C54 C 0.37207 0.5074 0.30229 0.0
H55 H 0.97445 0.22792 0.11543 0.0
H56 H 0.99108 0.32646 0.32038 0.0
H57 H 0.0744 0.2847 0.07297 0.0
C58 C 0.99066 0.25169 0.13376 0.0
C59 C 1.02522 0.25333 0.08123 0.0
C60 C 0.97832 0.27753 0.22099 0.0
C61 C 1.00038 0.30703 0.25102 0.0
C62 C 0.03483 0.31051 0.19535 0.0
C63 C 0.04738 0.28309 0.11196 0.0
N64 N 0.05781 0.34035 0.22445 0.0
C65 C 0.05136 0.36678 0.31724 0.0
H66 H 0.34536 0.98046 0.12342 0.0
H67 H 0.24255 0.99627 0.30338 0.0
H68 H 0.28558 0.07678 0.04397 0.0
C69 C 0.32062 0.99586 0.13279 0.0
C70 C 0.31855 1.02932 0.07204 0.0
C71 C 0.29365 0.98391 0.21703 0.0
C72 C 0.26284 1.00519 0.23568 0.0
C73 C 0.25904 0.03837 0.1702 0.0
C74 C 0.28743 0.05059 0.08987 0.0
N75 N 0.22782 0.06045 0.18693 0.0
C76 C 0.20086 0.0542 0.27828 0.0
H77 H 0.60847 0.33596 0.11043 0.0
H78 H 0.59305 0.23187 0.28477 0.0
H79 H 0.51235 0.27627 0.03356 0.0
C80 C 0.5934 0.31097 0.11914 0.0
C81 C 0.56008 0.30892 0.05861 0.0
C82 C 0.60515 0.28385 0.20338 0.0
C83 C 0.58406 0.25266 0.21941 0.0
C84 C 0.55067 0.24933 0.15704 0.0
C85 C 0.53863 0.27787 0.07755 0.0
N86 N 0.528 0.21865 0.17805 0.0
C87 C 0.53324 0.19304 0.27495 0.0
C88 C 0.96833 0.0654 0.48966 0.0
Eu89 Eu 1.00616 0.04816 0.68822 0.0
C90 C 0.94573 0.09708 0.46385 0.0
C91 C 0.92974 0.11618 0.56461 0.0
C92 C 0.91551 0.15061 0.5438 0.0
C93 C 0.91698 0.16632 0.42188 0.0
C94 C 0.9299 0.14557 0.31933 0.0
C95 C 0.94456 0.11143 0.34062 0.0
C96 C 0.97416 0.0451 0.92074 0.0
C97 C 0.04099 0.11114 0.86244 0.0
C98 C 0.07423 0.99517 0.10931 0.0
Eu99 Eu 0.05567 1.02511 0.89921 0.0
C100 C 0.06377 0.95732 0.13302 0.0
C101 C 0.07647 0.93046 0.04973 0.0
C102 C 0.05639 0.89935 0.02903 0.0
C103 C 1.02377 0.89379 0.09404 0.0
C104 C 1.01346 0.91858 0.1888 0.0
C105 C 0.03328 0.95001 0.20813 0.0
C106 C 0.09896 0.03768 0.69311 0.0
C107 C 1.02343 0.96172 0.7184 0.0
O108 O 1.00289 0.0721 0.49845 0.0
O109 O 0.95672 0.0435 0.57895 0.0
O110 O 0.96934 0.07079 0.83864 0.0
O111 O 0.99611 1.02209 0.87651 0.0
O112 O 1.02609 0.10341 0.75134 0.0
O113 O 0.05203 0.08524 0.94066 0.0
O114 O 0.04724 1.01796 0.10385 0.0
O115 O 0.09725 1.00016 1.01615 0.0
O116 O 0.1102 1.02894 0.80547 0.0
O117 O 0.06498 0.04127 0.6948 0.0
O118 O 0.0424 0.96939 0.8207 0.0
O119 O 1.00844 0.98761 0.64916 0.0
H120 H 0.93049 0.10564 0.66092 0.0
H121 H 0.90598 0.16602 0.62449 0.0
H122 H 0.93219 0.15708 0.22453 0.0
H123 H 0.95737 0.0974 0.26247 0.0
H124 H 0.10017 0.93483 0.99102 0.0
H125 H 0.06582 0.88043 0.95836 0.0
H126 H 0.98964 0.91415 0.24681 0.0
H127 H 1.02304 0.96996 0.27399 0.0
C128 C 0.50447 0.98326 0.49111 0.0
Eu129 Eu 0.52747 1.00988 0.70261 0.0
C130 C 0.4735 0.95951 0.47034 0.0
C131 C 0.45347 0.94691 0.57548 0.0
C132 C 0.41942 0.93175 0.55823 0.0
C133 C 0.40487 0.92912 0.43551 0.0
C134 C 0.42669 0.93847 0.32983 0.0
C135 C 0.46066 0.95381 0.34731 0.0
C136 C 0.5307 0.97037 0.92514 0.0
C137 C 0.46396 0.04299 0.88604 0.0
C138 C 0.57121 0.08791 0.15201 0.0
Eu139 Eu 0.54888 0.06111 0.93962 0.0
C140 C 0.60127 0.11256 0.1768 0.0
C141 C 0.62013 0.12841 0.07447 0.0
C142 C 0.65325 0.14533 0.09458 0.0
C143 C 0.66798 0.14654 0.21738 0.0
C144 C 0.64719 0.13367 0.32099 0.0
C145 C 0.61426 0.11649 0.30055 0.0
C146 C 0.54582 0.10004 0.7156 0.0
C147 C 0.61228 1.02854 0.75452 0.0
O148 O 0.49589 1.01569 0.53019 0.0
O149 O 0.53124 0.96904 0.5551 0.0
O150 O 0.52285 0.95728 0.81489 0.0
O151 O 0.53631 1.00373 0.91011 0.0
O152 O 0.47276 1.02828 0.77524 0.0
O153 O 0.48845 0.05425 0.96878 0.0
O154 O 0.58088 0.05591 0.11153 0.0
O155 O 0.54425 0.10163 0.08771 0.0
O156 O 0.55388 0.11365 0.82494 0.0
O157 O 0.54006 0.06689 0.73321 0.0
O158 O 0.60359 0.04297 0.86597 0.0
O159 O 0.58775 1.01719 0.67216 0.0
H160 H 0.46295 0.95128 0.67147 0.0
H161 H 0.40332 0.92486 0.64123 0.0
H162 H 0.41618 0.93741 0.2339 0.0
H163 H 0.47562 0.96363 0.26531 0.0
H164 H 0.61056 0.12546 0.97791 0.0
H165 H 0.66862 0.15486 1.01308 0.0
H166 H 0.65791 0.1335 0.41672 0.0
H167 H 0.60026 0.10411 0.38036 0.0
C168 C 0.61598 0.49772 0.55351 0.0
Eu169 Eu 0.57027 0.52429 0.71677 0.0
C170 C 0.62668 0.46011 0.52946 0.0
C171 C 0.66319 0.45067 0.51655 0.0
C172 C 0.67311 0.41463 0.49632 0.0
C173 C 0.64661 0.38754 0.49249 0.0
C174 C 0.61024 0.39724 0.50843 0.0
C175 C 0.60041 0.43299 0.52626 0.0
C176 C 0.59648 0.5455 0.94626 0.0
C177 C 0.53976 0.45474 0.8782 0.0
C178 C 0.47057 0.55983 0.06301 0.0
Eu179 Eu 0.51488 0.53505 0.89202 0.0
C180 C 0.45285 0.59482 0.07987 0.0
C181 C 0.44419 0.61692 0.97494 0.0
C182 C 0.43297 0.65255 0.9938 0.0
C183 C 0.42985 0.66626 0.11776 0.0
C184 C 0.43657 0.64318 0.22205 0.0
C185 C 0.4485 0.60807 0.20295 0.0
C186 C 0.4882 0.51296 0.66436 0.0
C187 C 0.54467 0.60491 0.72618 0.0
O188 O 0.58292 0.50655 0.52409 0.0
O189 O 0.62545 0.51025 0.66386 0.0
O190 O 0.60511 0.56013 0.83805 0.0
O191 O 0.57235 0.52181 0.93015 0.0
O192 O 0.5541 0.46624 0.76985 0.0
O193 O 0.52597 0.47827 0.95778 0.0
O194 O 0.50554 0.5601 0.07635 0.0
O195 O 0.46026 0.54078 0.96587 0.0
O196 O 0.47942 0.49928 0.77374 0.0
O197 O 0.51228 0.53691 0.67863 0.0
O198 O 0.52756 0.59335 0.82955 0.0
O199 O 0.56161 0.58169 0.65306 0.0
H200 H 0.68389 0.47123 0.52027 0.0
H201 H 0.70125 0.40801 0.48198 0.0
H202 H 0.58898 0.37731 0.50195 0.0
H203 H 0.57208 0.43933 0.53685 0.0
H204 H 0.44806 0.60734 0.87861 0.0
H205 H 0.42871 0.66993 0.91191 0.0
H206 H 0.43577 0.65318 0.31872 0.0
H207 H 0.45665 0.59205 0.28421 0.0
C208 C 0.0665 0.60376 0.63081 0.0
Eu209 Eu 0.03826 0.55613 0.78553 0.0
C210 C 0.10446 0.61181 0.60171 0.0
C211 C 0.11649 0.64759 0.58831 0.0
C212 C 0.1531 0.65488 0.56629 0.0
C213 C 0.1781 0.62645 0.56032 0.0
C214 C 0.16573 0.59079 0.57522 0.0
C215 C 0.12944 0.58357 0.59528 0.0
C216 C 1.01548 0.5793 0.01932 0.0
C217 C 0.10648 0.52101 0.9394 0.0
C218 C 0.99792 0.45052 0.10479 0.0
Eu219 Eu 1.02544 0.49791 0.94745 0.0
C220 C 0.96034 0.43919 0.12545 0.0
C221 C 0.95148 0.4028 0.14744 0.0
C222 C 0.91538 0.39249 0.16509 0.0
C223 C 0.88778 0.41842 0.15773 0.0
C224 C 0.89706 0.45459 0.13237 0.0
C225 C 0.93277 0.46482 0.11716 0.0
C226 C 0.049 0.47436 0.71624 0.0
C227 C 0.95752 0.53214 0.78505 0.0
O228 O 0.05456 0.57236 0.5937 0.0
O229 O 0.0564 0.61119 0.74654 0.0
O230 O 1.00201 0.58969 0.91164 0.0
O231 O 0.03872 0.5548 0.99975 0.0
O232 O 0.09561 0.53812 0.83573 0.0
O233 O 0.08255 0.50526 1.01398 0.0
O234 O 1.0058 0.48359 0.13719 0.0
O235 O 1.0115 0.44209 0.99446 0.0
O236 O 0.06191 0.46407 0.82482 0.0
O237 O 1.02559 0.4989 0.73352 0.0
O238 O 0.96801 0.51375 0.88677 0.0
O239 O 0.98149 0.5497 0.71619 0.0
H240 H 0.09755 0.66976 0.59384 0.0
H241 H 0.16181 0.68253 0.55255 0.0
H242 H 0.18396 0.56811 0.56669 0.0
H243 H 0.12099 0.55573 0.60536 0.0
H244 H 0.97246 0.38256 0.15299 0.0
H245 H 0.90911 0.36457 0.18688 0.0
H246 H 0.87681 0.47562 0.13047 0.0
H247 H 0.93873 0.49306 0.10074 0.0
C248 C 0.13717 0.0541 0.35785 0.0
C249 C 0.1743 0.04942 0.37951 0.0
H250 H 0.08371 0.05414 0.44004 0.0
C251 C 0.186 0.04106 0.50253 0.0
H252 H 0.12753 0.06064 0.26327 0.0
C253 C 0.16124 0.03753 0.60267 0.0
C254 C 0.12401 0.04229 0.58269 0.0
H255 H 0.21445 0.03741 0.52163 0.0
H256 H 0.17145 1.03105 0.69652 0.0
C257 C 0.11214 0.05051 0.4588 0.0
C258 C 0.55783 0.17864 0.48696 0.0
C259 C 0.53781 0.16803 0.38112 0.0
H260 H 0.5761 0.16524 0.67417 0.0
C261 C 0.52137 0.13379 0.38215 0.0
H262 H 0.5706 0.20493 0.48893 0.0
C263 C 0.52483 0.11061 0.4884 0.0
C264 C 0.54428 0.12167 0.59581 0.0
H265 H 0.50547 0.12517 0.30172 0.0
H266 H 0.51144 0.0847 0.48804 0.0
C267 C 0.56092 0.15583 0.59304 0.0
C268 C 0.41696 0.54258 0.42631 0.0
C269 C 0.40282 0.50929 0.38781 0.0
H270 H 0.45637 0.57004 0.54035 0.0
C271 C 0.41853 0.47743 0.43433 0.0
H272 H 0.40472 0.56747 0.39366 0.0
C273 C 0.44739 0.47881 0.52004 0.0
C274 C 0.4618 0.51207 0.55846 0.0
H275 H 0.40798 0.4514 0.40659 0.0
H276 H 0.4581 0.45382 0.55822 0.0
C277 C 0.44656 0.54401 0.50954 0.0
C278 C 0.07903 0.39789 0.50041 0.0
C279 C 0.05041 0.39492 0.41447 0.0
H280 H 0.10111 0.42547 0.6611 0.0
C281 C 1.02191 0.41983 0.42297 0.0
H282 H 0.10146 0.37924 0.49574 0.0
C283 C 1.02196 0.44699 0.51663 0.0
C284 C 0.05034 0.4494 0.60484 0.0
H285 H 0.99938 0.41803 0.35862 0.0
H286 H 0.99926 0.46525 0.52269 0.0
C287 C 0.07892 0.42459 0.5946 0.0
C288 C 0.92551 1.00313 0.20739 0.0
C289 C 0.8972 1.02778 0.22602 0.0
H290 H 0.97216 0.98897 0.0954 0.0
C291 C 0.89509 0.05824 0.14679 0.0
H292 H 0.92762 0.9793 0.26723 0.0
C293 C 0.92068 0.06398 0.05027 0.0
C294 C 0.94884 0.03919 0.02954 0.0
H295 H 0.87358 0.07765 0.15875 0.0
H296 H 0.91806 0.08779 0.99062 0.0
C297 C 0.95106 1.00869 0.10956 0.0
C298 C 0.52236 0.88806 0.138 0.0
C299 C 0.54081 0.89808 0.24798 0.0
H300 H 0.50441 0.90324 0.95262 0.0
C301 C 0.55471 0.93339 0.25592 0.0
H302 H 0.51166 0.86104 0.12834 0.0
C303 C 0.55058 0.95806 0.15381 0.0
C304 C 0.53276 0.9475 0.04218 0.0
H305 H 0.56929 0.94169 0.33984 0.0
H306 H 0.56214 0.98477 0.16072 0.0
C307 C 0.51835 0.91238 0.03688 0.0
C308 C 0.65053 0.51719 0.23846 0.0
C309 C 0.67486 0.54602 0.24975 0.0
H310 H 0.60587 0.49466 0.13598 0.0
C311 C 0.67219 0.57516 0.16443 0.0
H312 H 0.65239 0.49418 0.30161 0.0
C313 C 0.64605 0.57528 0.06835 0.0
C314 C 0.62161 0.54646 0.05642 0.0
H315 H 0.69059 0.59776 0.17118 0.0
H316 H 0.64518 0.59786 1.00238 0.0
C317 C 0.62389 0.51754 0.14359 0.0
C318 C 0.98725 0.65452 0.24517 0.0
C319 C 1.01727 0.65776 0.32517 0.0
H320 H 0.96319 0.62725 0.08691 0.0
C321 C 0.04587 0.63325 0.30967 0.0
H322 H 0.96473 0.67288 0.25472 0.0
C323 C 0.04466 0.60637 0.21521 0.0
C324 C 1.01509 0.60392 0.13206 0.0
H325 H 0.06959 0.63538 0.36845 0.0
H326 H 0.06753 0.58853 0.20386 0.0
C327 C 0.98631 0.6282 0.14933 0.0
C328 C 0.9536 0.25832 0.42768 0.0
C329 C 0.94677 0.26747 0.30021 0.0
H330 H 0.94829 0.21732 0.56978 0.0
C331 C 0.91686 0.25183 0.24007 0.0
H332 H 0.97592 0.27054 0.4777 0.0
C333 C 0.90125 0.22069 0.29205 0.0
C334 C 0.91496 0.20602 0.40557 0.0
H335 H 0.91039 0.25919 0.14282 0.0
H336 H 0.8828 0.20524 0.23429 0.0
C337 C 0.93778 0.22744 0.48036 0.0
C338 C 0.31185 0.96387 0.42966 0.0
C339 C 0.30342 0.95412 0.30452 0.0
H340 H 0.35238 0.96287 0.57244 0.0
C341 C 0.32014 0.92348 0.25249 0.0
H342 H 0.29881 0.98684 0.47345 0.0
C343 C 0.35149 0.90994 0.30828 0.0
C344 C 0.36532 0.92641 0.41775 0.0
H345 H 0.3134 0.91484 0.15718 0.0
H346 H 0.36756 0.89064 0.25583 0.0
C347 C 0.343 0.95018 0.48611 0.0
C348 C 0.62405 0.29315 0.42594 0.0
C349 C 0.63354 0.2936 0.29624 0.0
H350 H 0.6225 0.32402 0.59692 0.0
C351 C 0.66183 0.31643 0.25645 0.0
H352 H 0.60331 0.27509 0.46153 0.0
C353 C 0.67198 0.34534 0.33316 0.0
C354 C 0.65481 0.35029 0.45113 0.0
H355 H 0.67085 0.31627 0.15817 0.0
H356 H 0.68841 0.36655 0.29144 0.0
C357 C 0.63487 0.3215 0.5037 0.0
C358 C 0.25041 0.63792 0.32311 0.0
C359 C 0.27128 0.60805 0.36094 0.0
H360 H 0.2022 0.66755 0.3606 0.0
C361 C 0.27071 0.59767 0.48979 0.0
H362 H 0.25134 0.64737 0.22528 0.0
C363 C 0.24299 0.60987 0.56868 0.0
C364 C 0.21582 0.63208 0.518 0.0
H365 H 0.28723 0.57552 0.52342 0.0
H366 H 0.23942 0.59715 0.66114 0.0
C367 C 0.22214 0.64953 0.40096 0.0
C368 C 0.94949 0.8291 0.15264 0.0
C369 C 0.97209 0.80003 0.18406 0.0
H370 H 0.94984 0.88502 0.10059 0.0
C371 C 1.00403 0.79617 0.11325 0.0
H372 H 0.9232 0.83139 0.1971 0.0
C373 C 1.02031 0.82714 0.06379 0.0
C374 C 1.00248 0.86044 0.075 0.0
H375 H 1.02074 0.77243 0.12518 0.0
H376 H 0.04845 0.82558 0.03718 0.0
C377 C 0.96521 0.86018 0.10082 0.0
C378 C 0.75231 0.15352 0.40121 0.0
C379 C 0.77019 0.12437 0.34352 0.0
H380 H 0.70344 0.18419 0.40423 0.0
C381 C 0.76244 0.11667 0.21591 0.0
H382 H 0.75864 0.16088 0.49823 0.0
C383 C 0.7308 0.12999 0.16181 0.0
C384 C 0.70734 0.15138 0.235 0.0
H385 H 0.77646 0.09514 0.16713 0.0
H386 H 0.72207 0.11846 0.07263 0.0
C387 C 0.72041 0.16661 0.34789 0.0
C388 C 0.46889 0.75661 0.15522 0.0
C389 C 0.45548 0.76367 0.27772 0.0
H390 H 0.47013 0.71865 1.00345 0.0
C391 C 0.42311 0.7473 0.31682 0.0
H392 H 0.49361 0.76925 0.12238 0.0
C393 C 0.40947 0.71825 0.2483 0.0
C394 C 0.42836 0.70555 0.14132 0.0
H395 H 0.41203 0.75275 0.41036 0.0
H396 H 0.38792 0.70232 0.29019 0.0
C397 C 0.45539 0.72741 0.087 0.0
C398 C 0.79459 0.44397 0.21924 0.0
C399 C 0.79527 0.4376 0.35132 0.0
H400 H 0.82465 0.44009 0.04599 0.0
C401 C 0.81665 0.40896 0.39698 0.0
H402 H 0.77742 0.46465 0.17881 0.0
C403 C 0.84488 0.39599 0.32159 0.0
C404 C 0.85033 0.41059 0.19931 0.0
H405 H 0.81628 0.40191 0.49728 0.0
H406 H 0.86551 0.37975 0.3667 0.0
C407 C 0.82197 0.42996 0.14265 0.0
C408 C 0.05905 0.19464 0.06643 0.0
C409 C 0.03752 0.22105 1.00738 0.0
H410 H 0.07705 0.13954 0.06813 0.0
C411 C 1.02006 0.21188 0.89327 0.0
H412 H 0.07193 0.2004 0.15636 0.0
C413 C 1.02288 0.17694 0.84236 0.0
C414 C 0.04267 0.14979 0.90546 0.0
H415 H 1.00243 0.23122 0.84732 0.0
H416 H 1.0078 0.17072 0.75725 0.0
C417 C 0.06152 0.15951 1.01647 0.0
C418 C 0.37735 0.06218 0.07207 0.0
C419 C 0.35177 0.04192 1.00491 0.0
H420 H 0.43266 0.07836 0.08839 0.0
C421 C 0.36268 1.02491 0.89189 0.0
H422 H 0.37002 0.07456 0.16169 0.0
C423 C 0.39863 1.0268 0.84996 0.0
C424 C 0.42485 0.04518 0.92142 0.0
H425 H 0.34387 1.00814 0.84042 0.0
H426 H 0.40618 1.01209 0.76516 0.0
C427 C 0.41343 0.06378 0.03102 0.0
C428 C 0.5663 0.35532 0.88518 0.0
C429 C 0.54735 0.34224 0.99227 0.0
H430 H 0.57872 0.40072 0.7654 0.0
C431 C 0.52341 0.36565 0.05479 0.0
H432 H 0.58571 0.33824 0.83732 0.0
C433 C 0.51996 0.40182 1.01527 0.0
C434 C 0.54023 0.41542 0.91172 0.0
H435 H 0.50929 0.35668 0.13982 0.0
H436 H 0.50239 0.41947 0.06894 0.0
C437 C 0.56254 0.39131 0.84479 0.0
C438 C 0.20604 0.54641 0.95 0.0
C439 C 0.21876 0.52561 0.05283 0.0
H440 H 0.16108 0.56128 0.83408 0.0
C441 C 0.19497 0.50096 0.11146 0.0
H442 H 0.2234 0.56636 0.90528 0.0
C443 C 0.15885 0.49848 0.07215 0.0
C444 C 0.14568 0.52051 0.97284 0.0
H445 H 0.20367 0.48537 0.19333 0.0
H446 H 0.14094 0.48024 0.12275 0.0
C447 C 0.17012 0.5437 0.90997 0.0
C448 C 0.97557 0.87699 0.60246 0.0
C449 C 1.003 0.85052 0.59994 0.0
H450 H 0.96077 0.93207 0.63643 0.0
C451 C 0.03693 0.86039 0.64892 0.0
H452 H 0.94886 0.87064 0.56811 0.0
C453 C 0.04353 0.89606 0.69142 0.0
C454 C 1.01662 0.92294 0.68381 0.0
H455 H 0.0589 0.84121 0.64802 0.0
H456 H 0.07019 0.90303 0.7246 0.0
C457 C 0.98242 0.91252 0.64111 0.0
C458 C 0.71301 0.04884 0.74322 0.0
C459 C 0.72377 0.03221 0.62926 0.0
H460 H 0.66984 0.06054 0.87267 0.0
C461 C 0.69844 1.01121 0.5638 0.0
H462 H 0.73165 0.06602 0.79378 0.0
C463 C 0.66261 1.00872 0.60709 0.0
C464 C 0.65127 1.02705 0.7174 0.0
H465 H 0.70565 0.999 0.47381 0.0
H466 H 0.64347 0.99368 0.55087 0.0
C467 C 0.67735 0.04604 0.78738 0.0
C468 C 0.51641 0.70402 0.70898 0.0
C469 C 0.53627 0.71688 0.60355 0.0
H470 H 0.50379 0.65912 0.83148 0.0
C471 C 0.56104 0.69344 0.54541 0.0
H472 H 0.49632 0.72107 0.75331 0.0
C473 C 0.56469 0.65754 0.58784 0.0
C474 C 0.54369 0.64412 0.68992 0.0
H475 H 0.57586 0.70217 0.46155 0.0
H476 H 0.58304 0.63994 0.53736 0.0
C477 C 0.52036 0.66827 0.75253 0.0
C478 C 0.85946 0.50275 0.75147 0.0
C479 C 0.84731 0.52433 0.64953 0.0
H480 H 0.90322 0.48828 0.87377 0.0
C481 C 0.87072 0.55087 0.6002 0.0
H482 H 0.84234 0.48162 0.7901 0.0
C483 C 0.90605 0.55434 0.64701 0.0
C484 C 0.91878 0.53154 0.74506 0.0
H485 H 0.86252 0.56734 0.51985 0.0
H486 H 0.9238 0.57407 0.60312 0.0
C487 C 0.89455 0.50645 0.79903 0.0
loop_
_geom_bond_atom_site_label_1
_geom_bond_atom_site_label_2
_geom_bond_distance
_geom_bond_site_symmetry_2
_ccdc_geom_bond_type
H0 C3 0.929 . S
H1 C6 0.929 . S
H2 C8 0.930 . S
C3 H0 0.929 . S
C3 C4 1.398 . S
C3 C5 1.396 . S
C4 C3 1.398 . S
C4 C8 1.407 . S
C5 C3 1.396 . S
C5 C6 1.394 . S
C6 H1 0.929 . S
C6 C5 1.394 . S
C6 C7 1.382 . S
C7 C6 1.382 . S
C7 C8 1.392 . S
C7 N9 1.420 . S
C8 H2 0.930 . S
C8 C4 1.407 . S
C8 C7 1.392 . S
N9 C7 1.420 . S
N9 C10 1.244 . S
C10 N9 1.244 . S
H11 C14 0.929 . S
H12 C17 0.929 . S
H13 C19 0.930 . S
C14 H11 0.929 . S
C14 C15 1.395 1_655 S
C14 C16 1.394 1_655 S
C15 C14 1.395 1_455 S
C15 C19 1.414 . S
C16 C14 1.394 1_455 S
C16 C17 1.397 . S
C17 H12 0.929 . S
C17 C16 1.397 . S
C17 C18 1.382 . S
C18 C17 1.382 . S
C18 C19 1.392 . S
C18 N20 1.420 . S
C19 H13 0.930 . S
C19 C15 1.414 . S
C19 C18 1.392 . S
N20 C18 1.420 . S
N20 C21 1.232 1_455 S
C21 N20 1.232 1_655 S
H22 C25 0.929 . S
H23 C28 0.929 . S
H24 C30 0.930 . S
C25 H22 0.929 . S
C25 C26 1.395 1_565 S
C25 C27 1.394 1_565 S
C26 C25 1.395 1_545 S
C26 C30 1.414 . S
C27 C25 1.394 1_545 S
C27 C28 1.397 . S
C28 H23 0.929 . S
C28 C27 1.397 . S
C28 C29 1.382 . S
C29 C28 1.382 . S
C29 C30 1.392 . S
C29 N31 1.420 . S
C30 H24 0.930 . S
C30 C26 1.414 . S
C30 C29 1.392 . S
N31 C29 1.420 . S
N31 C32 1.231 1_545 S
C32 N31 1.231 1_565 S
H33 C36 0.929 . S
H34 C39 0.929 . S
H35 C41 0.930 . S
C36 H33 0.929 . S
C36 C37 1.398 . S
C36 C38 1.396 . S
C37 C36 1.398 . S
C37 C41 1.407 . S
C38 C36 1.396 . S
C38 C39 1.394 . S
C39 H34 0.929 . S
C39 C38 1.394 . S
C39 C40 1.382 . S
C40 C39 1.382 . S
C40 C41 1.392 . S
C40 N42 1.420 . S
C41 H35 0.930 . S
C41 C37 1.407 . S
C41 C40 1.392 . S
N42 C40 1.420 . S
N42 C43 1.244 . S
C43 N42 1.244 . S
H44 C47 0.929 . S
H45 C50 0.929 . S
H46 C52 0.930 . S
C47 H44 0.929 . S
C47 C48 1.398 1_554 S
C47 C49 1.396 . S
C48 C47 1.398 1_556 S
C48 C52 1.407 . S
C49 C47 1.396 . S
C49 C50 1.394 . S
C50 H45 0.929 . S
C50 C49 1.394 . S
C50 C51 1.382 . S
C51 C50 1.382 . S
C51 C52 1.392 1_554 S
C51 N53 1.420 . S
C52 H46 0.930 . S
C52 C48 1.407 . S
C52 C51 1.392 1_556 S
N53 C51 1.420 . S
N53 C54 1.244 . S
C54 N53 1.244 . S
H55 C58 0.929 . S
H56 C61 0.929 . S
H57 C63 0.930 . S
C58 H55 0.929 . S
C58 C59 1.398 1_654 S
C58 C60 1.394 1_655 S
C59 C58 1.398 1_456 S
C59 C63 1.407 . S
C60 C58 1.394 1_455 S
C60 C61 1.398 . S
C61 H56 0.929 . S
C61 C60 1.398 . S
C61 C62 1.382 . S
C62 C61 1.382 . S
C62 C63 1.392 1_554 S
C62 N64 1.420 . S
C63 H57 0.930 . S
C63 C59 1.407 . S
C63 C62 1.392 1_556 S
N64 C62 1.420 . S
N64 C65 1.235 1_455 S
C65 N64 1.235 1_655 S
H66 C69 0.929 . S
H67 C72 0.929 . S
H68 C74 0.930 . S
C69 H66 0.929 . S
C69 C70 1.398 1_564 S
C69 C71 1.393 1_565 S
C70 C69 1.398 1_546 S
C70 C74 1.407 . S
C71 C69 1.393 1_545 S
C71 C72 1.398 . S
C72 H67 0.929 . S
C72 C71 1.398 . S
C72 C73 1.382 . S
C73 C72 1.382 . S
C73 C74 1.392 1_554 S
C73 N75 1.420 . S
C74 H68 0.930 . S
C74 C70 1.407 . S
C74 C73 1.392 1_556 S
N75 C73 1.420 . S
N75 C76 1.235 1_545 S
C76 N75 1.235 1_565 S
H77 C80 0.929 . S
H78 C83 0.929 . S
H79 C85 0.930 . S
C80 H77 0.929 . S
C80 C81 1.398 1_554 S
C80 C82 1.396 . S
C81 C80 1.398 1_556 S
C81 C85 1.407 . S
C82 C80 1.396 . S
C82 C83 1.394 . S
C83 H78 0.929 . S
C83 C82 1.394 . S
C83 C84 1.382 . S
C84 C83 1.382 . S
C84 C85 1.392 1_554 S
C84 N86 1.420 . S
C85 H79 0.930 . S
C85 C81 1.407 . S
C85 C84 1.392 1_556 S
N86 C84 1.420 . S
N86 C87 1.244 . S
C87 N86 1.244 . S
C88 Eu89 2.835 . S
C88 C90 1.500 . S
C88 O108 1.257 . S
C88 O109 1.260 . S
Eu89 C88 2.835 . S
Eu89 O108 2.473 . S
Eu89 O109 2.480 . S
Eu89 O110 2.430 . S
Eu89 O111 2.670 1_545 S
Eu89 O112 2.394 . S
Eu89 O117 2.355 1_655 S
Eu89 O119 2.374 1_545 S
C90 C88 1.500 . S
C90 C91 1.377 . S
C90 C95 1.377 . S
C91 C90 1.377 . S
C91 C92 1.395 . S
C91 H120 0.931 . S
C92 C91 1.395 . S
C92 C93 1.383 . S
C92 H121 0.931 . S
C93 C92 1.383 . S
C93 C94 1.394 . S
C94 C93 1.394 . S
C94 C95 1.378 . S
C94 H122 0.931 1_655 S
C95 C90 1.377 . S
C95 C94 1.378 . S
C95 H123 0.931 1_655 S
C96 O110 1.259 . S
C96 O111 1.270 1_545 S
C97 O112 1.251 1_455 S
C97 O113 1.251 . S
C98 Eu99 2.835 1_554 S
C98 C100 1.500 . S
C98 O114 1.257 . S
C98 O115 1.260 . S
Eu99 C98 2.835 1_556 S
Eu99 O111 2.355 1_455 S
Eu99 O113 2.374 1_565 S
Eu99 O114 2.473 1_556 S
Eu99 O115 2.480 1_556 S
Eu99 O116 2.430 . S
Eu99 O117 2.670 1_565 S
Eu99 O118 2.394 . S
C100 C98 1.500 . S
C100 C101 1.377 . S
C100 C105 1.377 . S
C101 C100 1.377 . S
C101 C102 1.395 . S
C101 H124 0.931 . S
C102 C101 1.395 . S
C102 C103 1.383 . S
C102 H125 0.931 . S
C103 C102 1.383 . S
C103 C104 1.394 . S
C104 C103 1.394 . S
C104 C105 1.378 . S
C104 H126 0.931 1_455 S
C105 C100 1.377 . S
C105 C104 1.378 . S
C105 H127 0.931 1_455 S
C106 O116 1.259 . S
C106 O117 1.270 1_565 S
C107 O118 1.251 1_655 S
C107 O119 1.251 . S
O108 C88 1.257 . S
O108 Eu89 2.473 . S
O109 C88 1.260 . S
O109 Eu89 2.480 . S
O110 Eu89 2.430 . S
O110 C96 1.259 . S
O111 Eu89 2.670 1_565 S
O111 C96 1.270 1_565 S
O111 Eu99 2.355 1_655 S
O112 Eu89 2.394 . S
O112 C97 1.251 1_655 S
O113 C97 1.251 . S
O113 Eu99 2.374 1_545 S
O114 C98 1.257 . S
O114 Eu99 2.473 1_554 S
O115 C98 1.260 . S
O115 Eu99 2.480 1_554 S
O116 Eu99 2.430 . S
O116 C106 1.259 . S
O117 Eu89 2.355 1_455 S
O117 Eu99 2.670 1_545 S
O117 C106 1.270 1_545 S
O118 Eu99 2.394 . S
O118 C107 1.251 1_455 S
O119 Eu89 2.374 1_565 S
O119 C107 1.251 . S
H120 C91 0.931 . S
H121 C92 0.931 . S
H122 C94 0.931 1_455 S
H123 C95 0.931 1_455 S
H124 C101 0.931 . S
H125 C102 0.931 . S
H126 C104 0.931 1_655 S
H127 C105 0.931 1_655 S
C128 Eu129 2.835 . S
C128 C130 1.500 . S
C128 O148 1.257 . S
C128 O149 1.260 . S
Eu129 C128 2.835 . S
Eu129 O148 2.473 . S
Eu129 O149 2.480 . S
Eu129 O150 2.430 . S
Eu129 O151 2.670 . S
Eu129 O152 2.394 . S
Eu129 O157 2.355 1_565 S
Eu129 O159 2.374 . S
C130 C128 1.500 . S
C130 C131 1.377 . S
C130 C135 1.377 . S
C131 C130 1.377 . S
C131 C132 1.395 . S
C131 H160 0.931 . S
C132 C131 1.395 . S
C132 C133 1.383 . S
C132 H161 0.931 . S
C133 C132 1.383 . S
C133 C134 1.394 . S
C134 C133 1.394 . S
C134 C135 1.378 . S
C134 H162 0.931 1_565 S
C135 C130 1.377 . S
C135 C134 1.378 . S
C135 H163 0.931 1_565 S
C136 O150 1.259 . S
C136 O151 1.270 . S
C137 O152 1.251 1_545 S
C137 O153 1.251 . S
C138 Eu139 2.835 1_554 S
C138 C140 1.500 . S
C138 O154 1.257 . S
C138 O155 1.260 . S
Eu139 C138 2.835 1_556 S
Eu139 O151 2.355 1_545 S
Eu139 O153 2.374 . S
Eu139 O154 2.473 1_556 S
Eu139 O155 2.480 1_556 S
Eu139 O156 2.430 . S
Eu139 O157 2.670 . S
Eu139 O158 2.394 . S
C140 C138 1.500 . S
C140 C141 1.377 . S
C140 C145 1.377 . S
C141 C140 1.377 . S
C141 C142 1.395 . S
C141 H164 0.931 . S
C142 C141 1.395 . S
C142 C143 1.383 . S
C142 H165 0.931 . S
C143 C142 1.383 . S
C143 C144 1.394 . S
C144 C143 1.394 . S
C144 C145 1.378 . S
C144 H166 0.931 1_545 S
C145 C140 1.377 . S
C145 C144 1.378 . S
C145 H167 0.931 1_545 S
C146 O156 1.259 . S
C146 O157 1.270 . S
C147 O158 1.251 1_565 S
C147 O159 1.251 . S
O148 C128 1.257 . S
O148 Eu129 2.473 . S
O149 C128 1.260 . S
O149 Eu129 2.480 . S
O150 Eu129 2.430 . S
O150 C136 1.259 . S
O151 Eu129 2.670 . S
O151 C136 1.270 . S
O151 Eu139 2.355 1_565 S
O152 Eu129 2.394 . S
O152 C137 1.251 1_565 S
O153 C137 1.251 . S
O153 Eu139 2.374 . S
O154 C138 1.257 . S
O154 Eu139 2.473 1_554 S
O155 C138 1.260 . S
O155 Eu139 2.480 1_554 S
O156 Eu139 2.430 . S
O156 C146 1.259 . S
O157 Eu129 2.355 1_545 S
O157 Eu139 2.670 . S
O157 C146 1.270 . S
O158 Eu139 2.394 . S
O158 C147 1.251 1_545 S
O159 Eu129 2.374 . S
O159 C147 1.251 . S
H160 C131 0.931 . S
H161 C132 0.931 . S
H162 C134 0.931 1_545 S
H163 C135 0.931 1_545 S
H164 C141 0.931 . S
H165 C142 0.931 . S
H166 C144 0.931 1_565 S
H167 C145 0.931 1_565 S
C168 Eu169 2.835 . S
C168 C170 1.500 . S
C168 O188 1.257 . S
C168 O189 1.260 . S
Eu169 C168 2.835 . S
Eu169 O188 2.473 . S
Eu169 O189 2.480 . S
Eu169 O190 2.430 . S
Eu169 O191 2.670 . S
Eu169 O192 2.394 . S
Eu169 O197 2.355 . S
Eu169 O199 2.374 . S
C170 C168 1.500 . S
C170 C171 1.377 . S
C170 C175 1.377 . S
C171 C170 1.377 . S
C171 C172 1.395 . S
C171 H200 0.931 . S
C172 C171 1.395 . S
C172 C173 1.383 . S
C172 H201 0.931 . S
C173 C172 1.383 . S
C173 C174 1.394 . S
C174 C173 1.394 . S
C174 C175 1.378 . S
C174 H202 0.931 . S
C175 C170 1.377 . S
C175 C174 1.378 . S
C175 H203 0.931 . S
C176 O190 1.259 . S
C176 O191 1.270 . S
C177 O192 1.251 . S
C177 O193 1.251 . S
C178 Eu179 2.835 1_554 S
C178 C180 1.500 . S
C178 O194 1.257 . S
C178 O195 1.260 . S
Eu179 C178 2.835 1_556 S
Eu179 O191 2.355 . S
Eu179 O193 2.374 . S
Eu179 O194 2.473 1_556 S
Eu179 O195 2.480 1_556 S
Eu179 O196 2.430 . S
Eu179 O197 2.670 . S
Eu179 O198 2.394 . S
C180 C178 1.500 . S
C180 C181 1.377 . S
C180 C185 1.377 . S
C181 C180 1.377 . S
C181 C182 1.395 . S
C181 H204 0.931 . S
C182 C181 1.395 . S
C182 C183 1.383 . S
C182 H205 0.931 . S
C183 C182 1.383 . S
C183 C184 1.394 . S
C184 C183 1.394 . S
C184 C185 1.378 . S
C184 H206 0.931 . S
C185 C180 1.377 . S
C185 C184 1.378 . S
C185 H207 0.931 . S
C186 O196 1.259 . S
C186 O197 1.270 . S
C187 O198 1.251 . S
C187 O199 1.251 . S
O188 C168 1.257 . S
O188 Eu169 2.473 . S
O189 C168 1.260 . S
O189 Eu169 2.480 . S
O190 Eu169 2.430 . S
O190 C176 1.259 . S
O191 Eu169 2.670 . S
O191 C176 1.270 . S
O191 Eu179 2.355 . S
O192 Eu169 2.394 . S
O192 C177 1.251 . S
O193 C177 1.251 . S
O193 Eu179 2.374 . S
O194 C178 1.257 . S
O194 Eu179 2.473 1_554 S
O195 C178 1.260 . S
O195 Eu179 2.480 1_554 S
O196 Eu179 2.430 . S
O196 C186 1.259 . S
O197 Eu169 2.355 . S
O197 Eu179 2.670 . S
O197 C186 1.270 . S
O198 Eu179 2.394 . S
O198 C187 1.251 . S
O199 Eu169 2.374 . S
O199 C187 1.251 . S
H200 C171 0.931 . S
H201 C172 0.931 . S
H202 C174 0.931 . S
H203 C175 0.931 . S
H204 C181 0.931 . S
H205 C182 0.931 . S
H206 C184 0.931 . S
H207 C185 0.931 . S
C208 Eu209 2.835 . S
C208 C210 1.500 . S
C208 O228 1.257 . S
C208 O229 1.260 . S
Eu209 C208 2.835 . S
Eu209 O228 2.473 . S
Eu209 O229 2.480 . S
Eu209 O230 2.430 . S
Eu209 O231 2.670 1_455 S
Eu209 O232 2.394 . S
Eu209 O237 2.355 . S
Eu209 O239 2.374 1_455 S
C210 C208 1.500 . S
C210 C211 1.377 . S
C210 C215 1.377 . S
C211 C210 1.377 . S
C211 C212 1.395 . S
C211 H240 0.931 . S
C212 C211 1.395 . S
C212 C213 1.383 . S
C212 H241 0.931 . S
C213 C212 1.383 . S
C213 C214 1.394 . S
C214 C213 1.394 . S
C214 C215 1.378 . S
C214 H242 0.931 . S
C215 C210 1.377 . S
C215 C214 1.378 . S
C215 H243 0.931 . S
C216 O230 1.262 . S
C216 O231 1.267 1_455 S
C217 O232 1.251 . S
C217 O233 1.251 . S
C218 Eu219 2.835 1_554 S
C218 C220 1.500 . S
C218 O234 1.257 . S
C218 O235 1.260 . S
Eu219 C218 2.835 1_556 S
Eu219 O231 2.355 . S
Eu219 O233 2.374 1_655 S
Eu219 O234 2.473 1_556 S
Eu219 O235 2.480 1_556 S
Eu219 O236 2.430 . S
Eu219 O237 2.670 1_655 S
Eu219 O238 2.394 . S
C220 C218 1.500 . S
C220 C221 1.377 . S
C220 C225 1.377 . S
C221 C220 1.377 . S
C221 C222 1.395 . S
C221 H244 0.931 . S
C222 C221 1.395 . S
C222 C223 1.383 . S
C222 H245 0.931 . S
C223 C222 1.383 . S
C223 C224 1.394 . S
C224 C223 1.394 . S
C224 C225 1.378 . S
C224 H246 0.931 . S
C225 C220 1.377 . S
C225 C224 1.378 . S
C225 H247 0.931 . S
C226 O236 1.259 . S
C226 O237 1.270 1_655 S
C227 O238 1.251 . S
C227 O239 1.251 . S
O228 C208 1.257 . S
O228 Eu209 2.473 . S
O229 C208 1.260 . S
O229 Eu209 2.480 . S
O230 Eu209 2.430 . S
O230 C216 1.262 . S
O231 Eu209 2.670 1_655 S
O231 C216 1.267 1_655 S
O231 Eu219 2.355 . S
O232 Eu209 2.394 . S
O232 C217 1.251 . S
O233 C217 1.251 . S
O233 Eu219 2.374 1_455 S
O234 C218 1.257 . S
O234 Eu219 2.473 1_554 S
O235 C218 1.260 . S
O235 Eu219 2.480 1_554 S
O236 Eu219 2.430 . S
O236 C226 1.259 . S
O237 Eu209 2.355 . S
O237 Eu219 2.670 1_455 S
O237 C226 1.270 1_455 S
O238 Eu219 2.394 . S
O238 C227 1.251 . S
O239 Eu209 2.374 1_655 S
O239 C227 1.251 . S
H240 C211 0.931 . S
H241 C212 0.931 . S
H242 C214 0.931 . S
H243 C215 0.931 . S
H244 C221 0.931 . S
H245 C222 0.931 . S
H246 C224 0.931 . S
H247 C225 0.931 . S
C248 C249 1.389 1_545 S
C248 H252 0.950 . S
C248 C257 1.390 . S
C249 C248 1.389 1_565 S
C249 C251 1.386 . S
H250 C257 0.950 . S
C251 C249 1.386 . S
C251 C253 1.390 . S
C251 H255 0.950 . S
H252 C248 0.950 . S
C253 C251 1.390 . S
C253 C254 1.397 . S
C253 H256 0.950 . S
C254 C253 1.397 . S
C254 C257 1.378 1_565 S
H255 C251 0.950 . S
H256 C253 0.950 . S
C257 C248 1.390 . S
C257 H250 0.950 . S
C257 C254 1.378 1_545 S
C258 C259 1.387 . S
C258 H262 0.950 . S
C258 C267 1.390 . S
C259 C258 1.387 . S
C259 C261 1.387 . S
H260 C267 0.950 . S
C261 C259 1.387 . S
C261 C263 1.390 . S
C261 H265 0.950 . S
H262 C258 0.950 . S
C263 C261 1.390 . S
C263 C264 1.387 . S
C263 H266 0.950 . S
C264 C263 1.387 . S
C264 C267 1.387 . S
H265 C261 0.950 . S
H266 C263 0.950 . S
C267 C258 1.390 . S
C267 H260 0.950 . S
C267 C264 1.387 . S
C268 C269 1.387 . S
C268 H272 0.950 . S
C268 C277 1.390 . S
C269 C268 1.387 . S
C269 C271 1.387 . S
H270 C277 0.950 . S
C271 C269 1.387 . S
C271 C273 1.390 . S
C271 H275 0.950 . S
H272 C268 0.950 . S
C273 C271 1.390 . S
C273 C274 1.387 . S
C273 H276 0.950 . S
C274 C273 1.387 . S
C274 C277 1.387 . S
H275 C271 0.950 . S
H276 C273 0.950 . S
C277 C268 1.390 . S
C277 H270 0.950 . S
C277 C274 1.387 . S
C278 C279 1.398 . S
C278 H282 0.950 . S
C278 C287 1.390 . S
C279 C278 1.398 . S
C279 C281 1.377 1_455 S
H280 C287 0.950 . S
C281 C279 1.377 1_655 S
C281 C283 1.390 . S
C281 H285 0.950 . S
H282 C278 0.950 . S
C283 C281 1.390 . S
C283 C284 1.387 1_655 S
C283 H286 0.950 . S
C284 C283 1.387 1_455 S
C284 C287 1.387 . S
H285 C281 0.950 . S
H286 C283 0.950 . S
C287 C278 1.390 . S
C287 H280 0.950 . S
C287 C284 1.387 . S
C288 C289 1.382 1_565 S
C288 H292 0.950 . S
C288 C297 1.390 . S
C289 C288 1.382 1_545 S
C289 C291 1.393 . S
H290 C297 0.950 . S
C291 C289 1.393 . S
C291 C293 1.390 . S
C291 H295 0.950 . S
H292 C288 0.950 . S
C293 C291 1.390 . S
C293 C294 1.404 . S
C293 H296 0.950 . S
C294 C293 1.404 . S
C294 C297 1.371 1_545 S
H295 C291 0.950 . S
H296 C293 0.950 . S
C297 C288 1.390 . S
C297 H290 0.950 . S
C297 C294 1.371 1_565 S
C298 C299 1.387 . S
C298 H302 0.950 . S
C298 C307 1.390 . S
C299 C298 1.387 . S
C299 C301 1.387 . S
H300 C307 0.950 . S
C301 C299 1.387 . S
C301 C303 1.390 . S
C301 H305 0.950 . S
H302 C298 0.950 . S
C303 C301 1.390 . S
C303 C304 1.387 . S
C303 H306 0.950 . S
C304 C303 1.387 . S
C304 C307 1.387 . S
H305 C301 0.950 . S
H306 C303 0.950 . S
C307 C298 1.390 . S
C307 H300 0.950 . S
C307 C304 1.387 . S
C308 C309 1.387 . S
C308 H312 0.950 . S
C308 C317 1.390 . S
C309 C308 1.387 . S
C309 C311 1.387 . S
H310 C317 0.950 . S
C311 C309 1.387 . S
C311 C313 1.390 . S
C311 H315 0.950 . S
H312 C308 0.950 . S
C313 C311 1.390 . S
C313 C314 1.387 . S
C313 H316 0.950 . S
C314 C313 1.387 . S
C314 C317 1.387 . S
H315 C311 0.950 . S
H316 C313 0.950 . S
C317 C308 1.390 . S
C317 H310 0.950 . S
C317 C314 1.387 . S
C318 C319 1.400 . S
C318 H322 0.950 . S
C318 C327 1.390 . S
C319 C318 1.400 . S
C319 C321 1.375 1_655 S
H320 C327 0.950 . S
C321 C319 1.375 1_455 S
C321 C323 1.390 . S
C321 H325 0.950 . S
H322 C318 0.950 . S
C323 C321 1.390 . S
C323 C324 1.361 1_455 S
C323 H326 0.950 . S
C324 C323 1.361 1_655 S
C324 C327 1.414 . S
H325 C321 0.950 . S
H326 C323 0.950 . S
C327 C318 1.390 . S
C327 H320 0.950 . S
C327 C324 1.414 . S
C328 C329 1.391 . S
C328 H332 0.950 1_655 S
C328 C337 1.390 . S
C329 C328 1.391 . S
C329 C331 1.401 . S
H330 C337 0.950 . S
C331 C329 1.401 . S
C331 C333 1.390 . S
C331 H335 0.950 . S
H332 C328 0.950 1_455 S
C333 C331 1.390 . S
C333 C334 1.387 . S
C333 H336 0.950 . S
C334 C333 1.387 . S
C334 C337 1.387 . S
H335 C331 0.950 . S
H336 C333 0.950 . S
C337 C328 1.390 . S
C337 H330 0.950 . S
C337 C334 1.387 . S
C338 C339 1.381 1_545 S
C338 H342 0.950 . S
C338 C347 1.390 1_545 S
C339 C338 1.381 1_565 S
C339 C341 1.407 . S
H340 C347 0.950 . S
C341 C339 1.407 . S
C341 C343 1.390 . S
C341 H345 0.950 . S
H342 C338 0.950 . S
C343 C341 1.390 . S
C343 C344 1.387 . S
C343 H346 0.950 . S
C344 C343 1.387 . S
C344 C347 1.387 . S
H345 C341 0.950 . S
H346 C343 0.950 . S
C347 C338 1.390 1_565 S
C347 H340 0.950 . S
C347 C344 1.387 . S
C348 C349 1.387 . S
C348 H352 0.950 . S
C348 C357 1.390 . S
C349 C348 1.387 . S
C349 C351 1.387 . S
H350 C357 0.950 . S
C351 C349 1.387 . S
C351 C353 1.390 . S
C351 H355 0.950 . S
H352 C348 0.950 . S
C353 C351 1.390 . S
C353 C354 1.387 . S
C353 H356 0.950 . S
C354 C353 1.387 . S
C354 C357 1.387 . S
H355 C351 0.950 . S
H356 C353 0.950 . S
C357 C348 1.390 . S
C357 H350 0.950 . S
C357 C354 1.387 . S
C358 C359 1.387 . S
C358 H362 0.950 . S
C358 C367 1.390 . S
C359 C358 1.387 . S
C359 C361 1.387 . S
H360 C367 0.950 . S
C361 C359 1.387 . S
C361 C363 1.390 . S
C361 H365 0.950 . S
H362 C358 0.950 . S
C363 C361 1.390 . S
C363 C364 1.387 . S
C363 H366 0.950 . S
C364 C363 1.387 . S
C364 C367 1.387 . S
H365 C361 0.950 . S
H366 C363 0.950 . S
C367 C358 1.390 . S
C367 H360 0.950 . S
C367 C364 1.387 . S
C368 C369 1.389 . S
C368 H372 0.950 1_455 S
C368 C377 1.390 . S
C369 C368 1.389 . S
C369 C371 1.402 . S
H370 C377 0.950 . S
C371 C369 1.402 . S
C371 C373 1.390 . S
C371 H375 0.950 . S
H372 C368 0.950 1_655 S
C373 C371 1.390 . S
C373 C374 1.387 . S
C373 H376 0.950 . S
C374 C373 1.387 . S
C374 C377 1.387 . S
H375 C371 0.950 . S
H376 C373 0.950 . S
C377 C368 1.390 . S
C377 H370 0.950 . S
C377 C374 1.387 . S
C378 C379 1.406 . S
C378 H382 0.950 . S
C378 C387 1.390 . S
C379 C378 1.406 . S
C379 C381 1.386 1_545 S
H380 C387 0.950 . S
C381 C379 1.386 1_565 S
C381 C383 1.390 1_565 S
C381 H385 0.950 . S
H382 C378 0.950 . S
C383 C381 1.390 1_545 S
C383 C384 1.387 . S
C383 H386 0.950 . S
C384 C383 1.387 . S
C384 C387 1.387 . S
H385 C381 0.950 . S
H386 C383 0.950 . S
C387 C378 1.390 . S
C387 H380 0.950 . S
C387 C384 1.387 . S
C388 C389 1.387 . S
C388 H392 0.950 . S
C388 C397 1.390 . S
C389 C388 1.387 . S
C389 C391 1.387 . S
H390 C397 0.950 . S
C391 C389 1.387 . S
C391 C393 1.390 . S
C391 H395 0.950 . S
H392 C388 0.950 . S
C393 C391 1.390 . S
C393 C394 1.387 . S
C393 H396 0.950 . S
C394 C393 1.387 . S
C394 C397 1.387 . S
H395 C391 0.950 . S
H396 C393 0.950 . S
C397 C388 1.390 . S
C397 H390 0.950 . S
C397 C394 1.387 . S
C398 C399 1.387 . S
C398 H402 0.950 . S
C398 C407 1.390 . S
C399 C398 1.387 . S
C399 C401 1.387 . S
H400 C407 0.950 . S
C401 C399 1.387 . S
C401 C403 1.390 . S
C401 H405 0.950 . S
H402 C398 0.950 . S
C403 C401 1.390 . S
C403 C404 1.387 . S
C403 H406 0.950 . S
C404 C403 1.387 . S
C404 C407 1.387 . S
H405 C401 0.950 . S
H406 C403 0.950 . S
C407 C398 1.390 . S
C407 H400 0.950 . S
C407 C404 1.387 . S
C408 C409 1.387 . S
C408 H412 0.950 . S
C408 C417 1.390 . S
C409 C408 1.387 . S
C409 C411 1.387 . S
H410 C417 0.950 . S
C411 C409 1.387 . S
C411 C413 1.390 . S
C411 H415 0.950 1_456 S
H412 C408 0.950 . S
C413 C411 1.390 . S
C413 C414 1.387 . S
C413 H416 0.950 1_556 S
C414 C413 1.387 . S
C414 C417 1.387 . S
H415 C411 0.950 1_654 S
H416 C413 0.950 1_554 S
C417 C408 1.390 . S
C417 H410 0.950 . S
C417 C414 1.387 . S
C418 C419 1.387 . S
C418 H422 0.950 1_556 S
C418 C427 1.390 . S
C419 C418 1.387 . S
C419 C421 1.387 1_545 S
H420 C427 0.950 1_554 S
C421 C419 1.387 1_565 S
C421 C423 1.390 . S
C421 H425 0.950 . S
H422 C418 0.950 1_554 S
C423 C421 1.390 . S
C423 C424 1.387 1_565 S
C423 H426 0.950 . S
C424 C423 1.387 1_545 S
C424 C427 1.387 . S
H425 C421 0.950 . S
H426 C423 0.950 . S
C427 C418 1.390 . S
C427 H420 0.950 1_556 S
C427 C424 1.387 . S
C428 C429 1.387 . S
C428 H432 0.950 . S
C428 C437 1.390 . S
C429 C428 1.387 . S
C429 C431 1.387 . S
H430 C437 0.950 . S
C431 C429 1.387 . S
C431 C433 1.390 . S
C431 H435 0.950 . S
H432 C428 0.950 . S
C433 C431 1.390 . S
C433 C434 1.387 . S
C433 H436 0.950 1_556 S
C434 C433 1.387 . S
C434 C437 1.387 . S
H435 C431 0.950 . S
H436 C433 0.950 1_554 S
C437 C428 1.390 . S
C437 H430 0.950 . S
C437 C434 1.387 . S
C438 C439 1.387 . S
C438 H442 0.950 . S
C438 C447 1.390 . S
C439 C438 1.387 . S
C439 C441 1.387 . S
H440 C447 0.950 . S
C441 C439 1.387 . S
C441 C443 1.390 . S
C441 H445 0.950 1_556 S
H442 C438 0.950 . S
C443 C441 1.390 . S
C443 C444 1.387 . S
C443 H446 0.950 1_556 S
C444 C443 1.387 . S
C444 C447 1.387 . S
H445 C441 0.950 1_554 S
H446 C443 0.950 1_554 S
C447 C438 1.390 . S
C447 H440 0.950 . S
C447 C444 1.387 . S
C448 C449 1.387 . S
C448 H452 0.950 . S
C448 C457 1.390 . S
C449 C448 1.387 . S
C449 C451 1.387 . S
H450 C457 0.950 . S
C451 C449 1.387 . S
C451 C453 1.390 . S
C451 H455 0.946 1_655 S
H452 C448 0.950 . S
C453 C451 1.390 . S
C453 C454 1.387 . S
C453 H456 0.950 . S
C454 C453 1.387 . S
C454 C457 1.387 . S
H455 C451 0.946 1_455 S
H456 C453 0.950 . S
C457 C448 1.390 . S
C457 H450 0.950 . S
C457 C454 1.387 . S
C458 C459 1.387 . S
C458 H462 0.950 . S
C458 C467 1.390 . S
C459 C458 1.387 . S
C459 C461 1.387 . S
H460 C467 0.950 . S
C461 C459 1.387 . S
C461 C463 1.390 . S
C461 H465 0.950 . S
H462 C458 0.950 . S
C463 C461 1.390 . S
C463 C464 1.387 . S
C463 H466 0.950 . S
C464 C463 1.387 . S
C464 C467 1.387 . S
H465 C461 0.950 . S
H466 C463 0.950 . S
C467 C458 1.390 . S
C467 H460 0.950 . S
C467 C464 1.387 . S
C468 C469 1.387 . S
C468 H472 0.950 . S
C468 C477 1.390 . S
C469 C468 1.387 . S
C469 C471 1.387 . S
H470 C477 0.950 . S
C471 C469 1.387 . S
C471 C473 1.390 . S
C471 H475 0.950 . S
H472 C468 0.950 . S
C473 C471 1.390 . S
C473 C474 1.387 . S
C473 H476 0.950 . S
C474 C473 1.387 . S
C474 C477 1.387 . S
H475 C471 0.950 . S
H476 C473 0.950 . S
C477 C468 1.390 . S
C477 H470 0.950 . S
C477 C474 1.387 . S
C478 C479 1.387 . S
C478 H482 0.950 . S
C478 C487 1.390 . S
C479 C478 1.387 . S
C479 C481 1.387 . S
H480 C487 0.950 . S
C481 C479 1.387 . S
C481 C483 1.390 . S
C481 H485 0.950 . S
H482 C478 0.950 . S
C483 C481 1.390 . S
C483 C484 1.387 . S
C483 H486 0.950 . S
C484 C483 1.387 . S
C484 C487 1.387 . S
H485 C481 0.950 . S
H486 C483 0.950 . S
C487 C478 1.390 . S
C487 H480 0.950 . S
C487 C484 1.387 . S
C249 C76 1.962 . S
C254 C106 2.233 . S
C264 C146 2.254 . S
C259 C87 1.985 . S
C274 C186 2.265 . S
C269 C54 2.001 . S
C284 C226 2.245 1_455 S
C279 C65 1.976 1_455 S
C294 C96 2.235 1_554 S
C289 C32 1.969 1_545 S
C299 C43 1.980 . S
C304 C136 2.255 1_554 S
C309 C10 1.993 . S
C314 C176 2.264 1_554 S
C319 C21 1.979 . S
C324 C216 2.245 1_654 S
C334 C93 0.787 . S
C329 C60 0.785 1_655 S
C344 C133 0.782 . S
C339 C71 0.781 1_565 S
C354 C173 0.773 . S
C349 C82 0.773 . S
C359 C49 0.773 . S
C364 C213 0.766 . S
C369 C16 0.789 . S
C374 C103 0.790 . S
C384 C143 0.784 . S
C379 C27 0.783 . S
C394 C183 0.773 . S
C389 C38 0.775 . S
C399 C5 0.771 . S
C404 C223 0.771 . S
C409 C59 2.241 . S
C414 C97 2.563 . S
C419 C70 2.197 . S
C424 C137 2.521 . S
C434 C177 2.505 . S
C429 C81 2.178 . S
C444 C217 2.551 . S
C439 C48 2.219 . S
C449 C15 2.244 1_655 S
C454 C107 2.570 . S
C464 C147 2.523 . S
C459 C26 2.200 1_565 S
C474 C187 2.506 . S
C469 C37 2.193 . S
C479 C4 2.234 . S
C484 C227 2.553 . S
