# Generated by pormake.
# Topology ptr, (4,4)-cn, num edge types: 1
# Building blocks:
#     Node 0, Type 0, BuildingBlock: GALJAG_clean_sbu_0, # of connection points: 4
#     Node 1, Type 0, BuildingBlock: GALJAG_clean_sbu_0, # of connection points: 4
#     Node 2, Type 0, BuildingBlock: GALJAG_clean_sbu_0, # of connection points: 4
#     Node 3, Type 0, BuildingBlock: GALJAG_clean_sbu_0, # of connection points: 4
#     Node 4, Type 0, BuildingBlock: GALJAG_clean_sbu_0, # of connection points: 4
#     Node 5, Type 0, BuildingBlock: GALJAG_clean_sbu_0, # of connection points: 4
#     Node 6, Type 0, BuildingBlock: GALJAG_clean_sbu_0, # of connection points: 4
#     Node 7, Type 0, BuildingBlock: GALJAG_clean_sbu_0, # of connection points: 4
#     Node 8, Type 0, BuildingBlock: GALJAG_clean_sbu_0, # of connection points: 4
#     Node 9, Type 0, BuildingBlock: GALJAG_clean_sbu_0, # of connection points: 4
#     Node 10, Type 0, BuildingBlock: GALJAG_clean_sbu_0, # of connection points: 4
#     Node 11, Type 0, BuildingBlock: GALJAG_clean_sbu_0, # of connection points: 4
#     Node 12, Type 0, BuildingBlock: GALJAG_clean_sbu_0, # of connection points: 4
#     Node 13, Type 0, BuildingBlock: GALJAG_clean_sbu_0, # of connection points: 4
#     Node 14, Type 0, BuildingBlock: GALJAG_clean_sbu_0, # of connection points: 4
#     Node 15, Type 0, BuildingBlock: GALJAG_clean_sbu_0, # of connection points: 4
#     Node 16, Type 0, BuildingBlock: GALJAG_clean_sbu_0, # of connection points: 4
#     Node 17, Type 0, BuildingBlock: GALJAG_clean_sbu_0, # of connection points: 4
#     Node 18, Type 1, BuildingBlock: KUFVIS_clean_linker_0, # of connection points: 4
#     Node 19, Type 1, BuildingBlock: KUFVIS_clean_linker_0, # of connection points: 4
#     Node 20, Type 1, BuildingBlock: KUFVIS_clean_linker_0, # of connection points: 4
#     Node 21, Type 1, BuildingBlock: KUFVIS_clean_linker_0, # of connection points: 4
#     Node 22, Type 1, BuildingBlock: KUFVIS_clean_linker_0, # of connection points: 4
#     Node 23, Type 1, BuildingBlock: KUFVIS_clean_linker_0, # of connection points: 4
#     Node 24, Type 1, BuildingBlock: KUFVIS_clean_linker_0, # of connection points: 4
#     Node 25, Type 1, BuildingBlock: KUFVIS_clean_linker_0, # of connection points: 4
#     Node 26, Type 1, BuildingBlock: KUFVIS_clean_linker_0, # of connection points: 4
#     Node 27, Type 1, BuildingBlock: KUFVIS_clean_linker_0, # of connection points: 4
#     Node 28, Type 1, BuildingBlock: KUFVIS_clean_linker_0, # of connection points: 4
#     Node 29, Type 1, BuildingBlock: KUFVIS_clean_linker_0, # of connection points: 4
#     Node 30, Type 1, BuildingBlock: KUFVIS_clean_linker_0, # of connection points: 4
#     Node 31, Type 1, BuildingBlock: KUFVIS_clean_linker_0, # of connection points: 4
#     Node 32, Type 1, BuildingBlock: KUFVIS_clean_linker_0, # of connection points: 4
#     Node 33, Type 1, BuildingBlock: KUFVIS_clean_linker_0, # of connection points: 4
#     Node 34, Type 1, BuildingBlock: KUFVIS_clean_linker_0, # of connection points: 4
#     Node 35, Type 1, BuildingBlock: KUFVIS_clean_linker_0, # of connection points: 4
#     Edge 36, Type (0, 1), None
#     Edge 37, Type (0, 1), None
#     Edge 38, Type (0, 1), None
#     Edge 39, Type (0, 1), None
#     Edge 40, Type (0, 1), None
#     Edge 41, Type (0, 1), None
#     Edge 42, Type (0, 1), None
#     Edge 43, Type (0, 1), None
#     Edge 44, Type (0, 1), None
#     Edge 45, Type (0, 1), None
#     Edge 46, Type (0, 1), None
#     Edge 47, Type (0, 1), None
#     Edge 48, Type (0, 1), None
#     Edge 49, Type (0, 1), None
#     Edge 50, Type (0, 1), None
#     Edge 51, Type (0, 1), None
#     Edge 52, Type (0, 1), None
#     Edge 53, Type (0, 1), None
#     Edge 54, Type (0, 1), None
#     Edge 55, Type (0, 1), None
#     Edge 56, Type (0, 1), None
#     Edge 57, Type (0, 1), None
#     Edge 58, Type (0, 1), None
#     Edge 59, Type (0, 1), None
#     Edge 60, Type (0, 1), None
#     Edge 61, Type (0, 1), None
#     Edge 62, Type (0, 1), None
#     Edge 63, Type (0, 1), None
#     Edge 64, Type (0, 1), None
#     Edge 65, Type (0, 1), None
#     Edge 66, Type (0, 1), None
#     Edge 67, Type (0, 1), None
#     Edge 68, Type (0, 1), None
#     Edge 69, Type (0, 1), None
#     Edge 70, Type (0, 1), None
#     Edge 71, Type (0, 1), None
#     Edge 72, Type (0, 1), None
#     Edge 73, Type (0, 1), None
#     Edge 74, Type (0, 1), None
#     Edge 75, Type (0, 1), None
#     Edge 76, Type (0, 1), None
#     Edge 77, Type (0, 1), None
#     Edge 78, Type (0, 1), None
#     Edge 79, Type (0, 1), None
#     Edge 80, Type (0, 1), None
#     Edge 81, Type (0, 1), None
#     Edge 82, Type (0, 1), None
#     Edge 83, Type (0, 1), None
#     Edge 84, Type (0, 1), None
#     Edge 85, Type (0, 1), None
#     Edge 86, Type (0, 1), None
#     Edge 87, Type (0, 1), None
#     Edge 88, Type (0, 1), None
#     Edge 89, Type (0, 1), None
#     Edge 90, Type (0, 1), None
#     Edge 91, Type (0, 1), None
#     Edge 92, Type (0, 1), None
#     Edge 93, Type (0, 1), None
#     Edge 94, Type (0, 1), None
#     Edge 95, Type (0, 1), None
#     Edge 96, Type (0, 1), None
#     Edge 97, Type (0, 1), None
#     Edge 98, Type (0, 1), None
#     Edge 99, Type (0, 1), None
#     Edge 100, Type (0, 1), None
#     Edge 101, Type (0, 1), None
#     Edge 102, Type (0, 1), None
#     Edge 103, Type (0, 1), None
#     Edge 104, Type (0, 1), None
#     Edge 105, Type (0, 1), None
#     Edge 106, Type (0, 1), None
#     Edge 107, Type (0, 1), None
# Relax obj value: 0.068
# Max RMSD: 0.101
# Mean RMSD: 0.096
data_MOF--net-ptr--node1-GALJAG_clean_sbu_0--node2-KUFVIS_clean_linker_0--edge1-none
_symmetry_space_group_name_H-M    P1
_symmetry_Int_Tables_number       1
_symmetry_cell_setting            triclinic
loop_
_symmetry_equiv_pos_as_xyz
'x, y, z'
_cell_length_a     34.074984
_cell_length_b     34.096783
_cell_length_c     25.32533
_cell_angle_alpha  90.000608
_cell_angle_beta   90.029387
_cell_angle_gamma 120.12228
loop_
_atom_site_label
_atom_site_type_symbol
_atom_site_fract_x
_atom_site_fract_y
_atom_site_fract_z
_atom_type_partial_charge
In0 In 0.05373 0.38027 -0.01838 0.0
O1 O 1.00692 0.37902 0.04706 0.0
O2 O 0.0684 0.44107 0.03161 0.0
C3 C 1.00509 0.30883 0.9174 0.0
C4 C 0.10235 0.35748 0.04574 0.0
C5 C 0.07463 0.44105 0.90393 0.0
O6 O 0.98558 0.32219 0.94927 0.0
O7 O 1.04779 0.32985 0.92067 0.0
O8 O 0.10064 0.42592 0.91624 0.0
O9 O 1.03915 0.42634 0.93149 0.0
C10 C 1.03295 0.42027 0.05923 0.0
O11 O 0.12185 0.3904 0.01385 0.0
O12 O 0.05964 0.33577 0.04259 0.0
In13 In 0.71125 0.69414 -0.01836 0.0
O14 O 0.71242 0.64865 0.04722 0.0
O15 O 0.65031 0.64768 0.03142 0.0
C16 C 0.78268 0.71699 0.91746 0.0
C17 C 0.73399 0.76563 0.0457 0.0
C18 C 0.65039 0.65413 0.90391 0.0
O19 O 0.76923 0.68411 0.94939 0.0
O20 O 0.76177 0.73868 0.92068 0.0
O21 O 0.66565 0.69535 0.91619 0.0
O22 O 0.66502 0.63337 0.93151 0.0
C23 C 0.6711 0.63318 0.0592 0.0
O24 O 0.70109 0.75207 0.01373 0.0
O25 O 0.75573 0.74475 0.04265 0.0
In26 In 0.39703 0.03753 -0.01839 0.0
O27 O 0.40725 0.10563 0.94937 0.0
O28 O 0.35251 0.04347 0.92065 0.0
C29 C 0.45796 0.05825 0.05923 0.0
C30 C 0.43696 1.0167 0.90395 0.0
C31 C 0.32549 0.98883 0.04569 0.0
O32 O 0.44277 0.08426 0.04715 0.0
O33 O 0.4432 1.02286 0.03151 0.0
O34 O 0.33883 0.9694 0.01369 0.0
O35 O 0.3466 1.03152 0.04265 0.0
C36 C 0.3743 0.08614 0.91746 0.0
O37 O 0.3957 0.99067 0.9162 0.0
O38 O 0.4578 0.05218 0.93152 0.0
In39 In 0.05399 0.69521 -0.01877 0.0
O40 O 0.0996 0.69417 0.91597 0.0
O41 O 1.03618 0.63379 0.93055 0.0
C42 C 0.10161 0.7671 0.04488 0.0
C43 C 1.00631 0.71933 0.91764 0.0
C44 C 1.03598 0.6354 0.05927 0.0
O45 O 0.12151 0.75458 0.01245 0.0
O46 O 0.05885 0.74496 0.04242 0.0
O47 O 1.00833 0.64842 0.04643 0.0
O48 O 0.0718 0.65171 0.03205 0.0
C49 C 0.07196 0.65338 0.90326 0.0
O50 O 0.98646 0.6869 0.95015 0.0
O51 O 0.04907 0.74001 0.91995 0.0
In52 In 0.39522 0.37888 -0.01878 0.0
O53 O 0.39627 0.42546 0.91583 0.0
O54 O 0.45673 0.42283 0.93071 0.0
C55 C 0.32335 0.35461 0.04486 0.0
C56 C 0.37111 0.30696 0.9177 0.0
C57 C 0.45519 0.42082 0.05924 0.0
O58 O 0.33595 0.38702 0.01235 0.0
O59 O 0.34539 0.33398 0.04247 0.0
O60 O 0.442 0.38008 0.04644 0.0
O61 O 0.43895 0.44033 0.03199 0.0
C62 C 0.43714 0.43887 0.90328 0.0
O63 O 0.40354 0.3197 0.95028 0.0
O64 O 0.35041 0.32893 0.9199 0.0
In65 In 0.71188 0.03672 -0.01876 0.0
O66 O 0.71086 0.08236 0.04645 0.0
O67 O 0.65047 1.01892 0.03201 0.0
C68 C 0.78381 0.08449 0.91766 0.0
C69 C 0.73608 0.98911 0.04483 0.0
C70 C 0.6519 1.01872 0.90329 0.0
O71 O 0.7713 0.10427 0.95028 0.0
O72 O 0.76162 0.04176 0.91986 0.0
O73 O 0.66506 0.99114 0.91591 0.0
O74 O 0.66818 0.05445 0.93066 0.0
C75 C 0.67007 0.05473 0.05923 0.0
O76 O 0.70358 0.96923 0.01236 0.0
O77 O 0.75681 1.03184 0.04245 0.0
In78 In 0.7204 0.7136 0.31495 0.0
O79 O 0.67358 0.71235 0.38039 0.0
O80 O 0.73506 0.7744 0.36495 0.0
C81 C 0.67176 0.64216 0.25073 0.0
C82 C 0.76901 0.69082 0.37907 0.0
C83 C 0.74129 0.77438 0.23726 0.0
O84 O 0.65225 0.65553 0.2826 0.0
O85 O 0.71445 0.66318 0.254 0.0
O86 O 0.76731 0.75925 0.24957 0.0
O87 O 0.70582 0.75967 0.26482 0.0
C88 C 0.69962 0.75361 0.39257 0.0
O89 O 0.78851 0.72373 0.34718 0.0
O90 O 0.7263 0.6691 0.37592 0.0
In91 In 0.37791 1.02748 0.31497 0.0
O92 O 0.37909 0.98199 0.38056 0.0
O93 O 0.31698 0.98101 0.36475 0.0
C94 C 0.44935 0.05032 0.2508 0.0
C95 C 0.40066 0.09896 0.37903 0.0
C96 C 0.31706 0.98747 0.23725 0.0
O97 O 0.4359 1.01744 0.28272 0.0
O98 O 0.42844 0.07201 0.25401 0.0
O99 O 0.33232 1.02868 0.24953 0.0
O100 O 0.33169 0.9667 0.26484 0.0
C101 C 0.33776 0.96651 0.39253 0.0
O102 O 0.36776 0.0854 0.34706 0.0
O103 O 0.4224 0.07808 0.37599 0.0
In104 In 0.0637 0.37086 0.31494 0.0
O105 O 0.07392 0.43897 0.2827 0.0
O106 O 1.01918 0.3768 0.25399 0.0
C107 C 0.12463 0.39158 0.39257 0.0
C108 C 0.10363 0.35004 0.23728 0.0
C109 C 0.99215 0.32217 0.37902 0.0
O110 O 0.10944 0.41759 0.38049 0.0
O111 O 0.10987 0.35619 0.36485 0.0
O112 O 1.0055 0.30274 0.34703 0.0
O113 O 1.01327 0.36485 0.37598 0.0
C114 C 1.04096 0.41947 0.2508 0.0
O115 O 0.06237 0.32401 0.24953 0.0
O116 O 0.12447 0.38551 0.26485 0.0
In117 In 0.72066 1.02855 0.31456 0.0
O118 O 0.76626 1.02751 0.24931 0.0
O119 O 0.70285 0.96712 0.26388 0.0
C120 C 0.76828 0.10043 0.37821 0.0
C121 C 0.67298 0.05266 0.25098 0.0
C122 C 0.70265 0.96874 0.39261 0.0
O123 O 0.78818 0.08791 0.34578 0.0
O124 O 0.72552 0.07829 0.37576 0.0
O125 O 0.67499 0.98175 0.37976 0.0
O126 O 0.73847 0.98505 0.36539 0.0
C127 C 0.73863 0.98672 0.23659 0.0
O128 O 0.65312 1.02023 0.28348 0.0
O129 O 0.71574 0.07335 0.25328 0.0
In130 In 0.06188 0.71221 0.31455 0.0
O131 O 0.06294 0.75879 0.24917 0.0
O132 O 0.1234 0.75616 0.26404 0.0
C133 C 0.99002 0.68794 0.3782 0.0
C134 C 1.03778 0.6403 0.25104 0.0
C135 C 0.12185 0.75416 0.39257 0.0
O136 O 1.00261 0.72035 0.34568 0.0
O137 O 1.01205 0.66731 0.37581 0.0
O138 O 0.10867 0.71341 0.37978 0.0
O139 O 0.10561 0.77366 0.36533 0.0
C140 C 0.1038 0.7722 0.23662 0.0
O141 O 0.0702 0.65303 0.28362 0.0
O142 O 1.01708 0.66227 0.25324 0.0
In143 In 0.37855 0.37005 0.31458 0.0
O144 O 0.37024 0.30256 0.34569 0.0
O145 O 0.42347 0.36517 0.37579 0.0
C146 C 0.31857 0.35205 0.23662 0.0
C147 C 0.33674 0.38807 0.39256 0.0
C148 C 0.45048 0.41782 0.251 0.0
O149 O 0.33172 0.32447 0.24924 0.0
O150 O 0.33485 0.38778 0.26399 0.0
O151 O 0.43797 0.4376 0.28362 0.0
O152 O 0.42829 0.37509 0.25319 0.0
C153 C 0.40275 0.32244 0.37816 0.0
O154 O 0.37753 0.41569 0.37979 0.0
O155 O 0.31714 0.35225 0.36534 0.0
In156 In 0.38706 0.04693 0.64829 0.0
O157 O 0.45518 0.05706 0.68051 0.0
O158 O 0.39297 1.00244 0.70926 0.0
C159 C 0.40796 0.10771 0.57059 0.0
C160 C 0.36628 0.08694 0.7259 0.0
C161 C 0.33842 0.97549 0.58406 0.0
O162 O 0.43398 0.09258 0.5829 0.0
O163 O 0.37248 0.093 0.59815 0.0
O164 O 0.31892 0.98886 0.61593 0.0
O165 O 0.38112 0.99651 0.58733 0.0
C166 C 0.43568 1.02415 0.7124 0.0
O167 O 0.34025 0.04568 0.71372 0.0
O168 O 0.40173 0.10773 0.69828 0.0
In169 In 1.04458 0.36081 0.64831 0.0
O170 O 1.03442 0.41874 0.68039 0.0
O171 O 0.08906 0.41142 0.70932 0.0
C172 C 0.98373 0.3208 0.57058 0.0
C173 C 1.00443 0.29984 0.72587 0.0
C174 C 0.11602 0.38365 0.58413 0.0
O175 O 0.99899 0.36201 0.58286 0.0
O176 O 0.99835 0.30003 0.59818 0.0
O177 O 0.10257 0.35077 0.61605 0.0
O178 O 0.09511 0.40535 0.58734 0.0
C179 C 0.06733 0.4323 0.71236 0.0
O180 O 1.04576 0.31532 0.71389 0.0
O181 O 0.98365 0.31435 0.69808 0.0
In182 In 0.73037 0.70419 0.64828 0.0
O183 O 0.74058 0.7723 0.61603 0.0
O184 O 0.68585 0.71014 0.58732 0.0
C185 C 0.79129 0.72491 0.7259 0.0
C186 C 0.77029 0.68337 0.57062 0.0
C187 C 0.65882 0.6555 0.71236 0.0
O188 O 0.77611 0.75092 0.71382 0.0
O189 O 0.77654 0.68953 0.69818 0.0
O190 O 0.67217 0.63607 0.68036 0.0
O191 O 0.67994 0.69819 0.70932 0.0
C192 C 0.70763 0.75281 0.58413 0.0
O193 O 0.72904 0.65734 0.58287 0.0
O194 O 0.79113 0.71885 0.59818 0.0
In195 In 0.38732 0.36188 0.6479 0.0
O196 O 0.43293 0.36084 0.58264 0.0
O197 O 0.36952 0.30046 0.59722 0.0
C198 C 0.43494 0.43376 0.71155 0.0
C199 C 0.33965 0.386 0.58431 0.0
C200 C 0.36932 0.30207 0.72594 0.0
O201 O 0.45485 0.42124 0.67911 0.0
O202 O 0.39219 0.41162 0.70909 0.0
O203 O 0.34166 0.31508 0.71309 0.0
O204 O 0.40513 0.31838 0.69872 0.0
C205 C 0.40529 0.32005 0.56992 0.0
O206 O 0.31979 0.35357 0.61682 0.0
O207 O 0.38241 0.40668 0.58661 0.0
In208 In 0.72855 0.04555 0.64789 0.0
O209 O 0.72961 0.09212 0.5825 0.0
O210 O 0.79007 0.0895 0.59737 0.0
C211 C 0.65669 1.02128 0.71153 0.0
C212 C 0.70445 0.97363 0.58437 0.0
C213 C 0.78852 0.08749 0.7259 0.0
O214 O 0.66928 0.05369 0.67902 0.0
O215 O 0.67872 1.00065 0.70914 0.0
O216 O 0.77533 0.04675 0.71311 0.0
O217 O 0.77228 0.107 0.69866 0.0
C218 C 0.77047 0.10554 0.56995 0.0
O219 O 0.73687 0.98637 0.61695 0.0
O220 O 0.68375 0.9956 0.58657 0.0
In221 In 1.04522 0.70338 0.64791 0.0
O222 O 1.03691 0.6359 0.67903 0.0
O223 O 0.09014 0.6985 0.70912 0.0
C224 C 0.98523 0.68539 0.56996 0.0
C225 C 1.0034 0.7214 0.7259 0.0
C226 C 0.11714 0.75116 0.58433 0.0
O227 O 0.99839 0.65781 0.58258 0.0
O228 O 1.00152 0.72111 0.59733 0.0
O229 O 0.10463 0.77094 0.61695 0.0
O230 O 0.09495 0.70842 0.58653 0.0
C231 C 0.06942 0.65578 0.71149 0.0
O232 O 1.0442 0.74903 0.71312 0.0
O233 O 0.9838 0.68558 0.69867 0.0
H234 H 0.34226 0.34083 0.14146 0.0
H235 H 0.2446 0.35731 0.0527 0.0
H236 H 0.245 0.35919 0.22454 0.0
H237 H 0.18057 0.34951 0.22489 0.0
H238 H 0.0694 0.34238 0.14208 0.0
H239 H 0.18531 0.36324 0.05359 0.0
C240 C 0.31204 0.34386 0.14028 0.0
C241 C 0.29369 0.34779 0.18749 0.0
C242 C 0.2957 0.34958 0.09196 0.0
C243 C 0.25695 0.3544 0.09086 0.0
C244 C 0.23494 0.35479 0.13855 0.0
C245 C 0.2563 0.35435 0.18671 0.0
C246 C 0.18998 0.35442 0.13876 0.0
C247 C 0.16657 0.34989 0.18695 0.0
C248 C 0.12349 0.34546 0.1878 0.0
C249 C 0.10232 0.34462 0.14071 0.0
C250 C 0.12501 0.35201 0.09257 0.0
C251 C 0.16881 0.35729 0.09145 0.0
H252 H 0.7497 1.02169 0.14146 0.0
H253 H 0.7336 0.90776 0.0526 0.0
H254 H 0.73167 0.90615 0.22444 0.0
H255 H 0.7416 0.85165 0.2248 0.0
H256 H 0.74918 0.74797 0.1421 0.0
H257 H 0.72798 0.84265 0.05348 0.0
C258 C 0.74676 0.98849 0.14025 0.0
C259 C 0.7429 0.96619 0.18743 0.0
C260 C 0.74111 0.96647 0.09191 0.0
C261 C 0.73645 0.92299 0.09077 0.0
C262 C 0.73613 0.90059 0.13844 0.0
C263 C 0.73648 0.9223 0.18662 0.0
C264 C 0.73671 0.85613 0.13866 0.0
C265 C 0.7413 0.83733 0.18686 0.0
C266 C 0.74588 0.79882 0.18775 0.0
C267 C 0.74684 0.77856 0.14068 0.0
C268 C 0.73941 0.79377 0.09251 0.0
C269 C 0.73397 0.83215 0.09135 0.0
H270 H 0.3434 1.02179 0.14207 0.0
H271 H 0.24815 0.90578 0.05351 0.0
H272 H 0.2397 0.91025 0.22489 0.0
H273 H 0.18443 0.84612 0.22459 0.0
H274 H 0.06886 0.74819 0.14143 0.0
H275 H 0.18317 0.84598 0.05272 0.0
C276 C 0.31272 0.9888 0.14069 0.0
C277 C 0.2925 0.96754 0.18778 0.0
C278 C 0.29734 0.96612 0.09252 0.0
C279 C 0.2588 0.92225 0.0914 0.0
C280 C 0.23486 0.90097 0.13873 0.0
C281 C 0.25389 0.92435 0.18692 0.0
C282 C 0.19023 0.8559 0.13855 0.0
C283 C 0.16836 0.83462 0.18672 0.0
C284 C 0.1244 0.79705 0.18747 0.0
C285 C 0.10213 0.77851 0.14026 0.0
C286 C 0.12424 0.79485 0.09197 0.0
C287 C 0.16785 0.8337 0.09087 0.0
H288 H 0.35899 0.05302 0.82117 0.0
H289 H 0.38042 0.16925 0.90939 0.0
H290 H 0.36533 0.16365 0.73822 0.0
H291 H 0.37689 0.2288 0.73844 0.0
H292 H 0.35772 0.3258 0.82092 0.0
H293 H 0.37349 0.22802 0.91022 0.0
C294 C 0.36122 0.08591 0.8225 0.0
C295 C 0.3618 0.10688 0.77538 0.0
C296 C 0.3688 0.10873 0.87059 0.0
C297 C 0.37419 0.15255 0.8716 0.0
C298 C 0.37108 0.17353 0.82428 0.0
C299 C 0.36614 0.1499 0.77616 0.0
C300 C 0.37162 0.21853 0.82438 0.0
C301 C 0.37162 0.23998 0.77614 0.0
C302 C 0.36498 0.2773 0.77515 0.0
C303 C 0.36076 0.29561 0.82225 0.0
C304 C 0.36622 0.27927 0.87068 0.0
C305 C 0.37092 0.24048 0.87198 0.0
H306 H 0.76474 0.05217 0.82089 0.0
H307 H 0.86303 0.16586 0.91014 0.0
H308 H 0.86206 0.1685 0.73836 0.0
H309 H 0.92752 0.22196 0.73816 0.0
H310 H 1.03836 0.32658 0.82118 0.0
H311 H 0.92179 0.23178 0.90924 0.0
C312 C 0.79504 0.08545 0.8222 0.0
C313 C 0.81339 0.10799 0.77509 0.0
C314 C 0.81152 0.10729 0.87062 0.0
C315 C 0.85046 0.15082 0.87191 0.0
C316 C 0.87242 0.17349 0.82429 0.0
C317 C 0.85085 0.15201 0.77606 0.0
C318 C 0.91757 0.218 0.82418 0.0
C319 C 0.94129 0.23664 0.77609 0.0
C320 C 0.9844 0.27539 0.77534 0.0
C321 C 1.00539 0.29587 0.82248 0.0
C322 C 0.98248 0.28065 0.87053 0.0
C323 C 0.93856 0.24218 0.8715 0.0
H324 H 0.76492 0.73245 0.82121 0.0
H325 H 0.85957 0.71071 0.9093 0.0
H326 H 0.86882 0.72545 0.73812 0.0
H327 H 0.92265 0.71428 0.73828 0.0
H328 H 1.03865 0.73268 0.82092 0.0
H329 H 0.92505 0.71712 0.91009 0.0
C330 C 0.79552 0.7301 0.8225 0.0
C331 C 0.81581 0.72937 0.77535 0.0
C332 C 0.81076 0.72248 0.87057 0.0
C333 C 0.84911 0.71695 0.87153 0.0
C334 C 0.87311 0.71991 0.82417 0.0
C335 C 0.85438 0.72483 0.77608 0.0
C336 C 0.91754 0.71924 0.82425 0.0
C337 C 0.93904 0.71931 0.77602 0.0
C338 C 0.98296 0.72574 0.77509 0.0
C339 C 1.00543 0.72975 0.82221 0.0
C340 C 0.98358 0.7243 0.87061 0.0
C341 C 0.94011 0.71973 0.87187 0.0
H342 H 1.00893 0.67416 0.4748 0.0
H343 H 0.91127 0.69065 0.38603 0.0
H344 H 0.91167 0.69252 0.55788 0.0
H345 H 0.84723 0.68284 0.55822 0.0
H346 H 0.73607 0.67571 0.47542 0.0
H347 H 0.85198 0.69658 0.38693 0.0
C348 C 0.97871 0.6772 0.47361 0.0
C349 C 0.96036 0.68113 0.52082 0.0
C350 C 0.96236 0.68292 0.4253 0.0
C351 C 0.92362 0.68773 0.4242 0.0
C352 C 0.90161 0.68813 0.47188 0.0
C353 C 0.92296 0.68768 0.52004 0.0
C354 C 0.85664 0.68775 0.4721 0.0
C355 C 0.83324 0.68322 0.52028 0.0
C356 C 0.79016 0.67879 0.52113 0.0
C357 C 0.76898 0.67795 0.47404 0.0
C358 C 0.79167 0.68534 0.4259 0.0
C359 C 0.83547 0.69062 0.42479 0.0
H360 H 0.41637 0.35502 0.47479 0.0
H361 H 0.40027 0.24109 0.38593 0.0
H362 H 0.39834 0.23948 0.55778 0.0
H363 H 0.40827 0.18498 0.55813 0.0
H364 H 0.41585 0.0813 0.47543 0.0
H365 H 0.39465 0.17599 0.38681 0.0
C366 C 0.41342 0.32182 0.47358 0.0
C367 C 0.40957 0.29952 0.52076 0.0
C368 C 0.40778 0.29981 0.42524 0.0
C369 C 0.40312 0.25632 0.4241 0.0
C370 C 0.4028 0.23392 0.47178 0.0
C371 C 0.40314 0.25564 0.51995 0.0
C372 C 0.40338 0.18947 0.47199 0.0
C373 C 0.40797 0.17067 0.52019 0.0
C374 C 0.41255 0.13215 0.52109 0.0
C375 C 0.4135 0.11189 0.47402 0.0
C376 C 0.40607 0.12711 0.42584 0.0
C377 C 0.40063 0.16549 0.42469 0.0
H378 H 1.01007 0.35512 0.47541 0.0
H379 H 0.91482 0.23912 0.38684 0.0
H380 H 0.90636 0.24359 0.55822 0.0
H381 H 0.85109 0.17945 0.55792 0.0
H382 H 0.73552 0.08152 0.47476 0.0
H383 H 0.84984 0.17931 0.38605 0.0
C384 C 0.97939 0.32214 0.47402 0.0
C385 C 0.95917 0.30088 0.52111 0.0
C386 C 0.96401 0.29945 0.42586 0.0
C387 C 0.92547 0.25559 0.42473 0.0
C388 C 0.90153 0.2343 0.47207 0.0
C389 C 0.92056 0.25769 0.52026 0.0
C390 C 0.8569 0.18924 0.47188 0.0
C391 C 0.83502 0.16796 0.52005 0.0
C392 C 0.79107 0.13038 0.52081 0.0
C393 C 0.7688 0.11185 0.47359 0.0
C394 C 0.79091 0.12818 0.4253 0.0
C395 C 0.83451 0.16703 0.42421 0.0
H396 H 1.02566 0.38635 0.15451 0.0
H397 H 1.04709 0.50258 0.24272 0.0
H398 H 1.032 0.49699 0.07156 0.0
H399 H 1.04355 0.56213 0.07177 0.0
H400 H 1.02438 0.65914 0.15425 0.0
H401 H 1.04016 0.56135 0.24355 0.0
C402 C 1.02789 0.41924 0.15584 0.0
C403 C 1.02847 0.44022 0.10871 0.0
C404 C 1.03547 0.44207 0.20393 0.0
C405 C 1.04086 0.48589 0.20494 0.0
C406 C 1.03775 0.50686 0.15761 0.0
C407 C 1.03281 0.48323 0.1095 0.0
C408 C 1.03829 0.55187 0.15771 0.0
C409 C 1.03828 0.57332 0.10948 0.0
C410 C 1.03165 0.61063 0.10848 0.0
C411 C 1.02743 0.62894 0.15558 0.0
C412 C 1.03289 0.6126 0.20401 0.0
C413 C 1.03759 0.57382 0.20532 0.0
H414 H 0.43141 0.3855 0.15422 0.0
H415 H 0.5297 0.4992 0.24347 0.0
H416 H 0.52873 0.50183 0.0717 0.0
H417 H 0.59419 0.5553 0.07149 0.0
H418 H 0.70503 0.65991 0.15452 0.0
H419 H 0.58846 0.56511 0.24258 0.0
C420 C 0.46171 0.41878 0.15553 0.0
C421 C 0.48006 0.44132 0.10842 0.0
C422 C 0.47818 0.44063 0.20396 0.0
C423 C 0.51713 0.48416 0.20524 0.0
C424 C 0.53909 0.50682 0.15762 0.0
C425 C 0.51752 0.48534 0.1094 0.0
C426 C 0.58423 0.55133 0.15751 0.0
C427 C 0.60796 0.56997 0.10942 0.0
C428 C 0.65107 0.60872 0.10867 0.0
C429 C 0.67206 0.6292 0.15582 0.0
C430 C 0.64915 0.61398 0.20386 0.0
C431 C 0.60523 0.57552 0.20483 0.0
H432 H 0.43159 0.06578 0.15454 0.0
H433 H 0.52623 0.04404 0.24264 0.0
H434 H 0.53549 0.05878 0.07146 0.0
H435 H 0.58932 0.04761 0.07161 0.0
H436 H 0.70532 0.06601 0.15426 0.0
H437 H 0.59172 0.05045 0.24342 0.0
C438 C 0.46219 0.06343 0.15584 0.0
C439 C 0.48247 0.0627 0.10868 0.0
C440 C 0.47743 0.05581 0.2039 0.0
C441 C 0.51578 0.05028 0.20486 0.0
C442 C 0.53978 0.05325 0.15751 0.0
C443 C 0.52104 0.05816 0.10941 0.0
C444 C 0.58421 0.05257 0.15758 0.0
C445 C 0.6057 0.05264 0.10935 0.0
C446 C 0.64963 0.05907 0.10842 0.0
C447 C 0.6721 0.06309 0.15554 0.0
C448 C 0.65024 0.05763 0.20394 0.0
C449 C 0.60678 0.05306 0.2052 0.0
H450 H 0.67559 1.0075 0.80813 0.0
H451 H 0.57793 1.02398 0.71937 0.0
H452 H 0.57833 1.02585 0.89121 0.0
H453 H 0.5139 1.01617 0.89156 0.0
H454 H 0.40274 1.00904 0.80875 0.0
H455 H 0.51865 1.02991 0.72026 0.0
C456 C 0.64537 1.01053 0.80695 0.0
C457 C 0.62702 1.01446 0.85415 0.0
C458 C 0.62903 1.01625 0.75863 0.0
C459 C 0.59029 1.02106 0.75753 0.0
C460 C 0.56828 1.02146 0.80522 0.0
C461 C 0.58963 1.02101 0.85338 0.0
C462 C 0.52331 1.02109 0.80543 0.0
C463 C 0.4999 1.01655 0.85361 0.0
C464 C 0.45682 1.01212 0.85446 0.0
C465 C 0.43565 1.01129 0.80737 0.0
C466 C 0.45834 1.01867 0.75923 0.0
C467 C 0.50214 1.02396 0.75812 0.0
H468 H 0.08303 0.68836 0.80813 0.0
H469 H 0.06693 0.57442 0.71926 0.0
H470 H 0.065 0.57281 0.89111 0.0
H471 H 0.07494 0.51832 0.89146 0.0
H472 H 0.08251 0.41464 0.80877 0.0
H473 H 0.06131 0.50932 0.72014 0.0
C474 C 0.08009 0.65515 0.80691 0.0
C475 C 0.07623 0.63286 0.8541 0.0
C476 C 0.07444 0.63314 0.75858 0.0
C477 C 0.06978 0.58965 0.75744 0.0
C478 C 0.06946 0.56726 0.80511 0.0
C479 C 0.06981 0.58897 0.85328 0.0
C480 C 0.07004 0.5228 0.80532 0.0
C481 C 0.07464 0.504 0.85352 0.0
C482 C 0.07922 0.46548 0.85442 0.0
C483 C 0.08017 0.44522 0.80735 0.0
C484 C 0.07274 0.46044 0.75917 0.0
C485 C 0.0673 0.49882 0.75802 0.0
H486 H 0.67674 0.68845 0.80874 0.0
H487 H 0.58148 0.57245 0.72018 0.0
H488 H 0.57303 0.57692 0.89155 0.0
H489 H 0.51776 0.51279 0.89126 0.0
H490 H 0.40219 0.41485 0.8081 0.0
H491 H 0.51651 0.51264 0.71939 0.0
C492 C 0.64606 0.65547 0.80735 0.0
C493 C 0.62584 0.63421 0.85444 0.0
C494 C 0.63068 0.63278 0.75919 0.0
C495 C 0.59213 0.58892 0.75807 0.0
C496 C 0.5682 0.56764 0.8054 0.0
C497 C 0.58722 0.59102 0.85359 0.0
C498 C 0.52357 0.52257 0.80522 0.0
C499 C 0.50169 0.50129 0.85338 0.0
C500 C 0.45773 0.46371 0.85414 0.0
C501 C 0.43546 0.44518 0.80692 0.0
C502 C 0.45758 0.46151 0.75863 0.0
C503 C 0.50118 0.50037 0.75754 0.0
H504 H 0.69232 0.71968 0.48784 0.0
H505 H 0.71375 0.83592 0.57605 0.0
H506 H 0.69866 0.83032 0.40489 0.0
H507 H 0.71022 0.89547 0.40511 0.0
H508 H 0.69105 0.99247 0.48758 0.0
H509 H 0.70683 0.89469 0.57688 0.0
C510 C 0.69456 0.75257 0.48917 0.0
C511 C 0.69513 0.77355 0.44205 0.0
C512 C 0.70213 0.7754 0.53726 0.0
C513 C 0.70752 0.81922 0.53827 0.0
C514 C 0.70442 0.84019 0.49094 0.0
C515 C 0.69948 0.81656 0.44283 0.0
C516 C 0.70495 0.8852 0.49104 0.0
C517 C 0.70495 0.90665 0.44281 0.0
C518 C 0.69831 0.94397 0.44181 0.0
C519 C 0.6941 0.96228 0.48891 0.0
C520 C 0.69956 0.94594 0.53735 0.0
C521 C 0.70426 0.90715 0.53865 0.0
H522 H 0.09807 0.71883 0.48756 0.0
H523 H 0.19636 0.83253 0.5768 0.0
H524 H 0.1954 0.83517 0.40503 0.0
H525 H 0.26086 0.88863 0.40483 0.0
H526 H 0.37169 0.99324 0.48785 0.0
H527 H 0.25512 0.89844 0.57591 0.0
C528 C 0.12838 0.75211 0.48887 0.0
C529 C 0.14672 0.77466 0.44176 0.0
C530 C 0.14485 0.77396 0.53729 0.0
C531 C 0.18379 0.81749 0.53857 0.0
C532 C 0.20576 0.84015 0.49095 0.0
C533 C 0.18418 0.81867 0.44273 0.0
C534 C 0.2509 0.88467 0.49085 0.0
C535 C 0.27462 0.90331 0.44276 0.0
C536 C 0.31773 0.94206 0.44201 0.0
C537 C 0.33872 0.96253 0.48915 0.0
C538 C 0.31582 0.94732 0.5372 0.0
C539 C 0.27189 0.90885 0.53816 0.0
H540 H 0.09825 0.39912 0.48788 0.0
H541 H 0.1929 0.37737 0.57597 0.0
H542 H 0.20215 0.39211 0.40479 0.0
H543 H 0.25599 0.38095 0.40494 0.0
H544 H 0.37198 0.39934 0.48759 0.0
H545 H 0.25839 0.38378 0.57676 0.0
C546 C 0.12886 0.39677 0.48917 0.0
C547 C 0.14914 0.39604 0.44202 0.0
C548 C 0.1441 0.38914 0.53723 0.0
C549 C 0.18245 0.38361 0.53819 0.0
C550 C 0.20645 0.38658 0.49084 0.0
C551 C 0.18771 0.3915 0.44275 0.0
C552 C 0.25087 0.3859 0.49092 0.0
C553 C 0.27237 0.38598 0.44269 0.0
C554 C 0.3163 0.3924 0.44175 0.0
C555 C 0.33877 0.39642 0.48888 0.0
C556 C 0.31691 0.39096 0.53727 0.0
C557 C 0.27344 0.3864 0.53853 0.0
loop_
_geom_bond_atom_site_label_1
_geom_bond_atom_site_label_2
_geom_bond_distance
_geom_bond_site_symmetry_2
_ccdc_geom_bond_type
In0 O1 2.294 1_455 S
In0 O2 2.326 . S
In0 O6 2.266 1_455 S
In0 O7 2.326 1_454 S
In0 O8 2.266 1_554 S
In0 O9 2.326 1_454 S
In0 O11 2.294 . S
In0 O12 2.326 . S
O1 In0 2.294 1_655 S
O1 C10 1.240 1_655 S
O2 In0 2.326 . S
O2 C10 1.252 . S
C3 O6 1.252 1_556 S
C3 O7 1.260 . S
C4 O11 1.240 . S
C4 O12 1.252 . S
C5 O8 1.233 1_655 S
C5 O9 1.273 . S
O6 In0 2.266 1_655 S
O6 C3 1.252 1_554 S
O7 In0 2.326 1_656 S
O7 C3 1.260 . S
O8 In0 2.266 1_556 S
O8 C5 1.233 1_455 S
O9 In0 2.326 1_656 S
O9 C5 1.273 . S
C10 O1 1.240 1_455 S
C10 O2 1.252 . S
O11 In0 2.294 . S
O11 C4 1.240 . S
O12 In0 2.326 . S
O12 C4 1.252 . S
In13 O14 2.294 . S
In13 O15 2.326 . S
In13 O19 2.266 . S
In13 O20 2.326 1_554 S
In13 O21 2.266 1_554 S
In13 O22 2.326 1_554 S
In13 O24 2.294 . S
In13 O25 2.326 . S
O14 In13 2.294 . S
O14 C23 1.240 . S
O15 In13 2.326 . S
O15 C23 1.252 . S
C16 O19 1.252 1_556 S
C16 O20 1.260 . S
C17 O24 1.240 . S
C17 O25 1.252 . S
C18 O21 1.252 . S
C18 O22 1.260 . S
O19 In13 2.266 . S
O19 C16 1.252 1_554 S
O20 In13 2.326 1_556 S
O20 C16 1.260 . S
O21 In13 2.266 1_556 S
O21 C18 1.252 . S
O22 In13 2.326 1_556 S
O22 C18 1.260 . S
C23 O14 1.240 . S
C23 O15 1.252 . S
O24 In13 2.294 . S
O24 C17 1.240 . S
O25 In13 2.326 . S
O25 C17 1.252 . S
In26 O27 2.294 . S
In26 O28 2.326 1_554 S
In26 O32 2.266 . S
In26 O33 2.326 1_545 S
In26 O34 2.266 1_545 S
In26 O35 2.326 1_545 S
In26 O37 2.294 1_544 S
In26 O38 2.326 1_554 S
O27 In26 2.294 . S
O27 C36 1.240 1_554 S
O28 In26 2.326 1_556 S
O28 C36 1.252 . S
C29 O32 1.252 1_565 S
C29 O33 1.260 . S
C30 O37 1.240 1_545 S
C30 O38 1.252 . S
C31 O34 1.252 . S
C31 O35 1.260 . S
O32 In26 2.266 . S
O32 C29 1.252 1_545 S
O33 In26 2.326 1_565 S
O33 C29 1.260 . S
O34 In26 2.266 1_565 S
O34 C31 1.252 . S
O35 In26 2.326 1_565 S
O35 C31 1.260 . S
C36 O27 1.240 1_556 S
C36 O28 1.252 . S
O37 In26 2.294 1_566 S
O37 C30 1.240 1_565 S
O38 In26 2.326 1_556 S
O38 C30 1.252 . S
In39 O40 2.294 1_554 S
In39 O41 2.326 1_454 S
In39 O45 2.266 . S
In39 O46 2.326 . S
In39 O47 2.266 1_455 S
In39 O48 2.326 . S
In39 O50 2.294 1_455 S
In39 O51 2.326 1_454 S
O40 In39 2.294 1_556 S
O40 C49 1.236 1_455 S
O41 In39 2.326 1_656 S
O41 C49 1.258 . S
C42 O45 1.252 . S
C42 O46 1.260 . S
C43 O50 1.240 1_556 S
C43 O51 1.252 . S
C44 O47 1.252 1_455 S
C44 O48 1.260 . S
O45 In39 2.266 . S
O45 C42 1.252 . S
O46 In39 2.326 . S
O46 C42 1.260 . S
O47 In39 2.266 1_655 S
O47 C44 1.252 1_655 S
O48 In39 2.326 . S
O48 C44 1.260 . S
C49 O40 1.236 1_655 S
C49 O41 1.258 . S
O50 In39 2.294 1_655 S
O50 C43 1.240 1_554 S
O51 In39 2.326 1_656 S
O51 C43 1.252 . S
In52 O53 2.294 1_554 S
In52 O54 2.326 1_554 S
In52 O58 2.266 . S
In52 O59 2.326 . S
In52 O60 2.266 . S
In52 O61 2.326 . S
In52 O63 2.294 . S
In52 O64 2.326 1_554 S
O53 In52 2.294 1_556 S
O53 C62 1.240 . S
O54 In52 2.326 1_556 S
O54 C62 1.252 . S
C55 O58 1.252 . S
C55 O59 1.260 . S
C56 O63 1.240 1_556 S
C56 O64 1.252 . S
C57 O60 1.252 . S
C57 O61 1.260 . S
O58 In52 2.266 . S
O58 C55 1.252 . S
O59 In52 2.326 . S
O59 C55 1.260 . S
O60 In52 2.266 . S
O60 C57 1.252 . S
O61 In52 2.326 . S
O61 C57 1.260 . S
C62 O53 1.240 . S
C62 O54 1.252 . S
O63 In52 2.294 . S
O63 C56 1.240 1_554 S
O64 In52 2.326 1_556 S
O64 C56 1.252 . S
In65 O66 2.294 . S
In65 O67 2.326 1_545 S
In65 O71 2.266 . S
In65 O72 2.326 1_554 S
In65 O73 2.266 1_544 S
In65 O74 2.326 1_554 S
In65 O76 2.294 1_545 S
In65 O77 2.326 1_545 S
O66 In65 2.294 . S
O66 C75 1.239 . S
O67 In65 2.326 1_565 S
O67 C75 1.254 1_565 S
C68 O71 1.252 1_556 S
C68 O72 1.260 . S
C69 O76 1.240 . S
C69 O77 1.252 . S
C70 O73 1.252 1_545 S
C70 O74 1.260 . S
O71 In65 2.266 . S
O71 C68 1.252 1_554 S
O72 In65 2.326 1_556 S
O72 C68 1.260 . S
O73 In65 2.266 1_566 S
O73 C70 1.252 1_565 S
O74 In65 2.326 1_556 S
O74 C70 1.260 . S
C75 O66 1.239 . S
C75 O67 1.254 1_545 S
O76 In65 2.294 1_565 S
O76 C69 1.240 . S
O77 In65 2.326 1_565 S
O77 C69 1.252 . S
In78 O79 2.294 . S
In78 O80 2.326 . S
In78 O84 2.266 . S
In78 O85 2.326 . S
In78 O86 2.266 . S
In78 O87 2.326 . S
In78 O89 2.294 . S
In78 O90 2.326 . S
O79 In78 2.294 . S
O79 C88 1.240 . S
O80 In78 2.326 . S
O80 C88 1.252 . S
C81 O84 1.252 . S
C81 O85 1.260 . S
C82 O89 1.240 . S
C82 O90 1.252 . S
C83 O86 1.252 . S
C83 O87 1.260 . S
O84 In78 2.266 . S
O84 C81 1.252 . S
O85 In78 2.326 . S
O85 C81 1.260 . S
O86 In78 2.266 . S
O86 C83 1.252 . S
O87 In78 2.326 . S
O87 C83 1.260 . S
C88 O79 1.240 . S
C88 O80 1.252 . S
O89 In78 2.294 . S
O89 C82 1.240 . S
O90 In78 2.326 . S
O90 C82 1.252 . S
In91 O92 2.294 . S
In91 O93 2.326 . S
In91 O97 2.266 . S
In91 O98 2.326 1_565 S
In91 O99 2.266 . S
In91 O100 2.326 . S
In91 O102 2.294 1_565 S
In91 O103 2.326 1_565 S
O92 In91 2.294 . S
O92 C101 1.240 . S
O93 In91 2.326 . S
O93 C101 1.252 . S
C94 O97 1.252 . S
C94 O98 1.260 1_565 S
C95 O102 1.240 . S
C95 O103 1.252 . S
C96 O99 1.252 . S
C96 O100 1.260 . S
O97 In91 2.266 . S
O97 C94 1.252 . S
O98 In91 2.326 1_545 S
O98 C94 1.260 1_545 S
O99 In91 2.266 . S
O99 C96 1.252 . S
O100 In91 2.326 . S
O100 C96 1.260 . S
C101 O92 1.240 . S
C101 O93 1.252 . S
O102 In91 2.294 1_545 S
O102 C95 1.240 . S
O103 In91 2.326 1_545 S
O103 C95 1.252 . S
In104 O105 2.294 . S
In104 O106 2.326 1_455 S
In104 O110 2.266 . S
In104 O111 2.326 . S
In104 O112 2.266 1_455 S
In104 O113 2.326 1_455 S
In104 O115 2.294 . S
In104 O116 2.326 . S
O105 In104 2.294 . S
O105 C114 1.240 . S
O106 In104 2.326 1_655 S
O106 C114 1.252 1_655 S
C107 O110 1.252 . S
C107 O111 1.260 . S
C108 O115 1.240 . S
C108 O116 1.252 . S
C109 O112 1.252 . S
C109 O113 1.260 . S
O110 In104 2.266 . S
O110 C107 1.252 . S
O111 In104 2.326 . S
O111 C107 1.260 . S
O112 In104 2.266 1_655 S
O112 C109 1.252 . S
O113 In104 2.326 1_655 S
O113 C109 1.260 . S
C114 O105 1.240 . S
C114 O106 1.252 1_455 S
O115 In104 2.294 . S
O115 C108 1.240 . S
O116 In104 2.326 . S
O116 C108 1.252 . S
In117 O118 2.294 . S
In117 O119 2.326 . S
In117 O123 2.266 1_565 S
In117 O124 2.326 1_565 S
In117 O125 2.266 . S
In117 O126 2.326 . S
In117 O128 2.294 . S
In117 O129 2.326 1_565 S
O118 In117 2.294 . S
O118 C127 1.240 . S
O119 In117 2.326 . S
O119 C127 1.252 . S
C120 O123 1.252 . S
C120 O124 1.260 . S
C121 O128 1.240 . S
C121 O129 1.252 1_565 S
C122 O125 1.252 . S
C122 O126 1.260 . S
O123 In117 2.266 1_545 S
O123 C120 1.252 . S
O124 In117 2.326 1_545 S
O124 C120 1.260 . S
O125 In117 2.266 . S
O125 C122 1.252 . S
O126 In117 2.326 . S
O126 C122 1.260 . S
C127 O118 1.240 . S
C127 O119 1.252 . S
O128 In117 2.294 . S
O128 C121 1.240 . S
O129 In117 2.326 1_545 S
O129 C121 1.252 1_545 S
In130 O131 2.294 . S
In130 O132 2.326 . S
In130 O136 2.266 1_455 S
In130 O137 2.326 1_455 S
In130 O138 2.266 . S
In130 O139 2.326 . S
In130 O141 2.294 . S
In130 O142 2.326 1_455 S
O131 In130 2.294 . S
O131 C140 1.240 . S
O132 In130 2.326 . S
O132 C140 1.252 . S
C133 O136 1.252 . S
C133 O137 1.260 . S
C134 O141 1.240 . S
C134 O142 1.252 1_455 S
C135 O138 1.252 . S
C135 O139 1.260 . S
O136 In130 2.266 1_655 S
O136 C133 1.252 . S
O137 In130 2.326 1_655 S
O137 C133 1.260 . S
O138 In130 2.266 . S
O138 C135 1.252 . S
O139 In130 2.326 . S
O139 C135 1.260 . S
C140 O131 1.240 . S
C140 O132 1.252 . S
O141 In130 2.294 . S
O141 C134 1.240 . S
O142 In130 2.326 1_655 S
O142 C134 1.252 1_655 S
In143 O144 2.294 . S
In143 O145 2.326 . S
In143 O149 2.266 . S
In143 O150 2.326 . S
In143 O151 2.266 . S
In143 O152 2.326 . S
In143 O154 2.294 . S
In143 O155 2.326 . S
O144 In143 2.294 . S
O144 C153 1.240 . S
O145 In143 2.326 . S
O145 C153 1.252 . S
C146 O149 1.252 . S
C146 O150 1.260 . S
C147 O154 1.240 . S
C147 O155 1.252 . S
C148 O151 1.252 . S
C148 O152 1.260 . S
O149 In143 2.266 . S
O149 C146 1.252 . S
O150 In143 2.326 . S
O150 C146 1.260 . S
O151 In143 2.266 . S
O151 C148 1.252 . S
O152 In143 2.326 . S
O152 C148 1.260 . S
C153 O144 1.240 . S
C153 O145 1.252 . S
O154 In143 2.294 . S
O154 C147 1.240 . S
O155 In143 2.326 . S
O155 C147 1.252 . S
In156 O157 2.294 . S
In156 O158 2.326 1_545 S
In156 O162 2.266 . S
In156 O163 2.326 . S
In156 O164 2.266 1_545 S
In156 O165 2.326 1_545 S
In156 O167 2.294 . S
In156 O168 2.326 . S
O157 In156 2.294 . S
O157 C166 1.240 . S
O158 In156 2.326 1_565 S
O158 C166 1.252 1_565 S
C159 O162 1.252 . S
C159 O163 1.260 . S
C160 O167 1.240 . S
C160 O168 1.252 . S
C161 O164 1.252 . S
C161 O165 1.260 . S
O162 In156 2.266 . S
O162 C159 1.252 . S
O163 In156 2.326 . S
O163 C159 1.260 . S
O164 In156 2.266 1_565 S
O164 C161 1.252 . S
O165 In156 2.326 1_565 S
O165 C161 1.260 . S
C166 O157 1.240 . S
C166 O158 1.252 1_545 S
O167 In156 2.294 . S
O167 C160 1.240 . S
O168 In156 2.326 . S
O168 C160 1.252 . S
In169 O170 2.294 . S
In169 O171 2.326 1_655 S
In169 O175 2.266 . S
In169 O176 2.326 . S
In169 O177 2.266 1_655 S
In169 O178 2.326 1_655 S
In169 O180 2.294 . S
In169 O181 2.326 . S
O170 In169 2.294 . S
O170 C179 1.240 . S
O171 In169 2.326 1_455 S
O171 C179 1.252 1_455 S
C172 O175 1.252 . S
C172 O176 1.260 . S
C173 O180 1.240 . S
C173 O181 1.252 . S
C174 O177 1.252 . S
C174 O178 1.260 . S
O175 In169 2.266 . S
O175 C172 1.252 . S
O176 In169 2.326 . S
O176 C172 1.260 . S
O177 In169 2.266 1_455 S
O177 C174 1.252 . S
O178 In169 2.326 1_455 S
O178 C174 1.260 . S
C179 O170 1.240 . S
C179 O171 1.252 1_655 S
O180 In169 2.294 . S
O180 C173 1.240 . S
O181 In169 2.326 . S
O181 C173 1.252 . S
In182 O183 2.294 . S
In182 O184 2.326 . S
In182 O188 2.266 . S
In182 O189 2.326 . S
In182 O190 2.266 . S
In182 O191 2.326 . S
In182 O193 2.294 . S
In182 O194 2.326 . S
O183 In182 2.294 . S
O183 C192 1.240 . S
O184 In182 2.326 . S
O184 C192 1.252 . S
C185 O188 1.252 . S
C185 O189 1.260 . S
C186 O193 1.240 . S
C186 O194 1.252 . S
C187 O190 1.252 . S
C187 O191 1.260 . S
O188 In182 2.266 . S
O188 C185 1.252 . S
O189 In182 2.326 . S
O189 C185 1.260 . S
O190 In182 2.266 . S
O190 C187 1.252 . S
O191 In182 2.326 . S
O191 C187 1.260 . S
C192 O183 1.240 . S
C192 O184 1.252 . S
O193 In182 2.294 . S
O193 C186 1.240 . S
O194 In182 2.326 . S
O194 C186 1.252 . S
In195 O196 2.294 . S
In195 O197 2.326 . S
In195 O201 2.266 . S
In195 O202 2.326 . S
In195 O203 2.266 . S
In195 O204 2.326 . S
In195 O206 2.294 . S
In195 O207 2.326 . S
O196 In195 2.294 . S
O196 C205 1.240 . S
O197 In195 2.326 . S
O197 C205 1.252 . S
C198 O201 1.252 . S
C198 O202 1.260 . S
C199 O206 1.240 . S
C199 O207 1.252 . S
C200 O203 1.252 . S
C200 O204 1.260 . S
O201 In195 2.266 . S
O201 C198 1.252 . S
O202 In195 2.326 . S
O202 C198 1.260 . S
O203 In195 2.266 . S
O203 C200 1.252 . S
O204 In195 2.326 . S
O204 C200 1.260 . S
C205 O196 1.240 . S
C205 O197 1.252 . S
O206 In195 2.294 . S
O206 C199 1.240 . S
O207 In195 2.326 . S
O207 C199 1.252 . S
In208 O209 2.294 . S
In208 O210 2.326 . S
In208 O214 2.266 . S
In208 O215 2.326 1_545 S
In208 O216 2.266 . S
In208 O217 2.326 . S
In208 O219 2.294 1_545 S
In208 O220 2.326 1_545 S
O209 In208 2.294 . S
O209 C218 1.240 . S
O210 In208 2.326 . S
O210 C218 1.252 . S
C211 O214 1.252 . S
C211 O215 1.260 1_545 S
C212 O219 1.240 . S
C212 O220 1.252 . S
C213 O216 1.252 . S
C213 O217 1.260 . S
O214 In208 2.266 . S
O214 C211 1.252 . S
O215 In208 2.326 1_565 S
O215 C211 1.260 1_565 S
O216 In208 2.266 . S
O216 C213 1.252 . S
O217 In208 2.326 . S
O217 C213 1.260 . S
C218 O209 1.240 . S
C218 O210 1.252 . S
O219 In208 2.294 1_565 S
O219 C212 1.240 . S
O220 In208 2.326 1_565 S
O220 C212 1.252 . S
In221 O222 2.294 . S
In221 O223 2.326 1_655 S
In221 O227 2.266 . S
In221 O228 2.326 . S
In221 O229 2.266 1_655 S
In221 O230 2.326 1_655 S
In221 O232 2.294 . S
In221 O233 2.326 . S
O222 In221 2.294 . S
O222 C231 1.240 . S
O223 In221 2.326 1_455 S
O223 C231 1.252 1_455 S
C224 O227 1.252 . S
C224 O228 1.260 . S
C225 O232 1.240 . S
C225 O233 1.252 . S
C226 O229 1.252 . S
C226 O230 1.260 . S
O227 In221 2.266 . S
O227 C224 1.252 . S
O228 In221 2.326 . S
O228 C224 1.260 . S
O229 In221 2.266 1_455 S
O229 C226 1.252 . S
O230 In221 2.326 1_455 S
O230 C226 1.260 . S
C231 O222 1.240 . S
C231 O223 1.252 1_655 S
O232 In221 2.294 . S
O232 C225 1.240 . S
O233 In221 2.326 . S
O233 C225 1.252 . S
H234 C240 0.930 . S
H235 C243 0.931 . S
H236 C245 0.931 . S
H237 C247 0.930 . S
H238 C249 0.930 . S
H239 C251 0.931 . S
C240 H234 0.930 . S
C240 C241 1.380 . S
C240 C242 1.394 . S
C241 C240 1.380 . S
C241 C245 1.382 . S
C242 C240 1.394 . S
C242 C243 1.400 . S
C243 H235 0.931 . S
C243 C242 1.400 . S
C243 C244 1.375 . S
C244 C243 1.375 . S
C244 C245 1.415 . S
C244 C246 1.501 . S
C245 H236 0.931 . S
C245 C241 1.382 . S
C245 C244 1.415 . S
C246 C244 1.501 . S
C246 C247 1.384 . S
C246 C251 1.408 . S
C247 H237 0.930 . S
C247 C246 1.384 . S
C247 C248 1.389 . S
C248 C247 1.389 . S
C248 C249 1.405 . S
C249 H238 0.930 . S
C249 C248 1.405 . S
C249 C250 1.364 . S
C250 C249 1.364 . S
C250 C251 1.400 . S
C251 H239 0.931 . S
C251 C246 1.408 . S
C251 C250 1.400 . S
H252 C258 0.930 . S
H253 C261 0.931 . S
H254 C263 0.931 . S
H255 C265 0.930 . S
H256 C267 0.930 . S
H257 C269 0.931 . S
C258 H252 0.930 . S
C258 C259 1.380 . S
C258 C260 1.394 . S
C259 C258 1.380 . S
C259 C263 1.382 . S
C260 C258 1.394 . S
C260 C261 1.400 . S
C261 H253 0.931 . S
C261 C260 1.400 . S
C261 C262 1.375 . S
C262 C261 1.375 . S
C262 C263 1.415 . S
C262 C264 1.501 . S
C263 H254 0.931 . S
C263 C259 1.382 . S
C263 C262 1.415 . S
C264 C262 1.501 . S
C264 C265 1.384 . S
C264 C269 1.408 . S
C265 H255 0.930 . S
C265 C264 1.384 . S
C265 C266 1.389 . S
C266 C265 1.389 . S
C266 C267 1.405 . S
C267 H256 0.930 . S
C267 C266 1.405 . S
C267 C268 1.364 . S
C268 C267 1.364 . S
C268 C269 1.400 . S
C269 H257 0.931 . S
C269 C264 1.408 . S
C269 C268 1.400 . S
H270 C276 0.930 . S
H271 C279 0.931 . S
H272 C281 0.931 . S
H273 C283 0.930 . S
H274 C285 0.930 . S
H275 C287 0.931 . S
C276 H270 0.930 . S
C276 C277 1.380 . S
C276 C278 1.394 . S
C277 C276 1.380 . S
C277 C281 1.382 . S
C278 C276 1.394 . S
C278 C279 1.400 . S
C279 H271 0.931 . S
C279 C278 1.400 . S
C279 C280 1.375 . S
C280 C279 1.375 . S
C280 C281 1.415 . S
C280 C282 1.501 . S
C281 H272 0.931 . S
C281 C277 1.382 . S
C281 C280 1.415 . S
C282 C280 1.501 . S
C282 C283 1.384 . S
C282 C287 1.408 . S
C283 H273 0.930 . S
C283 C282 1.384 . S
C283 C284 1.389 . S
C284 C283 1.389 . S
C284 C285 1.405 . S
C285 H274 0.930 . S
C285 C284 1.405 . S
C285 C286 1.364 . S
C286 C285 1.364 . S
C286 C287 1.400 . S
C287 H275 0.931 . S
C287 C282 1.408 . S
C287 C286 1.400 . S
H288 C294 0.930 . S
H289 C297 0.931 . S
H290 C299 0.931 . S
H291 C301 0.930 . S
H292 C303 0.930 . S
H293 C305 0.931 . S
C294 H288 0.930 . S
C294 C295 1.380 . S
C294 C296 1.394 . S
C295 C294 1.380 . S
C295 C299 1.382 . S
C296 C294 1.394 . S
C296 C297 1.400 . S
C297 H289 0.931 . S
C297 C296 1.400 . S
C297 C298 1.375 . S
C298 C297 1.375 . S
C298 C299 1.415 . S
C298 C300 1.501 . S
C299 H290 0.931 . S
C299 C295 1.382 . S
C299 C298 1.415 . S
C300 C298 1.501 . S
C300 C301 1.384 . S
C300 C305 1.408 . S
C301 H291 0.930 . S
C301 C300 1.384 . S
C301 C302 1.389 . S
C302 C301 1.389 . S
C302 C303 1.405 . S
C303 H292 0.930 . S
C303 C302 1.405 . S
C303 C304 1.364 . S
C304 C303 1.364 . S
C304 C305 1.400 . S
C305 H293 0.931 . S
C305 C300 1.408 . S
C305 C304 1.400 . S
H306 C312 0.930 . S
H307 C315 0.931 . S
H308 C317 0.931 . S
H309 C319 0.930 . S
H310 C321 0.930 . S
H311 C323 0.931 . S
C312 H306 0.930 . S
C312 C313 1.380 . S
C312 C314 1.394 . S
C313 C312 1.380 . S
C313 C317 1.382 . S
C314 C312 1.394 . S
C314 C315 1.400 . S
C315 H307 0.931 . S
C315 C314 1.400 . S
C315 C316 1.375 . S
C316 C315 1.375 . S
C316 C317 1.415 . S
C316 C318 1.501 . S
C317 H308 0.931 . S
C317 C313 1.382 . S
C317 C316 1.415 . S
C318 C316 1.501 . S
C318 C319 1.384 . S
C318 C323 1.408 . S
C319 H309 0.930 . S
C319 C318 1.384 . S
C319 C320 1.389 . S
C320 C319 1.389 . S
C320 C321 1.405 . S
C321 H310 0.930 . S
C321 C320 1.405 . S
C321 C322 1.364 . S
C322 C321 1.364 . S
C322 C323 1.400 . S
C323 H311 0.931 . S
C323 C318 1.408 . S
C323 C322 1.400 . S
H324 C330 0.930 . S
H325 C333 0.931 . S
H326 C335 0.931 . S
H327 C337 0.930 . S
H328 C339 0.930 . S
H329 C341 0.931 . S
C330 H324 0.930 . S
C330 C331 1.380 . S
C330 C332 1.394 . S
C331 C330 1.380 . S
C331 C335 1.382 . S
C332 C330 1.394 . S
C332 C333 1.400 . S
C333 H325 0.931 . S
C333 C332 1.400 . S
C333 C334 1.375 . S
C334 C333 1.375 . S
C334 C335 1.415 . S
C334 C336 1.501 . S
C335 H326 0.931 . S
C335 C331 1.382 . S
C335 C334 1.415 . S
C336 C334 1.501 . S
C336 C337 1.384 . S
C336 C341 1.408 . S
C337 H327 0.930 . S
C337 C336 1.384 . S
C337 C338 1.389 . S
C338 C337 1.389 . S
C338 C339 1.405 . S
C339 H328 0.930 . S
C339 C338 1.405 . S
C339 C340 1.364 . S
C340 C339 1.364 . S
C340 C341 1.400 . S
C341 H329 0.931 . S
C341 C336 1.408 . S
C341 C340 1.400 . S
H342 C348 0.930 . S
H343 C351 0.931 . S
H344 C353 0.931 . S
H345 C355 0.930 . S
H346 C357 0.930 . S
H347 C359 0.931 . S
C348 H342 0.930 . S
C348 C349 1.380 . S
C348 C350 1.394 . S
C349 C348 1.380 . S
C349 C353 1.382 . S
C350 C348 1.394 . S
C350 C351 1.400 . S
C351 H343 0.931 . S
C351 C350 1.400 . S
C351 C352 1.375 . S
C352 C351 1.375 . S
C352 C353 1.415 . S
C352 C354 1.501 . S
C353 H344 0.931 . S
C353 C349 1.382 . S
C353 C352 1.415 . S
C354 C352 1.501 . S
C354 C355 1.384 . S
C354 C359 1.408 . S
C355 H345 0.930 . S
C355 C354 1.384 . S
C355 C356 1.389 . S
C356 C355 1.389 . S
C356 C357 1.405 . S
C357 H346 0.930 . S
C357 C356 1.405 . S
C357 C358 1.364 . S
C358 C357 1.364 . S
C358 C359 1.400 . S
C359 H347 0.931 . S
C359 C354 1.408 . S
C359 C358 1.400 . S
H360 C366 0.930 . S
H361 C369 0.931 . S
H362 C371 0.931 . S
H363 C373 0.930 . S
H364 C375 0.930 . S
H365 C377 0.931 . S
C366 H360 0.930 . S
C366 C367 1.380 . S
C366 C368 1.394 . S
C367 C366 1.380 . S
C367 C371 1.382 . S
C368 C366 1.394 . S
C368 C369 1.400 . S
C369 H361 0.931 . S
C369 C368 1.400 . S
C369 C370 1.375 . S
C370 C369 1.375 . S
C370 C371 1.415 . S
C370 C372 1.501 . S
C371 H362 0.931 . S
C371 C367 1.382 . S
C371 C370 1.415 . S
C372 C370 1.501 . S
C372 C373 1.384 . S
C372 C377 1.408 . S
C373 H363 0.930 . S
C373 C372 1.384 . S
C373 C374 1.389 . S
C374 C373 1.389 . S
C374 C375 1.405 . S
C375 H364 0.930 . S
C375 C374 1.405 . S
C375 C376 1.364 . S
C376 C375 1.364 . S
C376 C377 1.400 . S
C377 H365 0.931 . S
C377 C372 1.408 . S
C377 C376 1.400 . S
H378 C384 0.930 . S
H379 C387 0.931 . S
H380 C389 0.931 . S
H381 C391 0.930 . S
H382 C393 0.930 . S
H383 C395 0.931 . S
C384 H378 0.930 . S
C384 C385 1.380 . S
C384 C386 1.394 . S
C385 C384 1.380 . S
C385 C389 1.382 . S
C386 C384 1.394 . S
C386 C387 1.400 . S
C387 H379 0.931 . S
C387 C386 1.400 . S
C387 C388 1.375 . S
C388 C387 1.375 . S
C388 C389 1.415 . S
C388 C390 1.501 . S
C389 H380 0.931 . S
C389 C385 1.382 . S
C389 C388 1.415 . S
C390 C388 1.501 . S
C390 C391 1.384 . S
C390 C395 1.408 . S
C391 H381 0.930 . S
C391 C390 1.384 . S
C391 C392 1.389 . S
C392 C391 1.389 . S
C392 C393 1.405 . S
C393 H382 0.930 . S
C393 C392 1.405 . S
C393 C394 1.364 . S
C394 C393 1.364 . S
C394 C395 1.400 . S
C395 H383 0.931 . S
C395 C390 1.408 . S
C395 C394 1.400 . S
H396 C402 0.930 . S
H397 C405 0.931 . S
H398 C407 0.923 1_655 S
H399 C409 0.930 . S
H400 C411 0.930 . S
H401 C413 0.931 . S
C402 H396 0.930 . S
C402 C403 1.380 . S
C402 C404 1.394 . S
C403 C402 1.380 . S
C403 C407 1.382 . S
C404 C402 1.394 . S
C404 C405 1.400 . S
C405 H397 0.931 . S
C405 C404 1.400 . S
C405 C406 1.375 . S
C406 C405 1.375 . S
C406 C407 1.415 . S
C406 C408 1.501 . S
C407 H398 0.923 1_455 S
C407 C403 1.382 . S
C407 C406 1.415 . S
C408 C406 1.501 . S
C408 C409 1.384 . S
C408 C413 1.408 . S
C409 H399 0.930 . S
C409 C408 1.384 . S
C409 C410 1.389 . S
C410 C409 1.389 . S
C410 C411 1.405 . S
C411 H400 0.930 . S
C411 C410 1.405 . S
C411 C412 1.364 . S
C412 C411 1.364 . S
C412 C413 1.400 . S
C413 H401 0.931 . S
C413 C408 1.408 . S
C413 C412 1.400 . S
H414 C420 0.930 . S
H415 C423 0.931 . S
H416 C425 0.931 . S
H417 C427 0.930 . S
H418 C429 0.930 . S
H419 C431 0.931 . S
C420 H414 0.930 . S
C420 C421 1.380 . S
C420 C422 1.394 . S
C421 C420 1.380 . S
C421 C425 1.382 . S
C422 C420 1.394 . S
C422 C423 1.400 . S
C423 H415 0.931 . S
C423 C422 1.400 . S
C423 C424 1.375 . S
C424 C423 1.375 . S
C424 C425 1.415 . S
C424 C426 1.501 . S
C425 H416 0.931 . S
C425 C421 1.382 . S
C425 C424 1.415 . S
C426 C424 1.501 . S
C426 C427 1.384 . S
C426 C431 1.408 . S
C427 H417 0.930 . S
C427 C426 1.384 . S
C427 C428 1.389 . S
C428 C427 1.389 . S
C428 C429 1.405 . S
C429 H418 0.930 . S
C429 C428 1.405 . S
C429 C430 1.364 . S
C430 C429 1.364 . S
C430 C431 1.400 . S
C431 H419 0.931 . S
C431 C426 1.408 . S
C431 C430 1.400 . S
H432 C438 0.930 . S
H433 C441 0.931 . S
H434 C443 0.931 . S
H435 C445 0.930 . S
H436 C447 0.930 . S
H437 C449 0.930 1_545 S
C438 H432 0.930 . S
C438 C439 1.380 . S
C438 C440 1.394 1_545 S
C439 C438 1.380 . S
C439 C443 1.382 . S
C440 C438 1.394 1_565 S
C440 C441 1.400 . S
C441 H433 0.931 . S
C441 C440 1.400 . S
C441 C442 1.375 . S
C442 C441 1.375 . S
C442 C443 1.415 1_565 S
C442 C444 1.501 . S
C443 H434 0.931 . S
C443 C439 1.382 . S
C443 C442 1.415 1_545 S
C444 C442 1.501 . S
C444 C445 1.384 . S
C444 C449 1.408 . S
C445 H435 0.930 . S
C445 C444 1.384 . S
C445 C446 1.389 . S
C446 C445 1.389 . S
C446 C447 1.405 . S
C447 H436 0.930 . S
C447 C446 1.405 . S
C447 C448 1.374 . S
C448 C447 1.374 . S
C448 C449 1.385 . S
C449 H437 0.930 1_565 S
C449 C444 1.408 . S
C449 C448 1.385 . S
H450 C456 0.930 . S
H451 C459 0.929 . S
H452 C461 0.931 . S
H453 C463 0.926 1_565 S
H454 C465 0.930 . S
H455 C467 0.931 . S
C456 H450 0.930 . S
C456 C457 1.380 . S
C456 C458 1.394 . S
C457 C456 1.380 . S
C457 C461 1.382 . S
C458 C456 1.394 . S
C458 C459 1.400 . S
C459 H451 0.929 . S
C459 C458 1.400 . S
C459 C460 1.375 . S
C460 C459 1.375 . S
C460 C461 1.415 . S
C460 C462 1.501 . S
C461 H452 0.931 . S
C461 C457 1.382 . S
C461 C460 1.415 . S
C462 C460 1.501 . S
C462 C463 1.383 . S
C462 C467 1.408 . S
C463 H453 0.926 1_545 S
C463 C462 1.383 . S
C463 C464 1.395 . S
C464 C463 1.395 . S
C464 C465 1.405 . S
C465 H454 0.930 . S
C465 C464 1.405 . S
C465 C466 1.364 . S
C466 C465 1.364 . S
C466 C467 1.400 . S
C467 H455 0.931 . S
C467 C462 1.408 . S
C467 C466 1.400 . S
H468 C474 0.930 . S
H469 C477 0.931 . S
H470 C479 0.935 1_655 S
H471 C481 0.930 . S
H472 C483 0.930 . S
H473 C485 0.931 . S
C474 H468 0.930 . S
C474 C475 1.388 . S
C474 C476 1.394 1_655 S
C475 C474 1.388 . S
C475 C479 1.356 1_655 S
C476 C474 1.394 1_455 S
C476 C477 1.400 . S
C477 H469 0.931 . S
C477 C476 1.400 . S
C477 C478 1.375 . S
C478 C477 1.375 . S
C478 C479 1.421 . S
C478 C480 1.501 . S
C479 H470 0.935 1_455 S
C479 C475 1.356 1_455 S
C479 C478 1.421 . S
C480 C478 1.501 . S
C480 C481 1.384 . S
C480 C485 1.408 1_455 S
C481 H471 0.930 . S
C481 C480 1.384 . S
C481 C482 1.389 . S
C482 C481 1.389 . S
C482 C483 1.405 . S
C483 H472 0.930 . S
C483 C482 1.405 . S
C483 C484 1.364 1_455 S
C484 C483 1.364 1_655 S
C484 C485 1.400 . S
C485 H473 0.931 . S
C485 C480 1.408 1_655 S
C485 C484 1.400 . S
H486 C492 0.930 . S
H487 C495 0.931 . S
H488 C497 0.931 . S
H489 C499 0.930 . S
H490 C501 0.930 . S
H491 C503 0.931 . S
C492 H486 0.930 . S
C492 C493 1.380 . S
C492 C494 1.394 . S
C493 C492 1.380 . S
C493 C497 1.382 . S
C494 C492 1.394 . S
C494 C495 1.400 . S
C495 H487 0.931 . S
C495 C494 1.400 . S
C495 C496 1.375 . S
C496 C495 1.375 . S
C496 C497 1.415 . S
C496 C498 1.501 . S
C497 H488 0.931 . S
C497 C493 1.382 . S
C497 C496 1.415 . S
C498 C496 1.501 . S
C498 C499 1.384 . S
C498 C503 1.408 . S
C499 H489 0.930 . S
C499 C498 1.384 . S
C499 C500 1.389 . S
C500 C499 1.389 . S
C500 C501 1.405 . S
C501 H490 0.930 . S
C501 C500 1.405 . S
C501 C502 1.364 . S
C502 C501 1.364 . S
C502 C503 1.400 . S
C503 H491 0.931 . S
C503 C498 1.408 . S
C503 C502 1.400 . S
H504 C510 0.930 . S
H505 C513 0.931 . S
H506 C515 0.931 . S
H507 C517 0.930 . S
H508 C519 0.930 . S
H509 C521 0.931 . S
C510 H504 0.930 . S
C510 C511 1.380 . S
C510 C512 1.394 . S
C511 C510 1.380 . S
C511 C515 1.382 . S
C512 C510 1.394 . S
C512 C513 1.400 . S
C513 H505 0.931 . S
C513 C512 1.400 . S
C513 C514 1.375 . S
C514 C513 1.375 . S
C514 C515 1.415 . S
C514 C516 1.501 . S
C515 H506 0.931 . S
C515 C511 1.382 . S
C515 C514 1.415 . S
C516 C514 1.501 . S
C516 C517 1.384 . S
C516 C521 1.408 . S
C517 H507 0.930 . S
C517 C516 1.384 . S
C517 C518 1.389 . S
C518 C517 1.389 . S
C518 C519 1.405 . S
C519 H508 0.930 . S
C519 C518 1.405 . S
C519 C520 1.364 . S
C520 C519 1.364 . S
C520 C521 1.400 . S
C521 H509 0.931 . S
C521 C516 1.408 . S
C521 C520 1.400 . S
H522 C528 0.930 . S
H523 C531 0.931 . S
H524 C533 0.931 . S
H525 C535 0.930 . S
H526 C537 0.930 . S
H527 C539 0.931 . S
C528 H522 0.930 . S
C528 C529 1.380 . S
C528 C530 1.394 . S
C529 C528 1.380 . S
C529 C533 1.382 . S
C530 C528 1.394 . S
C530 C531 1.400 . S
C531 H523 0.931 . S
C531 C530 1.400 . S
C531 C532 1.375 . S
C532 C531 1.375 . S
C532 C533 1.415 . S
C532 C534 1.501 . S
C533 H524 0.931 . S
C533 C529 1.382 . S
C533 C532 1.415 . S
C534 C532 1.501 . S
C534 C535 1.384 . S
C534 C539 1.408 . S
C535 H525 0.930 . S
C535 C534 1.384 . S
C535 C536 1.389 . S
C536 C535 1.389 . S
C536 C537 1.405 . S
C537 H526 0.930 . S
C537 C536 1.405 . S
C537 C538 1.364 . S
C538 C537 1.364 . S
C538 C539 1.400 . S
C539 H527 0.931 . S
C539 C534 1.408 . S
C539 C538 1.400 . S
H540 C546 0.930 . S
H541 C549 0.931 . S
H542 C551 0.931 . S
H543 C553 0.930 . S
H544 C555 0.930 . S
H545 C557 0.931 . S
C546 H540 0.930 . S
C546 C547 1.380 . S
C546 C548 1.394 . S
C547 C546 1.380 . S
C547 C551 1.382 . S
C548 C546 1.394 . S
C548 C549 1.400 . S
C549 H541 0.931 . S
C549 C548 1.400 . S
C549 C550 1.375 . S
C550 C549 1.375 . S
C550 C551 1.415 . S
C550 C552 1.501 . S
C551 H542 0.931 . S
C551 C547 1.382 . S
C551 C550 1.415 . S
C552 C550 1.501 . S
C552 C553 1.384 . S
C552 C557 1.408 . S
C553 H543 0.930 . S
C553 C552 1.384 . S
C553 C554 1.389 . S
C554 C553 1.389 . S
C554 C555 1.405 . S
C555 H544 0.930 . S
C555 C554 1.405 . S
C555 C556 1.364 . S
C556 C555 1.364 . S
C556 C557 1.400 . S
C557 H545 0.931 . S
C557 C552 1.408 . S
C557 C556 1.400 . S
C10 C403 1.735 . S
C23 C428 1.743 . S
C439 C29 1.738 1_545 S
C30 C464 1.751 . S
C5 C482 1.771 1_655 S
C18 C493 1.735 . S
C49 C475 1.711 . S
C500 C62 1.701 . S
C457 C70 1.708 . S
C75 C446 1.706 1_545 S
C410 C44 1.719 . S
C57 C421 1.707 . S
C88 C511 1.735 . S
C101 C536 1.743 . S
C547 C107 1.738 . S
C108 C248 1.751 . S
C83 C266 1.768 . S
C96 C277 1.735 . S
C127 C259 1.705 . S
C140 C284 1.701 . S
C241 C146 1.709 . S
C554 C147 1.707 . S
C518 C122 1.719 . S
C529 C135 1.707 . S
C160 C295 1.735 . S
C173 C320 1.743 . S
C185 C331 1.738 . S
C186 C356 1.751 . S
C374 C159 1.768 . S
C385 C172 1.735 . S
C367 C205 1.706 . S
C392 C218 1.701 . S
C224 C349 1.709 . S
C338 C225 1.707 . S
C200 C302 1.719 . S
C313 C213 1.707 . S
C250 C4 1.400 . S
C17 C268 1.392 . S
C278 C31 1.431 . S
C296 C36 1.414 . S
C322 C3 1.412 . S
C332 C16 1.429 . S
C43 C340 1.392 . S
C56 C304 1.383 . S
C68 C314 1.403 . S
C69 C260 1.395 . S
C286 C42 1.400 . S
C55 C242 1.404 . S
C358 C82 1.400 . S
C95 C376 1.392 . S
C109 C386 1.431 . S
C404 C114 1.413 . S
C81 C430 1.412 . S
C94 C440 1.431 . S
C121 C448 1.405 . S
C134 C412 1.383 . S
C422 C148 1.404 . S
C153 C368 1.395 . S
C120 C394 1.400 . S
C350 C133 1.403 . S
C466 C166 1.400 . S
C179 C484 1.394 . S
C187 C494 1.431 . S
C512 C192 1.413 . S
C538 C161 1.412 . S
C174 C548 1.430 . S
C199 C556 1.391 . S
C212 C520 1.383 . S
C530 C226 1.404 . S
C476 C231 1.394 1_455 S
C502 C198 1.401 . S
C211 C458 1.403 . S
