# Generated by pormake.
# Topology zzz, (3,6)-cn, num edge types: 1
# Building blocks:
#     Node 0, Type 0, BuildingBlock: BETDAH_clean_linker_0, # of connection points: 3
#     Node 1, Type 0, BuildingBlock: BETDAH_clean_linker_0, # of connection points: 3
#     Node 2, Type 0, BuildingBlock: BETDAH_clean_linker_0, # of connection points: 3
#     Node 3, Type 0, BuildingBlock: BETDAH_clean_linker_0, # of connection points: 3
#     Node 4, Type 0, BuildingBlock: BETDAH_clean_linker_0, # of connection points: 3
#     Node 5, Type 0, BuildingBlock: BETDAH_clean_linker_0, # of connection points: 3
#     Node 6, Type 0, BuildingBlock: BETDAH_clean_linker_0, # of connection points: 3
#     Node 7, Type 0, BuildingBlock: BETDAH_clean_linker_0, # of connection points: 3
#     Node 8, Type 1, BuildingBlock: MIFKUJ_clean_sbu_0, # of connection points: 6
#     Node 9, Type 1, BuildingBlock: MIFKUJ_clean_sbu_0, # of connection points: 6
#     Node 10, Type 1, BuildingBlock: MIFKUJ_clean_sbu_0, # of connection points: 6
#     Node 11, Type 1, BuildingBlock: MIFKUJ_clean_sbu_0, # of connection points: 6
#     Edge 12, Type (0, 1), BuildingBlock: MIFKUJ_clean_linker_0, # of connection points: 2
#     Edge 13, Type (0, 1), BuildingBlock: MIFKUJ_clean_linker_0, # of connection points: 2
#     Edge 14, Type (0, 1), BuildingBlock: MIFKUJ_clean_linker_0, # of connection points: 2
#     Edge 15, Type (0, 1), BuildingBlock: MIFKUJ_clean_linker_0, # of connection points: 2
#     Edge 16, Type (0, 1), BuildingBlock: MIFKUJ_clean_linker_0, # of connection points: 2
#     Edge 17, Type (0, 1), BuildingBlock: MIFKUJ_clean_linker_0, # of connection points: 2
#     Edge 18, Type (0, 1), BuildingBlock: MIFKUJ_clean_linker_0, # of connection points: 2
#     Edge 19, Type (0, 1), BuildingBlock: MIFKUJ_clean_linker_0, # of connection points: 2
#     Edge 20, Type (0, 1), BuildingBlock: MIFKUJ_clean_linker_0, # of connection points: 2
#     Edge 21, Type (0, 1), BuildingBlock: MIFKUJ_clean_linker_0, # of connection points: 2
#     Edge 22, Type (0, 1), BuildingBlock: MIFKUJ_clean_linker_0, # of connection points: 2
#     Edge 23, Type (0, 1), BuildingBlock: MIFKUJ_clean_linker_0, # of connection points: 2
#     Edge 24, Type (0, 1), BuildingBlock: MIFKUJ_clean_linker_0, # of connection points: 2
#     Edge 25, Type (0, 1), BuildingBlock: MIFKUJ_clean_linker_0, # of connection points: 2
#     Edge 26, Type (0, 1), BuildingBlock: MIFKUJ_clean_linker_0, # of connection points: 2
#     Edge 27, Type (0, 1), BuildingBlock: MIFKUJ_clean_linker_0, # of connection points: 2
#     Edge 28, Type (0, 1), BuildingBlock: MIFKUJ_clean_linker_0, # of connection points: 2
#     Edge 29, Type (0, 1), BuildingBlock: MIFKUJ_clean_linker_0, # of connection points: 2
#     Edge 30, Type (0, 1), BuildingBlock: MIFKUJ_clean_linker_0, # of connection points: 2
#     Edge 31, Type (0, 1), BuildingBlock: MIFKUJ_clean_linker_0, # of connection points: 2
#     Edge 32, Type (0, 1), BuildingBlock: MIFKUJ_clean_linker_0, # of connection points: 2
#     Edge 33, Type (0, 1), BuildingBlock: MIFKUJ_clean_linker_0, # of connection points: 2
#     Edge 34, Type (0, 1), BuildingBlock: MIFKUJ_clean_linker_0, # of connection points: 2
#     Edge 35, Type (0, 1), BuildingBlock: MIFKUJ_clean_linker_0, # of connection points: 2
# Relax obj value: 0.115
# Max RMSD: 0.115
# Mean RMSD: 0.087
data_MOF--net-zzz--node1-MIFKUJ_clean_sbu_0--node2-BETDAH_clean_linker_0--edge1-MIFKUJ_clean_linker_0
_symmetry_space_group_name_H-M    P1
_symmetry_Int_Tables_number       1
_symmetry_cell_setting            triclinic
loop_
_symmetry_equiv_pos_as_xyz
'x, y, z'
_cell_length_a     66.057234
_cell_length_b     66.025548
_cell_length_c     20.525798
_cell_angle_alpha  90.030013
_cell_angle_beta   89.964012
_cell_angle_gamma 89.9909
loop_
_atom_site_label
_atom_site_type_symbol
_atom_site_fract_x
_atom_site_fract_y
_atom_site_fract_z
_atom_type_partial_charge
H0 H 0.7999 0.53027 0.09657 0.0
H1 H 0.73988 0.51614 0.03315 0.0
H2 H 0.75091 0.53171 0.2345 0.0
C3 C 0.78385 0.52916 0.10745 0.0
C4 C 0.77708 0.53218 0.17124 0.0
C5 C 0.77055 0.52339 0.05801 0.0
C6 C 0.74996 0.52088 0.07172 0.0
C7 C 0.74266 0.52428 0.13542 0.0
C8 C 0.75638 0.52957 0.18519 0.0
N9 N 0.72179 0.52219 0.15122 0.0
C10 C 0.70653 0.51917 0.10537 0.0
H11 H 0.99599 0.79794 0.07125 0.0
H12 H 0.98846 0.73775 0.99724 0.0
H13 H 0.98173 0.74944 0.20338 0.0
C14 C 0.99295 0.78203 0.08022 0.0
C15 C 0.98914 0.77537 0.14377 0.0
C16 C 0.9926 0.76855 0.02774 0.0
C17 C 0.98864 0.74801 0.03841 0.0
C18 C 0.9847 0.74096 0.10206 0.0
C19 C 0.98472 0.7548 0.15441 0.0
N20 N 0.98077 0.72016 0.11488 0.0
C21 C 0.98211 0.70501 0.0678 0.0
H22 H 0.70169 0.97997 0.06916 0.0
H23 H 0.76165 0.99051 0.99725 0.0
H24 H 0.74907 0.9968 0.20223 0.0
C25 C 0.71739 0.98364 0.07874 0.0
C26 C 0.72338 0.98856 0.14234 0.0
C27 C 0.73093 0.98473 0.02621 0.0
C28 C 0.75128 0.98941 0.03799 0.0
C29 C 0.758 0.99305 0.10214 0.0
C30 C 0.74395 0.9929 0.15371 0.0
N31 N 0.77856 0.99766 0.11624 0.0
C32 C 0.794 0.99756 0.07009 0.0
H33 H 0.495 0.70871 0.0865 0.0
H34 H 0.50696 0.76776 0.0105 0.0
H35 H 0.51739 0.75517 0.2144 0.0
C36 C 0.49959 0.72424 0.09499 0.0
C37 C 0.50582 0.73022 0.15722 0.0
C38 C 0.49999 0.73765 0.04248 0.0
C39 C 0.50656 0.75757 0.05176 0.0
C40 C 0.51266 0.76409 0.11425 0.0
C41 C 0.51256 0.75024 0.16652 0.0
N42 N 0.51896 0.78437 0.12596 0.0
C43 C 0.51733 0.79982 0.0801 0.0
H44 H 0.21001 0.49892 0.10119 0.0
H45 H 0.2691 0.49612 0.1875 0.0
H46 H 0.26106 0.48228 0.98332 0.0
C47 C 0.22616 0.49628 0.09643 0.0
C48 C 0.234 0.49018 0.0364 0.0
C49 C 0.23872 0.49852 0.15077 0.0
C50 C 0.25953 0.49468 0.14497 0.0
C51 C 0.26777 0.48904 0.08408 0.0
C52 C 0.25487 0.48685 0.02998 0.0
N53 N 0.28878 0.48523 0.07555 0.0
C54 C 0.30326 0.48702 0.12447 0.0
H55 H 0.02861 0.20287 0.09523 0.0
H56 H 0.01726 0.26065 0.18416 0.0
H57 H 0.03481 0.25716 0.98191 0.0
C58 C 0.02849 0.21927 0.09224 0.0
C59 C 0.03293 0.2286 0.03268 0.0
C60 C 0.0227 0.23065 0.14684 0.0
C61 C 0.02169 0.25184 0.14196 0.0
C62 C 0.02636 0.26153 0.08257 0.0
C63 C 0.03162 0.24977 0.02793 0.0
N64 N 0.02572 0.28295 0.07586 0.0
C65 C 0.02302 0.2964 0.12743 0.0
H66 H 0.29805 0.00513 0.09694 0.0
H67 H 0.24113 0.01492 0.19305 0.0
H68 H 0.2479 0.02899 0.98867 0.0
C69 C 0.28225 0.00959 0.09492 0.0
C70 C 0.27437 0.01706 0.03662 0.0
C71 C 0.27036 0.00877 0.15133 0.0
C72 C 0.25013 0.0152 0.14897 0.0
C73 C 0.24178 0.02219 0.0898 0.0
C74 C 0.25408 0.02322 0.03389 0.0
N75 N 0.22131 0.02868 0.08498 0.0
C76 C 0.20711 0.02717 0.13493 0.0
H77 H 0.48406 0.30158 0.1269 0.0
H78 H 0.49944 0.24274 0.19896 0.0
H79 H 0.49037 0.25204 0.99274 0.0
C80 C 0.4863 0.28555 0.11782 0.0
C81 C 0.48621 0.27838 0.05378 0.0
C82 C 0.4913 0.27289 0.16987 0.0
C83 C 0.49522 0.25235 0.15848 0.0
C84 C 0.49425 0.24457 0.09449 0.0
C85 C 0.49027 0.25779 0.0422 0.0
N86 N 0.49786 0.22376 0.08091 0.0
C87 C 0.49911 0.20883 0.12861 0.0
Zn88 Zn 0.99488 0.02439 0.57469 0.0
Zn89 Zn 0.00791 0.98085 0.62697 0.0
C90 C 0.9938 0.05137 0.67669 0.0
O91 O 0.97499 0.05042 0.65614 0.0
C92 C 0.00971 0.95583 0.51755 0.0
O93 O 0.02882 0.95769 0.53423 0.0
O94 O 0.98682 0.04899 0.52281 0.0
O95 O 0.0166 0.01097 0.5207 0.0
O96 O 0.03291 0.99682 0.60197 0.0
C97 C 0.0014 0.06146 0.51701 0.0
O98 O 0.01953 0.0559 0.53642 0.0
O99 O 0.00646 0.03856 0.65436 0.0
C100 C 0.00166 0.94468 0.68953 0.0
O101 O 0.98337 0.95063 0.67317 0.0
O102 O 0.01651 0.95645 0.67851 0.0
O103 O 0.98576 0.99399 0.68067 0.0
O104 O 0.96967 0.00906 0.60049 0.0
O105 O 0.99658 0.96652 0.54727 0.0
C106 C 0.03309 0.00497 0.54593 0.0
C107 C 0.96945 1.0009 0.65652 0.0
Zn108 Zn 0.4844 0.99757 0.57155 0.0
Zn109 Zn 0.52081 0.01296 0.6544 0.0
C110 C 0.45447 0.9927 0.66384 0.0
O111 O 0.4563 0.97489 0.63582 0.0
C112 C 0.55589 0.01597 0.57968 0.0
O113 O 0.55427 0.0339 0.60702 0.0
O114 O 0.46224 0.99061 0.50769 0.0
O115 O 0.49962 0.0203 0.52787 0.0
O116 O 0.50656 0.03743 0.61668 0.0
C117 C 0.45111 0.00612 0.49885 0.0
O118 O 0.45676 0.02344 0.52466 0.0
O119 O 0.46692 0.00662 0.6481 0.0
C120 C 0.54747 0.00892 0.76061 0.0
O121 O 0.54048 0.99034 0.75699 0.0
O122 O 0.53924 0.02258 0.72606 0.0
O123 O 0.50485 0.98936 0.69147 0.0
O124 O 0.5 0.97278 0.60003 0.0
O125 O 0.54169 0.00318 0.58832 0.0
C126 C 0.50291 0.0371 0.55595 0.0
C127 C 0.50315 0.97265 0.66112 0.0
Zn128 Zn 0.51536 0.48428 0.57648 0.0
Zn129 Zn 0.49781 0.52386 0.63636 0.0
C130 C 0.51677 0.45764 0.68398 0.0
O131 O 0.53615 0.46 0.67166 0.0
C132 C 0.49571 0.54794 0.525 0.0
O133 O 0.47661 0.54565 0.54129 0.0
O134 O 0.52699 0.46202 0.52104 0.0
O135 O 0.49229 0.49649 0.52472 0.0
O136 O 0.47424 0.50627 0.60888 0.0
C137 C 0.52222 0.45918 0.4618 0.0
O138 O 0.51145 0.47295 0.43134 0.0
O139 O 0.50397 0.46786 0.65128 0.0
C140 C 0.50143 0.56119 0.6939 0.0
O141 O 0.51992 0.55668 0.67514 0.0
O142 O 0.48756 0.548 0.68653 0.0
O143 O 0.51982 0.51177 0.69243 0.0
O144 O 0.53844 0.50154 0.61019 0.0
O145 O 0.50912 0.53817 0.55656 0.0
C146 C 0.47512 0.49992 0.55048 0.0
C147 C 0.53707 0.50741 0.66902 0.0
Zn148 Zn 0.02484 0.50623 0.57236 0.0
Zn149 Zn 0.98233 0.49396 0.63715 0.0
C150 C 0.05297 0.5122 0.66925 0.0
O151 O 0.05127 0.52987 0.64032 0.0
C152 C 0.95255 0.49399 0.54208 0.0
O153 O 0.95089 0.47607 0.56939 0.0
O154 O 0.04812 0.51279 0.51225 0.0
O155 O 0.01134 0.4824 0.52815 0.0
O156 O 0.99538 0.46763 0.60957 0.0
C157 C 0.05977 0.49749 0.50711 0.0
O158 O 0.0543 0.4804 0.53477 0.0
O159 O 0.04079 0.49812 0.65288 0.0
C160 C 0.94923 0.50408 0.71256 0.0
O161 O 0.95523 0.52147 0.68813 0.0
O162 O 0.95952 0.48826 0.69994 0.0
O163 O 0.99886 0.51552 0.68232 0.0
O164 O 0.00877 0.53148 0.59427 0.0
O165 O 0.96709 0.50542 0.55953 0.0
C166 C 0.00388 0.46661 0.5541 0.0
C167 C 0.00259 0.53203 0.65291 0.0
H168 H 0.20917 0.01096 0.25607 0.0
H169 H 0.1813 0.00802 0.33489 0.0
H170 H 0.14109 0.03733 0.19864 0.0
H171 H 0.16904 0.04055 0.12055 0.0
H172 H 0.13481 0.05137 0.31961 0.0
H173 H 0.14139 0.9856 0.21832 0.0
H174 H 0.15957 0.95459 0.18557 0.0
H175 H 0.17237 0.94128 0.38612 0.0
H176 H 0.15447 0.97237 0.42 0.0
H177 H 0.0382 0.02201 0.42595 0.0
H178 H 0.06953 0.02594 0.36458 0.0
H179 H 0.10283 0.9971 0.51959 0.0
H180 H 0.07132 0.99276 0.58132 0.0
H181 H 0.11469 0.98342 0.40007 0.0
H182 H 0.10434 0.04736 0.50187 0.0
H183 H 0.08413 0.07712 0.53352 0.0
H184 H 0.07795 0.094 0.33255 0.0
H185 H 0.09761 0.06392 0.29943 0.0
C186 C 0.19438 0.01685 0.2434 0.0
C187 C 0.19108 0.02593 0.18261 0.0
C188 C 0.17847 0.01512 0.28822 0.0
C189 C 0.15901 0.02228 0.27248 0.0
C190 C 0.15594 0.03173 0.21197 0.0
C191 C 0.17184 0.03349 0.16734 0.0
C192 C 0.14167 0.01947 0.31795 0.0
C193 C 0.13033 0.0365 0.33683 0.0
C194 C 0.1361 1.00013 0.3419 0.0
C195 C 0.1468 0.98142 0.32162 0.0
C196 C 0.14822 0.97614 0.25538 0.0
C197 C 0.15845 0.95854 0.23663 0.0
C198 C 0.16718 0.94601 0.28372 0.0
C199 C 0.16564 0.95102 0.34969 0.0
C200 C 0.15544 0.96862 0.3687 0.0
C201 C 0.05216 0.01644 0.4472 0.0
C202 C 0.05225 0.00714 0.50883 0.0
C203 C 0.07009 0.01879 0.41202 0.0
C204 C 0.08858 0.01209 0.43785 0.0
C205 C 0.08873 0.00246 0.49884 0.0
C206 C 0.07073 1.00006 0.53418 0.0
C207 C 0.10766 0.01526 0.40079 0.0
C208 C 0.11931 0.99832 0.38353 0.0
C209 C 0.1135 0.03468 0.37836 0.0
C210 C 0.10236 0.05327 0.39812 0.0
C211 C 0.0986 0.05735 0.46434 0.0
C212 C 0.08723 0.07429 0.48257 0.0
C213 C 0.07978 0.08748 0.43511 0.0
C214 C 0.08373 0.08377 0.36928 0.0
C215 C 0.09498 0.06676 0.35073 0.0
H216 H 0.07094 0.10057 0.44935 0.0
H217 H 0.17509 0.93238 0.2691 0.0
H218 H 0.48702 0.17046 0.11 0.0
H219 H 0.48763 0.14278 0.18957 0.0
H220 H 0.51305 0.18323 0.33316 0.0
H221 H 0.51275 0.21086 0.2528 0.0
H222 H 0.53189 0.14706 0.33553 0.0
H223 H 0.46322 0.1698 0.33974 0.0
H224 H 0.43011 0.17945 0.29387 0.0
H225 H 0.42266 0.11952 0.21618 0.0
H226 H 0.45587 0.10958 0.2608 0.0
H227 H 0.51417 0.0755 0.59349 0.0
H228 H 0.51346 0.10644 0.5273 0.0
H229 H 0.48994 0.07235 0.36481 0.0
H230 H 0.49046 0.04158 0.43026 0.0
H231 H 0.4696 0.10757 0.38143 0.0
H232 H 0.53921 0.08567 0.37071 0.0
H233 H 0.57221 0.07582 0.41705 0.0
H234 H 0.57764 0.13416 0.5079 0.0
H235 H 0.54451 0.14426 0.46287 0.0
C236 C 0.49273 0.17336 0.1586 0.0
C237 C 0.49974 0.19265 0.17581 0.0
C238 C 0.493 0.15762 0.20409 0.0
C239 C 0.50011 0.16098 0.26774 0.0
C240 C 0.50743 0.18029 0.2845 0.0
C241 C 0.50719 0.19605 0.23881 0.0
C242 C 0.49994 0.14428 0.31636 0.0
C243 C 0.51819 0.13865 0.34644 0.0
C244 C 0.48214 0.13309 0.32998 0.0
C245 C 0.46212 0.139 0.30318 0.0
C246 C 0.45459 0.15872 0.31246 0.0
C247 C 0.43579 0.16424 0.28674 0.0
C248 C 0.42431 0.15012 0.25201 0.0
C249 C 0.43158 0.13044 0.24304 0.0
C250 C 0.45039 0.12485 0.2686 0.0
C251 C 0.50881 0.07462 0.5437 0.0
C252 C 0.50244 0.05604 0.51714 0.0
C253 C 0.50849 0.09229 0.50588 0.0
C254 C 0.50177 0.09168 0.44094 0.0
C255 C 0.49517 0.0732 0.41477 0.0
C256 C 0.49558 0.05558 0.45227 0.0
C257 C 0.50159 0.11015 0.39961 0.0
C258 C 0.48325 0.11611 0.37097 0.0
C259 C 0.51929 0.12162 0.3874 0.0
C260 C 0.53928 0.11564 0.41405 0.0
C261 C 0.54737 0.09634 0.40101 0.0
C262 C 0.5661 0.09072 0.42696 0.0
C263 C 0.57699 0.10434 0.46555 0.0
C264 C 0.56918 0.12362 0.4781 0.0
C265 C 0.55042 0.1293 0.45236 0.0
H266 H 0.59149 0.09996 0.4856 0.0
H267 H 0.40976 0.15442 0.23215 0.0
H268 H 0.34293 0.48779 0.09712 0.0
H269 H 0.37103 0.48953 0.17493 0.0
H270 H 0.32838 0.49099 0.33425 0.0
H271 H 0.3002 0.4894 0.25598 0.0
H272 H 0.3591 0.51865 0.35037 0.0
H273 H 0.35348 0.44784 0.29986 0.0
H274 H 0.35143 0.41802 0.22778 0.0
H275 H 0.40989 0.4321 0.14823 0.0
H276 H 0.41217 0.46218 0.21921 0.0
H277 H 0.43552 0.50201 0.59084 0.0
H278 H 0.40505 0.49918 0.52351 0.0
H279 H 0.44224 0.49172 0.35226 0.0
H280 H 0.4726 0.49396 0.41919 0.0
H281 H 0.41256 0.46587 0.34838 0.0
H282 H 0.41792 0.53726 0.39137 0.0
H283 H 0.42065 0.56767 0.46059 0.0
H284 H 0.36365 0.55349 0.55037 0.0
H285 H 0.36073 0.52281 0.48229 0.0
C286 C 0.33963 0.48852 0.1488 0.0
C287 C 0.31957 0.48843 0.17098 0.0
C288 C 0.35564 0.48943 0.19317 0.0
C289 C 0.35182 0.49014 0.26051 0.0
C290 C 0.33167 0.49041 0.28257 0.0
C291 C 0.31563 0.48946 0.23803 0.0
C292 C 0.36894 0.49054 0.30752 0.0
C293 C 0.37063 0.50695 0.35073 0.0
C294 C 0.38421 0.4755 0.30702 0.0
C295 C 0.38292 0.45736 0.26451 0.0
C296 C 0.36584 0.44466 0.26667 0.0
C297 C 0.36464 0.4277 0.22605 0.0
C298 C 0.3805 0.42319 0.18335 0.0
C299 C 0.39761 0.43562 0.18129 0.0
C300 C 0.39887 0.45261 0.22175 0.0
C301 C 0.43719 0.49975 0.53884 0.0
C302 C 0.45651 0.49822 0.51045 0.0
C303 C 0.41975 0.49823 0.50033 0.0
C304 C 0.42131 0.49546 0.43257 0.0
C305 C 0.4406 0.49381 0.40436 0.0
C306 C 0.45799 0.49514 0.44279 0.0
C307 C 0.40296 0.49416 0.39067 0.0
C308 C 0.40099 0.47754 0.34842 0.0
C309 C 0.38756 0.50911 0.39166 0.0
C310 C 0.38921 0.52763 0.43223 0.0
C311 C 0.40604 0.54055 0.4262 0.0
C312 C 0.40761 0.55785 0.46519 0.0
C313 C 0.39236 0.56248 0.50998 0.0
C314 C 0.37547 0.54986 0.51573 0.0
C315 C 0.37384 0.53252 0.47694 0.0
H316 H 0.3936 0.57588 0.54012 0.0
H317 H 0.37955 0.41005 0.15195 0.0
H318 H 0.99504 0.29733 0.22379 0.0
H319 H 0.9909 0.3239 0.30687 0.0
H320 H 0.04197 0.35606 0.22605 0.0
H321 H 0.0462 0.32938 0.14393 0.0
H322 H 0.04382 0.35661 0.35509 0.0
H323 H 0.99304 0.37038 0.19371 0.0
H324 H 0.9637 0.36292 0.12349 0.0
H325 H 0.92707 0.35166 0.29255 0.0
H326 H 0.9563 0.35881 0.3638 0.0
H327 H 0.02825 0.45777 0.45092 0.0
H328 H 0.0305 0.42619 0.38999 0.0
H329 H 0.98473 0.39965 0.51304 0.0
H330 H 0.98248 0.43141 0.57539 0.0
H331 H 0.97875 0.39368 0.37503 0.0
H332 H 0.03034 0.3843 0.53598 0.0
H333 H 0.05998 0.39451 0.60116 0.0
H334 H 0.09558 0.39984 0.42694 0.0
H335 H 0.06607 0.38994 0.36057 0.0
C336 C 0.00538 0.31007 0.22431 0.0
C337 C 0.02089 0.3115 0.17792 0.0
C338 C 0.00299 0.32525 0.27145 0.0
C339 C 0.01601 0.34212 0.27242 0.0
C340 C 0.03176 0.34322 0.22646 0.0
C341 C 0.03414 0.32805 0.17951 0.0
C342 C 0.01313 0.35885 0.32024 0.0
C343 C 0.02961 0.36474 0.35916 0.0
C344 C 0.99448 0.36928 0.32672 0.0
C345 C 0.97692 0.36486 0.28404 0.0
C346 C 0.97878 0.36612 0.21589 0.0
C347 C 0.96216 0.36199 0.17591 0.0
C348 C 0.94355 0.35675 0.20354 0.0
C349 C 0.94151 0.35568 0.27122 0.0
C350 C 0.95809 0.35977 0.31142 0.0
C351 C 0.01867 0.44525 0.46542 0.0
C352 C 0.00521 0.44712 0.51828 0.0
C353 C 0.02003 0.42716 0.43053 0.0
C354 C 0.0079 0.41053 0.44726 0.0
C355 C 0.99427 0.41232 0.49953 0.0
C356 C 0.99307 0.43041 0.53521 0.0
C357 C 0.00948 0.3915 0.40898 0.0
C358 C 0.99282 0.38525 0.37175 0.0
C359 C 0.02802 0.38091 0.40343 0.0
C360 C 0.04594 0.3865 0.44325 0.0
C361 C 0.04446 0.38777 0.51151 0.0
C362 C 0.06124 0.39348 0.54868 0.0
C363 C 0.07964 0.39786 0.5182 0.0
C364 C 0.08132 0.39645 0.45049 0.0
C365 C 0.06457 0.39075 0.41307 0.0
H366 H 0.09261 0.4023 0.54706 0.0
H367 H 0.93069 0.35357 0.17251 0.0
H368 H 0.8303 0.98012 0.08807 0.0
H369 H 0.85933 0.98091 0.01352 0.0
H370 H 0.82436 0.01597 0.87634 0.0
H371 H 0.79518 0.01488 0.9509 0.0
H372 H 0.84619 0.98689 0.81491 0.0
H373 H 0.85946 0.03883 0.97207 0.0
H374 H 0.86336 0.05334 0.08205 0.0
H375 H 0.91174 0.01175 0.12213 0.0
H376 H 0.90795 0.99679 0.01264 0.0
H377 H 0.93241 0.01739 0.62659 0.0
H378 H 0.90165 0.01697 0.69325 0.0
H379 H 0.93284 0.98245 0.84064 0.0
H380 H 0.96361 0.98298 0.77494 0.0
H381 H 0.91218 0.01292 0.89419 0.0
H382 H 0.89829 0.96038 0.73801 0.0
H383 H 0.89442 0.9459 0.62795 0.0
H384 H 0.84733 0.98876 0.58572 0.0
H385 H 0.85112 0.00369 0.6953 0.0
C386 C 0.82887 0.9879 0.04182 0.0
C387 C 0.81073 0.99751 0.02486 0.0
C388 C 0.84544 0.98843 0.99943 0.0
C389 C 0.84414 0.99875 0.93967 0.0
C390 C 0.82574 0.00797 0.9222 0.0
C391 C 0.80914 0.00741 0.96469 0.0
C392 C 0.86208 1.00009 0.89607 0.0
C393 C 0.86054 0.99285 0.83191 0.0
C394 C 0.88092 0.00756 0.91853 0.0
C395 C 0.88329 0.01657 0.98435 0.0
C396 C 0.87083 0.03267 0.0045 0.0
C397 C 0.87304 0.041 0.06673 0.0
C398 C 0.88776 0.03344 0.10911 0.0
C399 C 0.90033 0.01757 0.08928 0.0
C400 C 0.89817 0.00918 0.02712 0.0
C401 C 0.93269 0.00962 0.67307 0.0
C402 C 0.95051 1.00023 0.69539 0.0
C403 C 0.91507 0.00935 0.71103 0.0
C404 C 0.91487 0.99956 0.77182 0.0
C405 C 0.93262 0.99013 0.794 0.0
C406 C 0.95021 0.99042 0.75623 0.0
C407 C 0.89639 0.99946 0.81326 0.0
C408 C 0.89782 0.007 0.87706 0.0
C409 C 0.87748 0.99228 0.7904 0.0
C410 C 0.87514 0.98329 0.7246 0.0
C411 C 0.88722 0.96682 0.70507 0.0
C412 C 0.88503 0.95852 0.64281 0.0
C413 C 0.87068 0.96644 0.59981 0.0
C414 C 0.85846 0.98266 0.61905 0.0
C415 C 0.86062 0.99104 0.68124 0.0
H416 H 0.869 0.95999 0.55163 0.0
H417 H 0.88944 0.03991 0.15726 0.0
H418 H 0.52305 0.79779 0.94991 0.0
H419 H 0.51935 0.82557 0.87122 0.0
H420 H 0.50357 0.86626 0.02796 0.0
H421 H 0.5069 0.83835 0.10622 0.0
H422 H 0.4792 0.87223 0.92701 0.0
H423 H 0.55102 0.86633 0.95826 0.0
H424 H 0.58408 0.84898 0.96071 0.0
H425 H 0.57855 0.83485 0.75727 0.0
H426 H 0.54532 0.85189 0.75383 0.0
H427 H 0.50041 0.96806 0.7926 0.0
H428 H 0.50151 0.93676 0.85534 0.0
H429 H 0.50803 0.9023 0.67808 0.0
H430 H 0.50682 0.93378 0.61426 0.0
H431 H 0.53563 0.89129 0.77958 0.0
H432 H 0.46457 0.90109 0.74863 0.0
H433 H 0.43298 0.92098 0.74884 0.0
H434 H 0.43807 0.92958 0.95553 0.0
H435 H 0.46993 0.91008 0.9564 0.0
C436 C 0.51877 0.81269 0.96722 0.0
C437 C 0.51529 0.81612 0.03368 0.0
C438 C 0.51673 0.82855 0.92242 0.0
C439 C 0.51136 0.84809 0.94366 0.0
C440 C 0.5077 0.85135 0.01034 0.0
C441 C 0.50968 0.83548 0.05501 0.0
C442 C 0.50965 0.8652 0.89676 0.0
C443 C 0.4916 0.87646 0.89514 0.0
C444 C 0.52565 0.8705 0.85398 0.0
C445 C 0.54557 0.86016 0.85599 0.0
C446 C 0.55677 0.85936 0.91419 0.0
C447 C 0.57556 0.84962 0.91573 0.0
C448 C 0.58338 0.84076 0.85923 0.0
C449 C 0.57245 0.84168 0.80103 0.0
C450 C 0.55365 0.85138 0.79925 0.0
C451 C 0.50204 0.95386 0.76669 0.0
C452 C 0.50349 0.95342 0.69831 0.0
C453 C 0.50261 0.93597 0.80273 0.0
C454 C 0.50471 0.91722 0.77135 0.0
C455 C 0.50635 0.91665 0.70315 0.0
C456 C 0.50557 0.93461 0.66681 0.0
C457 C 0.50532 0.89836 0.81057 0.0
C458 C 0.52315 0.88683 0.81082 0.0
C459 C 0.4892 0.89293 0.8525 0.0
C460 C 0.46975 0.90423 0.85249 0.0
C461 C 0.45903 0.90732 0.79409 0.0
C462 C 0.44107 0.91853 0.79401 0.0
C463 C 0.43354 0.92657 0.85214 0.0
C464 C 0.44393 0.92335 0.91052 0.0
C465 C 0.46194 0.91221 0.91084 0.0
H466 H 0.41965 0.93527 0.85195 0.0
H467 H 0.59793 0.83324 0.8605 0.0
H468 H 0.709 0.51114 0.97613 0.0
H469 H 0.68071 0.50762 0.89965 0.0
H470 H 0.63846 0.51808 0.05659 0.0
H471 H 0.66682 0.52137 0.13322 0.0
H472 H 0.62572 0.48757 0.97921 0.0
H473 H 0.65006 0.55554 0.94882 0.0
H474 H 0.67561 0.58188 0.92666 0.0
H475 H 0.68744 0.55563 0.739 0.0
H476 H 0.66213 0.52896 0.76042 0.0
H477 H 0.53839 0.51455 0.79999 0.0
H478 H 0.56795 0.51472 0.87112 0.0
H479 H 0.60644 0.50141 0.70684 0.0
H480 H 0.57682 0.5012 0.63487 0.0
H481 H 0.62178 0.5319 0.78438 0.0
H482 H 0.59737 0.46418 0.81389 0.0
H483 H 0.57174 0.43787 0.83526 0.0
H484 H 0.55946 0.46403 0.02271 0.0
H485 H 0.58518 0.49045 0.0026 0.0
C486 C 0.69367 0.51264 0.99417 0.0
C487 C 0.68996 0.51659 0.06021 0.0
C488 C 0.67752 0.51068 0.95049 0.0
C489 C 0.65743 0.5128 0.9722 0.0
C490 C 0.65379 0.51639 0.03868 0.0
C491 C 0.66995 0.51833 0.08231 0.0
C492 C 0.64023 0.51159 0.92558 0.0
C493 C 0.62477 0.49742 0.93701 0.0
C494 C 0.63918 0.52408 0.86957 0.0
C495 C 0.65437 0.54013 0.85652 0.0
C496 C 0.65823 0.55529 0.90304 0.0
C497 C 0.67265 0.5703 0.89058 0.0
C498 C 0.68319 0.5704 0.83154 0.0
C499 C 0.67929 0.55552 0.78476 0.0
C500 C 0.6649 0.54046 0.79701 0.0
C501 C 0.5531 0.51165 0.7788 0.0
C502 C 0.5552 0.50784 0.71166 0.0
C503 C 0.57001 0.51165 0.81966 0.0
C504 C 0.58938 0.50785 0.79443 0.0
C505 C 0.59161 0.5043 0.72733 0.0
C506 C 0.57466 0.50417 0.68637 0.0
C507 C 0.60728 0.50797 0.83822 0.0
C508 C 0.62283 0.52196 0.82635 0.0
C509 C 0.60841 0.49533 0.89378 0.0
C510 C 0.59307 0.47939 0.90649 0.0
C511 C 0.58913 0.46438 0.85953 0.0
C512 C 0.5746 0.44944 0.87145 0.0
C513 C 0.56385 0.44936 0.93009 0.0
C514 C 0.56777 0.46413 0.97723 0.0
C515 C 0.58238 0.47905 0.96573 0.0
H516 H 0.55255 0.43782 0.93908 0.0
H517 H 0.69434 0.58203 0.82197 0.0
H518 H 0.00784 0.67342 0.07029 0.0
H519 H 0.01072 0.64622 0.98928 0.0
H520 H 0.9632 0.67389 0.87575 0.0
H521 H 0.96023 0.70101 0.95748 0.0
H522 H 0.95749 0.63392 0.88368 0.0
H523 H 0.01223 0.67733 0.82679 0.0
H524 H 0.04278 0.698 0.84511 0.0
H525 H 0.07541 0.64509 0.9064 0.0
H526 H 0.04495 0.62413 0.88935 0.0
H527 H 0.01211 0.57049 0.61103 0.0
H528 H 0.00763 0.60238 0.67097 0.0
H529 H 0.98329 0.56934 0.8344 0.0
H530 H 0.98754 0.53766 0.77526 0.0
H531 H 0.02361 0.61549 0.78511 0.0
H532 H 0.94619 0.59645 0.90602 0.0
H533 H 0.91522 0.5772 0.87997 0.0
H534 H 0.92687 0.58447 0.67555 0.0
H535 H 0.95774 0.604 0.70027 0.0
C536 C 0.99808 0.67364 0.02789 0.0
C537 C 0.98385 0.68915 0.01961 0.0
C538 C 0.99977 0.65819 0.98153 0.0
C539 C 0.98733 0.6581 0.92595 0.0
C540 C 0.97298 0.67364 0.9181 0.0
C541 C 0.9713 0.68911 0.96455 0.0
C542 C 0.98912 0.64158 0.87685 0.0
C543 C 0.97193 0.62995 0.86198 0.0
C544 C 0.00786 0.63666 0.84714 0.0
C545 C 0.02625 0.64918 0.85724 0.0
C546 C 0.02587 0.67012 0.84462 0.0
C547 C 0.04318 0.68188 0.85471 0.0
C548 C 0.06101 0.67287 0.87702 0.0
C549 C 0.06158 0.65205 0.88916 0.0
C550 C 0.0443 0.64022 0.87922 0.0
C551 C 0.00575 0.57005 0.65966 0.0
C552 C 1.00013 0.55151 0.68818 0.0
C553 C 0.00325 0.58827 0.69389 0.0
C554 C 0.99489 0.58828 0.75688 0.0
C555 C 0.98945 0.56977 0.78549 0.0
C556 C 0.992 0.55163 0.75159 0.0
C557 C 0.99214 0.60747 0.79378 0.0
C558 C 0.00914 0.61958 0.80641 0.0
C559 C 0.97315 0.61306 0.82041 0.0
C560 C 0.95438 0.6016 0.80509 0.0
C561 C 0.94209 0.59406 0.85551 0.0
C562 C 0.92455 0.58307 0.84097 0.0
C563 C 0.91908 0.57963 0.77615 0.0
C564 C 0.93114 0.58714 0.72573 0.0
C565 C 0.94867 0.59814 0.73999 0.0
H566 H 0.9055 0.57114 0.76498 0.0
H567 H 0.0744 0.682 0.8848 0.0
H568 H 0.04328 0.20031 0.20665 0.0
H569 H 0.03082 0.17784 0.29217 0.0
H570 H 0.97657 0.21374 0.30943 0.0
H571 H 0.98878 0.23617 0.22204 0.0
H572 H 0.00809 0.19164 0.43545 0.0
H573 H 0.95459 0.18486 0.27228 0.0
H574 H 0.93984 0.18211 0.16221 0.0
H575 H 0.98088 0.1337 0.11649 0.0
H576 H 0.99606 0.13638 0.22608 0.0
H577 H 0.96566 0.07928 0.48 0.0
H578 H 0.96059 0.11438 0.44483 0.0
H579 H 0.02423 0.12631 0.47296 0.0
H580 H 0.02936 0.09153 0.50803 0.0
H581 H 0.97555 0.13057 0.3413 0.0
H582 H 0.03334 0.17516 0.50854 0.0
H583 H 0.04142 0.1785 0.62533 0.0
H584 H 0.98402 0.15238 0.67564 0.0
H585 H 0.97542 0.1491 0.55932 0.0
C586 C 0.02882 0.20361 0.22925 0.0
C587 C 0.01688 0.21983 0.20725 0.0
C588 C 0.02177 0.19081 0.27814 0.0
C589 C 0.00272 0.19405 0.30625 0.0
C590 C 0.99127 0.21099 0.28777 0.0
C591 C 0.99832 0.22384 0.23836 0.0
C592 C 0.99457 0.1784 0.35027 0.0
C593 C 1.00069 0.17833 0.41566 0.0
C594 C 0.98432 0.16144 0.3246 0.0
C595 C 0.97659 0.16099 0.25695 0.0
C596 C 0.96073 0.17391 0.23828 0.0
C597 C 0.95219 0.17225 0.17621 0.0
C598 C 0.9593 0.15762 0.13266 0.0
C599 C 0.97529 0.14492 0.15049 0.0
C600 C 0.98389 0.14654 0.21248 0.0
C601 C 0.97853 0.08944 0.47899 0.0
C602 C 0.99795 0.08257 0.49599 0.0
C603 C 0.97558 0.10953 0.45946 0.0
C604 C 0.99196 0.12308 0.45716 0.0
C605 C 0.01125 0.11632 0.47576 0.0
C606 C 0.01421 0.0963 0.49496 0.0
C607 C 0.98979 0.14329 0.42649 0.0
C608 C 0.98218 0.14404 0.36282 0.0
C609 C 0.99805 0.16103 0.4548 0.0
C610 C 0.00372 0.16191 0.52488 0.0
C611 C 0.0224 0.17016 0.54441 0.0
C612 C 0.02706 0.17207 0.61059 0.0
C613 C 0.01315 0.16584 0.65778 0.0
C614 C 0.99473 0.15728 0.63897 0.0
C615 C 0.98999 0.15532 0.57289 0.0
H616 H 0.01664 0.16762 0.70891 0.0
H617 H 0.95245 0.15612 0.08503 0.0
H618 H 0.27441 0.03222 0.25896 0.0
H619 H 0.30126 0.02869 0.34042 0.0
H620 H 0.31687 0.97022 0.26141 0.0
H621 H 0.29019 0.97379 0.17956 0.0
H622 H 0.32485 0.97665 0.40604 0.0
H623 H 0.33774 0.00448 0.18829 0.0
H624 H 0.32968 0.0278 0.09794 0.0
H625 H 0.33703 0.07868 0.22608 0.0
H626 H 0.34483 0.05557 0.31731 0.0
H627 H 0.43202 0.9723 0.45013 0.0
H628 H 0.39753 0.97036 0.40622 0.0
H629 H 0.39005 0.03457 0.43761 0.0
H630 H 0.42433 0.03671 0.47968 0.0
H631 H 0.37632 0.02519 0.32412 0.0
H632 H 0.36832 0.99893 0.53895 0.0
H633 H 0.37556 0.97656 0.63231 0.0
H634 H 0.35833 0.92471 0.51901 0.0
H635 H 0.35132 0.94671 0.42455 0.0
C636 C 0.28286 0.01817 0.26131 0.0
C637 C 0.28042 0.00332 0.21304 0.0
C638 C 0.29821 0.01619 0.30767 0.0
C639 C 0.31113 0.9993 0.30626 0.0
C640 C 0.30698 0.9833 0.2634 0.0
C641 C 0.29178 0.98536 0.21665 0.0
C642 C 0.33125 1.00042 0.3374 0.0
C643 C 0.3362 0.98717 0.38829 0.0
C644 C 0.34585 0.01437 0.31453 0.0
C645 C 0.34163 0.02831 0.25955 0.0
C646 C 0.33749 0.02063 0.19711 0.0
C647 C 0.33299 0.03379 0.14581 0.0
C648 C 0.33277 0.0547 0.15629 0.0
C649 C 0.33716 0.06248 0.21806 0.0
C650 C 0.34163 0.04935 0.26956 0.0
C651 C 0.42305 0.986 0.44709 0.0
C652 C 0.43094 0.00465 0.46817 0.0
C653 C 0.40329 0.98485 0.42266 0.0
C654 C 0.39111 0.00229 0.41955 0.0
C655 C 0.39913 0.02091 0.43964 0.0
C656 C 0.41879 0.02209 0.46367 0.0
C657 C 0.37018 0.00147 0.3936 0.0
C658 C 0.36505 0.01476 0.34293 0.0
C659 C 0.35544 0.98774 0.41758 0.0
C660 C 0.35949 0.97446 0.47443 0.0
C661 C 0.36623 0.98274 0.53376 0.0
C662 C 0.37027 0.97014 0.5869 0.0
C663 C 0.36745 0.94924 0.58154 0.0
C664 C 0.36053 0.9409 0.52306 0.0
C665 C 0.35651 0.95343 0.4697 0.0
H666 H 0.37059 0.93951 0.62274 0.0
H667 H 0.32926 0.06487 0.11652 0.0
H668 H 0.46467 0.29207 0.24945 0.0
H669 H 0.47368 0.32099 0.31805 0.0
H670 H 0.53696 0.30671 0.29389 0.0
H671 H 0.52793 0.27767 0.2257 0.0
H672 H 0.49733 0.33307 0.42498 0.0
H673 H 0.55767 0.34884 0.22853 0.0
H674 H 0.56473 0.34057 0.11331 0.0
H675 H 0.50116 0.33301 0.07758 0.0
H676 H 0.49375 0.3411 0.19253 0.0
H677 H 0.54075 0.4262 0.51615 0.0
H678 H 0.53919 0.39122 0.47772 0.0
H679 H 0.50733 0.41081 0.30548 0.0
H680 H 0.50906 0.44585 0.343 0.0
H681 H 0.53242 0.38086 0.27607 0.0
H682 H 0.48152 0.39393 0.43545 0.0
H683 H 0.46765 0.40483 0.54141 0.0
H684 H 0.50212 0.3586 0.63788 0.0
H685 H 0.51636 0.34762 0.53289 0.0
C686 C 0.48041 0.29439 0.26227 0.0
C687 C 0.49564 0.28275 0.2326 0.0
C688 C 0.48557 0.311 0.30093 0.0
C689 C 0.50598 0.31618 0.30961 0.0
C690 C 0.52112 0.303 0.28712 0.0
C691 C 0.51596 0.28628 0.24892 0.0
C692 C 0.51126 0.33688 0.33104 0.0
C693 C 0.50531 0.34345 0.39302 0.0
C694 C 0.52083 0.35063 0.28799 0.0
C695 C 0.52522 0.34532 0.21922 0.0
C696 C 0.54523 0.34532 0.19608 0.0
C697 C 0.54928 0.34064 0.13087 0.0
C698 C 0.5334 0.33613 0.08826 0.0
C699 C 0.51344 0.33631 0.11076 0.0
C700 C 0.50932 0.34086 0.17597 0.0
C701 C 0.53378 0.42314 0.46941 0.0
C702 C 0.5248 0.4388 0.43297 0.0
C703 C 0.53282 0.40312 0.44772 0.0
C704 C 0.52279 0.39839 0.38944 0.0
C705 C 0.51507 0.41412 0.35078 0.0
C706 C 0.51606 0.43416 0.37235 0.0
C707 C 0.51902 0.37702 0.37097 0.0
C708 C 0.52502 0.37037 0.30903 0.0
C709 C 0.5087 0.36348 0.41307 0.0
C710 C 0.5002 0.37012 0.47642 0.0
C711 C 0.48627 0.38622 0.47941 0.0
C712 C 0.4783 0.39239 0.53932 0.0
C713 C 0.484 0.38243 0.59648 0.0
C714 C 0.49768 0.36631 0.59379 0.0
C715 C 0.50572 0.36011 0.53408 0.0
H716 H 0.47773 0.38718 0.64272 0.0
H717 H 0.53654 0.33259 0.03776 0.0
H718 H 0.23608 0.47416 0.25659 0.0
H719 H 0.20978 0.47646 0.34058 0.0
H720 H 0.1922 0.53509 0.26742 0.0
H721 H 0.21829 0.53269 0.18301 0.0
H722 H 0.18591 0.52755 0.41266 0.0
H723 H 0.1706 0.50107 0.19373 0.0
H724 H 0.17775 0.47849 0.10062 0.0
H725 H 0.17413 0.42671 0.22649 0.0
H726 H 0.16707 0.44906 0.32038 0.0
H727 H 0.07898 0.53139 0.45989 0.0
H728 H 0.1135 0.53342 0.41624 0.0
H729 H 0.12094 0.46915 0.44578 0.0
H730 H 0.08663 0.46693 0.488 0.0
H731 H 0.13434 0.47899 0.33159 0.0
H732 H 0.14337 0.504 0.54723 0.0
H733 H 0.13671 0.52571 0.64274 0.0
H734 H 0.15301 0.57838 0.5321 0.0
H735 H 0.15951 0.55706 0.43559 0.0
C736 C 0.22732 0.48798 0.26081 0.0
C737 C 0.22909 0.50325 0.2137 0.0
C738 C 0.21228 0.48926 0.30855 0.0
C739 C 0.199 0.50588 0.30964 0.0
C740 C 0.20241 0.52224 0.26757 0.0
C741 C 0.21728 0.52086 0.21944 0.0
C742 C 0.17924 0.50416 0.34287 0.0
C743 C 0.17455 0.51701 0.39515 0.0
C744 C 0.16463 0.49018 0.32036 0.0
C745 C 0.16853 0.47672 0.26395 0.0
C746 C 0.17145 0.48488 0.20146 0.0
C747 C 0.17546 0.47214 0.1486 0.0
C748 C 0.17649 0.4512 0.15765 0.0
C749 C 0.17338 0.44295 0.21956 0.0
C750 C 0.16934 0.45564 0.27258 0.0
C751 C 0.08796 0.5177 0.45663 0.0
C752 C 0.08006 0.49901 0.47722 0.0
C753 C 0.10774 0.51891 0.43236 0.0
C754 C 0.11991 0.50147 0.42871 0.0
C755 C 0.11188 0.4828 0.44836 0.0
C756 C 0.09221 0.48158 0.47245 0.0
C757 C 0.14075 0.50237 0.40206 0.0
C758 C 0.14565 0.4894 0.35028 0.0
C759 C 0.15553 0.51606 0.42591 0.0
C760 C 0.15174 0.52894 0.48394 0.0
C761 C 0.14538 0.52023 0.54309 0.0
C762 C 0.14165 0.53246 0.59743 0.0
C763 C 0.14437 0.5534 0.59342 0.0
C764 C 0.15088 0.56216 0.5351 0.0
C765 C 0.15461 0.55001 0.48057 0.0
H766 H 0.14147 0.56283 0.63555 0.0
H767 H 0.17964 0.44137 0.11666 0.0
H768 H 0.96495 0.78671 0.95134 0.0
H769 H 0.97223 0.81019 0.86277 0.0
H770 H 0.03545 0.79374 0.87107 0.0
H771 H 0.02805 0.77044 0.96122 0.0
H772 H 0.03121 0.83228 0.89061 0.0
H773 H 0.00745 0.78825 0.7266 0.0
H774 H 0.98502 0.76353 0.67288 0.0
H775 H 0.93677 0.80709 0.67156 0.0
H776 H 0.95877 0.832 0.72613 0.0
H777 H 0.03729 0.92341 0.69854 0.0
H778 H 0.04137 0.88773 0.7294 0.0
H779 H 0.97703 0.88324 0.76307 0.0
H780 H 0.97283 0.9185 0.73142 0.0
H781 H 0.99052 0.85091 0.69686 0.0
H782 H 0.01158 0.88971 0.88877 0.0
H783 H 0.03321 0.9143 0.94665 0.0
H784 H 0.08601 0.87969 0.89632 0.0
H785 H 0.06468 0.85501 0.83754 0.0
C786 C 0.9802 0.78743 0.93197 0.0
C787 C 0.99594 0.77677 0.96214 0.0
C788 C 0.98439 0.80082 0.88124 0.0
C789 C 0.00441 0.8037 0.85988 0.0
C790 C 0.0199 0.79169 0.88653 0.0
C791 C 0.01568 0.77831 0.93757 0.0
C792 C 0.00933 0.82181 0.82016 0.0
C793 C 0.02278 0.83605 0.84691 0.0
C794 C 0.99817 0.82693 0.7637 0.0
C795 C 0.98481 0.81201 0.73065 0.0
C796 C 0.99202 0.79254 0.71523 0.0
C797 C 0.97938 0.77849 0.68456 0.0
C798 C 0.95948 0.78374 0.66883 0.0
C799 C 0.95219 0.80306 0.68368 0.0
C800 C 0.96477 0.81717 0.71436 0.0
C801 C 0.02407 0.91482 0.71305 0.0
C802 C 0.00475 0.92377 0.71292 0.0
C803 C 0.02641 0.89444 0.73032 0.0
C804 C 0.00949 0.88283 0.7484 0.0
C805 C 0.99027 0.89184 0.74863 0.0
C806 C 0.98792 0.91207 0.73105 0.0
C807 C 0.0115 0.86147 0.76957 0.0
C808 C 0.99942 0.84673 0.73916 0.0
C809 C 0.02382 0.85587 0.82285 0.0
C810 C 0.03659 0.8707 0.85809 0.0
C811 C 0.02782 0.88745 0.88965 0.0
C812 C 0.04002 0.90137 0.92269 0.0
C813 C 0.06098 0.8986 0.92495 0.0
C814 C 0.06978 0.88185 0.89437 0.0
C815 C 0.05765 0.86789 0.86121 0.0
H816 H 0.0704 0.90939 0.95056 0.0
H817 H 0.94972 0.77283 0.6451 0.0
H818 H 0.7354 0.0128 0.92981 0.0
H819 H 0.70962 0.01979 0.84742 0.0
H820 H 0.67991 0.96349 0.89501 0.0
H821 H 0.70625 0.95597 0.974 0.0
H822 H 0.66825 0.97427 0.77999 0.0
H823 H 0.67533 0.00899 0.9919 0.0
H824 H 0.69312 0.03149 0.06931 0.0
H825 H 0.69212 0.0796 0.92896 0.0
H826 H 0.67465 0.05734 0.8503 0.0
H827 H 0.56736 0.98485 0.84652 0.0
H828 H 0.60366 0.98492 0.86822 0.0
H829 H 0.6104 0.03967 0.75586 0.0
H830 H 0.57393 0.03986 0.73422 0.0
H831 H 0.63616 0.03572 0.87425 0.0
H832 H 0.61917 1.00063 0.67594 0.0
H833 H 0.59644 0.9775 0.61656 0.0
H834 H 0.61331 0.92871 0.74347 0.0
H835 H 0.63582 0.95165 0.80474 0.0
C836 C 0.7241 0.00134 0.91965 0.0
C837 C 0.72236 0.98415 0.95962 0.0
C838 C 0.70919 0.00547 0.8731 0.0
C839 C 0.69226 0.99268 0.86757 0.0
C840 C 0.69257 0.97384 0.89926 0.0
C841 C 0.70765 0.96952 0.94461 0.0
C842 C 0.67265 1.00029 0.842 0.0
C843 C 0.66139 0.98788 0.79979 0.0
C844 C 0.66356 0.01814 0.86751 0.0
C845 C 0.67394 0.03147 0.91502 0.0
C846 C 0.67898 0.02435 0.97752 0.0
C847 C 0.689 0.03703 0.02157 0.0
C848 C 0.69375 0.05691 0.00403 0.0
C849 C 0.68848 0.06418 0.94241 0.0
C850 C 0.67856 0.05155 0.89804 0.0
C851 C 0.57644 0.99724 0.82798 0.0
C852 C 0.56784 0.01219 0.788 0.0
C853 C 0.59717 0.99722 0.84022 0.0
C854 C 0.60965 0.01204 0.81231 0.0
C855 C 0.60095 0.02805 0.77738 0.0
C856 C 0.58011 0.02815 0.7653 0.0
C857 C 0.63184 0.00936 0.81445 0.0
C858 C 0.64339 0.02264 0.85223 0.0
C859 C 0.64106 0.99218 0.78582 0.0
C860 C 0.62914 0.97789 0.74512 0.0
C861 C 0.61805 0.98497 0.69121 0.0
C862 C 0.60508 0.97194 0.65751 0.0
C863 C 0.60327 0.95172 0.67662 0.0
C864 C 0.61464 0.94441 0.72897 0.0
C865 C 0.62755 0.95742 0.76313 0.0
H866 H 0.59322 0.94166 0.6504 0.0
H867 H 0.70148 0.06669 0.03825 0.0
H868 H 0.46282 0.72684 0.99947 0.0
H869 H 0.45636 0.70141 0.91515 0.0
H870 H 0.51951 0.7027 0.86134 0.0
H871 H 0.52581 0.72851 0.94457 0.0
H872 H 0.49551 0.69238 0.7573 0.0
H873 H 0.50533 0.67058 0.98203 0.0
H874 H 0.49793 0.67021 0.09995 0.0
H875 H 0.43612 0.65433 0.0603 0.0
H876 H 0.44325 0.65437 0.94213 0.0
H877 H 0.52765 0.59275 0.70343 0.0
H878 H 0.52072 0.62702 0.74054 0.0
H879 H 0.45819 0.61123 0.77367 0.0
H880 H 0.46506 0.57653 0.73667 0.0
H881 H 0.47491 0.63037 0.87695 0.0
H882 H 0.47027 0.6435 0.64885 0.0
H883 H 0.48071 0.64228 0.53393 0.0
H884 H 0.53566 0.67383 0.58062 0.0
H885 H 0.52555 0.67517 0.69625 0.0
C886 C 0.47503 0.72247 0.96707 0.0
C887 C 0.49477 0.72954 0.97794 0.0
C888 C 0.4714 0.70782 0.91948 0.0
C889 C 0.48757 0.69982 0.88329 0.0
C890 C 0.50684 0.70864 0.88892 0.0
C891 C 0.51042 0.72345 0.93614 0.0
C892 C 0.48533 0.68024 0.8489 0.0
C893 C 0.49094 0.6788 0.78318 0.0
C894 C 0.47913 0.66259 0.88263 0.0
C895 C 0.47476 0.66269 0.95344 0.0
C896 C 0.49015 0.66709 0.99854 0.0
C897 C 0.48602 0.66688 0.06537 0.0
C898 C 0.46654 0.66238 0.08758 0.0
C899 C 0.45119 0.65788 0.04301 0.0
C900 C 0.45528 0.65791 0.97615 0.0
C901 C 0.51237 0.59649 0.71839 0.0
C902 C 0.49691 0.58186 0.71744 0.0
C903 C 0.50839 0.61621 0.7389 0.0
C904 C 0.48886 0.62179 0.75865 0.0
C905 C 0.47333 0.60725 0.75794 0.0
C906 C 0.4773 0.58744 0.73712 0.0
C907 C 0.48533 0.64235 0.78529 0.0
C908 C 0.47882 0.64397 0.85005 0.0
C909 C 0.49102 0.66005 0.75082 0.0
C910 C 0.49718 0.65933 0.68132 0.0
C911 C 0.48464 0.65007 0.63472 0.0
C912 C 0.4905 0.64938 0.56934 0.0
C913 C 0.5089 0.6579 0.54987 0.0
C914 C 0.52142 0.66723 0.59576 0.0
C915 C 0.5156 0.66801 0.66121 0.0
H916 H 0.51348 0.65734 0.4993 0.0
H917 H 0.46335 0.66231 0.1393 0.0
H918 H 0.78739 0.54959 0.97318 0.0
H919 H 0.81376 0.54097 0.89497 0.0
H920 H 0.8018 0.47739 0.92525 0.0
H921 H 0.77548 0.48616 0.0048 0.0
H922 H 0.83996 0.48692 0.95495 0.0
H923 H 0.79783 0.49855 0.76783 0.0
H924 H 0.77308 0.51706 0.70039 0.0
H925 H 0.81265 0.56862 0.69446 0.0
H926 H 0.8375 0.55053 0.76258 0.0
H927 H 0.92896 0.47022 0.75539 0.0
H928 H 0.89488 0.46896 0.8029 0.0
H929 H 0.89138 0.53416 0.79503 0.0
H930 H 0.9251 0.53554 0.74742 0.0
H931 H 0.85865 0.51716 0.74271 0.0
H932 H 0.89744 0.51001 0.9389 0.0
H933 H 0.92221 0.4948 0.01418 0.0
H934 H 0.88929 0.43873 0.01079 0.0
H935 H 0.86441 0.45359 0.93492 0.0
C936 C 0.78965 0.53383 0.96031 0.0
C937 C 0.7794 0.51852 0.99419 0.0
C938 C 0.80477 0.52887 0.91575 0.0
C939 C 0.80977 0.5085 0.90419 0.0
C940 C 0.79814 0.49318 0.93337 0.0
C941 C 0.78296 0.49818 0.97808 0.0
C942 C 0.82918 0.50361 0.87158 0.0
C943 C 0.84387 0.49301 0.90749 0.0
C944 C 0.83449 0.51218 0.81093 0.0
C945 C 0.81953 0.52316 0.77022 0.0
C946 C 0.8012 0.51387 0.75239 0.0
C947 C 0.78716 0.52429 0.71403 0.0
C948 C 0.79129 0.544 0.69313 0.0
C949 C 0.80946 0.55335 0.71064 0.0
C950 C 0.82353 0.54302 0.7491 0.0
C951 C 0.921 0.48428 0.76461 0.0
C952 C 0.92969 0.50298 0.74745 0.0
C953 C 0.90156 0.48353 0.79175 0.0
C954 C 0.89059 0.50147 0.80226 0.0
C955 C 0.89952 0.52013 0.78686 0.0
C956 C 0.91884 0.52089 0.75986 0.0
C957 C 0.86946 0.50103 0.82649 0.0
C958 C 0.85452 0.51063 0.78909 0.0
C959 C 0.86404 0.49192 0.88628 0.0
C960 C 0.87928 0.48279 0.93034 0.0
C961 C 0.89565 0.49435 0.95345 0.0
C962 C 0.90965 0.48582 0.99648 0.0
C963 C 0.90738 0.46578 0.017 0.0
C964 C 0.89107 0.45423 0.99467 0.0
C965 C 0.877 0.4627 0.9517 0.0
H966 H 0.91823 0.45921 0.05038 0.0
H967 H 0.78041 0.55203 0.66337 0.0
H968 H 0.01367 0.22868 0.91518 0.0
H969 H 0.01304 0.20059 0.83712 0.0
H970 H 0.06017 0.17036 0.94486 0.0
H971 H 0.06092 0.19843 0.02276 0.0
H972 H 0.05842 0.16179 0.79934 0.0
H973 H 0.01753 0.16237 -0.00043 0.0
H974 H 0.99462 0.18175 0.07111 0.0
H975 H 0.95123 0.18626 0.91605 0.0
H976 H 0.97427 0.16753 0.84283 0.0
H977 H 0.03053 0.05861 0.73638 0.0
H978 H 0.04184 0.09041 0.78681 0.0
H979 H 0.98431 0.11786 0.74053 0.0
H980 H 0.97274 0.08624 0.69359 0.0
H981 H 0.99314 0.12859 0.85339 0.0
H982 H 0.03019 0.12574 0.65418 0.0
H983 H 0.0538 0.11366 0.56989 0.0
H984 H 0.10285 0.11609 0.70672 0.0
H985 H 0.07954 0.12823 0.7921 0.0
C986 C 0.02456 0.21652 0.92037 0.0
C987 C 0.03713 0.21554 0.9754 0.0
C988 C 0.02419 0.20048 0.87578 0.0
C989 C 0.03638 0.18329 0.88581 0.0
C990 C 0.05069 0.18348 0.93617 0.0
C991 C 0.051 0.19945 0.98088 0.0
C992 C 0.03091 0.16374 0.85484 0.0
C993 C 0.04428 0.15431 0.8113 0.0
C994 C 0.01229 0.15429 0.8699 0.0
C995 C 0.99767 0.16371 0.91565 0.0
C996 C 0.00311 0.16751 0.98076 0.0
C997 C 0.99017 0.1785 0.02143 0.0
C998 C 0.97154 0.18534 0.99799 0.0
C999 C 0.96572 0.18102 0.93402 0.0
C1000 C 0.97872 0.17026 0.89287 0.0
C1001 C 0.02027 0.07139 0.73782 0.0
C1002 C 1.00067 0.06979 0.71161 0.0
C1003 C 0.02681 0.08964 0.76595 0.0
C1004 C 0.01403 0.10672 0.7669 0.0
C1005 C 0.99447 0.10498 0.74087 0.0
C1006 C 0.98784 0.08677 0.71407 0.0
C1007 C 0.02053 0.12633 0.79624 0.0
C1008 C 0.00736 0.13579 0.84068 0.0
C1009 C 0.03917 0.13589 0.78061 0.0
C1010 C 0.05305 0.12782 0.72985 0.0
C1011 C 0.04596 0.12358 0.66661 0.0
C1012 C 0.05931 0.11674 0.61852 0.0
C1013 C 0.07979 0.11407 0.63298 0.0
C1014 C 0.08697 0.11817 0.69561 0.0
C1015 C 0.0737 0.12508 0.74384 0.0
H1016 H 0.09014 0.10891 0.5956 0.0
H1017 H 0.96154 0.19388 0.02954 0.0
H1018 H 0.28052 0.98975 0.93988 0.0
H1019 H 0.31003 0.98834 0.8672 0.0
H1020 H 0.33005 0.04628 0.9399 0.0
H1021 H 0.30049 0.04768 0.01228 0.0
H1022 H 0.33851 0.03963 0.80296 0.0
H1023 H 0.34604 0.00645 0.01289 0.0
H1024 H 0.335 0.98229 0.09746 0.0
H1025 H 0.34144 0.9331 0.96235 0.0
H1026 H 0.35187 0.95702 0.87633 0.0
H1027 H 0.44305 0.02848 0.72268 0.0
H1028 H 0.41148 0.03512 0.78203 0.0
H1029 H 0.39335 0.97292 0.7539 0.0
H1030 H 0.42488 0.96606 0.6973 0.0
H1031 H 0.3837 0.98321 0.86908 0.0
H1032 H 0.37454 0.01333 0.6592 0.0
H1033 H 0.38285 0.03555 0.56653 0.0
H1034 H 0.37795 0.08777 0.69027 0.0
H1035 H 0.36982 0.06579 0.78397 0.0
C1036 C 0.29079 0.00253 0.93808 0.0
C1037 C 0.28821 0.01894 0.98062 0.0
C1038 C 0.30768 0.00167 0.89707 0.0
C1039 C 0.32231 0.01713 0.8987 0.0
C1040 C 0.3189 0.03427 0.93762 0.0
C1041 C 0.30201 0.0351 0.97869 0.0
C1042 C 0.3423 0.01415 0.86709 0.0
C1043 C 0.34853 0.02744 0.8177 0.0
C1044 C 0.35516 0.998 0.88565 0.0
C1045 C 0.34953 0.98356 0.93803 0.0
C1046 C 0.34494 0.99051 0.00112 0.0
C1047 C 0.3388 0.97687 0.0493 0.0
C1048 C 0.33753 0.9562 0.03532 0.0
C1049 C 0.34241 0.94912 0.97311 0.0
C1050 C 0.34841 0.96271 0.92458 0.0
C1051 C 0.43243 0.0162 0.72995 0.0
C1052 C 0.43649 0.99678 0.70505 0.0
C1053 C 0.41429 0.02004 0.76331 0.0
C1054 C 0.3998 0.00461 0.77149 0.0
C1055 C 0.40419 0.98511 0.74826 0.0
C1056 C 0.4223 0.98123 0.71566 0.0
C1057 C 0.37999 0.00853 0.80385 0.0
C1058 C 0.3738 0.99545 0.85398 0.0
C1059 C 0.36703 0.02461 0.7849 0.0
C1060 C 0.3718 0.03789 0.72871 0.0
C1061 C 0.37538 0.02953 0.66673 0.0
C1062 C 0.38004 0.04208 0.614 0.0
C1063 C 0.381 0.06305 0.62252 0.0
C1064 C 0.37724 0.07152 0.68377 0.0
C1065 C 0.37259 0.05902 0.7367 0.0
H1066 H 0.38462 0.07275 0.58163 0.0
H1067 H 0.33277 0.94567 0.07273 0.0
H1068 H 0.45684 0.30692 0.04001 0.0
H1069 H 0.45867 0.33747 0.97286 0.0
H1070 H 0.51338 0.31521 0.88321 0.0
H1071 H 0.51174 0.28465 0.95108 0.0
H1072 H 0.49188 0.36429 0.98218 0.0
H1073 H 0.51521 0.33585 0.73109 0.0
H1074 H 0.51032 0.30641 0.6587 0.0
H1075 H 0.45199 0.29546 0.74426 0.0
H1076 H 0.45643 0.32505 0.81637 0.0
H1077 H 0.53895 0.43918 0.77838 0.0
H1078 H 0.53007 0.40887 0.84066 0.0
H1079 H 0.47123 0.40801 0.7498 0.0
H1080 H 0.48003 0.43842 0.68739 0.0
H1081 H 0.49242 0.37089 0.7417 0.0
H1082 H 0.47439 0.42063 0.90428 0.0
H1083 H 0.48098 0.45017 0.97473 0.0
H1084 H 0.52994 0.41842 0.06683 0.0
H1085 H 0.52381 0.38877 0.99636 0.0
C1086 C 0.46892 0.30828 0.00455 0.0
C1087 C 0.48415 0.29344 0.00066 0.0
C1088 C 0.47003 0.32579 0.96667 0.0
C1089 C 0.48625 0.32866 0.9236 0.0
C1090 C 0.50069 0.31321 0.91604 0.0
C1091 C 0.49964 0.29569 0.9543 0.0
C1092 C 0.48887 0.34848 0.8908 0.0
C1093 C 0.49192 0.36577 0.92953 0.0
C1094 C 0.48909 0.35034 0.8223 0.0
C1095 C 0.48619 0.33261 0.77911 0.0
C1096 C 0.50131 0.3272 0.73417 0.0
C1097 C 0.49862 0.31049 0.69323 0.0
C1098 C 0.48087 0.29905 0.69694 0.0
C1099 C 0.46575 0.30432 0.74151 0.0
C1100 C 0.46835 0.32105 0.78243 0.0
C1101 C 0.52401 0.43271 0.77245 0.0
C1102 C 0.5102 0.44117 0.72802 0.0
C1103 C 0.51895 0.41541 0.80809 0.0
C1104 C 0.50001 0.40616 0.79966 0.0
C1105 C 0.48594 0.41491 0.75682 0.0
C1106 C 0.49093 0.43236 0.72161 0.0
C1107 C 0.49538 0.38673 0.83273 0.0
C1108 C 0.4922 0.36946 0.79418 0.0
C1109 C 0.49529 0.38487 0.90137 0.0
C1110 C 0.49874 0.40255 0.94461 0.0
C1111 C 0.48665 0.42 0.93926 0.0
C1112 C 0.49028 0.43675 0.97926 0.0
C1113 C 0.5059 0.43619 0.02511 0.0
C1114 C 0.51785 0.41884 0.03127 0.0
C1115 C 0.51429 0.40204 0.99137 0.0
H1116 H 0.50872 0.44919 0.05594 0.0
H1117 H 0.47882 0.2861 0.66525 0.0
H1118 H 0.22797 0.51516 0.93322 0.0
H1119 H 0.19808 0.5155 0.86212 0.0
H1120 H 0.1772 0.45996 0.94991 0.0
H1121 H 0.20701 0.45971 0.02119 0.0
H1122 H 0.16839 0.46434 0.80909 0.0
H1123 H 0.16121 0.4992 0.01594 0.0
H1124 H 0.17279 0.52352 0.09931 0.0
H1125 H 0.16847 0.57198 0.96067 0.0
H1126 H 0.15743 0.54783 0.87598 0.0
H1127 H 0.06356 0.47693 0.73255 0.0
H1128 H 0.09517 0.47016 0.79143 0.0
H1129 H 0.11496 0.53135 0.75407 0.0
H1130 H 0.08343 0.53837 0.69783 0.0
H1131 H 0.12441 0.52219 0.87121 0.0
H1132 H 0.13214 0.48914 0.66396 0.0
H1133 H 0.12281 0.46578 0.57535 0.0
H1134 H 0.12692 0.41539 0.70678 0.0
H1135 H 0.13616 0.43854 0.79646 0.0
C1136 C 0.21741 0.50263 0.93522 0.0
C1137 C 0.21975 0.48733 0.98191 0.0
C1138 C 0.20032 0.50287 0.89501 0.0
C1139 C 0.1854 0.48781 0.90115 0.0
C1140 C 0.1886 0.47161 0.94411 0.0
C1141 C 0.2056 0.47147 0.98464 0.0
C1142 C 0.16528 0.49059 0.87046 0.0
C1143 C 0.15864 0.47684 0.82293 0.0
C1144 C 0.15272 0.50705 0.88816 0.0
C1145 C 0.15872 0.52168 0.93953 0.0
C1146 C 0.1629 0.51501 0.00317 0.0
C1147 C 0.16935 0.52875 0.05064 0.0
C1148 C 0.17138 0.54926 0.0353 0.0
C1149 C 0.16692 0.55608 0.97247 0.0
C1150 C 0.16058 0.54237 0.9247 0.0
C1151 C 0.07455 0.48898 0.73775 0.0
C1152 C 0.07093 0.50818 0.71051 0.0
C1153 C 0.09271 0.48505 0.77083 0.0
C1154 C 0.10765 0.50015 0.77633 0.0
C1155 C 0.10374 0.51943 0.75059 0.0
C1156 C 0.08562 0.52341 0.7183 0.0
C1157 C 0.12744 0.49614 0.80849 0.0
C1158 C 0.13404 0.50963 0.85697 0.0
C1159 C 0.14001 0.47959 0.79089 0.0
C1160 C 0.13463 0.46561 0.73704 0.0
C1161 C 0.13094 0.47311 0.67405 0.0
C1162 C 0.12568 0.4599 0.62361 0.0
C1163 C 0.12419 0.43912 0.63543 0.0
C1164 C 0.12805 0.4315 0.69771 0.0
C1165 C 0.13333 0.44465 0.74836 0.0
H1166 H 0.12009 0.42892 0.59629 0.0
H1167 H 0.17637 0.55988 0.07212 0.0
H1168 H 0.02015 0.80072 0.17184 0.0
H1169 H 0.02006 0.8294 0.24677 0.0
H1170 H 0.95992 0.81336 0.31058 0.0
H1171 H 0.95993 0.78449 0.23441 0.0
H1172 H 0.96277 0.8536 0.27922 0.0
H1173 H 0.99905 0.80811 0.41501 0.0
H1174 H 0.02481 0.78259 0.4435 0.0
H1175 H 0.07209 0.82466 0.39559 0.0
H1176 H 0.04662 0.85036 0.36597 0.0
H1177 H 0.97312 0.93606 0.51225 0.0
H1178 H 0.96606 0.90379 0.45738 0.0
H1179 H 0.02602 0.9044 0.3739 0.0
H1180 H 0.03322 0.93626 0.42931 0.0
H1181 H 0.01888 0.86924 0.43156 0.0
H1182 H 0.98217 0.91293 0.28259 0.0
H1183 H 0.9563 0.93829 0.25347 0.0
H1184 H 0.90961 0.89937 0.32772 0.0
H1185 H 0.93525 0.87387 0.35799 0.0
C1186 C 0.00705 0.80308 0.20276 0.0
C1187 C 0.99007 0.79038 0.19753 0.0
C1188 C 0.00702 0.81945 0.2457 0.0
C1189 C 0.99003 0.82351 0.28467 0.0
C1190 C 0.97321 0.81049 0.28109 0.0
C1191 C 0.9733 0.79392 0.23814 0.0
C1192 C 0.98968 0.84213 0.3256 0.0
C1193 C 0.97478 0.85686 0.31368 0.0
C1194 C 0.00548 0.84652 0.36993 0.0
C1195 C 0.0209 0.83113 0.38793 0.0
C1196 C 0.01494 0.81188 0.41012 0.0
C1197 C 0.02949 0.79739 0.42655 0.0
C1198 C 0.05007 0.80199 0.42127 0.0
C1199 C 0.05614 0.82111 0.39967 0.0
C1200 C 0.04165 0.83566 0.38316 0.0
C1201 C 0.98459 0.92954 0.48088 0.0
C1202 C 0.00374 0.93869 0.4751 0.0
C1203 C 0.98057 0.91104 0.44972 0.0
C1204 C 0.99555 0.90156 0.41168 0.0
C1205 C 0.01428 0.91128 0.40344 0.0
C1206 C 0.01834 0.92958 0.43484 0.0
C1207 C 0.99244 0.88103 0.38324 0.0
C1208 C 0.00668 0.8659 0.39784 0.0
C1209 C 0.97603 0.87631 0.34157 0.0
C1210 C 0.96064 0.89161 0.32324 0.0
C1211 C 0.96641 0.90986 0.29319 0.0
C1212 C 0.95178 0.92424 0.27637 0.0
C1213 C 0.93133 0.92048 0.28893 0.0
C1214 C 0.92546 0.90229 0.31814 0.0
C1215 C 0.94003 0.88786 0.33509 0.0
H1216 H 0.92003 0.93163 0.27588 0.0
H1217 H 0.06132 0.79074 0.43399 0.0
H1218 H 0.6842 0.00188 0.12978 0.0
H1219 H 0.65821 0.00422 0.21191 0.0
H1220 H 0.7004 0.98376 0.35801 0.0
H1221 H 0.72656 0.97982 0.27405 0.0
H1222 H 0.66464 0.96701 0.37888 0.0
H1223 H 0.6872 0.0347 0.34208 0.0
H1224 H 0.69649 0.06449 0.27611 0.0
H1225 H 0.63578 0.06808 0.20241 0.0
H1226 H 0.62619 0.03813 0.26725 0.0
H1227 H 0.59164 0.03615 0.58319 0.0
H1228 H 0.62237 0.02922 0.52167 0.0
H1229 H 0.59382 0.97732 0.4331 0.0
H1230 H 0.56284 0.98403 0.49589 0.0
H1231 H 0.62539 0.03092 0.3934 0.0
H1232 H 0.6212 0.94677 0.39889 0.0
H1233 H 0.61734 0.91735 0.47235 0.0
H1234 H 0.64823 0.94971 0.62425 0.0
H1235 H 0.65146 0.97953 0.55249 0.0
C1236 C 0.68812 0.99747 0.17888 0.0
C1237 C 0.70769 0.99049 0.19463 0.0
C1238 C 0.67315 0.99914 0.2263 0.0
C1239 C 0.67738 0.99457 0.29151 0.0
C1240 C 0.6968 0.9875 0.30796 0.0
C1241 C 0.71182 0.98548 0.25998 0.0
C1242 C 0.66138 0.99738 0.34179 0.0
C1243 C 0.65614 0.98104 0.38213 0.0
C1244 C 0.65042 0.01577 0.34722 0.0
C1245 C 0.65601 0.03408 0.30926 0.0
C1246 C 0.67585 0.04179 0.31161 0.0
C1247 C 0.68118 0.0587 0.2744 0.0
C1248 C 0.66675 0.06814 0.23499 0.0
C1249 C 0.64694 0.06074 0.23293 0.0
C1250 C 0.64155 0.04382 0.26999 0.0
C1251 C 0.59185 0.02318 0.55086 0.0
C1252 C 0.57465 0.01081 0.54364 0.0
C1253 C 0.60953 0.01916 0.51602 0.0
C1254 C 0.61051 0.0027 0.47295 0.0
C1255 C 0.59358 0.98992 0.46689 0.0
C1256 C 0.5758 0.99388 0.50222 0.0
C1257 C 0.62841 1.00044 0.42955 0.0
C1258 C 0.63396 0.01694 0.39026 0.0
C1259 C 0.63994 0.98245 0.42624 0.0
C1260 C 0.63634 0.96533 0.47084 0.0
C1261 C 0.62687 0.94764 0.44833 0.0
C1262 C 0.62475 0.93094 0.48966 0.0
C1263 C 0.63246 0.93169 0.55304 0.0
C1264 C 0.64214 0.94919 0.57534 0.0
C1265 C 0.64389 0.96607 0.53469 0.0
H1266 H 0.63096 0.9187 0.58484 0.0
H1267 H 0.67091 0.08121 0.20613 0.0
H1268 H 0.47553 0.7039 0.18609 0.0
H1269 H 0.47718 0.67435 0.25605 0.0
H1270 H 0.53686 0.69201 0.31997 0.0
H1271 H 0.53566 0.72138 0.24636 0.0
H1272 H 0.53741 0.65371 0.29218 0.0
H1273 H 0.4949 0.69261 0.42738 0.0
H1274 H 0.46692 0.71534 0.45874 0.0
H1275 H 0.42365 0.67142 0.39238 0.0
H1276 H 0.45138 0.64852 0.3599 0.0
H1277 H 0.53014 0.57113 0.52505 0.0
H1278 H 0.53513 0.60323 0.46709 0.0
H1279 H 0.47822 0.59466 0.3677 0.0
H1280 H 0.47296 0.563 0.42664 0.0
H1281 H 0.4793 0.6302 0.42495 0.0
H1282 H 0.52521 0.59209 0.28853 0.0
H1283 H 0.55469 0.57017 0.26697 0.0
H1284 H 0.59405 0.61439 0.35343 0.0
H1285 H 0.56475 0.63648 0.37624 0.0
C1286 C 0.48893 0.70169 0.21566 0.0
C1287 C 0.50552 0.71492 0.21036 0.0
C1288 C 0.4898 0.68481 0.25623 0.0
C1289 C 0.50707 0.68094 0.29407 0.0
C1290 C 0.52336 0.69466 0.29132 0.0
C1291 C 0.52257 0.71156 0.2499 0.0
C1292 C 0.50832 0.6618 0.33232 0.0
C1293 C 0.52495 0.64881 0.32279 0.0
C1294 C 0.49203 0.65518 0.37174 0.0
C1295 C 0.47524 0.66892 0.39069 0.0
C1296 C 0.47942 0.68787 0.41895 0.0
C1297 C 0.4636 0.70077 0.43707 0.0
C1298 C 0.44352 0.69485 0.42741 0.0
C1299 C 0.43921 0.67599 0.39979 0.0
C1300 C 0.45498 0.66303 0.38163 0.0
C1301 C 0.51902 0.57583 0.48936 0.0
C1302 C 0.50115 0.5646 0.48027 0.0
C1303 C 0.52186 0.5942 0.45635 0.0
C1304 C 0.50703 0.6014 0.41302 0.0
C1305 C 0.48981 0.5895 0.40114 0.0
C1306 C 0.48686 0.57135 0.43459 0.0
C1307 C 0.50826 0.6221 0.38468 0.0
C1308 C 0.49198 0.63531 0.39574 0.0
C1309 C 0.52517 0.62907 0.34872 0.0
C1310 C 0.54277 0.61584 0.33468 0.0
C1311 C 0.54013 0.59707 0.3034 0.0
C1312 C 0.55681 0.58463 0.29086 0.0
C1313 C 0.57623 0.59086 0.30899 0.0
C1314 C 0.57901 0.60957 0.33951 0.0
C1315 C 0.56237 0.62207 0.35219 0.0
H1316 H 0.58912 0.5812 0.29925 0.0
H1317 H 0.4313 0.70486 0.44146 0.0
H1318 H 0.80759 0.55994 0.168 0.0
H1319 H 0.83836 0.55951 0.23416 0.0
H1320 H 0.81265 0.51265 0.35483 0.0
H1321 H 0.78192 0.51272 0.28782 0.0
H1322 H 0.83665 0.5416 0.42394 0.0
H1323 H 0.83961 0.4993 0.23164 0.0
H1324 H 0.83749 0.49279 0.11353 0.0
H1325 H 0.88612 0.53458 0.07946 0.0
H1326 H 0.88818 0.54178 0.19733 0.0
H1327 H 0.91493 0.47798 0.52989 0.0
H1328 H 0.88634 0.4913 0.4686 0.0
H1329 H 0.92338 0.54028 0.39754 0.0
H1330 H 0.9523 0.52726 0.4608 0.0
H1331 H 0.8961 0.51613 0.30037 0.0
H1332 H 0.89561 0.55549 0.49545 0.0
H1333 H 0.89699 0.56198 0.61367 0.0
H1334 H 0.84372 0.52563 0.64114 0.0
H1335 H 0.84242 0.51848 0.52398 0.0
C1336 C 0.80829 0.54991 0.20971 0.0
C1337 C 0.79247 0.53616 0.2223 0.0
C1338 C 0.82589 0.54965 0.24727 0.0
C1339 C 0.82792 0.53575 0.2984 0.0
C1340 C 0.81139 0.52342 0.31523 0.0
C1341 C 0.79378 0.52357 0.27727 0.0
C1342 C 0.84786 0.5326 0.32992 0.0
C1343 C 0.84965 0.53602 0.39701 0.0
C1344 C 0.86495 0.52581 0.29417 0.0
C1345 C 0.86384 0.52132 0.22331 0.0
C1346 C 0.8497 0.50729 0.19895 0.0
C1347 C 0.84852 0.50345 0.13204 0.0
C1348 C 0.8616 0.51334 0.08904 0.0
C1349 C 0.87594 0.52701 0.11286 0.0
C1350 C 0.8771 0.53099 0.1797 0.0
C1351 C 0.91716 0.4915 0.5009 0.0
C1352 C 0.93594 0.50156 0.50016 0.0
C1353 C 0.90074 0.49912 0.46607 0.0
C1354 C 0.90275 0.51678 0.42892 0.0
C1355 C 0.92159 0.52661 0.42612 0.0
C1356 C 0.93804 0.51918 0.46221 0.0
C1357 C 0.88477 0.52486 0.3946 0.0
C1358 C 0.88326 0.52219 0.32701 0.0
C1359 C 0.86794 0.53236 0.42977 0.0
C1360 C 0.86902 0.53629 0.50086 0.0
C1361 C 0.88438 0.54863 0.52692 0.0
C1362 C 0.88513 0.55248 0.59386 0.0
C1363 C 0.87048 0.54425 0.63514 0.0
C1364 C 0.85512 0.53205 0.60955 0.0
C1365 C 0.85438 0.52806 0.54282 0.0
H1366 H 0.87101 0.54742 0.68683 0.0
H1367 H 0.86063 0.51039 0.03729 0.0
loop_
_geom_bond_atom_site_label_1
_geom_bond_atom_site_label_2
_geom_bond_distance
_geom_bond_site_symmetry_2
_ccdc_geom_bond_type
H0 C3 0.929 . S
H1 C6 0.929 . S
H2 C8 0.930 . S
C3 H0 0.929 . S
C3 C4 1.398 . S
C3 C5 1.396 1_554 S
C4 C3 1.398 . S
C4 C8 1.407 . S
C5 C3 1.396 1_556 S
C5 C6 1.394 . S
C6 H1 0.929 . S
C6 C5 1.394 . S
C6 C7 1.382 1_556 S
C7 C6 1.382 1_554 S
C7 C8 1.392 . S
C7 N9 1.420 . S
C8 H2 0.930 . S
C8 C4 1.407 . S
C8 C7 1.392 . S
N9 C7 1.420 . S
N9 C10 1.244 1_554 S
C10 N9 1.244 1_556 S
H11 C14 0.929 . S
H12 C17 0.929 . S
H13 C19 0.930 . S
C14 H11 0.929 . S
C14 C15 1.398 . S
C14 C16 1.396 1_554 S
C15 C14 1.398 . S
C15 C19 1.407 . S
C16 C14 1.396 1_556 S
C16 C17 1.394 . S
C17 H12 0.929 . S
C17 C16 1.394 . S
C17 C18 1.382 1_556 S
C18 C17 1.382 1_554 S
C18 C19 1.392 . S
C18 N20 1.420 . S
C19 H13 0.930 . S
C19 C15 1.407 . S
C19 C18 1.392 . S
N20 C18 1.420 . S
N20 C21 1.244 1_554 S
C21 N20 1.244 1_556 S
H22 C25 0.929 . S
H23 C28 0.929 . S
H24 C30 0.930 . S
C25 H22 0.929 . S
C25 C26 1.398 . S
C25 C27 1.396 1_554 S
C26 C25 1.398 . S
C26 C30 1.407 . S
C27 C25 1.396 1_556 S
C27 C28 1.394 . S
C28 H23 0.929 . S
C28 C27 1.394 . S
C28 C29 1.382 1_556 S
C29 C28 1.382 1_554 S
C29 C30 1.392 . S
C29 N31 1.420 . S
C30 H24 0.930 . S
C30 C26 1.407 . S
C30 C29 1.392 . S
N31 C29 1.420 . S
N31 C32 1.244 1_554 S
C32 N31 1.244 1_556 S
H33 C36 0.929 . S
H34 C39 0.929 . S
H35 C41 0.930 . S
C36 H33 0.929 . S
C36 C37 1.398 . S
C36 C38 1.396 1_554 S
C37 C36 1.398 . S
C37 C41 1.407 . S
C38 C36 1.396 1_556 S
C38 C39 1.394 . S
C39 H34 0.929 . S
C39 C38 1.394 . S
C39 C40 1.382 1_556 S
C40 C39 1.382 1_554 S
C40 C41 1.392 . S
C40 N42 1.420 . S
C41 H35 0.930 . S
C41 C37 1.407 . S
C41 C40 1.392 . S
N42 C40 1.420 . S
N42 C43 1.244 1_554 S
C43 N42 1.244 1_556 S
H44 C47 0.929 . S
H45 C50 0.929 . S
H46 C52 0.930 . S
C47 H44 0.929 . S
C47 C48 1.398 . S
C47 C49 1.396 . S
C48 C47 1.398 . S
C48 C52 1.407 . S
C49 C47 1.396 . S
C49 C50 1.394 . S
C50 H45 0.929 . S
C50 C49 1.394 . S
C50 C51 1.382 . S
C51 C50 1.382 . S
C51 C52 1.392 . S
C51 N53 1.420 . S
C52 H46 0.930 . S
C52 C48 1.407 . S
C52 C51 1.392 . S
N53 C51 1.420 . S
N53 C54 1.244 . S
C54 N53 1.244 . S
H55 C58 0.929 . S
H56 C61 0.929 . S
H57 C63 0.930 . S
C58 H55 0.929 . S
C58 C59 1.398 . S
C58 C60 1.396 . S
C59 C58 1.398 . S
C59 C63 1.407 . S
C60 C58 1.396 . S
C60 C61 1.394 . S
C61 H56 0.929 . S
C61 C60 1.394 . S
C61 C62 1.382 . S
C62 C61 1.382 . S
C62 C63 1.392 . S
C62 N64 1.420 . S
C63 H57 0.930 . S
C63 C59 1.407 . S
C63 C62 1.392 . S
N64 C62 1.420 . S
N64 C65 1.244 . S
C65 N64 1.244 . S
H66 C69 0.929 . S
H67 C72 0.929 . S
H68 C74 0.930 . S
C69 H66 0.929 . S
C69 C70 1.398 . S
C69 C71 1.396 . S
C70 C69 1.398 . S
C70 C74 1.407 . S
C71 C69 1.396 . S
C71 C72 1.394 . S
C72 H67 0.929 . S
C72 C71 1.394 . S
C72 C73 1.382 . S
C73 C72 1.382 . S
C73 C74 1.392 . S
C73 N75 1.420 . S
C74 H68 0.930 . S
C74 C70 1.407 . S
C74 C73 1.392 . S
N75 C73 1.420 . S
N75 C76 1.244 . S
C76 N75 1.244 . S
H77 C80 0.929 . S
H78 C83 0.929 . S
H79 C85 0.930 . S
C80 H77 0.929 . S
C80 C81 1.398 . S
C80 C82 1.396 . S
C81 C80 1.398 . S
C81 C85 1.407 . S
C82 C80 1.396 . S
C82 C83 1.394 . S
C83 H78 0.929 . S
C83 C82 1.394 . S
C83 C84 1.382 . S
C84 C83 1.382 . S
C84 C85 1.392 . S
C84 N86 1.420 . S
C85 H79 0.930 . S
C85 C81 1.407 . S
C85 C84 1.392 . S
N86 C84 1.420 . S
N86 C87 1.244 . S
C87 N86 1.244 . S
Zn88 O94 1.969 1_455 S
Zn88 O95 1.965 . S
Zn88 O99 2.024 . S
Zn88 O104 1.969 1_455 S
Zn89 O96 1.969 . S
Zn89 O102 1.969 . S
Zn89 O103 1.965 1_455 S
Zn89 O105 2.024 1_455 S
C90 O91 1.229 1_455 S
C90 O99 1.058 . S
O91 C90 1.229 1_655 S
C92 O93 1.229 1_655 S
C92 O105 1.058 . S
O93 C92 1.229 1_455 S
O94 Zn88 1.969 1_655 S
O94 C97 1.267 1_655 S
O95 Zn88 1.965 . S
O95 C106 1.260 . S
O96 Zn89 1.969 . S
O96 C106 1.258 1_565 S
C97 O94 1.267 1_455 S
C97 O98 1.228 . S
O98 C97 1.228 . S
O99 Zn88 2.024 . S
O99 C90 1.058 . S
C100 O101 1.228 1_455 S
C100 O102 1.267 . S
O101 C100 1.228 1_655 S
O102 Zn89 1.969 . S
O102 C100 1.267 . S
O103 Zn89 1.965 1_655 S
O103 C107 1.260 1_565 S
O104 Zn88 1.969 1_655 S
O104 C107 1.258 . S
O105 Zn89 2.024 1_655 S
O105 C92 1.058 . S
C106 O95 1.260 . S
C106 O96 1.258 1_545 S
C107 O103 1.260 1_545 S
C107 O104 1.258 . S
Zn108 O114 1.969 1_545 S
Zn108 O115 1.965 . S
Zn108 O119 2.024 . S
Zn108 O124 1.969 1_545 S
Zn109 O116 1.969 . S
Zn109 O122 1.969 . S
Zn109 O123 1.965 1_545 S
Zn109 O125 2.024 1_545 S
C110 O111 1.229 1_545 S
C110 O119 1.058 . S
O111 C110 1.229 1_565 S
C112 O113 1.229 1_565 S
C112 O125 1.058 . S
O113 C112 1.229 1_545 S
O114 Zn108 1.969 1_565 S
O114 C117 1.267 1_565 S
O115 Zn108 1.965 . S
O115 C126 1.260 . S
O116 Zn109 1.969 . S
O116 C126 1.258 . S
C117 O114 1.267 1_545 S
C117 O118 1.228 . S
O118 C117 1.228 . S
O119 Zn108 2.024 . S
O119 C110 1.058 . S
C120 O121 1.228 1_545 S
C120 O122 1.267 . S
O121 C120 1.228 1_565 S
O122 Zn109 1.969 . S
O122 C120 1.267 . S
O123 Zn109 1.965 1_565 S
O123 C127 1.260 . S
O124 Zn108 1.969 1_565 S
O124 C127 1.258 . S
O125 Zn109 2.024 1_565 S
O125 C112 1.058 . S
C126 O115 1.260 . S
C126 O116 1.258 . S
C127 O123 1.260 . S
C127 O124 1.258 . S
Zn128 O134 1.969 . S
Zn128 O135 1.965 . S
Zn128 O139 2.024 . S
Zn128 O144 1.969 . S
Zn129 O136 1.969 . S
Zn129 O142 1.969 . S
Zn129 O143 1.965 . S
Zn129 O145 2.024 . S
C130 O131 1.229 . S
C130 O139 1.058 . S
O131 C130 1.229 . S
C132 O133 1.229 . S
C132 O145 1.058 . S
O133 C132 1.229 . S
O134 Zn128 1.969 . S
O134 C137 1.267 . S
O135 Zn128 1.965 . S
O135 C146 1.260 . S
O136 Zn129 1.969 . S
O136 C146 1.258 . S
C137 O134 1.267 . S
C137 O138 1.228 . S
O138 C137 1.228 . S
O139 Zn128 2.024 . S
O139 C130 1.058 . S
C140 O141 1.228 . S
C140 O142 1.267 . S
O141 C140 1.228 . S
O142 Zn129 1.969 . S
O142 C140 1.267 . S
O143 Zn129 1.965 . S
O143 C147 1.260 . S
O144 Zn128 1.969 . S
O144 C147 1.258 . S
O145 Zn129 2.024 . S
O145 C132 1.058 . S
C146 O135 1.260 . S
C146 O136 1.258 . S
C147 O143 1.260 . S
C147 O144 1.258 . S
Zn148 O154 1.969 . S
Zn148 O155 1.965 . S
Zn148 O159 2.024 . S
Zn148 O164 1.969 . S
Zn149 O156 1.969 . S
Zn149 O162 1.969 . S
Zn149 O163 1.965 . S
Zn149 O165 2.024 . S
C150 O151 1.229 . S
C150 O159 1.058 . S
O151 C150 1.229 . S
C152 O153 1.229 . S
C152 O165 1.058 . S
O153 C152 1.229 . S
O154 Zn148 1.969 . S
O154 C157 1.267 . S
O155 Zn148 1.965 . S
O155 C166 1.297 . S
O156 Zn149 1.969 . S
O156 C166 1.205 1_655 S
C157 O154 1.267 . S
C157 O158 1.228 . S
O158 C157 1.228 . S
O159 Zn148 2.024 . S
O159 C150 1.058 . S
C160 O161 1.228 . S
C160 O162 1.267 . S
O161 C160 1.228 . S
O162 Zn149 1.969 . S
O162 C160 1.267 . S
O163 Zn149 1.965 . S
O163 C167 1.260 1_655 S
O164 Zn148 1.969 . S
O164 C167 1.258 . S
O165 Zn149 2.024 . S
O165 C152 1.058 . S
C166 O155 1.297 . S
C166 O156 1.205 1_455 S
C167 O163 1.260 1_455 S
C167 O164 1.258 . S
H168 C186 0.951 . S
H169 C188 0.951 . S
H170 C190 0.950 . S
H171 C191 0.950 . S
H172 C193 0.950 . S
H173 C196 0.950 . S
H174 C197 0.950 . S
H175 C199 0.950 . S
H176 C200 0.950 . S
H177 C201 0.951 . S
H178 C203 0.951 . S
H179 C205 0.938 1_565 S
H180 C206 0.950 1_565 S
H181 C208 0.950 . S
H182 C211 0.950 . S
H183 C212 0.950 . S
H184 C214 0.950 . S
H185 C215 0.950 . S
C186 H168 0.951 . S
C186 C187 1.366 . S
C186 C188 1.388 . S
C187 C186 1.366 . S
C187 C191 1.385 . S
C188 H169 0.951 . S
C188 C186 1.388 . S
C188 C189 1.366 . S
C189 C188 1.366 . S
C189 C190 1.414 . S
C189 C192 1.499 . S
C190 H170 0.950 . S
C190 C189 1.414 . S
C190 C191 1.374 . S
C191 H171 0.950 . S
C191 C187 1.385 . S
C191 C190 1.374 . S
C192 C189 1.499 . S
C192 C193 1.373 . S
C192 C194 1.389 1_545 S
C193 H172 0.950 . S
C193 C192 1.373 . S
C193 C209 1.377 . S
C194 C192 1.389 1_565 S
C194 C195 1.524 . S
C194 C208 1.377 . S
C195 C194 1.524 . S
C195 C196 1.397 . S
C195 C200 1.363 . S
C196 H173 0.950 . S
C196 C195 1.397 . S
C196 C197 1.334 . S
C197 H174 0.950 . S
C197 C196 1.334 . S
C197 C198 1.287 . S
C198 C197 1.287 . S
C198 C199 1.524 . S
C198 H217 0.913 . S
C199 H175 0.950 . S
C199 C198 1.524 . S
C199 C200 1.415 . S
C200 H176 0.950 . S
C200 C195 1.363 . S
C200 C199 1.415 . S
C201 H177 0.951 . S
C201 C202 1.366 . S
C201 C203 1.388 . S
C202 C201 1.366 . S
C202 C206 1.385 . S
C203 H178 0.951 . S
C203 C201 1.388 . S
C203 C204 1.366 . S
C204 C203 1.366 . S
C204 C205 1.414 . S
C204 C207 1.499 . S
C205 H179 0.938 1_545 S
C205 C204 1.414 . S
C205 C206 1.374 . S
C206 H180 0.950 1_545 S
C206 C202 1.385 . S
C206 C205 1.374 . S
C207 C204 1.499 . S
C207 C208 1.373 1_545 S
C207 C209 1.389 . S
C208 H181 0.950 . S
C208 C194 1.377 . S
C208 C207 1.373 1_565 S
C209 C193 1.377 . S
C209 C207 1.389 . S
C209 C210 1.524 . S
C210 C209 1.524 . S
C210 C211 1.397 . S
C210 C215 1.363 . S
C211 H182 0.950 . S
C211 C210 1.397 . S
C211 C212 1.334 . S
C212 H183 0.950 . S
C212 C211 1.334 . S
C212 C213 1.287 . S
C213 C212 1.287 . S
C213 C214 1.524 . S
C213 H216 0.999 . S
C214 H184 0.950 . S
C214 C213 1.524 . S
C214 C215 1.415 . S
C215 H185 0.950 . S
C215 C210 1.363 . S
C215 C214 1.415 . S
H216 C213 0.999 . S
H217 C198 0.913 . S
H218 C236 0.951 . S
H219 C238 0.951 . S
H220 C240 0.950 . S
H221 C241 0.950 . S
H222 C243 0.950 . S
H223 C246 0.950 . S
H224 C247 0.950 . S
H225 C249 0.950 . S
H226 C250 0.950 . S
H227 C251 0.951 . S
H228 C253 0.951 . S
H229 C255 0.950 . S
H230 C256 0.950 . S
H231 C258 0.950 . S
H232 C261 0.950 . S
H233 C262 0.950 . S
H234 C264 0.950 . S
H235 C265 0.950 . S
C236 H218 0.951 . S
C236 C237 1.366 . S
C236 C238 1.388 . S
C237 C236 1.366 . S
C237 C241 1.385 . S
C238 H219 0.951 . S
C238 C236 1.388 . S
C238 C239 1.366 . S
C239 C238 1.366 . S
C239 C240 1.414 . S
C239 C242 1.499 . S
C240 H220 0.950 . S
C240 C239 1.414 . S
C240 C241 1.374 . S
C241 H221 0.950 . S
C241 C237 1.385 . S
C241 C240 1.374 . S
C242 C239 1.499 . S
C242 C243 1.373 . S
C242 C244 1.389 . S
C243 H222 0.950 . S
C243 C242 1.373 . S
C243 C259 1.377 . S
C244 C242 1.389 . S
C244 C245 1.524 . S
C244 C258 1.377 . S
C245 C244 1.524 . S
C245 C246 1.397 . S
C245 C250 1.363 . S
C246 H223 0.950 . S
C246 C245 1.397 . S
C246 C247 1.334 . S
C247 H224 0.950 . S
C247 C246 1.334 . S
C247 C248 1.287 . S
C248 C247 1.287 . S
C248 C249 1.524 . S
C248 H267 0.913 . S
C249 H225 0.950 . S
C249 C248 1.524 . S
C249 C250 1.415 . S
C250 H226 0.950 . S
C250 C245 1.363 . S
C250 C249 1.415 . S
C251 H227 0.951 . S
C251 C252 1.366 . S
C251 C253 1.388 . S
C252 C251 1.366 . S
C252 C256 1.385 . S
C253 H228 0.951 . S
C253 C251 1.388 . S
C253 C254 1.366 . S
C254 C253 1.366 . S
C254 C255 1.414 . S
C254 C257 1.499 . S
C255 H229 0.950 . S
C255 C254 1.414 . S
C255 C256 1.374 . S
C256 H230 0.950 . S
C256 C252 1.385 . S
C256 C255 1.374 . S
C257 C254 1.499 . S
C257 C258 1.373 . S
C257 C259 1.389 . S
C258 H231 0.950 . S
C258 C244 1.377 . S
C258 C257 1.373 . S
C259 C243 1.377 . S
C259 C257 1.389 . S
C259 C260 1.524 . S
C260 C259 1.524 . S
C260 C261 1.397 . S
C260 C265 1.363 . S
C261 H232 0.950 . S
C261 C260 1.397 . S
C261 C262 1.334 . S
C262 H233 0.950 . S
C262 C261 1.334 . S
C262 C263 1.287 . S
C263 C262 1.287 . S
C263 C264 1.524 . S
C263 H266 0.999 . S
C264 H234 0.950 . S
C264 C263 1.524 . S
C264 C265 1.415 . S
C265 H235 0.950 . S
C265 C260 1.363 . S
C265 C264 1.415 . S
H266 C263 0.999 . S
H267 C248 0.913 . S
H268 C286 0.951 . S
H269 C288 0.951 . S
H270 C290 0.950 . S
H271 C291 0.950 . S
H272 C293 0.950 . S
H273 C296 0.950 . S
H274 C297 0.950 . S
H275 C299 0.950 . S
H276 C300 0.950 . S
H277 C301 0.951 . S
H278 C303 0.951 . S
H279 C305 0.950 . S
H280 C306 0.950 . S
H281 C308 0.950 . S
H282 C311 0.950 . S
H283 C312 0.950 . S
H284 C314 0.950 . S
H285 C315 0.950 . S
C286 H268 0.951 . S
C286 C287 1.366 . S
C286 C288 1.388 . S
C287 C286 1.366 . S
C287 C291 1.385 . S
C288 H269 0.951 . S
C288 C286 1.388 . S
C288 C289 1.366 . S
C289 C288 1.366 . S
C289 C290 1.414 . S
C289 C292 1.499 . S
C290 H270 0.950 . S
C290 C289 1.414 . S
C290 C291 1.374 . S
C291 H271 0.950 . S
C291 C287 1.385 . S
C291 C290 1.374 . S
C292 C289 1.499 . S
C292 C293 1.373 . S
C292 C294 1.389 . S
C293 H272 0.950 . S
C293 C292 1.373 . S
C293 C309 1.377 . S
C294 C292 1.389 . S
C294 C295 1.524 . S
C294 C308 1.377 . S
C295 C294 1.524 . S
C295 C296 1.397 . S
C295 C300 1.363 . S
C296 H273 0.950 . S
C296 C295 1.397 . S
C296 C297 1.334 . S
C297 H274 0.950 . S
C297 C296 1.334 . S
C297 C298 1.287 . S
C298 C297 1.287 . S
C298 C299 1.524 . S
C298 H317 0.913 . S
C299 H275 0.950 . S
C299 C298 1.524 . S
C299 C300 1.415 . S
C300 H276 0.950 . S
C300 C295 1.363 . S
C300 C299 1.415 . S
C301 H277 0.951 . S
C301 C302 1.366 . S
C301 C303 1.388 . S
C302 C301 1.366 . S
C302 C306 1.385 . S
C303 H278 0.951 . S
C303 C301 1.388 . S
C303 C304 1.366 . S
C304 C303 1.366 . S
C304 C305 1.414 . S
C304 C307 1.499 . S
C305 H279 0.950 . S
C305 C304 1.414 . S
C305 C306 1.374 . S
C306 H280 0.950 . S
C306 C302 1.385 . S
C306 C305 1.374 . S
C307 C304 1.499 . S
C307 C308 1.373 . S
C307 C309 1.389 . S
C308 H281 0.950 . S
C308 C294 1.377 . S
C308 C307 1.373 . S
C309 C293 1.377 . S
C309 C307 1.389 . S
C309 C310 1.524 . S
C310 C309 1.524 . S
C310 C311 1.397 . S
C310 C315 1.363 . S
C311 H282 0.950 . S
C311 C310 1.397 . S
C311 C312 1.334 . S
C312 H283 0.950 . S
C312 C311 1.334 . S
C312 C313 1.287 . S
C313 C312 1.287 . S
C313 C314 1.524 . S
C313 H316 0.999 . S
C314 H284 0.950 . S
C314 C313 1.524 . S
C314 C315 1.415 . S
C315 H285 0.950 . S
C315 C310 1.363 . S
C315 C314 1.415 . S
H316 C313 0.999 . S
H317 C298 0.913 . S
H318 C336 0.951 1_655 S
H319 C338 0.951 1_655 S
H320 C340 0.950 . S
H321 C341 0.950 . S
H322 C343 0.950 . S
H323 C346 0.950 . S
H324 C347 0.950 . S
H325 C349 0.950 . S
H326 C350 0.950 . S
H327 C351 0.951 . S
H328 C353 0.951 . S
H329 C355 0.950 . S
H330 C356 0.950 . S
H331 C358 0.950 1_655 S
H332 C361 0.950 . S
H333 C362 0.950 . S
H334 C364 0.950 . S
H335 C365 0.950 . S
C336 H318 0.951 1_455 S
C336 C337 1.366 . S
C336 C338 1.388 . S
C337 C336 1.366 . S
C337 C341 1.385 . S
C338 H319 0.951 1_455 S
C338 C336 1.388 . S
C338 C339 1.366 . S
C339 C338 1.366 . S
C339 C340 1.414 . S
C339 C342 1.499 . S
C340 H320 0.950 . S
C340 C339 1.414 . S
C340 C341 1.374 . S
C341 H321 0.950 . S
C341 C337 1.385 . S
C341 C340 1.374 . S
C342 C339 1.499 . S
C342 C343 1.373 . S
C342 C344 1.389 . S
C343 H322 0.950 . S
C343 C342 1.373 . S
C343 C359 1.377 . S
C344 C342 1.389 . S
C344 C345 1.524 1_455 S
C344 C358 1.377 . S
C345 C344 1.524 1_655 S
C345 C346 1.397 1_655 S
C345 C350 1.363 . S
C346 H323 0.950 . S
C346 C345 1.397 1_455 S
C346 C347 1.334 . S
C347 H324 0.950 . S
C347 C346 1.334 . S
C347 C348 1.287 1_455 S
C348 C347 1.287 1_655 S
C348 C349 1.524 . S
C348 H367 0.913 . S
C349 H325 0.950 . S
C349 C348 1.524 . S
C349 C350 1.415 . S
C350 H326 0.950 . S
C350 C345 1.363 . S
C350 C349 1.415 . S
C351 H327 0.951 . S
C351 C352 1.366 . S
C351 C353 1.388 . S
C352 C351 1.366 . S
C352 C356 1.385 1_455 S
C353 H328 0.951 . S
C353 C351 1.388 . S
C353 C354 1.366 . S
C354 C353 1.366 . S
C354 C355 1.414 1_455 S
C354 C357 1.499 . S
C355 H329 0.950 . S
C355 C354 1.414 1_655 S
C355 C356 1.374 . S
C356 H330 0.950 . S
C356 C352 1.385 1_655 S
C356 C355 1.374 . S
C357 C354 1.499 . S
C357 C358 1.373 . S
C357 C359 1.389 . S
C358 H331 0.950 1_455 S
C358 C344 1.377 . S
C358 C357 1.373 . S
C359 C343 1.377 . S
C359 C357 1.389 . S
C359 C360 1.524 . S
C360 C359 1.524 . S
C360 C361 1.397 . S
C360 C365 1.363 . S
C361 H332 0.950 . S
C361 C360 1.397 . S
C361 C362 1.334 . S
C362 H333 0.950 . S
C362 C361 1.334 . S
C362 C363 1.287 . S
C363 C362 1.287 . S
C363 C364 1.524 . S
C363 H366 0.999 . S
C364 H334 0.950 . S
C364 C363 1.524 . S
C364 C365 1.415 . S
C365 H335 0.950 . S
C365 C360 1.363 . S
C365 C364 1.415 . S
H366 C363 0.999 . S
H367 C348 0.913 . S
H368 C386 0.951 1_554 S
H369 C388 0.951 . S
H370 C390 0.950 1_545 S
H371 C391 0.939 1_545 S
H372 C393 0.950 . S
H373 C396 0.950 . S
H374 C397 0.950 . S
H375 C399 0.950 1_565 S
H376 C400 0.950 . S
H377 C401 0.951 . S
H378 C403 0.951 . S
H379 C405 0.950 . S
H380 C406 0.950 . S
H381 C408 0.961 . S
H382 C411 0.950 . S
H383 C412 0.950 . S
H384 C414 0.950 . S
H385 C415 0.983 . S
C386 H368 0.951 1_556 S
C386 C387 1.366 . S
C386 C388 1.388 . S
C387 C386 1.366 . S
C387 C391 1.385 . S
C388 H369 0.951 . S
C388 C386 1.388 . S
C388 C389 1.366 . S
C389 C388 1.366 . S
C389 C390 1.414 . S
C389 C392 1.499 . S
C390 H370 0.950 1_565 S
C390 C389 1.414 . S
C390 C391 1.374 . S
C391 H371 0.939 1_565 S
C391 C387 1.385 . S
C391 C390 1.374 . S
C392 C389 1.499 . S
C392 C393 1.373 . S
C392 C394 1.389 . S
C393 H372 0.950 . S
C393 C392 1.373 . S
C393 C409 1.377 . S
C394 C392 1.389 . S
C394 C395 1.524 1_565 S
C394 C408 1.377 . S
C395 C394 1.524 1_545 S
C395 C396 1.397 . S
C395 C400 1.363 1_545 S
C396 H373 0.950 . S
C396 C395 1.397 . S
C396 C397 1.334 1_556 S
C397 H374 0.950 . S
C397 C396 1.334 1_554 S
C397 C398 1.287 . S
C398 C397 1.287 . S
C398 C399 1.523 . S
C398 H417 0.913 . S
C399 H375 0.950 1_545 S
C399 C398 1.523 . S
C399 C400 1.415 1_544 S
C400 H376 0.950 . S
C400 C395 1.363 1_565 S
C400 C399 1.415 1_566 S
C401 H377 0.951 . S
C401 C402 1.368 1_545 S
C401 C403 1.388 . S
C402 C401 1.368 1_565 S
C402 C406 1.382 . S
C403 H378 0.951 . S
C403 C401 1.388 . S
C403 C404 1.366 1_545 S
C404 C403 1.366 1_565 S
C404 C405 1.414 . S
C404 C407 1.499 . S
C405 H379 0.950 . S
C405 C404 1.414 . S
C405 C406 1.374 . S
C406 H380 0.950 . S
C406 C402 1.382 . S
C406 C405 1.374 . S
C407 C404 1.499 . S
C407 C408 1.373 . S
C407 C409 1.389 . S
C408 H381 0.961 . S
C408 C394 1.377 . S
C408 C407 1.373 . S
C409 C393 1.377 . S
C409 C407 1.389 . S
C409 C410 1.524 . S
C410 C409 1.524 . S
C410 C411 1.397 . S
C410 C415 1.363 . S
C411 H382 0.950 . S
C411 C410 1.397 . S
C411 C412 1.334 . S
C412 H383 0.950 . S
C412 C411 1.334 . S
C412 C413 1.287 . S
C413 C412 1.287 . S
C413 C414 1.524 . S
C413 H416 0.999 . S
C414 H384 0.950 . S
C414 C413 1.524 . S
C414 C415 1.415 . S
C415 H385 0.983 . S
C415 C410 1.363 . S
C415 C414 1.415 . S
H416 C413 0.999 . S
H417 C398 0.913 . S
H418 C436 0.951 . S
H419 C438 0.951 . S
H420 C440 0.950 . S
H421 C441 0.950 1_554 S
H422 C443 0.950 . S
H423 C446 0.950 . S
H424 C447 0.950 . S
H425 C449 0.950 . S
H426 C450 0.950 . S
H427 C451 0.951 . S
H428 C453 0.951 . S
H429 C455 0.950 . S
H430 C456 0.950 . S
H431 C458 0.950 . S
H432 C461 0.950 . S
H433 C462 0.950 . S
H434 C464 0.950 . S
H435 C465 0.950 . S
C436 H418 0.951 . S
C436 C437 1.366 . S
C436 C438 1.388 . S
C437 C436 1.366 . S
C437 C441 1.385 . S
C438 H419 0.951 . S
C438 C436 1.388 . S
C438 C439 1.366 . S
C439 C438 1.366 . S
C439 C440 1.414 . S
C439 C442 1.499 . S
C440 H420 0.950 . S
C440 C439 1.414 . S
C440 C441 1.374 . S
C441 H421 0.950 1_556 S
C441 C437 1.385 . S
C441 C440 1.374 . S
C442 C439 1.499 . S
C442 C443 1.373 . S
C442 C444 1.389 . S
C443 H422 0.950 . S
C443 C442 1.373 . S
C443 C459 1.377 . S
C444 C442 1.389 . S
C444 C445 1.524 . S
C444 C458 1.377 . S
C445 C444 1.524 . S
C445 C446 1.397 . S
C445 C450 1.363 . S
C446 H423 0.950 . S
C446 C445 1.397 . S
C446 C447 1.334 . S
C447 H424 0.950 . S
C447 C446 1.334 . S
C447 C448 1.287 . S
C448 C447 1.287 . S
C448 C449 1.524 . S
C448 H467 0.913 . S
C449 H425 0.950 . S
C449 C448 1.524 . S
C449 C450 1.415 . S
C450 H426 0.950 . S
C450 C445 1.363 . S
C450 C449 1.415 . S
C451 H427 0.951 . S
C451 C452 1.366 . S
C451 C453 1.388 . S
C452 C451 1.366 . S
C452 C456 1.385 . S
C453 H428 0.951 . S
C453 C451 1.388 . S
C453 C454 1.366 . S
C454 C453 1.366 . S
C454 C455 1.414 . S
C454 C457 1.499 . S
C455 H429 0.950 . S
C455 C454 1.414 . S
C455 C456 1.374 . S
C456 H430 0.950 . S
C456 C452 1.385 . S
C456 C455 1.374 . S
C457 C454 1.499 . S
C457 C458 1.373 . S
C457 C459 1.389 . S
C458 H431 0.950 . S
C458 C444 1.377 . S
C458 C457 1.373 . S
C459 C443 1.377 . S
C459 C457 1.389 . S
C459 C460 1.524 . S
C460 C459 1.524 . S
C460 C461 1.397 . S
C460 C465 1.363 . S
C461 H432 0.950 . S
C461 C460 1.397 . S
C461 C462 1.334 . S
C462 H433 0.950 . S
C462 C461 1.334 . S
C462 C463 1.287 . S
C463 C462 1.287 . S
C463 C464 1.524 . S
C463 H466 0.999 . S
C464 H434 0.950 . S
C464 C463 1.524 . S
C464 C465 1.415 . S
C465 H435 0.950 . S
C465 C460 1.363 . S
C465 C464 1.415 . S
H466 C463 0.999 . S
H467 C448 0.913 . S
H468 C486 0.951 . S
H469 C488 0.951 . S
H470 C490 0.950 . S
H471 C491 0.950 1_554 S
H472 C493 0.950 . S
H473 C496 0.950 . S
H474 C497 0.950 . S
H475 C499 0.950 . S
H476 C500 0.950 . S
H477 C501 0.951 . S
H478 C503 0.951 . S
H479 C505 0.950 . S
H480 C506 0.950 . S
H481 C508 0.950 . S
H482 C511 0.950 . S
H483 C512 0.950 . S
H484 C514 0.950 . S
H485 C515 0.950 . S
C486 H468 0.951 . S
C486 C487 1.366 . S
C486 C488 1.388 . S
C487 C486 1.366 . S
C487 C491 1.385 . S
C488 H469 0.951 . S
C488 C486 1.388 . S
C488 C489 1.366 . S
C489 C488 1.366 . S
C489 C490 1.414 . S
C489 C492 1.499 . S
C490 H470 0.950 . S
C490 C489 1.414 . S
C490 C491 1.374 . S
C491 H471 0.950 1_556 S
C491 C487 1.385 . S
C491 C490 1.374 . S
C492 C489 1.499 . S
C492 C493 1.373 . S
C492 C494 1.389 . S
C493 H472 0.950 . S
C493 C492 1.373 . S
C493 C509 1.377 . S
C494 C492 1.389 . S
C494 C495 1.524 . S
C494 C508 1.377 . S
C495 C494 1.524 . S
C495 C496 1.397 . S
C495 C500 1.363 . S
C496 H473 0.950 . S
C496 C495 1.397 . S
C496 C497 1.334 . S
C497 H474 0.950 . S
C497 C496 1.334 . S
C497 C498 1.287 . S
C498 C497 1.287 . S
C498 C499 1.524 . S
C498 H517 0.913 . S
C499 H475 0.950 . S
C499 C498 1.524 . S
C499 C500 1.415 . S
C500 H476 0.950 . S
C500 C495 1.363 . S
C500 C499 1.415 . S
C501 H477 0.951 . S
C501 C502 1.366 . S
C501 C503 1.388 . S
C502 C501 1.366 . S
C502 C506 1.385 . S
C503 H478 0.951 . S
C503 C501 1.388 . S
C503 C504 1.366 . S
C504 C503 1.366 . S
C504 C505 1.414 . S
C504 C507 1.499 . S
C505 H479 0.950 . S
C505 C504 1.414 . S
C505 C506 1.374 . S
C506 H480 0.950 . S
C506 C502 1.385 . S
C506 C505 1.374 . S
C507 C504 1.499 . S
C507 C508 1.373 . S
C507 C509 1.389 . S
C508 H481 0.950 . S
C508 C494 1.377 . S
C508 C507 1.373 . S
C509 C493 1.377 . S
C509 C507 1.389 . S
C509 C510 1.524 . S
C510 C509 1.524 . S
C510 C511 1.397 . S
C510 C515 1.363 . S
C511 H482 0.950 . S
C511 C510 1.397 . S
C511 C512 1.334 . S
C512 H483 0.950 . S
C512 C511 1.334 . S
C512 C513 1.287 . S
C513 C512 1.287 . S
C513 C514 1.524 . S
C513 H516 0.999 . S
C514 H484 0.950 . S
C514 C513 1.524 . S
C514 C515 1.415 . S
C515 H485 0.950 . S
C515 C510 1.363 . S
C515 C514 1.415 . S
H516 C513 0.999 . S
H517 C498 0.913 . S
H518 C536 0.951 1_454 S
H519 C538 0.951 1_455 S
H520 C540 0.950 . S
H521 C541 0.950 . S
H522 C543 0.950 . S
H523 C546 0.950 . S
H524 C547 0.950 . S
H525 C549 0.950 . S
H526 C550 0.950 . S
H527 C551 0.951 . S
H528 C553 0.951 . S
H529 C555 0.950 . S
H530 C556 0.950 . S
H531 C558 0.950 . S
H532 C561 0.950 . S
H533 C562 0.950 . S
H534 C564 0.950 . S
H535 C565 0.950 . S
C536 H518 0.951 1_656 S
C536 C537 1.366 . S
C536 C538 1.388 . S
C537 C536 1.366 . S
C537 C541 1.385 . S
C538 H519 0.951 1_655 S
C538 C536 1.388 . S
C538 C539 1.366 . S
C539 C538 1.366 . S
C539 C540 1.414 . S
C539 C542 1.499 . S
C540 H520 0.950 . S
C540 C539 1.414 . S
C540 C541 1.374 . S
C541 H521 0.950 . S
C541 C537 1.385 . S
C541 C540 1.374 . S
C542 C539 1.499 . S
C542 C543 1.373 . S
C542 C544 1.389 1_655 S
C543 H522 0.950 . S
C543 C542 1.373 . S
C543 C559 1.377 . S
C544 C542 1.389 1_455 S
C544 C545 1.524 . S
C544 C558 1.377 . S
C545 C544 1.524 . S
C545 C546 1.397 . S
C545 C550 1.363 . S
C546 H523 0.950 . S
C546 C545 1.397 . S
C546 C547 1.334 . S
C547 H524 0.950 . S
C547 C546 1.334 . S
C547 C548 1.287 . S
C548 C547 1.287 . S
C548 C549 1.524 . S
C548 H567 0.913 . S
C549 H525 0.950 . S
C549 C548 1.524 . S
C549 C550 1.415 . S
C550 H526 0.950 . S
C550 C545 1.363 . S
C550 C549 1.415 . S
C551 H527 0.951 . S
C551 C552 1.366 . S
C551 C553 1.388 . S
C552 C551 1.366 . S
C552 C556 1.385 1_655 S
C553 H528 0.951 . S
C553 C551 1.388 . S
C553 C554 1.366 . S
C554 C553 1.366 . S
C554 C555 1.414 1_655 S
C554 C557 1.499 . S
C555 H529 0.950 . S
C555 C554 1.414 1_455 S
C555 C556 1.374 . S
C556 H530 0.950 . S
C556 C552 1.385 1_455 S
C556 C555 1.374 . S
C557 C554 1.499 . S
C557 C558 1.373 1_655 S
C557 C559 1.389 . S
C558 H531 0.950 . S
C558 C544 1.377 . S
C558 C557 1.373 1_455 S
C559 C543 1.377 . S
C559 C557 1.389 . S
C559 C560 1.524 . S
C560 C559 1.524 . S
C560 C561 1.397 . S
C560 C565 1.363 . S
C561 H532 0.950 . S
C561 C560 1.397 . S
C561 C562 1.334 . S
C562 H533 0.950 . S
C562 C561 1.334 . S
C562 C563 1.287 . S
C563 C562 1.287 . S
C563 C564 1.524 . S
C563 H566 0.999 . S
C564 H534 0.950 . S
C564 C563 1.524 . S
C564 C565 1.415 . S
C565 H535 0.950 . S
C565 C560 1.363 . S
C565 C564 1.415 . S
H566 C563 0.999 . S
H567 C548 0.913 . S
H568 C586 0.951 . S
H569 C588 0.951 . S
H570 C590 0.950 . S
H571 C591 0.950 . S
H572 C593 0.950 . S
H573 C596 0.950 . S
H574 C597 0.950 . S
H575 C599 0.950 . S
H576 C600 0.950 1_455 S
H577 C601 0.951 . S
H578 C603 0.951 . S
H579 C605 0.950 . S
H580 C606 0.950 . S
H581 C608 0.950 1_655 S
H582 C611 0.950 . S
H583 C612 0.950 . S
H584 C614 0.950 . S
H585 C615 0.950 . S
C586 H568 0.951 . S
C586 C587 1.366 . S
C586 C588 1.388 . S
C587 C586 1.366 . S
C587 C591 1.385 . S
C588 H569 0.951 . S
C588 C586 1.388 . S
C588 C589 1.366 . S
C589 C588 1.366 . S
C589 C590 1.414 . S
C589 C592 1.499 . S
C590 H570 0.950 . S
C590 C589 1.414 . S
C590 C591 1.374 . S
C591 H571 0.950 . S
C591 C587 1.385 . S
C591 C590 1.374 . S
C592 C589 1.499 . S
C592 C593 1.373 . S
C592 C594 1.389 . S
C593 H572 0.950 . S
C593 C592 1.373 . S
C593 C609 1.377 . S
C594 C592 1.389 . S
C594 C595 1.524 1_455 S
C594 C608 1.377 . S
C595 C594 1.524 1_655 S
C595 C596 1.397 . S
C595 C600 1.363 . S
C596 H573 0.950 . S
C596 C595 1.397 . S
C596 C597 1.334 . S
C597 H574 0.950 . S
C597 C596 1.334 . S
C597 C598 1.287 . S
C598 C597 1.287 . S
C598 C599 1.524 . S
C598 H617 0.913 . S
C599 H575 0.950 . S
C599 C598 1.524 . S
C599 C600 1.415 . S
C600 H576 0.950 1_655 S
C600 C595 1.363 . S
C600 C599 1.415 . S
C601 H577 0.951 . S
C601 C602 1.366 . S
C601 C603 1.388 . S
C602 C601 1.366 . S
C602 C606 1.385 1_655 S
C603 H578 0.951 . S
C603 C601 1.388 . S
C603 C604 1.366 1_655 S
C604 C603 1.366 1_455 S
C604 C605 1.414 . S
C604 C607 1.499 . S
C605 H579 0.950 . S
C605 C604 1.414 . S
C605 C606 1.374 . S
C606 H580 0.950 . S
C606 C602 1.385 1_455 S
C606 C605 1.374 . S
C607 C604 1.499 . S
C607 C608 1.373 . S
C607 C609 1.389 . S
C608 H581 0.950 1_455 S
C608 C594 1.377 . S
C608 C607 1.373 . S
C609 C593 1.377 . S
C609 C607 1.389 . S
C609 C610 1.524 . S
C610 C609 1.524 . S
C610 C611 1.397 . S
C610 C615 1.363 . S
C611 H582 0.950 . S
C611 C610 1.397 . S
C611 C612 1.334 . S
C612 H583 0.950 . S
C612 C611 1.334 . S
C612 C613 1.287 . S
C613 C612 1.287 . S
C613 C614 1.524 . S
C613 H616 0.999 . S
C614 H584 0.950 . S
C614 C613 1.524 . S
C614 C615 1.415 . S
C615 H585 0.950 . S
C615 C610 1.363 . S
C615 C614 1.415 . S
H616 C613 0.999 . S
H617 C598 0.913 . S
H618 C636 0.951 . S
H619 C638 0.951 . S
H620 C640 0.950 1_565 S
H621 C641 0.950 1_565 S
H622 C643 0.950 1_565 S
H623 C646 0.950 . S
H624 C647 0.950 . S
H625 C649 0.950 . S
H626 C650 0.950 . S
H627 C651 0.951 . S
H628 C653 0.951 . S
H629 C655 0.950 . S
H630 C656 0.950 . S
H631 C658 0.950 . S
H632 C661 0.950 1_545 S
H633 C662 0.950 . S
H634 C664 0.950 . S
H635 C665 0.950 . S
C636 H618 0.951 . S
C636 C637 1.366 . S
C636 C638 1.388 . S
C637 C636 1.366 . S
C637 C641 1.385 . S
C638 H619 0.951 . S
C638 C636 1.388 . S
C638 C639 1.366 . S
C639 C638 1.366 . S
C639 C640 1.414 . S
C639 C642 1.499 . S
C640 H620 0.950 1_545 S
C640 C639 1.414 . S
C640 C641 1.374 . S
C641 H621 0.950 1_545 S
C641 C637 1.385 . S
C641 C640 1.374 . S
C642 C639 1.499 . S
C642 C643 1.373 . S
C642 C644 1.389 . S
C643 H622 0.950 1_545 S
C643 C642 1.373 . S
C643 C659 1.377 1_545 S
C644 C642 1.389 . S
C644 C645 1.524 . S
C644 C658 1.377 . S
C645 C644 1.524 . S
C645 C646 1.397 . S
C645 C650 1.363 . S
C646 H623 0.950 . S
C646 C645 1.397 . S
C646 C647 1.334 . S
C647 H624 0.950 . S
C647 C646 1.334 . S
C647 C648 1.287 . S
C648 C647 1.287 . S
C648 C649 1.524 . S
C648 H667 0.913 . S
C649 H625 0.950 . S
C649 C648 1.524 . S
C649 C650 1.415 . S
C650 H626 0.950 . S
C650 C645 1.363 . S
C650 C649 1.415 . S
C651 H627 0.951 . S
C651 C652 1.376 . S
C651 C653 1.388 . S
C652 C651 1.376 . S
C652 C656 1.372 1_565 S
C653 H628 0.951 . S
C653 C651 1.388 . S
C653 C654 1.366 1_565 S
C654 C653 1.366 1_545 S
C654 C655 1.414 . S
C654 C657 1.499 . S
C655 H629 0.950 . S
C655 C654 1.414 . S
C655 C656 1.374 . S
C656 H630 0.950 . S
C656 C652 1.372 1_545 S
C656 C655 1.374 . S
C657 C654 1.499 . S
C657 C658 1.373 . S
C657 C659 1.389 1_545 S
C658 H631 0.950 . S
C658 C644 1.377 . S
C658 C657 1.373 . S
C659 C643 1.377 1_565 S
C659 C657 1.389 1_565 S
C659 C660 1.524 . S
C660 C659 1.524 . S
C660 C661 1.397 . S
C660 C665 1.363 . S
C661 H632 0.950 1_565 S
C661 C660 1.397 . S
C661 C662 1.334 . S
C662 H633 0.950 . S
C662 C661 1.334 . S
C662 C663 1.287 . S
C663 C662 1.287 . S
C663 C664 1.524 . S
C663 H666 0.999 . S
C664 H634 0.950 . S
C664 C663 1.524 . S
C664 C665 1.415 . S
C665 H635 0.950 . S
C665 C660 1.363 . S
C665 C664 1.415 . S
H666 C663 0.999 . S
H667 C648 0.913 . S
H668 C686 0.951 . S
H669 C688 0.951 . S
H670 C690 0.950 . S
H671 C691 0.950 . S
H672 C693 0.950 . S
H673 C696 0.950 . S
H674 C697 0.950 . S
H675 C699 0.950 . S
H676 C700 0.950 . S
H677 C701 0.951 . S
H678 C703 0.951 . S
H679 C705 0.950 . S
H680 C706 0.950 . S
H681 C708 0.950 . S
H682 C711 0.950 . S
H683 C712 0.950 . S
H684 C714 0.950 . S
H685 C715 0.950 . S
C686 H668 0.951 . S
C686 C687 1.366 . S
C686 C688 1.388 . S
C687 C686 1.366 . S
C687 C691 1.385 . S
C688 H669 0.951 . S
C688 C686 1.388 . S
C688 C689 1.366 . S
C689 C688 1.366 . S
C689 C690 1.414 . S
C689 C692 1.499 . S
C690 H670 0.950 . S
C690 C689 1.414 . S
C690 C691 1.374 . S
C691 H671 0.950 . S
C691 C687 1.385 . S
C691 C690 1.374 . S
C692 C689 1.499 . S
C692 C693 1.373 . S
C692 C694 1.389 . S
C693 H672 0.950 . S
C693 C692 1.373 . S
C693 C709 1.377 . S
C694 C692 1.389 . S
C694 C695 1.524 . S
C694 C708 1.377 . S
C695 C694 1.524 . S
C695 C696 1.397 . S
C695 C700 1.363 . S
C696 H673 0.950 . S
C696 C695 1.397 . S
C696 C697 1.334 . S
C697 H674 0.950 . S
C697 C696 1.334 . S
C697 C698 1.287 . S
C698 C697 1.287 . S
C698 C699 1.524 . S
C698 H717 0.913 . S
C699 H675 0.950 . S
C699 C698 1.524 . S
C699 C700 1.415 . S
C700 H676 0.950 . S
C700 C695 1.363 . S
C700 C699 1.415 . S
C701 H677 0.951 . S
C701 C702 1.366 . S
C701 C703 1.388 . S
C702 C701 1.366 . S
C702 C706 1.385 . S
C703 H678 0.951 . S
C703 C701 1.388 . S
C703 C704 1.366 . S
C704 C703 1.366 . S
C704 C705 1.414 . S
C704 C707 1.499 . S
C705 H679 0.950 . S
C705 C704 1.414 . S
C705 C706 1.374 . S
C706 H680 0.950 . S
C706 C702 1.385 . S
C706 C705 1.374 . S
C707 C704 1.499 . S
C707 C708 1.373 . S
C707 C709 1.389 . S
C708 H681 0.950 . S
C708 C694 1.377 . S
C708 C707 1.373 . S
C709 C693 1.377 . S
C709 C707 1.389 . S
C709 C710 1.524 . S
C710 C709 1.524 . S
C710 C711 1.397 . S
C710 C715 1.363 . S
C711 H682 0.950 . S
C711 C710 1.397 . S
C711 C712 1.334 . S
C712 H683 0.950 . S
C712 C711 1.334 . S
C712 C713 1.287 . S
C713 C712 1.287 . S
C713 C714 1.524 . S
C713 H716 0.999 . S
C714 H684 0.950 . S
C714 C713 1.524 . S
C714 C715 1.415 . S
C715 H685 0.950 . S
C715 C710 1.363 . S
C715 C714 1.415 . S
H716 C713 0.999 . S
H717 C698 0.913 . S
H718 C736 0.951 . S
H719 C738 0.951 . S
H720 C740 0.950 . S
H721 C741 0.950 . S
H722 C743 0.950 . S
H723 C746 0.950 . S
H724 C747 0.950 . S
H725 C749 0.950 . S
H726 C750 0.950 . S
H727 C751 0.951 . S
H728 C753 0.951 . S
H729 C755 0.950 . S
H730 C756 0.950 . S
H731 C758 0.950 . S
H732 C761 0.950 . S
H733 C762 0.950 . S
H734 C764 0.950 . S
H735 C765 0.950 . S
C736 H718 0.951 . S
C736 C737 1.366 . S
C736 C738 1.388 . S
C737 C736 1.366 . S
C737 C741 1.385 . S
C738 H719 0.951 . S
C738 C736 1.388 . S
C738 C739 1.366 . S
C739 C738 1.366 . S
C739 C740 1.414 . S
C739 C742 1.499 . S
C740 H720 0.950 . S
C740 C739 1.414 . S
C740 C741 1.374 . S
C741 H721 0.950 . S
C741 C737 1.385 . S
C741 C740 1.374 . S
C742 C739 1.499 . S
C742 C743 1.373 . S
C742 C744 1.389 . S
C743 H722 0.950 . S
C743 C742 1.373 . S
C743 C759 1.377 . S
C744 C742 1.389 . S
C744 C745 1.524 . S
C744 C758 1.377 . S
C745 C744 1.524 . S
C745 C746 1.397 . S
C745 C750 1.363 . S
C746 H723 0.950 . S
C746 C745 1.397 . S
C746 C747 1.334 . S
C747 H724 0.950 . S
C747 C746 1.334 . S
C747 C748 1.287 . S
C748 C747 1.287 . S
C748 C749 1.524 . S
C748 H767 0.913 . S
C749 H725 0.950 . S
C749 C748 1.524 . S
C749 C750 1.415 . S
C750 H726 0.950 . S
C750 C745 1.363 . S
C750 C749 1.415 . S
C751 H727 0.951 . S
C751 C752 1.366 . S
C751 C753 1.388 . S
C752 C751 1.366 . S
C752 C756 1.385 . S
C753 H728 0.951 . S
C753 C751 1.388 . S
C753 C754 1.366 . S
C754 C753 1.366 . S
C754 C755 1.414 . S
C754 C757 1.499 . S
C755 H729 0.950 . S
C755 C754 1.414 . S
C755 C756 1.374 . S
C756 H730 0.950 . S
C756 C752 1.385 . S
C756 C755 1.374 . S
C757 C754 1.499 . S
C757 C758 1.373 . S
C757 C759 1.389 . S
C758 H731 0.950 . S
C758 C744 1.377 . S
C758 C757 1.373 . S
C759 C743 1.377 . S
C759 C757 1.389 . S
C759 C760 1.524 . S
C760 C759 1.524 . S
C760 C761 1.397 . S
C760 C765 1.363 . S
C761 H732 0.950 . S
C761 C760 1.397 . S
C761 C762 1.334 . S
C762 H733 0.950 . S
C762 C761 1.334 . S
C762 C763 1.287 . S
C763 C762 1.287 . S
C763 C764 1.524 . S
C763 H766 0.999 . S
C764 H734 0.950 . S
C764 C763 1.524 . S
C764 C765 1.415 . S
C765 H735 0.950 . S
C765 C760 1.363 . S
C765 C764 1.415 . S
H766 C763 0.999 . S
H767 C748 0.913 . S
H768 C786 0.951 1_554 S
H769 C788 0.951 . S
H770 C790 0.950 1_455 S
H771 C791 0.950 1_455 S
H772 C793 0.950 . S
H773 C796 0.950 . S
H774 C797 0.950 . S
H775 C799 0.950 . S
H776 C800 0.950 . S
H777 C801 0.951 . S
H778 C803 0.951 . S
H779 C805 0.950 . S
H780 C806 0.950 . S
H781 C808 0.950 . S
H782 C811 0.950 . S
H783 C812 0.950 . S
H784 C814 0.950 . S
H785 C815 0.950 . S
C786 H768 0.951 1_556 S
C786 C787 1.366 . S
C786 C788 1.388 . S
C787 C786 1.366 . S
C787 C791 1.385 . S
C788 H769 0.951 . S
C788 C786 1.388 . S
C788 C789 1.366 . S
C789 C788 1.366 . S
C789 C790 1.414 . S
C789 C792 1.499 . S
C790 H770 0.950 1_655 S
C790 C789 1.414 . S
C790 C791 1.374 . S
C791 H771 0.950 1_655 S
C791 C787 1.385 . S
C791 C790 1.374 . S
C792 C789 1.499 . S
C792 C793 1.373 1_655 S
C792 C794 1.389 . S
C793 H772 0.950 . S
C793 C792 1.373 1_455 S
C793 C809 1.377 . S
C794 C792 1.389 . S
C794 C795 1.524 . S
C794 C808 1.377 . S
C795 C794 1.524 . S
C795 C796 1.397 . S
C795 C800 1.363 . S
C796 H773 0.950 . S
C796 C795 1.397 . S
C796 C797 1.334 . S
C797 H774 0.950 . S
C797 C796 1.334 . S
C797 C798 1.287 . S
C798 C797 1.287 . S
C798 C799 1.524 . S
C798 H817 0.913 . S
C799 H775 0.950 . S
C799 C798 1.524 . S
C799 C800 1.415 . S
C800 H776 0.950 . S
C800 C795 1.363 . S
C800 C799 1.415 . S
C801 H777 0.951 . S
C801 C802 1.366 . S
C801 C803 1.388 . S
C802 C801 1.366 . S
C802 C806 1.385 1_455 S
C803 H778 0.951 . S
C803 C801 1.388 . S
C803 C804 1.364 1_455 S
C804 C803 1.364 1_655 S
C804 C805 1.415 . S
C804 C807 1.499 . S
C805 H779 0.950 . S
C805 C804 1.415 . S
C805 C806 1.374 . S
C806 H780 0.950 . S
C806 C802 1.385 1_655 S
C806 C805 1.374 . S
C807 C804 1.499 . S
C807 C808 1.373 . S
C807 C809 1.389 1_655 S
C808 H781 0.950 . S
C808 C794 1.377 . S
C808 C807 1.373 . S
C809 C793 1.377 . S
C809 C807 1.389 1_455 S
C809 C810 1.524 . S
C810 C809 1.524 . S
C810 C811 1.397 . S
C810 C815 1.363 . S
C811 H782 0.950 . S
C811 C810 1.397 . S
C811 C812 1.334 . S
C812 H783 0.950 . S
C812 C811 1.334 . S
C812 C813 1.287 . S
C813 C812 1.287 . S
C813 C814 1.524 . S
C813 H816 0.999 . S
C814 H784 0.950 . S
C814 C813 1.524 . S
C814 C815 1.415 . S
C815 H785 0.950 . S
C815 C810 1.363 . S
C815 C814 1.415 . S
H816 C813 0.999 . S
H817 C798 0.913 . S
H818 C836 0.951 1_545 S
H819 C838 0.988 . S
H820 C840 0.950 . S
H821 C841 0.950 1_554 S
H822 C843 0.950 . S
H823 C846 0.944 1_554 S
H824 C847 0.950 . S
H825 C849 0.950 . S
H826 C850 0.950 . S
H827 C851 0.951 . S
H828 C853 0.951 . S
H829 C855 0.950 . S
H830 C856 0.950 . S
H831 C858 0.950 . S
H832 C861 0.950 . S
H833 C862 0.950 . S
H834 C864 0.950 . S
H835 C865 0.950 . S
C836 H818 0.951 1_565 S
C836 C837 1.366 . S
C836 C838 1.381 1_565 S
C837 C836 1.366 . S
C837 C841 1.385 . S
C838 H819 0.988 . S
C838 C836 1.381 1_545 S
C838 C839 1.338 1_545 S
C839 C838 1.338 1_565 S
C839 C840 1.414 . S
C839 C842 1.499 . S
C840 H820 0.950 . S
C840 C839 1.414 . S
C840 C841 1.374 . S
C841 H821 0.950 1_556 S
C841 C837 1.385 . S
C841 C840 1.374 . S
C842 C839 1.499 . S
C842 C843 1.373 . S
C842 C844 1.389 1_565 S
C843 H822 0.950 . S
C843 C842 1.373 . S
C843 C859 1.377 . S
C844 C842 1.389 1_545 S
C844 C845 1.524 . S
C844 C858 1.377 . S
C845 C844 1.524 . S
C845 C846 1.397 . S
C845 C850 1.363 . S
C846 H823 0.944 1_556 S
C846 C845 1.397 . S
C846 C847 1.334 1_556 S
C847 H824 0.950 . S
C847 C846 1.334 1_554 S
C847 C848 1.287 1_554 S
C848 C847 1.287 1_556 S
C848 C849 1.524 . S
C848 H867 0.913 1_556 S
C849 H825 0.950 . S
C849 C848 1.524 . S
C849 C850 1.415 . S
C850 H826 0.950 . S
C850 C845 1.363 . S
C850 C849 1.415 . S
C851 H827 0.951 . S
C851 C852 1.366 1_565 S
C851 C853 1.388 . S
C852 C851 1.366 1_545 S
C852 C856 1.385 . S
C853 H828 0.951 . S
C853 C851 1.388 . S
C853 C854 1.367 1_565 S
C854 C853 1.367 1_545 S
C854 C855 1.412 . S
C854 C857 1.499 1_545 S
C855 H829 0.950 . S
C855 C854 1.412 . S
C855 C856 1.374 . S
C856 H830 0.950 . S
C856 C852 1.385 . S
C856 C855 1.374 . S
C857 C854 1.499 1_565 S
C857 C858 1.373 1_565 S
C857 C859 1.389 . S
C858 H831 0.950 . S
C858 C844 1.377 . S
C858 C857 1.373 1_545 S
C859 C843 1.377 . S
C859 C857 1.389 . S
C859 C860 1.524 . S
C860 C859 1.524 . S
C860 C861 1.397 . S
C860 C865 1.363 . S
C861 H832 0.950 . S
C861 C860 1.397 . S
C861 C862 1.334 . S
C862 H833 0.950 . S
C862 C861 1.334 . S
C862 C863 1.287 . S
C863 C862 1.287 . S
C863 C864 1.524 . S
C863 H866 0.999 . S
C864 H834 0.950 . S
C864 C863 1.524 . S
C864 C865 1.415 . S
C865 H835 0.950 . S
C865 C860 1.363 . S
C865 C864 1.415 . S
H866 C863 0.999 . S
H867 C848 0.913 1_554 S
H868 C886 0.951 . S
H869 C888 0.951 . S
H870 C890 0.950 . S
H871 C891 0.950 . S
H872 C893 0.950 . S
H873 C896 0.950 . S
H874 C897 0.950 . S
H875 C899 0.950 . S
H876 C900 0.950 . S
H877 C901 0.951 . S
H878 C903 0.951 . S
H879 C905 0.950 . S
H880 C906 0.950 . S
H881 C908 0.950 . S
H882 C911 0.950 . S
H883 C912 0.950 . S
H884 C914 0.950 . S
H885 C915 0.950 . S
C886 H868 0.951 . S
C886 C887 1.366 . S
C886 C888 1.388 . S
C887 C886 1.366 . S
C887 C891 1.385 . S
C888 H869 0.951 . S
C888 C886 1.388 . S
C888 C889 1.366 . S
C889 C888 1.366 . S
C889 C890 1.414 . S
C889 C892 1.499 . S
C890 H870 0.950 . S
C890 C889 1.414 . S
C890 C891 1.374 . S
C891 H871 0.950 . S
C891 C887 1.385 . S
C891 C890 1.374 . S
C892 C889 1.499 . S
C892 C893 1.373 . S
C892 C894 1.389 . S
C893 H872 0.950 . S
C893 C892 1.373 . S
C893 C909 1.377 . S
C894 C892 1.389 . S
C894 C895 1.524 . S
C894 C908 1.377 . S
C895 C894 1.524 . S
C895 C896 1.397 1_556 S
C895 C900 1.363 . S
C896 H873 0.950 . S
C896 C895 1.397 1_554 S
C896 C897 1.334 . S
C897 H874 0.950 . S
C897 C896 1.334 . S
C897 C898 1.287 . S
C898 C897 1.287 . S
C898 C899 1.524 . S
C898 H917 0.913 . S
C899 H875 0.950 . S
C899 C898 1.524 . S
C899 C900 1.415 1_554 S
C900 H876 0.950 . S
C900 C895 1.363 . S
C900 C899 1.415 1_556 S
C901 H877 0.951 . S
C901 C902 1.366 . S
C901 C903 1.388 . S
C902 C901 1.366 . S
C902 C906 1.385 . S
C903 H878 0.951 . S
C903 C901 1.388 . S
C903 C904 1.366 . S
C904 C903 1.366 . S
C904 C905 1.414 . S
C904 C907 1.499 . S
C905 H879 0.950 . S
C905 C904 1.414 . S
C905 C906 1.374 . S
C906 H880 0.950 . S
C906 C902 1.385 . S
C906 C905 1.374 . S
C907 C904 1.499 . S
C907 C908 1.373 . S
C907 C909 1.389 . S
C908 H881 0.950 . S
C908 C894 1.377 . S
C908 C907 1.373 . S
C909 C893 1.377 . S
C909 C907 1.389 . S
C909 C910 1.524 . S
C910 C909 1.524 . S
C910 C911 1.397 . S
C910 C915 1.363 . S
C911 H882 0.950 . S
C911 C910 1.397 . S
C911 C912 1.334 . S
C912 H883 0.950 . S
C912 C911 1.334 . S
C912 C913 1.287 . S
C913 C912 1.287 . S
C913 C914 1.524 . S
C913 H916 0.999 . S
C914 H884 0.950 . S
C914 C913 1.524 . S
C914 C915 1.415 . S
C915 H885 0.950 . S
C915 C910 1.363 . S
C915 C914 1.415 . S
H916 C913 0.999 . S
H917 C898 0.913 . S
H918 C936 0.951 1_554 S
H919 C938 0.951 . S
H920 C940 0.950 . S
H921 C941 0.950 . S
H922 C943 0.950 . S
H923 C946 0.950 . S
H924 C947 0.950 . S
H925 C949 0.950 . S
H926 C950 0.950 . S
H927 C951 0.951 . S
H928 C953 0.951 . S
H929 C955 0.950 . S
H930 C956 0.950 . S
H931 C958 0.950 . S
H932 C961 0.950 . S
H933 C962 0.950 . S
H934 C964 0.950 . S
H935 C965 0.950 . S
C936 H918 0.951 1_556 S
C936 C937 1.366 . S
C936 C938 1.388 . S
C937 C936 1.366 . S
C937 C941 1.385 . S
C938 H919 0.951 . S
C938 C936 1.388 . S
C938 C939 1.366 . S
C939 C938 1.366 . S
C939 C940 1.414 . S
C939 C942 1.499 . S
C940 H920 0.950 . S
C940 C939 1.414 . S
C940 C941 1.374 . S
C941 H921 0.950 . S
C941 C937 1.385 . S
C941 C940 1.374 . S
C942 C939 1.499 . S
C942 C943 1.373 . S
C942 C944 1.389 . S
C943 H922 0.950 . S
C943 C942 1.373 . S
C943 C959 1.377 . S
C944 C942 1.389 . S
C944 C945 1.524 . S
C944 C958 1.377 . S
C945 C944 1.524 . S
C945 C946 1.397 . S
C945 C950 1.363 . S
C946 H923 0.950 . S
C946 C945 1.397 . S
C946 C947 1.334 . S
C947 H924 0.950 . S
C947 C946 1.334 . S
C947 C948 1.287 . S
C948 C947 1.287 . S
C948 C949 1.524 . S
C948 H967 0.913 . S
C949 H925 0.950 . S
C949 C948 1.524 . S
C949 C950 1.415 . S
C950 H926 0.950 . S
C950 C945 1.363 . S
C950 C949 1.415 . S
C951 H927 0.951 . S
C951 C952 1.366 . S
C951 C953 1.388 . S
C952 C951 1.366 . S
C952 C956 1.385 . S
C953 H928 0.951 . S
C953 C951 1.388 . S
C953 C954 1.366 . S
C954 C953 1.366 . S
C954 C955 1.414 . S
C954 C957 1.499 . S
C955 H929 0.950 . S
C955 C954 1.414 . S
C955 C956 1.374 . S
C956 H930 0.950 . S
C956 C952 1.385 . S
C956 C955 1.374 . S
C957 C954 1.499 . S
C957 C958 1.373 . S
C957 C959 1.389 . S
C958 H931 0.950 . S
C958 C944 1.377 . S
C958 C957 1.373 . S
C959 C943 1.377 . S
C959 C957 1.389 . S
C959 C960 1.524 . S
C960 C959 1.524 . S
C960 C961 1.397 . S
C960 C965 1.363 . S
C961 H932 0.950 . S
C961 C960 1.397 . S
C961 C962 1.334 . S
C962 H933 0.950 . S
C962 C961 1.334 . S
C962 C963 1.287 . S
C963 C962 1.287 . S
C963 C964 1.524 . S
C963 H966 0.999 . S
C964 H934 0.950 . S
C964 C963 1.524 . S
C964 C965 1.415 . S
C965 H935 0.950 . S
C965 C960 1.363 . S
C965 C964 1.415 . S
H966 C963 0.999 . S
H967 C948 0.913 . S
H968 C986 0.951 1_655 S
H969 C988 0.951 1_655 S
H970 C990 0.952 . S
H971 C991 0.950 . S
H972 C993 0.950 . S
H973 C996 0.950 1_455 S
H974 C997 0.950 . S
H975 C999 0.950 . S
H976 C1000 0.950 . S
H977 C1001 0.951 . S
H978 C1003 0.951 . S
H979 C1005 0.950 . S
H980 C1006 0.950 . S
H981 C1008 0.950 1_655 S
H982 C1011 0.950 . S
H983 C1012 0.950 . S
H984 C1014 0.950 . S
H985 C1015 0.950 . S
C986 H968 0.951 1_455 S
C986 C987 1.366 . S
C986 C988 1.388 1_554 S
C987 C986 1.366 . S
C987 C991 1.385 . S
C988 H969 0.951 1_455 S
C988 C986 1.388 1_556 S
C988 C989 1.366 . S
C989 C988 1.366 . S
C989 C990 1.421 . S
C989 C992 1.499 . S
C990 H970 0.952 . S
C990 C989 1.421 . S
C990 C991 1.365 1_556 S
C991 H971 0.950 . S
C991 C987 1.385 . S
C991 C990 1.365 1_554 S
C992 C989 1.499 . S
C992 C993 1.373 . S
C992 C994 1.389 . S
C993 H972 0.950 . S
C993 C992 1.373 . S
C993 C1009 1.377 . S
C994 C992 1.389 . S
C994 C995 1.524 1_455 S
C994 C1008 1.377 . S
C995 C994 1.524 1_655 S
C995 C996 1.397 1_556 S
C995 C1000 1.363 . S
C996 H973 0.950 1_655 S
C996 C995 1.397 1_554 S
C996 C997 1.334 . S
C997 H974 0.950 . S
C997 C996 1.334 . S
C997 C998 1.287 . S
C998 C997 1.287 . S
C998 C999 1.524 . S
C998 H1017 0.913 . S
C999 H975 0.950 . S
C999 C998 1.524 . S
C999 C1000 1.415 1_554 S
C1000 H976 0.950 . S
C1000 C995 1.363 . S
C1000 C999 1.415 1_556 S
C1001 H977 0.951 . S
C1001 C1002 1.366 . S
C1001 C1003 1.388 . S
C1002 C1001 1.366 . S
C1002 C1006 1.385 1_455 S
C1003 H978 0.951 . S
C1003 C1001 1.388 . S
C1003 C1004 1.366 . S
C1004 C1003 1.366 . S
C1004 C1005 1.414 1_455 S
C1004 C1007 1.499 . S
C1005 H979 0.950 . S
C1005 C1004 1.414 1_655 S
C1005 C1006 1.374 . S
C1006 H980 0.950 . S
C1006 C1002 1.385 1_655 S
C1006 C1005 1.374 . S
C1007 C1004 1.499 . S
C1007 C1008 1.373 . S
C1007 C1009 1.389 . S
C1008 H981 0.950 1_455 S
C1008 C994 1.377 . S
C1008 C1007 1.373 . S
C1009 C993 1.377 . S
C1009 C1007 1.389 . S
C1009 C1010 1.524 . S
C1010 C1009 1.524 . S
C1010 C1011 1.397 . S
C1010 C1015 1.363 . S
C1011 H982 0.950 . S
C1011 C1010 1.397 . S
C1011 C1012 1.334 . S
C1012 H983 0.950 . S
C1012 C1011 1.334 . S
C1012 C1013 1.287 . S
C1013 C1012 1.287 . S
C1013 C1014 1.524 . S
C1013 H1016 0.999 . S
C1014 H984 0.950 . S
C1014 C1013 1.524 . S
C1014 C1015 1.415 . S
C1015 H985 0.950 . S
C1015 C1010 1.363 . S
C1015 C1014 1.415 . S
H1016 C1013 0.999 . S
H1017 C998 0.913 . S
H1018 C1036 0.951 . S
H1019 C1038 0.951 . S
H1020 C1040 0.950 . S
H1021 C1041 0.950 . S
H1022 C1043 0.950 . S
H1023 C1046 0.950 . S
H1024 C1047 0.950 1_554 S
H1025 C1049 0.950 . S
H1026 C1050 0.950 . S
H1027 C1051 0.951 . S
H1028 C1053 0.951 . S
H1029 C1055 0.950 . S
H1030 C1056 0.950 . S
H1031 C1058 0.950 1_565 S
H1032 C1061 0.950 . S
H1033 C1062 0.950 . S
H1034 C1064 0.950 . S
H1035 C1065 0.950 . S
C1036 H1018 0.951 . S
C1036 C1037 1.366 1_556 S
C1036 C1038 1.388 . S
C1037 C1036 1.366 1_554 S
C1037 C1041 1.385 . S
C1038 H1019 0.951 . S
C1038 C1036 1.388 . S
C1038 C1039 1.366 . S
C1039 C1038 1.366 . S
C1039 C1040 1.414 1_556 S
C1039 C1042 1.499 . S
C1040 H1020 0.950 . S
C1040 C1039 1.414 1_554 S
C1040 C1041 1.374 . S
C1041 H1021 0.950 . S
C1041 C1037 1.385 . S
C1041 C1040 1.374 . S
C1042 C1039 1.499 . S
C1042 C1043 1.373 . S
C1042 C1044 1.389 . S
C1043 H1022 0.950 . S
C1043 C1042 1.373 . S
C1043 C1059 1.377 . S
C1044 C1042 1.389 . S
C1044 C1045 1.524 1_545 S
C1044 C1058 1.377 . S
C1045 C1044 1.524 1_565 S
C1045 C1046 1.397 . S
C1045 C1050 1.363 . S
C1046 H1023 0.950 . S
C1046 C1045 1.397 . S
C1046 C1047 1.334 . S
C1047 H1024 0.950 1_556 S
C1047 C1046 1.334 . S
C1047 C1048 1.287 . S
C1048 C1047 1.287 . S
C1048 C1049 1.524 . S
C1048 H1067 0.913 . S
C1049 H1025 0.950 . S
C1049 C1048 1.524 . S
C1049 C1050 1.415 . S
C1050 H1026 0.950 . S
C1050 C1045 1.363 . S
C1050 C1049 1.415 . S
C1051 H1027 0.951 . S
C1051 C1052 1.366 . S
C1051 C1053 1.388 . S
C1052 C1051 1.366 . S
C1052 C1056 1.385 . S
C1053 H1028 0.951 . S
C1053 C1051 1.388 . S
C1053 C1054 1.366 . S
C1054 C1053 1.366 . S
C1054 C1055 1.414 . S
C1054 C1057 1.499 . S
C1055 H1029 0.950 . S
C1055 C1054 1.414 . S
C1055 C1056 1.374 . S
C1056 H1030 0.950 . S
C1056 C1052 1.385 . S
C1056 C1055 1.374 . S
C1057 C1054 1.499 . S
C1057 C1058 1.373 . S
C1057 C1059 1.389 . S
C1058 H1031 0.950 1_545 S
C1058 C1044 1.377 . S
C1058 C1057 1.373 . S
C1059 C1043 1.377 . S
C1059 C1057 1.389 . S
C1059 C1060 1.524 . S
C1060 C1059 1.524 . S
C1060 C1061 1.397 . S
C1060 C1065 1.363 . S
C1061 H1032 0.950 . S
C1061 C1060 1.397 . S
C1061 C1062 1.334 . S
C1062 H1033 0.950 . S
C1062 C1061 1.334 . S
C1062 C1063 1.287 . S
C1063 C1062 1.287 . S
C1063 C1064 1.524 . S
C1063 H1066 0.999 . S
C1064 H1034 0.950 . S
C1064 C1063 1.524 . S
C1064 C1065 1.415 . S
C1065 H1035 0.950 . S
C1065 C1060 1.363 . S
C1065 C1064 1.415 . S
H1066 C1063 0.999 . S
H1067 C1048 0.913 . S
H1068 C1086 0.951 . S
H1069 C1088 0.951 . S
H1070 C1090 0.950 . S
H1071 C1091 0.950 . S
H1072 C1093 0.950 1_554 S
H1073 C1096 0.950 . S
H1074 C1097 0.950 . S
H1075 C1099 0.950 . S
H1076 C1100 0.950 . S
H1077 C1101 0.951 . S
H1078 C1103 0.951 . S
H1079 C1105 0.950 . S
H1080 C1106 0.950 . S
H1081 C1108 0.950 . S
H1082 C1111 0.950 . S
H1083 C1112 0.950 . S
H1084 C1114 0.950 . S
H1085 C1115 0.950 . S
C1086 H1068 0.951 . S
C1086 C1087 1.366 1_556 S
C1086 C1088 1.388 . S
C1087 C1086 1.366 1_554 S
C1087 C1091 1.385 . S
C1088 H1069 0.951 . S
C1088 C1086 1.388 . S
C1088 C1089 1.366 . S
C1089 C1088 1.366 . S
C1089 C1090 1.414 1_556 S
C1089 C1092 1.499 . S
C1090 H1070 0.950 . S
C1090 C1089 1.414 1_554 S
C1090 C1091 1.374 . S
C1091 H1071 0.950 . S
C1091 C1087 1.385 . S
C1091 C1090 1.374 . S
C1092 C1089 1.499 . S
C1092 C1093 1.373 . S
C1092 C1094 1.389 . S
C1093 H1072 0.950 1_556 S
C1093 C1092 1.373 . S
C1093 C1109 1.377 . S
C1094 C1092 1.389 . S
C1094 C1095 1.524 . S
C1094 C1108 1.377 . S
C1095 C1094 1.524 . S
C1095 C1096 1.397 . S
C1095 C1100 1.363 . S
C1096 H1073 0.950 . S
C1096 C1095 1.397 . S
C1096 C1097 1.334 . S
C1097 H1074 0.950 . S
C1097 C1096 1.334 . S
C1097 C1098 1.287 . S
C1098 C1097 1.287 . S
C1098 C1099 1.524 . S
C1098 H1117 0.913 . S
C1099 H1075 0.950 . S
C1099 C1098 1.524 . S
C1099 C1100 1.415 . S
C1100 H1076 0.950 . S
C1100 C1095 1.363 . S
C1100 C1099 1.415 . S
C1101 H1077 0.951 . S
C1101 C1102 1.366 . S
C1101 C1103 1.388 . S
C1102 C1101 1.366 . S
C1102 C1106 1.385 . S
C1103 H1078 0.951 . S
C1103 C1101 1.388 . S
C1103 C1104 1.366 . S
C1104 C1103 1.366 . S
C1104 C1105 1.414 . S
C1104 C1107 1.499 . S
C1105 H1079 0.950 . S
C1105 C1104 1.414 . S
C1105 C1106 1.374 . S
C1106 H1080 0.950 . S
C1106 C1102 1.385 . S
C1106 C1105 1.374 . S
C1107 C1104 1.499 . S
C1107 C1108 1.373 . S
C1107 C1109 1.389 . S
C1108 H1081 0.950 . S
C1108 C1094 1.377 . S
C1108 C1107 1.373 . S
C1109 C1093 1.377 . S
C1109 C1107 1.389 . S
C1109 C1110 1.524 . S
C1110 C1109 1.524 . S
C1110 C1111 1.397 . S
C1110 C1115 1.363 1_556 S
C1111 H1082 0.950 . S
C1111 C1110 1.397 . S
C1111 C1112 1.334 . S
C1112 H1083 0.950 . S
C1112 C1111 1.334 . S
C1112 C1113 1.287 1_556 S
C1113 C1112 1.287 1_554 S
C1113 C1114 1.524 . S
C1113 H1116 0.999 . S
C1114 H1084 0.950 . S
C1114 C1113 1.524 . S
C1114 C1115 1.415 . S
C1115 H1085 0.950 . S
C1115 C1110 1.363 1_554 S
C1115 C1114 1.415 . S
H1116 C1113 0.999 . S
H1117 C1098 0.913 . S
H1118 C1136 0.951 . S
H1119 C1138 0.951 . S
H1120 C1140 0.950 . S
H1121 C1141 0.950 . S
H1122 C1143 0.950 . S
H1123 C1146 0.950 . S
H1124 C1147 0.950 . S
H1125 C1149 0.950 . S
H1126 C1150 0.950 . S
H1127 C1151 0.951 . S
H1128 C1153 0.951 . S
H1129 C1155 0.950 . S
H1130 C1156 0.950 . S
H1131 C1158 0.950 . S
H1132 C1161 0.950 . S
H1133 C1162 0.950 . S
H1134 C1164 0.950 1_554 S
H1135 C1165 0.941 1_554 S
C1136 H1118 0.951 . S
C1136 C1137 1.366 1_556 S
C1136 C1138 1.388 . S
C1137 C1136 1.366 1_554 S
C1137 C1141 1.385 . S
C1138 H1119 0.951 . S
C1138 C1136 1.388 . S
C1138 C1139 1.366 . S
C1139 C1138 1.366 . S
C1139 C1140 1.414 1_556 S
C1139 C1142 1.499 . S
C1140 H1120 0.950 . S
C1140 C1139 1.414 1_554 S
C1140 C1141 1.374 . S
C1141 H1121 0.950 . S
C1141 C1137 1.385 . S
C1141 C1140 1.374 . S
C1142 C1139 1.499 . S
C1142 C1143 1.373 . S
C1142 C1144 1.389 . S
C1143 H1122 0.950 . S
C1143 C1142 1.373 . S
C1143 C1159 1.377 . S
C1144 C1142 1.389 . S
C1144 C1145 1.524 . S
C1144 C1158 1.377 . S
C1145 C1144 1.524 . S
C1145 C1146 1.397 . S
C1145 C1150 1.363 . S
C1146 H1123 0.950 . S
C1146 C1145 1.397 . S
C1146 C1147 1.334 . S
C1147 H1124 0.950 . S
C1147 C1146 1.334 . S
C1147 C1148 1.287 . S
C1148 C1147 1.287 . S
C1148 C1149 1.524 . S
C1148 H1167 0.913 . S
C1149 H1125 0.950 . S
C1149 C1148 1.524 . S
C1149 C1150 1.415 . S
C1150 H1126 0.950 . S
C1150 C1145 1.363 . S
C1150 C1149 1.415 . S
C1151 H1127 0.951 . S
C1151 C1152 1.366 . S
C1151 C1153 1.388 . S
C1152 C1151 1.366 . S
C1152 C1156 1.385 . S
C1153 H1128 0.951 . S
C1153 C1151 1.388 . S
C1153 C1154 1.366 . S
C1154 C1153 1.366 . S
C1154 C1155 1.414 . S
C1154 C1157 1.499 . S
C1155 H1129 0.950 . S
C1155 C1154 1.414 . S
C1155 C1156 1.374 . S
C1156 H1130 0.950 . S
C1156 C1152 1.385 . S
C1156 C1155 1.374 . S
C1157 C1154 1.499 . S
C1157 C1158 1.373 . S
C1157 C1159 1.389 . S
C1158 H1131 0.950 . S
C1158 C1144 1.377 . S
C1158 C1157 1.373 . S
C1159 C1143 1.377 . S
C1159 C1157 1.389 . S
C1159 C1160 1.524 . S
C1160 C1159 1.524 . S
C1160 C1161 1.397 . S
C1160 C1165 1.363 . S
C1161 H1132 0.950 . S
C1161 C1160 1.397 . S
C1161 C1162 1.334 . S
C1162 H1133 0.950 . S
C1162 C1161 1.334 . S
C1162 C1163 1.287 . S
C1163 C1162 1.287 . S
C1163 C1164 1.524 . S
C1163 H1166 0.999 . S
C1164 H1134 0.950 1_556 S
C1164 C1163 1.524 . S
C1164 C1165 1.415 . S
C1165 H1135 0.941 1_556 S
C1165 C1160 1.363 . S
C1165 C1164 1.415 . S
H1166 C1163 0.999 . S
H1167 C1148 0.913 . S
H1168 C1186 0.954 . S
H1169 C1188 0.951 1_455 S
H1170 C1190 0.950 . S
H1171 C1191 0.950 . S
H1172 C1193 0.950 . S
H1173 C1196 0.950 . S
H1174 C1197 0.950 . S
H1175 C1199 0.950 . S
H1176 C1200 0.950 . S
H1177 C1201 0.951 . S
H1178 C1203 0.951 . S
H1179 C1205 0.950 1_455 S
H1180 C1206 0.952 . S
H1181 C1208 0.950 . S
H1182 C1211 0.950 . S
H1183 C1212 0.950 . S
H1184 C1214 0.950 . S
H1185 C1215 0.950 . S
C1186 H1168 0.954 . S
C1186 C1187 1.366 . S
C1186 C1188 1.388 . S
C1187 C1186 1.366 . S
C1187 C1191 1.385 . S
C1188 H1169 0.951 1_655 S
C1188 C1186 1.388 . S
C1188 C1189 1.366 . S
C1189 C1188 1.366 . S
C1189 C1190 1.414 . S
C1189 C1192 1.499 . S
C1190 H1170 0.950 . S
C1190 C1189 1.414 . S
C1190 C1191 1.374 . S
C1191 H1171 0.950 . S
C1191 C1187 1.385 . S
C1191 C1190 1.374 . S
C1192 C1189 1.499 . S
C1192 C1193 1.373 . S
C1192 C1194 1.389 1_655 S
C1193 H1172 0.950 . S
C1193 C1192 1.373 . S
C1193 C1209 1.377 . S
C1194 C1192 1.389 1_455 S
C1194 C1195 1.524 . S
C1194 C1208 1.377 . S
C1195 C1194 1.524 . S
C1195 C1196 1.397 . S
C1195 C1200 1.363 . S
C1196 H1173 0.950 . S
C1196 C1195 1.397 . S
C1196 C1197 1.334 . S
C1197 H1174 0.950 . S
C1197 C1196 1.334 . S
C1197 C1198 1.287 . S
C1198 C1197 1.287 . S
C1198 C1199 1.524 . S
C1198 H1217 0.913 . S
C1199 H1175 0.950 . S
C1199 C1198 1.524 . S
C1199 C1200 1.415 . S
C1200 H1176 0.950 . S
C1200 C1195 1.363 . S
C1200 C1199 1.415 . S
C1201 H1177 0.951 . S
C1201 C1202 1.366 . S
C1201 C1203 1.388 . S
C1202 C1201 1.366 . S
C1202 C1206 1.383 1_655 S
C1203 H1178 0.951 . S
C1203 C1201 1.388 . S
C1203 C1204 1.366 . S
C1204 C1203 1.366 . S
C1204 C1205 1.414 . S
C1204 C1207 1.499 . S
C1205 H1179 0.950 1_655 S
C1205 C1204 1.414 . S
C1205 C1206 1.374 1_655 S
C1206 H1180 0.952 . S
C1206 C1202 1.383 1_455 S
C1206 C1205 1.374 1_455 S
C1207 C1204 1.499 . S
C1207 C1208 1.373 1_655 S
C1207 C1209 1.389 . S
C1208 H1181 0.950 . S
C1208 C1194 1.377 . S
C1208 C1207 1.373 1_455 S
C1209 C1193 1.377 . S
C1209 C1207 1.389 . S
C1209 C1210 1.524 . S
C1210 C1209 1.524 . S
C1210 C1211 1.397 . S
C1210 C1215 1.363 . S
C1211 H1182 0.950 . S
C1211 C1210 1.397 . S
C1211 C1212 1.334 . S
C1212 H1183 0.950 . S
C1212 C1211 1.334 . S
C1212 C1213 1.287 . S
C1213 C1212 1.287 . S
C1213 C1214 1.524 . S
C1213 H1216 0.999 . S
C1214 H1184 0.950 . S
C1214 C1213 1.524 . S
C1214 C1215 1.415 . S
C1215 H1185 0.950 . S
C1215 C1210 1.363 . S
C1215 C1214 1.415 . S
H1216 C1213 0.999 . S
H1217 C1198 0.913 . S
H1218 C1236 0.951 . S
H1219 C1238 0.951 . S
H1220 C1240 0.950 . S
H1221 C1241 0.950 . S
H1222 C1243 0.950 . S
H1223 C1246 0.950 . S
H1224 C1247 0.950 . S
H1225 C1249 0.950 . S
H1226 C1250 0.950 . S
H1227 C1251 0.951 . S
H1228 C1253 0.951 . S
H1229 C1255 0.950 . S
H1230 C1256 0.950 . S
H1231 C1258 0.941 1_545 S
H1232 C1261 0.950 . S
H1233 C1262 0.950 . S
H1234 C1264 0.950 . S
H1235 C1265 0.950 . S
C1236 H1218 0.951 . S
C1236 C1237 1.366 . S
C1236 C1238 1.388 . S
C1237 C1236 1.366 . S
C1237 C1241 1.385 . S
C1238 H1219 0.951 . S
C1238 C1236 1.388 . S
C1238 C1239 1.366 . S
C1239 C1238 1.366 . S
C1239 C1240 1.414 . S
C1239 C1242 1.499 . S
C1240 H1220 0.950 . S
C1240 C1239 1.414 . S
C1240 C1241 1.374 . S
C1241 H1221 0.950 . S
C1241 C1237 1.385 . S
C1241 C1240 1.374 . S
C1242 C1239 1.499 . S
C1242 C1243 1.373 . S
C1242 C1244 1.389 . S
C1243 H1222 0.950 . S
C1243 C1242 1.373 . S
C1243 C1259 1.377 . S
C1244 C1242 1.389 . S
C1244 C1245 1.525 1_565 S
C1244 C1258 1.376 . S
C1245 C1244 1.525 1_545 S
C1245 C1246 1.397 . S
C1245 C1250 1.363 . S
C1246 H1223 0.950 . S
C1246 C1245 1.397 . S
C1246 C1247 1.334 . S
C1247 H1224 0.950 . S
C1247 C1246 1.334 . S
C1247 C1248 1.287 . S
C1248 C1247 1.287 . S
C1248 C1249 1.524 . S
C1248 H1267 0.913 . S
C1249 H1225 0.950 . S
C1249 C1248 1.524 . S
C1249 C1250 1.415 . S
C1250 H1226 0.950 . S
C1250 C1245 1.363 . S
C1250 C1249 1.415 . S
C1251 H1227 0.951 . S
C1251 C1252 1.366 . S
C1251 C1253 1.388 . S
C1252 C1251 1.366 . S
C1252 C1256 1.385 . S
C1253 H1228 0.951 . S
C1253 C1251 1.388 . S
C1253 C1254 1.366 . S
C1254 C1253 1.366 . S
C1254 C1255 1.414 . S
C1254 C1257 1.499 . S
C1255 H1229 0.950 . S
C1255 C1254 1.414 . S
C1255 C1256 1.374 . S
C1256 H1230 0.950 . S
C1256 C1252 1.385 . S
C1256 C1255 1.374 . S
C1257 C1254 1.499 . S
C1257 C1258 1.382 . S
C1257 C1259 1.389 . S
C1258 H1231 0.941 1_565 S
C1258 C1244 1.376 . S
C1258 C1257 1.382 . S
C1259 C1243 1.377 . S
C1259 C1257 1.389 . S
C1259 C1260 1.524 . S
C1260 C1259 1.524 . S
C1260 C1261 1.397 . S
C1260 C1265 1.363 . S
C1261 H1232 0.950 . S
C1261 C1260 1.397 . S
C1261 C1262 1.334 . S
C1262 H1233 0.950 . S
C1262 C1261 1.334 . S
C1262 C1263 1.287 . S
C1263 C1262 1.287 . S
C1263 C1264 1.524 . S
C1263 H1266 0.999 . S
C1264 H1234 0.950 . S
C1264 C1263 1.524 . S
C1264 C1265 1.415 . S
C1265 H1235 0.950 . S
C1265 C1260 1.363 . S
C1265 C1264 1.415 . S
H1266 C1263 0.999 . S
H1267 C1248 0.913 . S
H1268 C1286 0.951 . S
H1269 C1288 0.951 . S
H1270 C1290 0.950 . S
H1271 C1291 0.950 . S
H1272 C1293 0.950 . S
H1273 C1296 0.950 . S
H1274 C1297 0.950 . S
H1275 C1299 0.950 . S
H1276 C1300 0.950 . S
H1277 C1301 0.951 . S
H1278 C1303 0.951 . S
H1279 C1305 0.950 . S
H1280 C1306 0.950 . S
H1281 C1308 0.950 . S
H1282 C1311 0.950 . S
H1283 C1312 0.950 . S
H1284 C1314 0.950 . S
H1285 C1315 0.950 . S
C1286 H1268 0.951 . S
C1286 C1287 1.366 . S
C1286 C1288 1.388 . S
C1287 C1286 1.366 . S
C1287 C1291 1.385 . S
C1288 H1269 0.951 . S
C1288 C1286 1.388 . S
C1288 C1289 1.366 . S
C1289 C1288 1.366 . S
C1289 C1290 1.414 . S
C1289 C1292 1.499 . S
C1290 H1270 0.950 . S
C1290 C1289 1.414 . S
C1290 C1291 1.374 . S
C1291 H1271 0.950 . S
C1291 C1287 1.385 . S
C1291 C1290 1.374 . S
C1292 C1289 1.499 . S
C1292 C1293 1.373 . S
C1292 C1294 1.389 . S
C1293 H1272 0.950 . S
C1293 C1292 1.373 . S
C1293 C1309 1.377 . S
C1294 C1292 1.389 . S
C1294 C1295 1.524 . S
C1294 C1308 1.377 . S
C1295 C1294 1.524 . S
C1295 C1296 1.397 . S
C1295 C1300 1.363 . S
C1296 H1273 0.950 . S
C1296 C1295 1.397 . S
C1296 C1297 1.334 . S
C1297 H1274 0.950 . S
C1297 C1296 1.334 . S
C1297 C1298 1.287 . S
C1298 C1297 1.287 . S
C1298 C1299 1.524 . S
C1298 H1317 0.913 . S
C1299 H1275 0.950 . S
C1299 C1298 1.524 . S
C1299 C1300 1.415 . S
C1300 H1276 0.950 . S
C1300 C1295 1.363 . S
C1300 C1299 1.415 . S
C1301 H1277 0.951 . S
C1301 C1302 1.366 . S
C1301 C1303 1.388 . S
C1302 C1301 1.366 . S
C1302 C1306 1.385 . S
C1303 H1278 0.951 . S
C1303 C1301 1.388 . S
C1303 C1304 1.366 . S
C1304 C1303 1.366 . S
C1304 C1305 1.414 . S
C1304 C1307 1.499 . S
C1305 H1279 0.950 . S
C1305 C1304 1.414 . S
C1305 C1306 1.374 . S
C1306 H1280 0.950 . S
C1306 C1302 1.385 . S
C1306 C1305 1.374 . S
C1307 C1304 1.499 . S
C1307 C1308 1.373 . S
C1307 C1309 1.389 . S
C1308 H1281 0.950 . S
C1308 C1294 1.377 . S
C1308 C1307 1.373 . S
C1309 C1293 1.377 . S
C1309 C1307 1.389 . S
C1309 C1310 1.524 . S
C1310 C1309 1.524 . S
C1310 C1311 1.397 . S
C1310 C1315 1.363 . S
C1311 H1282 0.950 . S
C1311 C1310 1.397 . S
C1311 C1312 1.334 . S
C1312 H1283 0.950 . S
C1312 C1311 1.334 . S
C1312 C1313 1.287 . S
C1313 C1312 1.287 . S
C1313 C1314 1.524 . S
C1313 H1316 0.999 . S
C1314 H1284 0.950 . S
C1314 C1313 1.524 . S
C1314 C1315 1.415 . S
C1315 H1285 0.950 . S
C1315 C1310 1.363 . S
C1315 C1314 1.415 . S
H1316 C1313 0.999 . S
H1317 C1298 0.913 . S
H1318 C1336 0.951 . S
H1319 C1338 0.951 . S
H1320 C1340 0.950 . S
H1321 C1341 0.950 . S
H1322 C1343 0.950 . S
H1323 C1346 0.950 . S
H1324 C1347 0.950 . S
H1325 C1349 0.950 . S
H1326 C1350 0.950 . S
H1327 C1351 0.951 . S
H1328 C1353 0.951 . S
H1329 C1355 0.950 . S
H1330 C1356 0.950 . S
H1331 C1358 0.950 . S
H1332 C1361 0.950 . S
H1333 C1362 0.950 . S
H1334 C1364 0.950 . S
H1335 C1365 0.950 . S
C1336 H1318 0.951 . S
C1336 C1337 1.366 . S
C1336 C1338 1.388 . S
C1337 C1336 1.366 . S
C1337 C1341 1.385 . S
C1338 H1319 0.951 . S
C1338 C1336 1.388 . S
C1338 C1339 1.366 . S
C1339 C1338 1.366 . S
C1339 C1340 1.414 . S
C1339 C1342 1.499 . S
C1340 H1320 0.950 . S
C1340 C1339 1.414 . S
C1340 C1341 1.374 . S
C1341 H1321 0.950 . S
C1341 C1337 1.385 . S
C1341 C1340 1.374 . S
C1342 C1339 1.499 . S
C1342 C1343 1.373 . S
C1342 C1344 1.389 . S
C1343 H1322 0.950 . S
C1343 C1342 1.373 . S
C1343 C1359 1.377 . S
C1344 C1342 1.389 . S
C1344 C1345 1.524 . S
C1344 C1358 1.377 . S
C1345 C1344 1.524 . S
C1345 C1346 1.397 . S
C1345 C1350 1.363 . S
C1346 H1323 0.950 . S
C1346 C1345 1.397 . S
C1346 C1347 1.334 . S
C1347 H1324 0.950 . S
C1347 C1346 1.334 . S
C1347 C1348 1.287 . S
C1348 C1347 1.287 . S
C1348 C1349 1.524 . S
C1348 H1367 0.913 . S
C1349 H1325 0.950 . S
C1349 C1348 1.524 . S
C1349 C1350 1.415 . S
C1350 H1326 0.950 . S
C1350 C1345 1.363 . S
C1350 C1349 1.415 . S
C1351 H1327 0.951 . S
C1351 C1352 1.366 . S
C1351 C1353 1.388 . S
C1352 C1351 1.366 . S
C1352 C1356 1.385 . S
C1353 H1328 0.951 . S
C1353 C1351 1.388 . S
C1353 C1354 1.366 . S
C1354 C1353 1.366 . S
C1354 C1355 1.414 . S
C1354 C1357 1.499 . S
C1355 H1329 0.950 . S
C1355 C1354 1.414 . S
C1355 C1356 1.374 . S
C1356 H1330 0.950 . S
C1356 C1352 1.385 . S
C1356 C1355 1.374 . S
C1357 C1354 1.499 . S
C1357 C1358 1.373 . S
C1357 C1359 1.389 . S
C1358 H1331 0.950 . S
C1358 C1344 1.377 . S
C1358 C1357 1.373 . S
C1359 C1343 1.377 . S
C1359 C1357 1.389 . S
C1359 C1360 1.524 . S
C1360 C1359 1.524 . S
C1360 C1361 1.397 . S
C1360 C1365 1.363 . S
C1361 H1332 0.950 . S
C1361 C1360 1.397 . S
C1361 C1362 1.334 . S
C1362 H1333 0.950 . S
C1362 C1361 1.334 . S
C1362 C1363 1.287 . S
C1363 C1362 1.287 . S
C1363 C1364 1.524 . S
C1363 H1366 0.999 . S
C1364 H1334 0.950 . S
C1364 C1363 1.524 . S
C1364 C1365 1.415 . S
C1365 H1335 0.950 . S
C1365 C1360 1.363 . S
C1365 C1364 1.415 . S
H1366 C1363 0.999 . S
H1367 C1348 0.913 . S
C187 C76 1.457 . S
C202 C106 1.461 . S
C252 C126 1.462 . S
C237 C87 1.457 . S
C302 C146 1.461 . S
C287 C54 1.456 . S
C352 C166 1.474 . S
C337 C65 1.457 . S
C402 C107 1.462 1_565 S
C387 C32 1.459 . S
C437 C43 1.460 . S
C452 C127 1.462 . S
C487 C10 1.459 . S
C502 C147 1.461 . S
C537 C21 1.460 . S
C552 C167 1.462 1_655 S
C602 C97 0.688 1_655 S
C587 C60 0.681 . S
C652 C117 0.682 1_565 S
C637 C71 0.680 . S
C702 C137 0.687 . S
C687 C82 0.681 . S
C737 C49 0.680 . S
C752 C157 0.686 . S
C787 C16 0.680 . S
C802 C100 0.685 . S
C852 C120 0.687 . S
C837 C27 0.681 . S
C902 C140 0.687 . S
C887 C38 0.682 . S
C937 C5 0.679 . S
C952 C160 0.685 . S
C987 C59 1.499 . S
C1002 C90 1.452 . S
C1037 C70 1.498 . S
C1052 C110 1.451 . S
C1102 C130 1.451 . S
C1087 C81 1.498 . S
C1152 C150 1.451 . S
C1137 C48 1.498 . S
C1187 C15 1.496 . S
C1202 C92 1.451 . S
C1252 C112 1.451 . S
C1237 C26 1.496 . S
C1302 C132 1.452 . S
C1287 C37 1.496 . S
C1337 C4 1.496 . S
C1352 C152 1.451 . S
