# Generated by pormake.
# Topology wbl, (4,4)-cn, num edge types: 1
# Building blocks:
#     Node 0, Type 0, BuildingBlock: MIFKUJ_clean_linker_1, # of connection points: 4
#     Node 1, Type 0, BuildingBlock: MIFKUJ_clean_linker_1, # of connection points: 4
#     Node 2, Type 0, BuildingBlock: MIFKUJ_clean_linker_1, # of connection points: 4
#     Node 3, Type 0, BuildingBlock: MIFKUJ_clean_linker_1, # of connection points: 4
#     Node 4, Type 0, BuildingBlock: MIFKUJ_clean_linker_1, # of connection points: 4
#     Node 5, Type 0, BuildingBlock: MIFKUJ_clean_linker_1, # of connection points: 4
#     Node 6, Type 0, BuildingBlock: MIFKUJ_clean_linker_1, # of connection points: 4
#     Node 7, Type 0, BuildingBlock: MIFKUJ_clean_linker_1, # of connection points: 4
#     Node 8, Type 1, BuildingBlock: NAHDIM_clean_sbu_0, # of connection points: 4
#     Node 9, Type 1, BuildingBlock: NAHDIM_clean_sbu_0, # of connection points: 4
#     Node 10, Type 1, BuildingBlock: NAHDIM_clean_sbu_0, # of connection points: 4
#     Node 11, Type 1, BuildingBlock: NAHDIM_clean_sbu_0, # of connection points: 4
#     Node 12, Type 1, BuildingBlock: NAHDIM_clean_sbu_0, # of connection points: 4
#     Node 13, Type 1, BuildingBlock: NAHDIM_clean_sbu_0, # of connection points: 4
#     Node 14, Type 1, BuildingBlock: NAHDIM_clean_sbu_0, # of connection points: 4
#     Node 15, Type 1, BuildingBlock: NAHDIM_clean_sbu_0, # of connection points: 4
#     Edge 16, Type (0, 1), BuildingBlock: EZIPEK_clean_linker_0, # of connection points: 2
#     Edge 17, Type (0, 1), BuildingBlock: EZIPEK_clean_linker_0, # of connection points: 2
#     Edge 18, Type (0, 1), BuildingBlock: EZIPEK_clean_linker_0, # of connection points: 2
#     Edge 19, Type (0, 1), BuildingBlock: EZIPEK_clean_linker_0, # of connection points: 2
#     Edge 20, Type (0, 1), BuildingBlock: EZIPEK_clean_linker_0, # of connection points: 2
#     Edge 21, Type (0, 1), BuildingBlock: EZIPEK_clean_linker_0, # of connection points: 2
#     Edge 22, Type (0, 1), BuildingBlock: EZIPEK_clean_linker_0, # of connection points: 2
#     Edge 23, Type (0, 1), BuildingBlock: EZIPEK_clean_linker_0, # of connection points: 2
#     Edge 24, Type (0, 1), BuildingBlock: EZIPEK_clean_linker_0, # of connection points: 2
#     Edge 25, Type (0, 1), BuildingBlock: EZIPEK_clean_linker_0, # of connection points: 2
#     Edge 26, Type (0, 1), BuildingBlock: EZIPEK_clean_linker_0, # of connection points: 2
#     Edge 27, Type (0, 1), BuildingBlock: EZIPEK_clean_linker_0, # of connection points: 2
#     Edge 28, Type (0, 1), BuildingBlock: EZIPEK_clean_linker_0, # of connection points: 2
#     Edge 29, Type (0, 1), BuildingBlock: EZIPEK_clean_linker_0, # of connection points: 2
#     Edge 30, Type (0, 1), BuildingBlock: EZIPEK_clean_linker_0, # of connection points: 2
#     Edge 31, Type (0, 1), BuildingBlock: EZIPEK_clean_linker_0, # of connection points: 2
#     Edge 32, Type (0, 1), BuildingBlock: EZIPEK_clean_linker_0, # of connection points: 2
#     Edge 33, Type (0, 1), BuildingBlock: EZIPEK_clean_linker_0, # of connection points: 2
#     Edge 34, Type (0, 1), BuildingBlock: EZIPEK_clean_linker_0, # of connection points: 2
#     Edge 35, Type (0, 1), BuildingBlock: EZIPEK_clean_linker_0, # of connection points: 2
#     Edge 36, Type (0, 1), BuildingBlock: EZIPEK_clean_linker_0, # of connection points: 2
#     Edge 37, Type (0, 1), BuildingBlock: EZIPEK_clean_linker_0, # of connection points: 2
#     Edge 38, Type (0, 1), BuildingBlock: EZIPEK_clean_linker_0, # of connection points: 2
#     Edge 39, Type (0, 1), BuildingBlock: EZIPEK_clean_linker_0, # of connection points: 2
#     Edge 40, Type (0, 1), BuildingBlock: EZIPEK_clean_linker_0, # of connection points: 2
#     Edge 41, Type (0, 1), BuildingBlock: EZIPEK_clean_linker_0, # of connection points: 2
#     Edge 42, Type (0, 1), BuildingBlock: EZIPEK_clean_linker_0, # of connection points: 2
#     Edge 43, Type (0, 1), BuildingBlock: EZIPEK_clean_linker_0, # of connection points: 2
#     Edge 44, Type (0, 1), BuildingBlock: EZIPEK_clean_linker_0, # of connection points: 2
#     Edge 45, Type (0, 1), BuildingBlock: EZIPEK_clean_linker_0, # of connection points: 2
#     Edge 46, Type (0, 1), BuildingBlock: EZIPEK_clean_linker_0, # of connection points: 2
#     Edge 47, Type (0, 1), BuildingBlock: EZIPEK_clean_linker_0, # of connection points: 2
# Relax obj value: 0.142
# Max RMSD: 0.133
# Mean RMSD: 0.126
data_MOF--net-wbl--node1-NAHDIM_clean_sbu_0--node2-MIFKUJ_clean_linker_1--edge1-EZIPEK_clean_linker_0
_symmetry_space_group_name_H-M    P1
_symmetry_Int_Tables_number       1
_symmetry_cell_setting            triclinic
loop_
_symmetry_equiv_pos_as_xyz
'x, y, z'
_cell_length_a     37.101175
_cell_length_b     35.768199
_cell_length_c     56.722339
_cell_angle_alpha  89.999875
_cell_angle_beta   89.938309
_cell_angle_gamma 89.978477
loop_
_atom_site_label
_atom_site_type_symbol
_atom_site_fract_x
_atom_site_fract_y
_atom_site_fract_z
_atom_type_partial_charge
H0 H 0.99333 0.07438 0.39117 0.0
H1 H 0.95417 0.11073 0.41744 0.0
H2 H 0.8604 0.06418 0.38353 0.0
H3 H 0.89956 0.02725 0.35737 0.0
H4 H -0.00511 -0.00168 0.3896 0.0
H5 H 0.96927 0.09973 0.33491 0.0
H6 H 0.92347 0.13946 0.31609 0.0
H7 H 0.87796 0.04249 0.28219 0.0
H8 H 0.9233 0.00265 0.30116 0.0
H9 H 0.00585 0.92473 0.29846 0.0
H10 H 0.04985 0.88665 0.27648 0.0
H11 H 0.13634 0.93663 0.31621 0.0
H12 H 0.09273 0.97489 0.33795 0.0
H13 H -0.00298 -0.00068 0.30219 0.0
H14 H 0.02622 0.89824 0.35333 0.0
H15 H 0.06042 0.85519 0.37853 0.0
H16 H 0.09339 0.94777 0.42216 0.0
H17 H 0.06124 0.99108 0.3963 0.0
C18 C 0.94936 0.04816 0.37232 0.0
C19 C 0.96436 0.07229 0.38919 0.0
C20 C 0.94212 0.09312 0.40405 0.0
C21 C 0.90457 0.09001 0.40232 0.0
C22 C 0.88939 0.06694 0.38496 0.0
C23 C 0.91169 0.04599 0.37008 0.0
C24 C 0.97332 0.02355 0.35829 0.0
C25 C -0.00403 -0.00106 0.37049 0.0
C26 C 0.97335 0.02338 0.33338 0.0
C27 C 0.94927 0.04819 0.31968 0.0
C28 C 0.94969 0.08709 0.32321 0.0
C29 C 0.92381 0.10974 0.31244 0.0
C30 C 0.89747 0.0937 0.29791 0.0
C31 C 0.89823 0.05519 0.29335 0.0
C32 C 0.92404 0.03257 0.30413 0.0
C33 C 0.04605 0.95233 0.31998 0.0
C34 C 0.0343 0.92761 0.30233 0.0
C35 C 0.05923 0.90589 0.28988 0.0
C36 C 0.09613 0.90899 0.29485 0.0
C37 C 0.10789 0.93395 0.31225 0.0
C38 C 0.08306 0.9556 0.32466 0.0
C39 C 0.01978 0.97484 0.33358 0.0
C40 C -0.00356 -0.00114 0.32131 0.0
C41 C 0.01909 0.97436 0.35854 0.0
C42 C 0.04127 0.94807 0.37278 0.0
C43 C 0.04152 0.90947 0.36794 0.0
C44 C 0.06072 0.88484 0.38241 0.0
C45 C 0.07901 0.89832 0.40232 0.0
C46 C 0.07923 0.93684 0.40695 0.0
C47 C 0.06074 0.96149 0.39226 0.0
H48 H 0.98247 0.41332 0.544 0.0
H49 H 0.93893 0.36991 0.52639 0.0
H50 H 0.85143 0.4322 0.5575 0.0
H51 H 0.89498 0.4758 0.57512 0.0
H52 H -0.00535 0.49093 0.54352 0.0
H53 H 0.96171 0.39325 0.60075 0.0
H54 H 0.92365 0.35614 0.62747 0.0
H55 H 0.87838 0.45762 0.65599 0.0
H56 H 0.91676 0.49472 0.62956 0.0
H57 H 0.02458 0.58673 0.60263 0.0
H58 H 0.06264 0.62356 0.62944 0.0
H59 H 0.11025 0.52191 0.656 0.0
H60 H 0.07175 0.48507 0.62952 0.0
H61 H 0.99371 0.4895 0.63106 0.0
H62 H 0.0059 0.56771 0.54467 0.0
H63 H 0.04883 0.61306 0.52841 0.0
H64 H 0.13676 0.5529 0.5605 0.0
H65 H 0.09386 0.50712 0.5766 0.0
C66 C 0.94189 0.44741 0.56105 0.0
C67 C 0.95391 0.41818 0.54656 0.0
C68 C 0.92917 0.39346 0.53658 0.0
C69 C 0.89218 0.39789 0.54085 0.0
C70 C 0.87994 0.42849 0.55409 0.0
C71 C 0.90471 0.45315 0.56416 0.0
C72 C 0.96829 0.46954 0.57464 0.0
C73 C -0.00553 0.49058 0.56265 0.0
C74 C 0.96809 0.46916 0.59955 0.0
C75 C 0.94207 0.44666 0.61332 0.0
C76 C 0.94313 0.40744 0.61246 0.0
C77 C 0.92147 0.38634 0.62762 0.0
C78 C 0.89841 0.40425 0.64369 0.0
C79 C 0.89602 0.44341 0.64367 0.0
C80 C 0.91794 0.46448 0.62872 0.0
C81 C 0.04536 0.53326 0.61424 0.0
C82 C 0.04357 0.57246 0.614 0.0
C83 C 0.06524 0.59339 0.6292 0.0
C84 C 0.08907 0.57534 0.64466 0.0
C85 C 0.092 0.53623 0.64414 0.0
C86 C 0.07002 0.5153 0.62917 0.0
C87 C 0.01994 0.51087 0.60002 0.0
C88 C 0.99392 0.48978 0.61192 0.0
C89 C 0.02034 0.5113 0.57511 0.0
C90 C 0.0467 0.53439 0.56205 0.0
C91 C 0.03447 0.56366 0.54768 0.0
C92 C 0.05887 0.58951 0.53847 0.0
C93 C 0.09574 0.58626 0.54345 0.0
C94 C 0.10833 0.55569 0.55654 0.0
C95 C 0.08391 0.52979 0.56575 0.0
H96 H 0.49798 0.56959 0.88301 0.0
H97 H 0.46149 0.60782 0.90985 0.0
H98 H 0.3645 0.56548 0.87767 0.0
H99 H 0.40098 0.52666 0.85094 0.0
H100 H 0.49566 0.49308 0.88202 0.0
H101 H 0.47255 0.59587 0.82643 0.0
H102 H 0.42645 0.63614 0.80831 0.0
H103 H 0.37664 0.53917 0.77706 0.0
H104 H 0.4224 0.49895 0.79516 0.0
H105 H 0.51576 0.39186 0.82421 0.0
H106 H 0.56116 0.35007 0.8066 0.0
H107 H 0.61956 0.4459 0.78072 0.0
H108 H 0.57413 0.4876 0.79802 0.0
H109 H 0.49672 0.49402 0.79453 0.0
H110 H 0.49328 0.41467 0.88094 0.0
H111 H 0.52927 0.37504 0.90728 0.0
H112 H 0.62686 0.4224 0.87874 0.0
H113 H 0.59088 0.46223 0.85234 0.0
C114 C 0.45219 0.54534 0.86498 0.0
C115 C 0.46888 0.56887 0.8815 0.0
C116 C 0.44816 0.59076 0.8967 0.0
C117 C 0.41046 0.58934 0.89565 0.0
C118 C 0.39362 0.56694 0.87858 0.0
C119 C 0.4144 0.54492 0.86337 0.0
C120 C 0.47451 0.51933 0.85081 0.0
C121 C 0.49587 0.49336 0.86289 0.0
C122 C 0.47447 0.51934 0.82587 0.0
C123 C 0.45053 0.54443 0.81233 0.0
C124 C 0.45202 0.58339 0.81538 0.0
C125 C 0.42594 0.60631 0.80503 0.0
C126 C 0.3982 0.5904 0.79156 0.0
C127 C 0.39792 0.55177 0.78743 0.0
C128 C 0.424 0.52892 0.7977 0.0
C129 C 0.54185 0.44274 0.81248 0.0
C130 C 0.53796 0.40377 0.81433 0.0
C131 C 0.56369 0.38002 0.80431 0.0
C132 C 0.59363 0.39511 0.79259 0.0
C133 C 0.59656 0.43393 0.78977 0.0
C134 C 0.57068 0.45762 0.79954 0.0
C135 C 0.51804 0.46814 0.82586 0.0
C136 C 0.49647 0.49388 0.81366 0.0
C137 C 0.51745 0.46767 0.85074 0.0
C138 C 0.53946 0.44128 0.86472 0.0
C139 C 0.52242 0.41614 0.88011 0.0
C140 C 0.54285 0.39348 0.895 0.0
C141 C 0.58054 0.39589 0.89479 0.0
C142 C 0.59774 0.42013 0.87893 0.0
C143 C 0.57728 0.44274 0.86394 0.0
H144 H 0.49376 0.92001 0.04356 0.0
H145 H 0.45451 0.87267 0.02558 0.0
H146 H 0.36091 0.93066 0.05202 0.0
H147 H 0.40006 0.97841 0.06971 0.0
H148 H 0.50093 -0.00135 0.04145 0.0
H149 H 0.47178 0.9031 0.10298 0.0
H150 H 0.43148 0.86581 0.12816 0.0
H151 H 0.37083 0.96519 0.14517 0.0
H152 H 0.41183 0.00259 0.1206 0.0
H153 H 0.50559 0.06846 0.13556 0.0
H154 H 0.54815 0.09909 0.16221 0.0
H155 H 0.63706 0.05814 0.12053 0.0
H156 H 0.59477 0.02485 0.09493 0.0
H157 H 0.49326 0.00086 0.12883 0.0
H158 H 0.52034 0.09797 0.07415 0.0
H159 H 0.56316 0.14155 0.05608 0.0
H160 H 0.62207 0.04888 0.0263 0.0
H161 H 0.57854 0.00498 0.04407 0.0
C162 C 0.44978 0.95234 0.0582 0.0
C163 C 0.46479 0.92306 0.04498 0.0
C164 C 0.44249 0.89611 0.03479 0.0
C165 C 0.40501 0.89829 0.03766 0.0
C166 C 0.38983 0.9287 0.04968 0.0
C167 C 0.41212 0.95571 0.05982 0.0
C168 C 0.47353 0.9771 0.07211 0.0
C169 C 0.49945 -0.00097 0.06055 0.0
C170 C 0.47093 0.97853 0.09692 0.0
C171 C 0.4448 0.95551 0.11016 0.0
C172 C 0.44962 0.91672 0.112 0.0
C173 C 0.42666 0.89553 0.12625 0.0
C174 C 0.3984 0.91287 0.1386 0.0
C175 C 0.39258 0.95141 0.13582 0.0
C176 C 0.41594 0.97268 0.12194 0.0
C177 C 0.54677 0.04444 0.11304 0.0
C178 C 0.53421 0.06587 0.13212 0.0
C179 C 0.55845 0.08354 0.14726 0.0
C180 C 0.59572 0.08066 0.1434 0.0
C181 C 0.60839 0.06057 0.12382 0.0
C182 C 0.58416 0.04197 0.10906 0.0
C183 C 0.52086 0.02284 0.09833 0.0
C184 C 0.49465 0.00111 0.10972 0.0
C185 C 0.52257 0.02248 0.07338 0.0
C186 C 0.54648 0.04838 0.06048 0.0
C187 C 0.54213 0.08703 0.06344 0.0
C188 C 0.56645 0.1118 0.05316 0.0
C189 C 0.59555 0.09827 0.03989 0.0
C190 C 0.59956 0.05965 0.0364 0.0
C191 C 0.5748 0.03478 0.04643 0.0
H192 H -0.00097 0.5838 0.86757 0.0
H193 H 0.04175 0.62053 0.84399 0.0
H194 H 0.13044 0.57119 0.88197 0.0
H195 H 0.08778 0.53385 0.90534 0.0
H196 H 0.99383 0.50743 0.87093 0.0
H197 H 0.02002 0.61157 0.92415 0.0
H198 H 0.06827 0.64929 0.94192 0.0
H199 H 0.10765 0.55173 0.9784 0.0
H200 H 0.05981 0.51391 0.96051 0.0
H201 H 0.97519 0.44025 0.96276 0.0
H202 H 0.92977 0.40212 0.98333 0.0
H203 H 0.84601 0.45277 0.94144 0.0
H204 H 0.89115 0.491 0.92099 0.0
H205 H 0.98549 0.51492 0.9581 0.0
H206 H 0.95477 0.41175 0.90972 0.0
H207 H 0.92021 0.36824 0.88527 0.0
H208 H 0.89781 0.45711 0.83601 0.0
H209 H 0.92927 0.50144 0.86146 0.0
C210 C 0.04022 0.55639 0.88834 0.0
C211 C 0.02766 0.58087 0.87084 0.0
C212 C 0.05192 0.60187 0.85748 0.0
C213 C 0.08911 0.59863 0.8614 0.0
C214 C 0.10177 0.57417 0.87887 0.0
C215 C 0.07749 0.553 0.89218 0.0
C216 C 0.01414 0.53388 0.90216 0.0
C217 C 0.99131 0.50951 0.88995 0.0
C218 C 0.01224 0.53562 0.92703 0.0
C219 C 0.03677 0.55986 0.94077 0.0
C220 C 0.03863 0.59848 0.93632 0.0
C221 C 0.06592 0.61998 0.9465 0.0
C222 C 0.09141 0.60307 0.96131 0.0
C223 C 0.08807 0.56511 0.96702 0.0
C224 C 0.06083 0.54362 0.95686 0.0
C225 C 0.9365 0.46814 0.94022 0.0
C226 C 0.947 0.44344 0.95822 0.0
C227 C 0.92126 0.42169 0.96987 0.0
C228 C 0.88475 0.42477 0.96379 0.0
C229 C 0.87414 0.45014 0.94628 0.0
C230 C 0.89982 0.4718 0.93463 0.0
C231 C 0.96392 0.48925 0.92674 0.0
C232 C 0.98728 0.51316 0.93904 0.0
C233 C 0.96636 0.48682 0.90184 0.0
C234 C 0.94435 0.46021 0.88769 0.0
C235 C 0.94147 0.4223 0.8941 0.0
C236 C 0.92214 0.39729 0.88001 0.0
C237 C 0.90683 0.40938 0.85871 0.0
C238 C 0.90955 0.44718 0.85234 0.0
C239 C 0.92773 0.47241 0.86681 0.0
H240 H 0.47721 0.5662 0.21321 0.0
H241 H 0.43792 0.61484 0.22979 0.0
H242 H 0.34459 0.55715 0.20289 0.0
H243 H 0.38375 0.50812 0.18661 0.0
H244 H 0.48539 0.48914 0.21607 0.0
H245 H 0.45857 0.58073 0.15435 0.0
H246 H 0.42241 0.61941 0.12751 0.0
H247 H 0.35909 0.52278 0.10869 0.0
H248 H 0.39604 0.48385 0.13502 0.0
H249 H 0.49075 0.40715 0.12748 0.0
H250 H 0.534 0.37624 0.10109 0.0
H251 H 0.62103 0.43772 0.13315 0.0
H252 H 0.57784 0.46906 0.1594 0.0
H253 H 0.47657 0.48097 0.12885 0.0
H254 H 0.50973 0.38824 0.18474 0.0
H255 H 0.55588 0.34837 0.2026 0.0
H256 H 0.60861 0.44573 0.23123 0.0
H257 H 0.56212 0.486 0.21325 0.0
C258 C 0.43338 0.53388 0.19845 0.0
C259 C 0.44826 0.56346 0.21144 0.0
C260 C 0.42594 0.59117 0.22082 0.0
C261 C 0.38856 0.58946 0.21738 0.0
C262 C 0.37343 0.55875 0.20567 0.0
C263 C 0.39574 0.531 0.19634 0.0
C264 C 0.45726 0.50841 0.18508 0.0
C265 C 0.48355 0.48746 0.19701 0.0
C266 C 0.45457 0.5056 0.1603 0.0
C267 C 0.42996 0.52953 0.14648 0.0
C268 C 0.4366 0.56803 0.14467 0.0
C269 C 0.41603 0.59002 0.12943 0.0
C270 C 0.38835 0.5738 0.11604 0.0
C271 C 0.38044 0.53567 0.11885 0.0
C272 C 0.40148 0.51354 0.13376 0.0
C273 C 0.53109 0.44028 0.14545 0.0
C274 C 0.51917 0.41367 0.12903 0.0
C275 C 0.54375 0.39595 0.1141 0.0
C276 C 0.58052 0.40476 0.11532 0.0
C277 C 0.59272 0.4305 0.13215 0.0
C278 C 0.56812 0.44822 0.14711 0.0
C279 C 0.50462 0.46158 0.15973 0.0
C280 C 0.47799 0.48202 0.14795 0.0
C281 C 0.507 0.46376 0.18457 0.0
C282 C 0.53269 0.43999 0.19763 0.0
C283 C 0.53097 0.40103 0.19506 0.0
C284 C 0.55723 0.37836 0.20518 0.0
C285 C 0.5855 0.39427 0.2181 0.0
C286 C 0.58684 0.43314 0.22131 0.0
C287 C 0.56034 0.45594 0.21121 0.0
H288 H 0.49206 0.91647 0.36571 0.0
H289 H 0.45352 0.87967 0.3394 0.0
H290 H 0.35899 0.92433 0.37359 0.0
H291 H 0.39754 0.96176 0.3998 0.0
H292 H 0.49236 0.99242 0.36736 0.0
H293 H 0.46915 0.89033 0.422 0.0
H294 H 0.4241 0.84949 0.44068 0.0
H295 H 0.37614 0.94531 0.47456 0.0
H296 H 0.42079 0.98623 0.45576 0.0
H297 H 0.50393 0.06646 0.45805 0.0
H298 H 0.54819 0.10531 0.47919 0.0
H299 H 0.63427 0.05342 0.43988 0.0
H300 H 0.59039 0.01448 0.41896 0.0
H301 H 0.49514 0.99072 0.45478 0.0
H302 H 0.52414 0.09229 0.40363 0.0
H303 H 0.55917 0.13504 0.37867 0.0
H304 H 0.5917 0.04224 0.33501 0.0
H305 H 0.55878 -0.00079 0.36065 0.0
C306 C 0.44766 0.94182 0.38468 0.0
C307 C 0.46306 0.91805 0.36775 0.0
C308 C 0.44118 0.89696 0.35286 0.0
C309 C 0.40359 0.89943 0.35466 0.0
C310 C 0.38802 0.92208 0.37211 0.0
C311 C 0.40996 0.94331 0.38701 0.0
C312 C 0.47124 0.96675 0.39869 0.0
C313 C 0.49354 0.99167 0.38647 0.0
C314 C 0.47146 0.9667 0.4236 0.0
C315 C 0.4479 0.94134 0.43726 0.0
C316 C 0.44921 0.90247 0.43368 0.0
C317 C 0.42374 0.8792 0.44436 0.0
C318 C 0.3969 0.89461 0.45882 0.0
C319 C 0.39678 0.93311 0.46343 0.0
C320 C 0.4222 0.95635 0.45276 0.0
C321 C 0.54393 0.03791 0.43681 0.0
C322 C 0.53236 0.06329 0.45414 0.0
C323 C 0.55743 0.08544 0.4661 0.0
C324 C 0.59428 0.08209 0.46096 0.0
C325 C 0.60587 0.0563 0.44396 0.0
C326 C 0.5809 0.03424 0.43204 0.0
C327 C 0.51753 0.01551 0.42334 0.0
C328 C 0.49439 0.99132 0.43566 0.0
C329 C 0.51665 0.0162 0.39839 0.0
C330 C 0.53894 0.04237 0.38415 0.0
C331 C 0.53949 0.08095 0.38905 0.0
C332 C 0.55916 0.1054 0.37472 0.0
C333 C 0.5776 0.09176 0.35488 0.0
C334 C 0.57743 0.05328 0.35016 0.0
C335 C 0.55849 0.0288 0.36473 0.0
H336 H 0.97592 0.09641 0.67795 0.0
H337 H 0.93125 0.13892 0.69504 0.0
H338 H 0.87589 0.04527 0.72641 0.0
H339 H 0.92061 0.00231 0.70896 0.0
H340 H -0.00306 0.99518 0.71027 0.0
H341 H 0.99095 0.07643 0.62212 0.0
H342 H 0.94752 0.11269 0.59872 0.0
H343 H 0.85972 0.05316 0.63148 0.0
H344 H 0.90304 0.01668 0.65481 0.0
H345 H 0.01133 0.93195 0.616 0.0
H346 H 0.05484 0.89882 0.59119 0.0
H347 H 0.14138 0.93487 0.63649 0.0
H348 H 0.09812 0.96997 0.66067 0.0
H349 H 0.00275 0.00125 0.62286 0.0
H350 H 0.01591 0.89843 0.67634 0.0
H351 H 0.05306 0.85109 0.69596 0.0
H352 H 0.11415 0.93811 0.73021 0.0
H353 H 0.07612 0.98571 0.71099 0.0
C354 C 0.95134 0.04629 0.69211 0.0
C355 C 0.95442 0.08501 0.68871 0.0
C356 C 0.92898 0.10918 0.69836 0.0
C357 C 0.90023 0.09501 0.71167 0.0
C358 C 0.89787 0.05646 0.716 0.0
C359 C 0.92342 0.03215 0.70626 0.0
C360 C 0.97539 0.02084 0.67892 0.0
C361 C -0.00171 -0.0035 0.69119 0.0
C362 C 0.97631 0.02165 0.65403 0.0
C363 C 0.95018 0.04402 0.64023 0.0
C364 C 0.96238 0.07124 0.62431 0.0
C365 C 0.93771 0.09201 0.61112 0.0
C366 C 0.90061 0.08559 0.61359 0.0
C367 C 0.8883 0.05854 0.62955 0.0
C368 C 0.91296 0.03785 0.6428 0.0
C369 C 0.05133 0.95342 0.64029 0.0
C370 C 0.03964 0.93291 0.62062 0.0
C371 C 0.0644 0.91388 0.60653 0.0
C372 C 0.10127 0.91472 0.61194 0.0
C373 C 0.11302 0.93411 0.63202 0.0
C374 C 0.08827 0.95378 0.6459 0.0
C375 C 0.02498 0.9758 0.65411 0.0
C376 C 0.0016 -0.00017 0.64196 0.0
C377 C 0.02262 0.97351 0.67898 0.0
C378 C 0.04345 0.9454 0.69224 0.0
C379 C 0.03697 0.9073 0.68832 0.0
C380 C 0.0581 0.8804 0.69946 0.0
C381 C 0.08622 0.89123 0.71449 0.0
C382 C 0.09239 0.92936 0.71876 0.0
C383 C 0.07077 0.95635 0.70788 0.0
C384 C 0.22698 0.66091 0.99286 0.0
O385 O 0.25187 0.63487 0.99157 0.0
O386 O 0.30221 0.66455 0.03112 0.0
Zn387 Zn 0.28896 0.69913 0.00405 0.0
O388 O 0.31276 0.68159 0.97375 0.0
C389 C 0.33327 0.76468 0.00726 0.0
O390 O 0.35633 0.74304 0.99624 0.0
O391 O 0.2359 0.69394 0.99859 0.0
C392 C 0.34328 0.66552 0.97344 0.0
O393 O 0.36146 0.66149 0.99309 0.0
C394 C 0.32982 0.66956 0.04398 0.0
O395 O 0.35101 0.69825 0.04013 0.0
O396 O 0.30182 0.7526 0.0118 0.0
C397 C 0.21987 0.83863 0.2544 0.0
O398 O 0.24576 0.86352 0.25284 0.0
O399 O 0.29708 0.82783 0.21876 0.0
Zn400 Zn 0.27971 0.79494 0.24575 0.0
O401 O 0.30301 0.81148 0.27633 0.0
C402 C 0.31979 0.7264 0.24437 0.0
O403 O 0.3433 0.74679 0.25587 0.0
O404 O 0.22698 0.80441 0.2506 0.0
C405 C 0.33457 0.82506 0.27729 0.0
O406 O 0.35427 0.82706 0.25813 0.0
C407 C 0.32528 0.82057 0.20685 0.0
O408 O 0.34393 0.79028 0.21143 0.0
O409 O 0.28947 0.74039 0.23883 0.0
C410 C 0.26928 0.82758 0.49625 0.0
O411 O 0.24528 0.85409 0.49912 0.0
O412 O 0.19261 0.81137 0.53589 0.0
Zn413 Zn 0.2075 0.78446 0.50576 0.0
O414 O 0.17957 0.80285 0.47713 0.0
C415 C 0.16564 0.72074 0.51495 0.0
O416 O 0.14088 0.74685 0.51518 0.0
O417 O 0.26004 0.79365 0.4988 0.0
C418 C 0.14773 0.81607 0.47726 0.0
O419 O 0.12912 0.81644 0.49697 0.0
C420 C 0.17946 0.84419 0.53673 0.0
O421 O 0.17744 0.86417 0.51736 0.0
O422 O 0.1982 0.72947 0.51078 0.0
C423 C 0.26723 0.65569 0.75771 0.0
O424 O 0.24429 0.62892 0.75268 0.0
O425 O 0.19079 0.66703 0.72071 0.0
Zn426 Zn 0.20443 0.69652 0.74969 0.0
O427 O 0.17601 0.67424 0.7764 0.0
C428 C 0.16062 0.76248 0.7507 0.0
O429 O 0.13944 0.74089 0.7633 0.0
O430 O 0.25691 0.68952 0.75705 0.0
C431 C 0.17901 0.68366 0.79789 0.0
O432 O 0.20127 0.71055 0.80389 0.0
C433 C 0.15727 0.66542 0.71628 0.0
O434 O 0.1345 0.68321 0.73 0.0
O435 O 0.19134 0.75049 0.74426 0.0
C436 C 0.71791 0.15531 0.49932 0.0
O437 O 0.74391 0.13072 0.50192 0.0
O438 O 0.79224 0.16895 0.53663 0.0
Zn439 Zn 0.77697 0.19968 0.50816 0.0
O440 O 0.80256 0.18149 0.47857 0.0
C441 C 0.81737 0.26739 0.50958 0.0
O442 O 0.84113 0.24613 0.49887 0.0
O443 O 0.72464 0.1898 0.5023 0.0
C444 C 0.83211 0.16354 0.47907 0.0
O445 O 0.84823 0.15748 0.49927 0.0
C446 C 0.82156 0.17478 0.5476 0.0
O447 O 0.84207 0.20303 0.54146 0.0
O448 O 0.78636 0.25436 0.51428 0.0
C449 C 0.72311 0.3269 0.75894 0.0
O450 O 0.74645 0.35359 0.75456 0.0
O451 O 0.80352 0.31843 0.72653 0.0
Zn452 Zn 0.78716 0.28786 0.75509 0.0
O453 O 0.80887 0.31023 0.78451 0.0
C454 C 0.807 0.21814 0.73319 0.0
O455 O 0.79581 0.23508 0.71401 0.0
O456 O 0.73375 0.29317 0.75938 0.0
C457 C 0.84215 0.31804 0.78619 0.0
O458 O 0.86399 0.30892 0.76894 0.0
C459 C 0.83333 0.3131 0.71594 0.0
O460 O 0.8551 0.28646 0.72299 0.0
O461 O 0.80298 0.23412 0.75299 0.0
C462 C 0.76246 0.346 0.00063 0.0
O463 O 0.73538 0.36911 0.0039 0.0
O464 O 0.68746 0.32285 0.03686 0.0
Zn465 Zn 0.70496 0.29834 0.0065 0.0
O466 O 0.6808 0.32134 0.97794 0.0
C467 C 0.66783 0.23117 0.01707 0.0
O468 O 0.64455 0.25556 0.02518 0.0
O469 O 0.75711 0.311 0.00225 0.0
C470 C 0.64994 0.31362 0.96959 0.0
O471 O 0.6303 0.28729 0.97931 0.0
C472 C 0.65596 0.33662 0.03842 0.0
O473 O 0.6343 0.3354 0.0202 0.0
O474 O 0.697 0.24241 0.00773 0.0
C475 C 0.76888 0.15908 0.2605 0.0
O476 O 0.7442 0.13302 0.2589 0.0
O477 O 0.69116 0.17722 0.22069 0.0
Zn478 Zn 0.70762 0.203 0.25078 0.0
O479 O 0.68007 0.18449 0.27963 0.0
C480 C 0.6658 0.26794 0.24568 0.0
O481 O 0.64064 0.24266 0.24852 0.0
O482 O 0.76026 0.19299 0.25701 0.0
C483 C 0.64833 0.17102 0.27968 0.0
O484 O 0.62968 0.17002 0.26003 0.0
C485 C 0.67817 0.14435 0.21968 0.0
O486 O 0.67772 0.12347 0.23871 0.0
O487 O 0.69872 0.2583 0.24656 0.0
C488 C 0.13847 0.85481 0.29384 0.0
C489 C 0.12303 0.88593 0.28217 0.0
C490 C 0.16474 0.87752 0.24913 0.0
C491 C 0.18386 0.85063 0.26256 0.0
N492 N 0.19099 0.81543 0.29864 0.0
N493 N 0.12166 0.9285 0.24921 0.0
C494 C 0.17099 0.83918 0.28502 0.0
C495 C 0.13588 0.89746 0.25977 0.0
N496 N 0.12199 0.84033 0.31338 0.0
N497 N 0.17402 0.88354 0.22611 0.0
H498 H 0.09995 0.94333 0.25624 0.0
H499 H 0.13272 0.94096 0.23428 0.0
H500 H 0.19487 0.86898 0.21782 0.0
H501 H 0.1591 0.9002 0.21466 0.0
H502 H 0.12989 0.81542 0.32135 0.0
H503 H 0.09826 0.85145 0.32037 0.0
H504 H 0.18516 0.80976 0.31624 0.0
H505 H 0.21509 0.80339 0.29303 0.0
C506 C 0.13296 0.62033 0.51349 0.0
C507 C 0.12027 0.61724 0.53699 0.0
C508 C 0.14831 0.67711 0.54698 0.0
C509 C 0.15581 0.68282 0.52277 0.0
N510 N 0.15588 0.66102 0.48263 0.0
N511 N 0.11414 0.64274 0.57623 0.0
C512 C 0.14884 0.65449 0.50593 0.0
C513 C 0.12795 0.64539 0.55391 0.0
N514 N 0.12985 0.59051 0.49856 0.0
N515 N 0.16086 0.70207 0.56329 0.0
H516 H 0.09956 0.61966 0.58216 0.0
H517 H 0.1151 0.66433 0.58851 0.0
H518 H 0.17591 0.7256 0.55864 0.0
H519 H 0.15933 0.69782 0.58142 0.0
H520 H 0.14132 0.5896 0.48182 0.0
H521 H 0.11811 0.56527 0.50369 0.0
H522 H 0.14764 0.64343 0.46906 0.0
H523 H 0.16866 0.68526 0.47672 0.0
C524 C 0.36439 0.62239 0.75915 0.0
C525 C 0.36741 0.6133 0.78339 0.0
C526 C 0.30852 0.64169 0.79118 0.0
C527 C 0.30335 0.64577 0.76656 0.0
N528 N 0.32509 0.63974 0.72672 0.0
N529 N 0.34179 0.61139 0.82254 0.0
C530 C 0.33109 0.63635 0.75041 0.0
C531 C 0.33954 0.62263 0.79953 0.0
N532 N 0.39355 0.61801 0.74466 0.0
N533 N 0.28367 0.65596 0.80655 0.0
H534 H 0.36417 0.59765 0.8295 0.0
H535 H 0.32052 0.61326 0.83447 0.0
H536 H 0.2603 0.66942 0.80097 0.0
H537 H 0.28759 0.65737 0.8247 0.0
H538 H 0.39433 0.62721 0.72726 0.0
H539 H 0.41826 0.60783 0.75066 0.0
H540 H 0.34246 0.62933 0.71388 0.0
H541 H 0.3016 0.65148 0.71984 0.0
C542 C 0.37217 0.8629 0.00617 0.0
C543 C 0.38211 0.8666 0.03016 0.0
C544 C 0.35047 0.80849 0.03979 0.0
C545 C 0.34513 0.802 0.01535 0.0
N546 N 0.35051 0.82228 0.97497 0.0
N547 N 0.38452 0.84153 0.06962 0.0
C548 C 0.35571 0.82914 0.99843 0.0
C549 C 0.37196 0.83923 0.04699 0.0
N550 N 0.37805 0.89191 0.99094 0.0
N551 N 0.3352 0.78532 0.05617 0.0
H552 H 0.40005 0.86378 0.07577 0.0
H553 H 0.38201 0.82002 0.08188 0.0
H554 H 0.31972 0.76211 0.05178 0.0
H555 H 0.335 0.79103 0.07417 0.0
H556 H 0.36839 0.89261 0.97373 0.0
H557 H 0.39033 0.91683 0.99613 0.0
H558 H 0.36151 0.83856 0.96156 0.0
H559 H 0.33621 0.79916 0.96879 0.0
C560 C 0.15337 0.62691 0.95261 0.0
C561 C 0.12415 0.62362 0.96866 0.0
C562 C 0.16132 0.64921 0.00048 0.0
C563 C 0.19035 0.65259 0.98434 0.0
N564 N 0.21184 0.65404 0.94426 0.0
N565 N 0.09725 0.63822 0.00618 0.0
C566 C 0.18562 0.64443 0.96011 0.0
C567 C 0.12715 0.637 0.9921 0.0
N568 N 0.15093 0.61163 0.93056 0.0
N569 N 0.1669 0.656 0.02391 0.0
H570 H 0.07197 0.6292 0.00047 0.0
H571 H 0.09673 0.65084 0.02271 0.0
H572 H 0.19138 0.6658 0.0305 0.0
H573 H 0.1481 0.64997 0.037 0.0
H574 H 0.17272 0.60913 0.91909 0.0
H575 H 0.12763 0.59888 0.92424 0.0
H576 H 0.20853 0.65232 0.92607 0.0
H577 H 0.23579 0.66716 0.94921 0.0
C578 C 0.35437 0.6266 0.24749 0.0
C579 C 0.36585 0.62191 0.22385 0.0
C580 C 0.33678 0.68084 0.21273 0.0
C581 C 0.33011 0.68822 0.23694 0.0
N582 N 0.33176 0.66876 0.27761 0.0
N583 N 0.37127 0.64545 0.18413 0.0
C584 C 0.33847 0.66111 0.25439 0.0
C585 C 0.35757 0.64905 0.20643 0.0
N586 N 0.35836 0.59785 0.26316 0.0
N587 N 0.32351 0.70419 0.19574 0.0
H588 H 0.38616 0.62232 0.1786 0.0
H589 H 0.37028 0.66661 0.17154 0.0
H590 H 0.30868 0.72816 0.19948 0.0
H591 H 0.32427 0.69804 0.1778 0.0
H592 H 0.34757 0.59795 0.2801 0.0
H593 H 0.37023 0.57241 0.25857 0.0
H594 H 0.34116 0.65245 0.2915 0.0
H595 H 0.31775 0.69252 0.28311 0.0
C596 C 0.36658 0.85929 0.4914 0.0
C597 C 0.36681 0.87126 0.46757 0.0
C598 C 0.30682 0.8444 0.46158 0.0
C599 C 0.3046 0.8374 0.48612 0.0
N600 N 0.33104 0.83815 0.52484 0.0
N601 N 0.33708 0.87736 0.42991 0.0
C602 C 0.3343 0.84439 0.50116 0.0
C603 C 0.33709 0.86395 0.45251 0.0
N604 N 0.39735 0.862 0.50453 0.0
N605 N 0.27992 0.8322 0.44701 0.0
H606 H 0.35899 0.89123 0.42242 0.0
H607 H 0.31459 0.87696 0.41896 0.0
H608 H 0.2572 0.81806 0.45319 0.0
H609 H 0.28142 0.83313 0.42869 0.0
H610 H 0.40012 0.85078 0.52136 0.0
H611 H 0.42129 0.87301 0.49781 0.0
H612 H 0.35003 0.84665 0.53722 0.0
H613 H 0.3082 0.82591 0.53232 0.0
C614 C 0.13152 0.84039 0.70912 0.0
C615 C 0.1101 0.86213 0.72461 0.0
C616 C 0.13053 0.82404 0.75787 0.0
C617 C 0.14657 0.79856 0.74181 0.0
N618 N 0.15653 0.77941 0.70129 0.0
N619 N 0.08591 0.87262 0.76359 0.0
C620 C 0.14597 0.80602 0.71718 0.0
C621 C 0.10892 0.85368 0.74903 0.0
N622 N 0.13803 0.85261 0.68667 0.0
N623 N 0.13647 0.82027 0.78153 0.0
H624 H 0.06947 0.8944 0.75781 0.0
H625 H 0.08102 0.86476 0.78099 0.0
H626 H 0.15287 0.79934 0.78854 0.0
H627 H 0.12821 0.84002 0.79391 0.0
H628 H 0.15622 0.83955 0.67534 0.0
H629 H 0.12809 0.87795 0.68026 0.0
H630 H 0.1528 0.78223 0.68318 0.0
H631 H 0.1655 0.75289 0.70606 0.0
C632 C 0.65157 0.36228 0.80107 0.0
C633 C 0.62375 0.3709 0.7848 0.0
C634 C 0.65779 0.34089 0.75291 0.0
C635 C 0.68744 0.33711 0.76843 0.0
N636 N 0.71385 0.3439 0.80701 0.0
N637 N 0.5991 0.36876 0.74557 0.0
C638 C 0.68452 0.34723 0.79254 0.0
C639 C 0.6263 0.35988 0.76083 0.0
N640 N 0.64643 0.36861 0.82463 0.0
N641 N 0.65993 0.32623 0.73069 0.0
H642 H 0.57505 0.38113 0.75108 0.0
H643 H 0.60075 0.36544 0.72738 0.0
H644 H 0.68287 0.31245 0.72451 0.0
H645 H 0.63836 0.32509 0.71901 0.0
H646 H 0.66395 0.35934 0.8377 0.0
H647 H 0.62315 0.38084 0.83146 0.0
H648 H 0.71522 0.35521 0.82389 0.0
H649 H 0.73785 0.33123 0.80172 0.0
C650 C 0.6197 0.13965 0.00796 0.0
C651 C 0.62274 0.12525 0.03116 0.0
C652 C 0.6674 0.17315 0.04107 0.0
C653 C 0.65955 0.19106 0.01944 0.0
N654 N 0.6331 0.19058 0.98083 0.0
N655 N 0.65147 0.1246 0.06922 0.0
C656 C 0.63766 0.17361 0.00222 0.0
C657 C 0.64783 0.14051 0.04741 0.0
N658 N 0.59907 0.12115 0.99176 0.0
N659 N 0.69331 0.18784 0.05547 0.0
H660 H 0.63883 0.09959 0.07384 0.0
H661 H 0.66616 0.13627 0.08297 0.0
H662 H 0.70794 0.21172 0.05096 0.0
H663 H 0.70229 0.17528 0.07092 0.0
H664 H 0.59705 0.12861 0.9741 0.0
H665 H 0.58525 0.09655 0.99571 0.0
H666 H 0.61488 0.18189 0.96804 0.0
H667 H 0.64784 0.21414 0.97587 0.0
C668 C 0.83682 0.12266 0.3041 0.0
C669 C 0.86688 0.11632 0.28912 0.0
C670 C 0.83422 0.14315 0.25561 0.0
C671 C 0.80422 0.14929 0.27059 0.0
N672 N 0.77917 0.15344 0.3097 0.0
N673 N 0.89763 0.12684 0.25232 0.0
C674 C 0.80632 0.14183 0.29509 0.0
C675 C 0.86668 0.1287 0.26537 0.0
N676 N 0.83678 0.10877 0.32659 0.0
N677 N 0.83108 0.14969 0.23195 0.0
H678 H 0.9217 0.11613 0.25903 0.0
H679 H 0.90037 0.13845 0.23559 0.0
H680 H 0.80805 0.16148 0.22446 0.0
H681 H 0.85038 0.14182 0.21959 0.0
H682 H 0.81412 0.10844 0.33741 0.0
H683 H 0.85887 0.0952 0.33407 0.0
H684 H 0.78053 0.15217 0.32801 0.0
H685 H 0.75639 0.16754 0.30358 0.0
C686 C 0.85525 0.3412 0.55006 0.0
C687 C 0.8669 0.36817 0.53337 0.0
C688 C 0.83996 0.33195 0.50128 0.0
C689 C 0.82857 0.3048 0.51795 0.0
N690 N 0.81702 0.28814 0.55861 0.0
N691 N 0.86399 0.39419 0.49431 0.0
C692 C 0.83321 0.31108 0.54249 0.0
C693 C 0.85713 0.36513 0.50931 0.0
N694 N 0.8671 0.34304 0.57288 0.0
N695 N 0.83496 0.32552 0.47774 0.0
H696 H 0.87657 0.41878 0.4998 0.0
H697 H 0.85474 0.39537 0.47701 0.0
H698 H 0.8202 0.30283 0.47139 0.0
H699 H 0.84648 0.34172 0.46449 0.0
H700 H 0.86345 0.32169 0.58512 0.0
H701 H 0.88311 0.36472 0.5793 0.0
H702 H 0.81625 0.29383 0.57661 0.0
H703 H 0.80143 0.26512 0.55401 0.0
C704 C 0.63425 0.09574 0.49554 0.0
C705 C 0.62128 0.10585 0.47292 0.0
C706 C 0.66919 0.15238 0.46873 0.0
C707 C 0.68209 0.14244 0.49145 0.0
N708 N 0.67235 0.11191 0.52874 0.0
N709 N 0.62015 0.14936 0.44052 0.0
C710 C 0.66306 0.11641 0.5056 0.0
C711 C 0.63668 0.13618 0.4604 0.0
N712 N 0.62018 0.06533 0.50689 0.0
N713 N 0.68915 0.17524 0.45447 0.0
H714 H 0.59641 0.1378 0.43389 0.0
H715 H 0.62803 0.17371 0.43188 0.0
H716 H 0.71325 0.18762 0.45972 0.0
H717 H 0.68329 0.17977 0.43675 0.0
H718 H 0.63135 0.05383 0.52208 0.0
H719 H 0.59852 0.04999 0.50029 0.0
H720 H 0.65745 0.09598 0.54063 0.0
H721 H 0.69315 0.12703 0.53664 0.0
C722 C 0.83953 0.1257 0.70863 0.0
C723 C 0.87271 0.12134 0.72067 0.0
C724 C 0.86211 0.1791 0.74252 0.0
C725 C 0.828 0.18292 0.73118 0.0
N726 N 0.78025 0.15401 0.70879 0.0
N727 N 0.9106 0.13723 0.75354 0.0
C728 C 0.81542 0.1543 0.71591 0.0
C729 C 0.88213 0.14574 0.73924 0.0
N730 N 0.83174 0.10377 0.68957 0.0
N731 N 0.87705 0.20814 0.75476 0.0
H732 H 0.9259 0.11296 0.75142 0.0
H733 H 0.91657 0.15214 0.76883 0.0
H734 H 0.86496 0.23414 0.75677 0.0
H735 H 0.90347 0.2078 0.76096 0.0
H736 H 0.80996 0.1088 0.67843 0.0
H737 H 0.8485 0.08217 0.68385 0.0
H738 H 0.76887 0.13203 0.69932 0.0
H739 H 0.7615 0.17377 0.71453 0.0
C740 C 0.84289 0.37025 0.96196 0.0
C741 C 0.85733 0.40052 0.975 0.0
C742 C 0.81555 0.38738 0.00738 0.0
C743 C 0.79757 0.36109 0.99285 0.0
N744 N 0.79139 0.33032 0.95509 0.0
N745 N 0.85651 0.44008 0.00943 0.0
C746 C 0.81075 0.3528 0.96991 0.0
C747 C 0.84369 0.40948 0.99767 0.0
N748 N 0.86003 0.35817 0.94201 0.0
N749 N 0.80602 0.39068 0.03058 0.0
H750 H 0.87751 0.45659 0.00303 0.0
H751 H 0.84477 0.45062 0.02472 0.0
H752 H 0.78574 0.37451 0.03824 0.0
H753 H 0.8203 0.40674 0.0427 0.0
H754 H 0.8529 0.33386 0.93305 0.0
H755 H 0.88356 0.37056 0.93561 0.0
H756 H 0.79749 0.32699 0.93729 0.0
H757 H 0.76739 0.31727 0.95994 0.0
C758 C 0.61207 0.35623 0.25087 0.0
C759 C 0.61406 0.36942 0.22735 0.0
C760 C 0.6582 0.32108 0.21737 0.0
C761 C 0.65483 0.30674 0.24059 0.0
N762 N 0.6373 0.31569 0.281 0.0
N763 N 0.6454 0.37189 0.19022 0.0
C764 C 0.63471 0.32622 0.2579 0.0
C765 C 0.63956 0.35441 0.21132 0.0
N766 N 0.58712 0.37093 0.26601 0.0
N767 N 0.67707 0.30148 0.20074 0.0
H768 H 0.63182 0.39627 0.18536 0.0
H769 H 0.66574 0.36432 0.1785 0.0
H770 H 0.69167 0.27736 0.20462 0.0
H771 H 0.67675 0.3079 0.18284 0.0
H772 H 0.58125 0.35958 0.28247 0.0
H773 H 0.57081 0.39363 0.26161 0.0
H774 H 0.62574 0.33053 0.29487 0.0
H775 H 0.65397 0.29383 0.28648 0.0
C776 C 0.13534 0.8758 0.42201 0.0
C777 C 0.0976 0.87253 0.41888 0.0
C778 C 0.09589 0.82433 0.4495 0.0
C779 C 0.13199 0.83299 0.45568 0.0
N780 N 0.18449 0.87229 0.44969 0.0
N781 N 0.04067 0.84697 0.43201 0.0
C782 C 0.15158 0.85983 0.44228 0.0
C783 C 0.07746 0.84744 0.43312 0.0
N784 N 0.15566 0.89416 0.40558 0.0
N785 N 0.07944 0.79353 0.45885 0.0
H786 H 0.02588 0.86397 0.42067 0.0
H787 H 0.02472 0.83211 0.44389 0.0
H788 H 0.09262 0.77506 0.47017 0.0
H789 H 0.05426 0.78409 0.4533 0.0
H790 H 0.18374 0.89435 0.40585 0.0
H791 H 0.14455 0.90581 0.39036 0.0
H792 H 0.19796 0.89453 0.44174 0.0
H793 H 0.19675 0.8634 0.46518 0.0
C794 C 0.09808 0.59346 0.68689 0.0
C795 C 0.1085 0.59712 0.66292 0.0
C796 C 0.15185 0.64593 0.67374 0.0
C797 C 0.14312 0.6402 0.69784 0.0
N798 N 0.11512 0.60182 0.72767 0.0
N799 N 0.14971 0.62147 0.63384 0.0
C800 C 0.1184 0.6119 0.70451 0.0
C801 C 0.13679 0.62176 0.65641 0.0
N802 N 0.0678 0.57376 0.6928 0.0
N803 N 0.17314 0.6754 0.66729 0.0
H804 H 0.1394 0.60391 0.6208 0.0
H805 H 0.17255 0.63617 0.62855 0.0
H806 H 0.18468 0.69365 0.67947 0.0
H807 H 0.1771 0.68348 0.64985 0.0
H808 H 0.05689 0.57368 0.70973 0.0
H809 H 0.0515 0.56042 0.68042 0.0
H810 H 0.10015 0.57881 0.73324 0.0
H811 H 0.13043 0.6139 0.74108 0.0
C812 C 0.37575 0.58805 0.93351 0.0
C813 C 0.38897 0.60873 0.91399 0.0
C814 C 0.36977 0.66733 0.93264 0.0
C815 C 0.35594 0.64644 0.95187 0.0
N816 N 0.3366 0.58723 0.96768 0.0
N817 N 0.39249 0.6666 0.89243 0.0
C818 C 0.35612 0.60684 0.9514 0.0
C819 C 0.384 0.64801 0.91274 0.0
N820 N 0.38327 0.55075 0.93551 0.0
N821 N 0.37056 0.70549 0.93381 0.0
H822 H 0.40305 0.65312 0.87763 0.0
H823 H 0.3864 0.69463 0.8895 0.0
H824 H 0.35956 0.72046 0.94786 0.0
H825 H 0.38394 0.72226 0.92162 0.0
H826 H 0.37809 0.5353 0.9507 0.0
H827 H 0.39726 0.53567 0.9227 0.0
H828 H 0.33281 0.5584 0.9669 0.0
H829 H 0.32096 0.60023 0.98058 0.0
C830 C 0.35385 0.86182 0.14785 0.0
C831 C 0.3766 0.89113 0.15578 0.0
C832 C 0.35685 0.88004 0.19637 0.0
C833 C 0.33887 0.84714 0.18894 0.0
N834 N 0.32162 0.80494 0.15778 0.0
N835 N 0.40486 0.92376 0.1882 0.0
C836 C 0.33775 0.83748 0.16469 0.0
C837 C 0.37935 0.89926 0.18021 0.0
N838 N 0.34678 0.85805 0.12434 0.0
N839 N 0.35242 0.89309 0.2188 0.0
H840 H 0.42293 0.93753 0.17712 0.0
H841 H 0.41055 0.92754 0.20602 0.0
H842 H 0.33548 0.88026 0.23096 0.0
H843 H 0.3623 0.91884 0.22446 0.0
H844 H 0.32793 0.83933 0.1176 0.0
H845 H 0.35733 0.87617 0.11169 0.0
H846 H 0.32364 0.7942 0.14076 0.0
H847 H 0.30776 0.78757 0.16946 0.0
C848 C 0.13654 0.60186 0.82984 0.0
C849 C 0.1147 0.62041 0.84671 0.0
C850 C 0.13526 0.68114 0.83187 0.0
C851 C 0.15882 0.66246 0.81603 0.0
N852 N 0.18905 0.60545 0.80466 0.0
N853 N 0.09959 0.677 0.86761 0.0
C854 C 0.16164 0.6229 0.81645 0.0
C855 C 0.11607 0.65989 0.84895 0.0
N856 N 0.1323 0.56443 0.82583 0.0
N857 N 0.12963 0.71877 0.82985 0.0
H858 H 0.08562 0.66221 0.88058 0.0
H859 H 0.10269 0.7053 0.87144 0.0
H860 H 0.14253 0.73532 0.81729 0.0
H861 H 0.10979 0.73302 0.83925 0.0
H862 H 0.14474 0.55044 0.81191 0.0
H863 H 0.11387 0.54793 0.83503 0.0
H864 H 0.19442 0.57696 0.80623 0.0
H865 H 0.20884 0.62003 0.79539 0.0
C866 C 0.34778 0.62701 0.10432 0.0
C867 C 0.36972 0.59624 0.09769 0.0
C868 C 0.35633 0.60832 0.05615 0.0
C869 C 0.33944 0.64236 0.06257 0.0
N870 N 0.32037 0.68574 0.09263 0.0
N871 N 0.40015 0.56145 0.06699 0.0
C872 C 0.33549 0.6522 0.08666 0.0
C873 C 0.37525 0.5877 0.07351 0.0
N874 N 0.33792 0.63147 0.12737 0.0
N875 N 0.35428 0.59557 0.0335 0.0
H876 H 0.41571 0.5465 0.07903 0.0
H877 H 0.408 0.55715 0.04955 0.0
H878 H 0.34 0.60958 0.02044 0.0
H879 H 0.36326 0.56919 0.02836 0.0
H880 H 0.31941 0.65142 0.13306 0.0
H881 H 0.34572 0.61284 0.14057 0.0
H882 H 0.32062 0.69645 0.10971 0.0
H883 H 0.30924 0.70388 0.08021 0.0
C884 C 0.368 0.90179 0.31725 0.0
C885 C 0.38096 0.88077 0.33668 0.0
C886 C 0.36026 0.82266 0.31821 0.0
C887 C 0.34709 0.84386 0.29894 0.0
N888 N 0.32908 0.90342 0.28301 0.0
N889 N 0.3832 0.82294 0.35834 0.0
C890 C 0.34805 0.88343 0.29938 0.0
C891 C 0.37503 0.84166 0.33803 0.0
N892 N 0.37614 0.93896 0.3153 0.0
N893 N 0.35983 0.78449 0.31716 0.0
H894 H 0.3941 0.83624 0.37308 0.0
H895 H 0.37653 0.79508 0.36135 0.0
H896 H 0.34817 0.76982 0.30322 0.0
H897 H 0.37268 0.76734 0.32936 0.0
H898 H 0.37121 0.95458 0.30015 0.0
H899 H 0.39028 0.95375 0.32814 0.0
H900 H 0.32586 0.93232 0.28373 0.0
H901 H 0.31338 0.89071 0.27006 0.0
C902 C 0.12499 0.85624 0.59351 0.0
C903 C 0.12713 0.89554 0.59602 0.0
C904 C 0.17286 0.89746 0.56495 0.0
C905 C 0.16483 0.85981 0.55907 0.0
N906 N 0.12893 0.80432 0.56656 0.0
N907 N 0.15082 0.9547 0.58242 0.0
C908 C 0.14018 0.83911 0.57323 0.0
C909 C 0.15077 0.91653 0.58147 0.0
N910 N 0.10825 0.83537 0.61046 0.0
N911 N 0.20201 0.91479 0.55506 0.0
H912 H 0.13475 0.96998 0.59402 0.0
H913 H 0.16463 0.97129 0.57031 0.0
H914 H 0.21965 0.90108 0.5436 0.0
H915 H 0.21092 0.94114 0.56028 0.0
H916 H 0.10882 0.80624 0.61065 0.0
H917 H 0.09712 0.84725 0.62562 0.0
H918 H 0.10814 0.79004 0.57503 0.0
H919 H 0.13755 0.79105 0.55128 0.0
C920 C 0.61232 0.33828 0.90901 0.0
C921 C 0.60156 0.37575 0.91297 0.0
C922 C 0.62822 0.37436 0.95247 0.0
C923 C 0.63535 0.33555 0.94958 0.0
N924 N 0.63396 0.27985 0.92557 0.0
N925 N 0.59589 0.42906 0.93873 0.0
C926 C 0.62734 0.31729 0.92794 0.0
C927 C 0.60885 0.39379 0.93471 0.0
N928 N 0.60883 0.32316 0.88698 0.0
N929 N 0.63996 0.39281 0.97214 0.0
H930 H 0.58267 0.44485 0.92592 0.0
H931 H 0.59595 0.44189 0.9552 0.0
H932 H 0.65261 0.3797 0.98623 0.0
H933 H 0.63962 0.42179 0.97385 0.0
H934 H 0.61936 0.29732 0.88211 0.0
H935 H 0.59757 0.33778 0.87286 0.0
H936 H 0.6248 0.26384 0.91149 0.0
H937 H 0.64747 0.26415 0.93829 0.0
C938 C 0.64428 0.07527 0.17437 0.0
C939 C 0.62113 0.09795 0.16049 0.0
C940 C 0.6361 0.15222 0.18483 0.0
C941 C 0.66122 0.1301 0.19771 0.0
N942 N 0.6969 0.07371 0.19946 0.0
N943 N 0.60356 0.15981 0.14816 0.0
C944 C 0.66778 0.09259 0.19077 0.0
C945 C 0.61998 0.13708 0.16426 0.0
N946 N 0.64255 0.03718 0.17296 0.0
N947 N 0.62538 0.18643 0.19297 0.0
H948 H 0.592 0.1496 0.13268 0.0
H949 H 0.60487 0.18889 0.14899 0.0
H950 H 0.63429 0.19803 0.20873 0.0
H951 H 0.60448 0.20163 0.18531 0.0
H952 H 0.65626 0.01959 0.18454 0.0
H953 H 0.62485 0.02306 0.16184 0.0
H954 H 0.7046 0.0474 0.19335 0.0
H955 H 0.71567 0.08607 0.21071 0.0
C956 C 0.87486 0.14742 0.41875 0.0
C957 C 0.88155 0.10845 0.42024 0.0
C958 C 0.84774 0.10535 0.45723 0.0
C959 C 0.84591 0.14493 0.4576 0.0
N960 N 0.85889 0.20443 0.43949 0.0
N961 N 0.87769 0.05043 0.44188 0.0
C962 C 0.85938 0.16626 0.43842 0.0
C963 C 0.86867 0.08734 0.43966 0.0
N964 N 0.88298 0.16618 0.39843 0.0
N965 N 0.82852 0.08495 0.47329 0.0
H966 H 0.8926 0.03589 0.42926 0.0
H967 H 0.87276 0.03489 0.45707 0.0
H968 H 0.8119 0.0973 0.48592 0.0
H969 H 0.82596 0.05599 0.47252 0.0
H970 H 0.87564 0.19382 0.39531 0.0
H971 H 0.89449 0.15305 0.38381 0.0
H972 H 0.87199 0.22156 0.42738 0.0
H973 H 0.84723 0.21913 0.45342 0.0
C974 C 0.89148 0.38512 0.68591 0.0
C975 C 0.87961 0.3823 0.66219 0.0
C976 C 0.83521 0.3349 0.6738 0.0
C977 C 0.84588 0.33948 0.69763 0.0
N978 N 0.87679 0.37588 0.72704 0.0
N979 N 0.83627 0.35976 0.63393 0.0
C980 C 0.87175 0.36678 0.70388 0.0
C981 C 0.85024 0.35871 0.65621 0.0
N982 N 0.92257 0.40387 0.69118 0.0
N983 N 0.81147 0.30723 0.66794 0.0
H984 H 0.84661 0.37702 0.62073 0.0
H985 H 0.81279 0.34589 0.62901 0.0
H986 H 0.79887 0.29045 0.68053 0.0
H987 H 0.80578 0.29953 0.65064 0.0
H988 H 0.93448 0.40329 0.7078 0.0
H989 H 0.93846 0.41708 0.67849 0.0
H990 H 0.89292 0.39805 0.73255 0.0
H991 H 0.86157 0.36404 0.74056 0.0
C992 C 0.63459 0.11342 0.33567 0.0
C993 C 0.59684 0.11731 0.33851 0.0
C994 C 0.59634 0.1649 0.30753 0.0
C995 C 0.63233 0.15535 0.30155 0.0
N996 N 0.68437 0.11577 0.30835 0.0
N997 N 0.54053 0.14378 0.325 0.0
C998 C 0.65141 0.12871 0.31537 0.0
C999 C 0.57732 0.14253 0.32402 0.0
N1000 N 0.65432 0.09506 0.35238 0.0
N1001 N 0.58057 0.19581 0.29783 0.0
H1002 H 0.5253 0.12738 0.33646 0.0
H1003 H 0.52499 0.15873 0.31296 0.0
H1004 H 0.59425 0.21374 0.2864 0.0
H1005 H 0.55551 0.20589 0.30319 0.0
H1006 H 0.68241 0.09441 0.35231 0.0
H1007 H 0.64274 0.0839 0.36761 0.0
H1008 H 0.69749 0.09356 0.31658 0.0
H1009 H 0.69711 0.12436 0.29294 0.0
C1010 C 0.86083 0.14076 0.60562 0.0
C1011 C 0.87489 0.10582 0.59826 0.0
C1012 C 0.84361 0.11148 0.5604 0.0
C1013 C 0.83434 0.14892 0.56626 0.0
N1014 N 0.8319 0.19908 0.59459 0.0
N1015 N 0.88126 0.05768 0.56883 0.0
C1016 C 0.84208 0.1634 0.58904 0.0
C1017 C 0.86633 0.09089 0.57581 0.0
N1018 N 0.8652 0.15195 0.6285 0.0
N1019 N 0.83083 0.0955 0.54017 0.0
H1020 H 0.89682 0.04097 0.57995 0.0
H1021 H 0.88023 0.04764 0.55162 0.0
H1022 H 0.81458 0.10945 0.52814 0.0
H1023 H 0.8335 0.06722 0.53623 0.0
H1024 H 0.85284 0.17541 0.63575 0.0
H1025 H 0.87926 0.13613 0.64092 0.0
H1026 H 0.84052 0.21329 0.60957 0.0
H1027 H 0.81532 0.21508 0.58371 0.0
C1028 C 0.85223 0.38901 0.83607 0.0
C1029 C 0.88862 0.38269 0.84252 0.0
C1030 C 0.8899 0.32781 0.81679 0.0
C1031 C 0.85634 0.33865 0.80693 0.0
N1032 N 0.80874 0.3851 0.80463 0.0
N1033 N 0.94442 0.3493 0.83558 0.0
C1034 C 0.83804 0.37055 0.81599 0.0
C1035 C 0.90814 0.35281 0.83207 0.0
N1036 N 0.83116 0.41249 0.84916 0.0
N1037 N 0.904 0.29331 0.8121 0.0
H1038 H 0.95938 0.36786 0.8458 0.0
H1039 H 0.96022 0.33012 0.82637 0.0
H1040 H 0.8905 0.27337 0.80199 0.0
H1041 H 0.92691 0.28301 0.82051 0.0
H1042 H 0.80353 0.4154 0.84638 0.0
H1043 H 0.84052 0.42583 0.86432 0.0
H1044 H 0.79682 0.41033 0.80952 0.0
H1045 H 0.7988 0.37466 0.7888 0.0
C1046 C 0.61217 0.40995 0.07648 0.0
C1047 C 0.60553 0.38936 0.09742 0.0
C1048 C 0.63737 0.33516 0.08113 0.0
C1049 C 0.64367 0.35573 0.0601 0.0
N1050 N 0.6465 0.41511 0.04024 0.0
N1051 N 0.61838 0.33635 0.12216 0.0
C1052 C 0.63402 0.39397 0.05859 0.0
C1053 C 0.6204 0.35321 0.10056 0.0
N1054 N 0.59638 0.44414 0.0733 0.0
N1055 N 0.6458 0.29798 0.08208 0.0
H1056 H 0.60577 0.34885 0.13661 0.0
H1057 H 0.63168 0.3116 0.12633 0.0
H1058 H 0.65911 0.28404 0.06849 0.0
H1059 H 0.6379 0.28039 0.09576 0.0
H1060 H 0.59655 0.4584 0.05729 0.0
H1061 H 0.58098 0.45736 0.08624 0.0
H1062 H 0.64325 0.44398 0.03919 0.0
H1063 H 0.66339 0.40429 0.02719 0.0
loop_
_geom_bond_atom_site_label_1
_geom_bond_atom_site_label_2
_geom_bond_distance
_geom_bond_site_symmetry_2
_ccdc_geom_bond_type
H0 C19 0.949 . S
H1 C20 0.950 . S
H2 C22 0.950 . S
H3 C23 0.950 . S
H4 C25 0.950 . S
H5 C28 0.950 . S
H6 C29 0.950 . S
H7 C31 0.951 . S
H8 C32 0.949 1_565 S
H9 C34 0.949 . S
H10 C35 0.950 . S
H11 C37 0.950 . S
H12 C38 0.950 . S
H13 C40 0.950 . S
H14 C43 0.950 . S
H15 C44 0.950 . S
H16 C46 0.951 . S
H17 C47 0.949 1_545 S
C18 C19 1.376 . S
C18 C23 1.386 . S
C18 C24 1.483 . S
C19 H0 0.949 . S
C19 C18 1.376 . S
C19 C20 1.397 . S
C20 H1 0.950 . S
C20 C19 1.397 . S
C20 C21 1.391 . S
C21 C20 1.391 . S
C21 C22 1.405 . S
C22 H2 0.950 . S
C22 C21 1.405 . S
C22 C23 1.367 . S
C23 H3 0.950 . S
C23 C18 1.386 . S
C23 C22 1.367 . S
C24 C18 1.483 . S
C24 C25 1.382 1_655 S
C24 C26 1.403 . S
C25 H4 0.950 . S
C25 C24 1.382 1_455 S
C25 C41 1.411 1_545 S
C26 C24 1.403 . S
C26 C27 1.489 . S
C26 C40 1.411 1_545 S
C27 C26 1.489 . S
C27 C28 1.383 . S
C27 C32 1.382 . S
C28 H5 0.950 . S
C28 C27 1.383 . S
C28 C29 1.395 . S
C29 H6 0.950 . S
C29 C28 1.395 . S
C29 C30 1.288 . S
C30 C29 1.288 . S
C30 C31 1.392 . S
C31 H7 0.951 . S
C31 C30 1.392 . S
C31 C32 1.392 . S
C32 H8 0.949 1_545 S
C32 C27 1.382 . S
C32 C31 1.392 . S
C33 C34 1.376 . S
C33 C38 1.386 . S
C33 C39 1.483 . S
C34 H9 0.949 . S
C34 C33 1.376 . S
C34 C35 1.397 . S
C35 H10 0.950 . S
C35 C34 1.397 . S
C35 C36 1.391 . S
C36 C35 1.391 . S
C36 C37 1.405 . S
C37 H11 0.950 . S
C37 C36 1.405 . S
C37 C38 1.367 . S
C38 H12 0.950 . S
C38 C33 1.386 . S
C38 C37 1.367 . S
C39 C33 1.483 . S
C39 C40 1.382 1_455 S
C39 C41 1.403 . S
C40 H13 0.950 . S
C40 C26 1.411 1_565 S
C40 C39 1.382 1_655 S
C41 C25 1.411 1_565 S
C41 C39 1.403 . S
C41 C42 1.489 . S
C42 C41 1.489 . S
C42 C43 1.383 . S
C42 C47 1.382 . S
C43 H14 0.950 . S
C43 C42 1.383 . S
C43 C44 1.395 . S
C44 H15 0.950 . S
C44 C43 1.395 . S
C44 C45 1.288 . S
C45 C44 1.288 . S
C45 C46 1.392 . S
C46 H16 0.951 . S
C46 C45 1.392 . S
C46 C47 1.392 . S
C47 H17 0.949 1_565 S
C47 C42 1.382 . S
C47 C46 1.392 . S
H48 C67 0.949 1_455 S
H49 C68 0.950 . S
H50 C70 0.950 . S
H51 C71 0.950 . S
H52 C73 0.950 . S
H53 C76 0.950 . S
H54 C77 0.950 . S
H55 C79 0.951 . S
H56 C80 0.949 . S
H57 C82 0.949 1_655 S
H58 C83 0.950 . S
H59 C85 0.950 . S
H60 C86 0.950 . S
H61 C88 0.950 . S
H62 C91 0.950 . S
H63 C92 0.950 . S
H64 C94 0.951 . S
H65 C95 0.949 . S
C66 C67 1.376 . S
C66 C71 1.386 . S
C66 C72 1.483 . S
C67 H48 0.949 1_655 S
C67 C66 1.376 . S
C67 C68 1.397 . S
C68 H49 0.950 . S
C68 C67 1.397 . S
C68 C69 1.391 . S
C69 C68 1.391 . S
C69 C70 1.405 . S
C70 H50 0.950 . S
C70 C69 1.405 . S
C70 C71 1.367 . S
C71 H51 0.950 . S
C71 C66 1.386 . S
C71 C70 1.367 . S
C72 C66 1.483 . S
C72 C73 1.382 1_655 S
C72 C74 1.403 . S
C73 H52 0.950 . S
C73 C72 1.382 1_455 S
C73 C89 1.411 . S
C74 C72 1.403 . S
C74 C75 1.489 . S
C74 C88 1.411 . S
C75 C74 1.489 . S
C75 C76 1.383 . S
C75 C80 1.382 . S
C76 H53 0.950 . S
C76 C75 1.383 . S
C76 C77 1.395 . S
C77 H54 0.950 . S
C77 C76 1.395 . S
C77 C78 1.288 . S
C78 C77 1.288 . S
C78 C79 1.392 . S
C79 H55 0.951 . S
C79 C78 1.392 . S
C79 C80 1.392 . S
C80 H56 0.949 . S
C80 C75 1.382 . S
C80 C79 1.392 . S
C81 C82 1.376 . S
C81 C86 1.386 . S
C81 C87 1.483 . S
C82 H57 0.949 1_455 S
C82 C81 1.376 . S
C82 C83 1.397 . S
C83 H58 0.950 . S
C83 C82 1.397 . S
C83 C84 1.391 . S
C84 C83 1.391 . S
C84 C85 1.405 . S
C85 H59 0.950 . S
C85 C84 1.405 . S
C85 C86 1.367 . S
C86 H60 0.950 . S
C86 C81 1.386 . S
C86 C85 1.367 . S
C87 C81 1.483 . S
C87 C88 1.382 1_455 S
C87 C89 1.403 . S
C88 H61 0.950 . S
C88 C74 1.411 . S
C88 C87 1.382 1_655 S
C89 C73 1.411 . S
C89 C87 1.403 . S
C89 C90 1.489 . S
C90 C89 1.489 . S
C90 C91 1.383 . S
C90 C95 1.382 . S
C91 H62 0.950 . S
C91 C90 1.383 . S
C91 C92 1.395 . S
C92 H63 0.950 . S
C92 C91 1.395 . S
C92 C93 1.288 . S
C93 C92 1.288 . S
C93 C94 1.392 . S
C94 H64 0.951 . S
C94 C93 1.392 . S
C94 C95 1.392 . S
C95 H65 0.949 . S
C95 C90 1.382 . S
C95 C94 1.392 . S
H96 C115 0.949 . S
H97 C116 0.950 . S
H98 C118 0.950 . S
H99 C119 0.950 . S
H100 C121 0.950 . S
H101 C124 0.950 . S
H102 C125 0.950 . S
H103 C127 0.951 . S
H104 C128 0.949 . S
H105 C130 0.949 . S
H106 C131 0.950 . S
H107 C133 0.950 . S
H108 C134 0.950 . S
H109 C136 0.950 . S
H110 C139 0.950 . S
H111 C140 0.950 . S
H112 C142 0.951 . S
H113 C143 0.949 . S
C114 C115 1.376 . S
C114 C119 1.386 . S
C114 C120 1.483 . S
C115 H96 0.949 . S
C115 C114 1.376 . S
C115 C116 1.397 . S
C116 H97 0.950 . S
C116 C115 1.397 . S
C116 C117 1.391 . S
C117 C116 1.391 . S
C117 C118 1.405 . S
C118 H98 0.950 . S
C118 C117 1.405 . S
C118 C119 1.367 . S
C119 H99 0.950 . S
C119 C114 1.386 . S
C119 C118 1.367 . S
C120 C114 1.483 . S
C120 C121 1.382 . S
C120 C122 1.403 . S
C121 H100 0.950 . S
C121 C120 1.382 . S
C121 C137 1.411 . S
C122 C120 1.403 . S
C122 C123 1.489 . S
C122 C136 1.411 . S
C123 C122 1.489 . S
C123 C124 1.383 . S
C123 C128 1.382 . S
C124 H101 0.950 . S
C124 C123 1.383 . S
C124 C125 1.395 . S
C125 H102 0.950 . S
C125 C124 1.395 . S
C125 C126 1.288 . S
C126 C125 1.288 . S
C126 C127 1.392 . S
C127 H103 0.951 . S
C127 C126 1.392 . S
C127 C128 1.392 . S
C128 H104 0.949 . S
C128 C123 1.382 . S
C128 C127 1.392 . S
C129 C130 1.376 . S
C129 C134 1.386 . S
C129 C135 1.483 . S
C130 H105 0.949 . S
C130 C129 1.376 . S
C130 C131 1.397 . S
C131 H106 0.950 . S
C131 C130 1.397 . S
C131 C132 1.391 . S
C132 C131 1.391 . S
C132 C133 1.405 . S
C133 H107 0.950 . S
C133 C132 1.405 . S
C133 C134 1.367 . S
C134 H108 0.950 . S
C134 C129 1.386 . S
C134 C133 1.367 . S
C135 C129 1.483 . S
C135 C136 1.382 . S
C135 C137 1.403 . S
C136 H109 0.950 . S
C136 C122 1.411 . S
C136 C135 1.382 . S
C137 C121 1.411 . S
C137 C135 1.403 . S
C137 C138 1.489 . S
C138 C137 1.489 . S
C138 C139 1.383 . S
C138 C143 1.382 . S
C139 H110 0.950 . S
C139 C138 1.383 . S
C139 C140 1.395 . S
C140 H111 0.950 . S
C140 C139 1.395 . S
C140 C141 1.288 . S
C141 C140 1.288 . S
C141 C142 1.392 . S
C142 H112 0.951 . S
C142 C141 1.392 . S
C142 C143 1.392 . S
C143 H113 0.949 . S
C143 C138 1.382 . S
C143 C142 1.392 . S
H144 C163 0.949 . S
H145 C164 0.950 . S
H146 C166 0.950 . S
H147 C167 0.950 . S
H148 C169 0.950 . S
H149 C172 0.950 . S
H150 C173 0.950 . S
H151 C175 0.951 . S
H152 C176 0.949 . S
H153 C178 0.949 . S
H154 C179 0.950 . S
H155 C181 0.950 . S
H156 C182 0.950 . S
H157 C184 0.950 . S
H158 C187 0.950 . S
H159 C188 0.950 . S
H160 C190 0.951 . S
H161 C191 0.949 . S
C162 C163 1.376 . S
C162 C167 1.386 . S
C162 C168 1.483 . S
C163 H144 0.949 . S
C163 C162 1.376 . S
C163 C164 1.397 . S
C164 H145 0.950 . S
C164 C163 1.397 . S
C164 C165 1.391 . S
C165 C164 1.391 . S
C165 C166 1.405 . S
C166 H146 0.950 . S
C166 C165 1.405 . S
C166 C167 1.367 . S
C167 H147 0.950 . S
C167 C162 1.386 . S
C167 C166 1.367 . S
C168 C162 1.483 . S
C168 C169 1.382 . S
C168 C170 1.403 . S
C169 H148 0.950 . S
C169 C168 1.382 . S
C169 C185 1.411 1_565 S
C170 C168 1.403 . S
C170 C171 1.489 . S
C170 C184 1.411 1_565 S
C171 C170 1.489 . S
C171 C172 1.383 . S
C171 C176 1.382 . S
C172 H149 0.950 . S
C172 C171 1.383 . S
C172 C173 1.395 . S
C173 H150 0.950 . S
C173 C172 1.395 . S
C173 C174 1.288 . S
C174 C173 1.288 . S
C174 C175 1.392 . S
C175 H151 0.951 . S
C175 C174 1.392 . S
C175 C176 1.392 . S
C176 H152 0.949 . S
C176 C171 1.382 . S
C176 C175 1.392 . S
C177 C178 1.376 . S
C177 C182 1.386 . S
C177 C183 1.483 . S
C178 H153 0.949 . S
C178 C177 1.376 . S
C178 C179 1.397 . S
C179 H154 0.950 . S
C179 C178 1.397 . S
C179 C180 1.391 . S
C180 C179 1.391 . S
C180 C181 1.405 . S
C181 H155 0.950 . S
C181 C180 1.405 . S
C181 C182 1.367 . S
C182 H156 0.950 . S
C182 C177 1.386 . S
C182 C181 1.367 . S
C183 C177 1.483 . S
C183 C184 1.382 . S
C183 C185 1.403 . S
C184 H157 0.950 . S
C184 C170 1.411 1_545 S
C184 C183 1.382 . S
C185 C169 1.411 1_545 S
C185 C183 1.403 . S
C185 C186 1.489 . S
C186 C185 1.489 . S
C186 C187 1.383 . S
C186 C191 1.382 . S
C187 H158 0.950 . S
C187 C186 1.383 . S
C187 C188 1.395 . S
C188 H159 0.950 . S
C188 C187 1.395 . S
C188 C189 1.288 . S
C189 C188 1.288 . S
C189 C190 1.392 . S
C190 H160 0.951 . S
C190 C189 1.392 . S
C190 C191 1.392 . S
C191 H161 0.949 . S
C191 C186 1.382 . S
C191 C190 1.392 . S
H192 C211 0.949 . S
H193 C212 0.950 . S
H194 C214 0.950 . S
H195 C215 0.950 . S
H196 C217 0.950 . S
H197 C220 0.950 . S
H198 C221 0.950 . S
H199 C223 0.951 . S
H200 C224 0.949 . S
H201 C226 0.949 . S
H202 C227 0.950 . S
H203 C229 0.950 . S
H204 C230 0.950 . S
H205 C232 0.950 . S
H206 C235 0.950 . S
H207 C236 0.950 . S
H208 C238 0.951 . S
H209 C239 0.949 . S
C210 C211 1.376 . S
C210 C215 1.386 . S
C210 C216 1.483 . S
C211 H192 0.949 . S
C211 C210 1.376 . S
C211 C212 1.397 . S
C212 H193 0.950 . S
C212 C211 1.397 . S
C212 C213 1.391 . S
C213 C212 1.391 . S
C213 C214 1.405 . S
C214 H194 0.950 . S
C214 C213 1.405 . S
C214 C215 1.367 . S
C215 H195 0.950 . S
C215 C210 1.386 . S
C215 C214 1.367 . S
C216 C210 1.483 . S
C216 C217 1.382 1_455 S
C216 C218 1.403 . S
C217 H196 0.950 . S
C217 C216 1.382 1_655 S
C217 C233 1.411 . S
C218 C216 1.403 . S
C218 C219 1.489 . S
C218 C232 1.411 . S
C219 C218 1.489 . S
C219 C220 1.383 . S
C219 C224 1.382 . S
C220 H197 0.950 . S
C220 C219 1.383 . S
C220 C221 1.395 . S
C221 H198 0.950 . S
C221 C220 1.395 . S
C221 C222 1.288 . S
C222 C221 1.288 . S
C222 C223 1.392 . S
C223 H199 0.951 . S
C223 C222 1.392 . S
C223 C224 1.392 . S
C224 H200 0.949 . S
C224 C219 1.382 . S
C224 C223 1.392 . S
C225 C226 1.376 . S
C225 C230 1.386 . S
C225 C231 1.483 . S
C226 H201 0.949 . S
C226 C225 1.376 . S
C226 C227 1.397 . S
C227 H202 0.950 . S
C227 C226 1.397 . S
C227 C228 1.391 . S
C228 C227 1.391 . S
C228 C229 1.405 . S
C229 H203 0.950 . S
C229 C228 1.405 . S
C229 C230 1.367 . S
C230 H204 0.950 . S
C230 C225 1.386 . S
C230 C229 1.367 . S
C231 C225 1.483 . S
C231 C232 1.382 1_655 S
C231 C233 1.403 . S
C232 H205 0.950 . S
C232 C218 1.411 . S
C232 C231 1.382 1_455 S
C233 C217 1.411 . S
C233 C231 1.403 . S
C233 C234 1.489 . S
C234 C233 1.489 . S
C234 C235 1.383 . S
C234 C239 1.382 . S
C235 H206 0.950 . S
C235 C234 1.383 . S
C235 C236 1.395 . S
C236 H207 0.950 . S
C236 C235 1.395 . S
C236 C237 1.288 . S
C237 C236 1.288 . S
C237 C238 1.392 . S
C238 H208 0.951 . S
C238 C237 1.392 . S
C238 C239 1.392 . S
C239 H209 0.949 . S
C239 C234 1.382 . S
C239 C238 1.392 . S
H240 C259 0.949 . S
H241 C260 0.950 . S
H242 C262 0.950 . S
H243 C263 0.950 . S
H244 C265 0.950 . S
H245 C268 0.950 . S
H246 C269 0.950 . S
H247 C271 0.951 . S
H248 C272 0.949 . S
H249 C274 0.949 . S
H250 C275 0.950 . S
H251 C277 0.950 . S
H252 C278 0.950 . S
H253 C280 0.950 . S
H254 C283 0.950 . S
H255 C284 0.950 . S
H256 C286 0.951 . S
H257 C287 0.949 . S
C258 C259 1.376 . S
C258 C263 1.386 . S
C258 C264 1.483 . S
C259 H240 0.949 . S
C259 C258 1.376 . S
C259 C260 1.397 . S
C260 H241 0.950 . S
C260 C259 1.397 . S
C260 C261 1.391 . S
C261 C260 1.391 . S
C261 C262 1.405 . S
C262 H242 0.950 . S
C262 C261 1.405 . S
C262 C263 1.367 . S
C263 H243 0.950 . S
C263 C258 1.386 . S
C263 C262 1.367 . S
C264 C258 1.483 . S
C264 C265 1.382 . S
C264 C266 1.403 . S
C265 H244 0.950 . S
C265 C264 1.382 . S
C265 C281 1.411 . S
C266 C264 1.403 . S
C266 C267 1.489 . S
C266 C280 1.411 . S
C267 C266 1.489 . S
C267 C268 1.383 . S
C267 C272 1.382 . S
C268 H245 0.950 . S
C268 C267 1.383 . S
C268 C269 1.395 . S
C269 H246 0.950 . S
C269 C268 1.395 . S
C269 C270 1.288 . S
C270 C269 1.288 . S
C270 C271 1.392 . S
C271 H247 0.951 . S
C271 C270 1.392 . S
C271 C272 1.392 . S
C272 H248 0.949 . S
C272 C267 1.382 . S
C272 C271 1.392 . S
C273 C274 1.376 . S
C273 C278 1.386 . S
C273 C279 1.483 . S
C274 H249 0.949 . S
C274 C273 1.376 . S
C274 C275 1.397 . S
C275 H250 0.950 . S
C275 C274 1.397 . S
C275 C276 1.391 . S
C276 C275 1.391 . S
C276 C277 1.405 . S
C277 H251 0.950 . S
C277 C276 1.405 . S
C277 C278 1.367 . S
C278 H252 0.950 . S
C278 C273 1.386 . S
C278 C277 1.367 . S
C279 C273 1.483 . S
C279 C280 1.382 . S
C279 C281 1.403 . S
C280 H253 0.950 . S
C280 C266 1.411 . S
C280 C279 1.382 . S
C281 C265 1.411 . S
C281 C279 1.403 . S
C281 C282 1.489 . S
C282 C281 1.489 . S
C282 C283 1.383 . S
C282 C287 1.382 . S
C283 H254 0.950 . S
C283 C282 1.383 . S
C283 C284 1.395 . S
C284 H255 0.950 . S
C284 C283 1.395 . S
C284 C285 1.288 . S
C285 C284 1.288 . S
C285 C286 1.392 . S
C286 H256 0.951 . S
C286 C285 1.392 . S
C286 C287 1.392 . S
C287 H257 0.949 . S
C287 C282 1.382 . S
C287 C286 1.392 . S
H288 C307 0.949 . S
H289 C308 0.950 . S
H290 C310 0.950 . S
H291 C311 0.950 . S
H292 C313 0.950 . S
H293 C316 0.950 . S
H294 C317 0.950 . S
H295 C319 0.951 . S
H296 C320 0.949 1_545 S
H297 C322 0.949 . S
H298 C323 0.950 . S
H299 C325 0.950 . S
H300 C326 0.950 . S
H301 C328 0.950 . S
H302 C331 0.950 . S
H303 C332 0.950 . S
H304 C334 0.951 . S
H305 C335 0.949 1_565 S
C306 C307 1.376 . S
C306 C311 1.386 . S
C306 C312 1.483 . S
C307 H288 0.949 . S
C307 C306 1.376 . S
C307 C308 1.397 . S
C308 H289 0.950 . S
C308 C307 1.397 . S
C308 C309 1.391 . S
C309 C308 1.391 . S
C309 C310 1.405 . S
C310 H290 0.950 . S
C310 C309 1.405 . S
C310 C311 1.367 . S
C311 H291 0.950 . S
C311 C306 1.386 . S
C311 C310 1.367 . S
C312 C306 1.483 . S
C312 C313 1.382 . S
C312 C314 1.403 . S
C313 H292 0.950 . S
C313 C312 1.382 . S
C313 C329 1.411 1_565 S
C314 C312 1.403 . S
C314 C315 1.489 . S
C314 C328 1.411 1_565 S
C315 C314 1.489 . S
C315 C316 1.383 . S
C315 C320 1.382 . S
C316 H293 0.950 . S
C316 C315 1.383 . S
C316 C317 1.395 . S
C317 H294 0.950 . S
C317 C316 1.395 . S
C317 C318 1.288 . S
C318 C317 1.288 . S
C318 C319 1.392 . S
C319 H295 0.951 . S
C319 C318 1.392 . S
C319 C320 1.392 . S
C320 H296 0.949 1_565 S
C320 C315 1.382 . S
C320 C319 1.392 . S
C321 C322 1.376 . S
C321 C326 1.386 . S
C321 C327 1.483 . S
C322 H297 0.949 . S
C322 C321 1.376 . S
C322 C323 1.397 . S
C323 H298 0.950 . S
C323 C322 1.397 . S
C323 C324 1.391 . S
C324 C323 1.391 . S
C324 C325 1.405 . S
C325 H299 0.950 . S
C325 C324 1.405 . S
C325 C326 1.367 . S
C326 H300 0.950 . S
C326 C321 1.386 . S
C326 C325 1.367 . S
C327 C321 1.483 . S
C327 C328 1.382 . S
C327 C329 1.403 . S
C328 H301 0.950 . S
C328 C314 1.411 1_545 S
C328 C327 1.382 . S
C329 C313 1.411 1_545 S
C329 C327 1.403 . S
C329 C330 1.489 . S
C330 C329 1.489 . S
C330 C331 1.383 . S
C330 C335 1.382 . S
C331 H302 0.950 . S
C331 C330 1.383 . S
C331 C332 1.395 . S
C332 H303 0.950 . S
C332 C331 1.395 . S
C332 C333 1.288 . S
C333 C332 1.288 . S
C333 C334 1.392 . S
C334 H304 0.951 . S
C334 C333 1.392 . S
C334 C335 1.392 . S
C335 H305 0.949 1_545 S
C335 C330 1.382 . S
C335 C334 1.392 . S
H336 C355 0.949 1_455 S
H337 C356 0.950 . S
H338 C358 0.950 . S
H339 C359 0.950 . S
H340 C361 0.950 . S
H341 C364 0.950 . S
H342 C365 0.950 . S
H343 C367 0.951 . S
H344 C368 0.949 . S
H345 C370 0.949 1_655 S
H346 C371 0.950 . S
H347 C373 0.950 . S
H348 C374 0.950 . S
H349 C376 0.950 . S
H350 C379 0.950 . S
H351 C380 0.950 . S
H352 C382 0.951 . S
H353 C383 0.949 . S
C354 C355 1.376 . S
C354 C359 1.386 . S
C354 C360 1.483 . S
C355 H336 0.949 1_655 S
C355 C354 1.376 . S
C355 C356 1.397 . S
C356 H337 0.950 . S
C356 C355 1.397 . S
C356 C357 1.391 . S
C357 C356 1.391 . S
C357 C358 1.405 . S
C358 H338 0.950 . S
C358 C357 1.405 . S
C358 C359 1.367 . S
C359 H339 0.950 . S
C359 C354 1.386 . S
C359 C358 1.367 . S
C360 C354 1.483 . S
C360 C361 1.382 1_655 S
C360 C362 1.403 . S
C361 H340 0.950 . S
C361 C360 1.382 1_455 S
C361 C377 1.411 1_545 S
C362 C360 1.403 . S
C362 C363 1.489 . S
C362 C376 1.411 1_545 S
C363 C362 1.489 . S
C363 C364 1.383 . S
C363 C368 1.382 . S
C364 H341 0.950 . S
C364 C363 1.383 . S
C364 C365 1.395 . S
C365 H342 0.950 . S
C365 C364 1.395 . S
C365 C366 1.288 . S
C366 C365 1.288 . S
C366 C367 1.392 . S
C367 H343 0.951 . S
C367 C366 1.392 . S
C367 C368 1.392 . S
C368 H344 0.949 . S
C368 C363 1.382 . S
C368 C367 1.392 . S
C369 C370 1.376 . S
C369 C374 1.386 . S
C369 C375 1.483 . S
C370 H345 0.949 1_455 S
C370 C369 1.376 . S
C370 C371 1.397 . S
C371 H346 0.950 . S
C371 C370 1.397 . S
C371 C372 1.391 . S
C372 C371 1.391 . S
C372 C373 1.405 . S
C373 H347 0.950 . S
C373 C372 1.405 . S
C373 C374 1.367 . S
C374 H348 0.950 . S
C374 C369 1.386 . S
C374 C373 1.367 . S
C375 C369 1.483 . S
C375 C376 1.382 1_455 S
C375 C377 1.403 . S
C376 H349 0.950 . S
C376 C362 1.411 1_565 S
C376 C375 1.382 1_655 S
C377 C361 1.411 1_565 S
C377 C375 1.403 . S
C377 C378 1.489 . S
C378 C377 1.489 . S
C378 C379 1.383 . S
C378 C383 1.382 . S
C379 H350 0.950 . S
C379 C378 1.383 . S
C379 C380 1.395 . S
C380 H351 0.950 . S
C380 C379 1.395 . S
C380 C381 1.288 . S
C381 C380 1.288 . S
C381 C382 1.392 . S
C382 H352 0.951 . S
C382 C381 1.392 . S
C382 C383 1.392 . S
C383 H353 0.949 . S
C383 C378 1.382 . S
C383 C382 1.392 . S
C384 O385 1.160 1_556 S
C384 O391 1.185 . S
O385 C384 1.160 1_554 S
O386 Zn387 1.899 . S
O386 C394 1.284 . S
Zn387 O386 1.899 . S
Zn387 O388 2.032 1_554 S
Zn387 O391 2.086 1_554 S
Zn387 O396 1.977 . S
O388 Zn387 2.032 1_556 S
O388 C392 1.278 . S
C389 O390 1.203 . S
C389 O396 1.267 . S
O390 C389 1.203 . S
O391 C384 1.185 . S
O391 Zn387 2.086 1_556 S
C392 O388 1.278 . S
C392 O393 1.211 . S
O393 C392 1.211 . S
C394 O386 1.284 . S
C394 O395 1.273 . S
O395 C394 1.273 . S
O396 Zn387 1.977 . S
O396 C389 1.267 . S
C397 O398 1.160 . S
C397 O404 1.185 . S
O398 C397 1.160 . S
O399 Zn400 1.899 . S
O399 C407 1.284 . S
Zn400 O399 1.899 . S
Zn400 O401 2.032 . S
Zn400 O404 2.086 . S
Zn400 O409 1.977 . S
O401 Zn400 2.032 . S
O401 C405 1.278 . S
C402 O403 1.203 . S
C402 O409 1.267 . S
O403 C402 1.203 . S
O404 C397 1.185 . S
O404 Zn400 2.086 . S
C405 O401 1.278 . S
C405 O406 1.211 . S
O406 C405 1.211 . S
C407 O399 1.284 . S
C407 O408 1.273 . S
O408 C407 1.273 . S
O409 Zn400 1.977 . S
O409 C402 1.267 . S
C410 O411 1.160 . S
C410 O417 1.185 . S
O411 C410 1.160 . S
O412 Zn413 1.899 . S
O412 C420 1.284 . S
Zn413 O412 1.899 . S
Zn413 O414 2.032 . S
Zn413 O417 2.086 . S
Zn413 O422 1.977 . S
O414 Zn413 2.032 . S
O414 C418 1.278 . S
C415 O416 1.203 . S
C415 O422 1.267 . S
O416 C415 1.203 . S
O417 C410 1.185 . S
O417 Zn413 2.086 . S
C418 O414 1.278 . S
C418 O419 1.211 . S
O419 C418 1.211 . S
C420 O412 1.284 . S
C420 O421 1.273 . S
O421 C420 1.273 . S
O422 Zn413 1.977 . S
O422 C415 1.267 . S
C423 O424 1.160 . S
C423 O430 1.185 . S
O424 C423 1.160 . S
O425 Zn426 1.899 . S
O425 C433 1.284 . S
Zn426 O425 1.899 . S
Zn426 O427 2.032 . S
Zn426 O430 2.086 . S
Zn426 O435 1.977 . S
O427 Zn426 2.032 . S
O427 C431 1.278 . S
C428 O429 1.203 . S
C428 O435 1.267 . S
O429 C428 1.203 . S
O430 C423 1.185 . S
O430 Zn426 2.086 . S
C431 O427 1.278 . S
C431 O432 1.211 . S
O432 C431 1.211 . S
C433 O425 1.284 . S
C433 O434 1.273 . S
O434 C433 1.273 . S
O435 Zn426 1.977 . S
O435 C428 1.267 . S
C436 O437 1.160 . S
C436 O443 1.185 . S
O437 C436 1.160 . S
O438 Zn439 1.899 . S
O438 C446 1.284 . S
Zn439 O438 1.899 . S
Zn439 O440 2.032 . S
Zn439 O443 2.086 . S
Zn439 O448 1.977 . S
O440 Zn439 2.032 . S
O440 C444 1.278 . S
C441 O442 1.203 . S
C441 O448 1.267 . S
O442 C441 1.203 . S
O443 C436 1.185 . S
O443 Zn439 2.086 . S
C444 O440 1.278 . S
C444 O445 1.211 . S
O445 C444 1.211 . S
C446 O438 1.284 . S
C446 O447 1.273 . S
O447 C446 1.273 . S
O448 Zn439 1.977 . S
O448 C441 1.267 . S
C449 O450 1.160 . S
C449 O456 1.185 . S
O450 C449 1.160 . S
O451 Zn452 1.899 . S
O451 C459 1.284 . S
Zn452 O451 1.899 . S
Zn452 O453 2.032 . S
Zn452 O456 2.086 . S
Zn452 O461 1.977 . S
O453 Zn452 2.032 . S
O453 C457 1.278 . S
C454 O455 1.203 . S
C454 O461 1.267 . S
O455 C454 1.203 . S
O456 C449 1.185 . S
O456 Zn452 2.086 . S
C457 O453 1.278 . S
C457 O458 1.211 . S
O458 C457 1.211 . S
C459 O451 1.284 . S
C459 O460 1.273 . S
O460 C459 1.273 . S
O461 Zn452 1.977 . S
O461 C454 1.267 . S
C462 O463 1.160 1_556 S
C462 O469 1.185 . S
O463 C462 1.160 1_554 S
O464 Zn465 1.899 . S
O464 C472 1.284 . S
Zn465 O464 1.899 . S
Zn465 O466 2.032 1_554 S
Zn465 O469 2.086 1_554 S
Zn465 O474 1.977 . S
O466 Zn465 2.032 1_556 S
O466 C470 1.278 . S
C467 O468 1.203 . S
C467 O474 1.267 . S
O468 C467 1.203 . S
O469 C462 1.185 . S
O469 Zn465 2.086 1_556 S
C470 O466 1.278 . S
C470 O471 1.211 . S
O471 C470 1.211 . S
C472 O464 1.284 . S
C472 O473 1.273 . S
O473 C472 1.273 . S
O474 Zn465 1.977 . S
O474 C467 1.267 . S
C475 O476 1.160 . S
C475 O482 1.185 . S
O476 C475 1.160 . S
O477 Zn478 1.899 . S
O477 C485 1.284 . S
Zn478 O477 1.899 . S
Zn478 O479 2.032 . S
Zn478 O482 2.086 . S
Zn478 O487 1.977 . S
O479 Zn478 2.032 . S
O479 C483 1.278 . S
C480 O481 1.203 . S
C480 O487 1.267 . S
O481 C480 1.203 . S
O482 C475 1.185 . S
O482 Zn478 2.086 . S
C483 O479 1.278 . S
C483 O484 1.211 . S
O484 C483 1.211 . S
C485 O477 1.284 . S
C485 O486 1.273 . S
O486 C485 1.273 . S
O487 Zn478 1.977 . S
O487 C480 1.267 . S
C488 C489 1.363 . S
C488 C494 1.379 . S
C488 N496 1.356 . S
C489 C488 1.363 . S
C489 C495 1.363 . S
C490 C491 1.363 . S
C490 C495 1.379 . S
C490 N497 1.356 . S
C491 C490 1.363 . S
C491 C494 1.363 . S
N492 C494 1.356 . S
N492 H504 0.984 . S
N492 H505 0.985 . S
N493 C495 1.356 . S
N493 H498 0.984 . S
N493 H499 0.985 . S
C494 C488 1.379 . S
C494 C491 1.363 . S
C494 N492 1.356 . S
C495 C489 1.363 . S
C495 C490 1.379 . S
C495 N493 1.356 . S
N496 C488 1.356 . S
N496 H502 0.984 . S
N496 H503 0.984 . S
N497 C490 1.356 . S
N497 H500 0.984 . S
N497 H501 0.985 . S
H498 N493 0.984 . S
H499 N493 0.985 . S
H500 N497 0.984 . S
H501 N497 0.985 . S
H502 N496 0.984 . S
H503 N496 0.984 . S
H504 N492 0.984 . S
H505 N492 0.985 . S
C506 C507 1.363 . S
C506 C512 1.379 . S
C506 N514 1.356 . S
C507 C506 1.363 . S
C507 C513 1.363 . S
C508 C509 1.363 . S
C508 C513 1.379 . S
C508 N515 1.356 . S
C509 C508 1.363 . S
C509 C512 1.363 . S
N510 C512 1.356 . S
N510 H522 0.984 . S
N510 H523 0.985 . S
N511 C513 1.356 . S
N511 H516 0.984 . S
N511 H517 0.985 . S
C512 C506 1.379 . S
C512 C509 1.363 . S
C512 N510 1.356 . S
C513 C507 1.363 . S
C513 C508 1.379 . S
C513 N511 1.356 . S
N514 C506 1.356 . S
N514 H520 0.984 . S
N514 H521 0.984 . S
N515 C508 1.356 . S
N515 H518 0.984 . S
N515 H519 0.985 . S
H516 N511 0.984 . S
H517 N511 0.985 . S
H518 N515 0.984 . S
H519 N515 0.985 . S
H520 N514 0.984 . S
H521 N514 0.984 . S
H522 N510 0.984 . S
H523 N510 0.985 . S
C524 C525 1.363 . S
C524 C530 1.379 . S
C524 N532 1.356 . S
C525 C524 1.363 . S
C525 C531 1.363 . S
C526 C527 1.363 . S
C526 C531 1.379 . S
C526 N533 1.356 . S
C527 C526 1.363 . S
C527 C530 1.363 . S
N528 C530 1.356 . S
N528 H540 0.984 . S
N528 H541 0.985 . S
N529 C531 1.356 . S
N529 H534 0.984 . S
N529 H535 0.985 . S
C530 C524 1.379 . S
C530 C527 1.363 . S
C530 N528 1.356 . S
C531 C525 1.363 . S
C531 C526 1.379 . S
C531 N529 1.356 . S
N532 C524 1.356 . S
N532 H538 0.984 . S
N532 H539 0.984 . S
N533 C526 1.356 . S
N533 H536 0.984 . S
N533 H537 0.985 . S
H534 N529 0.984 . S
H535 N529 0.985 . S
H536 N533 0.984 . S
H537 N533 0.985 . S
H538 N532 0.984 . S
H539 N532 0.984 . S
H540 N528 0.984 . S
H541 N528 0.985 . S
C542 C543 1.363 1_556 S
C542 C548 1.379 . S
C542 N550 1.356 . S
C543 C542 1.363 1_554 S
C543 C549 1.363 . S
C544 C545 1.363 . S
C544 C549 1.379 . S
C544 N551 1.356 . S
C545 C544 1.363 . S
C545 C548 1.363 1_554 S
N546 C548 1.356 . S
N546 H558 0.984 . S
N546 H559 0.985 . S
N547 C549 1.356 . S
N547 H552 0.984 . S
N547 H553 0.985 . S
C548 C542 1.379 . S
C548 C545 1.363 1_556 S
C548 N546 1.356 . S
C549 C543 1.363 . S
C549 C544 1.379 . S
C549 N547 1.356 . S
N550 C542 1.356 . S
N550 H556 0.984 . S
N550 H557 0.984 . S
N551 C544 1.356 . S
N551 H554 0.984 . S
N551 H555 0.985 . S
H552 N547 0.984 . S
H553 N547 0.985 . S
H554 N551 0.984 . S
H555 N551 0.985 . S
H556 N550 0.984 . S
H557 N550 0.984 . S
H558 N546 0.984 . S
H559 N546 0.985 . S
C560 C561 1.363 . S
C560 C566 1.379 . S
C560 N568 1.356 . S
C561 C560 1.363 . S
C561 C567 1.363 1_556 S
C562 C563 1.363 1_554 S
C562 C567 1.379 . S
C562 N569 1.356 . S
C563 C562 1.363 1_556 S
C563 C566 1.363 . S
N564 C566 1.356 . S
N564 H576 0.984 . S
N564 H577 0.985 . S
N565 C567 1.356 . S
N565 H570 0.984 . S
N565 H571 0.985 . S
C566 C560 1.379 . S
C566 C563 1.363 . S
C566 N564 1.356 . S
C567 C561 1.363 1_554 S
C567 C562 1.379 . S
C567 N565 1.356 . S
N568 C560 1.356 . S
N568 H574 0.984 . S
N568 H575 0.984 . S
N569 C562 1.356 . S
N569 H572 0.984 . S
N569 H573 0.985 . S
H570 N565 0.984 . S
H571 N565 0.985 . S
H572 N569 0.984 . S
H573 N569 0.985 . S
H574 N568 0.984 . S
H575 N568 0.984 . S
H576 N564 0.984 . S
H577 N564 0.985 . S
C578 C579 1.363 . S
C578 C584 1.379 . S
C578 N586 1.356 . S
C579 C578 1.363 . S
C579 C585 1.363 . S
C580 C581 1.363 . S
C580 C585 1.379 . S
C580 N587 1.356 . S
C581 C580 1.363 . S
C581 C584 1.363 . S
N582 C584 1.356 . S
N582 H594 0.984 . S
N582 H595 0.985 . S
N583 C585 1.356 . S
N583 H588 0.984 . S
N583 H589 0.985 . S
C584 C578 1.379 . S
C584 C581 1.363 . S
C584 N582 1.356 . S
C585 C579 1.363 . S
C585 C580 1.379 . S
C585 N583 1.356 . S
N586 C578 1.356 . S
N586 H592 0.984 . S
N586 H593 0.984 . S
N587 C580 1.356 . S
N587 H590 0.984 . S
N587 H591 0.985 . S
H588 N583 0.984 . S
H589 N583 0.985 . S
H590 N587 0.984 . S
H591 N587 0.985 . S
H592 N586 0.984 . S
H593 N586 0.984 . S
H594 N582 0.984 . S
H595 N582 0.985 . S
C596 C597 1.363 . S
C596 C602 1.379 . S
C596 N604 1.356 . S
C597 C596 1.363 . S
C597 C603 1.363 . S
C598 C599 1.363 . S
C598 C603 1.379 . S
C598 N605 1.356 . S
C599 C598 1.363 . S
C599 C602 1.363 . S
N600 C602 1.356 . S
N600 H612 0.984 . S
N600 H613 0.985 . S
N601 C603 1.356 . S
N601 H606 0.984 . S
N601 H607 0.985 . S
C602 C596 1.379 . S
C602 C599 1.363 . S
C602 N600 1.356 . S
C603 C597 1.363 . S
C603 C598 1.379 . S
C603 N601 1.356 . S
N604 C596 1.356 . S
N604 H610 0.984 . S
N604 H611 0.984 . S
N605 C598 1.356 . S
N605 H608 0.984 . S
N605 H609 0.985 . S
H606 N601 0.984 . S
H607 N601 0.985 . S
H608 N605 0.984 . S
H609 N605 0.985 . S
H610 N604 0.984 . S
H611 N604 0.984 . S
H612 N600 0.984 . S
H613 N600 0.985 . S
C614 C615 1.363 . S
C614 C620 1.379 . S
C614 N622 1.356 . S
C615 C614 1.363 . S
C615 C621 1.363 . S
C616 C617 1.363 . S
C616 C621 1.379 . S
C616 N623 1.356 . S
C617 C616 1.363 . S
C617 C620 1.363 . S
N618 C620 1.356 . S
N618 H630 0.984 . S
N618 H631 0.985 . S
N619 C621 1.356 . S
N619 H624 0.984 . S
N619 H625 0.985 . S
C620 C614 1.379 . S
C620 C617 1.363 . S
C620 N618 1.356 . S
C621 C615 1.363 . S
C621 C616 1.379 . S
C621 N619 1.356 . S
N622 C614 1.356 . S
N622 H628 0.984 . S
N622 H629 0.984 . S
N623 C616 1.356 . S
N623 H626 0.984 . S
N623 H627 0.985 . S
H624 N619 0.984 . S
H625 N619 0.985 . S
H626 N623 0.984 . S
H627 N623 0.985 . S
H628 N622 0.984 . S
H629 N622 0.984 . S
H630 N618 0.984 . S
H631 N618 0.985 . S
C632 C633 1.363 . S
C632 C638 1.379 . S
C632 N640 1.356 . S
C633 C632 1.363 . S
C633 C639 1.363 . S
C634 C635 1.363 . S
C634 C639 1.379 . S
C634 N641 1.356 . S
C635 C634 1.363 . S
C635 C638 1.363 . S
N636 C638 1.356 . S
N636 H648 0.984 . S
N636 H649 0.985 . S
N637 C639 1.356 . S
N637 H642 0.984 . S
N637 H643 0.985 . S
C638 C632 1.379 . S
C638 C635 1.363 . S
C638 N636 1.356 . S
C639 C633 1.363 . S
C639 C634 1.379 . S
C639 N637 1.356 . S
N640 C632 1.356 . S
N640 H646 0.984 . S
N640 H647 0.984 . S
N641 C634 1.356 . S
N641 H644 0.984 . S
N641 H645 0.985 . S
H642 N637 0.984 . S
H643 N637 0.985 . S
H644 N641 0.984 . S
H645 N641 0.985 . S
H646 N640 0.984 . S
H647 N640 0.984 . S
H648 N636 0.984 . S
H649 N636 0.985 . S
C650 C651 1.363 1_556 S
C650 C656 1.379 . S
C650 N658 1.356 . S
C651 C650 1.363 1_554 S
C651 C657 1.363 . S
C652 C653 1.363 . S
C652 C657 1.379 . S
C652 N659 1.356 . S
C653 C652 1.363 . S
C653 C656 1.363 1_554 S
N654 C656 1.356 . S
N654 H666 0.984 . S
N654 H667 0.985 . S
N655 C657 1.356 . S
N655 H660 0.984 . S
N655 H661 0.985 . S
C656 C650 1.379 . S
C656 C653 1.363 1_556 S
C656 N654 1.356 . S
C657 C651 1.363 . S
C657 C652 1.379 . S
C657 N655 1.356 . S
N658 C650 1.356 . S
N658 H664 0.984 . S
N658 H665 0.984 . S
N659 C652 1.356 . S
N659 H662 0.984 . S
N659 H663 0.985 . S
H660 N655 0.984 . S
H661 N655 0.985 . S
H662 N659 0.984 . S
H663 N659 0.985 . S
H664 N658 0.984 . S
H665 N658 0.984 . S
H666 N654 0.984 . S
H667 N654 0.985 . S
C668 C669 1.363 . S
C668 C674 1.379 . S
C668 N676 1.356 . S
C669 C668 1.363 . S
C669 C675 1.363 . S
C670 C671 1.363 . S
C670 C675 1.379 . S
C670 N677 1.356 . S
C671 C670 1.363 . S
C671 C674 1.363 . S
N672 C674 1.356 . S
N672 H684 0.984 . S
N672 H685 0.985 . S
N673 C675 1.356 . S
N673 H678 0.984 . S
N673 H679 0.985 . S
C674 C668 1.379 . S
C674 C671 1.363 . S
C674 N672 1.356 . S
C675 C669 1.363 . S
C675 C670 1.379 . S
C675 N673 1.356 . S
N676 C668 1.356 . S
N676 H682 0.984 . S
N676 H683 0.984 . S
N677 C670 1.356 . S
N677 H680 0.984 . S
N677 H681 0.985 . S
H678 N673 0.984 . S
H679 N673 0.985 . S
H680 N677 0.984 . S
H681 N677 0.985 . S
H682 N676 0.984 . S
H683 N676 0.984 . S
H684 N672 0.984 . S
H685 N672 0.985 . S
C686 C687 1.363 . S
C686 C692 1.379 . S
C686 N694 1.356 . S
C687 C686 1.363 . S
C687 C693 1.363 . S
C688 C689 1.363 . S
C688 C693 1.379 . S
C688 N695 1.356 . S
C689 C688 1.363 . S
C689 C692 1.363 . S
N690 C692 1.356 . S
N690 H702 0.984 . S
N690 H703 0.985 . S
N691 C693 1.356 . S
N691 H696 0.984 . S
N691 H697 0.985 . S
C692 C686 1.379 . S
C692 C689 1.363 . S
C692 N690 1.356 . S
C693 C687 1.363 . S
C693 C688 1.379 . S
C693 N691 1.356 . S
N694 C686 1.356 . S
N694 H700 0.984 . S
N694 H701 0.984 . S
N695 C688 1.356 . S
N695 H698 0.984 . S
N695 H699 0.985 . S
H696 N691 0.984 . S
H697 N691 0.985 . S
H698 N695 0.984 . S
H699 N695 0.985 . S
H700 N694 0.984 . S
H701 N694 0.984 . S
H702 N690 0.984 . S
H703 N690 0.985 . S
C704 C705 1.363 . S
C704 C710 1.379 . S
C704 N712 1.356 . S
C705 C704 1.363 . S
C705 C711 1.363 . S
C706 C707 1.363 . S
C706 C711 1.379 . S
C706 N713 1.356 . S
C707 C706 1.363 . S
C707 C710 1.363 . S
N708 C710 1.356 . S
N708 H720 0.984 . S
N708 H721 0.985 . S
N709 C711 1.356 . S
N709 H714 0.984 . S
N709 H715 0.985 . S
C710 C704 1.379 . S
C710 C707 1.363 . S
C710 N708 1.356 . S
C711 C705 1.363 . S
C711 C706 1.379 . S
C711 N709 1.356 . S
N712 C704 1.356 . S
N712 H718 0.984 . S
N712 H719 0.984 . S
N713 C706 1.356 . S
N713 H716 0.984 . S
N713 H717 0.985 . S
H714 N709 0.984 . S
H715 N709 0.985 . S
H716 N713 0.984 . S
H717 N713 0.985 . S
H718 N712 0.984 . S
H719 N712 0.984 . S
H720 N708 0.984 . S
H721 N708 0.985 . S
C722 C723 1.363 . S
C722 C728 1.379 . S
C722 N730 1.356 . S
C723 C722 1.363 . S
C723 C729 1.363 . S
C724 C725 1.363 . S
C724 C729 1.379 . S
C724 N731 1.356 . S
C725 C724 1.363 . S
C725 C728 1.363 . S
N726 C728 1.356 . S
N726 H738 0.984 . S
N726 H739 0.985 . S
N727 C729 1.356 . S
N727 H732 0.984 . S
N727 H733 0.985 . S
C728 C722 1.379 . S
C728 C725 1.363 . S
C728 N726 1.356 . S
C729 C723 1.363 . S
C729 C724 1.379 . S
C729 N727 1.356 . S
N730 C722 1.356 . S
N730 H736 0.984 . S
N730 H737 0.984 . S
N731 C724 1.356 . S
N731 H734 0.984 . S
N731 H735 0.985 . S
H732 N727 0.984 . S
H733 N727 0.985 . S
H734 N731 0.984 . S
H735 N731 0.985 . S
H736 N730 0.984 . S
H737 N730 0.984 . S
H738 N726 0.984 . S
H739 N726 0.985 . S
C740 C741 1.363 . S
C740 C746 1.379 . S
C740 N748 1.356 . S
C741 C740 1.363 . S
C741 C747 1.363 1_556 S
C742 C743 1.363 1_554 S
C742 C747 1.379 . S
C742 N749 1.356 . S
C743 C742 1.363 1_556 S
C743 C746 1.363 . S
N744 C746 1.356 . S
N744 H756 0.984 . S
N744 H757 0.985 . S
N745 C747 1.356 . S
N745 H750 0.984 . S
N745 H751 0.985 . S
C746 C740 1.379 . S
C746 C743 1.363 . S
C746 N744 1.356 . S
C747 C741 1.363 1_554 S
C747 C742 1.379 . S
C747 N745 1.356 . S
N748 C740 1.356 . S
N748 H754 0.984 . S
N748 H755 0.984 . S
N749 C742 1.356 . S
N749 H752 0.984 . S
N749 H753 0.985 . S
H750 N745 0.984 . S
H751 N745 0.985 . S
H752 N749 0.984 . S
H753 N749 0.985 . S
H754 N748 0.984 . S
H755 N748 0.984 . S
H756 N744 0.984 . S
H757 N744 0.985 . S
C758 C759 1.363 . S
C758 C764 1.379 . S
C758 N766 1.356 . S
C759 C758 1.363 . S
C759 C765 1.363 . S
C760 C761 1.363 . S
C760 C765 1.379 . S
C760 N767 1.356 . S
C761 C760 1.363 . S
C761 C764 1.363 . S
N762 C764 1.356 . S
N762 H774 0.984 . S
N762 H775 0.985 . S
N763 C765 1.356 . S
N763 H768 0.984 . S
N763 H769 0.985 . S
C764 C758 1.379 . S
C764 C761 1.363 . S
C764 N762 1.356 . S
C765 C759 1.363 . S
C765 C760 1.379 . S
C765 N763 1.356 . S
N766 C758 1.356 . S
N766 H772 0.984 . S
N766 H773 0.984 . S
N767 C760 1.356 . S
N767 H770 0.984 . S
N767 H771 0.985 . S
H768 N763 0.984 . S
H769 N763 0.985 . S
H770 N767 0.984 . S
H771 N767 0.985 . S
H772 N766 0.984 . S
H773 N766 0.984 . S
H774 N762 0.984 . S
H775 N762 0.985 . S
C776 C777 1.363 . S
C776 C782 1.379 . S
C776 N784 1.356 . S
C777 C776 1.363 . S
C777 C783 1.363 . S
C778 C779 1.363 . S
C778 C783 1.379 . S
C778 N785 1.356 . S
C779 C778 1.363 . S
C779 C782 1.363 . S
N780 C782 1.356 . S
N780 H792 0.984 . S
N780 H793 0.985 . S
N781 C783 1.356 . S
N781 H786 0.984 . S
N781 H787 0.985 . S
C782 C776 1.379 . S
C782 C779 1.363 . S
C782 N780 1.356 . S
C783 C777 1.363 . S
C783 C778 1.379 . S
C783 N781 1.356 . S
N784 C776 1.356 . S
N784 H790 0.984 . S
N784 H791 0.984 . S
N785 C778 1.356 . S
N785 H788 0.984 . S
N785 H789 0.985 . S
H786 N781 0.984 . S
H787 N781 0.985 . S
H788 N785 0.984 . S
H789 N785 0.985 . S
H790 N784 0.984 . S
H791 N784 0.984 . S
H792 N780 0.984 . S
H793 N780 0.985 . S
C794 C795 1.363 . S
C794 C800 1.379 . S
C794 N802 1.356 . S
C795 C794 1.363 . S
C795 C801 1.363 . S
C796 C797 1.363 . S
C796 C801 1.379 . S
C796 N803 1.356 . S
C797 C796 1.363 . S
C797 C800 1.363 . S
N798 C800 1.356 . S
N798 H810 0.984 . S
N798 H811 0.985 . S
N799 C801 1.356 . S
N799 H804 0.984 . S
N799 H805 0.985 . S
C800 C794 1.379 . S
C800 C797 1.363 . S
C800 N798 1.356 . S
C801 C795 1.363 . S
C801 C796 1.379 . S
C801 N799 1.356 . S
N802 C794 1.356 . S
N802 H808 0.984 . S
N802 H809 0.984 . S
N803 C796 1.356 . S
N803 H806 0.984 . S
N803 H807 0.985 . S
H804 N799 0.984 . S
H805 N799 0.985 . S
H806 N803 0.984 . S
H807 N803 0.985 . S
H808 N802 0.984 . S
H809 N802 0.984 . S
H810 N798 0.984 . S
H811 N798 0.985 . S
C812 C813 1.363 . S
C812 C818 1.379 . S
C812 N820 1.356 . S
C813 C812 1.363 . S
C813 C819 1.363 . S
C814 C815 1.363 . S
C814 C819 1.379 . S
C814 N821 1.356 . S
C815 C814 1.363 . S
C815 C818 1.363 . S
N816 C818 1.356 . S
N816 H828 0.984 . S
N816 H829 0.985 . S
N817 C819 1.356 . S
N817 H822 0.984 . S
N817 H823 0.985 . S
C818 C812 1.379 . S
C818 C815 1.363 . S
C818 N816 1.356 . S
C819 C813 1.363 . S
C819 C814 1.379 . S
C819 N817 1.356 . S
N820 C812 1.356 . S
N820 H826 0.984 . S
N820 H827 0.984 . S
N821 C814 1.356 . S
N821 H824 0.984 . S
N821 H825 0.985 . S
H822 N817 0.984 . S
H823 N817 0.985 . S
H824 N821 0.984 . S
H825 N821 0.985 . S
H826 N820 0.984 . S
H827 N820 0.984 . S
H828 N816 0.984 . S
H829 N816 0.985 . S
C830 C831 1.363 . S
C830 C836 1.379 . S
C830 N838 1.356 . S
C831 C830 1.363 . S
C831 C837 1.363 . S
C832 C833 1.363 . S
C832 C837 1.379 . S
C832 N839 1.356 . S
C833 C832 1.363 . S
C833 C836 1.363 . S
N834 C836 1.356 . S
N834 H846 0.984 . S
N834 H847 0.985 . S
N835 C837 1.356 . S
N835 H840 0.984 . S
N835 H841 0.985 . S
C836 C830 1.379 . S
C836 C833 1.363 . S
C836 N834 1.356 . S
C837 C831 1.363 . S
C837 C832 1.379 . S
C837 N835 1.356 . S
N838 C830 1.356 . S
N838 H844 0.984 . S
N838 H845 0.984 . S
N839 C832 1.356 . S
N839 H842 0.984 . S
N839 H843 0.985 . S
H840 N835 0.984 . S
H841 N835 0.985 . S
H842 N839 0.984 . S
H843 N839 0.985 . S
H844 N838 0.984 . S
H845 N838 0.984 . S
H846 N834 0.984 . S
H847 N834 0.985 . S
C848 C849 1.363 . S
C848 C854 1.379 . S
C848 N856 1.356 . S
C849 C848 1.363 . S
C849 C855 1.363 . S
C850 C851 1.363 . S
C850 C855 1.379 . S
C850 N857 1.356 . S
C851 C850 1.363 . S
C851 C854 1.363 . S
N852 C854 1.356 . S
N852 H864 0.984 . S
N852 H865 0.985 . S
N853 C855 1.356 . S
N853 H858 0.984 . S
N853 H859 0.985 . S
C854 C848 1.379 . S
C854 C851 1.363 . S
C854 N852 1.356 . S
C855 C849 1.363 . S
C855 C850 1.379 . S
C855 N853 1.356 . S
N856 C848 1.356 . S
N856 H862 0.984 . S
N856 H863 0.984 . S
N857 C850 1.356 . S
N857 H860 0.984 . S
N857 H861 0.985 . S
H858 N853 0.984 . S
H859 N853 0.985 . S
H860 N857 0.984 . S
H861 N857 0.985 . S
H862 N856 0.984 . S
H863 N856 0.984 . S
H864 N852 0.984 . S
H865 N852 0.985 . S
C866 C867 1.363 . S
C866 C872 1.379 . S
C866 N874 1.356 . S
C867 C866 1.363 . S
C867 C873 1.363 . S
C868 C869 1.363 . S
C868 C873 1.379 . S
C868 N875 1.356 . S
C869 C868 1.363 . S
C869 C872 1.363 . S
N870 C872 1.356 . S
N870 H882 0.984 . S
N870 H883 0.985 . S
N871 C873 1.356 . S
N871 H876 0.984 . S
N871 H877 0.985 . S
C872 C866 1.379 . S
C872 C869 1.363 . S
C872 N870 1.356 . S
C873 C867 1.363 . S
C873 C868 1.379 . S
C873 N871 1.356 . S
N874 C866 1.356 . S
N874 H880 0.984 . S
N874 H881 0.984 . S
N875 C868 1.356 . S
N875 H878 0.984 . S
N875 H879 0.985 . S
H876 N871 0.984 . S
H877 N871 0.985 . S
H878 N875 0.984 . S
H879 N875 0.985 . S
H880 N874 0.984 . S
H881 N874 0.984 . S
H882 N870 0.984 . S
H883 N870 0.985 . S
C884 C885 1.363 . S
C884 C890 1.379 . S
C884 N892 1.356 . S
C885 C884 1.363 . S
C885 C891 1.363 . S
C886 C887 1.363 . S
C886 C891 1.379 . S
C886 N893 1.356 . S
C887 C886 1.363 . S
C887 C890 1.363 . S
N888 C890 1.356 . S
N888 H900 0.984 . S
N888 H901 0.985 . S
N889 C891 1.356 . S
N889 H894 0.984 . S
N889 H895 0.985 . S
C890 C884 1.379 . S
C890 C887 1.363 . S
C890 N888 1.356 . S
C891 C885 1.363 . S
C891 C886 1.379 . S
C891 N889 1.356 . S
N892 C884 1.356 . S
N892 H898 0.984 . S
N892 H899 0.984 . S
N893 C886 1.356 . S
N893 H896 0.984 . S
N893 H897 0.985 . S
H894 N889 0.984 . S
H895 N889 0.985 . S
H896 N893 0.984 . S
H897 N893 0.985 . S
H898 N892 0.984 . S
H899 N892 0.984 . S
H900 N888 0.984 . S
H901 N888 0.985 . S
C902 C903 1.363 . S
C902 C908 1.379 . S
C902 N910 1.356 . S
C903 C902 1.363 . S
C903 C909 1.363 . S
C904 C905 1.363 . S
C904 C909 1.379 . S
C904 N911 1.356 . S
C905 C904 1.363 . S
C905 C908 1.363 . S
N906 C908 1.356 . S
N906 H918 0.984 . S
N906 H919 0.985 . S
N907 C909 1.356 . S
N907 H912 0.984 . S
N907 H913 0.985 . S
C908 C902 1.379 . S
C908 C905 1.363 . S
C908 N906 1.356 . S
C909 C903 1.363 . S
C909 C904 1.379 . S
C909 N907 1.356 . S
N910 C902 1.356 . S
N910 H916 0.984 . S
N910 H917 0.984 . S
N911 C904 1.356 . S
N911 H914 0.984 . S
N911 H915 0.985 . S
H912 N907 0.984 . S
H913 N907 0.985 . S
H914 N911 0.984 . S
H915 N911 0.985 . S
H916 N910 0.984 . S
H917 N910 0.984 . S
H918 N906 0.984 . S
H919 N906 0.985 . S
C920 C921 1.363 . S
C920 C926 1.379 . S
C920 N928 1.356 . S
C921 C920 1.363 . S
C921 C927 1.363 . S
C922 C923 1.363 . S
C922 C927 1.379 . S
C922 N929 1.356 . S
C923 C922 1.363 . S
C923 C926 1.363 . S
N924 C926 1.356 . S
N924 H936 0.984 . S
N924 H937 0.985 . S
N925 C927 1.356 . S
N925 H930 0.984 . S
N925 H931 0.985 . S
C926 C920 1.379 . S
C926 C923 1.363 . S
C926 N924 1.356 . S
C927 C921 1.363 . S
C927 C922 1.379 . S
C927 N925 1.356 . S
N928 C920 1.356 . S
N928 H934 0.984 . S
N928 H935 0.984 . S
N929 C922 1.356 . S
N929 H932 0.984 . S
N929 H933 0.985 . S
H930 N925 0.984 . S
H931 N925 0.985 . S
H932 N929 0.984 . S
H933 N929 0.985 . S
H934 N928 0.984 . S
H935 N928 0.984 . S
H936 N924 0.984 . S
H937 N924 0.985 . S
C938 C939 1.363 . S
C938 C944 1.379 . S
C938 N946 1.356 . S
C939 C938 1.363 . S
C939 C945 1.363 . S
C940 C941 1.363 . S
C940 C945 1.379 . S
C940 N947 1.356 . S
C941 C940 1.363 . S
C941 C944 1.363 . S
N942 C944 1.356 . S
N942 H954 0.984 . S
N942 H955 0.985 . S
N943 C945 1.356 . S
N943 H948 0.984 . S
N943 H949 0.985 . S
C944 C938 1.379 . S
C944 C941 1.363 . S
C944 N942 1.356 . S
C945 C939 1.363 . S
C945 C940 1.379 . S
C945 N943 1.356 . S
N946 C938 1.356 . S
N946 H952 0.984 . S
N946 H953 0.984 . S
N947 C940 1.356 . S
N947 H950 0.984 . S
N947 H951 0.985 . S
H948 N943 0.984 . S
H949 N943 0.985 . S
H950 N947 0.984 . S
H951 N947 0.985 . S
H952 N946 0.984 . S
H953 N946 0.984 . S
H954 N942 0.984 . S
H955 N942 0.985 . S
C956 C957 1.363 . S
C956 C962 1.379 . S
C956 N964 1.356 . S
C957 C956 1.363 . S
C957 C963 1.363 . S
C958 C959 1.363 . S
C958 C963 1.379 . S
C958 N965 1.356 . S
C959 C958 1.363 . S
C959 C962 1.363 . S
N960 C962 1.356 . S
N960 H972 0.984 . S
N960 H973 0.985 . S
N961 C963 1.356 . S
N961 H966 0.984 . S
N961 H967 0.985 . S
C962 C956 1.379 . S
C962 C959 1.363 . S
C962 N960 1.356 . S
C963 C957 1.363 . S
C963 C958 1.379 . S
C963 N961 1.356 . S
N964 C956 1.356 . S
N964 H970 0.984 . S
N964 H971 0.984 . S
N965 C958 1.356 . S
N965 H968 0.984 . S
N965 H969 0.985 . S
H966 N961 0.984 . S
H967 N961 0.985 . S
H968 N965 0.984 . S
H969 N965 0.985 . S
H970 N964 0.984 . S
H971 N964 0.984 . S
H972 N960 0.984 . S
H973 N960 0.985 . S
C974 C975 1.363 . S
C974 C980 1.379 . S
C974 N982 1.356 . S
C975 C974 1.363 . S
C975 C981 1.363 . S
C976 C977 1.363 . S
C976 C981 1.379 . S
C976 N983 1.356 . S
C977 C976 1.363 . S
C977 C980 1.363 . S
N978 C980 1.356 . S
N978 H990 0.984 . S
N978 H991 0.985 . S
N979 C981 1.356 . S
N979 H984 0.984 . S
N979 H985 0.985 . S
C980 C974 1.379 . S
C980 C977 1.363 . S
C980 N978 1.356 . S
C981 C975 1.363 . S
C981 C976 1.379 . S
C981 N979 1.356 . S
N982 C974 1.356 . S
N982 H988 0.984 . S
N982 H989 0.984 . S
N983 C976 1.356 . S
N983 H986 0.984 . S
N983 H987 0.985 . S
H984 N979 0.984 . S
H985 N979 0.985 . S
H986 N983 0.984 . S
H987 N983 0.985 . S
H988 N982 0.984 . S
H989 N982 0.984 . S
H990 N978 0.984 . S
H991 N978 0.985 . S
C992 C993 1.363 . S
C992 C998 1.379 . S
C992 N1000 1.356 . S
C993 C992 1.363 . S
C993 C999 1.363 . S
C994 C995 1.363 . S
C994 C999 1.379 . S
C994 N1001 1.356 . S
C995 C994 1.363 . S
C995 C998 1.363 . S
N996 C998 1.356 . S
N996 H1008 0.984 . S
N996 H1009 0.985 . S
N997 C999 1.356 . S
N997 H1002 0.984 . S
N997 H1003 0.985 . S
C998 C992 1.379 . S
C998 C995 1.363 . S
C998 N996 1.356 . S
C999 C993 1.363 . S
C999 C994 1.379 . S
C999 N997 1.356 . S
N1000 C992 1.356 . S
N1000 H1006 0.984 . S
N1000 H1007 0.984 . S
N1001 C994 1.356 . S
N1001 H1004 0.984 . S
N1001 H1005 0.985 . S
H1002 N997 0.984 . S
H1003 N997 0.985 . S
H1004 N1001 0.984 . S
H1005 N1001 0.985 . S
H1006 N1000 0.984 . S
H1007 N1000 0.984 . S
H1008 N996 0.984 . S
H1009 N996 0.985 . S
C1010 C1011 1.363 . S
C1010 C1016 1.379 . S
C1010 N1018 1.356 . S
C1011 C1010 1.363 . S
C1011 C1017 1.363 . S
C1012 C1013 1.363 . S
C1012 C1017 1.379 . S
C1012 N1019 1.356 . S
C1013 C1012 1.363 . S
C1013 C1016 1.363 . S
N1014 C1016 1.356 . S
N1014 H1026 0.984 . S
N1014 H1027 0.985 . S
N1015 C1017 1.356 . S
N1015 H1020 0.984 . S
N1015 H1021 0.985 . S
C1016 C1010 1.379 . S
C1016 C1013 1.363 . S
C1016 N1014 1.356 . S
C1017 C1011 1.363 . S
C1017 C1012 1.379 . S
C1017 N1015 1.356 . S
N1018 C1010 1.356 . S
N1018 H1024 0.984 . S
N1018 H1025 0.984 . S
N1019 C1012 1.356 . S
N1019 H1022 0.984 . S
N1019 H1023 0.985 . S
H1020 N1015 0.984 . S
H1021 N1015 0.985 . S
H1022 N1019 0.984 . S
H1023 N1019 0.985 . S
H1024 N1018 0.984 . S
H1025 N1018 0.984 . S
H1026 N1014 0.984 . S
H1027 N1014 0.985 . S
C1028 C1029 1.363 . S
C1028 C1034 1.379 . S
C1028 N1036 1.356 . S
C1029 C1028 1.363 . S
C1029 C1035 1.363 . S
C1030 C1031 1.363 . S
C1030 C1035 1.379 . S
C1030 N1037 1.356 . S
C1031 C1030 1.363 . S
C1031 C1034 1.363 . S
N1032 C1034 1.356 . S
N1032 H1044 0.984 . S
N1032 H1045 0.985 . S
N1033 C1035 1.356 . S
N1033 H1038 0.984 . S
N1033 H1039 0.985 . S
C1034 C1028 1.379 . S
C1034 C1031 1.363 . S
C1034 N1032 1.356 . S
C1035 C1029 1.363 . S
C1035 C1030 1.379 . S
C1035 N1033 1.356 . S
N1036 C1028 1.356 . S
N1036 H1042 0.984 . S
N1036 H1043 0.984 . S
N1037 C1030 1.356 . S
N1037 H1040 0.984 . S
N1037 H1041 0.985 . S
H1038 N1033 0.984 . S
H1039 N1033 0.985 . S
H1040 N1037 0.984 . S
H1041 N1037 0.985 . S
H1042 N1036 0.984 . S
H1043 N1036 0.984 . S
H1044 N1032 0.984 . S
H1045 N1032 0.985 . S
C1046 C1047 1.363 . S
C1046 C1052 1.379 . S
C1046 N1054 1.356 . S
C1047 C1046 1.363 . S
C1047 C1053 1.363 . S
C1048 C1049 1.363 . S
C1048 C1053 1.379 . S
C1048 N1055 1.356 . S
C1049 C1048 1.363 . S
C1049 C1052 1.363 . S
N1050 C1052 1.356 . S
N1050 H1062 0.984 . S
N1050 H1063 0.985 . S
N1051 C1053 1.356 . S
N1051 H1056 0.984 . S
N1051 H1057 0.985 . S
C1052 C1046 1.379 . S
C1052 C1049 1.363 . S
C1052 N1050 1.356 . S
C1053 C1047 1.363 . S
C1053 C1048 1.379 . S
C1053 N1051 1.356 . S
N1054 C1046 1.356 . S
N1054 H1060 0.984 . S
N1054 H1061 0.984 . S
N1055 C1048 1.356 . S
N1055 H1058 0.984 . S
N1055 H1059 0.985 . S
H1056 N1051 0.984 . S
H1057 N1051 0.985 . S
H1058 N1055 0.984 . S
H1059 N1055 0.985 . S
H1060 N1054 0.984 . S
H1061 N1054 0.984 . S
H1062 N1050 0.984 . S
H1063 N1050 0.985 . S
C491 C397 1.425 . S
C489 C36 1.471 . S
C509 C415 1.454 . S
C507 C93 1.495 . S
C527 C423 1.425 . S
C525 C126 1.489 . S
C543 C165 1.474 . S
C545 C389 1.452 . S
C561 C222 1.489 . S
C563 C384 1.425 . S
C579 C261 1.474 . S
C581 C402 1.453 . S
C599 C410 1.424 . S
C597 C318 1.488 . S
C617 C428 1.454 . S
C615 C381 1.495 . S
C633 C132 1.469 . S
C635 C449 1.424 . S
C653 C467 1.454 . S
C651 C189 1.495 . S
C669 C30 1.489 . S
C671 C475 1.423 . S
C689 C441 1.453 . S
C687 C69 1.474 . S
C705 C324 1.469 . S
C707 C436 1.425 . S
C723 C357 1.474 . S
C725 C454 1.453 . S
C743 C462 1.423 . S
C741 C228 1.468 . S
C759 C285 1.495 . S
C761 C480 1.454 . S
C779 C418 1.612 . S
C777 C45 1.582 . S
C797 C433 1.567 . S
C795 C84 1.585 . S
C813 C117 1.572 . S
C815 C392 1.613 . S
C831 C174 1.540 . S
C833 C407 1.567 . S
C849 C213 1.573 . S
C851 C431 1.613 . S
C869 C394 1.568 . S
C867 C270 1.541 . S
C887 C405 1.614 . S
C885 C309 1.573 . S
C905 C420 1.567 . S
C903 C372 1.585 . S
C923 C470 1.613 . S
C921 C141 1.581 . S
C941 C485 1.567 . S
C939 C180 1.585 . S
C957 C21 1.572 . S
C959 C444 1.612 . S
C977 C459 1.567 . S
C975 C78 1.540 . S
C995 C483 1.612 . S
C993 C333 1.580 . S
C1011 C366 1.540 . S
C1013 C446 1.567 . S
C1031 C457 1.612 . S
C1029 C237 1.580 . S
C1049 C472 1.567 . S
C1047 C276 1.585 . S
