# Generated by pormake.
# Topology eea, (3,6)-cn, num edge types: 1
# Building blocks:
#     Node 0, Type 0, BuildingBlock: QEWDON_clean_linker_0, # of connection points: 3
#     Node 1, Type 0, BuildingBlock: QEWDON_clean_linker_0, # of connection points: 3
#     Node 2, Type 0, BuildingBlock: QEWDON_clean_linker_0, # of connection points: 3
#     Node 3, Type 0, BuildingBlock: QEWDON_clean_linker_0, # of connection points: 3
#     Node 4, Type 0, BuildingBlock: QEWDON_clean_linker_0, # of connection points: 3
#     Node 5, Type 0, BuildingBlock: QEWDON_clean_linker_0, # of connection points: 3
#     Node 6, Type 0, BuildingBlock: QEWDON_clean_linker_0, # of connection points: 3
#     Node 7, Type 0, BuildingBlock: QEWDON_clean_linker_0, # of connection points: 3
#     Node 8, Type 0, BuildingBlock: QEWDON_clean_linker_0, # of connection points: 3
#     Node 9, Type 0, BuildingBlock: QEWDON_clean_linker_0, # of connection points: 3
#     Node 10, Type 0, BuildingBlock: QEWDON_clean_linker_0, # of connection points: 3
#     Node 11, Type 0, BuildingBlock: QEWDON_clean_linker_0, # of connection points: 3
#     Node 12, Type 0, BuildingBlock: QEWDON_clean_linker_0, # of connection points: 3
#     Node 13, Type 0, BuildingBlock: QEWDON_clean_linker_0, # of connection points: 3
#     Node 14, Type 0, BuildingBlock: QEWDON_clean_linker_0, # of connection points: 3
#     Node 15, Type 0, BuildingBlock: QEWDON_clean_linker_0, # of connection points: 3
#     Node 16, Type 0, BuildingBlock: QEWDON_clean_linker_0, # of connection points: 3
#     Node 17, Type 0, BuildingBlock: QEWDON_clean_linker_0, # of connection points: 3
#     Node 18, Type 1, BuildingBlock: CUWYAW_clean_sbu_0, # of connection points: 6
#     Node 19, Type 1, BuildingBlock: CUWYAW_clean_sbu_0, # of connection points: 6
#     Node 20, Type 1, BuildingBlock: CUWYAW_clean_sbu_0, # of connection points: 6
#     Node 21, Type 1, BuildingBlock: CUWYAW_clean_sbu_0, # of connection points: 6
#     Node 22, Type 1, BuildingBlock: CUWYAW_clean_sbu_0, # of connection points: 6
#     Node 23, Type 1, BuildingBlock: CUWYAW_clean_sbu_0, # of connection points: 6
#     Node 24, Type 1, BuildingBlock: CUWYAW_clean_sbu_0, # of connection points: 6
#     Node 25, Type 1, BuildingBlock: CUWYAW_clean_sbu_0, # of connection points: 6
#     Node 26, Type 1, BuildingBlock: CUWYAW_clean_sbu_0, # of connection points: 6
#     Edge 27, Type (0, 1), BuildingBlock: AJUNOK_clean_linker_0, # of connection points: 2
#     Edge 28, Type (0, 1), BuildingBlock: AJUNOK_clean_linker_0, # of connection points: 2
#     Edge 29, Type (0, 1), BuildingBlock: AJUNOK_clean_linker_0, # of connection points: 2
#     Edge 30, Type (0, 1), BuildingBlock: AJUNOK_clean_linker_0, # of connection points: 2
#     Edge 31, Type (0, 1), BuildingBlock: AJUNOK_clean_linker_0, # of connection points: 2
#     Edge 32, Type (0, 1), BuildingBlock: AJUNOK_clean_linker_0, # of connection points: 2
#     Edge 33, Type (0, 1), BuildingBlock: AJUNOK_clean_linker_0, # of connection points: 2
#     Edge 34, Type (0, 1), BuildingBlock: AJUNOK_clean_linker_0, # of connection points: 2
#     Edge 35, Type (0, 1), BuildingBlock: AJUNOK_clean_linker_0, # of connection points: 2
#     Edge 36, Type (0, 1), BuildingBlock: AJUNOK_clean_linker_0, # of connection points: 2
#     Edge 37, Type (0, 1), BuildingBlock: AJUNOK_clean_linker_0, # of connection points: 2
#     Edge 38, Type (0, 1), BuildingBlock: AJUNOK_clean_linker_0, # of connection points: 2
#     Edge 39, Type (0, 1), BuildingBlock: AJUNOK_clean_linker_0, # of connection points: 2
#     Edge 40, Type (0, 1), BuildingBlock: AJUNOK_clean_linker_0, # of connection points: 2
#     Edge 41, Type (0, 1), BuildingBlock: AJUNOK_clean_linker_0, # of connection points: 2
#     Edge 42, Type (0, 1), BuildingBlock: AJUNOK_clean_linker_0, # of connection points: 2
#     Edge 43, Type (0, 1), BuildingBlock: AJUNOK_clean_linker_0, # of connection points: 2
#     Edge 44, Type (0, 1), BuildingBlock: AJUNOK_clean_linker_0, # of connection points: 2
#     Edge 45, Type (0, 1), BuildingBlock: AJUNOK_clean_linker_0, # of connection points: 2
#     Edge 46, Type (0, 1), BuildingBlock: AJUNOK_clean_linker_0, # of connection points: 2
#     Edge 47, Type (0, 1), BuildingBlock: AJUNOK_clean_linker_0, # of connection points: 2
#     Edge 48, Type (0, 1), BuildingBlock: AJUNOK_clean_linker_0, # of connection points: 2
#     Edge 49, Type (0, 1), BuildingBlock: AJUNOK_clean_linker_0, # of connection points: 2
#     Edge 50, Type (0, 1), BuildingBlock: AJUNOK_clean_linker_0, # of connection points: 2
#     Edge 51, Type (0, 1), BuildingBlock: AJUNOK_clean_linker_0, # of connection points: 2
#     Edge 52, Type (0, 1), BuildingBlock: AJUNOK_clean_linker_0, # of connection points: 2
#     Edge 53, Type (0, 1), BuildingBlock: AJUNOK_clean_linker_0, # of connection points: 2
#     Edge 54, Type (0, 1), BuildingBlock: AJUNOK_clean_linker_0, # of connection points: 2
#     Edge 55, Type (0, 1), BuildingBlock: AJUNOK_clean_linker_0, # of connection points: 2
#     Edge 56, Type (0, 1), BuildingBlock: AJUNOK_clean_linker_0, # of connection points: 2
#     Edge 57, Type (0, 1), BuildingBlock: AJUNOK_clean_linker_0, # of connection points: 2
#     Edge 58, Type (0, 1), BuildingBlock: AJUNOK_clean_linker_0, # of connection points: 2
#     Edge 59, Type (0, 1), BuildingBlock: AJUNOK_clean_linker_0, # of connection points: 2
#     Edge 60, Type (0, 1), BuildingBlock: AJUNOK_clean_linker_0, # of connection points: 2
#     Edge 61, Type (0, 1), BuildingBlock: AJUNOK_clean_linker_0, # of connection points: 2
#     Edge 62, Type (0, 1), BuildingBlock: AJUNOK_clean_linker_0, # of connection points: 2
#     Edge 63, Type (0, 1), BuildingBlock: AJUNOK_clean_linker_0, # of connection points: 2
#     Edge 64, Type (0, 1), BuildingBlock: AJUNOK_clean_linker_0, # of connection points: 2
#     Edge 65, Type (0, 1), BuildingBlock: AJUNOK_clean_linker_0, # of connection points: 2
#     Edge 66, Type (0, 1), BuildingBlock: AJUNOK_clean_linker_0, # of connection points: 2
#     Edge 67, Type (0, 1), BuildingBlock: AJUNOK_clean_linker_0, # of connection points: 2
#     Edge 68, Type (0, 1), BuildingBlock: AJUNOK_clean_linker_0, # of connection points: 2
#     Edge 69, Type (0, 1), BuildingBlock: AJUNOK_clean_linker_0, # of connection points: 2
#     Edge 70, Type (0, 1), BuildingBlock: AJUNOK_clean_linker_0, # of connection points: 2
#     Edge 71, Type (0, 1), BuildingBlock: AJUNOK_clean_linker_0, # of connection points: 2
#     Edge 72, Type (0, 1), BuildingBlock: AJUNOK_clean_linker_0, # of connection points: 2
#     Edge 73, Type (0, 1), BuildingBlock: AJUNOK_clean_linker_0, # of connection points: 2
#     Edge 74, Type (0, 1), BuildingBlock: AJUNOK_clean_linker_0, # of connection points: 2
#     Edge 75, Type (0, 1), BuildingBlock: AJUNOK_clean_linker_0, # of connection points: 2
#     Edge 76, Type (0, 1), BuildingBlock: AJUNOK_clean_linker_0, # of connection points: 2
#     Edge 77, Type (0, 1), BuildingBlock: AJUNOK_clean_linker_0, # of connection points: 2
#     Edge 78, Type (0, 1), BuildingBlock: AJUNOK_clean_linker_0, # of connection points: 2
#     Edge 79, Type (0, 1), BuildingBlock: AJUNOK_clean_linker_0, # of connection points: 2
#     Edge 80, Type (0, 1), BuildingBlock: AJUNOK_clean_linker_0, # of connection points: 2
# Relax obj value: 0.090
# Max RMSD: 0.275
# Mean RMSD: 0.192
data_MOF--net-eea--node1-CUWYAW_clean_sbu_0--node2-QEWDON_clean_linker_0--edge1-AJUNOK_clean_linker_0
_symmetry_space_group_name_H-M    P1
_symmetry_Int_Tables_number       1
_symmetry_cell_setting            triclinic
loop_
_symmetry_equiv_pos_as_xyz
'x, y, z'
_cell_length_a     43.191443
_cell_length_b     42.702805
_cell_length_c     53.774219
_cell_angle_alpha  93.084459
_cell_angle_beta   93.274797
_cell_angle_gamma 119.83357
loop_
_atom_site_label
_atom_site_type_symbol
_atom_site_fract_x
_atom_site_fract_y
_atom_site_fract_z
_atom_type_partial_charge
H0 H 0.25599 0.15075 0.42769 0.0
C1 C 0.24634 0.12417 0.41798 0.0
C2 C 0.2438 0.09567 0.43145 0.0
C3 C 0.24001 0.11951 0.39172 0.0
H4 H 0.23121 0.03979 0.42861 0.0
C5 C 0.23305 0.06182 0.41844 0.0
C6 C 0.2267 0.05669 0.39229 0.0
C7 C 0.23049 0.08569 0.37902 0.0
C8 C 0.24894 0.15128 0.37728 0.0
H9 H 0.22663 0.08212 0.35874 0.0
C10 C 0.2326 0.17275 0.38036 0.0
C11 C 0.24228 0.20293 0.36632 0.0
C12 C 0.27506 0.16052 0.36033 0.0
H13 H 0.28818 0.14472 0.35778 0.0
C14 C 0.28501 0.19048 0.34682 0.0
H15 H 0.21239 0.16584 0.39337 0.0
C16 C 0.26883 0.2115 0.34974 0.0
H17 H 0.27656 0.23414 0.33853 0.0
H18 H 0.30525 0.19733 0.33386 0.0
H19 H 0.89437 0.10374 0.43238 0.0
C20 C 0.91532 0.12618 0.42392 0.0
C21 C 0.93014 0.16169 0.43543 0.0
C22 C 0.92914 0.11895 0.40274 0.0
H23 H 0.96974 0.21794 0.43332 0.0
C24 C 0.95857 0.19042 0.42487 0.0
C25 C 0.97303 0.18384 0.40368 0.0
C26 C 0.9578 0.14803 0.39262 0.0
C27 C 0.91675 0.0807 0.39326 0.0
H28 H 0.9692 0.14259 0.37665 0.0
C29 C 0.87989 0.05413 0.38917 0.0
C30 C 0.86929 0.01783 0.38133 0.0
C31 C 0.94242 0.07026 0.38942 0.0
H32 H 0.97082 0.0898 0.39281 0.0
C33 C 0.93185 0.03433 0.38184 0.0
H34 H 0.85968 0.06165 0.39183 0.0
C35 C 0.89557 1.00827 0.37783 0.0
H36 H 0.88791 0.98056 0.3717 0.0
H37 H 0.95189 0.02663 0.37908 0.0
H38 H 0.9293 0.79382 0.4481 0.0
C39 C 0.90723 0.79196 0.4362 0.0
C40 C 0.87216 0.77394 0.44371 0.0
C41 C 0.91439 0.8103 0.41442 0.0
H42 H 0.81737 0.76095 0.43466 0.0
C43 C 0.84426 0.77403 0.4288 0.0
C44 C 0.85113 0.79246 0.40711 0.0
C45 C 0.88617 0.81008 0.39993 0.0
C46 C 0.95178 0.83532 0.40912 0.0
H47 H 0.89185 0.825 0.3835 0.0
C48 C 0.97481 0.82287 0.40133 0.0
C49 C 1.00969 0.848 0.39561 0.0
C50 C 0.9641 0.87271 0.41133 0.0
H51 H 0.94685 0.88281 0.41726 0.0
C52 C 0.99867 0.89743 0.40597 0.0
H53 H 0.96556 0.79409 0.39938 0.0
C54 C 0.02131 0.88519 0.39812 0.0
H55 H 0.04799 0.90483 0.39385 0.0
H56 H 1.00788 0.92618 0.40778 0.0
H57 H 0.14333 0.23429 0.58683 0.0
C58 C 0.12238 0.23665 0.5954 0.0
C59 C 0.10708 0.25531 0.58387 0.0
C60 C 0.10962 0.21955 0.61722 0.0
H61 H 0.06641 0.27062 0.58557 0.0
C62 C 0.07899 0.25719 0.5947 0.0
C63 C 0.06602 0.24043 0.61665 0.0
C64 C 0.08197 0.22235 0.62795 0.0
C65 C 0.12182 0.19512 0.62717 0.0
H66 H 0.07153 0.20883 0.64455 0.0
C67 C 0.15848 0.20512 0.63026 0.0
C68 C 0.16861 0.18094 0.63966 0.0
C69 C 0.09591 0.16058 0.6332 0.0
H70 H 0.06759 0.15171 0.63053 0.0
C71 C 0.10603 0.13673 0.64231 0.0
H72 H 0.17891 0.23156 0.62577 0.0
C73 C 0.14211 0.14683 0.64559 0.0
H74 H 0.14944 0.12794 0.65281 0.0
H75 H 0.08579 0.11026 0.64683 0.0
H76 H 0.78256 0.91107 0.6045 0.0
C77 C 0.79056 0.89292 0.61217 0.0
C78 C 0.78982 0.86513 0.59631 0.0
C79 C 0.79894 0.89581 0.63812 0.0
H80 H 0.79865 0.81941 0.59478 0.0
C81 C 0.79856 0.84057 0.60678 0.0
C82 C 0.80732 0.84324 0.63272 0.0
C83 C 0.80771 0.8711 0.64815 0.0
C84 C 0.79422 0.9216 0.65506 0.0
H85 H 0.81377 0.87286 0.66819 0.0
C86 C 0.80881 0.95857 0.65089 0.0
C87 C 0.80251 0.98183 0.66684 0.0
C88 C 0.77343 0.90845 0.67526 0.0
H89 H 0.76148 0.88017 0.67871 0.0
C90 C 0.76703 0.9313 0.69087 0.0
H91 H 0.82493 0.96915 0.63542 0.0
C92 C 0.78134 0.96764 0.6867 0.0
H93 H 0.77633 0.98493 0.69932 0.0
H94 H 0.75085 0.92076 0.70629 0.0
H95 H 0.1032 0.8862 0.58047 0.0
C96 C 0.12513 0.90885 0.592 0.0
C97 C 0.15931 0.92783 0.58311 0.0
C98 C 0.11868 0.92028 0.6152 0.0
H99 H 0.21288 0.97359 0.5908 0.0
C100 C 0.18716 0.95794 0.59809 0.0
C101 C 0.18152 0.96939 0.62159 0.0
C102 C 0.1471 0.95018 0.6299 0.0
C103 C 0.08139 0.90624 0.62205 0.0
H104 H 0.14194 0.95916 0.64763 0.0
C105 C 0.05904 0.87017 0.62793 0.0
C106 C 0.02402 0.85906 0.63464 0.0
C107 C 0.06822 0.93043 0.62286 0.0
H108 H 0.08476 0.95811 0.61839 0.0
C109 C 0.0337 0.91932 0.62923 0.0
H110 H 0.06884 0.85123 0.62752 0.0
C111 C 1.01176 0.88396 0.63507 0.0
H112 H 0.98506 0.876 0.64012 0.0
H113 H 0.02392 0.93825 0.62971 0.0
H114 H 0.88256 0.46615 0.76612 0.0
C115 C 0.88416 0.44507 0.7551 0.0
C116 C 0.90016 0.42681 0.76627 0.0
C117 C 0.86735 0.43383 0.73053 0.0
H118 H 0.91125 0.38299 0.76148 0.0
C119 C 0.90015 0.39782 0.75247 0.0
C120 C 0.88441 0.38681 0.72766 0.0
C121 C 0.86866 0.40546 0.71682 0.0
C122 C 0.84299 0.44656 0.72049 0.0
H123 H 0.85588 0.39683 0.69783 0.0
C124 C 0.85329 0.48374 0.72063 0.0
C125 C 0.8286 0.49382 0.71092 0.0
C126 C 0.80794 0.42012 0.71091 0.0
H127 H 0.79899 0.39149 0.71098 0.0
C128 C 0.78376 0.43 0.7014 0.0
H129 H 0.8801 0.50445 0.72808 0.0
C130 C 0.79395 0.4664 0.70131 0.0
H131 H 0.77463 0.47317 0.69338 0.0
H132 H 0.75695 0.40929 0.69401 0.0
H133 H 0.56073 0.43593 0.7611 0.0
C134 C 0.58033 0.45974 0.75298 0.0
C135 C 0.59217 0.49431 0.76523 0.0
C136 C 0.59452 0.45558 0.731 0.0
H137 H 0.62724 0.55174 0.76442 0.0
C138 C 0.61844 0.52523 0.75502 0.0
C139 C 0.63414 0.52192 0.7334 0.0
C140 C 0.62114 0.48694 0.72133 0.0
C141 C 0.58426 0.41856 0.71942 0.0
H142 H 0.63276 0.48397 0.70468 0.0
C143 C 0.54878 0.38863 0.71848 0.0
C144 C 0.54047 0.35386 0.70802 0.0
C145 C 0.61091 0.41281 0.70989 0.0
H146 H 0.63856 0.43447 0.71102 0.0
C147 C 0.60264 0.37884 0.69919 0.0
H148 H 0.5279 0.39223 0.72597 0.0
C149 C 0.56783 0.34971 0.69817 0.0
H150 H 0.5623 0.32367 0.68958 0.0
H151 H 0.62343 0.37499 0.69181 0.0
H152 H 0.59735 0.12074 0.7784 0.0
C153 C 0.57421 0.11896 0.76796 0.0
C154 C 0.53997 0.09898 0.7765 0.0
C155 C 0.57886 0.13818 0.7467 0.0
H156 H 0.48427 0.08391 0.77028 0.0
C157 C 0.51045 0.09826 0.76337 0.0
C158 C 0.51451 0.11719 0.7421 0.0
C159 C 0.54882 0.13692 0.73387 0.0
C160 C 0.61533 0.16395 0.73981 0.0
H161 H 0.55258 0.15294 0.71816 0.0
C162 C 0.63987 0.15279 0.7332 0.0
C163 C 0.67356 0.17831 0.72577 0.0
C164 C 0.62528 0.20066 0.73936 0.0
H165 H 0.60709 0.20995 0.74451 0.0
C166 C 0.65871 0.2258 0.7324 0.0
H167 H 0.63257 0.12458 0.73332 0.0
C168 C 0.68264 0.21473 0.72556 0.0
H169 H 0.7084 0.23467 0.72 0.0
H170 H 0.66602 0.25398 0.73216 0.0
H171 H 0.80932 0.56722 0.92091 0.0
C172 C 0.78824 0.56974 0.92915 0.0
C173 C 0.77324 0.5883 0.91714 0.0
C174 C 0.77439 0.55218 0.95063 0.0
H175 H 0.73318 0.60444 0.9182 0.0
C176 C 0.74466 0.59 0.92728 0.0
C177 C 0.73057 0.57288 0.94889 0.0
C178 C 0.74606 0.55463 0.96059 0.0
C179 C 0.78647 0.52796 0.96118 0.0
H180 H 0.73497 0.54095 0.977 0.0
C181 C 0.82312 0.53797 0.96449 0.0
C182 C 0.83324 0.51425 0.97471 0.0
C183 C 0.76054 0.49371 0.96767 0.0
H184 H 0.73221 0.48472 0.96477 0.0
C185 C 0.77066 0.47031 0.9776 0.0
H186 H 0.84358 0.56416 0.95964 0.0
C187 C 0.80674 0.48052 0.98121 0.0
H188 H 0.81407 0.46197 0.98904 0.0
H189 H 0.7504 0.44409 0.9825 0.0
H190 H 0.48532 0.25774 0.93014 0.0
C191 C 0.48502 0.23549 0.93913 0.0
C192 C 0.46841 0.20069 0.92606 0.0
C193 C 0.50263 0.24216 0.9632 0.0
H194 H 0.45733 0.14557 0.92732 0.0
C195 C 0.46882 0.172 0.93769 0.0
C196 C 0.48579 0.17797 0.96207 0.0
C197 C 0.50175 0.21294 0.97471 0.0
C198 C 0.5257 0.28003 0.97521 0.0
H199 H 0.51447 0.21768 0.99357 0.0
C200 C 0.51553 0.30681 0.97391 0.0
C201 C 0.53925 0.34274 0.98433 0.0
C202 C 0.55961 0.28995 0.98719 0.0
H203 H 0.56881 0.27057 0.98796 0.0
C204 C 0.58265 0.3252 0.99781 0.0
H205 H 0.48964 0.29994 0.96475 0.0
C206 C 0.57262 0.35139 0.99641 0.0
H207 H 0.59106 0.37866 1.00484 0.0
H208 H 0.60859 0.33234 1.00697 0.0
H209 H 0.77024 0.22015 0.91457 0.0
C210 C 0.79262 0.24175 0.92648 0.0
C211 C 0.82672 0.2608 0.91744 0.0
C212 C 0.78658 0.2526 0.95006 0.0
H213 H 0.8806 0.30609 0.92539 0.0
C214 C 0.85475 0.29067 0.93254 0.0
C215 C 0.84939 0.30183 0.9562 0.0
C216 C 0.81523 0.28228 0.96479 0.0
C217 C 0.74951 0.23815 0.95757 0.0
H218 H 0.8104 0.29095 0.98276 0.0
C219 C 0.72723 0.20161 0.96255 0.0
C220 C 0.69298 0.1904 0.97086 0.0
C221 C 0.73677 0.26255 0.96048 0.0
H222 H 0.75318 0.29057 0.95668 0.0
C223 C 0.7029 0.25129 0.96826 0.0
H224 H 0.73667 0.18246 0.96053 0.0
C225 C 0.68122 0.21558 0.9735 0.0
H226 H 0.65506 0.20751 0.97972 0.0
H227 H 0.69348 0.27042 0.97039 0.0
H228 H 0.54569 0.79413 0.0983 0.0
C229 C 0.54604 0.77222 0.0874 0.0
C230 C 0.56179 0.75362 0.09842 0.0
C231 C 0.52816 0.76053 0.06312 0.0
H232 H 0.57166 0.70887 0.09348 0.0
C233 C 0.56033 0.72375 0.08479 0.0
C234 C 0.54299 0.71202 0.06048 0.0
C235 C 0.52788 0.73117 0.04963 0.0
C236 C 0.50484 0.77446 0.05307 0.0
H237 H 0.51449 0.72218 0.03082 0.0
C238 C 0.5163 0.81193 0.05361 0.0
C239 C 0.49261 0.82319 0.04393 0.0
C240 C 0.46967 0.74897 0.04299 0.0
H241 H 0.45974 0.72012 0.04281 0.0
C242 C 0.44661 0.7601 0.03324 0.0
H243 H 0.54319 0.83198 0.06139 0.0
C244 C 0.45797 0.79681 0.03357 0.0
H245 H 0.43953 0.80469 0.02559 0.0
H246 H 0.41975 0.74014 0.02541 0.0
H247 H 0.22847 0.77248 0.09831 0.0
C248 C 0.24896 0.79576 0.09024 0.0
C249 C 0.2629 0.83073 0.10257 0.0
C250 C 0.26238 0.79042 0.06823 0.0
H251 H 0.30162 0.88765 0.10188 0.0
C252 C 0.29025 0.86077 0.09222 0.0
C253 C 0.30367 0.85614 0.06984 0.0
C254 C 0.28948 0.82081 0.05812 0.0
C255 C 0.25094 0.75305 0.05711 0.0
H256 H 0.30049 0.81674 0.04145 0.0
C257 C 0.21441 0.72536 0.05327 0.0
C258 C 0.2049 0.69062 0.04216 0.0
C259 C 0.27739 0.74495 0.05044 0.0
H260 H 0.30559 0.76523 0.05366 0.0
C261 C 0.26796 0.71053 0.03984 0.0
H262 H 0.19359 0.73104 0.05817 0.0
C263 C 0.23204 0.68363 0.03559 0.0
H264 H 0.22533 0.65714 0.02711 0.0
H265 H 0.28861 0.70471 0.03481 0.0
H266 H 0.26285 0.45603 0.11338 0.0
C267 C 0.23991 0.45355 0.10221 0.0
C268 C 0.20577 0.43612 0.11121 0.0
C269 C 0.24512 0.47088 0.07999 0.0
H270 H 0.15044 0.42185 0.104 0.0
C271 C 0.17675 0.43519 0.09719 0.0
C272 C 0.18141 0.45248 0.07508 0.0
C273 C 0.2157 0.47008 0.06655 0.0
C274 C 0.28192 0.49608 0.07348 0.0
H275 H 0.22011 0.48521 0.0503 0.0
C276 C 0.3054 0.48407 0.06582 0.0
C277 C 0.34008 0.50949 0.05981 0.0
C278 C 0.29355 0.53332 0.07506 0.0
H279 H 0.27606 0.54313 0.08095 0.0
C280 C 0.32782 0.5583 0.06936 0.0
H281 H 0.29675 0.45542 0.06439 0.0
C282 C 0.35095 0.54653 0.06183 0.0
H283 H 0.37744 0.56642 0.05739 0.0
H284 H 0.33649 0.58692 0.07076 0.0
H285 H 0.47331 0.89638 0.25222 0.0
C286 C 0.45265 0.89917 0.26091 0.0
C287 C 0.43817 0.9188 0.24973 0.0
C288 C 0.43874 0.88082 0.2821 0.0
H289 H 0.39916 0.93623 0.25236 0.0
C290 C 0.41016 0.9208 0.26059 0.0
C291 C 0.39594 0.9027 0.28184 0.0
C292 C 0.41081 0.8833 0.29261 0.0
C293 C 0.4497 0.85514 0.29134 0.0
H294 H 0.39946 0.86865 0.30864 0.0
C295 C 0.48611 0.86475 0.29582 0.0
C296 C 0.49509 0.83913 0.30399 0.0
C297 C 0.42286 0.81979 0.2951 0.0
H298 H 0.39474 0.81139 0.29144 0.0
C299 C 0.43183 0.79458 0.30311 0.0
H300 H 0.50719 0.89183 0.29306 0.0
C301 C 0.46766 0.80411 0.30748 0.0
H302 H 0.47407 0.78411 0.31374 0.0
H303 H 0.41089 0.76747 0.30583 0.0
H304 H 0.11359 0.57503 0.27183 0.0
C305 C 0.12077 0.55629 0.27952 0.0
C306 C 0.1177 0.52721 0.26382 0.0
C307 C 0.13009 0.55958 0.30536 0.0
H308 H 0.12222 0.47906 0.26221 0.0
C309 C 0.12524 0.50181 0.2742 0.0
C310 C 0.13559 0.50502 0.29998 0.0
C311 C 0.13796 0.53413 0.3153 0.0
C312 C 0.12703 0.58649 0.32244 0.0
H313 H 0.1456 0.53685 0.33519 0.0
C314 C 0.14125 0.62323 0.31759 0.0
C315 C 0.13609 0.64725 0.33368 0.0
C316 C 0.10788 0.57446 0.34351 0.0
H317 H 0.09614 0.54643 0.34754 0.0
C318 C 0.10271 0.59807 0.35929 0.0
H319 H 0.15613 0.63302 0.30147 0.0
C320 C 0.11658 0.63409 0.35442 0.0
H321 H 0.11248 0.65196 0.36715 0.0
H322 H 0.08778 0.58836 0.37537 0.0
H323 H 0.43748 0.55323 0.2449 0.0
C324 C 0.45957 0.5742 0.25738 0.0
C325 C 0.4945 0.59184 0.24965 0.0
C326 C 0.45242 0.58578 0.28024 0.0
H327 H 0.54944 0.63345 0.25998 0.0
C328 C 0.52245 0.62036 0.26563 0.0
C329 C 0.5159 0.63281 0.28841 0.0
C330 C 0.48056 0.61537 0.29536 0.0
C331 C 0.4148 0.57206 0.2861 0.0
H332 H 0.47433 0.62584 0.31196 0.0
C333 C 0.39281 0.53671 0.2933 0.0
C334 C 0.35724 0.52538 0.29874 0.0
C335 C 0.4009 0.5955 0.2845 0.0
H336 H 0.41726 0.62266 0.27905 0.0
C337 C 0.36583 0.5842 0.28966 0.0
H338 H 0.40325 0.51841 0.29476 0.0
C339 C 0.34413 0.54943 0.29667 0.0
H340 H 0.31699 0.54131 0.30073 0.0
H341 H 0.35541 0.6025 0.28827 0.0
C342 C 0.53709 0.03586 0.091 0.0
Eu343 Eu 0.51941 0.02813 0.04277 0.0
C344 C 0.52153 0.01792 0.11355 0.0
C345 C 0.5338 0.03788 0.13708 0.0
C346 C 0.51952 0.02156 0.15872 0.0
C347 C 0.49249 0.98487 0.15732 0.0
C348 C 0.48026 0.96487 0.13364 0.0
C349 C 0.49458 0.98128 0.11198 0.0
C350 C 0.50549 0.07311 0.01653 0.0
C351 C 0.43305 0.96886 0.03101 0.0
C352 C 0.4712 0.99012 0.94123 0.0
Eu353 Eu 0.48782 0.99897 0.98955 0.0
C354 C 0.48626 1.00763 0.91833 0.0
C355 C 0.49171 0.98774 0.89916 0.0
C356 C 0.50357 1.00244 0.87662 0.0
C357 C 0.50987 0.03731 0.87256 0.0
C358 C 0.50567 0.05779 0.8921 0.0
C359 C 0.49394 0.04311 0.91475 0.0
C360 C 0.50017 0.95329 0.01586 0.0
C361 C 0.57343 0.061 1.00133 0.0
O362 O 0.54559 0.01807 0.07477 0.0
O363 O 0.52198 0.05229 0.08024 0.0
O364 O 0.53288 0.08413 0.03298 0.0
O365 O 0.48552 0.03912 0.0157 0.0
O366 O 0.46212 0.9843 0.04711 0.0
O367 O 0.43521 0.97397 1.00697 0.0
O368 O 0.4607 1.00666 0.95694 0.0
O369 O 0.48723 0.97494 0.95254 0.0
O370 O 0.47269 0.94294 0.99972 0.0
O371 O 0.52126 0.98718 0.01664 0.0
O372 O 0.54417 0.04519 0.98543 0.0
O373 O 0.57181 0.05505 0.02524 0.0
H374 H 0.55451 0.06621 0.13872 0.0
H375 H 0.52943 0.03778 0.1766 0.0
H376 H 0.46003 0.93638 0.13187 0.0
H377 H 0.48474 0.96536 0.09403 0.0
H378 H 0.48622 0.96044 0.90146 0.0
H379 H 0.50741 0.9863 0.86223 0.0
H380 H 0.51038 0.08476 0.88958 0.0
H381 H 0.49025 0.05929 0.92922 0.0
C382 C 1.00628 0.51032 0.08913 0.0
Eu383 Eu 1.00829 0.49937 0.04102 0.0
C384 C 0.02478 0.51215 0.1136 0.0
C385 C 1.00489 0.5023 0.13439 0.0
C386 C 0.02119 0.5034 0.15789 0.0
C387 C 0.05782 0.51439 0.16115 0.0
C388 C 0.0779 0.52454 0.14033 0.0
C389 C 0.06144 0.52316 0.11667 0.0
C390 C 0.95921 0.43655 0.01361 0.0
C391 C 0.06747 0.47488 0.03115 0.0
C392 C 0.02425 0.47694 0.94088 0.0
Eu393 Eu 0.02496 0.49173 0.98882 0.0
C394 C 1.0037 0.47147 0.91658 0.0
C395 C 0.0221 0.48067 0.89508 0.0
C396 C 1.00355 0.47484 0.87157 0.0
C397 C 0.9661 0.45961 0.86901 0.0
C398 C 0.94772 0.45107 0.89071 0.0
C399 C 0.96637 0.45687 0.9143 0.0
C400 C 0.07551 0.5546 0.01522 0.0
C401 C 0.96713 0.51826 0.99974 0.0
O402 O 0.02315 0.53643 0.07487 0.0
O403 O 0.9885 0.4785 0.07645 0.0
O404 O 0.95098 0.45543 0.02864 0.0
O405 O 0.99283 0.45113 0.01401 0.0
O406 O 0.05567 0.49059 0.04677 0.0
O407 O 0.05588 0.46778 1.00711 0.0
O408 O 1.00965 0.45215 0.95647 0.0
O409 O 0.04114 0.50981 0.9521 0.0
O410 O 0.08203 0.53556 0.99904 0.0
O411 O 0.04193 0.54077 0.01598 0.0
O412 O 0.97762 0.50149 0.98381 0.0
O413 O 0.97995 0.52585 0.02349 0.0
H414 H 0.97661 0.49379 0.13245 0.0
H415 H 1.00518 0.4961 0.17364 0.0
H416 H 0.10619 0.53314 0.14231 0.0
H417 H 0.07725 0.53059 0.10083 0.0
H418 H 0.0509 0.49199 0.89644 0.0
H419 H 0.01848 0.4815 0.85528 0.0
H420 H 0.91897 0.43995 0.88945 0.0
H421 H 0.95164 0.44977 0.93069 0.0
C422 C 0.49158 0.50009 0.93106 0.0
Eu423 Eu 0.5109 0.5193 0.97891 0.0
C424 C 0.50842 0.50085 0.90755 0.0
C425 C 0.53239 0.53375 0.89823 0.0
C426 C 0.54662 0.53386 0.87542 0.0
C427 C 0.53722 0.50112 0.86134 0.0
C428 C 0.51366 0.46828 0.87085 0.0
C429 C 0.49934 0.46817 0.89361 0.0
C430 C 0.52372 0.58226 1.00351 0.0
C431 C 0.59845 0.55295 0.98794 0.0
C432 C 0.56682 0.55226 0.0794 0.0
Eu433 Eu 0.54693 0.53438 0.0315 0.0
C434 C 0.55231 0.55564 0.10313 0.0
C435 C 0.55566 0.53773 0.12338 0.0
C436 C 0.54371 0.54147 0.14642 0.0
C437 C 0.52813 0.56331 0.1498 0.0
C438 C 0.52449 0.58105 0.12944 0.0
C439 C 0.53628 0.57713 0.1063 0.0
C440 C 0.53429 0.47168 1.0068 0.0
C441 C 0.4598 0.50299 0.02204 0.0
O442 O 0.49098 0.47779 0.94708 0.0
O443 O 0.49822 0.53116 0.94207 0.0
O444 O 0.4956 0.56166 0.98805 0.0
O445 O 0.54508 0.57008 1.00411 0.0
O446 O 0.5684 0.53543 0.97291 0.0
O447 O 0.59796 0.56021 0.01212 0.0
O448 O 0.57209 0.57588 0.06319 0.0
O449 O 0.55405 0.51942 0.0687 0.0
O450 O 0.56303 0.49299 0.02147 0.0
O451 O 0.51241 0.48323 1.0065 0.0
O452 O 0.48996 0.52146 0.03698 0.0
O453 O 0.46017 0.49354 0.99828 0.0
H454 H 0.54018 0.5595 0.90851 0.0
H455 H 0.56535 0.55961 0.86896 0.0
H456 H 0.50576 0.44259 0.86045 0.0
H457 H 0.4808 0.44243 0.9002 0.0
H458 H 0.56812 0.5212 0.12149 0.0
H459 H 0.54764 0.52809 0.16183 0.0
H460 H 0.51261 0.5981 0.13147 0.0
H461 H 0.5332 0.59122 0.09104 0.0
C462 C 0.20374 0.37249 0.42432 0.0
Eu463 Eu 0.18745 0.36344 0.37585 0.0
C464 C 0.18782 0.35388 0.44686 0.0
C465 C 0.16354 0.36072 0.45915 0.0
C466 C 0.14961 0.34416 0.48085 0.0
C467 C 0.15951 0.32028 0.49085 0.0
C468 C 0.18407 0.31376 0.47871 0.0
C469 C 0.19802 0.33031 0.45703 0.0
C470 C 0.16797 0.40417 0.34909 0.0
C471 C 0.10371 0.2965 0.36531 0.0
C472 C 0.13756 0.32304 0.27513 0.0
Eu473 Eu 0.15615 0.33174 0.32322 0.0
C474 C 0.15073 0.3421 0.25247 0.0
C475 C 0.18683 0.3576 0.24748 0.0
C476 C 0.19808 0.37417 0.22532 0.0
C477 C 0.17347 0.37557 0.20773 0.0
C478 C 0.13757 0.36062 0.21307 0.0
C479 C 0.12636 0.34404 0.23514 0.0
C480 C 0.17683 0.29118 0.3492 0.0
C481 C 0.24089 0.39767 0.33457 0.0
O482 O 0.215 0.35657 0.40872 0.0
O483 O 0.18796 0.38771 0.41273 0.0
O484 O 0.19579 0.41772 0.3654 0.0
O485 O 0.15022 0.37002 0.34886 0.0
O486 O 0.13317 0.31479 0.38082 0.0
O487 O 0.10429 0.30113 0.34119 0.0
O488 O 0.12619 0.33785 0.29148 0.0
O489 O 0.15579 0.30952 0.28568 0.0
O490 O 0.14848 0.27784 0.33333 0.0
O491 O 0.19404 0.32546 0.34974 0.0
O492 O 0.21168 0.37953 0.31866 0.0
O493 O 0.23974 0.39284 0.35864 0.0
H494 H 0.15531 0.379 0.45209 0.0
H495 H 0.13074 0.34978 0.48967 0.0
H496 H 0.1931 0.29633 0.48624 0.0
H497 H 0.21714 0.32492 0.44838 0.0
H498 H 0.2063 0.35674 0.26061 0.0
H499 H 0.22606 0.3861 0.22202 0.0
H500 H 0.11793 0.36116 0.19992 0.0
H501 H 0.09843 0.33233 0.23855 0.0
C502 C 0.6762 0.84166 0.42165 0.0
Eu503 Eu 0.67447 0.82945 0.3733 0.0
C504 C 0.69908 0.84756 0.44501 0.0
C505 C 0.71373 0.82523 0.44971 0.0
C506 C 0.73157 0.82851 0.47316 0.0
C507 C 0.73526 0.85426 0.4923 0.0
C508 C 0.72212 0.87769 0.48712 0.0
C509 C 0.70409 0.87425 0.46375 0.0
C510 C 0.62628 0.7665 0.34594 0.0
C511 C 0.73538 0.80852 0.36114 0.0
C512 C 0.69212 0.8131 0.27162 0.0
Eu513 Eu 0.69091 0.82415 0.31977 0.0
C514 C 0.67075 0.80491 0.24735 0.0
C515 C 0.68808 0.81 0.22543 0.0
C516 C 0.66888 0.80271 0.202 0.0
C517 C 0.63185 0.78996 0.20001 0.0
C518 C 0.6145 0.78519 0.22206 0.0
C519 C 0.63385 0.79274 0.24559 0.0
C520 C 0.73978 0.88654 0.34737 0.0
C521 C 0.62926 0.84453 0.33224 0.0
O522 O 0.68774 0.86745 0.4066 0.0
O523 O 0.66053 0.80929 0.40963 0.0
O524 O 0.61799 0.78246 0.36331 0.0
O525 O 0.65983 0.78276 0.34492 0.0
O526 O 0.72396 0.82385 0.37734 0.0
O527 O 0.72286 0.80076 0.33729 0.0
O528 O 0.68166 0.78741 0.28674 0.0
O529 O 0.70341 0.84504 0.28335 0.0
O530 O 0.74743 0.8698 0.33018 0.0
O531 O 0.70617 0.87124 0.34815 0.0
O532 O 0.64095 0.82941 0.31594 0.0
O533 O 0.64223 0.85235 0.35601 0.0
H534 H 0.71061 0.80463 0.43551 0.0
H535 H 0.74203 0.81056 0.47645 0.0
H536 H 0.72455 0.89778 0.50148 0.0
H537 H 0.69308 0.89178 0.46058 0.0
H538 H 0.71657 0.81956 0.22642 0.0
H539 H 0.68293 0.80648 0.18537 0.0
H540 H 0.58609 0.77592 0.22111 0.0
H541 H 0.62009 0.78917 0.26232 0.0
C542 C 0.15882 0.83871 0.26639 0.0
Eu543 Eu 0.1786 0.85595 0.31434 0.0
C544 C 0.17571 0.83947 0.2429 0.0
C545 C 0.20096 0.87232 0.23417 0.0
C546 C 0.21585 0.87241 0.21165 0.0
C547 C 0.20589 0.8397 0.19729 0.0
C548 C 0.18077 0.80693 0.20612 0.0
C549 C 0.16579 0.80684 0.22856 0.0
C550 C 0.19597 0.92034 0.33906 0.0
C551 C 0.26513 0.88368 0.3225 0.0
C552 C 0.23459 0.88732 0.41393 0.0
Eu553 Eu 0.21465 0.86873 0.36605 0.0
C554 C 0.21939 0.89069 0.43742 0.0
C555 C 0.21943 0.87045 0.45716 0.0
C556 C 0.20716 0.87444 0.48002 0.0
C557 C 0.1946 0.89889 0.48383 0.0
C558 C 0.19418 0.9189 0.46394 0.0
C559 C 0.20629 0.91475 0.44096 0.0
C560 C 0.19519 0.80291 0.34191 0.0
C561 C 0.12809 0.84019 0.35755 0.0
O562 O 0.15704 0.81538 0.2819 0.0
O563 O 0.16668 0.86984 0.278 0.0
O564 O 0.16632 0.90032 0.32489 0.0
O565 O 0.2158 0.90635 0.33899 0.0
O566 O 0.23476 0.86743 0.30775 0.0
O567 O 0.26544 0.89139 0.34668 0.0
O568 O 0.23967 0.91059 0.39752 0.0
O569 O 0.22263 0.85454 0.40341 0.0
O570 O 0.22497 0.82279 0.35606 0.0
O571 O 0.17647 0.81815 0.3418 0.0
O572 O 0.15854 0.85795 0.3722 0.0
O573 O 0.12783 0.83131 0.33359 0.0
H574 H 0.2094 0.89802 0.24476 0.0
H575 H 0.2357 0.89809 0.20572 0.0
H576 H 0.17232 0.78126 0.19547 0.0
H577 H 0.14624 0.78114 0.23468 0.0
H578 H 0.22944 0.85179 0.45501 0.0
H579 H 0.20773 0.85847 0.49484 0.0
H580 H 0.1854 0.93852 0.4663 0.0
H581 H 0.20589 0.93083 0.42617 0.0
C582 C 0.86871 0.70221 0.75674 0.0
Eu583 Eu 0.85118 0.69595 0.70855 0.0
C584 C 0.85366 0.68406 0.77941 0.0
C585 C 0.86294 0.70503 0.80249 0.0
C586 C 0.84942 0.6888 0.82432 0.0
C587 C 0.82611 0.65114 0.82361 0.0
C588 C 0.81689 0.63008 0.80043 0.0
C589 C 0.83046 0.64638 0.77853 0.0
C590 C 0.83606 0.74103 0.6833 0.0
C591 C 0.76507 0.63584 0.69637 0.0
C592 C 0.80264 0.65831 0.60672 0.0
Eu593 Eu 0.81978 0.66762 0.65507 0.0
C594 C 0.81584 0.6768 0.5839 0.0
C595 C 0.81128 0.65585 0.56153 0.0
C596 C 0.82254 0.67225 0.53941 0.0
C597 C 0.83874 0.71007 0.53916 0.0
C598 C 0.84343 0.73111 0.56166 0.0
C599 C 0.83225 0.71466 0.58386 0.0
C600 C 0.83359 0.62238 0.68083 0.0
C601 C 0.9049 0.73084 0.66728 0.0
O602 O 0.87719 0.68487 0.74014 0.0
O603 O 0.85364 0.71898 0.74643 0.0
O604 O 0.86327 0.75205 0.69992 0.0
O605 O 0.81677 0.70685 0.68186 0.0
O606 O 0.79425 0.65098 0.71236 0.0
O607 O 0.76702 0.64122 0.67237 0.0
O608 O 0.79043 0.67275 0.62267 0.0
O609 O 0.82164 0.646 0.61775 0.0
O610 O 0.80584 0.61169 0.66488 0.0
O611 O 0.85398 0.65635 0.68178 0.0
O612 O 0.87554 0.71535 0.6514 0.0
O613 O 0.90345 0.72379 0.69097 0.0
H614 H 0.88076 0.73412 0.80364 0.0
H615 H 0.85695 0.70582 0.8418 0.0
H616 H 0.79948 0.60095 0.79925 0.0
H617 H 0.82285 0.62956 0.76095 0.0
H618 H 0.79855 0.62661 0.5611 0.0
H619 H 0.81779 0.65519 0.52234 0.0
H620 H 0.85582 0.76031 0.56206 0.0
H621 H 0.83619 0.73147 0.60091 0.0
C622 C 0.3412 0.1783 0.756 0.0
Eu623 Eu 0.34151 0.16476 0.70799 0.0
C624 C 0.36085 0.18006 0.77989 0.0
C625 C 0.34476 0.17738 0.8022 0.0
C626 C 0.36282 0.1791 0.82514 0.0
C627 C 0.39739 0.18345 0.82625 0.0
C628 C 0.41318 0.18543 0.80373 0.0
C629 C 0.39516 0.18399 0.78079 0.0
C630 C 0.29185 0.10224 0.6806 0.0
C631 C 0.39859 0.13684 0.69874 0.0
C632 C 0.35975 0.1421 0.6084 0.0
Eu633 Eu 0.35893 0.1562 0.65613 0.0
C634 C 0.34032 0.13727 0.58376 0.0
C635 C 0.36013 0.14861 0.56305 0.0
C636 C 0.34282 0.14277 0.53912 0.0
C637 C 0.30524 0.12552 0.53535 0.0
C638 C 0.28532 0.11491 0.55622 0.0
C639 C 0.30275 0.1207 0.58029 0.0
C640 C 0.4097 0.2178 0.68333 0.0
C641 C 0.3016 0.18385 0.66584 0.0
O642 O 0.35854 0.20341 0.74113 0.0
O643 O 0.32168 0.1462 0.74389 0.0
O644 O 0.28392 0.12137 0.69568 0.0
O645 O 0.32543 0.1162 0.6812 0.0
O646 O 0.38711 0.15305 0.71425 0.0
O647 O 0.38757 0.13027 0.67463 0.0
O648 O 0.3442 0.11702 0.62366 0.0
O649 O 0.37677 0.17485 0.61984 0.0
O650 O 0.41648 0.19789 0.66815 0.0
O651 O 0.37624 0.20536 0.68301 0.0
O652 O 0.31224 0.16678 0.6503 0.0
O653 O 0.31386 0.19148 0.68971 0.0
H654 H 0.31824 0.17423 0.80189 0.0
H655 H 0.34996 0.17767 0.84209 0.0
H656 H 0.43941 0.18798 0.80382 0.0
H657 H 0.40804 0.18608 0.76378 0.0
H658 H 0.38911 0.16151 0.56534 0.0
H659 H 0.35886 0.15144 0.52343 0.0
H660 H 0.25631 0.10118 0.55383 0.0
H661 H 0.28691 0.11172 0.59606 0.0
C662 C 0.82878 0.17245 0.59992 0.0
Eu663 Eu 0.84759 0.1906 0.64792 0.0
C664 C 0.84596 0.17318 0.57659 0.0
C665 C 0.8731 0.20578 0.56877 0.0
C666 C 0.8877 0.20591 0.54609 0.0
C667 C 0.87569 0.17347 0.53076 0.0
C668 C 0.84878 0.14092 0.53876 0.0
C669 C 0.8341 0.14081 0.56135 0.0
C670 C 0.86397 0.25491 0.67233 0.0
C671 C 0.93403 0.21845 0.65722 0.0
C672 C 0.90176 0.22085 0.74835 0.0
Eu673 Eu 0.88252 0.20341 0.70031 0.0
C674 C 0.88643 0.22391 0.77177 0.0
C675 C 0.8897 0.20641 0.7923 0.0
C676 C 0.87697 0.21 0.81505 0.0
C677 C 0.8606 0.23122 0.81784 0.0
C678 C 0.85704 0.24851 0.79718 0.0
C679 C 0.86966 0.24479 0.77436 0.0
C680 C 0.86319 0.13769 0.67613 0.0
C681 C 0.79607 0.17521 0.69063 0.0
O682 O 0.82733 0.14961 0.61575 0.0
O683 O 0.83592 0.20357 0.61116 0.0
O684 O 0.83542 0.23521 0.65703 0.0
O685 O 0.88385 0.24091 0.6731 0.0
O686 O 0.90395 0.20249 0.64221 0.0
O687 O 0.93391 0.22616 0.68137 0.0
O688 O 0.90727 0.24456 0.7322 0.0
O689 O 0.88941 0.18818 0.73752 0.0
O690 O 0.89278 0.15738 0.69048 0.0
O691 O 0.84468 0.15312 0.67577 0.0
O692 O 0.82619 0.19298 0.70569 0.0
O693 O 0.79646 0.1662 0.66679 0.0
H694 H 0.88287 0.23127 0.58002 0.0
H695 H 0.90794 0.23154 0.54035 0.0
H696 H 0.83908 0.11541 0.52753 0.0
H697 H 0.81319 0.11533 0.56684 0.0
H698 H 0.90273 0.19038 0.79087 0.0
H699 H 0.88097 0.19704 0.8307 0.0
H700 H 0.84455 0.26504 0.79871 0.0
H701 H 0.86657 0.25852 0.75886 0.0
C702 C 0.36543 0.91152 0.07568 0.0
C703 C 0.3346 0.88744 0.05971 0.0
C704 C 0.39637 0.93852 0.06628 0.0
C705 C 0.39808 0.94277 0.04042 0.0
H706 H 0.36626 0.9086 0.09556 0.0
H707 H 0.41955 0.95549 0.07948 0.0
S708 S 0.32303 0.88929 0.99093 0.0
N709 N 0.30653 0.87176 0.01697 0.0
N710 N 0.36468 0.92196 0.99925 0.0
C711 C 0.36681 0.91992 0.02437 0.0
C712 C 0.33521 0.89242 0.03399 0.0
C713 C 0.13234 0.46724 0.07792 0.0
C714 C 0.15151 0.45617 0.06299 0.0
C715 C 0.10505 0.47248 0.06739 0.0
C716 C 0.09548 0.46693 0.04135 0.0
H717 H 0.13899 0.4727 0.09801 0.0
H718 H 0.09163 0.48139 0.07995 0.0
S719 S 0.13644 0.43628 0.99393 0.0
N720 N 0.15831 0.43859 0.02082 0.0
N721 N 0.10705 0.44865 1.00086 0.0
C722 C 0.11404 0.45526 0.02614 0.0
C723 C 0.14207 0.44998 0.03696 0.0
C724 C 0.56712 0.67276 0.0438 0.0
C725 C 0.53783 0.67804 0.04704 0.0
C726 C 0.56248 0.64139 0.0301 0.0
C727 C 0.52842 0.61433 0.01916 0.0
H728 H 0.59387 0.69337 0.05143 0.0
H729 H 0.58579 0.63871 0.0276 0.0
S730 S 0.44245 0.6126 0.02551 0.0
N731 N 0.47317 0.65163 0.04055 0.0
N732 N 0.46452 0.59325 0.01472 0.0
C733 C 0.49881 0.61864 0.02321 0.0
C734 C 0.50349 0.65033 0.03717 0.0
C735 C 0.86984 0.36091 0.98209 0.0
C736 C 0.87832 0.33581 0.97095 0.0
C737 C 0.8962 0.39326 0.99572 0.0
C738 C 0.93235 0.40224 0.99865 0.0
H739 H 0.84258 0.35582 0.98002 0.0
H740 H 0.88815 0.41156 1.00385 0.0
S741 S 0.96906 0.3459 0.97397 0.0
N742 N 0.9258 0.32205 0.96456 0.0
N743 N 0.97536 0.38332 0.98956 0.0
C744 C 0.94143 0.37769 0.98756 0.0
C745 C 0.91447 0.34444 0.97386 0.0
C746 C 0.69646 0.57872 0.98384 0.0
C747 C 0.69778 0.57114 0.9582 0.0
C748 C 0.66478 0.57416 0.9932 0.0
C749 C 0.63292 0.56151 0.97735 0.0
H750 H 0.72003 0.58782 0.99686 0.0
H751 H 0.6651 0.57969 0.01313 0.0
S752 S 0.62225 0.53738 0.90856 0.0
N753 N 0.66444 0.55014 0.91717 0.0
N754 N 0.60534 0.54202 0.93432 0.0
C755 C 0.63422 0.55451 0.95152 0.0
C756 C 0.66645 0.5592 0.94208 0.0
C757 C 0.52335 0.1582 0.98647 0.0
C758 C 0.4899 0.14917 0.97407 0.0
C759 C 0.52795 0.1332 0.99974 0.0
C760 C 0.49946 0.09779 1.00104 0.0
H761 H 0.54632 0.18508 0.98613 0.0
H762 H 0.55417 0.14187 0.00917 0.0
S763 S 0.40679 0.05937 0.97103 0.0
N764 N 0.42788 0.10156 0.96345 0.0
N765 N 0.43683 0.05429 0.988 0.0
C766 C 0.46615 0.08774 0.98803 0.0
C767 C 0.46133 0.11343 0.97461 0.0
C768 C 0.66579 0.1458 1.00253 0.0
C769 C 0.66834 0.15297 0.97727 0.0
C770 C 0.63623 0.11469 0.01002 0.0
C771 C 0.60767 0.08973 0.99256 0.0
H772 H 0.68573 0.16555 0.0168 0.0
H773 H 0.63482 0.11144 0.02983 0.0
S774 S 0.60321 0.095 0.92369 0.0
N775 N 0.64121 0.13172 0.93463 0.0
N776 N 0.58585 0.07329 0.9483 0.0
C777 C 0.6111 0.09569 0.96699 0.0
C778 C 0.6413 0.12729 0.95946 0.0
C779 C 0.8878 0.5334 1.00386 0.0
C780 C 0.87118 0.52366 0.97928 0.0
C781 C 0.9201 0.53389 0.00996 0.0
C782 C 0.93678 0.52406 0.99175 0.0
H783 H 0.87475 0.53886 0.01873 0.0
H784 H 0.9309 0.54014 0.0294 0.0
S785 S 0.90508 0.49947 0.92404 0.0
N786 N 0.87456 0.50644 0.93628 0.0
N787 N 0.93524 0.50726 0.94745 0.0
C788 C 0.92128 0.51624 0.96675 0.0
C789 C 0.88846 0.51599 0.9606 0.0
C790 C 0.50369 0.37184 0.99729 0.0
C791 C 0.53047 0.37221 0.98332 0.0
C792 C 0.5024 0.40381 1.00285 0.0
C793 C 0.52793 0.43691 0.99466 0.0
H794 H 0.4856 0.34754 1.00566 0.0
H795 H 0.48334 0.40324 0.01533 0.0
S796 S 0.59954 0.45085 0.95425 0.0
N797 N 0.57985 0.40737 0.95873 0.0
N798 N 0.5778 0.46719 0.96959 0.0
C799 C 0.55273 0.43681 0.97898 0.0
C800 C 0.55385 0.40446 0.97315 0.0
C801 C 0.15443 0.6479 0.01096 0.0
C802 C 0.16707 0.6611 0.03614 0.0
C803 C 0.12298 0.61451 1.00443 0.0
C804 C 0.10276 0.59303 0.0228 0.0
H805 H 0.17023 0.66246 0.99621 0.0
H806 H 0.11545 0.60451 0.98482 0.0
S807 S 0.12332 0.61612 0.09138 0.0
N808 N 0.1561 0.65098 0.07955 0.0
N809 N 0.09678 0.58809 0.06721 0.0
C810 C 0.11388 0.60684 0.04801 0.0
C811 C 0.1461 0.64096 0.0547 0.0
C812 C 0.3971 0.50846 0.0668 0.0
C813 C 0.36593 0.49888 0.05118 0.0
C814 C 0.42629 0.5074 0.05747 0.0
C815 C 0.42582 0.49718 0.03196 0.0
H816 H 0.39965 0.51866 0.08614 0.0
H817 H 0.45009 0.51638 0.07023 0.0
S818 S 0.34922 0.46778 0.98361 0.0
N819 N 0.33526 0.4772 0.00942 0.0
N820 N 0.39 0.47521 0.9916 0.0
C821 C 0.3939 0.48577 0.01641 0.0
C822 C 0.36406 0.4867 0.02607 0.0
C823 C 0.52916 0.88492 0.02875 0.0
C824 C 0.50261 0.86196 0.04362 0.0
C825 C 0.53095 0.91715 0.02174 0.0
C826 C 0.50614 0.92714 0.02932 0.0
H827 H 0.54659 0.87644 0.02078 0.0
H828 H 0.54981 0.9326 0.00867 0.0
S829 S 0.43496 0.879 0.07112 0.0
N830 N 0.45426 0.85412 0.06826 0.0
N831 N 0.45665 0.91335 0.05425 0.0
C832 C 0.48145 0.90587 0.04568 0.0
C833 C 0.48004 0.87368 0.05314 0.0
C834 C 1.00735 0.21902 0.3686 0.0
C835 C 1.00586 0.21375 0.39426 0.0
C836 C 0.03866 0.24613 0.35943 0.0
C837 C 0.07001 0.26893 0.37549 0.0
H838 H 0.98408 0.20201 0.35548 0.0
H839 H 0.03834 0.24886 0.33953 0.0
S840 S 0.08039 0.2649 0.44433 0.0
N841 N 0.03876 0.2328 0.43546 0.0
N842 N 0.09718 0.28354 0.41866 0.0
C843 C 0.06871 0.26377 0.40127 0.0
C844 C 0.03684 0.23631 0.41052 0.0
C845 C 0.78906 0.76591 0.38487 0.0
C846 C 0.82251 0.79651 0.39345 0.0
C847 C 0.76123 0.76966 0.37313 0.0
C848 C 0.76587 0.80414 0.36994 0.0
H849 H 0.78431 0.73894 0.38749 0.0
H850 H 0.7356 0.74558 0.36732 0.0
S851 S 0.8478 0.89267 0.38904 0.0
N852 N 0.85837 0.86238 0.39772 0.0
N853 N 0.80614 0.8692 0.3759 0.0
C854 C 0.79915 0.83479 0.37814 0.0
C855 C 0.82749 0.83105 0.38981 0.0
C856 C 0.24365 0.01985 0.36414 0.0
C857 C 0.21856 0.02165 0.37891 0.0
C858 C 0.23687 0.98668 0.35199 0.0
C859 C 0.20437 0.95447 0.35367 0.0
H860 H 0.26879 0.04421 0.36217 0.0
H861 H 0.25671 0.98641 0.34068 0.0
S862 S 0.13077 0.9444 0.39084 0.0
N863 N 0.16094 0.98805 0.39553 0.0
N864 N 0.14745 0.92624 0.37176 0.0
C865 C 0.17925 0.95594 0.36846 0.0
C866 C 0.18655 0.9894 0.38135 0.0
C867 C 0.57017 0.69587 0.29176 0.0
C868 C 0.54539 0.66591 0.3037 0.0
C869 C 0.5971 0.72782 0.30554 0.0
C870 C 0.60005 0.73146 0.33178 0.0
H871 H 0.56822 0.69515 0.27155 0.0
H872 H 0.61479 0.75035 0.29558 0.0
S873 S 0.54443 0.66103 0.37248 0.0
N874 N 0.52795 0.64162 0.34376 0.0
N875 N 0.57728 0.70241 0.36938 0.0
C876 C 0.57599 0.7019 0.34404 0.0
C877 C 0.54903 0.66901 0.33009 0.0
C878 C 0.36249 0.90787 0.31741 0.0
C879 C 0.36347 0.901 0.29162 0.0
C880 C 0.33105 0.90331 0.32715 0.0
C881 C 0.29908 0.89126 0.31155 0.0
H882 H 0.38616 0.91648 0.33022 0.0
H883 H 0.33169 0.90848 0.34716 0.0
S884 S 0.2876 0.86907 0.24251 0.0
N885 N 0.32978 0.88139 0.2507 0.0
N886 N 0.27098 0.87297 0.26862 0.0
C887 C 0.29999 0.88481 0.2856 0.0
C888 C 0.33204 0.88964 0.27575 0.0
C889 C 0.12878 0.46417 0.33415 0.0
C890 C 0.14241 0.47731 0.31132 0.0
C891 C 0.13604 0.43944 0.34581 0.0
C892 C 0.15695 0.42658 0.33504 0.0
H893 H 0.11248 0.47321 0.34323 0.0
H894 H 0.12576 0.43085 0.36362 0.0
S895 S 0.19894 0.45167 0.27561 0.0
N896 N 0.1781 0.47508 0.27856 0.0
N897 N 0.19089 0.42825 0.30025 0.0
C898 C 0.17019 0.43878 0.3121 0.0
C899 C 0.16303 0.4641 0.30025 0.0
C900 C 0.30222 0.46423 0.29088 0.0
C901 C 0.3327 0.48896 0.30683 0.0
C902 C 0.27386 0.43367 0.29974 0.0
C903 C 0.2743 0.42679 0.32512 0.0
H904 H 0.2995 0.46955 0.27163 0.0
H905 H 0.25062 0.41633 0.2867 0.0
S906 S 0.3496 0.48237 0.37412 0.0
N907 N 0.36298 0.50365 0.34871 0.0
N908 N 0.30973 0.44652 0.36564 0.0
C909 C 0.30564 0.45045 0.34097 0.0
C910 C 0.33473 0.48145 0.33178 0.0
C911 C 0.54631 0.8311 0.29347 0.0
C912 C 0.53271 0.84771 0.30921 0.0
C913 C 0.57852 0.83196 0.30055 0.0
C914 C 0.59815 0.84891 0.32392 0.0
H915 H 0.53108 0.81595 0.27599 0.0
H916 H 0.58707 0.81763 0.28802 0.0
S917 S 0.57467 0.89848 0.37116 0.0
N918 N 0.54186 0.88331 0.3484 0.0
N919 N 0.60234 0.88493 0.36203 0.0
C920 C 0.58549 0.86706 0.33934 0.0
C921 C 0.55279 0.86643 0.33193 0.0
C922 C 0.12911 0.70174 0.32964 0.0
C923 C 0.15151 0.68648 0.33012 0.0
C924 C 0.14337 0.73951 0.33182 0.0
C925 C 0.18064 0.76352 0.33504 0.0
H926 H 0.10028 0.68428 0.32869 0.0
H927 H 0.12504 0.74987 0.33239 0.0
S928 S 0.25084 0.7375 0.33489 0.0
N929 N 0.21274 0.69839 0.33186 0.0
N930 N 0.23964 0.7693 0.33621 0.0
C931 C 0.2033 0.74864 0.33405 0.0
C932 C 0.18872 0.71016 0.33151 0.0
C933 C 0.81607 0.98286 0.35025 0.0
C934 C 0.83119 0.98943 0.37514 0.0
C935 C 0.78435 0.95044 0.34188 0.0
C936 C 0.76638 0.92367 0.35816 0.0
H937 H 0.83026 1.00173 0.33675 0.0
H938 H 0.77497 0.94532 0.32215 0.0
S939 S 0.79395 0.92861 0.42542 0.0
N940 N 0.82515 0.96726 0.41624 0.0
N941 N 0.76509 0.90662 0.40057 0.0
C942 C 0.77999 0.93088 0.38343 0.0
C943 C 0.81257 0.96371 0.39191 0.0
C944 C 0.03588 0.83047 0.36094 0.0
C945 C 0.03491 0.8368 0.38674 0.0
C946 C 0.06503 0.82909 0.35164 0.0
C947 C 0.09447 0.83446 0.36783 0.0
H948 H 0.01499 0.82871 0.34779 0.0
H949 H 0.06542 0.82599 0.33156 0.0
S950 S 0.10261 0.84825 0.43726 0.0
N951 N 0.06415 0.84576 0.4284 0.0
N952 N 0.11875 0.8429 0.41127 0.0
C953 C 0.09257 0.83861 0.39382 0.0
C954 C 0.06289 0.83994 0.40318 0.0
C955 C 0.24484 0.26323 0.36933 0.0
C956 C 0.22415 0.225 0.36728 0.0
C957 C 0.22915 0.28472 0.36499 0.0
C958 C 0.19214 0.26882 0.3581 0.0
H959 H 0.27371 0.2766 0.37329 0.0
H960 H 0.24643 0.31385 0.36575 0.0
S961 S 0.12542 0.17035 0.35301 0.0
N962 N 0.16421 0.17251 0.36005 0.0
N963 N 0.13469 0.2127 0.35196 0.0
C964 C 0.17084 0.23082 0.35759 0.0
C965 C 0.18681 0.20897 0.36218 0.0
C966 C 0.66956 0.55662 0.69833 0.0
C967 C 0.66584 0.55407 0.72423 0.0
C968 C 0.70094 0.58386 0.68934 0.0
C969 C 0.73006 0.61001 0.7058 0.0
H970 H 0.64827 0.53694 0.68477 0.0
H971 H 0.70276 0.58362 0.66933 0.0
S972 S 0.73293 0.61873 0.7751 0.0
N973 N 0.69399 0.5821 0.76609 0.0
N974 N 0.75156 0.63396 0.74921 0.0
C975 C 0.72595 0.60912 0.73163 0.0
C976 C 0.69428 0.58115 0.74081 0.0
C977 C 0.46255 0.12758 0.74541 0.0
C978 C 0.48362 0.11948 0.73025 0.0
C979 C 0.43462 0.13198 0.73498 0.0
C980 C 0.42639 0.12858 0.70888 0.0
H981 H 0.46826 0.13153 0.76557 0.0
H982 H 0.41969 0.1386 0.74765 0.0
S983 S 0.47196 0.10507 0.6609 0.0
N984 N 0.49312 0.10617 0.68779 0.0
N985 N 0.4409 0.1149 0.66809 0.0
C986 C 0.44662 0.11946 0.69346 0.0
C987 C 0.47519 0.11497 0.70415 0.0
C988 C 0.84739 0.32773 0.7011 0.0
C989 C 0.88069 0.35348 0.71389 0.0
C990 C 0.84257 0.29615 0.68794 0.0
C991 C 0.87072 0.2886 0.68703 0.0
H992 H 0.82455 0.33177 0.70144 0.0
H993 H 0.81631 0.27735 0.67848 0.0
S994 S 0.96343 0.34697 0.71705 0.0
N995 N 0.9426 0.36926 0.72456 0.0
N996 N 0.93326 0.30949 0.70002 0.0
C997 C 0.90413 0.31376 0.69989 0.0
C998 C 0.90915 0.34621 0.71328 0.0
C999 C 0.20244 0.0284 0.6478 0.0
C1000 C 0.21055 1.00307 0.63656 0.0
C1001 C 0.22891 0.06024 0.66189 0.0
C1002 C 0.2648 0.06845 0.66522 0.0
H1003 H 0.17539 0.02387 0.64547 0.0
H1004 H 0.22115 0.07876 0.67008 0.0
S1005 S 0.30051 0.01124 0.64041 0.0
N1006 N 0.2574 0.98829 0.63045 0.0
N1007 N 0.30717 0.04858 0.65633 0.0
C1008 C 0.27352 0.04367 0.654 0.0
C1009 C 0.24645 0.01097 0.63983 0.0
C1010 C 0.0331 0.24915 0.65136 0.0
C1011 C 0.03307 0.23769 0.62628 0.0
C1012 C 1.00131 0.24365 0.66116 0.0
C1013 C 0.96808 0.22598 0.64635 0.0
H1014 H 0.05788 0.26218 0.66357 0.0
H1015 H 1.00278 0.25283 0.68058 0.0
S1016 S 0.95352 0.18822 0.57991 0.0
N1017 N 0.99707 0.20666 0.58721 0.0
N1018 N 0.93756 0.1959 0.60521 0.0
C1019 C 0.96792 0.21431 0.62118 0.0
C1020 C 1.00028 0.22024 0.61127 0.0
C1021 C 0.84641 0.8281 0.65995 0.0
C1022 C 0.81476 0.81626 0.64415 0.0
C1023 C 0.85308 0.80346 0.67216 0.0
C1024 C 0.82816 0.76595 0.66941 0.0
H1025 H 0.86618 0.85672 0.66293 0.0
H1026 H 0.87793 0.81403 0.68406 0.0
S1027 S 0.74038 0.72119 0.63093 0.0
N1028 N 0.75802 0.76457 0.6266 0.0
N1029 N 0.77001 0.71842 0.65011 0.0
C1030 C 0.79633 0.75375 0.6537 0.0
C1031 C 0.78979 0.77884 0.64094 0.0
C1032 C 0.96856 0.79861 0.62517 0.0
C1033 C 0.99905 0.82201 0.64157 0.0
C1034 C 0.93932 0.76807 0.63335 0.0
C1035 C 0.93899 0.7598 0.65846 0.0
H1036 H 0.96645 0.80514 0.60618 0.0
H1037 H 0.91605 0.75189 0.62004 0.0
S1038 S 0.01387 0.81159 0.70842 0.0
N1039 N 0.02834 0.83402 0.68358 0.0
N1040 N 0.97363 0.77676 0.69919 0.0
C1041 C 0.97033 0.78203 0.67471 0.0
C1042 C 1.00021 0.81309 0.66624 0.0
C1043 C 0.2241 0.20228 0.66834 0.0
C1044 C 0.20654 0.19025 0.64406 0.0
C1045 C 0.25614 0.20238 0.67477 0.0
C1046 C 0.27166 0.18997 0.65722 0.0
H1047 H 0.21189 0.20973 0.68284 0.0
H1048 H 0.26767 0.21043 0.69404 0.0
S1049 S 0.23728 0.15885 0.59029 0.0
N1050 N 0.20783 0.16811 0.60191 0.0
N1051 N 0.26806 0.16834 0.61365 0.0
C1052 C 0.25529 0.17994 0.63239 0.0
C1053 C 0.22269 0.17996 0.62592 0.0
C1054 C 0.79646 0.03688 0.66316 0.0
C1055 C 0.81854 0.02127 0.66399 0.0
C1056 C 0.81111 0.07469 0.66549 0.0
C1057 C 0.84843 0.09833 0.66921 0.0
H1058 H 0.76757 0.01967 0.6617 0.0
H1059 H 0.79301 0.08535 0.66573 0.0
S1060 S 0.91792 0.07133 0.67024 0.0
N1061 N 0.87957 0.03247 0.66669 0.0
N1062 N 0.90718 0.10346 0.67132 0.0
C1063 C 0.8708 0.08312 0.66863 0.0
C1064 C 0.85585 0.04461 0.66594 0.0
C1065 C 0.5008 0.28811 0.7135 0.0
C1066 C 0.5039 0.32106 0.70706 0.0
C1067 C 0.46899 0.25497 0.70739 0.0
C1068 C 0.43855 0.25335 0.6952 0.0
H1069 H 0.5239 0.28767 0.72204 0.0
H1070 H 0.46876 0.23016 0.71114 0.0
S1071 S 0.43068 0.3316 0.67671 0.0
N1072 N 0.47246 0.35 0.68942 0.0
N1073 N 0.41213 0.28749 0.67876 0.0
C1074 C 0.44003 0.28611 0.69052 0.0
C1075 C 0.47282 0.32005 0.69635 0.0
C1076 C 0.70245 0.16272 0.69208 0.0
C1077 C 0.70007 0.16833 0.71773 0.0
C1078 C 0.73262 0.16268 0.68351 0.0
C1079 C 0.76185 0.16889 0.70029 0.0
H1080 H 0.68174 0.16035 0.67846 0.0
H1081 H 0.73385 0.15986 0.66351 0.0
S1082 S 0.76682 0.18167 0.76965 0.0
N1083 N 0.72794 0.17767 0.75992 0.0
N1084 N 0.78459 0.17759 0.74415 0.0
C1085 C 0.75872 0.17254 0.72614 0.0
C1086 C 0.72789 0.17234 0.73477 0.0
C1087 C 0.81278 0.54248 0.71706 0.0
C1088 C 0.83756 0.53229 0.70961 0.0
C1089 C 0.81369 0.57377 0.70939 0.0
C1090 C 0.83999 0.59672 0.69453 0.0
H1091 H 0.79078 0.52461 0.72734 0.0
H1092 H 0.79234 0.57887 0.71387 0.0
S1093 S 0.91383 0.58532 0.67259 0.0
N1094 N 0.89117 0.54975 0.6883 0.0
N1095 N 0.89349 0.60935 0.67461 0.0
C1096 C 0.86693 0.5889 0.68888 0.0
C1097 C 0.86568 0.55656 0.69636 0.0
C1098 C 0.48826 0.95713 0.22397 0.0
C1099 C 0.45124 0.93565 0.22603 0.0
C1100 C 0.50124 0.97293 0.2018 0.0
C1101 C 0.47779 0.96764 0.18062 0.0
H1102 H 0.5074 0.962 0.23971 0.0
H1103 H 0.52998 0.98912 0.20117 0.0
S1104 S 0.37836 0.91322 0.17606 0.0
N1105 N 0.39125 0.90934 0.20468 0.0
N1106 N 0.41557 0.93948 0.16329 0.0
C1107 C 0.44068 0.94611 0.18239 0.0
C1108 C 0.42745 0.93011 0.205 0.0
C1109 C 0.11938 0.55149 0.22196 0.0
C1110 C 0.10412 0.5223 0.23692 0.0
C1111 C 0.10519 0.54831 0.19714 0.0
C1112 C 0.07487 0.51598 0.18645 0.0
H1113 H 0.14222 0.57716 0.22962 0.0
H1114 H 0.11729 0.57172 0.18653 0.0
S1115 S 0.02565 0.43116 0.21723 0.0
N1116 N 0.0575 0.45969 0.23886 0.0
N1117 N 0.03109 0.45371 0.19232 0.0
C1118 C 0.05993 0.48635 0.20098 0.0
C1119 C 0.07449 0.48948 0.22614 0.0
C1120 C 0.52216 0.61169 0.20937 0.0
C1121 C 0.5017 0.58324 0.224 0.0
C1122 C 0.53002 0.60487 0.18539 0.0
C1123 C 0.51776 0.56934 0.17488 0.0
H1124 H 0.53221 0.63961 0.21649 0.0
H1125 H 0.54656 0.62771 0.17519 0.0
S1126 S 0.46261 0.48506 0.20497 0.0
N1127 N 0.46918 0.51796 0.226 0.0
N1128 N 0.48335 0.50516 0.18072 0.0
C1129 C 0.49694 0.54055 0.18912 0.0
C1130 C 0.48894 0.54748 0.21362 0.0
C1131 C 0.94377 0.47031 0.80141 0.0
C1132 C 0.91455 0.4359 0.79304 0.0
C1133 C 0.95968 0.47807 0.82618 0.0
C1134 C 0.94666 0.45184 0.84357 0.0
H1135 H 0.95508 0.49098 0.78852 0.0
H1136 H 0.98266 0.5047 0.83168 0.0
S1137 S 0.86864 0.35851 0.83117 0.0
N1138 N 0.87174 0.37616 0.80423 0.0
N1139 N 0.90155 0.39047 0.85066 0.0
C1140 C 0.91651 0.41776 0.83556 0.0
C1141 C 0.90054 0.40985 0.81034 0.0
C1142 C 0.57891 0.4761 0.80874 0.0
C1143 C 0.57883 0.49753 0.78974 0.0
C1144 C 0.56582 0.47775 0.8318 0.0
C1145 C 0.55205 0.50092 0.8369 0.0
H1146 H 0.58938 0.45795 0.80582 0.0
H1147 H 0.56665 0.46082 0.84581 0.0
S1148 S 0.54447 0.56166 0.79312 0.0
N1149 N 0.56313 0.54215 0.77742 0.0
N1150 N 0.53836 0.54519 0.82065 0.0
C1151 C 0.55194 0.52265 0.8181 0.0
C1152 C 0.56536 0.52098 0.7946 0.0
C1153 C 0.55535 0.10166 0.82272 0.0
C1154 C 0.53487 0.08141 0.80034 0.0
C1155 C 0.54755 0.08712 0.84595 0.0
C1156 C 0.51919 0.05163 0.84766 0.0
H1157 H 0.57668 0.12945 0.82241 0.0
H1158 H 0.5636 0.10391 0.86273 0.0
S1159 S 0.45852 0.98691 0.79439 0.0
N1160 N 0.48608 0.02355 0.78126 0.0
N1161 N 0.47103 0.99646 0.82471 0.0
C1162 C 0.49921 0.0308 0.8253 0.0
C1163 C 0.50712 0.04562 0.80173 0.0
C1164 C 0.13101 0.30794 0.55739 0.0
C1165 C 0.1192 0.27112 0.55977 0.0
C1166 C 0.14368 0.32352 0.53505 0.0
C1167 C 0.14482 0.30284 0.51413 0.0
H1168 H 0.13114 0.32502 0.57309 0.0
H1169 H 0.1533 0.35218 0.53435 0.0
S1170 S 0.11257 0.2041 0.50981 0.0
N1171 N 0.10681 0.21376 0.53872 0.0
N1172 N 0.12992 0.24269 0.49675 0.0
C1173 C 0.13192 0.26568 0.51607 0.0
C1174 C 0.11928 0.24993 0.53884 0.0
C1175 C 0.79089 0.89171 0.55547 0.0
C1176 C 0.77792 0.861 0.56907 0.0
C1177 C 0.7777 0.88917 0.5305 0.0
C1178 C 0.75116 0.85578 0.51802 0.0
H1179 H 0.81112 0.91808 0.56431 0.0
H1180 H 0.78812 0.91363 0.52095 0.0
S1181 S 0.70742 0.76739 0.54521 0.0
N1182 N 0.73639 0.79618 0.56813 0.0
N1183 N 0.71208 0.7914 0.5212 0.0
C1184 C 0.73843 0.82475 0.53119 0.0
C1185 C 0.75169 0.82735 0.55667 0.0
C1186 C 0.19712 0.91566 0.55461 0.0
C1187 C 0.16613 0.918 0.55767 0.0
C1188 C 0.2057 0.90901 0.53082 0.0
C1189 C 0.18384 0.90465 0.50892 0.0
H1190 H 0.2151 0.91927 0.5708 0.0
H1191 H 0.23018 0.90808 0.52957 0.0
S1192 S 0.09929 0.90768 0.50652 0.0
N1193 N 0.11336 0.91521 0.53661 0.0
N1194 N 0.12916 0.90215 0.49202 0.0
C1195 C 0.15252 0.90647 0.51171 0.0
C1196 C 0.1437 0.91314 0.53599 0.0
C1197 C 0.60762 0.79781 0.13225 0.0
C1198 C 0.5776 0.76351 0.12486 0.0
C1199 C 0.62457 0.80643 0.15675 0.0
C1200 C 0.61173 0.78125 0.17482 0.0
H1201 H 0.61867 0.81771 0.11882 0.0
H1202 H 0.64813 0.83289 0.16153 0.0
S1203 S 0.53237 0.68857 0.16508 0.0
N1204 N 0.53464 0.70488 0.13766 0.0
N1205 N 0.56627 0.72101 0.18367 0.0
C1206 C 0.58096 0.74729 0.1678 0.0
C1207 C 0.56399 0.73843 0.14283 0.0
C1208 C 0.24791 0.81281 0.14592 0.0
C1209 C 0.24996 0.83512 0.12698 0.0
C1210 C 0.2342 0.81492 0.16862 0.0
C1211 C 0.22185 0.83938 0.17338 0.0
H1212 H 0.257 0.79347 0.14318 0.0
H1213 H 0.23329 0.79718 0.18258 0.0
S1214 S 0.22046 0.90319 0.12967 0.0
N1215 N 0.23816 0.88226 0.11441 0.0
N1216 N 0.21215 0.88611 0.15695 0.0
C1217 C 0.2241 0.86216 0.1547 0.0
C1218 C 0.23819 0.86006 0.13157 0.0
C1219 C 0.18171 0.43148 0.15307 0.0
C1220 C 0.20043 0.42204 0.1364 0.0
C1221 C 0.17397 0.41703 0.17622 0.0
C1222 C 0.1847 0.39256 0.18384 0.0
H1223 H 0.1727 0.45009 0.1481 0.0
H1224 H 0.15922 0.42494 0.18821 0.0
S1225 S 0.23452 0.35907 0.14728 0.0
N1226 N 0.22982 0.3869 0.1293 0.0
N1227 N 0.21529 0.35967 0.17286 0.0
C1228 C 0.2042 0.38352 0.16766 0.0
C1229 C 0.21207 0.39827 0.14398 0.0
C1230 C 0.82284 0.62799 0.89147 0.0
C1231 C 0.78613 0.60404 0.89315 0.0
C1232 C 0.83545 0.64301 0.86899 0.0
C1233 C 0.81196 0.63421 0.84713 0.0
H1234 H 0.84192 0.63549 0.90776 0.0
H1235 H 0.86393 0.66145 0.86867 0.0
S1236 S 0.71339 0.57182 0.8415 0.0
N1237 N 0.72651 0.57157 0.8709 0.0
N1238 N 0.75011 0.59956 0.8288 0.0
C1239 C 0.77524 0.60988 0.84855 0.0
C1240 C 0.76236 0.59494 0.87149 0.0
C1241 C 0.41641 0.16669 0.893 0.0
C1242 C 0.45178 0.19493 0.8999 0.0
C1243 C 0.39927 0.16277 0.86906 0.0
C1244 C 0.41692 0.18672 0.85097 0.0
H1245 H 0.40151 0.14811 0.90645 0.0
H1246 H 0.37184 0.14093 0.86474 0.0
S1247 S 0.51053 0.26388 0.85922 0.0
N1248 N 0.50461 0.24594 0.88621 0.0
N1249 N 0.47222 0.2392 0.84161 0.0
C1250 C 0.45265 0.21444 0.85744 0.0
C1251 C 0.47008 0.2184 0.88178 0.0
C1252 C 0.85213 0.2799 0.87629 0.0
C1253 C 0.83299 0.25181 0.89154 0.0
C1254 C 0.86031 0.2728 0.8525 0.0
C1255 C 0.84953 0.23731 0.84267 0.0
H1256 H 0.86115 0.3078 0.88285 0.0
H1257 H 0.87612 0.29546 0.84195 0.0
S1258 S 0.79755 0.15374 0.87428 0.0
N1259 N 0.80299 0.1868 0.89471 0.0
N1260 N 0.81737 0.17344 0.84964 0.0
C1261 C 0.82968 0.20881 0.85739 0.0
C1262 C 0.82151 0.21604 0.88178 0.0
C1263 C 0.28257 0.09237 0.46629 0.0
C1264 C 0.25728 0.10234 0.45844 0.0
C1265 C 0.29734 0.09955 0.4912 0.0
C1266 C 0.2874 0.11688 0.50941 0.0
H1267 H 0.29168 0.07957 0.45293 0.0
H1268 H 0.31691 0.09156 0.49622 0.0
S1269 S 0.22157 0.1477 0.49887 0.0
N1270 N 0.22227 0.12976 0.47105 0.0
N1271 N 0.25026 0.14341 0.51803 0.0
C1272 C 0.26169 0.12649 0.50201 0.0
C1273 C 0.24673 0.11935 0.47648 0.0
C1274 C 0.88005 0.15061 0.46191 0.0
C1275 C 0.9171 0.16788 0.45937 0.0
C1276 C 0.86704 0.15317 0.48483 0.0
C1277 C 0.89047 0.17323 0.50627 0.0
H1278 H 0.86086 0.1346 0.44605 0.0
H1279 H 0.8383 0.13915 0.48578 0.0
S1280 S 0.98998 0.22317 0.50987 0.0
N1281 N 0.97711 0.20537 0.48054 0.0
N1282 N 0.95271 0.21086 0.52335 0.0
C1283 C 0.92759 0.19132 0.50388 0.0
C1284 C 0.94087 0.18848 0.48055 0.0
C1285 C 0.8455 0.76631 0.48486 0.0
C1286 C 0.86497 0.75792 0.46822 0.0
C1287 C 0.83789 0.75141 0.50792 0.0
C1288 C 0.84917 0.72723 0.51526 0.0
H1289 H 0.83613 0.78471 0.48007 0.0
H1290 H 0.82238 0.7583 0.51987 0.0
S1291 S 0.902 0.69732 0.47898 0.0
N1292 N 0.89596 0.72436 0.461 0.0
N1293 N 0.88198 0.69664 0.50439 0.0
C1294 C 0.86911 0.71901 0.49898 0.0
C1295 C 0.87701 0.73434 0.47553 0.0
loop_
_geom_bond_atom_site_label_1
_geom_bond_atom_site_label_2
_geom_bond_distance
_geom_bond_site_symmetry_2
_ccdc_geom_bond_type
H0 C1 0.949 . S
C1 H0 0.949 . S
C1 C2 1.395 . S
C1 C3 1.391 . S
C2 C1 1.395 . S
C2 C5 1.390 . S
C3 C1 1.391 . S
C3 C7 1.387 . S
C3 C8 1.491 . S
H4 C5 0.950 . S
C5 C2 1.390 . S
C5 H4 0.950 . S
C5 C6 1.378 . S
C6 C5 1.378 . S
C6 C7 1.409 . S
C7 C3 1.387 . S
C7 C6 1.409 . S
C7 H9 0.951 . S
C8 C3 1.491 . S
C8 C10 1.382 . S
C8 C12 1.404 . S
H9 C7 0.951 . S
C10 C8 1.382 . S
C10 C11 1.390 . S
C10 H15 0.949 . S
C11 C10 1.390 . S
C11 C16 1.399 . S
C12 C8 1.404 . S
C12 H13 0.950 . S
C12 C14 1.375 . S
H13 C12 0.950 . S
C14 C12 1.375 . S
C14 C16 1.382 . S
C14 H18 0.950 . S
H15 C10 0.949 . S
C16 C11 1.399 . S
C16 C14 1.382 . S
C16 H17 0.952 . S
H17 C16 0.952 . S
H18 C14 0.950 . S
H19 C20 0.949 . S
C20 H19 0.949 . S
C20 C21 1.395 . S
C20 C22 1.391 . S
C21 C20 1.395 . S
C21 C24 1.390 . S
C22 C20 1.391 . S
C22 C26 1.387 . S
C22 C27 1.491 . S
H23 C24 0.950 . S
C24 C21 1.390 . S
C24 H23 0.950 . S
C24 C25 1.378 . S
C25 C24 1.378 . S
C25 C26 1.409 . S
C26 C22 1.387 . S
C26 C25 1.409 . S
C26 H28 0.951 . S
C27 C22 1.491 . S
C27 C29 1.382 . S
C27 C31 1.404 . S
H28 C26 0.951 . S
C29 C27 1.382 . S
C29 C30 1.390 . S
C29 H34 0.949 . S
C30 C29 1.390 . S
C30 C35 1.399 1_545 S
C31 C27 1.404 . S
C31 H32 0.950 . S
C31 C33 1.375 . S
H32 C31 0.950 . S
C33 C31 1.375 . S
C33 C35 1.382 1_545 S
C33 H37 0.950 . S
H34 C29 0.949 . S
C35 C30 1.399 1_565 S
C35 C33 1.382 1_565 S
C35 H36 0.952 . S
H36 C35 0.952 . S
H37 C33 0.950 . S
H38 C39 0.949 . S
C39 H38 0.949 . S
C39 C40 1.395 . S
C39 C41 1.391 . S
C40 C39 1.395 . S
C40 C43 1.390 . S
C41 C39 1.391 . S
C41 C45 1.387 . S
C41 C46 1.491 . S
H42 C43 0.950 . S
C43 C40 1.390 . S
C43 H42 0.950 . S
C43 C44 1.378 . S
C44 C43 1.378 . S
C44 C45 1.409 . S
C45 C41 1.387 . S
C45 C44 1.409 . S
C45 H47 0.951 . S
C46 C41 1.491 . S
C46 C48 1.382 . S
C46 C50 1.404 . S
H47 C45 0.951 . S
C48 C46 1.382 . S
C48 C49 1.390 1_655 S
C48 H53 0.949 . S
C49 C48 1.390 1_455 S
C49 C54 1.399 . S
C50 C46 1.404 . S
C50 H51 0.950 . S
C50 C52 1.385 . S
H51 C50 0.950 . S
C52 C50 1.385 . S
C52 C54 1.371 1_655 S
C52 H56 0.952 1_655 S
H53 C48 0.949 . S
C54 C49 1.399 . S
C54 C52 1.371 1_455 S
C54 H55 0.952 . S
H55 C54 0.952 . S
H56 C52 0.952 1_455 S
H57 C58 0.949 . S
C58 H57 0.949 . S
C58 C59 1.395 . S
C58 C60 1.391 . S
C59 C58 1.395 . S
C59 C62 1.390 . S
C60 C58 1.391 . S
C60 C64 1.387 . S
C60 C65 1.491 . S
H61 C62 0.950 . S
C62 C59 1.390 . S
C62 H61 0.950 . S
C62 C63 1.378 . S
C63 C62 1.378 . S
C63 C64 1.409 . S
C64 C60 1.387 . S
C64 C63 1.409 . S
C64 H66 0.951 . S
C65 C60 1.491 . S
C65 C67 1.382 . S
C65 C69 1.404 . S
H66 C64 0.951 . S
C67 C65 1.382 . S
C67 C68 1.390 . S
C67 H72 0.949 . S
C68 C67 1.390 . S
C68 C73 1.399 . S
C69 C65 1.404 . S
C69 H70 0.950 . S
C69 C71 1.375 . S
H70 C69 0.950 . S
C71 C69 1.375 . S
C71 C73 1.382 . S
C71 H75 0.950 . S
H72 C67 0.949 . S
C73 C68 1.399 . S
C73 C71 1.382 . S
C73 H74 0.952 . S
H74 C73 0.952 . S
H75 C71 0.950 . S
H76 C77 0.949 . S
C77 H76 0.949 . S
C77 C78 1.395 . S
C77 C79 1.391 . S
C78 C77 1.395 . S
C78 C81 1.390 . S
C79 C77 1.391 . S
C79 C83 1.387 . S
C79 C84 1.491 . S
H80 C81 0.950 . S
C81 C78 1.390 . S
C81 H80 0.950 . S
C81 C82 1.378 . S
C82 C81 1.378 . S
C82 C83 1.409 . S
C83 C79 1.387 . S
C83 C82 1.409 . S
C83 H85 0.951 . S
C84 C79 1.491 . S
C84 C86 1.382 . S
C84 C88 1.404 . S
H85 C83 0.951 . S
C86 C84 1.382 . S
C86 C87 1.390 . S
C86 H91 0.949 . S
C87 C86 1.390 . S
C87 C92 1.399 1_565 S
C88 C84 1.404 . S
C88 H89 0.950 . S
C88 C90 1.375 . S
H89 C88 0.950 . S
C90 C88 1.375 . S
C90 C92 1.382 1_565 S
C90 H94 0.950 . S
H91 C86 0.949 . S
C92 C87 1.399 1_545 S
C92 C90 1.382 1_545 S
C92 H93 0.952 . S
H93 C92 0.952 . S
H94 C90 0.950 . S
H95 C96 0.949 . S
C96 H95 0.949 . S
C96 C97 1.395 . S
C96 C98 1.391 . S
C97 C96 1.395 . S
C97 C100 1.390 . S
C98 C96 1.391 . S
C98 C102 1.387 . S
C98 C103 1.491 . S
H99 C100 0.950 . S
C100 C97 1.390 . S
C100 H99 0.950 . S
C100 C101 1.378 . S
C101 C100 1.378 . S
C101 C102 1.409 . S
C102 C98 1.387 . S
C102 C101 1.409 . S
C102 H104 0.951 . S
C103 C98 1.491 . S
C103 C105 1.382 . S
C103 C107 1.404 . S
H104 C102 0.951 . S
C105 C103 1.382 . S
C105 C106 1.390 . S
C105 H110 0.949 . S
C106 C105 1.390 . S
C106 C111 1.399 . S
C107 C103 1.404 . S
C107 H108 0.950 . S
C107 C109 1.375 . S
H108 C107 0.950 . S
C109 C107 1.375 . S
C109 C111 1.382 . S
C109 H113 0.950 . S
H110 C105 0.949 . S
C111 C106 1.399 . S
C111 C109 1.382 . S
C111 H112 0.952 1_455 S
H112 C111 0.952 1_655 S
H113 C109 0.950 . S
H114 C115 0.949 . S
C115 H114 0.949 . S
C115 C116 1.395 . S
C115 C117 1.391 . S
C116 C115 1.395 . S
C116 C119 1.390 . S
C117 C115 1.391 . S
C117 C121 1.387 . S
C117 C122 1.491 . S
H118 C119 0.950 . S
C119 C116 1.390 . S
C119 H118 0.950 . S
C119 C120 1.378 . S
C120 C119 1.378 . S
C120 C121 1.409 . S
C121 C117 1.387 . S
C121 C120 1.409 . S
C121 H123 0.951 . S
C122 C117 1.491 . S
C122 C124 1.382 . S
C122 C126 1.404 . S
H123 C121 0.951 . S
C124 C122 1.382 . S
C124 C125 1.390 . S
C124 H129 0.949 . S
C125 C124 1.390 . S
C125 C130 1.399 . S
C126 C122 1.404 . S
C126 H127 0.950 . S
C126 C128 1.375 . S
H127 C126 0.950 . S
C128 C126 1.375 . S
C128 C130 1.382 . S
C128 H132 0.950 . S
H129 C124 0.949 . S
C130 C125 1.399 . S
C130 C128 1.382 . S
C130 H131 0.952 . S
H131 C130 0.952 . S
H132 C128 0.950 . S
H133 C134 0.949 . S
C134 H133 0.949 . S
C134 C135 1.395 . S
C134 C136 1.391 . S
C135 C134 1.395 . S
C135 C138 1.390 . S
C136 C134 1.391 . S
C136 C140 1.387 . S
C136 C141 1.491 . S
H137 C138 0.950 . S
C138 C135 1.390 . S
C138 H137 0.950 . S
C138 C139 1.378 . S
C139 C138 1.378 . S
C139 C140 1.409 . S
C140 C136 1.387 . S
C140 C139 1.409 . S
C140 H142 0.951 . S
C141 C136 1.491 . S
C141 C143 1.382 . S
C141 C145 1.404 . S
H142 C140 0.951 . S
C143 C141 1.382 . S
C143 C144 1.390 . S
C143 H148 0.949 . S
C144 C143 1.390 . S
C144 C149 1.399 . S
C145 C141 1.404 . S
C145 H146 0.950 . S
C145 C147 1.375 . S
H146 C145 0.950 . S
C147 C145 1.375 . S
C147 C149 1.382 . S
C147 H151 0.950 . S
H148 C143 0.949 . S
C149 C144 1.399 . S
C149 C147 1.382 . S
C149 H150 0.952 . S
H150 C149 0.952 . S
H151 C147 0.950 . S
H152 C153 0.949 . S
C153 H152 0.949 . S
C153 C154 1.395 . S
C153 C155 1.391 . S
C154 C153 1.395 . S
C154 C157 1.390 . S
C155 C153 1.391 . S
C155 C159 1.387 . S
C155 C160 1.491 . S
H156 C157 0.950 . S
C157 C154 1.390 . S
C157 H156 0.950 . S
C157 C158 1.378 . S
C158 C157 1.378 . S
C158 C159 1.409 . S
C159 C155 1.387 . S
C159 C158 1.409 . S
C159 H161 0.951 . S
C160 C155 1.491 . S
C160 C162 1.382 . S
C160 C164 1.404 . S
H161 C159 0.951 . S
C162 C160 1.382 . S
C162 C163 1.390 . S
C162 H167 0.949 . S
C163 C162 1.390 . S
C163 C168 1.399 . S
C164 C160 1.404 . S
C164 H165 0.950 . S
C164 C166 1.375 . S
H165 C164 0.950 . S
C166 C164 1.375 . S
C166 C168 1.382 . S
C166 H170 0.950 . S
H167 C162 0.949 . S
C168 C163 1.399 . S
C168 C166 1.382 . S
C168 H169 0.952 . S
H169 C168 0.952 . S
H170 C166 0.950 . S
H171 C172 0.949 . S
C172 H171 0.949 . S
C172 C173 1.395 . S
C172 C174 1.391 . S
C173 C172 1.395 . S
C173 C176 1.390 . S
C174 C172 1.391 . S
C174 C178 1.387 . S
C174 C179 1.491 . S
H175 C176 0.950 . S
C176 C173 1.390 . S
C176 H175 0.950 . S
C176 C177 1.378 . S
C177 C176 1.378 . S
C177 C178 1.409 . S
C178 C174 1.387 . S
C178 C177 1.409 . S
C178 H180 0.951 . S
C179 C174 1.491 . S
C179 C181 1.382 . S
C179 C183 1.404 . S
H180 C178 0.951 . S
C181 C179 1.382 . S
C181 C182 1.390 . S
C181 H186 0.949 . S
C182 C181 1.390 . S
C182 C187 1.399 . S
C183 C179 1.404 . S
C183 H184 0.950 . S
C183 C185 1.375 . S
H184 C183 0.950 . S
C185 C183 1.375 . S
C185 C187 1.382 . S
C185 H189 0.950 . S
H186 C181 0.949 . S
C187 C182 1.399 . S
C187 C185 1.382 . S
C187 H188 0.952 . S
H188 C187 0.952 . S
H189 C185 0.950 . S
H190 C191 0.949 . S
C191 H190 0.949 . S
C191 C192 1.395 . S
C191 C193 1.391 . S
C192 C191 1.395 . S
C192 C195 1.390 . S
C193 C191 1.391 . S
C193 C197 1.387 . S
C193 C198 1.491 . S
H194 C195 0.950 . S
C195 C192 1.390 . S
C195 H194 0.950 . S
C195 C196 1.378 . S
C196 C195 1.378 . S
C196 C197 1.409 . S
C197 C193 1.387 . S
C197 C196 1.409 . S
C197 H199 0.951 1_556 S
C198 C193 1.491 . S
C198 C200 1.382 . S
C198 C202 1.404 1_556 S
H199 C197 0.951 1_554 S
C200 C198 1.382 . S
C200 C201 1.390 1_556 S
C200 H205 0.949 . S
C201 C200 1.390 1_554 S
C201 C206 1.399 . S
C202 C198 1.404 1_554 S
C202 H203 0.950 . S
C202 C204 1.375 . S
H203 C202 0.950 . S
C204 C202 1.375 . S
C204 C206 1.382 . S
C204 H208 0.950 . S
H205 C200 0.949 . S
C206 C201 1.399 . S
C206 C204 1.382 . S
C206 H207 0.952 . S
H207 C206 0.952 . S
H208 C204 0.950 . S
H209 C210 0.949 . S
C210 H209 0.949 . S
C210 C211 1.395 . S
C210 C212 1.391 . S
C211 C210 1.395 . S
C211 C214 1.390 . S
C212 C210 1.391 . S
C212 C216 1.387 . S
C212 C217 1.491 . S
H213 C214 0.950 . S
C214 C211 1.390 . S
C214 H213 0.950 . S
C214 C215 1.378 . S
C215 C214 1.378 . S
C215 C216 1.409 . S
C216 C212 1.387 . S
C216 C215 1.409 . S
C216 H218 0.951 . S
C217 C212 1.491 . S
C217 C219 1.382 . S
C217 C221 1.404 . S
H218 C216 0.951 . S
C219 C217 1.382 . S
C219 C220 1.390 . S
C219 H224 0.949 . S
C220 C219 1.390 . S
C220 C225 1.399 . S
C221 C217 1.404 . S
C221 H222 0.950 . S
C221 C223 1.375 1_556 S
H222 C221 0.950 . S
C223 C221 1.375 1_554 S
C223 C225 1.382 1_554 S
C223 H227 0.950 . S
H224 C219 0.949 . S
C225 C220 1.399 . S
C225 C223 1.382 1_556 S
C225 H226 0.952 1_556 S
H226 C225 0.952 1_554 S
H227 C223 0.950 . S
H228 C229 0.949 . S
C229 H228 0.949 . S
C229 C230 1.395 . S
C229 C231 1.391 . S
C230 C229 1.395 . S
C230 C233 1.390 . S
C231 C229 1.391 . S
C231 C235 1.387 . S
C231 C236 1.491 . S
H232 C233 0.950 . S
C233 C230 1.390 . S
C233 H232 0.950 . S
C233 C234 1.378 . S
C234 C233 1.378 . S
C234 C235 1.409 . S
C235 C231 1.387 . S
C235 C234 1.409 . S
C235 H237 0.951 1_554 S
C236 C231 1.491 . S
C236 C238 1.382 . S
C236 C240 1.404 1_554 S
H237 C235 0.951 1_556 S
C238 C236 1.382 . S
C238 C239 1.390 . S
C238 H243 0.949 . S
C239 C238 1.390 . S
C239 C244 1.399 1_554 S
C240 C236 1.404 1_556 S
C240 H241 0.950 . S
C240 C242 1.375 . S
H241 C240 0.950 . S
C242 C240 1.375 . S
C242 C244 1.382 . S
C242 H246 0.950 . S
H243 C238 0.949 . S
C244 C239 1.399 1_556 S
C244 C242 1.382 . S
C244 H245 0.952 . S
H245 C244 0.952 . S
H246 C242 0.950 . S
H247 C248 0.949 . S
C248 H247 0.949 . S
C248 C249 1.395 . S
C248 C250 1.391 . S
C249 C248 1.395 . S
C249 C252 1.390 . S
C250 C248 1.391 . S
C250 C254 1.387 . S
C250 C255 1.491 . S
H251 C252 0.950 . S
C252 C249 1.390 . S
C252 H251 0.950 . S
C252 C253 1.378 . S
C253 C252 1.378 . S
C253 C254 1.409 . S
C254 C250 1.387 . S
C254 C253 1.409 . S
C254 H256 0.951 . S
C255 C250 1.491 . S
C255 C257 1.382 . S
C255 C259 1.404 . S
H256 C254 0.951 . S
C257 C255 1.382 . S
C257 C258 1.390 . S
C257 H262 0.949 . S
C258 C257 1.390 . S
C258 C263 1.375 1_554 S
C259 C255 1.404 . S
C259 H260 0.950 . S
C259 C261 1.375 1_554 S
H260 C259 0.950 . S
C261 C259 1.375 1_556 S
C261 C263 1.390 . S
C261 H265 0.950 . S
H262 C257 0.949 . S
C263 C258 1.375 1_556 S
C263 C261 1.390 . S
C263 H264 0.970 . S
H264 C263 0.970 . S
H265 C261 0.950 . S
H266 C267 0.949 . S
C267 H266 0.949 . S
C267 C268 1.395 . S
C267 C269 1.391 . S
C268 C267 1.395 . S
C268 C271 1.390 . S
C269 C267 1.391 . S
C269 C273 1.387 . S
C269 C274 1.491 . S
H270 C271 0.950 . S
C271 C268 1.390 . S
C271 H270 0.950 . S
C271 C272 1.378 . S
C272 C271 1.378 . S
C272 C273 1.409 . S
C273 C269 1.387 . S
C273 C272 1.409 . S
C273 H275 0.951 . S
C274 C269 1.491 . S
C274 C276 1.382 . S
C274 C278 1.404 . S
H275 C273 0.951 . S
C276 C274 1.382 . S
C276 C277 1.390 . S
C276 H281 0.949 . S
C277 C276 1.390 . S
C277 C282 1.399 . S
C278 C274 1.404 . S
C278 H279 0.950 . S
C278 C280 1.375 . S
H279 C278 0.950 . S
C280 C278 1.375 . S
C280 C282 1.382 . S
C280 H284 0.950 . S
H281 C276 0.949 . S
C282 C277 1.399 . S
C282 C280 1.382 . S
C282 H283 0.952 . S
H283 C282 0.952 . S
H284 C280 0.950 . S
H285 C286 0.949 . S
C286 H285 0.949 . S
C286 C287 1.395 . S
C286 C288 1.391 . S
C287 C286 1.395 . S
C287 C290 1.390 . S
C288 C286 1.391 . S
C288 C292 1.387 . S
C288 C293 1.491 . S
H289 C290 0.950 . S
C290 C287 1.390 . S
C290 H289 0.950 . S
C290 C291 1.378 . S
C291 C290 1.378 . S
C291 C292 1.409 . S
C292 C288 1.387 . S
C292 C291 1.409 . S
C292 H294 0.951 . S
C293 C288 1.491 . S
C293 C295 1.382 . S
C293 C297 1.404 . S
H294 C292 0.951 . S
C295 C293 1.382 . S
C295 C296 1.390 . S
C295 H300 0.949 . S
C296 C295 1.390 . S
C296 C301 1.399 . S
C297 C293 1.404 . S
C297 H298 0.950 . S
C297 C299 1.375 . S
H298 C297 0.950 . S
C299 C297 1.375 . S
C299 C301 1.382 . S
C299 H303 0.950 . S
H300 C295 0.949 . S
C301 C296 1.399 . S
C301 C299 1.382 . S
C301 H302 0.952 . S
H302 C301 0.952 . S
H303 C299 0.950 . S
H304 C305 0.949 . S
C305 H304 0.949 . S
C305 C306 1.395 . S
C305 C307 1.391 . S
C306 C305 1.395 . S
C306 C309 1.390 . S
C307 C305 1.391 . S
C307 C311 1.387 . S
C307 C312 1.491 . S
H308 C309 0.950 . S
C309 C306 1.390 . S
C309 H308 0.950 . S
C309 C310 1.378 . S
C310 C309 1.378 . S
C310 C311 1.409 . S
C311 C307 1.387 . S
C311 C310 1.409 . S
C311 H313 0.951 . S
C312 C307 1.491 . S
C312 C314 1.382 . S
C312 C316 1.404 . S
H313 C311 0.951 . S
C314 C312 1.382 . S
C314 C315 1.390 . S
C314 H319 0.949 . S
C315 C314 1.390 . S
C315 C320 1.399 . S
C316 C312 1.404 . S
C316 H317 0.950 . S
C316 C318 1.375 . S
H317 C316 0.950 . S
C318 C316 1.375 . S
C318 C320 1.382 . S
C318 H322 0.950 . S
H319 C314 0.949 . S
C320 C315 1.399 . S
C320 C318 1.382 . S
C320 H321 0.952 . S
H321 C320 0.952 . S
H322 C318 0.950 . S
H323 C324 0.949 . S
C324 H323 0.949 . S
C324 C325 1.395 . S
C324 C326 1.391 . S
C325 C324 1.395 . S
C325 C328 1.390 . S
C326 C324 1.391 . S
C326 C330 1.387 . S
C326 C331 1.491 . S
H327 C328 0.950 . S
C328 C325 1.390 . S
C328 H327 0.950 . S
C328 C329 1.378 . S
C329 C328 1.378 . S
C329 C330 1.409 . S
C330 C326 1.387 . S
C330 C329 1.409 . S
C330 H332 0.951 . S
C331 C326 1.491 . S
C331 C333 1.382 . S
C331 C335 1.404 . S
H332 C330 0.951 . S
C333 C331 1.382 . S
C333 C334 1.390 . S
C333 H338 0.949 . S
C334 C333 1.390 . S
C334 C339 1.399 . S
C335 C331 1.404 . S
C335 H336 0.950 . S
C335 C337 1.375 . S
H336 C335 0.950 . S
C337 C335 1.375 . S
C337 C339 1.382 . S
C337 H341 0.950 . S
H338 C333 0.949 . S
C339 C334 1.399 . S
C339 C337 1.382 . S
C339 H340 0.952 . S
H340 C339 0.952 . S
H341 C337 0.950 . S
C342 Eu343 2.835 1_565 S
C342 C344 1.500 . S
C342 O362 1.257 . S
C342 O363 1.260 1_565 S
Eu343 C342 2.835 1_545 S
Eu343 O362 2.473 1_545 S
Eu343 O363 2.480 . S
Eu343 O364 2.430 . S
Eu343 O365 2.670 1_554 S
Eu343 O366 2.394 1_545 S
Eu343 O371 2.355 1_545 S
Eu343 O373 2.374 . S
C344 C342 1.500 . S
C344 C345 1.396 . S
C344 C349 1.377 . S
C345 C344 1.396 . S
C345 C346 1.402 . S
C345 H374 0.904 1_565 S
C346 C345 1.402 . S
C346 C347 1.383 . S
C346 H375 0.931 1_565 S
C347 C346 1.383 . S
C347 C348 1.394 . S
C348 C347 1.394 . S
C348 C349 1.378 . S
C348 H376 0.931 . S
C349 C344 1.377 . S
C349 C348 1.378 . S
C349 H377 0.931 . S
C350 O364 1.259 . S
C350 O365 1.270 1_554 S
C351 O366 1.251 . S
C351 O367 1.251 1_554 S
C352 Eu353 2.835 1_545 S
C352 C354 1.500 . S
C352 O368 1.257 . S
C352 O369 1.260 1_545 S
Eu353 C352 2.835 1_565 S
Eu353 O365 2.355 1_565 S
Eu353 O367 2.374 . S
Eu353 O368 2.473 1_565 S
Eu353 O369 2.480 . S
Eu353 O370 2.430 . S
Eu353 O371 2.670 1_556 S
Eu353 O372 2.394 1_565 S
C354 C352 1.500 . S
C354 C355 1.377 . S
C354 C359 1.377 . S
C355 C354 1.377 . S
C355 C356 1.395 . S
C355 H378 0.931 1_545 S
C356 C355 1.395 . S
C356 C357 1.383 . S
C356 H379 0.931 . S
C357 C356 1.383 . S
C357 C358 1.394 . S
C358 C357 1.394 . S
C358 C359 1.378 . S
C358 H380 0.931 . S
C359 C354 1.377 . S
C359 C358 1.378 . S
C359 H381 0.931 . S
C360 O370 1.259 . S
C360 O371 1.270 1_556 S
C361 O372 1.251 . S
C361 O373 1.251 1_556 S
O362 C342 1.257 . S
O362 Eu343 2.473 1_565 S
O363 C342 1.260 1_545 S
O363 Eu343 2.480 . S
O364 Eu343 2.430 . S
O364 C350 1.259 . S
O365 Eu343 2.670 1_556 S
O365 C350 1.270 1_556 S
O365 Eu353 2.355 1_545 S
O366 Eu343 2.394 1_565 S
O366 C351 1.251 . S
O367 C351 1.251 1_556 S
O367 Eu353 2.374 . S
O368 C352 1.257 . S
O368 Eu353 2.473 1_545 S
O369 C352 1.260 1_565 S
O369 Eu353 2.480 . S
O370 Eu353 2.430 . S
O370 C360 1.259 . S
O371 Eu343 2.355 1_565 S
O371 Eu353 2.670 1_554 S
O371 C360 1.270 1_554 S
O372 Eu353 2.394 1_545 S
O372 C361 1.251 . S
O373 Eu343 2.374 . S
O373 C361 1.251 1_554 S
H374 C345 0.904 1_545 S
H375 C346 0.931 1_545 S
H376 C348 0.931 . S
H377 C349 0.931 . S
H378 C355 0.931 1_565 S
H379 C356 0.931 . S
H380 C358 0.931 . S
H381 C359 0.931 . S
C382 Eu383 2.835 1_455 S
C382 C384 1.500 . S
C382 O402 1.257 . S
C382 O403 1.260 1_455 S
Eu383 C382 2.835 1_655 S
Eu383 O402 2.473 1_655 S
Eu383 O403 2.480 . S
Eu383 O404 2.430 . S
Eu383 O405 2.670 1_554 S
Eu383 O406 2.394 1_655 S
Eu383 O411 2.355 1_655 S
Eu383 O413 2.374 . S
C384 C382 1.500 . S
C384 C385 1.377 . S
C384 C389 1.377 . S
C385 C384 1.377 . S
C385 C386 1.395 . S
C385 H414 0.931 1_455 S
C386 C385 1.395 . S
C386 C387 1.383 . S
C386 H415 0.931 . S
C387 C386 1.383 . S
C387 C388 1.394 . S
C388 C387 1.394 . S
C388 C389 1.378 . S
C388 H416 0.931 . S
C389 C384 1.377 . S
C389 C388 1.378 . S
C389 H417 0.931 . S
C390 O404 1.256 1_556 S
C390 O405 1.272 . S
C391 O406 1.251 . S
C391 O407 1.251 1_554 S
C392 Eu393 2.835 1_655 S
C392 C394 1.500 . S
C392 O408 1.257 . S
C392 O409 1.260 1_655 S
Eu393 C392 2.835 1_455 S
Eu393 O405 2.355 1_455 S
Eu393 O407 2.374 . S
Eu393 O408 2.473 1_455 S
Eu393 O409 2.480 . S
Eu393 O410 2.430 . S
Eu393 O411 2.670 1_556 S
Eu393 O412 2.394 1_455 S
C394 C392 1.500 . S
C394 C395 1.377 . S
C394 C399 1.377 . S
C395 C394 1.377 . S
C395 C396 1.395 . S
C395 H418 0.931 1_655 S
C396 C395 1.395 . S
C396 C397 1.383 . S
C396 H419 0.931 . S
C397 C396 1.383 . S
C397 C398 1.394 . S
C398 C397 1.394 . S
C398 C399 1.378 . S
C398 H420 0.931 . S
C399 C394 1.377 . S
C399 C398 1.378 . S
C399 H421 0.931 . S
C400 O410 1.259 1_554 S
C400 O411 1.270 . S
C401 O412 1.251 . S
C401 O413 1.251 1_556 S
O402 C382 1.257 . S
O402 Eu383 2.473 1_455 S
O403 C382 1.260 1_655 S
O403 Eu383 2.480 . S
O404 Eu383 2.430 . S
O404 C390 1.256 1_554 S
O405 Eu383 2.670 1_556 S
O405 C390 1.272 . S
O405 Eu393 2.355 1_655 S
O406 Eu383 2.394 1_455 S
O406 C391 1.251 . S
O407 C391 1.251 1_556 S
O407 Eu393 2.374 . S
O408 C392 1.257 . S
O408 Eu393 2.473 1_655 S
O409 C392 1.260 1_455 S
O409 Eu393 2.480 . S
O410 Eu393 2.430 . S
O410 C400 1.259 1_556 S
O411 Eu383 2.355 1_455 S
O411 Eu393 2.670 1_554 S
O411 C400 1.270 . S
O412 Eu393 2.394 1_655 S
O412 C401 1.251 . S
O413 Eu383 2.374 . S
O413 C401 1.251 1_554 S
H414 C385 0.931 1_655 S
H415 C386 0.931 . S
H416 C388 0.931 . S
H417 C389 0.931 . S
H418 C395 0.931 1_455 S
H419 C396 0.931 . S
H420 C398 0.931 . S
H421 C399 0.931 . S
C422 Eu423 2.835 . S
C422 C424 1.500 . S
C422 O442 1.257 . S
C422 O443 1.260 . S
Eu423 C422 2.835 . S
Eu423 O442 2.473 . S
Eu423 O443 2.480 . S
Eu423 O444 2.430 . S
Eu423 O445 2.670 1_556 S
Eu423 O446 2.394 . S
Eu423 O451 2.355 . S
Eu423 O453 2.340 1_556 S
C424 C422 1.500 . S
C424 C425 1.377 . S
C424 C429 1.377 . S
C425 C424 1.377 . S
C425 C426 1.395 . S
C425 H454 0.931 . S
C426 C425 1.395 . S
C426 C427 1.383 . S
C426 H455 0.931 . S
C427 C426 1.383 . S
C427 C428 1.394 . S
C428 C427 1.394 . S
C428 C429 1.378 . S
C428 H456 0.931 . S
C429 C424 1.377 . S
C429 C428 1.378 . S
C429 H457 0.931 . S
C430 O444 1.259 1_554 S
C430 O445 1.270 . S
C431 O446 1.251 . S
C431 O447 1.251 1_556 S
C432 Eu433 2.835 . S
C432 C434 1.500 . S
C432 O448 1.257 . S
C432 O449 1.260 . S
Eu433 C432 2.835 . S
Eu433 O445 2.355 . S
Eu433 O447 2.374 . S
Eu433 O448 2.473 . S
Eu433 O449 2.480 . S
Eu433 O450 2.430 . S
Eu433 O451 2.670 1_554 S
Eu433 O452 2.394 . S
C434 C432 1.500 . S
C434 C435 1.377 . S
C434 C439 1.377 . S
C435 C434 1.377 . S
C435 C436 1.395 . S
C435 H458 0.931 . S
C436 C435 1.395 . S
C436 C437 1.383 . S
C436 H459 0.931 . S
C437 C436 1.383 . S
C437 C438 1.394 . S
C438 C437 1.394 . S
C438 C439 1.378 . S
C438 H460 0.931 . S
C439 C434 1.377 . S
C439 C438 1.378 . S
C439 H461 0.931 . S
C440 O450 1.259 . S
C440 O451 1.270 1_554 S
C441 O452 1.251 . S
C441 O453 1.300 . S
O442 C422 1.257 . S
O442 Eu423 2.473 . S
O443 C422 1.260 . S
O443 Eu423 2.480 . S
O444 Eu423 2.430 . S
O444 C430 1.259 1_556 S
O445 Eu423 2.670 1_554 S
O445 C430 1.270 . S
O445 Eu433 2.355 . S
O446 Eu423 2.394 . S
O446 C431 1.251 . S
O447 C431 1.251 1_554 S
O447 Eu433 2.374 . S
O448 C432 1.257 . S
O448 Eu433 2.473 . S
O449 C432 1.260 . S
O449 Eu433 2.480 . S
O450 Eu433 2.430 . S
O450 C440 1.259 . S
O451 Eu423 2.355 . S
O451 Eu433 2.670 1_556 S
O451 C440 1.270 1_556 S
O452 Eu433 2.394 . S
O452 C441 1.251 . S
O453 Eu423 2.340 1_554 S
O453 C441 1.300 . S
H454 C425 0.931 . S
H455 C426 0.931 . S
H456 C428 0.931 . S
H457 C429 0.931 . S
H458 C435 0.931 . S
H459 C436 0.931 . S
H460 C438 0.931 . S
H461 C439 0.931 . S
C462 Eu463 2.835 . S
C462 C464 1.500 . S
C462 O482 1.257 . S
C462 O483 1.260 . S
Eu463 C462 2.835 . S
Eu463 O482 2.473 . S
Eu463 O483 2.480 . S
Eu463 O484 2.430 . S
Eu463 O485 2.670 . S
Eu463 O486 2.394 . S
Eu463 O491 2.355 . S
Eu463 O493 2.374 . S
C464 C462 1.500 . S
C464 C465 1.377 . S
C464 C469 1.377 . S
C465 C464 1.377 . S
C465 C466 1.395 . S
C465 H494 0.931 . S
C466 C465 1.395 . S
C466 C467 1.383 . S
C466 H495 0.931 . S
C467 C466 1.383 . S
C467 C468 1.394 . S
C468 C467 1.394 . S
C468 C469 1.378 . S
C468 H496 0.931 . S
C469 C464 1.377 . S
C469 C468 1.378 . S
C469 H497 0.931 . S
C470 O484 1.259 . S
C470 O485 1.270 . S
C471 O486 1.251 . S
C471 O487 1.251 . S
C472 Eu473 2.835 . S
C472 C474 1.500 . S
C472 O488 1.257 . S
C472 O489 1.260 . S
Eu473 C472 2.835 . S
Eu473 O485 2.355 . S
Eu473 O487 2.374 . S
Eu473 O488 2.473 . S
Eu473 O489 2.480 . S
Eu473 O490 2.430 . S
Eu473 O491 2.670 . S
Eu473 O492 2.394 . S
C474 C472 1.500 . S
C474 C475 1.377 . S
C474 C479 1.377 . S
C475 C474 1.377 . S
C475 C476 1.395 . S
C475 H498 0.931 . S
C476 C475 1.395 . S
C476 C477 1.383 . S
C476 H499 0.931 . S
C477 C476 1.383 . S
C477 C478 1.394 . S
C478 C477 1.394 . S
C478 C479 1.378 . S
C478 H500 0.931 . S
C479 C474 1.377 . S
C479 C478 1.378 . S
C479 H501 0.931 . S
C480 O490 1.259 . S
C480 O491 1.270 . S
C481 O492 1.251 . S
C481 O493 1.251 . S
O482 C462 1.257 . S
O482 Eu463 2.473 . S
O483 C462 1.260 . S
O483 Eu463 2.480 . S
O484 Eu463 2.430 . S
O484 C470 1.259 . S
O485 Eu463 2.670 . S
O485 C470 1.270 . S
O485 Eu473 2.355 . S
O486 Eu463 2.394 . S
O486 C471 1.251 . S
O487 C471 1.251 . S
O487 Eu473 2.374 . S
O488 C472 1.257 . S
O488 Eu473 2.473 . S
O489 C472 1.260 . S
O489 Eu473 2.480 . S
O490 Eu473 2.430 . S
O490 C480 1.259 . S
O491 Eu463 2.355 . S
O491 Eu473 2.670 . S
O491 C480 1.270 . S
O492 Eu473 2.394 . S
O492 C481 1.251 . S
O493 Eu463 2.374 . S
O493 C481 1.251 . S
H494 C465 0.931 . S
H495 C466 0.931 . S
H496 C468 0.931 . S
H497 C469 0.931 . S
H498 C475 0.931 . S
H499 C476 0.931 . S
H500 C478 0.931 . S
H501 C479 0.931 . S
C502 Eu503 2.835 . S
C502 C504 1.500 . S
C502 O522 1.257 . S
C502 O523 1.260 . S
Eu503 C502 2.835 . S
Eu503 O522 2.473 . S
Eu503 O523 2.480 . S
Eu503 O524 2.430 . S
Eu503 O525 2.670 . S
Eu503 O526 2.394 . S
Eu503 O531 2.355 . S
Eu503 O533 2.374 . S
C504 C502 1.500 . S
C504 C505 1.377 . S
C504 C509 1.377 . S
C505 C504 1.377 . S
C505 C506 1.395 . S
C505 H534 0.931 . S
C506 C505 1.395 . S
C506 C507 1.383 . S
C506 H535 0.931 . S
C507 C506 1.383 . S
C507 C508 1.394 . S
C508 C507 1.394 . S
C508 C509 1.378 . S
C508 H536 0.931 . S
C509 C504 1.377 . S
C509 C508 1.378 . S
C509 H537 0.931 . S
C510 O524 1.259 . S
C510 O525 1.270 . S
C511 O526 1.251 . S
C511 O527 1.251 . S
C512 Eu513 2.835 . S
C512 C514 1.500 . S
C512 O528 1.257 . S
C512 O529 1.260 . S
Eu513 C512 2.835 . S
Eu513 O525 2.355 . S
Eu513 O527 2.374 . S
Eu513 O528 2.473 . S
Eu513 O529 2.480 . S
Eu513 O530 2.430 . S
Eu513 O531 2.670 . S
Eu513 O532 2.394 . S
C514 C512 1.500 . S
C514 C515 1.377 . S
C514 C519 1.377 . S
C515 C514 1.377 . S
C515 C516 1.395 . S
C515 H538 0.931 . S
C516 C515 1.395 . S
C516 C517 1.383 . S
C516 H539 0.931 . S
C517 C516 1.383 . S
C517 C518 1.394 . S
C518 C517 1.394 . S
C518 C519 1.378 . S
C518 H540 0.931 . S
C519 C514 1.377 . S
C519 C518 1.378 . S
C519 H541 0.931 . S
C520 O530 1.259 . S
C520 O531 1.270 . S
C521 O532 1.251 . S
C521 O533 1.251 . S
O522 C502 1.257 . S
O522 Eu503 2.473 . S
O523 C502 1.260 . S
O523 Eu503 2.480 . S
O524 Eu503 2.430 . S
O524 C510 1.259 . S
O525 Eu503 2.670 . S
O525 C510 1.270 . S
O525 Eu513 2.355 . S
O526 Eu503 2.394 . S
O526 C511 1.251 . S
O527 C511 1.251 . S
O527 Eu513 2.374 . S
O528 C512 1.257 . S
O528 Eu513 2.473 . S
O529 C512 1.260 . S
O529 Eu513 2.480 . S
O530 Eu513 2.430 . S
O530 C520 1.259 . S
O531 Eu503 2.355 . S
O531 Eu513 2.670 . S
O531 C520 1.270 . S
O532 Eu513 2.394 . S
O532 C521 1.251 . S
O533 Eu503 2.374 . S
O533 C521 1.251 . S
H534 C505 0.931 . S
H535 C506 0.931 . S
H536 C508 0.931 . S
H537 C509 0.931 . S
H538 C515 0.931 . S
H539 C516 0.931 . S
H540 C518 0.931 . S
H541 C519 0.931 . S
C542 Eu543 2.835 . S
C542 C544 1.500 . S
C542 O562 1.257 . S
C542 O563 1.260 . S
Eu543 C542 2.835 . S
Eu543 O562 2.473 . S
Eu543 O563 2.480 . S
Eu543 O564 2.430 . S
Eu543 O565 2.670 . S
Eu543 O566 2.394 . S
Eu543 O571 2.355 . S
Eu543 O573 2.374 . S
C544 C542 1.500 . S
C544 C545 1.377 . S
C544 C549 1.377 . S
C545 C544 1.377 . S
C545 C546 1.395 . S
C545 H574 0.931 . S
C546 C545 1.395 . S
C546 C547 1.383 . S
C546 H575 0.931 . S
C547 C546 1.383 . S
C547 C548 1.394 . S
C548 C547 1.394 . S
C548 C549 1.378 . S
C548 H576 0.931 . S
C549 C544 1.377 . S
C549 C548 1.378 . S
C549 H577 0.931 . S
C550 O564 1.259 . S
C550 O565 1.270 . S
C551 O566 1.251 . S
C551 O567 1.251 . S
C552 Eu553 2.835 . S
C552 C554 1.500 . S
C552 O568 1.257 . S
C552 O569 1.260 . S
Eu553 C552 2.835 . S
Eu553 O565 2.355 . S
Eu553 O567 2.374 . S
Eu553 O568 2.473 . S
Eu553 O569 2.480 . S
Eu553 O570 2.430 . S
Eu553 O571 2.670 . S
Eu553 O572 2.394 . S
C554 C552 1.500 . S
C554 C555 1.377 . S
C554 C559 1.377 . S
C555 C554 1.377 . S
C555 C556 1.395 . S
C555 H578 0.931 . S
C556 C555 1.395 . S
C556 C557 1.383 . S
C556 H579 0.931 . S
C557 C556 1.383 . S
C557 C558 1.394 . S
C558 C557 1.394 . S
C558 C559 1.378 . S
C558 H580 0.931 . S
C559 C554 1.377 . S
C559 C558 1.378 . S
C559 H581 0.931 . S
C560 O570 1.259 . S
C560 O571 1.270 . S
C561 O572 1.251 . S
C561 O573 1.251 . S
O562 C542 1.257 . S
O562 Eu543 2.473 . S
O563 C542 1.260 . S
O563 Eu543 2.480 . S
O564 Eu543 2.430 . S
O564 C550 1.259 . S
O565 Eu543 2.670 . S
O565 C550 1.270 . S
O565 Eu553 2.355 . S
O566 Eu543 2.394 . S
O566 C551 1.251 . S
O567 C551 1.251 . S
O567 Eu553 2.374 . S
O568 C552 1.257 . S
O568 Eu553 2.473 . S
O569 C552 1.260 . S
O569 Eu553 2.480 . S
O570 Eu553 2.430 . S
O570 C560 1.259 . S
O571 Eu543 2.355 . S
O571 Eu553 2.670 . S
O571 C560 1.270 . S
O572 Eu553 2.394 . S
O572 C561 1.251 . S
O573 Eu543 2.374 . S
O573 C561 1.251 . S
H574 C545 0.931 . S
H575 C546 0.931 . S
H576 C548 0.931 . S
H577 C549 0.931 . S
H578 C555 0.931 . S
H579 C556 0.931 . S
H580 C558 0.931 . S
H581 C559 0.931 . S
C582 Eu583 2.835 . S
C582 C584 1.500 . S
C582 O602 1.257 . S
C582 O603 1.260 . S
Eu583 C582 2.835 . S
Eu583 O602 2.473 . S
Eu583 O603 2.480 . S
Eu583 O604 2.430 . S
Eu583 O605 2.670 . S
Eu583 O606 2.394 . S
Eu583 O611 2.355 . S
Eu583 O613 2.374 . S
C584 C582 1.500 . S
C584 C585 1.377 . S
C584 C589 1.377 . S
C585 C584 1.377 . S
C585 C586 1.395 . S
C585 H614 0.931 . S
C586 C585 1.395 . S
C586 C587 1.383 . S
C586 H615 0.931 . S
C587 C586 1.383 . S
C587 C588 1.394 . S
C588 C587 1.394 . S
C588 C589 1.378 . S
C588 H616 0.931 . S
C589 C584 1.377 . S
C589 C588 1.378 . S
C589 H617 0.931 . S
C590 O604 1.259 . S
C590 O605 1.270 . S
C591 O606 1.251 . S
C591 O607 1.251 . S
C592 Eu593 2.835 . S
C592 C594 1.500 . S
C592 O608 1.257 . S
C592 O609 1.260 . S
Eu593 C592 2.835 . S
Eu593 O605 2.355 . S
Eu593 O607 2.374 . S
Eu593 O608 2.473 . S
Eu593 O609 2.480 . S
Eu593 O610 2.430 . S
Eu593 O611 2.670 . S
Eu593 O612 2.394 . S
C594 C592 1.500 . S
C594 C595 1.377 . S
C594 C599 1.377 . S
C595 C594 1.377 . S
C595 C596 1.395 . S
C595 H618 0.931 . S
C596 C595 1.395 . S
C596 C597 1.383 . S
C596 H619 0.931 . S
C597 C596 1.383 . S
C597 C598 1.394 . S
C598 C597 1.394 . S
C598 C599 1.378 . S
C598 H620 0.931 . S
C599 C594 1.377 . S
C599 C598 1.378 . S
C599 H621 0.931 . S
C600 O610 1.259 . S
C600 O611 1.270 . S
C601 O612 1.251 . S
C601 O613 1.251 . S
O602 C582 1.257 . S
O602 Eu583 2.473 . S
O603 C582 1.260 . S
O603 Eu583 2.480 . S
O604 Eu583 2.430 . S
O604 C590 1.259 . S
O605 Eu583 2.670 . S
O605 C590 1.270 . S
O605 Eu593 2.355 . S
O606 Eu583 2.394 . S
O606 C591 1.251 . S
O607 C591 1.251 . S
O607 Eu593 2.374 . S
O608 C592 1.257 . S
O608 Eu593 2.473 . S
O609 C592 1.260 . S
O609 Eu593 2.480 . S
O610 Eu593 2.430 . S
O610 C600 1.259 . S
O611 Eu583 2.355 . S
O611 Eu593 2.670 . S
O611 C600 1.270 . S
O612 Eu593 2.394 . S
O612 C601 1.251 . S
O613 Eu583 2.374 . S
O613 C601 1.251 . S
H614 C585 0.931 . S
H615 C586 0.931 . S
H616 C588 0.931 . S
H617 C589 0.931 . S
H618 C595 0.931 . S
H619 C596 0.931 . S
H620 C598 0.931 . S
H621 C599 0.931 . S
C622 Eu623 2.835 . S
C622 C624 1.500 . S
C622 O642 1.257 . S
C622 O643 1.260 . S
Eu623 C622 2.835 . S
Eu623 O642 2.473 . S
Eu623 O643 2.480 . S
Eu623 O644 2.430 . S
Eu623 O645 2.670 . S
Eu623 O646 2.394 . S
Eu623 O651 2.355 . S
Eu623 O653 2.374 . S
C624 C622 1.500 . S
C624 C625 1.377 . S
C624 C629 1.377 . S
C625 C624 1.377 . S
C625 C626 1.395 . S
C625 H654 0.931 . S
C626 C625 1.395 . S
C626 C627 1.383 . S
C626 H655 0.931 . S
C627 C626 1.383 . S
C627 C628 1.394 . S
C628 C627 1.394 . S
C628 C629 1.378 . S
C628 H656 0.931 . S
C629 C624 1.377 . S
C629 C628 1.378 . S
C629 H657 0.931 . S
C630 O644 1.259 . S
C630 O645 1.270 . S
C631 O646 1.251 . S
C631 O647 1.251 . S
C632 Eu633 2.835 . S
C632 C634 1.500 . S
C632 O648 1.257 . S
C632 O649 1.260 . S
Eu633 C632 2.835 . S
Eu633 O645 2.355 . S
Eu633 O647 2.374 . S
Eu633 O648 2.473 . S
Eu633 O649 2.480 . S
Eu633 O650 2.430 . S
Eu633 O651 2.670 . S
Eu633 O652 2.394 . S
C634 C632 1.500 . S
C634 C635 1.377 . S
C634 C639 1.377 . S
C635 C634 1.377 . S
C635 C636 1.395 . S
C635 H658 0.931 . S
C636 C635 1.395 . S
C636 C637 1.383 . S
C636 H659 0.931 . S
C637 C636 1.383 . S
C637 C638 1.394 . S
C638 C637 1.394 . S
C638 C639 1.378 . S
C638 H660 0.931 . S
C639 C634 1.377 . S
C639 C638 1.378 . S
C639 H661 0.931 . S
C640 O650 1.259 . S
C640 O651 1.270 . S
C641 O652 1.251 . S
C641 O653 1.251 . S
O642 C622 1.257 . S
O642 Eu623 2.473 . S
O643 C622 1.260 . S
O643 Eu623 2.480 . S
O644 Eu623 2.430 . S
O644 C630 1.259 . S
O645 Eu623 2.670 . S
O645 C630 1.270 . S
O645 Eu633 2.355 . S
O646 Eu623 2.394 . S
O646 C631 1.251 . S
O647 C631 1.251 . S
O647 Eu633 2.374 . S
O648 C632 1.257 . S
O648 Eu633 2.473 . S
O649 C632 1.260 . S
O649 Eu633 2.480 . S
O650 Eu633 2.430 . S
O650 C640 1.259 . S
O651 Eu623 2.355 . S
O651 Eu633 2.670 . S
O651 C640 1.270 . S
O652 Eu633 2.394 . S
O652 C641 1.251 . S
O653 Eu623 2.374 . S
O653 C641 1.251 . S
H654 C625 0.931 . S
H655 C626 0.931 . S
H656 C628 0.931 . S
H657 C629 0.931 . S
H658 C635 0.931 . S
H659 C636 0.931 . S
H660 C638 0.931 . S
H661 C639 0.931 . S
C662 Eu663 2.835 . S
C662 C664 1.500 . S
C662 O682 1.257 . S
C662 O683 1.260 . S
Eu663 C662 2.835 . S
Eu663 O682 2.473 . S
Eu663 O683 2.480 . S
Eu663 O684 2.430 . S
Eu663 O685 2.670 . S
Eu663 O686 2.394 . S
Eu663 O691 2.355 . S
Eu663 O693 2.374 . S
C664 C662 1.500 . S
C664 C665 1.377 . S
C664 C669 1.377 . S
C665 C664 1.377 . S
C665 C666 1.395 . S
C665 H694 0.931 . S
C666 C665 1.395 . S
C666 C667 1.383 . S
C666 H695 0.931 . S
C667 C666 1.383 . S
C667 C668 1.394 . S
C668 C667 1.394 . S
C668 C669 1.378 . S
C668 H696 0.931 . S
C669 C664 1.377 . S
C669 C668 1.378 . S
C669 H697 0.931 . S
C670 O684 1.259 . S
C670 O685 1.270 . S
C671 O686 1.251 . S
C671 O687 1.251 . S
C672 Eu673 2.835 . S
C672 C674 1.500 . S
C672 O688 1.257 . S
C672 O689 1.260 . S
Eu673 C672 2.835 . S
Eu673 O685 2.355 . S
Eu673 O687 2.374 . S
Eu673 O688 2.473 . S
Eu673 O689 2.480 . S
Eu673 O690 2.430 . S
Eu673 O691 2.670 . S
Eu673 O692 2.394 . S
C674 C672 1.500 . S
C674 C675 1.377 . S
C674 C679 1.377 . S
C675 C674 1.377 . S
C675 C676 1.395 . S
C675 H698 0.931 . S
C676 C675 1.395 . S
C676 C677 1.383 . S
C676 H699 0.931 . S
C677 C676 1.383 . S
C677 C678 1.394 . S
C678 C677 1.394 . S
C678 C679 1.378 . S
C678 H700 0.931 . S
C679 C674 1.377 . S
C679 C678 1.378 . S
C679 H701 0.931 . S
C680 O690 1.259 . S
C680 O691 1.270 . S
C681 O692 1.251 . S
C681 O693 1.251 . S
O682 C662 1.257 . S
O682 Eu663 2.473 . S
O683 C662 1.260 . S
O683 Eu663 2.480 . S
O684 Eu663 2.430 . S
O684 C670 1.259 . S
O685 Eu663 2.670 . S
O685 C670 1.270 . S
O685 Eu673 2.355 . S
O686 Eu663 2.394 . S
O686 C671 1.251 . S
O687 C671 1.251 . S
O687 Eu673 2.374 . S
O688 C672 1.257 . S
O688 Eu673 2.473 . S
O689 C672 1.260 . S
O689 Eu673 2.480 . S
O690 Eu673 2.430 . S
O690 C680 1.259 . S
O691 Eu663 2.355 . S
O691 Eu673 2.670 . S
O691 C680 1.270 . S
O692 Eu673 2.394 . S
O692 C681 1.251 . S
O693 Eu663 2.374 . S
O693 C681 1.251 . S
H694 C665 0.931 . S
H695 C666 0.931 . S
H696 C668 0.931 . S
H697 C669 0.931 . S
H698 C675 0.931 . S
H699 C676 0.931 . S
H700 C678 0.931 . S
H701 C679 0.931 . S
C702 C703 1.369 . S
C702 C704 1.419 . S
C702 H706 0.930 . S
C703 C702 1.369 . S
C703 C712 1.429 . S
C704 C702 1.419 . S
C704 C705 1.363 . S
C704 H707 0.929 . S
C705 C704 1.363 . S
C705 C711 1.428 . S
H706 C702 0.930 . S
H707 C704 0.929 . S
S708 N709 1.613 . S
S708 N710 1.610 . S
N709 S708 1.613 . S
N709 C712 1.350 1_556 S
N710 S708 1.610 . S
N710 C711 1.351 1_556 S
C711 C705 1.428 . S
C711 N710 1.351 1_554 S
C711 C712 1.434 . S
C712 C703 1.429 . S
C712 N709 1.350 1_554 S
C712 C711 1.434 . S
C713 C714 1.369 . S
C713 C715 1.419 . S
C713 H717 0.930 . S
C714 C713 1.369 . S
C714 C723 1.429 . S
C715 C713 1.419 . S
C715 C716 1.363 . S
C715 H718 0.929 . S
C716 C715 1.363 . S
C716 C722 1.428 . S
H717 C713 0.930 . S
H718 C715 0.929 . S
S719 N720 1.613 1_556 S
S719 N721 1.610 . S
N720 S719 1.613 1_554 S
N720 C723 1.350 . S
N721 S719 1.610 . S
N721 C722 1.351 1_556 S
C722 C716 1.428 . S
C722 N721 1.351 1_554 S
C722 C723 1.434 . S
C723 C714 1.429 . S
C723 N720 1.350 . S
C723 C722 1.434 . S
C724 C725 1.369 . S
C724 C726 1.419 . S
C724 H728 0.948 . S
C725 C724 1.369 . S
C725 C734 1.429 . S
C726 C724 1.419 . S
C726 C727 1.363 . S
C726 H729 0.929 1_554 S
C727 C726 1.363 . S
C727 C733 1.428 . S
H728 C724 0.948 . S
H729 C726 0.929 1_556 S
S730 N731 1.613 . S
S730 N732 1.610 . S
N731 S730 1.613 . S
N731 C734 1.350 . S
N732 S730 1.610 . S
N732 C733 1.351 . S
C733 C727 1.428 . S
C733 N732 1.351 . S
C733 C734 1.434 . S
C734 C725 1.429 . S
C734 N731 1.350 . S
C734 C733 1.434 . S
C735 C736 1.369 1_554 S
C735 C737 1.419 . S
C735 H739 0.930 . S
C736 C735 1.369 1_556 S
C736 C745 1.429 . S
C737 C735 1.419 . S
C737 C738 1.363 1_554 S
C737 H740 0.929 . S
C738 C737 1.363 1_556 S
C738 C744 1.428 . S
H739 C735 0.930 . S
H740 C737 0.929 . S
S741 N742 1.613 . S
S741 N743 1.610 . S
N742 S741 1.613 . S
N742 C745 1.350 . S
N743 S741 1.610 . S
N743 C744 1.351 . S
C744 C738 1.428 . S
C744 N743 1.351 . S
C744 C745 1.434 . S
C745 C736 1.429 . S
C745 N742 1.350 . S
C745 C744 1.434 . S
C746 C747 1.369 . S
C746 C748 1.419 . S
C746 H750 0.930 . S
C747 C746 1.369 . S
C747 C756 1.429 . S
C748 C746 1.419 . S
C748 C749 1.363 . S
C748 H751 0.929 1_556 S
C749 C748 1.363 . S
C749 C755 1.428 . S
H750 C746 0.930 . S
H751 C748 0.929 1_554 S
S752 N753 1.613 . S
S752 N754 1.610 . S
N753 S752 1.613 . S
N753 C756 1.350 . S
N754 S752 1.610 . S
N754 C755 1.351 . S
C755 C749 1.428 . S
C755 N754 1.351 . S
C755 C756 1.434 . S
C756 C747 1.429 . S
C756 N753 1.350 . S
C756 C755 1.434 . S
C757 C758 1.369 . S
C757 C759 1.419 . S
C757 H761 0.930 . S
C758 C757 1.369 . S
C758 C767 1.429 1_556 S
C759 C757 1.419 . S
C759 C760 1.363 . S
C759 H762 0.929 . S
C760 C759 1.363 . S
C760 C766 1.428 1_556 S
H761 C757 0.930 . S
H762 C759 0.929 . S
S763 N764 1.613 . S
S763 N765 1.610 . S
N764 S763 1.613 . S
N764 C767 1.350 . S
N765 S763 1.610 . S
N765 C766 1.351 . S
C766 C760 1.428 1_554 S
C766 N765 1.351 . S
C766 C767 1.434 . S
C767 C758 1.429 1_554 S
C767 N764 1.350 . S
C767 C766 1.434 . S
C768 C769 1.369 . S
C768 C770 1.419 . S
C768 H772 0.930 1_556 S
C769 C768 1.369 . S
C769 C778 1.429 . S
C770 C768 1.419 . S
C770 C771 1.363 . S
C770 H773 0.929 1_556 S
C771 C770 1.363 . S
C771 C777 1.428 . S
H772 C768 0.930 1_554 S
H773 C770 0.929 1_554 S
S774 N775 1.613 . S
S774 N776 1.610 . S
N775 S774 1.613 . S
N775 C778 1.350 . S
N776 S774 1.610 . S
N776 C777 1.351 . S
C777 C771 1.428 . S
C777 N776 1.351 . S
C777 C778 1.434 . S
C778 C769 1.429 . S
C778 N775 1.350 . S
C778 C777 1.434 . S
C779 C780 1.369 . S
C779 C781 1.419 . S
C779 H783 0.930 . S
C780 C779 1.369 . S
C780 C789 1.429 . S
C781 C779 1.419 . S
C781 C782 1.363 . S
C781 H784 0.929 . S
C782 C781 1.363 . S
C782 C788 1.428 . S
H783 C779 0.930 . S
H784 C781 0.929 . S
S785 N786 1.613 . S
S785 N787 1.610 . S
N786 S785 1.613 . S
N786 C789 1.350 . S
N787 S785 1.610 . S
N787 C788 1.351 . S
C788 C782 1.428 . S
C788 N787 1.351 . S
C788 C789 1.434 . S
C789 C780 1.429 . S
C789 N786 1.350 . S
C789 C788 1.434 . S
C790 C791 1.369 . S
C790 C792 1.419 . S
C790 H794 0.930 . S
C791 C790 1.369 . S
C791 C800 1.429 1_554 S
C792 C790 1.419 . S
C792 C793 1.363 . S
C792 H795 0.929 . S
C793 C792 1.363 . S
C793 C799 1.428 1_554 S
H794 C790 0.930 . S
H795 C792 0.929 . S
S796 N797 1.613 . S
S796 N798 1.610 . S
N797 S796 1.613 . S
N797 C800 1.350 . S
N798 S796 1.610 . S
N798 C799 1.351 . S
C799 C793 1.428 1_556 S
C799 N798 1.351 . S
C799 C800 1.434 . S
C800 C791 1.429 1_556 S
C800 N797 1.350 . S
C800 C799 1.434 . S
C801 C802 1.369 1_556 S
C801 C803 1.419 . S
C801 H805 0.930 . S
C802 C801 1.369 1_554 S
C802 C811 1.429 . S
C803 C801 1.419 . S
C803 C804 1.363 1_556 S
C803 H806 0.929 . S
C804 C803 1.363 1_554 S
C804 C810 1.428 . S
H805 C801 0.930 . S
H806 C803 0.929 . S
S807 N808 1.613 . S
S807 N809 1.610 . S
N808 S807 1.613 . S
N808 C811 1.350 . S
N809 S807 1.610 . S
N809 C810 1.351 . S
C810 C804 1.428 . S
C810 N809 1.351 . S
C810 C811 1.434 . S
C811 C802 1.429 . S
C811 N808 1.350 . S
C811 C810 1.434 . S
C812 C813 1.369 . S
C812 C814 1.419 . S
C812 H816 0.930 . S
C813 C812 1.369 . S
C813 C822 1.429 . S
C814 C812 1.419 . S
C814 C815 1.363 . S
C814 H817 0.929 . S
C815 C814 1.363 . S
C815 C821 1.428 . S
H816 C812 0.930 . S
H817 C814 0.929 . S
S818 N819 1.613 . S
S818 N820 1.610 . S
N819 S818 1.613 . S
N819 C822 1.350 . S
N820 S818 1.610 . S
N820 C821 1.351 . S
C821 C815 1.428 . S
C821 N820 1.351 . S
C821 C822 1.434 . S
C822 C813 1.429 . S
C822 N819 1.350 . S
C822 C821 1.434 . S
C823 C824 1.369 1_556 S
C823 C825 1.419 . S
C823 H827 0.930 . S
C824 C823 1.369 1_554 S
C824 C833 1.429 . S
C825 C823 1.419 . S
C825 C826 1.363 1_556 S
C825 H828 0.929 . S
C826 C825 1.363 1_554 S
C826 C832 1.428 . S
H827 C823 0.930 . S
H828 C825 0.929 . S
S829 N830 1.613 . S
S829 N831 1.610 . S
N830 S829 1.613 . S
N830 C833 1.350 . S
N831 S829 1.610 . S
N831 C832 1.351 . S
C832 C826 1.428 . S
C832 N831 1.351 . S
C832 C833 1.434 . S
C833 C824 1.429 . S
C833 N830 1.350 . S
C833 C832 1.434 . S
C834 C835 1.369 . S
C834 C836 1.419 . S
C834 H838 0.930 . S
C835 C834 1.369 . S
C835 C844 1.429 . S
C836 C834 1.419 . S
C836 C837 1.363 1_655 S
C836 H839 0.929 1_655 S
C837 C836 1.363 1_455 S
C837 C843 1.428 . S
H838 C834 0.930 . S
H839 C836 0.929 1_455 S
S840 N841 1.613 . S
S840 N842 1.610 1_655 S
N841 S840 1.613 . S
N841 C844 1.350 . S
N842 S840 1.610 1_455 S
N842 C843 1.351 . S
C843 C837 1.428 . S
C843 N842 1.351 . S
C843 C844 1.434 1_455 S
C844 C835 1.429 . S
C844 N841 1.350 . S
C844 C843 1.434 1_655 S
C845 C846 1.369 . S
C845 C847 1.419 . S
C845 H849 0.930 . S
C846 C845 1.369 . S
C846 C855 1.429 . S
C847 C845 1.419 . S
C847 C848 1.363 . S
C847 H850 0.929 . S
C848 C847 1.363 . S
C848 C854 1.428 . S
H849 C845 0.930 . S
H850 C847 0.929 . S
S851 N852 1.613 . S
S851 N853 1.610 . S
N852 S851 1.613 . S
N852 C855 1.350 . S
N853 S851 1.610 . S
N853 C854 1.351 . S
C854 C848 1.428 . S
C854 N853 1.351 . S
C854 C855 1.434 . S
C855 C846 1.429 . S
C855 N852 1.350 . S
C855 C854 1.434 . S
C856 C857 1.369 . S
C856 C858 1.419 . S
C856 H860 0.930 . S
C857 C856 1.369 . S
C857 C866 1.429 . S
C858 C856 1.419 . S
C858 C859 1.363 1_545 S
C858 H861 0.929 . S
C859 C858 1.363 1_565 S
C859 C865 1.428 1_565 S
H860 C856 0.930 . S
H861 C858 0.929 . S
S862 N863 1.613 . S
S862 N864 1.610 1_545 S
N863 S862 1.613 . S
N863 C866 1.350 . S
N864 S862 1.610 1_565 S
N864 C865 1.351 1_565 S
C865 C859 1.428 1_545 S
C865 N864 1.351 1_545 S
C865 C866 1.434 . S
C866 C857 1.429 . S
C866 N863 1.350 . S
C866 C865 1.434 . S
C867 C868 1.369 . S
C867 C869 1.419 . S
C867 H871 0.930 . S
C868 C867 1.369 . S
C868 C877 1.429 . S
C869 C867 1.419 . S
C869 C870 1.363 . S
C869 H872 0.929 . S
C870 C869 1.363 . S
C870 C876 1.428 . S
H871 C867 0.930 . S
H872 C869 0.929 . S
S873 N874 1.613 . S
S873 N875 1.610 . S
N874 S873 1.613 . S
N874 C877 1.350 . S
N875 S873 1.610 . S
N875 C876 1.351 . S
C876 C870 1.428 . S
C876 N875 1.351 . S
C876 C877 1.434 . S
C877 C868 1.429 . S
C877 N874 1.350 . S
C877 C876 1.434 . S
C878 C879 1.369 . S
C878 C880 1.419 . S
C878 H882 0.930 . S
C879 C878 1.369 . S
C879 C888 1.429 . S
C880 C878 1.419 . S
C880 C881 1.363 . S
C880 H883 0.929 . S
C881 C880 1.363 . S
C881 C887 1.428 . S
H882 C878 0.930 . S
H883 C880 0.929 . S
S884 N885 1.613 . S
S884 N886 1.610 . S
N885 S884 1.613 . S
N885 C888 1.350 . S
N886 S884 1.610 . S
N886 C887 1.351 . S
C887 C881 1.428 . S
C887 N886 1.351 . S
C887 C888 1.434 . S
C888 C879 1.429 . S
C888 N885 1.350 . S
C888 C887 1.434 . S
C889 C890 1.369 . S
C889 C891 1.419 . S
C889 H893 0.930 . S
C890 C889 1.369 . S
C890 C899 1.429 . S
C891 C889 1.419 . S
C891 C892 1.363 . S
C891 H894 0.929 . S
C892 C891 1.363 . S
C892 C898 1.428 . S
H893 C889 0.930 . S
H894 C891 0.929 . S
S895 N896 1.613 . S
S895 N897 1.610 . S
N896 S895 1.613 . S
N896 C899 1.350 . S
N897 S895 1.610 . S
N897 C898 1.351 . S
C898 C892 1.428 . S
C898 N897 1.351 . S
C898 C899 1.434 . S
C899 C890 1.429 . S
C899 N896 1.350 . S
C899 C898 1.434 . S
C900 C901 1.369 . S
C900 C902 1.419 . S
C900 H904 0.930 . S
C901 C900 1.369 . S
C901 C910 1.429 . S
C902 C900 1.419 . S
C902 C903 1.363 . S
C902 H905 0.929 . S
C903 C902 1.363 . S
C903 C909 1.428 . S
H904 C900 0.930 . S
H905 C902 0.929 . S
S906 N907 1.613 . S
S906 N908 1.610 . S
N907 S906 1.613 . S
N907 C910 1.350 . S
N908 S906 1.610 . S
N908 C909 1.351 . S
C909 C903 1.428 . S
C909 N908 1.351 . S
C909 C910 1.434 . S
C910 C901 1.429 . S
C910 N907 1.350 . S
C910 C909 1.434 . S
C911 C912 1.369 . S
C911 C913 1.419 . S
C911 H915 0.930 . S
C912 C911 1.369 . S
C912 C921 1.429 . S
C913 C911 1.419 . S
C913 C914 1.363 . S
C913 H916 0.929 . S
C914 C913 1.363 . S
C914 C920 1.428 . S
H915 C911 0.930 . S
H916 C913 0.929 . S
S917 N918 1.613 . S
S917 N919 1.610 . S
N918 S917 1.613 . S
N918 C921 1.350 . S
N919 S917 1.610 . S
N919 C920 1.351 . S
C920 C914 1.428 . S
C920 N919 1.351 . S
C920 C921 1.434 . S
C921 C912 1.429 . S
C921 N918 1.350 . S
C921 C920 1.434 . S
C922 C923 1.369 . S
C922 C924 1.419 . S
C922 H926 0.930 . S
C923 C922 1.369 . S
C923 C932 1.429 . S
C924 C922 1.419 . S
C924 C925 1.363 . S
C924 H927 0.929 . S
C925 C924 1.363 . S
C925 C931 1.428 . S
H926 C922 0.930 . S
H927 C924 0.929 . S
S928 N929 1.613 . S
S928 N930 1.610 . S
N929 S928 1.613 . S
N929 C932 1.350 . S
N930 S928 1.610 . S
N930 C931 1.351 . S
C931 C925 1.428 . S
C931 N930 1.351 . S
C931 C932 1.434 . S
C932 C923 1.429 . S
C932 N929 1.350 . S
C932 C931 1.434 . S
C933 C934 1.369 . S
C933 C935 1.419 . S
C933 H937 0.930 . S
C934 C933 1.369 . S
C934 C943 1.429 . S
C935 C933 1.419 . S
C935 C936 1.363 . S
C935 H938 0.929 . S
C936 C935 1.363 . S
C936 C942 1.428 . S
H937 C933 0.930 . S
H938 C935 0.929 . S
S939 N940 1.613 . S
S939 N941 1.610 . S
N940 S939 1.613 . S
N940 C943 1.350 . S
N941 S939 1.610 . S
N941 C942 1.351 . S
C942 C936 1.428 . S
C942 N941 1.351 . S
C942 C943 1.434 . S
C943 C934 1.429 . S
C943 N940 1.350 . S
C943 C942 1.434 . S
C944 C945 1.369 . S
C944 C946 1.419 . S
C944 H948 0.930 . S
C945 C944 1.369 . S
C945 C954 1.429 . S
C946 C944 1.419 . S
C946 C947 1.363 . S
C946 H949 0.929 . S
C947 C946 1.363 . S
C947 C953 1.428 . S
H948 C944 0.930 . S
H949 C946 0.929 . S
S950 N951 1.613 . S
S950 N952 1.610 . S
N951 S950 1.613 . S
N951 C954 1.350 . S
N952 S950 1.610 . S
N952 C953 1.351 . S
C953 C947 1.428 . S
C953 N952 1.351 . S
C953 C954 1.434 . S
C954 C945 1.429 . S
C954 N951 1.350 . S
C954 C953 1.434 . S
C955 C956 1.369 . S
C955 C957 1.419 . S
C955 H959 0.930 . S
C956 C955 1.369 . S
C956 C965 1.429 . S
C957 C955 1.419 . S
C957 C958 1.363 . S
C957 H960 0.929 . S
C958 C957 1.363 . S
C958 C964 1.428 . S
H959 C955 0.930 . S
H960 C957 0.929 . S
S961 N962 1.613 . S
S961 N963 1.610 . S
N962 S961 1.613 . S
N962 C965 1.350 . S
N963 S961 1.610 . S
N963 C964 1.351 . S
C964 C958 1.428 . S
C964 N963 1.351 . S
C964 C965 1.434 . S
C965 C956 1.429 . S
C965 N962 1.350 . S
C965 C964 1.434 . S
C966 C967 1.369 . S
C966 C968 1.419 . S
C966 H970 0.930 . S
C967 C966 1.369 . S
C967 C976 1.429 . S
C968 C966 1.419 . S
C968 C969 1.363 . S
C968 H971 0.929 . S
C969 C968 1.363 . S
C969 C975 1.428 . S
H970 C966 0.930 . S
H971 C968 0.929 . S
S972 N973 1.613 . S
S972 N974 1.610 . S
N973 S972 1.613 . S
N973 C976 1.350 . S
N974 S972 1.610 . S
N974 C975 1.351 . S
C975 C969 1.428 . S
C975 N974 1.351 . S
C975 C976 1.434 . S
C976 C967 1.429 . S
C976 N973 1.350 . S
C976 C975 1.434 . S
C977 C978 1.369 . S
C977 C979 1.419 . S
C977 H981 0.930 . S
C978 C977 1.369 . S
C978 C987 1.429 . S
C979 C977 1.419 . S
C979 C980 1.363 . S
C979 H982 0.929 . S
C980 C979 1.363 . S
C980 C986 1.428 . S
H981 C977 0.930 . S
H982 C979 0.929 . S
S983 N984 1.613 . S
S983 N985 1.610 . S
N984 S983 1.613 . S
N984 C987 1.350 . S
N985 S983 1.610 . S
N985 C986 1.351 . S
C986 C980 1.428 . S
C986 N985 1.351 . S
C986 C987 1.434 . S
C987 C978 1.429 . S
C987 N984 1.350 . S
C987 C986 1.434 . S
C988 C989 1.369 . S
C988 C990 1.419 . S
C988 H992 0.930 . S
C989 C988 1.369 . S
C989 C998 1.429 . S
C990 C988 1.419 . S
C990 C991 1.363 . S
C990 H993 0.929 . S
C991 C990 1.363 . S
C991 C997 1.428 . S
H992 C988 0.930 . S
H993 C990 0.929 . S
S994 N995 1.613 . S
S994 N996 1.610 . S
N995 S994 1.613 . S
N995 C998 1.350 . S
N996 S994 1.610 . S
N996 C997 1.351 . S
C997 C991 1.428 . S
C997 N996 1.351 . S
C997 C998 1.434 . S
C998 C989 1.429 . S
C998 N995 1.350 . S
C998 C997 1.434 . S
C999 C1000 1.369 . S
C999 C1001 1.419 1_565 S
C999 H1003 0.930 . S
C1000 C999 1.369 . S
C1000 C1009 1.429 . S
C1001 C999 1.419 1_545 S
C1001 C1002 1.363 . S
C1001 H1004 0.929 . S
C1002 C1001 1.363 . S
C1002 C1008 1.428 1_545 S
H1003 C999 0.930 . S
H1004 C1001 0.929 . S
S1005 N1006 1.613 . S
S1005 N1007 1.610 . S
N1006 S1005 1.613 . S
N1006 C1009 1.350 . S
N1007 S1005 1.610 . S
N1007 C1008 1.351 . S
C1008 C1002 1.428 1_565 S
C1008 N1007 1.351 . S
C1008 C1009 1.434 . S
C1009 C1000 1.429 . S
C1009 N1006 1.350 . S
C1009 C1008 1.434 . S
C1010 C1011 1.369 . S
C1010 C1012 1.446 . S
C1010 H1014 0.930 . S
C1011 C1010 1.369 . S
C1011 C1020 1.429 . S
C1012 C1010 1.446 . S
C1012 C1013 1.339 1_455 S
C1012 H1015 0.926 1_455 S
C1013 C1012 1.339 1_655 S
C1013 C1019 1.428 . S
H1014 C1010 0.930 . S
H1015 C1012 0.926 1_655 S
S1016 N1017 1.613 1_655 S
S1016 N1018 1.610 . S
N1017 S1016 1.613 1_455 S
N1017 C1020 1.350 . S
N1018 S1016 1.610 . S
N1018 C1019 1.351 . S
C1019 C1013 1.428 . S
C1019 N1018 1.351 . S
C1019 C1020 1.434 1_655 S
C1020 C1011 1.429 . S
C1020 N1017 1.350 . S
C1020 C1019 1.434 1_455 S
C1021 C1022 1.369 . S
C1021 C1023 1.419 . S
C1021 H1025 0.930 . S
C1022 C1021 1.369 . S
C1022 C1031 1.429 . S
C1023 C1021 1.419 . S
C1023 C1024 1.363 . S
C1023 H1026 0.929 . S
C1024 C1023 1.363 . S
C1024 C1030 1.428 . S
H1025 C1021 0.930 . S
H1026 C1023 0.929 . S
S1027 N1028 1.613 . S
S1027 N1029 1.610 . S
N1028 S1027 1.613 . S
N1028 C1031 1.350 . S
N1029 S1027 1.610 . S
N1029 C1030 1.351 . S
C1030 C1024 1.428 . S
C1030 N1029 1.351 . S
C1030 C1031 1.434 . S
C1031 C1022 1.429 . S
C1031 N1028 1.350 . S
C1031 C1030 1.434 . S
C1032 C1033 1.369 . S
C1032 C1034 1.419 . S
C1032 H1036 0.930 . S
C1033 C1032 1.369 . S
C1033 C1042 1.429 . S
C1034 C1032 1.419 . S
C1034 C1035 1.363 . S
C1034 H1037 0.929 . S
C1035 C1034 1.363 . S
C1035 C1041 1.428 . S
H1036 C1032 0.930 . S
H1037 C1034 0.929 . S
S1038 N1039 1.613 . S
S1038 N1040 1.610 . S
N1039 S1038 1.613 . S
N1039 C1042 1.350 . S
N1040 S1038 1.610 . S
N1040 C1041 1.351 . S
C1041 C1035 1.428 . S
C1041 N1040 1.351 . S
C1041 C1042 1.434 . S
C1042 C1033 1.429 . S
C1042 N1039 1.350 . S
C1042 C1041 1.434 . S
C1043 C1044 1.369 . S
C1043 C1045 1.419 . S
C1043 H1047 0.930 . S
C1044 C1043 1.369 . S
C1044 C1053 1.429 . S
C1045 C1043 1.419 . S
C1045 C1046 1.363 . S
C1045 H1048 0.929 . S
C1046 C1045 1.363 . S
C1046 C1052 1.428 . S
H1047 C1043 0.930 . S
H1048 C1045 0.929 . S
S1049 N1050 1.613 . S
S1049 N1051 1.610 . S
N1050 S1049 1.613 . S
N1050 C1053 1.350 . S
N1051 S1049 1.610 . S
N1051 C1052 1.351 . S
C1052 C1046 1.428 . S
C1052 N1051 1.351 . S
C1052 C1053 1.434 . S
C1053 C1044 1.429 . S
C1053 N1050 1.350 . S
C1053 C1052 1.434 . S
C1054 C1055 1.369 . S
C1054 C1056 1.419 . S
C1054 H1058 0.930 . S
C1055 C1054 1.369 . S
C1055 C1064 1.429 . S
C1056 C1054 1.419 . S
C1056 C1057 1.363 . S
C1056 H1059 0.929 . S
C1057 C1056 1.363 . S
C1057 C1063 1.428 . S
H1058 C1054 0.930 . S
H1059 C1056 0.929 . S
S1060 N1061 1.613 . S
S1060 N1062 1.610 . S
N1061 S1060 1.613 . S
N1061 C1064 1.350 . S
N1062 S1060 1.610 . S
N1062 C1063 1.351 . S
C1063 C1057 1.428 . S
C1063 N1062 1.351 . S
C1063 C1064 1.434 . S
C1064 C1055 1.429 . S
C1064 N1061 1.350 . S
C1064 C1063 1.434 . S
C1065 C1066 1.369 . S
C1065 C1067 1.419 . S
C1065 H1069 0.930 . S
C1066 C1065 1.369 . S
C1066 C1075 1.429 . S
C1067 C1065 1.419 . S
C1067 C1068 1.363 . S
C1067 H1070 0.929 . S
C1068 C1067 1.363 . S
C1068 C1074 1.428 . S
H1069 C1065 0.930 . S
H1070 C1067 0.929 . S
S1071 N1072 1.613 . S
S1071 N1073 1.610 . S
N1072 S1071 1.613 . S
N1072 C1075 1.350 . S
N1073 S1071 1.610 . S
N1073 C1074 1.351 . S
C1074 C1068 1.428 . S
C1074 N1073 1.351 . S
C1074 C1075 1.434 . S
C1075 C1066 1.429 . S
C1075 N1072 1.350 . S
C1075 C1074 1.434 . S
C1076 C1077 1.369 . S
C1076 C1078 1.419 . S
C1076 H1080 0.930 . S
C1077 C1076 1.369 . S
C1077 C1086 1.429 . S
C1078 C1076 1.419 . S
C1078 C1079 1.363 . S
C1078 H1081 0.929 . S
C1079 C1078 1.363 . S
C1079 C1085 1.428 . S
H1080 C1076 0.930 . S
H1081 C1078 0.929 . S
S1082 N1083 1.613 . S
S1082 N1084 1.610 . S
N1083 S1082 1.613 . S
N1083 C1086 1.350 . S
N1084 S1082 1.610 . S
N1084 C1085 1.351 . S
C1085 C1079 1.428 . S
C1085 N1084 1.351 . S
C1085 C1086 1.434 . S
C1086 C1077 1.429 . S
C1086 N1083 1.350 . S
C1086 C1085 1.434 . S
C1087 C1088 1.369 . S
C1087 C1089 1.419 . S
C1087 H1091 0.930 . S
C1088 C1087 1.369 . S
C1088 C1097 1.429 . S
C1089 C1087 1.419 . S
C1089 C1090 1.363 . S
C1089 H1092 0.929 . S
C1090 C1089 1.363 . S
C1090 C1096 1.428 . S
H1091 C1087 0.930 . S
H1092 C1089 0.929 . S
S1093 N1094 1.613 . S
S1093 N1095 1.610 . S
N1094 S1093 1.613 . S
N1094 C1097 1.350 . S
N1095 S1093 1.610 . S
N1095 C1096 1.351 . S
C1096 C1090 1.428 . S
C1096 N1095 1.351 . S
C1096 C1097 1.434 . S
C1097 C1088 1.429 . S
C1097 N1094 1.350 . S
C1097 C1096 1.434 . S
C1098 C1099 1.369 . S
C1098 C1100 1.419 . S
C1098 H1102 0.930 . S
C1099 C1098 1.369 . S
C1099 C1108 1.429 . S
C1100 C1098 1.419 . S
C1100 C1101 1.363 . S
C1100 H1103 0.929 . S
C1101 C1100 1.363 . S
C1101 C1107 1.428 . S
H1102 C1098 0.930 . S
H1103 C1100 0.929 . S
S1104 N1105 1.613 . S
S1104 N1106 1.610 . S
N1105 S1104 1.613 . S
N1105 C1108 1.350 . S
N1106 S1104 1.610 . S
N1106 C1107 1.351 . S
C1107 C1101 1.428 . S
C1107 N1106 1.351 . S
C1107 C1108 1.434 . S
C1108 C1099 1.429 . S
C1108 N1105 1.350 . S
C1108 C1107 1.434 . S
C1109 C1110 1.369 . S
C1109 C1111 1.419 . S
C1109 H1113 0.930 . S
C1110 C1109 1.369 . S
C1110 C1119 1.429 . S
C1111 C1109 1.419 . S
C1111 C1112 1.363 . S
C1111 H1114 0.929 . S
C1112 C1111 1.363 . S
C1112 C1118 1.428 . S
H1113 C1109 0.930 . S
H1114 C1111 0.929 . S
S1115 N1116 1.613 . S
S1115 N1117 1.610 . S
N1116 S1115 1.613 . S
N1116 C1119 1.350 . S
N1117 S1115 1.610 . S
N1117 C1118 1.351 . S
C1118 C1112 1.428 . S
C1118 N1117 1.351 . S
C1118 C1119 1.434 . S
C1119 C1110 1.429 . S
C1119 N1116 1.350 . S
C1119 C1118 1.434 . S
C1120 C1121 1.369 . S
C1120 C1122 1.419 . S
C1120 H1124 0.930 . S
C1121 C1120 1.369 . S
C1121 C1130 1.429 . S
C1122 C1120 1.419 . S
C1122 C1123 1.363 . S
C1122 H1125 0.929 . S
C1123 C1122 1.363 . S
C1123 C1129 1.428 . S
H1124 C1120 0.930 . S
H1125 C1122 0.929 . S
S1126 N1127 1.613 . S
S1126 N1128 1.610 . S
N1127 S1126 1.613 . S
N1127 C1130 1.350 . S
N1128 S1126 1.610 . S
N1128 C1129 1.351 . S
C1129 C1123 1.428 . S
C1129 N1128 1.351 . S
C1129 C1130 1.434 . S
C1130 C1121 1.429 . S
C1130 N1127 1.350 . S
C1130 C1129 1.434 . S
C1131 C1132 1.369 . S
C1131 C1133 1.419 . S
C1131 H1135 0.930 . S
C1132 C1131 1.369 . S
C1132 C1141 1.429 . S
C1133 C1131 1.419 . S
C1133 C1134 1.363 . S
C1133 H1136 0.929 . S
C1134 C1133 1.363 . S
C1134 C1140 1.428 . S
H1135 C1131 0.930 . S
H1136 C1133 0.929 . S
S1137 N1138 1.613 . S
S1137 N1139 1.610 . S
N1138 S1137 1.613 . S
N1138 C1141 1.350 . S
N1139 S1137 1.610 . S
N1139 C1140 1.351 . S
C1140 C1134 1.428 . S
C1140 N1139 1.351 . S
C1140 C1141 1.434 . S
C1141 C1132 1.429 . S
C1141 N1138 1.350 . S
C1141 C1140 1.434 . S
C1142 C1143 1.369 . S
C1142 C1144 1.419 . S
C1142 H1146 0.930 . S
C1143 C1142 1.369 . S
C1143 C1152 1.429 . S
C1144 C1142 1.419 . S
C1144 C1145 1.363 . S
C1144 H1147 0.929 . S
C1145 C1144 1.363 . S
C1145 C1151 1.428 . S
H1146 C1142 0.930 . S
H1147 C1144 0.929 . S
S1148 N1149 1.613 . S
S1148 N1150 1.610 . S
N1149 S1148 1.613 . S
N1149 C1152 1.350 . S
N1150 S1148 1.610 . S
N1150 C1151 1.351 . S
C1151 C1145 1.428 . S
C1151 N1150 1.351 . S
C1151 C1152 1.434 . S
C1152 C1143 1.429 . S
C1152 N1149 1.350 . S
C1152 C1151 1.434 . S
C1153 C1154 1.369 . S
C1153 C1155 1.419 . S
C1153 H1157 0.930 . S
C1154 C1153 1.369 . S
C1154 C1163 1.429 . S
C1155 C1153 1.419 . S
C1155 C1156 1.363 . S
C1155 H1158 0.929 . S
C1156 C1155 1.363 . S
C1156 C1162 1.428 . S
H1157 C1153 0.930 . S
H1158 C1155 0.929 . S
S1159 N1160 1.613 . S
S1159 N1161 1.610 . S
N1160 S1159 1.613 . S
N1160 C1163 1.350 . S
N1161 S1159 1.610 . S
N1161 C1162 1.351 . S
C1162 C1156 1.428 . S
C1162 N1161 1.351 . S
C1162 C1163 1.434 . S
C1163 C1154 1.429 . S
C1163 N1160 1.350 . S
C1163 C1162 1.434 . S
C1164 C1165 1.369 . S
C1164 C1166 1.419 . S
C1164 H1168 0.930 . S
C1165 C1164 1.369 . S
C1165 C1174 1.429 . S
C1166 C1164 1.419 . S
C1166 C1167 1.363 . S
C1166 H1169 0.929 . S
C1167 C1166 1.363 . S
C1167 C1173 1.428 . S
H1168 C1164 0.930 . S
H1169 C1166 0.929 . S
S1170 N1171 1.613 . S
S1170 N1172 1.610 . S
N1171 S1170 1.613 . S
N1171 C1174 1.350 . S
N1172 S1170 1.610 . S
N1172 C1173 1.351 . S
C1173 C1167 1.428 . S
C1173 N1172 1.351 . S
C1173 C1174 1.434 . S
C1174 C1165 1.429 . S
C1174 N1171 1.350 . S
C1174 C1173 1.434 . S
C1175 C1176 1.369 . S
C1175 C1177 1.419 . S
C1175 H1179 0.930 . S
C1176 C1175 1.369 . S
C1176 C1185 1.429 . S
C1177 C1175 1.419 . S
C1177 C1178 1.363 . S
C1177 H1180 0.929 . S
C1178 C1177 1.363 . S
C1178 C1184 1.428 . S
H1179 C1175 0.930 . S
H1180 C1177 0.929 . S
S1181 N1182 1.613 . S
S1181 N1183 1.610 . S
N1182 S1181 1.613 . S
N1182 C1185 1.350 . S
N1183 S1181 1.610 . S
N1183 C1184 1.351 . S
C1184 C1178 1.428 . S
C1184 N1183 1.351 . S
C1184 C1185 1.434 . S
C1185 C1176 1.429 . S
C1185 N1182 1.350 . S
C1185 C1184 1.434 . S
C1186 C1187 1.369 . S
C1186 C1188 1.419 . S
C1186 H1190 0.930 . S
C1187 C1186 1.369 . S
C1187 C1196 1.429 . S
C1188 C1186 1.419 . S
C1188 C1189 1.363 . S
C1188 H1191 0.929 . S
C1189 C1188 1.363 . S
C1189 C1195 1.428 . S
H1190 C1186 0.930 . S
H1191 C1188 0.929 . S
S1192 N1193 1.613 . S
S1192 N1194 1.610 . S
N1193 S1192 1.613 . S
N1193 C1196 1.350 . S
N1194 S1192 1.610 . S
N1194 C1195 1.351 . S
C1195 C1189 1.428 . S
C1195 N1194 1.351 . S
C1195 C1196 1.434 . S
C1196 C1187 1.429 . S
C1196 N1193 1.350 . S
C1196 C1195 1.434 . S
C1197 C1198 1.369 . S
C1197 C1199 1.419 . S
C1197 H1201 0.930 . S
C1198 C1197 1.369 . S
C1198 C1207 1.429 . S
C1199 C1197 1.419 . S
C1199 C1200 1.363 . S
C1199 H1202 0.929 . S
C1200 C1199 1.363 . S
C1200 C1206 1.428 . S
H1201 C1197 0.930 . S
H1202 C1199 0.929 . S
S1203 N1204 1.613 . S
S1203 N1205 1.610 . S
N1204 S1203 1.613 . S
N1204 C1207 1.350 . S
N1205 S1203 1.610 . S
N1205 C1206 1.351 . S
C1206 C1200 1.428 . S
C1206 N1205 1.351 . S
C1206 C1207 1.434 . S
C1207 C1198 1.429 . S
C1207 N1204 1.350 . S
C1207 C1206 1.434 . S
C1208 C1209 1.369 . S
C1208 C1210 1.419 . S
C1208 H1212 0.930 . S
C1209 C1208 1.369 . S
C1209 C1218 1.429 . S
C1210 C1208 1.419 . S
C1210 C1211 1.363 . S
C1210 H1213 0.929 . S
C1211 C1210 1.363 . S
C1211 C1217 1.428 . S
H1212 C1208 0.930 . S
H1213 C1210 0.929 . S
S1214 N1215 1.613 . S
S1214 N1216 1.610 . S
N1215 S1214 1.613 . S
N1215 C1218 1.350 . S
N1216 S1214 1.610 . S
N1216 C1217 1.351 . S
C1217 C1211 1.428 . S
C1217 N1216 1.351 . S
C1217 C1218 1.434 . S
C1218 C1209 1.429 . S
C1218 N1215 1.350 . S
C1218 C1217 1.434 . S
C1219 C1220 1.369 . S
C1219 C1221 1.419 . S
C1219 H1223 0.930 . S
C1220 C1219 1.369 . S
C1220 C1229 1.429 . S
C1221 C1219 1.419 . S
C1221 C1222 1.363 . S
C1221 H1224 0.929 . S
C1222 C1221 1.363 . S
C1222 C1228 1.428 . S
H1223 C1219 0.930 . S
H1224 C1221 0.929 . S
S1225 N1226 1.613 . S
S1225 N1227 1.610 . S
N1226 S1225 1.613 . S
N1226 C1229 1.350 . S
N1227 S1225 1.610 . S
N1227 C1228 1.351 . S
C1228 C1222 1.428 . S
C1228 N1227 1.351 . S
C1228 C1229 1.434 . S
C1229 C1220 1.429 . S
C1229 N1226 1.350 . S
C1229 C1228 1.434 . S
C1230 C1231 1.369 . S
C1230 C1232 1.419 . S
C1230 H1234 0.930 . S
C1231 C1230 1.369 . S
C1231 C1240 1.429 . S
C1232 C1230 1.419 . S
C1232 C1233 1.363 . S
C1232 H1235 0.929 . S
C1233 C1232 1.363 . S
C1233 C1239 1.428 . S
H1234 C1230 0.930 . S
H1235 C1232 0.929 . S
S1236 N1237 1.613 . S
S1236 N1238 1.610 . S
N1237 S1236 1.613 . S
N1237 C1240 1.350 . S
N1238 S1236 1.610 . S
N1238 C1239 1.351 . S
C1239 C1233 1.428 . S
C1239 N1238 1.351 . S
C1239 C1240 1.434 . S
C1240 C1231 1.429 . S
C1240 N1237 1.350 . S
C1240 C1239 1.434 . S
C1241 C1242 1.369 . S
C1241 C1243 1.419 . S
C1241 H1245 0.930 . S
C1242 C1241 1.369 . S
C1242 C1251 1.429 . S
C1243 C1241 1.419 . S
C1243 C1244 1.363 . S
C1243 H1246 0.929 . S
C1244 C1243 1.363 . S
C1244 C1250 1.428 . S
H1245 C1241 0.930 . S
H1246 C1243 0.929 . S
S1247 N1248 1.613 . S
S1247 N1249 1.610 . S
N1248 S1247 1.613 . S
N1248 C1251 1.350 . S
N1249 S1247 1.610 . S
N1249 C1250 1.351 . S
C1250 C1244 1.428 . S
C1250 N1249 1.351 . S
C1250 C1251 1.434 . S
C1251 C1242 1.429 . S
C1251 N1248 1.350 . S
C1251 C1250 1.434 . S
C1252 C1253 1.369 . S
C1252 C1254 1.419 . S
C1252 H1256 0.930 . S
C1253 C1252 1.369 . S
C1253 C1262 1.429 . S
C1254 C1252 1.419 . S
C1254 C1255 1.363 . S
C1254 H1257 0.929 . S
C1255 C1254 1.363 . S
C1255 C1261 1.428 . S
H1256 C1252 0.930 . S
H1257 C1254 0.929 . S
S1258 N1259 1.613 . S
S1258 N1260 1.610 . S
N1259 S1258 1.613 . S
N1259 C1262 1.350 . S
N1260 S1258 1.610 . S
N1260 C1261 1.351 . S
C1261 C1255 1.428 . S
C1261 N1260 1.351 . S
C1261 C1262 1.434 . S
C1262 C1253 1.429 . S
C1262 N1259 1.350 . S
C1262 C1261 1.434 . S
C1263 C1264 1.369 . S
C1263 C1265 1.419 . S
C1263 H1267 0.930 . S
C1264 C1263 1.369 . S
C1264 C1273 1.429 . S
C1265 C1263 1.419 . S
C1265 C1266 1.363 . S
C1265 H1268 0.929 . S
C1266 C1265 1.363 . S
C1266 C1272 1.428 . S
H1267 C1263 0.930 . S
H1268 C1265 0.929 . S
S1269 N1270 1.613 . S
S1269 N1271 1.610 . S
N1270 S1269 1.613 . S
N1270 C1273 1.350 . S
N1271 S1269 1.610 . S
N1271 C1272 1.351 . S
C1272 C1266 1.428 . S
C1272 N1271 1.351 . S
C1272 C1273 1.434 . S
C1273 C1264 1.429 . S
C1273 N1270 1.350 . S
C1273 C1272 1.434 . S
C1274 C1275 1.369 . S
C1274 C1276 1.419 . S
C1274 H1278 0.930 . S
C1275 C1274 1.369 . S
C1275 C1284 1.429 . S
C1276 C1274 1.419 . S
C1276 C1277 1.363 . S
C1276 H1279 0.929 . S
C1277 C1276 1.363 . S
C1277 C1283 1.428 . S
H1278 C1274 0.930 . S
H1279 C1276 0.929 . S
S1280 N1281 1.613 . S
S1280 N1282 1.610 . S
N1281 S1280 1.613 . S
N1281 C1284 1.350 . S
N1282 S1280 1.610 . S
N1282 C1283 1.351 . S
C1283 C1277 1.428 . S
C1283 N1282 1.351 . S
C1283 C1284 1.434 . S
C1284 C1275 1.429 . S
C1284 N1281 1.350 . S
C1284 C1283 1.434 . S
C1285 C1286 1.369 . S
C1285 C1287 1.419 . S
C1285 H1289 0.930 . S
C1286 C1285 1.369 . S
C1286 C1295 1.429 . S
C1287 C1285 1.419 . S
C1287 C1288 1.363 . S
C1287 H1290 0.929 . S
C1288 C1287 1.363 . S
C1288 C1294 1.428 . S
H1289 C1285 0.930 . S
H1290 C1287 0.929 . S
S1291 N1292 1.613 . S
S1291 N1293 1.610 . S
N1292 S1291 1.613 . S
N1292 C1295 1.350 . S
N1293 S1291 1.610 . S
N1293 C1294 1.351 . S
C1294 C1288 1.428 . S
C1294 N1293 1.351 . S
C1294 C1295 1.434 . S
C1295 C1286 1.429 . S
C1295 N1292 1.350 . S
C1295 C1294 1.434 . S
C703 C253 1.696 . S
C705 C351 1.705 . S
C714 C272 1.788 . S
C716 C391 1.786 . S
C725 C234 1.598 . S
C727 C430 1.562 . S
C736 C215 1.498 . S
C738 C390 1.448 . S
C749 C431 1.582 . S
C747 C177 1.581 . S
C758 C196 1.439 . S
C760 C350 1.410 1_556 S
C771 C361 1.640 . S
C769 C220 1.514 . S
C782 C401 1.596 . S
C780 C182 1.521 . S
C791 C201 1.606 . S
C793 C440 1.717 . S
C802 C258 1.450 . S
C804 C400 1.556 . S
C813 C277 1.340 . S
C815 C441 1.447 . S
C826 C360 1.583 1_554 S
C824 C239 1.415 . S
C837 C471 1.705 . S
C835 C25 1.696 . S
C846 C44 1.787 . S
C848 C511 1.787 . S
C857 C6 1.599 . S
C859 C550 1.564 . S
C868 C329 1.502 . S
C870 C510 1.439 . S
C879 C291 1.582 . S
C881 C551 1.582 . S
C890 C310 1.433 . S
C892 C470 1.412 . S
C901 C334 1.516 . S
C903 C481 1.639 . S
C912 C296 1.532 . S
C914 C521 1.593 . S
C925 C560 1.713 . S
C923 C315 1.603 . S
C934 C30 1.446 1_565 S
C936 C520 1.551 . S
C947 C561 1.451 . S
C945 C49 1.333 . S
C956 C11 1.414 . S
C958 C480 1.578 . S
C969 C591 1.706 . S
C967 C139 1.695 . S
C978 C158 1.788 . S
C980 C631 1.786 . S
C991 C670 1.564 . S
C989 C120 1.600 . S
C1002 C630 1.444 . S
C1000 C101 1.502 . S
C1013 C671 1.582 . S
C1011 C63 1.581 . S
C1022 C82 1.439 . S
C1024 C590 1.408 . S
C1033 C106 1.515 1_655 S
C1035 C601 1.640 . S
C1044 C68 1.521 . S
C1046 C641 1.596 . S
C1057 C680 1.712 . S
C1055 C87 1.604 1_545 S
C1066 C144 1.457 . S
C1068 C640 1.550 . S
C1077 C163 1.332 . S
C1079 C681 1.452 . S
C1088 C125 1.428 . S
C1090 C600 1.580 . S
C1099 C287 1.679 . S
C1101 C347 1.678 . S
C1112 C387 2.032 . S
C1110 C306 2.024 . S
C1121 C325 1.627 . S
C1123 C437 1.657 . S
C1132 C116 1.787 . S
C1134 C397 1.820 . S
C1143 C135 1.787 . S
C1145 C427 1.798 . S
C1156 C357 1.410 . S
C1154 C154 1.380 . S
C1165 C59 1.683 . S
C1167 C467 1.674 . S
C1176 C78 2.026 . S
C1178 C507 2.030 . S
C1187 C97 1.624 . S
C1189 C557 1.660 . S
C1198 C230 1.787 . S
C1200 C517 1.820 . S
C1211 C547 1.799 . S
C1209 C249 1.787 . S
C1220 C268 1.384 . S
C1222 C477 1.408 . S
C1231 C173 1.679 . S
C1233 C587 1.677 . S
C1242 C192 2.029 . S
C1244 C627 2.028 . S
C1255 C677 1.656 . S
C1253 C211 1.629 . S
C1264 C2 1.791 . S
C1266 C637 1.819 . S
C1275 C21 1.784 . S
C1277 C667 1.801 . S
C1286 C40 1.385 . S
C1288 C597 1.408 . S
