# Generated by pormake.
# Topology pto, (3,4)-cn, num edge types: 1
# Building blocks:
#     Node 0, Type 0, BuildingBlock: OLANEW_clean_sbu_2, # of connection points: 3
#     Node 1, Type 0, BuildingBlock: OLANEW_clean_sbu_2, # of connection points: 3
#     Node 2, Type 0, BuildingBlock: OLANEW_clean_sbu_2, # of connection points: 3
#     Node 3, Type 0, BuildingBlock: OLANEW_clean_sbu_2, # of connection points: 3
#     Node 4, Type 0, BuildingBlock: OLANEW_clean_sbu_2, # of connection points: 3
#     Node 5, Type 0, BuildingBlock: OLANEW_clean_sbu_2, # of connection points: 3
#     Node 6, Type 0, BuildingBlock: OLANEW_clean_sbu_2, # of connection points: 3
#     Node 7, Type 0, BuildingBlock: OLANEW_clean_sbu_2, # of connection points: 3
#     Node 8, Type 1, BuildingBlock: NAWXER_clean_linker_0, # of connection points: 4
#     Node 9, Type 1, BuildingBlock: NAWXER_clean_linker_0, # of connection points: 4
#     Node 10, Type 1, BuildingBlock: NAWXER_clean_linker_0, # of connection points: 4
#     Node 11, Type 1, BuildingBlock: NAWXER_clean_linker_0, # of connection points: 4
#     Node 12, Type 1, BuildingBlock: NAWXER_clean_linker_0, # of connection points: 4
#     Node 13, Type 1, BuildingBlock: NAWXER_clean_linker_0, # of connection points: 4
#     Edge 14, Type (0, 1), BuildingBlock: XUDNAN_clean_linker_2, # of connection points: 2
#     Edge 15, Type (0, 1), BuildingBlock: XUDNAN_clean_linker_2, # of connection points: 2
#     Edge 16, Type (0, 1), BuildingBlock: XUDNAN_clean_linker_2, # of connection points: 2
#     Edge 17, Type (0, 1), BuildingBlock: XUDNAN_clean_linker_2, # of connection points: 2
#     Edge 18, Type (0, 1), BuildingBlock: XUDNAN_clean_linker_2, # of connection points: 2
#     Edge 19, Type (0, 1), BuildingBlock: XUDNAN_clean_linker_2, # of connection points: 2
#     Edge 20, Type (0, 1), BuildingBlock: XUDNAN_clean_linker_2, # of connection points: 2
#     Edge 21, Type (0, 1), BuildingBlock: XUDNAN_clean_linker_2, # of connection points: 2
#     Edge 22, Type (0, 1), BuildingBlock: XUDNAN_clean_linker_2, # of connection points: 2
#     Edge 23, Type (0, 1), BuildingBlock: XUDNAN_clean_linker_2, # of connection points: 2
#     Edge 24, Type (0, 1), BuildingBlock: XUDNAN_clean_linker_2, # of connection points: 2
#     Edge 25, Type (0, 1), BuildingBlock: XUDNAN_clean_linker_2, # of connection points: 2
#     Edge 26, Type (0, 1), BuildingBlock: XUDNAN_clean_linker_2, # of connection points: 2
#     Edge 27, Type (0, 1), BuildingBlock: XUDNAN_clean_linker_2, # of connection points: 2
#     Edge 28, Type (0, 1), BuildingBlock: XUDNAN_clean_linker_2, # of connection points: 2
#     Edge 29, Type (0, 1), BuildingBlock: XUDNAN_clean_linker_2, # of connection points: 2
#     Edge 30, Type (0, 1), BuildingBlock: XUDNAN_clean_linker_2, # of connection points: 2
#     Edge 31, Type (0, 1), BuildingBlock: XUDNAN_clean_linker_2, # of connection points: 2
#     Edge 32, Type (0, 1), BuildingBlock: XUDNAN_clean_linker_2, # of connection points: 2
#     Edge 33, Type (0, 1), BuildingBlock: XUDNAN_clean_linker_2, # of connection points: 2
#     Edge 34, Type (0, 1), BuildingBlock: XUDNAN_clean_linker_2, # of connection points: 2
#     Edge 35, Type (0, 1), BuildingBlock: XUDNAN_clean_linker_2, # of connection points: 2
#     Edge 36, Type (0, 1), BuildingBlock: XUDNAN_clean_linker_2, # of connection points: 2
#     Edge 37, Type (0, 1), BuildingBlock: XUDNAN_clean_linker_2, # of connection points: 2
# Relax obj value: 0.009
# Max RMSD: 0.126
# Mean RMSD: 0.054
data_MOF--net-pto--node1-OLANEW_clean_sbu_2--node2-NAWXER_clean_linker_0--edge1-XUDNAN_clean_linker_2
_symmetry_space_group_name_H-M    P1
_symmetry_Int_Tables_number       1
_symmetry_cell_setting            triclinic
loop_
_symmetry_equiv_pos_as_xyz
'x, y, z'
_cell_length_a     42.180714
_cell_length_b     60.400366
_cell_length_c     51.037507
_cell_angle_alpha  92.624516
_cell_angle_beta   89.795013
_cell_angle_gamma 105.37091
loop_
_atom_site_label
_atom_site_type_symbol
_atom_site_fract_x
_atom_site_fract_y
_atom_site_fract_z
_atom_type_partial_charge
O0 O 0.36757 0.36694 0.30951 0.0
Cd1 Cd 0.32936 0.36135 0.34617 0.0
O2 O 0.32687 0.35637 0.28089 0.0
Cd3 Cd 0.28846 0.3575 0.30928 0.0
O4 O 0.24791 0.37028 0.3245 0.0
C5 C 0.23108 0.37648 0.30705 0.0
O6 O 0.23858 0.37389 0.28228 0.0
C7 C 0.35755 0.36214 0.28593 0.0
C8 C 0.32884 0.31979 0.36792 0.0
O9 O 0.31097 0.32044 0.34787 0.0
O10 O 0.34641 0.33886 0.37813 0.0
O11 O 0.2974 0.88584 0.79563 0.0
Cd12 Cd 0.26372 0.89691 0.76246 0.0
O13 O 0.28374 0.85456 0.77064 0.0
Cd14 Cd 0.27943 0.8197 0.75474 0.0
O15 O 0.25755 0.78621 0.73549 0.0
C16 C 0.23502 0.7721 0.74742 0.0
O17 O 0.22706 0.77782 0.77121 0.0
C18 C 0.29842 0.8652 0.7911 0.0
C19 C 0.29867 0.92789 0.72729 0.0
O20 O 0.28272 0.93454 0.74613 0.0
O21 O 0.29865 0.90667 0.72528 0.0
O22 O 0.78884 0.7728 0.3127 0.0
Cd23 Cd 0.76326 0.74287 0.27954 0.0
O24 O 0.74302 0.76835 0.33497 0.0
Cd25 Cd 0.71383 0.74962 0.30187 0.0
O26 O 0.69229 0.75768 0.26587 0.0
C27 C 0.70121 0.77898 0.26148 0.0
O28 O 0.72182 0.7929 0.27802 0.0
C29 C 0.77368 0.77763 0.33286 0.0
C30 C 0.80153 0.71239 0.26847 0.0
O31 O 0.80291 0.72944 0.25403 0.0
O32 O 0.78213 0.70979 0.28813 0.0
O33 O 0.74819 0.2934 0.62173 0.0
Cd34 Cd 0.70631 0.26101 0.60198 0.0
O35 O 0.72127 0.2874 0.65847 0.0
Cd36 Cd 0.70636 0.29264 0.69889 0.0
O37 O 0.6845 0.28988 0.73781 0.0
C38 C 0.6793 0.30712 0.75056 0.0
O39 O 0.68785 0.32737 0.74025 0.0
C40 C 0.74551 0.29909 0.64574 0.0
C41 C 0.73273 0.22641 0.58121 0.0
O42 O 0.73102 0.24338 0.5676 0.0
O43 O 0.72202 0.22583 0.60477 0.0
O44 O 0.73773 0.75887 0.62603 0.0
Cd45 Cd 0.72342 0.71793 0.63504 0.0
O46 O 0.72274 0.76558 0.66597 0.0
Cd47 Cd 0.71361 0.78387 0.70217 0.0
O48 O 0.70276 0.79517 0.74174 0.0
C49 C 0.67336 0.79397 0.7486 0.0
O50 O 0.64948 0.78645 0.73132 0.0
C51 C 0.7331 0.77314 0.64376 0.0
C52 C 0.77503 0.69698 0.63188 0.0
O53 O 0.75856 0.69885 0.61142 0.0
O54 O 0.7676 0.7055 0.65379 0.0
O55 O 0.89085 0.26265 0.27275 0.0
Cd56 Cd 0.88661 0.22233 0.26007 0.0
O57 O 0.83811 0.25783 0.26536 0.0
Cd58 Cd 0.79693 0.2727 0.2593 0.0
O59 O 0.75932 0.28748 0.24369 0.0
C60 C 0.76213 0.29368 0.22014 0.0
O61 O 0.78756 0.29125 0.20648 0.0
C62 C 0.8661 0.27086 0.27193 0.0
C63 C 0.86106 0.19026 0.29762 0.0
O64 O 0.89198 0.19997 0.29673 0.0
O65 O 0.8422 0.19618 0.28122 0.0
O66 O 0.21825 0.31485 0.82131 0.0
Cd67 Cd 0.16825 0.31303 0.79616 0.0
O68 O 0.25257 0.32697 0.78932 0.0
Cd69 Cd 0.29971 0.33031 0.76979 0.0
O70 O 0.3302 0.31936 0.73978 0.0
C71 C 0.31402 0.30701 0.72095 0.0
O72 O 0.2818 0.30271 0.72096 0.0
C73 C 0.24738 0.32013 0.81249 0.0
C74 C 0.16159 0.35214 0.77231 0.0
O75 O 0.1525 0.3483 0.79605 0.0
O76 O 0.17519 0.33799 0.76029 0.0
O77 O 0.41614 0.85572 0.31208 0.0
Cd78 Cd 0.41477 0.8596 0.35998 0.0
O79 O 0.36582 0.83396 0.3137 0.0
Cd80 Cd 0.31948 0.80943 0.30146 0.0
O81 O 0.27212 0.78401 0.30506 0.0
C82 C 0.25962 0.76896 0.28713 0.0
O83 O 0.27525 0.76873 0.26484 0.0
C84 C 0.39088 0.84313 0.30018 0.0
C85 C 0.39363 0.89704 0.37978 0.0
O86 O 0.42425 0.89871 0.37619 0.0
O87 O 0.37298 0.87779 0.37356 0.0
C88 C 0.96647 0.44737 0.27565 0.0
C89 C 0.9346 0.43975 0.28601 0.0
C90 C 0.98273 0.47073 0.27591 0.0
C91 C 0.96856 0.48713 0.28796 0.0
C92 C 0.91946 0.45648 0.2962 0.0
C93 C 0.93635 0.47983 0.29737 0.0
C94 C 0.98687 0.51185 0.29045 0.0
C95 C 0.0491 0.47263 0.3297 0.0
C96 C 0.0784 0.47345 0.31608 0.0
C97 C 0.03039 0.48786 0.32418 0.0
C98 C 0.04063 0.50402 0.30483 0.0
C99 C 0.08915 0.49028 0.29753 0.0
C100 C 0.07053 0.50547 0.29206 0.0
C101 C 0.02055 0.51951 0.29754 0.0
C102 C 0.04834 0.62266 0.30736 0.0
C103 C 0.07951 0.62835 0.29555 0.0
C104 C 0.02862 0.59998 0.30601 0.0
C105 C 0.0394 0.58264 0.29233 0.0
C106 C 0.09026 0.61083 0.28216 0.0
C107 C 0.07046 0.58829 0.28059 0.0
C108 C 0.01983 0.5583 0.29141 0.0
C109 C 0.95997 0.59901 0.25328 0.0
C110 C 0.92942 0.59768 0.26521 0.0
C111 C 0.97797 0.58343 0.25899 0.0
C112 C 0.96634 0.56661 0.27738 0.0
C113 C 0.9171 0.58003 0.28259 0.0
C114 C 0.93538 0.56468 0.28859 0.0
C115 C 0.98597 0.5508 0.28485 0.0
H116 H 0.97951 0.43542 0.26777 0.0
H117 H 0.00677 0.47584 0.26705 0.0
H118 H 0.89456 0.45169 0.30345 0.0
H119 H 0.92438 0.49217 0.30605 0.0
H120 H 0.04025 0.45987 0.34413 0.0
H121 H 0.00771 0.48679 0.33467 0.0
H122 H 0.11199 0.49167 0.28713 0.0
H123 H 0.07911 0.51801 0.27734 0.0
H124 H 0.03917 0.6357 0.31774 0.0
H125 H 0.00517 0.59599 0.31589 0.0
H126 H 0.11439 0.61436 0.27337 0.0
H127 H 0.07955 0.57516 0.27028 0.0
H128 H 0.97043 0.61238 0.23991 0.0
H129 H 0.00124 0.58478 0.24929 0.0
H130 H 0.8933 0.57803 0.29163 0.0
H131 H 0.92556 0.55155 0.30242 0.0
N132 N 0.97081 0.52787 0.28476 0.0
N133 N 0.03566 0.54231 0.29739 0.0
C134 C 0.9354 0.45055 0.67059 0.0
C135 C 0.90851 0.44582 0.68772 0.0
C136 C 0.95722 0.47248 0.67077 0.0
C137 C 0.95246 0.49005 0.68805 0.0
C138 C 0.90386 0.46345 0.70502 0.0
C139 C 0.92547 0.48543 0.70498 0.0
C140 C 0.97461 0.51352 0.6878 0.0
C141 C 0.03412 0.46856 0.71957 0.0
C142 C 0.06334 0.46899 0.70593 0.0
C143 C 0.0163 0.48446 0.71465 0.0
C144 C 0.02688 0.50079 0.69555 0.0
C145 C 0.07417 0.48567 0.68721 0.0
C146 C 0.05615 0.50137 0.6821 0.0
C147 C 0.00914 0.51837 0.69051 0.0
C148 C 0.05164 0.62139 0.70183 0.0
C149 C 0.08218 0.62517 0.68918 0.0
C150 C 0.02899 0.59978 0.69998 0.0
C151 C 0.03619 0.58162 0.68508 0.0
C152 C 0.08921 0.60698 0.67416 0.0
C153 C 0.0665 0.58543 0.67221 0.0
C154 C 0.01382 0.55812 0.68468 0.0
C155 C 0.95624 0.60039 0.64548 0.0
C156 C 0.92688 0.60141 0.65803 0.0
C157 C 0.97362 0.58503 0.65327 0.0
C158 C 0.96224 0.57054 0.67401 0.0
C159 C 0.91557 0.5869 0.6788 0.0
C160 C 0.93298 0.57153 0.68659 0.0
C161 C 0.97935 0.5532 0.68138 0.0
H162 H 0.9396 0.43726 0.6571 0.0
H163 H 0.97757 0.47579 0.65721 0.0
H164 H 0.8831 0.46037 0.71817 0.0
H165 H 0.9212 0.49884 0.71828 0.0
H166 H 0.02487 0.45589 0.734 0.0
H167 H 0.99451 0.48412 0.72606 0.0
H168 H 0.09689 0.48689 0.67672 0.0
H169 H 0.06518 0.51404 0.66759 0.0
H170 H 0.04533 0.63507 0.7134 0.0
H171 H 0.00623 0.59717 0.71075 0.0
H172 H 0.11268 0.60915 0.66454 0.0
H173 H 0.07281 0.57161 0.66089 0.0
H174 H 0.96573 0.6114 0.62951 0.0
H175 H 0.99562 0.58418 0.64272 0.0
H176 H 0.89278 0.58696 0.6886 0.0
H177 H 0.92347 0.56031 0.70238 0.0
N178 N 0.96109 0.53112 0.68337 0.0
N179 N 0.02727 0.54048 0.68886 0.0
C180 C 0.34391 0.18726 0.48799 0.0
C181 C 0.36121 0.19052 0.46435 0.0
C182 C 0.34826 0.17082 0.50501 0.0
C183 C 0.37099 0.15797 0.49918 0.0
C184 C 0.38341 0.17743 0.45819 0.0
C185 C 0.38835 0.16136 0.47552 0.0
C186 C 0.37445 0.13945 0.51617 0.0
C187 C 0.39723 0.2037 0.57018 0.0
C188 C 0.37403 0.20248 0.5903 0.0
C189 C 0.39779 0.18401 0.55473 0.0
C190 C 0.3752 0.16284 0.55929 0.0
C191 C 0.35177 0.1812 0.59488 0.0
C192 C 0.35249 0.16161 0.57965 0.0
C193 C 0.37541 0.14155 0.54385 0.0
C194 C 0.38636 0.04753 0.57493 0.0
C195 C 0.36767 0.04653 0.59802 0.0
C196 C 0.38946 0.06566 0.55811 0.0
C197 C 0.37266 0.0826 0.56331 0.0
C198 C 0.35266 0.06436 0.60387 0.0
C199 C 0.35476 0.0819 0.58664 0.0
C200 C 0.37431 0.10186 0.54576 0.0
C201 C 0.342 0.03768 0.49316 0.0
C202 C 0.36444 0.03632 0.47306 0.0
C203 C 0.34476 0.05828 0.50773 0.0
C204 C 0.37036 0.07783 0.50281 0.0
C205 C 0.38948 0.05614 0.46774 0.0
C206 C 0.3923 0.07669 0.48239 0.0
C207 C 0.37366 0.09978 0.51801 0.0
H208 H 0.32616 0.19686 0.49285 0.0
H209 H 0.33312 0.16779 0.52232 0.0
H210 H 0.3969 0.17962 0.43997 0.0
H211 H 0.40555 0.1514 0.4703 0.0
H212 H 0.4147 0.21988 0.56627 0.0
H213 H 0.41592 0.18526 0.53941 0.0
H214 H 0.33403 0.17961 0.61056 0.0
H215 H 0.33505 0.14543 0.58369 0.0
H216 H 0.39838 0.03425 0.56956 0.0
H217 H 0.40495 0.06628 0.54107 0.0
H218 H 0.33924 0.06499 0.62187 0.0
H219 H 0.34214 0.09496 0.59163 0.0
H220 H 0.32253 0.02274 0.49789 0.0
H221 H 0.327 0.05892 0.52294 0.0
H222 H 0.40677 0.05584 0.45207 0.0
H223 H 0.41185 0.0917 0.47794 0.0
N224 N 0.37402 0.11869 0.5044 0.0
N225 N 0.37514 0.12269 0.55738 0.0
C226 C 0.46352 0.83744 0.93076 0.0
C227 C 0.43159 0.8227 0.92817 0.0
C228 C 0.48344 0.8362 0.95218 0.0
C229 C 0.47205 0.81992 0.97121 0.0
C230 C 0.42012 0.80667 0.94749 0.0
C231 C 0.44011 0.80536 0.9688 0.0
C232 C 0.49239 0.81876 0.99444 0.0
C233 C 0.54941 0.80082 0.92491 0.0
C234 C 0.58023 0.81664 0.92176 0.0
C235 C 0.53132 0.80162 0.94781 0.0
C236 C 0.54362 0.81831 0.96793 0.0
C237 C 0.59223 0.83345 0.9419 0.0
C238 C 0.57425 0.83413 0.9648 0.0
C239 C 0.52584 0.81868 0.99292 0.0
C240 C 0.55571 0.79944 0.10389 0.0
C241 C 0.58778 0.81392 0.10674 0.0
C242 C 0.53646 0.80058 0.08203 0.0
C243 C 0.54866 0.81651 0.06279 0.0
C244 C 0.60025 0.82935 0.08703 0.0
C245 C 0.58091 0.83058 0.06526 0.0
C246 C 0.52852 0.81806 0.03956 0.0
C247 C 0.47788 0.83947 0.10945 0.0
C248 C 0.44763 0.82389 0.11502 0.0
C249 C 0.49317 0.83794 0.08538 0.0
C250 C 0.47869 0.8207 0.0664 0.0
C251 C 0.43272 0.80705 0.09564 0.0
C252 C 0.44803 0.80557 0.07149 0.0
C253 C 0.49529 0.81865 0.04114 0.0
H254 H 0.4732 0.84993 0.91622 0.0
H255 H 0.50758 0.84817 0.95399 0.0
H256 H 0.39543 0.79538 0.94642 0.0
H257 H 0.43059 0.79292 0.98345 0.0
H258 H 0.53964 0.78741 0.91002 0.0
H259 H 0.50807 0.78889 0.95004 0.0
H260 H 0.61558 0.84613 0.94001 0.0
H261 H 0.58424 0.84712 0.98011 0.0
H262 H 0.54527 0.78742 0.11872 0.0
H263 H 0.51205 0.78898 0.08018 0.0
H264 H 0.62507 0.84041 0.0883 0.0
H265 H 0.59106 0.84273 0.05046 0.0
H266 H 0.48968 0.85301 0.12363 0.0
H267 H 0.51637 0.85024 0.08159 0.0
H268 H 0.40955 0.79468 0.09932 0.0
H269 H 0.4363 0.79227 0.05702 0.0
N270 N 0.47841 0.8187 0.01852 0.0
N271 N 0.54255 0.81837 0.01554 0.0
C272 C 0.79069 0.06038 0.44046 0.0
C273 C 0.8169 0.06672 0.42285 0.0
C274 C 0.79025 0.04381 0.45871 0.0
C275 C 0.81634 0.0335 0.46022 0.0
C276 C 0.84273 0.05603 0.42402 0.0
C277 C 0.84234 0.03948 0.44246 0.0
C278 C 0.81588 0.01607 0.47987 0.0
C279 C 0.82838 0.08369 0.51992 0.0
C280 C 0.79906 0.08615 0.53132 0.0
C281 C 0.83225 0.06192 0.51325 0.0
C282 C 0.80677 0.04218 0.51764 0.0
C283 C 0.7745 0.0663 0.5374 0.0
C284 C 0.7784 0.04445 0.53069 0.0
C285 C 0.80871 0.01951 0.50661 0.0
C286 C 0.8144 0.9307 0.55379 0.0
C287 C 0.7832 0.92411 0.56542 0.0
C288 C 0.82235 0.94921 0.53731 0.0
C289 C 0.79924 0.96143 0.53203 0.0
C290 C 0.76038 0.93675 0.56047 0.0
C291 C 0.76843 0.9553 0.54408 0.0
C292 C 0.80683 0.98052 0.51391 0.0
C293 C 0.79153 0.91852 0.45422 0.0
C294 C 0.82221 0.91372 0.45044 0.0
C295 C 0.78947 0.93898 0.46712 0.0
C296 C 0.81801 0.95518 0.47617 0.0
C297 C 0.85068 0.92987 0.46033 0.0
C298 C 0.84861 0.95055 0.47274 0.0
C299 C 0.81593 0.97754 0.48762 0.0
H300 H 0.77053 0.06836 0.44031 0.0
H301 H 0.76939 0.03902 0.47165 0.0
H302 H 0.86303 0.06022 0.41047 0.0
H303 H 0.8625 0.03152 0.44301 0.0
H304 H 0.84806 0.09864 0.51556 0.0
H305 H 0.85468 0.06051 0.50372 0.0
H306 H 0.75161 0.06764 0.54614 0.0
H307 H 0.75853 0.02941 0.53436 0.0
H308 H 0.83282 0.92169 0.55759 0.0
H309 H 0.84664 0.95407 0.52883 0.0
H310 H 0.736 0.93202 0.5688 0.0
H311 H 0.75026 0.96456 0.5403 0.0
H312 H 0.76909 0.90688 0.44645 0.0
H313 H 0.76568 0.94248 0.46938 0.0
H314 H 0.87466 0.92668 0.4583 0.0
H315 H 0.87089 0.96297 0.47962 0.0
N316 N 0.81971 0.99528 0.47145 0.0
N317 N 0.80368 0.00148 0.52255 0.0
C318 C 0.45705 0.33864 0.93167 0.0
C319 C 0.4256 0.32409 0.93612 0.0
C320 C 0.48118 0.34341 0.95148 0.0
C321 C 0.47442 0.33342 0.97594 0.0
C322 C 0.41866 0.31497 0.96101 0.0
C323 C 0.44275 0.31955 0.9806 0.0
C324 C 0.49947 0.33731 0.99721 0.0
C325 C 0.54175 0.30412 0.9292 0.0
C326 C 0.57156 0.31807 0.92005 0.0
C327 C 0.52856 0.30983 0.95292 0.0
C328 C 0.54473 0.32974 0.96776 0.0
C329 C 0.58776 0.33791 0.93508 0.0
C330 C 0.57456 0.3436 0.95879 0.0
C331 C 0.53196 0.33548 0.99344 0.0
C332 C 0.57121 0.32248 0.1029 0.0
C333 C 0.60449 0.33485 0.10374 0.0
C334 C 0.55106 0.32447 0.08203 0.0
C335 C 0.56353 0.33926 0.06177 0.0
C336 C 0.61724 0.34918 0.08311 0.0
C337 C 0.59692 0.35132 0.06226 0.0
C338 C 0.54201 0.34114 0.03956 0.0
C339 C 0.50512 0.37037 0.11139 0.0
C340 C 0.47506 0.35651 0.12019 0.0
C341 C 0.51621 0.36677 0.08614 0.0
C342 C 0.49756 0.34914 0.06925 0.0
C343 C 0.45595 0.33938 0.10287 0.0
C344 C 0.46701 0.33585 0.07759 0.0
C345 C 0.51014 0.34406 0.04319 0.0
H346 H 0.4632 0.34604 0.91279 0.0
H347 H 0.50507 0.35481 0.94761 0.0
H348 H 0.39446 0.30428 0.96547 0.0
H349 H 0.43667 0.31191 0.99939 0.0
H350 H 0.5286 0.28879 0.91801 0.0
H351 H 0.50591 0.29857 0.95979 0.0
H352 H 0.61102 0.3488 0.92879 0.0
H353 H 0.58768 0.35883 0.97017 0.0
H354 H 0.56087 0.31083 0.11811 0.0
H355 H 0.52575 0.31421 0.0816 0.0
H356 H 0.64283 0.35889 0.08322 0.0
H357 H 0.60718 0.36254 0.04664 0.0
H358 H 0.5201 0.38404 0.124 0.0
H359 H 0.53954 0.3776 0.07988 0.0
H360 H 0.43284 0.32824 0.10907 0.0
H361 H 0.45219 0.32219 0.06485 0.0
N362 N 0.48996 0.34166 0.02198 0.0
N363 N 0.55191 0.3374 0.01477 0.0
H364 H 0.19433 0.39403 0.27388 0.0
H365 H 0.20974 0.38546 0.35644 0.0
H366 H 0.16916 0.40724 0.36799 0.0
H367 H 0.18966 0.4509 0.28047 0.0
H368 H 0.15848 0.44782 0.2555 0.0
H369 H 0.18622 0.42975 0.25378 0.0
H370 H 0.13676 0.39346 0.25217 0.0
H371 H 0.10882 0.41145 0.25374 0.0
H372 H 0.10623 0.38992 0.27756 0.0
H373 H 0.12927 0.43229 0.37035 0.0
H374 H 0.09443 0.45871 0.36322 0.0
H375 H 0.10591 0.45037 0.27914 0.0
C376 C 0.18888 0.3964 0.2944 0.0
C377 C 0.20515 0.38798 0.31426 0.0
C378 C 0.19749 0.39169 0.34088 0.0
C379 C 0.17445 0.40401 0.34763 0.0
C380 C 0.15925 0.41239 0.32752 0.0
C381 C 0.16612 0.40865 0.30144 0.0
C382 C 0.14792 0.42043 0.28354 0.0
C383 C 0.17201 0.43828 0.26739 0.0
C384 C 0.12348 0.40276 0.26571 0.0
C385 C 0.13024 0.43184 0.30361 0.0
C386 C 0.13674 0.42686 0.32887 0.0
C387 C 0.1238 0.43613 0.35063 0.0
C388 C 0.10398 0.45104 0.34641 0.0
C389 C 0.09761 0.45665 0.32065 0.0
C390 C 0.11064 0.44661 0.29908 0.0
H391 H 0.18676 0.73777 0.76807 0.0
H392 H 0.24088 0.75726 0.69648 0.0
H393 H 0.20754 0.72185 0.67363 0.0
H394 H 0.17881 0.67669 0.75955 0.0
H395 H 0.13804 0.66881 0.77308 0.0
H396 H 0.16669 0.69547 0.78378 0.0
H397 H 0.12457 0.71766 0.77113 0.0
H398 H 0.0959 0.6911 0.76017 0.0
H399 H 0.10824 0.71429 0.73815 0.0
H400 H 0.16693 0.68491 0.65824 0.0
H401 H 0.12372 0.64837 0.65199 0.0
H402 H 0.09749 0.6528 0.73405 0.0
C403 C 0.19178 0.73456 0.74763 0.0
C404 C 0.21642 0.7503 0.73406 0.0
C405 C 0.22217 0.74543 0.70731 0.0
C406 C 0.20332 0.72539 0.69413 0.0
C407 C 0.17894 0.71039 0.70803 0.0
C408 C 0.1733 0.71465 0.73423 0.0
C409 C 0.14562 0.6958 0.74466 0.0
C410 C 0.15804 0.68346 0.76656 0.0
C411 C 0.11689 0.70529 0.75408 0.0
C412 C 0.1364 0.68034 0.72019 0.0
C413 C 0.15585 0.68905 0.69925 0.0
C414 C 0.1517 0.67783 0.67454 0.0
C415 C 0.12719 0.65705 0.67122 0.0
C416 C 0.1072 0.64766 0.69252 0.0
C417 C 0.11197 0.65962 0.71726 0.0
H418 H 0.8167 0.68207 0.3014 0.0
H419 H 0.83206 0.70619 0.22236 0.0
H420 H 0.86529 0.67876 0.21243 0.0
H421 H 0.89828 0.67587 0.31046 0.0
H422 H 0.88495 0.65063 0.32937 0.0
H423 H 0.86151 0.67159 0.32984 0.0
H424 H 0.80944 0.63977 0.31514 0.0
H425 H 0.83279 0.61873 0.31452 0.0
H426 H 0.81058 0.62241 0.28564 0.0
H427 H 0.8959 0.64807 0.21098 0.0
H428 H 0.9245 0.61826 0.21882 0.0
H429 H 0.89213 0.6163 0.29981 0.0
C430 C 0.82692 0.6815 0.28196 0.0
C431 C 0.82165 0.69615 0.26258 0.0
C432 C 0.8358 0.69512 0.23749 0.0
C433 C 0.85461 0.67955 0.23165 0.0
C434 C 0.85929 0.66533 0.2512 0.0
C435 C 0.84611 0.66633 0.27592 0.0
C436 C 0.85579 0.64978 0.29372 0.0
C437 C 0.87636 0.66275 0.31723 0.0
C438 C 0.82533 0.6316 0.30278 0.0
C439 C 0.87635 0.63924 0.27511 0.0
C440 C 0.87787 0.64829 0.25063 0.0
C441 C 0.89513 0.641 0.23015 0.0
C442 C 0.91152 0.62415 0.23487 0.0
C443 C 0.91087 0.61491 0.26 0.0
C444 C 0.89287 0.62265 0.28027 0.0
H445 H 0.78426 0.33505 0.6204 0.0
H446 H 0.76281 0.30874 0.69801 0.0
H447 H 0.80186 0.34351 0.71736 0.0
H448 H 0.87126 0.35906 0.63186 0.0
H449 H 0.87346 0.38348 0.61223 0.0
H450 H 0.84319 0.35672 0.60468 0.0
H451 H 0.7969 0.37762 0.60819 0.0
H452 H 0.82702 0.40444 0.61573 0.0
H453 H 0.79336 0.39427 0.63777 0.0
H454 H 0.8427 0.38187 0.7282 0.0
H455 H 0.8834 0.41993 0.72942 0.0
H456 H 0.87978 0.41993 0.6445 0.0
C457 C 0.78775 0.33655 0.64149 0.0
C458 C 0.76959 0.31946 0.65777 0.0
C459 C 0.77519 0.32201 0.68522 0.0
C460 C 0.79774 0.34159 0.69637 0.0
C461 C 0.81483 0.35826 0.67974 0.0
C462 C 0.81029 0.35583 0.65287 0.0
C463 C 0.83191 0.37606 0.63925 0.0
C464 C 0.8564 0.36836 0.62093 0.0
C465 C 0.81104 0.38885 0.62437 0.0
C466 C 0.84923 0.39037 0.66267 0.0
C467 C 0.83902 0.37987 0.68588 0.0
C468 C 0.85099 0.39018 0.71014 0.0
C469 C 0.87396 0.4118 0.71065 0.0
C470 C 0.88482 0.42276 0.68706 0.0
C471 C 0.87231 0.41179 0.66282 0.0
H472 H 0.34843 0.31197 0.41701 0.0
H473 H 0.31234 0.27765 0.34221 0.0
H474 H 0.31731 0.24084 0.3586 0.0
H475 H 0.407 0.28064 0.42997 0.0
H476 H 0.39883 0.27913 0.46462 0.0
H477 H 0.39253 0.30282 0.44705 0.0
H478 H 0.33218 0.29368 0.46288 0.0
H479 H 0.33836 0.27004 0.48062 0.0
H480 H 0.30548 0.26519 0.45682 0.0
H481 H 0.32916 0.2083 0.38228 0.0
H482 H 0.34175 0.18137 0.41331 0.0
H483 H 0.3666 0.2363 0.47349 0.0
C484 C 0.3415 0.29669 0.40413 0.0
C485 C 0.33014 0.29763 0.37831 0.0
C486 C 0.32101 0.27726 0.36209 0.0
C487 C 0.32387 0.25631 0.37118 0.0
C488 C 0.33543 0.256 0.39665 0.0
C489 C 0.34363 0.27556 0.41304 0.0
C490 C 0.35461 0.27042 0.43979 0.0
C491 C 0.39036 0.28406 0.44569 0.0
C492 C 0.33125 0.27511 0.46129 0.0
C493 C 0.35164 0.24497 0.43579 0.0
C494 C 0.34087 0.23703 0.41068 0.0
C495 C 0.33732 0.21426 0.40207 0.0
C496 C 0.34465 0.19915 0.4197 0.0
C497 C 0.35495 0.20685 0.44566 0.0
C498 C 0.35847 0.23002 0.45377 0.0
H499 H 0.34809 0.88632 0.82533 0.0
H500 H 0.28703 0.81914 0.79961 0.0
H501 H 0.31646 0.80091 0.83003 0.0
H502 H 0.42359 0.86994 0.83531 0.0
H503 H 0.43507 0.88828 0.86449 0.0
H504 H 0.41059 0.89601 0.8394 0.0
H505 H 0.36601 0.89841 0.8737 0.0
H506 H 0.39038 0.89074 0.89889 0.0
H507 H 0.3486 0.87398 0.8931 0.0
H508 H 0.35185 0.79001 0.86396 0.0
H509 H 0.3893 0.78729 0.9 0.0
H510 H 0.42495 0.86174 0.90557 0.0
C511 C 0.34109 0.86776 0.82594 0.0
C512 C 0.31601 0.8541 0.80933 0.0
C513 C 0.30718 0.82991 0.81109 0.0
C514 C 0.3235 0.8194 0.82863 0.0
C515 C 0.34835 0.83334 0.84449 0.0
C516 C 0.35697 0.857 0.84345 0.0
C517 C 0.38359 0.8681 0.86341 0.0
C518 C 0.41507 0.88136 0.84983 0.0
C519 C 0.3714 0.88373 0.88346 0.0
C520 C 0.38847 0.84698 0.8759 0.0
C521 C 0.36802 0.8271 0.86462 0.0
C522 C 0.36791 0.80546 0.87301 0.0
C523 C 0.38913 0.80411 0.89361 0.0
C524 C 0.41004 0.82429 0.90573 0.0
C525 C 0.40966 0.84596 0.89655 0.0
H526 H 0.74876 0.79161 0.37853 0.0
H527 H 0.83657 0.80536 0.33072 0.0
H528 H 0.86153 0.83953 0.35933 0.0
H529 H 0.74462 0.84712 0.38727 0.0
H530 H 0.73093 0.84537 0.42079 0.0
H531 H 0.72196 0.81995 0.39945 0.0
H532 H 0.75022 0.7995 0.43214 0.0
H533 H 0.75899 0.82483 0.45382 0.0
H534 H 0.79187 0.81289 0.4428 0.0
H535 H 0.87296 0.87534 0.38826 0.0
H536 H 0.87142 0.90892 0.41682 0.0
H537 H 0.77771 0.87086 0.44787 0.0
C538 C 0.77361 0.80142 0.37448 0.0
C539 C 0.7907 0.79577 0.35237 0.0
C540 C 0.82302 0.80924 0.34761 0.0
C541 C 0.83744 0.8287 0.36376 0.0
C542 C 0.81944 0.83425 0.38484 0.0
C543 C 0.78844 0.82079 0.39051 0.0
C544 C 0.77327 0.83147 0.41306 0.0
C545 C 0.74079 0.83626 0.40462 0.0
C546 C 0.76831 0.81626 0.43687 0.0
C547 C 0.79993 0.85355 0.41835 0.0
C548 C 0.82649 0.85472 0.40206 0.0
C549 C 0.85273 0.87436 0.40165 0.0
C550 C 0.85167 0.89337 0.41813 0.0
C551 C 0.82457 0.89266 0.43494 0.0
C552 C 0.79876 0.87218 0.43528 0.0
H553 H 0.66431 0.34035 0.78313 0.0
H554 H 0.65707 0.26723 0.77632 0.0
H555 H 0.62863 0.26208 0.81881 0.0
H556 H 0.67944 0.34734 0.85293 0.0
H557 H 0.65537 0.36775 0.85793 0.0
H558 H 0.67537 0.36574 0.82701 0.0
H559 H 0.61945 0.35871 0.80275 0.0
H560 H 0.59928 0.36067 0.83359 0.0
H561 H 0.58533 0.33548 0.81204 0.0
H562 H 0.6004 0.26475 0.86175 0.0
H563 H 0.57549 0.27527 0.90273 0.0
H564 H 0.60076 0.34655 0.88135 0.0
C565 C 0.65684 0.32326 0.79058 0.0
C566 C 0.66292 0.30419 0.77636 0.0
C567 C 0.65271 0.28211 0.78684 0.0
C568 C 0.6365 0.27899 0.81096 0.0
C569 C 0.63075 0.29812 0.82439 0.0
C570 C 0.64067 0.31983 0.81464 0.0
C571 C 0.63143 0.33751 0.83297 0.0
C572 C 0.66224 0.35565 0.84332 0.0
C573 C 0.60745 0.34875 0.81953 0.0
C574 C 0.61472 0.32233 0.85452 0.0
C575 C 0.61454 0.29967 0.84917 0.0
C576 C 0.60035 0.28244 0.86615 0.0
C577 C 0.58607 0.28856 0.88928 0.0
C578 C 0.58612 0.31172 0.89523 0.0
C579 C 0.60063 0.32874 0.8775 0.0
H580 H 0.27739 0.96237 0.70737 0.0
H581 H 0.35676 0.9292 0.70264 0.0
H582 H 0.38408 0.95628 0.6692 0.0
H583 H 0.27373 0.96963 0.63806 0.0
H584 H 0.26333 0.99666 0.64201 0.0
H585 H 0.25146 0.97561 0.66655 0.0
H586 H 0.28152 0.00574 0.70224 0.0
H587 H 0.29352 0.02687 0.67777 0.0
H588 H 0.32434 0.02029 0.69814 0.0
H589 H 0.40349 0.98849 0.6376 0.0
H590 H 0.41113 0.02044 0.60785 0.0
H591 H 0.31466 0.02823 0.6294 0.0
C592 C 0.3007 0.961 0.69946 0.0
C593 C 0.31537 0.94406 0.70774 0.0
C594 C 0.34537 0.94226 0.69655 0.0
C595 C 0.36102 0.95754 0.67764 0.0
C596 C 0.34584 0.97408 0.6698 0.0
C597 C 0.31608 0.97561 0.68009 0.0
C598 C 0.30383 0.9939 0.6673 0.0
C599 C 0.27116 0.98331 0.6526 0.0
C600 C 0.30063 0.01282 0.68758 0.0
C601 C 0.33159 0.00271 0.6485 0.0
C602 C 0.3558 0.99132 0.65039 0.0
C603 C 0.38443 0.99729 0.63566 0.0
C604 C 0.38838 0.0154 0.61858 0.0
C605 C 0.36353 0.0271 0.61596 0.0
C606 C 0.33464 0.02025 0.63106 0.0
H607 H 0.65825 0.75531 0.22285 0.0
H608 H 0.71447 0.82392 0.24892 0.0
H609 H 0.69199 0.8401 0.21207 0.0
H610 H 0.66792 0.76406 0.15316 0.0
H611 H 0.62688 0.74708 0.14492 0.0
H612 H 0.64773 0.74071 0.17321 0.0
H613 H 0.5991 0.74476 0.20254 0.0
H614 H 0.57817 0.75122 0.17435 0.0
H615 H 0.58618 0.77093 0.20264 0.0
H616 H 0.66255 0.8491 0.17331 0.0
H617 H 0.62865 0.85024 0.13441 0.0
H618 H 0.59262 0.7758 0.13252 0.0
C619 C 0.66592 0.77372 0.22075 0.0
C620 C 0.68812 0.78833 0.23881 0.0
C621 C 0.69751 0.81234 0.23536 0.0
C622 C 0.68488 0.82173 0.21449 0.0
C623 C 0.66294 0.8069 0.19715 0.0
C624 C 0.6536 0.78341 0.19994 0.0
C625 C 0.6295 0.77137 0.17855 0.0
C626 C 0.64388 0.75483 0.16145 0.0
C627 C 0.59627 0.75883 0.19023 0.0
C628 C 0.62667 0.79179 0.16345 0.0
C629 C 0.64617 0.81211 0.17452 0.0
C630 C 0.64737 0.83329 0.16431 0.0
C631 C 0.62817 0.83374 0.1421 0.0
C632 C 0.60808 0.81312 0.13025 0.0
C633 C 0.60744 0.7919 0.14119 0.0
H634 H 0.73259 0.18549 0.60267 0.0
H635 H 0.7634 0.22547 0.53405 0.0
H636 H 0.78519 0.1944 0.51462 0.0
H637 H 0.80186 0.16058 0.60505 0.0
H638 H 0.77725 0.13307 0.61489 0.0
H639 H 0.76512 0.15881 0.62392 0.0
H640 H 0.70812 0.14118 0.60202 0.0
H641 H 0.72008 0.11541 0.5929 0.0
H642 H 0.70589 0.13097 0.56815 0.0
H643 H 0.8025 0.1589 0.50219 0.0
H644 H 0.81328 0.12077 0.49708 0.0
H645 H 0.77117 0.10362 0.57366 0.0
C646 C 0.74412 0.18779 0.58363 0.0
C647 C 0.74638 0.20795 0.5699 0.0
C648 C 0.76139 0.21019 0.54494 0.0
C649 C 0.7739 0.19266 0.53376 0.0
C650 C 0.77113 0.17299 0.54775 0.0
C651 C 0.75659 0.17041 0.57211 0.0
C652 C 0.75593 0.14724 0.58266 0.0
C653 C 0.77626 0.1501 0.60814 0.0
C654 C 0.72039 0.13285 0.58666 0.0
C655 C 0.7722 0.13715 0.56033 0.0
C656 C 0.78094 0.15236 0.54047 0.0
C657 C 0.79599 0.14689 0.51768 0.0
C658 C 0.8022 0.12525 0.51504 0.0
C659 C 0.79333 0.10929 0.53507 0.0
C660 C 0.77814 0.11542 0.558 0.0
H661 H 0.34412 0.35638 0.23324 0.0
H662 H 0.42465 0.37015 0.28961 0.0
H663 H 0.46384 0.37117 0.25327 0.0
H664 H 0.3742 0.31933 0.18935 0.0
H665 H 0.3603 0.32987 0.16023 0.0
H666 H 0.33882 0.33077 0.19064 0.0
H667 H 0.34688 0.37461 0.18727 0.0
H668 H 0.36835 0.37385 0.15681 0.0
H669 H 0.38774 0.39312 0.18359 0.0
H670 H 0.49393 0.36948 0.21066 0.0
H671 H 0.51263 0.36548 0.16521 0.0
H672 H 0.4123 0.35405 0.13703 0.0
C673 C 0.36999 0.35967 0.23802 0.0
C674 C 0.3813 0.36316 0.26431 0.0
C675 C 0.4154 0.36745 0.26963 0.0
C676 C 0.43784 0.36806 0.24912 0.0
C677 C 0.4258 0.36447 0.22345 0.0
C678 C 0.39268 0.36044 0.21785 0.0
C679 C 0.38595 0.35693 0.18865 0.0
C680 C 0.3635 0.33279 0.18183 0.0
C681 C 0.37137 0.37575 0.17849 0.0
C682 C 0.42044 0.35939 0.17865 0.0
C683 C 0.4431 0.36378 0.19899 0.0
C684 C 0.47644 0.36625 0.19456 0.0
C685 C 0.48684 0.36409 0.16865 0.0
C686 C 0.46398 0.35954 0.14748 0.0
C687 C 0.43039 0.35731 0.15272 0.0
H688 H 0.80686 0.68367 0.67271 0.0
H689 H 0.80105 0.68156 0.58768 0.0
H690 H 0.84155 0.65859 0.58514 0.0
H691 H 0.89462 0.68705 0.67784 0.0
H692 H 0.88903 0.66875 0.70534 0.0
H693 H 0.86149 0.68648 0.70043 0.0
H694 H 0.81181 0.65043 0.70068 0.0
H695 H 0.83919 0.63259 0.70546 0.0
H696 H 0.81085 0.62642 0.67807 0.0
H697 H 0.88041 0.63419 0.59184 0.0
H698 H 0.91437 0.60975 0.60728 0.0
H699 H 0.89486 0.6277 0.68796 0.0
C700 C 0.81446 0.67868 0.65354 0.0
C701 C 0.8009 0.68452 0.63038 0.0
C702 C 0.81115 0.67734 0.60569 0.0
C703 C 0.83418 0.66432 0.60405 0.0
C704 C 0.84671 0.65859 0.62726 0.0
C705 C 0.83727 0.66556 0.65154 0.0
C706 C 0.85325 0.65617 0.67349 0.0
C707 C 0.87595 0.67579 0.69026 0.0
C708 C 0.82722 0.64047 0.69041 0.0
C709 C 0.8728 0.64258 0.65774 0.0
C710 C 0.8689 0.64435 0.63112 0.0
C711 C 0.88391 0.63286 0.61265 0.0
C712 C 0.9033 0.6191 0.62162 0.0
C713 C 0.90745 0.61687 0.64884 0.0
C714 C 0.89205 0.62892 0.66704 0.0
H715 H 0.90776 0.30607 0.24762 0.0
H716 H 0.83327 0.29104 0.30766 0.0
H717 H 0.84146 0.33282 0.31747 0.0
H718 H 0.96205 0.35516 0.27889 0.0
H719 H 0.97168 0.37086 0.24942 0.0
H720 H 0.96007 0.33992 0.24746 0.0
H721 H 0.91306 0.33992 0.21486 0.0
H722 H 0.92463 0.37088 0.21664 0.0
H723 H 0.88309 0.35526 0.22392 0.0
H724 H 0.86192 0.37616 0.32308 0.0
H725 H 0.88817 0.41751 0.32131 0.0
H726 H 0.94306 0.40404 0.25272 0.0
C727 C 0.89325 0.31168 0.26281 0.0
C728 C 0.87022 0.29559 0.2772 0.0
C729 C 0.85113 0.3033 0.29661 0.0
C730 C 0.85565 0.32691 0.30228 0.0
C731 C 0.87873 0.34244 0.28782 0.0
C732 C 0.89672 0.33513 0.26813 0.0
C733 C 0.91906 0.35528 0.25487 0.0
C734 C 0.95536 0.3553 0.25785 0.0
C735 C 0.90937 0.35533 0.22586 0.0
C736 C 0.91155 0.37508 0.27065 0.0
C737 C 0.88848 0.36735 0.2897 0.0
C738 C 0.87942 0.38245 0.3078 0.0
C739 C 0.89436 0.40607 0.30642 0.0
C740 C 0.91774 0.41458 0.28668 0.0
C741 C 0.92584 0.39859 0.26839 0.0
H742 H 0.1316 0.38434 0.7922 0.0
H743 H 0.17391 0.3627 0.721 0.0
H744 H 0.1557 0.39159 0.69669 0.0
H745 H 0.06063 0.39208 0.76331 0.0
H746 H 0.05925 0.41716 0.78336 0.0
H747 H 0.07828 0.39638 0.79588 0.0
H748 H 0.13233 0.42825 0.80495 0.0
H749 H 0.11333 0.44921 0.79274 0.0
H750 H 0.15127 0.44604 0.77875 0.0
H751 H 0.12823 0.42011 0.67928 0.0
H752 H 0.0963 0.44778 0.6705 0.0
H753 H 0.07371 0.45191 0.75341 0.0
C754 C 0.1376 0.38596 0.77161 0.0
C755 C 0.15424 0.37126 0.75852 0.0
C756 C 0.16132 0.37381 0.73149 0.0
C757 C 0.15104 0.39015 0.71749 0.0
C758 C 0.13395 0.40395 0.73084 0.0
C759 C 0.12763 0.40222 0.75736 0.0
C760 C 0.1077 0.41848 0.76683 0.0
C761 C 0.0745 0.40523 0.778 0.0
C762 C 0.12734 0.43657 0.78701 0.0
C763 C 0.10314 0.42921 0.74136 0.0
C764 C 0.11856 0.42066 0.72086 0.0
C765 C 0.11654 0.42724 0.69526 0.0
C766 C 0.09843 0.44306 0.6905 0.0
C767 C 0.0826 0.45224 0.71126 0.0
C768 C 0.08522 0.44516 0.73702 0.0
H769 H 0.22733 0.73299 0.25394 0.0
H770 H 0.22244 0.76429 0.33165 0.0
H771 H 0.17321 0.73318 0.34107 0.0
H772 H 0.13796 0.71225 0.24271 0.0
H773 H 0.14113 0.68606 0.22583 0.0
H774 H 0.17444 0.7118 0.22441 0.0
H775 H 0.21467 0.69004 0.24202 0.0
H776 H 0.18152 0.66429 0.24358 0.0
H777 H 0.2058 0.67576 0.2725 0.0
H778 H 0.12734 0.69706 0.34341 0.0
H779 H 0.08805 0.65877 0.33833 0.0
H780 H 0.12144 0.65172 0.25853 0.0
C781 C 0.21567 0.7335 0.27281 0.0
C782 C 0.22878 0.75112 0.29204 0.0
C783 C 0.21286 0.75101 0.31657 0.0
C784 C 0.18482 0.73343 0.32211 0.0
C785 C 0.17282 0.71615 0.30287 0.0
C786 C 0.1876 0.71612 0.27865 0.0
C787 C 0.17068 0.69499 0.26185 0.0
C788 C 0.15512 0.70169 0.23725 0.0
C789 C 0.19459 0.68042 0.25458 0.0
C790 C 0.14462 0.6829 0.28065 0.0
C791 C 0.14611 0.69545 0.30412 0.0
C792 C 0.12558 0.68723 0.32496 0.0
C793 C 0.10317 0.66548 0.32181 0.0
C794 C 0.10143 0.65216 0.29799 0.0
C795 C 0.12222 0.6613 0.27708 0.0
H796 H 0.77123 0.79567 0.60475 0.0
H797 H 0.70695 0.80599 0.66803 0.0
H798 H 0.71594 0.84638 0.65686 0.0
H799 H 0.8289 0.85256 0.60907 0.0
H800 H 0.83286 0.85423 0.57399 0.0
H801 H 0.82393 0.82669 0.58864 0.0
H802 H 0.77203 0.81226 0.55909 0.0
H803 H 0.78078 0.83973 0.54439 0.0
H804 H 0.74146 0.82823 0.5594 0.0
H805 H 0.73006 0.88538 0.63745 0.0
H806 H 0.74698 0.9195 0.61071 0.0
H807 H 0.79894 0.88287 0.55823 0.0
C808 C 0.7594 0.8065 0.61653 0.0
C809 C 0.73935 0.79777 0.63798 0.0
C810 C 0.72375 0.81242 0.65245 0.0
C811 C 0.72835 0.83539 0.64597 0.0
C812 C 0.74833 0.84341 0.62477 0.0
C813 C 0.76349 0.82937 0.61018 0.0
C814 C 0.78213 0.84177 0.58737 0.0
C815 C 0.81915 0.84394 0.58994 0.0
C816 C 0.76826 0.82978 0.56101 0.0
C817 C 0.77486 0.86492 0.59128 0.0
C818 C 0.75552 0.86558 0.61305 0.0
C819 C 0.7452 0.88505 0.62035 0.0
C820 C 0.75475 0.9043 0.60491 0.0
C821 C 0.77426 0.90393 0.58228 0.0
C822 C 0.78449 0.88392 0.57559 0.0
H823 H 0.75824 0.30456 0.16891 0.0
H824 H 0.70775 0.30251 0.24341 0.0
H825 H 0.66369 0.3155 0.22224 0.0
H826 H 0.73691 0.35508 0.1451 0.0
H827 H 0.7316 0.3436 0.1117 0.0
H828 H 0.76034 0.33578 0.13312 0.0
H829 H 0.73097 0.29267 0.12392 0.0
H830 H 0.7022 0.30034 0.10249 0.0
H831 H 0.68743 0.2825 0.12967 0.0
H832 H 0.62359 0.32646 0.19244 0.0
H833 H 0.59012 0.33423 0.15609 0.0
H834 H 0.66664 0.32877 0.10107 0.0
C835 C 0.73815 0.30711 0.18088 0.0
C836 C 0.7365 0.30257 0.20785 0.0
C837 C 0.70958 0.30591 0.22273 0.0
C838 C 0.68448 0.31334 0.2109 0.0
C839 C 0.68671 0.31742 0.18421 0.0
C840 C 0.71289 0.31447 0.16939 0.0
C841 C 0.70865 0.31894 0.14083 0.0
C842 C 0.736 0.33958 0.13219 0.0
C843 C 0.70721 0.29732 0.1232 0.0
C844 C 0.67571 0.32449 0.14179 0.0
C845 C 0.66357 0.32368 0.16702 0.0
C846 C 0.63294 0.32728 0.17263 0.0
C847 C 0.61405 0.33156 0.15186 0.0
C848 C 0.6258 0.33213 0.12578 0.0
C849 C 0.65724 0.32883 0.12084 0.0
H850 H 0.28486 0.27661 0.68139 0.0
H851 H 0.38045 0.31276 0.71397 0.0
H852 H 0.40713 0.29261 0.68085 0.0
H853 H 0.30165 0.22353 0.671 0.0
H854 H 0.27817 0.21592 0.64096 0.0
H855 H 0.26717 0.23509 0.66518 0.0
H856 H 0.27203 0.26578 0.63041 0.0
H857 H 0.28303 0.24666 0.60602 0.0
H858 H 0.3097 0.2751 0.61238 0.0
H859 H 0.42284 0.26605 0.64596 0.0
H860 H 0.42581 0.2346 0.61391 0.0
H861 H 0.31972 0.21626 0.60496 0.0
C862 C 0.31145 0.28064 0.68136 0.0
C863 C 0.33058 0.29635 0.70021 0.0
C864 C 0.36529 0.30084 0.69965 0.0
C865 C 0.38066 0.28953 0.68086 0.0
C866 C 0.36096 0.27387 0.66277 0.0
C867 C 0.32709 0.26948 0.6629 0.0
C868 C 0.3112 0.25077 0.64269 0.0
C869 C 0.28821 0.23012 0.65575 0.0
C870 C 0.29292 0.26015 0.62163 0.0
C871 C 0.34133 0.24485 0.63158 0.0
C872 C 0.36989 0.25853 0.64307 0.0
C873 C 0.40065 0.25543 0.63664 0.0
C874 C 0.40213 0.23761 0.61835 0.0
C875 C 0.37299 0.22301 0.60702 0.0
C876 C 0.34238 0.22709 0.61341 0.0
H877 H 0.445 0.84445 0.27044 0.0
H878 H 0.33916 0.83251 0.26488 0.0
H879 H 0.34169 0.82523 0.21695 0.0
H880 H 0.46429 0.87441 0.21133 0.0
H881 H 0.49768 0.86206 0.20288 0.0
H882 H 0.48721 0.86557 0.23677 0.0
H883 H 0.48006 0.82213 0.24272 0.0
H884 H 0.49059 0.81851 0.20886 0.0
H885 H 0.45236 0.80128 0.22129 0.0
H886 H 0.35645 0.82028 0.16914 0.0
H887 H 0.38196 0.81793 0.12578 0.0
H888 H 0.47798 0.8327 0.16329 0.0
C889 C 0.42231 0.84026 0.25916 0.0
C890 C 0.39178 0.83864 0.27147 0.0
C891 C 0.36269 0.83317 0.25602 0.0
C892 C 0.36395 0.82923 0.22873 0.0
C893 C 0.39449 0.83085 0.21725 0.0
C894 C 0.42313 0.8362 0.23202 0.0
C895 C 0.45287 0.83707 0.21504 0.0
C896 C 0.47692 0.86122 0.2166 0.0
C897 C 0.46997 0.81865 0.22242 0.0
C898 C 0.43658 0.83158 0.18832 0.0
C899 C 0.40291 0.82801 0.18994 0.0
C900 C 0.38278 0.82292 0.16768 0.0
C901 C 0.39748 0.8215 0.14314 0.0
C902 C 0.43201 0.82514 0.14105 0.0
C903 C 0.45161 0.83014 0.16409 0.0
H904 H 0.89496 0.17333 0.33428 0.0
H905 H 0.79694 0.16566 0.30277 0.0
H906 H 0.77498 0.13365 0.33178 0.0
H907 H 0.88849 0.11385 0.33922 0.0
H908 H 0.91137 0.11725 0.36956 0.0
H909 H 0.91936 0.14028 0.34721 0.0
H910 H 0.90817 0.16809 0.38412 0.0
H911 H 0.9004 0.14519 0.40664 0.0
H912 H 0.86984 0.16055 0.40156 0.0
H913 H 0.76406 0.10138 0.36262 0.0
H914 H 0.76452 0.07192 0.39438 0.0
H915 H 0.86941 0.1011 0.40669 0.0
C916 C 0.86882 0.16508 0.33364 0.0
C917 C 0.84766 0.17204 0.31624 0.0
C918 C 0.81364 0.16068 0.31595 0.0
C919 C 0.80092 0.14245 0.33233 0.0
C920 C 0.82252 0.13583 0.34898 0.0
C921 C 0.8557 0.14688 0.3499 0.0
C922 C 0.87365 0.13615 0.3693 0.0
C923 C 0.89976 0.1263 0.35549 0.0
C924 C 0.8889 0.15353 0.39174 0.0
C925 C 0.84543 0.11718 0.37891 0.0
C926 C 0.81615 0.11733 0.36696 0.0
C927 C 0.78678 0.10124 0.37231 0.0
C928 C 0.78728 0.08463 0.3905 0.0
C929 C 0.81695 0.08423 0.40323 0.0
C930 C 0.84637 0.10077 0.39719 0.0
H931 H 0.30761 0.34954 0.82519 0.0
H932 H 0.24596 0.2808 0.83605 0.0
H933 H 0.2882 0.27314 0.86507 0.0
H934 H 0.38854 0.33631 0.82899 0.0
H935 H 0.40727 0.36254 0.8477 0.0
H936 H 0.37455 0.36166 0.82471 0.0
H937 H 0.34149 0.37589 0.86169 0.0
H938 H 0.37404 0.37681 0.88474 0.0
H939 H 0.33277 0.36018 0.89124 0.0
H940 H 0.33496 0.27341 0.89432 0.0
H941 H 0.38143 0.28248 0.92549 0.0
H942 H 0.41127 0.35236 0.89927 0.0
C943 C 0.30352 0.33275 0.83328 0.0
C944 C 0.27392 0.31557 0.82822 0.0
C945 C 0.26869 0.29404 0.83965 0.0
C946 C 0.29256 0.28952 0.85601 0.0
C947 C 0.32133 0.30687 0.86102 0.0
C948 C 0.32687 0.32814 0.85024 0.0
C949 C 0.3583 0.34449 0.86115 0.0
C950 C 0.38367 0.35167 0.83933 0.0
C951 C 0.35121 0.36558 0.87556 0.0
C952 C 0.36911 0.3292 0.88009 0.0
C953 C 0.34772 0.30745 0.87922 0.0
C954 C 0.35187 0.29039 0.89525 0.0
C955 C 0.37821 0.2958 0.91308 0.0
C956 C 0.39983 0.31824 0.91518 0.0
C957 C 0.39545 0.335 0.89804 0.0
H958 H 0.43181 0.9378 0.40126 0.0
H959 H 0.33032 0.90023 0.38523 0.0
H960 H 0.31173 0.93214 0.40642 0.0
H961 H 0.41798 0.96042 0.46464 0.0
H962 H 0.44764 0.98773 0.46113 0.0
H963 H 0.45298 0.96242 0.44363 0.0
H964 H 0.45567 0.98276 0.39973 0.0
H965 H 0.45037 0.00816 0.41711 0.0
H966 H 0.42256 0.99472 0.39077 0.0
H967 H 0.30423 0.96789 0.43025 0.0
H968 H 0.30837 0.00467 0.45498 0.0
H969 H 0.41473 0.01814 0.45653 0.0
C970 C 0.40568 0.93635 0.40197 0.0
C971 C 0.38251 0.91655 0.39149 0.0
C972 C 0.34852 0.91525 0.39309 0.0
C973 C 0.33772 0.93329 0.40507 0.0
C974 C 0.36121 0.95248 0.4154 0.0
C975 C 0.39447 0.95412 0.41397 0.0
C976 C 0.41463 0.97628 0.42728 0.0
C977 C 0.43447 0.97141 0.45055 0.0
C978 C 0.43713 0.99137 0.40754 0.0
C979 C 0.3875 0.98683 0.43648 0.0
C980 C 0.35688 0.97288 0.42938 0.0
C981 C 0.32809 0.97894 0.43594 0.0
C982 C 0.33069 0.99979 0.45016 0.0
C983 C 0.36186 0.01433 0.45776 0.0
C984 C 0.39055 0.00763 0.45072 0.0
H985 H 0.61312 0.7933 0.76978 0.0
H986 H 0.71687 0.80774 0.78965 0.0
H987 H 0.70439 0.81588 0.83579 0.0
H988 H 0.59526 0.83739 0.81391 0.0
H989 H 0.55515 0.81984 0.82217 0.0
H990 H 0.57237 0.81587 0.7905 0.0
H991 H 0.56468 0.77276 0.7988 0.0
H992 H 0.5476 0.77662 0.83053 0.0
H993 H 0.58256 0.76482 0.82778 0.0
H994 H 0.68049 0.82081 0.88001 0.0
H995 H 0.64703 0.82313 0.91919 0.0
H996 H 0.55892 0.80661 0.87045 0.0
C997 C 0.63328 0.79832 0.78377 0.0
C998 C 0.666 0.79987 0.77605 0.0
C999 C 0.69161 0.80646 0.79504 0.0
C1000 C 0.68478 0.81111 0.82132 0.0
C1001 C 0.65224 0.8092 0.82829 0.0
C1002 C 0.62691 0.80309 0.81007 0.0
C1003 C 0.59404 0.80199 0.8228 0.0
C1004 C 0.57828 0.81984 0.81168 0.0
C1005 C 0.57086 0.7776 0.8198 0.0
C1006 C 0.60482 0.80819 0.85108 0.0
C1007 C 0.63849 0.81232 0.85379 0.0
C1008 C 0.65414 0.81786 0.8781 0.0
C1009 C 0.63489 0.81928 0.90023 0.0
C1010 C 0.60029 0.81525 0.89797 0.0
C1011 C 0.58522 0.80964 0.87295 0.0
loop_
_geom_bond_atom_site_label_1
_geom_bond_atom_site_label_2
_geom_bond_distance
_geom_bond_site_symmetry_2
_ccdc_geom_bond_type
O0 Cd1 2.300 . S
O0 C7 1.275 . S
Cd1 O0 2.300 . S
Cd1 O9 2.381 . S
Cd1 O10 2.378 . S
O2 Cd3 2.385 . S
O2 C7 1.255 . S
Cd3 O2 2.385 . S
Cd3 O4 2.317 . S
O4 Cd3 2.317 . S
O4 C5 1.232 . S
C5 O4 1.232 . S
C5 O6 1.218 . S
O6 C5 1.218 . S
C7 O0 1.275 . S
C7 O2 1.255 . S
C8 O9 1.258 . S
C8 O10 1.256 . S
O9 Cd1 2.381 . S
O9 C8 1.258 . S
O10 Cd1 2.378 . S
O10 C8 1.256 . S
O11 Cd12 2.300 . S
O11 C18 1.275 . S
Cd12 O11 2.300 . S
Cd12 O20 2.381 . S
Cd12 O21 2.378 . S
O13 Cd14 2.385 . S
O13 C18 1.255 . S
Cd14 O13 2.385 . S
Cd14 O15 2.317 . S
O15 Cd14 2.317 . S
O15 C16 1.232 . S
C16 O15 1.232 . S
C16 O17 1.218 . S
O17 C16 1.218 . S
C18 O11 1.275 . S
C18 O13 1.255 . S
C19 O20 1.258 . S
C19 O21 1.256 . S
O20 Cd12 2.381 . S
O20 C19 1.258 . S
O21 Cd12 2.378 . S
O21 C19 1.256 . S
O22 Cd23 2.300 . S
O22 C29 1.275 . S
Cd23 O22 2.300 . S
Cd23 O31 2.381 . S
Cd23 O32 2.378 . S
O24 Cd25 2.385 . S
O24 C29 1.255 . S
Cd25 O24 2.385 . S
Cd25 O26 2.317 . S
O26 Cd25 2.317 . S
O26 C27 1.232 . S
C27 O26 1.232 . S
C27 O28 1.218 . S
O28 C27 1.218 . S
C29 O22 1.275 . S
C29 O24 1.255 . S
C30 O31 1.258 . S
C30 O32 1.256 . S
O31 Cd23 2.381 . S
O31 C30 1.258 . S
O32 Cd23 2.378 . S
O32 C30 1.256 . S
O33 Cd34 2.300 . S
O33 C40 1.275 . S
Cd34 O33 2.300 . S
Cd34 O42 2.381 . S
Cd34 O43 2.378 . S
O35 Cd36 2.385 . S
O35 C40 1.255 . S
Cd36 O35 2.385 . S
Cd36 O37 2.317 . S
O37 Cd36 2.317 . S
O37 C38 1.232 . S
C38 O37 1.232 . S
C38 O39 1.218 . S
O39 C38 1.218 . S
C40 O33 1.275 . S
C40 O35 1.255 . S
C41 O42 1.258 . S
C41 O43 1.256 . S
O42 Cd34 2.381 . S
O42 C41 1.258 . S
O43 Cd34 2.378 . S
O43 C41 1.256 . S
O44 Cd45 2.300 . S
O44 C51 1.275 . S
Cd45 O44 2.300 . S
Cd45 O53 2.381 . S
Cd45 O54 2.378 . S
O46 Cd47 2.385 . S
O46 C51 1.255 . S
Cd47 O46 2.385 . S
Cd47 O48 2.317 . S
O48 Cd47 2.317 . S
O48 C49 1.232 . S
C49 O48 1.232 . S
C49 O50 1.218 . S
O50 C49 1.218 . S
C51 O44 1.275 . S
C51 O46 1.255 . S
C52 O53 1.258 . S
C52 O54 1.256 . S
O53 Cd45 2.381 . S
O53 C52 1.258 . S
O54 Cd45 2.378 . S
O54 C52 1.256 . S
O55 Cd56 2.300 . S
O55 C62 1.275 . S
Cd56 O55 2.300 . S
Cd56 O64 2.381 . S
Cd56 O65 2.378 . S
O57 Cd58 2.385 . S
O57 C62 1.255 . S
Cd58 O57 2.385 . S
Cd58 O59 2.317 . S
O59 Cd58 2.317 . S
O59 C60 1.232 . S
C60 O59 1.232 . S
C60 O61 1.218 . S
O61 C60 1.218 . S
C62 O55 1.275 . S
C62 O57 1.255 . S
C63 O64 1.258 . S
C63 O65 1.256 . S
O64 Cd56 2.381 . S
O64 C63 1.258 . S
O65 Cd56 2.378 . S
O65 C63 1.256 . S
O66 Cd67 2.300 . S
O66 C73 1.275 . S
Cd67 O66 2.300 . S
Cd67 O75 2.381 . S
Cd67 O76 2.378 . S
O68 Cd69 2.385 . S
O68 C73 1.255 . S
Cd69 O68 2.385 . S
Cd69 O70 2.317 . S
O70 Cd69 2.317 . S
O70 C71 1.232 . S
C71 O70 1.232 . S
C71 O72 1.218 . S
O72 C71 1.218 . S
C73 O66 1.275 . S
C73 O68 1.255 . S
C74 O75 1.258 . S
C74 O76 1.256 . S
O75 Cd67 2.381 . S
O75 C74 1.258 . S
O76 Cd67 2.378 . S
O76 C74 1.256 . S
O77 Cd78 2.300 . S
O77 C84 1.275 . S
Cd78 O77 2.300 . S
Cd78 O86 2.381 . S
Cd78 O87 2.378 . S
O79 Cd80 2.385 . S
O79 C84 1.255 . S
Cd80 O79 2.385 . S
Cd80 O81 2.317 . S
O81 Cd80 2.317 . S
O81 C82 1.232 . S
C82 O81 1.232 . S
C82 O83 1.218 . S
O83 C82 1.218 . S
C84 O77 1.275 . S
C84 O79 1.255 . S
C85 O86 1.258 . S
C85 O87 1.256 . S
O86 Cd78 2.381 . S
O86 C85 1.258 . S
O87 Cd78 2.378 . S
O87 C85 1.256 . S
C88 C89 1.384 . S
C88 C90 1.384 1_655 S
C88 H116 0.931 . S
C89 C88 1.384 . S
C89 C92 1.382 . S
C90 C88 1.384 1_455 S
C90 C91 1.381 . S
C90 H117 0.930 . S
C91 C90 1.381 . S
C91 C93 1.381 1_455 S
C91 C94 1.487 . S
C92 C89 1.382 . S
C92 C93 1.387 . S
C92 H118 0.930 . S
C93 C91 1.381 1_655 S
C93 C92 1.387 . S
C93 H119 0.931 . S
C94 C91 1.487 . S
C94 C101 1.399 . S
C94 N132 1.343 . S
C95 C96 1.384 . S
C95 C97 1.384 . S
C95 H120 0.931 . S
C96 C95 1.384 . S
C96 C99 1.382 . S
C97 C95 1.384 . S
C97 C98 1.381 . S
C97 H121 0.930 . S
C98 C97 1.381 . S
C98 C100 1.381 . S
C98 C101 1.487 . S
C99 C96 1.382 . S
C99 C100 1.387 . S
C99 H122 0.930 . S
C100 C98 1.381 . S
C100 C99 1.387 . S
C100 H123 0.931 . S
C101 C94 1.399 . S
C101 C98 1.487 . S
C101 N133 1.343 . S
C102 C103 1.384 . S
C102 C104 1.384 . S
C102 H124 0.931 . S
C103 C102 1.384 . S
C103 C106 1.382 . S
C104 C102 1.384 . S
C104 C105 1.381 . S
C104 H125 0.930 . S
C105 C104 1.381 . S
C105 C107 1.381 . S
C105 C108 1.487 . S
C106 C103 1.382 . S
C106 C107 1.387 . S
C106 H126 0.930 . S
C107 C105 1.381 . S
C107 C106 1.387 . S
C107 H127 0.931 . S
C108 C105 1.487 . S
C108 C115 1.399 . S
C108 N133 1.343 . S
C109 C110 1.384 . S
C109 C111 1.384 1_655 S
C109 H128 0.931 . S
C110 C109 1.384 . S
C110 C113 1.382 . S
C111 C109 1.384 1_455 S
C111 C112 1.381 . S
C111 H129 0.930 . S
C112 C111 1.381 . S
C112 C114 1.381 1_455 S
C112 C115 1.487 . S
C113 C110 1.382 . S
C113 C114 1.387 . S
C113 H130 0.930 . S
C114 C112 1.381 1_655 S
C114 C113 1.387 . S
C114 H131 0.931 . S
C115 C108 1.399 . S
C115 C112 1.487 . S
C115 N132 1.343 . S
H116 C88 0.931 . S
H117 C90 0.930 . S
H118 C92 0.930 . S
H119 C93 0.931 . S
H120 C95 0.931 . S
H121 C97 0.930 . S
H122 C99 0.930 . S
H123 C100 0.931 . S
H124 C102 0.931 . S
H125 C104 0.930 . S
H126 C106 0.930 . S
H127 C107 0.931 . S
H128 C109 0.931 . S
H129 C111 0.930 . S
H130 C113 0.930 . S
H131 C114 0.931 . S
N132 C94 1.343 . S
N132 C115 1.343 . S
N133 C101 1.343 . S
N133 C108 1.343 . S
C134 C135 1.384 . S
C134 C136 1.384 . S
C134 H162 0.931 . S
C135 C134 1.384 . S
C135 C138 1.382 . S
C136 C134 1.384 . S
C136 C137 1.381 . S
C136 H163 0.930 . S
C137 C136 1.381 . S
C137 C139 1.381 . S
C137 C140 1.487 . S
C138 C135 1.382 . S
C138 C139 1.387 . S
C138 H164 0.930 . S
C139 C137 1.381 . S
C139 C138 1.387 . S
C139 H165 0.931 . S
C140 C137 1.487 . S
C140 C147 1.399 1_655 S
C140 N178 1.343 . S
C141 C142 1.384 . S
C141 C143 1.384 . S
C141 H166 0.931 . S
C142 C141 1.384 . S
C142 C145 1.382 . S
C143 C141 1.384 . S
C143 C144 1.381 . S
C143 H167 0.930 . S
C144 C143 1.381 . S
C144 C146 1.381 . S
C144 C147 1.487 . S
C145 C142 1.382 . S
C145 C146 1.387 . S
C145 H168 0.930 . S
C146 C144 1.381 . S
C146 C145 1.387 . S
C146 H169 0.931 . S
C147 C140 1.399 1_455 S
C147 C144 1.487 . S
C147 N179 1.343 . S
C148 C149 1.384 . S
C148 C150 1.384 . S
C148 H170 0.931 . S
C149 C148 1.384 . S
C149 C152 1.382 . S
C150 C148 1.384 . S
C150 C151 1.381 . S
C150 H171 0.930 . S
C151 C150 1.381 . S
C151 C153 1.381 . S
C151 C154 1.487 . S
C152 C149 1.382 . S
C152 C153 1.387 . S
C152 H172 0.930 . S
C153 C151 1.381 . S
C153 C152 1.387 . S
C153 H173 0.931 . S
C154 C151 1.487 . S
C154 C161 1.399 1_455 S
C154 N179 1.343 . S
C155 C156 1.384 . S
C155 C157 1.384 . S
C155 H174 0.931 . S
C156 C155 1.384 . S
C156 C159 1.382 . S
C157 C155 1.384 . S
C157 C158 1.381 . S
C157 H175 0.930 . S
C158 C157 1.381 . S
C158 C160 1.381 . S
C158 C161 1.487 . S
C159 C156 1.382 . S
C159 C160 1.387 . S
C159 H176 0.930 . S
C160 C158 1.381 . S
C160 C159 1.387 . S
C160 H177 0.931 . S
C161 C154 1.399 1_655 S
C161 C158 1.487 . S
C161 N178 1.343 . S
H162 C134 0.931 . S
H163 C136 0.930 . S
H164 C138 0.930 . S
H165 C139 0.931 . S
H166 C141 0.931 . S
H167 C143 0.930 . S
H168 C145 0.930 . S
H169 C146 0.931 . S
H170 C148 0.931 . S
H171 C150 0.930 . S
H172 C152 0.930 . S
H173 C153 0.931 . S
H174 C155 0.931 . S
H175 C157 0.930 . S
H176 C159 0.930 . S
H177 C160 0.931 . S
N178 C140 1.343 . S
N178 C161 1.343 . S
N179 C147 1.343 . S
N179 C154 1.343 . S
C180 C181 1.384 . S
C180 C182 1.384 . S
C180 H208 0.931 . S
C181 C180 1.384 . S
C181 C184 1.382 . S
C182 C180 1.384 . S
C182 C183 1.381 . S
C182 H209 0.930 . S
C183 C182 1.381 . S
C183 C185 1.381 . S
C183 C186 1.487 . S
C184 C181 1.382 . S
C184 C185 1.387 . S
C184 H210 0.930 . S
C185 C183 1.381 . S
C185 C184 1.387 . S
C185 H211 0.931 . S
C186 C183 1.487 . S
C186 C193 1.399 . S
C186 N224 1.343 . S
C187 C188 1.384 . S
C187 C189 1.384 . S
C187 H212 0.931 . S
C188 C187 1.384 . S
C188 C191 1.382 . S
C189 C187 1.384 . S
C189 C190 1.381 . S
C189 H213 0.930 . S
C190 C189 1.381 . S
C190 C192 1.381 . S
C190 C193 1.487 . S
C191 C188 1.382 . S
C191 C192 1.387 . S
C191 H214 0.930 . S
C192 C190 1.381 . S
C192 C191 1.387 . S
C192 H215 0.931 . S
C193 C186 1.399 . S
C193 C190 1.487 . S
C193 N225 1.343 . S
C194 C195 1.384 . S
C194 C196 1.384 . S
C194 H216 0.931 . S
C195 C194 1.384 . S
C195 C198 1.382 . S
C196 C194 1.384 . S
C196 C197 1.381 . S
C196 H217 0.930 . S
C197 C196 1.381 . S
C197 C199 1.381 . S
C197 C200 1.487 . S
C198 C195 1.382 . S
C198 C199 1.387 . S
C198 H218 0.930 . S
C199 C197 1.381 . S
C199 C198 1.387 . S
C199 H219 0.931 . S
C200 C197 1.487 . S
C200 C207 1.399 . S
C200 N225 1.343 . S
C201 C202 1.384 . S
C201 C203 1.384 . S
C201 H220 0.931 . S
C202 C201 1.384 . S
C202 C205 1.382 . S
C203 C201 1.384 . S
C203 C204 1.381 . S
C203 H221 0.930 . S
C204 C203 1.381 . S
C204 C206 1.381 . S
C204 C207 1.487 . S
C205 C202 1.382 . S
C205 C206 1.387 . S
C205 H222 0.930 . S
C206 C204 1.381 . S
C206 C205 1.387 . S
C206 H223 0.931 . S
C207 C200 1.399 . S
C207 C204 1.487 . S
C207 N224 1.343 . S
H208 C180 0.931 . S
H209 C182 0.930 . S
H210 C184 0.930 . S
H211 C185 0.931 . S
H212 C187 0.931 . S
H213 C189 0.930 . S
H214 C191 0.930 . S
H215 C192 0.931 . S
H216 C194 0.931 . S
H217 C196 0.930 . S
H218 C198 0.930 . S
H219 C199 0.931 . S
H220 C201 0.931 . S
H221 C203 0.930 . S
H222 C205 0.930 . S
H223 C206 0.931 . S
N224 C186 1.343 . S
N224 C207 1.343 . S
N225 C193 1.343 . S
N225 C200 1.343 . S
C226 C227 1.384 . S
C226 C228 1.384 . S
C226 H254 0.931 . S
C227 C226 1.384 . S
C227 C230 1.382 . S
C228 C226 1.384 . S
C228 C229 1.381 . S
C228 H255 0.930 . S
C229 C228 1.381 . S
C229 C231 1.381 . S
C229 C232 1.487 . S
C230 C227 1.382 . S
C230 C231 1.387 . S
C230 H256 0.930 . S
C231 C229 1.381 . S
C231 C230 1.387 . S
C231 H257 0.931 . S
C232 C229 1.487 . S
C232 C239 1.399 . S
C232 N270 1.343 1_556 S
C233 C234 1.384 . S
C233 C235 1.384 . S
C233 H258 0.931 . S
C234 C233 1.384 . S
C234 C237 1.382 . S
C235 C233 1.384 . S
C235 C236 1.381 . S
C235 H259 0.930 . S
C236 C235 1.381 . S
C236 C238 1.381 . S
C236 C239 1.487 . S
C237 C234 1.382 . S
C237 C238 1.387 . S
C237 H260 0.930 . S
C238 C236 1.381 . S
C238 C237 1.387 . S
C238 H261 0.931 . S
C239 C232 1.399 . S
C239 C236 1.487 . S
C239 N271 1.343 1_556 S
C240 C241 1.384 . S
C240 C242 1.384 . S
C240 H262 0.931 . S
C241 C240 1.384 . S
C241 C244 1.382 . S
C242 C240 1.384 . S
C242 C243 1.381 . S
C242 H263 0.930 . S
C243 C242 1.381 . S
C243 C245 1.381 . S
C243 C246 1.487 . S
C244 C241 1.382 . S
C244 C245 1.387 . S
C244 H264 0.930 . S
C245 C243 1.381 . S
C245 C244 1.387 . S
C245 H265 0.931 . S
C246 C243 1.487 . S
C246 C253 1.399 . S
C246 N271 1.343 . S
C247 C248 1.384 . S
C247 C249 1.384 . S
C247 H266 0.931 . S
C248 C247 1.384 . S
C248 C251 1.382 . S
C249 C247 1.384 . S
C249 C250 1.381 . S
C249 H267 0.930 . S
C250 C249 1.381 . S
C250 C252 1.381 . S
C250 C253 1.487 . S
C251 C248 1.382 . S
C251 C252 1.387 . S
C251 H268 0.930 . S
C252 C250 1.381 . S
C252 C251 1.387 . S
C252 H269 0.931 . S
C253 C246 1.399 . S
C253 C250 1.487 . S
C253 N270 1.343 . S
H254 C226 0.931 . S
H255 C228 0.930 . S
H256 C230 0.930 . S
H257 C231 0.931 . S
H258 C233 0.931 . S
H259 C235 0.930 . S
H260 C237 0.930 . S
H261 C238 0.931 . S
H262 C240 0.931 . S
H263 C242 0.930 . S
H264 C244 0.930 . S
H265 C245 0.931 . S
H266 C247 0.931 . S
H267 C249 0.930 . S
H268 C251 0.930 . S
H269 C252 0.931 . S
N270 C232 1.343 1_554 S
N270 C253 1.343 . S
N271 C239 1.343 1_554 S
N271 C246 1.343 . S
C272 C273 1.384 . S
C272 C274 1.384 . S
C272 H300 0.931 . S
C273 C272 1.384 . S
C273 C276 1.382 . S
C274 C272 1.384 . S
C274 C275 1.381 . S
C274 H301 0.930 . S
C275 C274 1.381 . S
C275 C277 1.381 . S
C275 C278 1.487 . S
C276 C273 1.382 . S
C276 C277 1.387 . S
C276 H302 0.930 . S
C277 C275 1.381 . S
C277 C276 1.387 . S
C277 H303 0.931 . S
C278 C275 1.487 . S
C278 C285 1.399 . S
C278 N316 1.343 . S
C279 C280 1.384 . S
C279 C281 1.384 . S
C279 H304 0.931 . S
C280 C279 1.384 . S
C280 C283 1.382 . S
C281 C279 1.384 . S
C281 C282 1.381 . S
C281 H305 0.930 . S
C282 C281 1.381 . S
C282 C284 1.381 . S
C282 C285 1.487 . S
C283 C280 1.382 . S
C283 C284 1.387 . S
C283 H306 0.930 . S
C284 C282 1.381 . S
C284 C283 1.387 . S
C284 H307 0.931 . S
C285 C278 1.399 . S
C285 C282 1.487 . S
C285 N317 1.343 . S
C286 C287 1.384 . S
C286 C288 1.384 . S
C286 H308 0.931 . S
C287 C286 1.384 . S
C287 C290 1.382 . S
C288 C286 1.384 . S
C288 C289 1.381 . S
C288 H309 0.930 . S
C289 C288 1.381 . S
C289 C291 1.381 . S
C289 C292 1.487 . S
C290 C287 1.382 . S
C290 C291 1.387 . S
C290 H310 0.930 . S
C291 C289 1.381 . S
C291 C290 1.387 . S
C291 H311 0.931 . S
C292 C289 1.487 . S
C292 C299 1.399 . S
C292 N317 1.343 1_565 S
C293 C294 1.384 . S
C293 C295 1.384 . S
C293 H312 0.931 . S
C294 C293 1.384 . S
C294 C297 1.382 . S
C295 C293 1.384 . S
C295 C296 1.381 . S
C295 H313 0.930 . S
C296 C295 1.381 . S
C296 C298 1.381 . S
C296 C299 1.487 . S
C297 C294 1.382 . S
C297 C298 1.387 . S
C297 H314 0.930 . S
C298 C296 1.381 . S
C298 C297 1.387 . S
C298 H315 0.931 . S
C299 C292 1.399 . S
C299 C296 1.487 . S
C299 N316 1.343 1_565 S
H300 C272 0.931 . S
H301 C274 0.930 . S
H302 C276 0.930 . S
H303 C277 0.931 . S
H304 C279 0.931 . S
H305 C281 0.930 . S
H306 C283 0.930 . S
H307 C284 0.931 . S
H308 C286 0.931 . S
H309 C288 0.930 . S
H310 C290 0.930 . S
H311 C291 0.931 . S
H312 C293 0.931 . S
H313 C295 0.930 . S
H314 C297 0.930 . S
H315 C298 0.931 . S
N316 C278 1.343 . S
N316 C299 1.343 1_545 S
N317 C285 1.343 . S
N317 C292 1.343 1_545 S
C318 C319 1.384 . S
C318 C320 1.384 . S
C318 H346 0.931 . S
C319 C318 1.384 . S
C319 C322 1.382 . S
C320 C318 1.384 . S
C320 C321 1.381 . S
C320 H347 0.930 . S
C321 C320 1.381 . S
C321 C323 1.381 . S
C321 C324 1.487 . S
C322 C319 1.382 . S
C322 C323 1.387 . S
C322 H348 0.930 . S
C323 C321 1.381 . S
C323 C322 1.387 . S
C323 H349 0.931 . S
C324 C321 1.487 . S
C324 C331 1.399 . S
C324 N362 1.343 1_556 S
C325 C326 1.384 . S
C325 C327 1.384 . S
C325 H350 0.931 . S
C326 C325 1.384 . S
C326 C329 1.382 . S
C327 C325 1.384 . S
C327 C328 1.381 . S
C327 H351 0.930 . S
C328 C327 1.381 . S
C328 C330 1.381 . S
C328 C331 1.487 . S
C329 C326 1.382 . S
C329 C330 1.387 . S
C329 H352 0.930 . S
C330 C328 1.381 . S
C330 C329 1.387 . S
C330 H353 0.931 . S
C331 C324 1.399 . S
C331 C328 1.487 . S
C331 N363 1.343 1_556 S
C332 C333 1.384 . S
C332 C334 1.384 . S
C332 H354 0.931 . S
C333 C332 1.384 . S
C333 C336 1.382 . S
C334 C332 1.384 . S
C334 C335 1.381 . S
C334 H355 0.930 . S
C335 C334 1.381 . S
C335 C337 1.381 . S
C335 C338 1.487 . S
C336 C333 1.382 . S
C336 C337 1.387 . S
C336 H356 0.930 . S
C337 C335 1.381 . S
C337 C336 1.387 . S
C337 H357 0.931 . S
C338 C335 1.487 . S
C338 C345 1.399 . S
C338 N363 1.343 . S
C339 C340 1.384 . S
C339 C341 1.384 . S
C339 H358 0.931 . S
C340 C339 1.384 . S
C340 C343 1.382 . S
C341 C339 1.384 . S
C341 C342 1.381 . S
C341 H359 0.930 . S
C342 C341 1.381 . S
C342 C344 1.381 . S
C342 C345 1.487 . S
C343 C340 1.382 . S
C343 C344 1.387 . S
C343 H360 0.930 . S
C344 C342 1.381 . S
C344 C343 1.387 . S
C344 H361 0.931 . S
C345 C338 1.399 . S
C345 C342 1.487 . S
C345 N362 1.343 . S
H346 C318 0.931 . S
H347 C320 0.930 . S
H348 C322 0.930 . S
H349 C323 0.931 . S
H350 C325 0.931 . S
H351 C327 0.930 . S
H352 C329 0.930 . S
H353 C330 0.931 . S
H354 C332 0.931 . S
H355 C334 0.930 . S
H356 C336 0.930 . S
H357 C337 0.931 . S
H358 C339 0.931 . S
H359 C341 0.930 . S
H360 C343 0.930 . S
H361 C344 0.931 . S
N362 C324 1.343 1_554 S
N362 C345 1.343 . S
N363 C331 1.343 1_554 S
N363 C338 1.343 . S
H364 C376 0.930 . S
H365 C378 0.930 . S
H366 C379 0.930 . S
H367 C383 0.959 . S
H368 C383 0.959 . S
H369 C383 0.961 . S
H370 C384 0.960 . S
H371 C384 0.961 . S
H372 C384 0.959 . S
H373 C387 0.929 . S
H374 C388 0.931 . S
H375 C390 0.930 . S
C376 H364 0.930 . S
C376 C377 1.399 . S
C376 C381 1.399 . S
C377 C376 1.399 . S
C377 C378 1.376 . S
C378 H365 0.930 . S
C378 C377 1.376 . S
C378 C379 1.388 . S
C379 H366 0.930 . S
C379 C378 1.388 . S
C379 C380 1.390 . S
C380 C379 1.390 . S
C380 C381 1.394 . S
C380 C386 1.465 . S
C381 C376 1.399 . S
C381 C380 1.394 . S
C381 C382 1.516 . S
C382 C381 1.516 . S
C382 C383 1.502 . S
C382 C384 1.561 . S
C382 C385 1.526 . S
C383 H367 0.959 . S
C383 H368 0.959 . S
C383 H369 0.961 . S
C383 C382 1.502 . S
C384 H370 0.960 . S
C384 H371 0.961 . S
C384 H372 0.959 . S
C384 C382 1.561 . S
C385 C382 1.526 . S
C385 C386 1.396 . S
C385 C390 1.390 . S
C386 C380 1.465 . S
C386 C385 1.396 . S
C386 C387 1.399 . S
C387 H373 0.929 . S
C387 C386 1.399 . S
C387 C388 1.385 . S
C388 H374 0.931 . S
C388 C387 1.385 . S
C388 C389 1.389 . S
C389 C388 1.389 . S
C389 C390 1.387 . S
C390 H375 0.930 . S
C390 C385 1.390 . S
C390 C389 1.387 . S
H391 C403 0.930 . S
H392 C405 0.930 . S
H393 C406 0.930 . S
H394 C410 0.959 . S
H395 C410 0.959 . S
H396 C410 0.961 . S
H397 C411 0.960 . S
H398 C411 0.961 . S
H399 C411 0.959 . S
H400 C414 0.929 . S
H401 C415 0.931 . S
H402 C417 0.930 . S
C403 H391 0.930 . S
C403 C404 1.399 . S
C403 C408 1.399 . S
C404 C403 1.399 . S
C404 C405 1.376 . S
C405 H392 0.930 . S
C405 C404 1.376 . S
C405 C406 1.388 . S
C406 H393 0.930 . S
C406 C405 1.388 . S
C406 C407 1.390 . S
C407 C406 1.390 . S
C407 C408 1.394 . S
C407 C413 1.465 . S
C408 C403 1.399 . S
C408 C407 1.394 . S
C408 C409 1.516 . S
C409 C408 1.516 . S
C409 C410 1.502 . S
C409 C411 1.561 . S
C409 C412 1.526 . S
C410 H394 0.959 . S
C410 H395 0.959 . S
C410 H396 0.961 . S
C410 C409 1.502 . S
C411 H397 0.960 . S
C411 H398 0.961 . S
C411 H399 0.959 . S
C411 C409 1.561 . S
C412 C409 1.526 . S
C412 C413 1.396 . S
C412 C417 1.390 . S
C413 C407 1.465 . S
C413 C412 1.396 . S
C413 C414 1.399 . S
C414 H400 0.929 . S
C414 C413 1.399 . S
C414 C415 1.385 . S
C415 H401 0.931 . S
C415 C414 1.385 . S
C415 C416 1.389 . S
C416 C415 1.389 . S
C416 C417 1.387 . S
C417 H402 0.930 . S
C417 C412 1.390 . S
C417 C416 1.387 . S
H418 C430 0.930 . S
H419 C432 0.930 . S
H420 C433 0.930 . S
H421 C437 0.959 . S
H422 C437 0.959 . S
H423 C437 0.961 . S
H424 C438 0.960 . S
H425 C438 0.961 . S
H426 C438 0.959 . S
H427 C441 0.929 . S
H428 C442 0.931 . S
H429 C444 0.930 . S
C430 H418 0.930 . S
C430 C431 1.399 . S
C430 C435 1.399 . S
C431 C430 1.399 . S
C431 C432 1.376 . S
C432 H419 0.930 . S
C432 C431 1.376 . S
C432 C433 1.388 . S
C433 H420 0.930 . S
C433 C432 1.388 . S
C433 C434 1.390 . S
C434 C433 1.390 . S
C434 C435 1.394 . S
C434 C440 1.465 . S
C435 C430 1.399 . S
C435 C434 1.394 . S
C435 C436 1.516 . S
C436 C435 1.516 . S
C436 C437 1.502 . S
C436 C438 1.561 . S
C436 C439 1.526 . S
C437 H421 0.959 . S
C437 H422 0.959 . S
C437 H423 0.961 . S
C437 C436 1.502 . S
C438 H424 0.960 . S
C438 H425 0.961 . S
C438 H426 0.959 . S
C438 C436 1.561 . S
C439 C436 1.526 . S
C439 C440 1.396 . S
C439 C444 1.390 . S
C440 C434 1.465 . S
C440 C439 1.396 . S
C440 C441 1.399 . S
C441 H427 0.929 . S
C441 C440 1.399 . S
C441 C442 1.385 . S
C442 H428 0.931 . S
C442 C441 1.385 . S
C442 C443 1.389 . S
C443 C442 1.389 . S
C443 C444 1.387 . S
C444 H429 0.930 . S
C444 C439 1.390 . S
C444 C443 1.387 . S
H445 C457 0.930 . S
H446 C459 0.930 . S
H447 C460 0.930 . S
H448 C464 0.959 . S
H449 C464 0.959 . S
H450 C464 0.961 . S
H451 C465 0.960 . S
H452 C465 0.961 . S
H453 C465 0.959 . S
H454 C468 0.929 . S
H455 C469 0.931 . S
H456 C471 0.930 . S
C457 H445 0.930 . S
C457 C458 1.399 . S
C457 C462 1.399 . S
C458 C457 1.399 . S
C458 C459 1.376 . S
C459 H446 0.930 . S
C459 C458 1.376 . S
C459 C460 1.388 . S
C460 H447 0.930 . S
C460 C459 1.388 . S
C460 C461 1.390 . S
C461 C460 1.390 . S
C461 C462 1.394 . S
C461 C467 1.465 . S
C462 C457 1.399 . S
C462 C461 1.394 . S
C462 C463 1.516 . S
C463 C462 1.516 . S
C463 C464 1.502 . S
C463 C465 1.561 . S
C463 C466 1.526 . S
C464 H448 0.959 . S
C464 H449 0.959 . S
C464 H450 0.961 . S
C464 C463 1.502 . S
C465 H451 0.960 . S
C465 H452 0.961 . S
C465 H453 0.959 . S
C465 C463 1.561 . S
C466 C463 1.526 . S
C466 C467 1.396 . S
C466 C471 1.390 . S
C467 C461 1.465 . S
C467 C466 1.396 . S
C467 C468 1.399 . S
C468 H454 0.929 . S
C468 C467 1.399 . S
C468 C469 1.385 . S
C469 H455 0.931 . S
C469 C468 1.385 . S
C469 C470 1.389 . S
C470 C469 1.389 . S
C470 C471 1.387 . S
C471 H456 0.930 . S
C471 C466 1.390 . S
C471 C470 1.387 . S
H472 C484 0.930 . S
H473 C486 0.930 . S
H474 C487 0.930 . S
H475 C491 0.959 . S
H476 C491 0.959 . S
H477 C491 0.961 . S
H478 C492 0.960 . S
H479 C492 0.961 . S
H480 C492 0.959 . S
H481 C495 0.929 . S
H482 C496 0.931 . S
H483 C498 0.930 . S
C484 H472 0.930 . S
C484 C485 1.399 . S
C484 C489 1.399 . S
C485 C484 1.399 . S
C485 C486 1.376 . S
C486 H473 0.930 . S
C486 C485 1.376 . S
C486 C487 1.388 . S
C487 H474 0.930 . S
C487 C486 1.388 . S
C487 C488 1.390 . S
C488 C487 1.390 . S
C488 C489 1.394 . S
C488 C494 1.465 . S
C489 C484 1.399 . S
C489 C488 1.394 . S
C489 C490 1.516 . S
C490 C489 1.516 . S
C490 C491 1.502 . S
C490 C492 1.561 . S
C490 C493 1.526 . S
C491 H475 0.959 . S
C491 H476 0.959 . S
C491 H477 0.961 . S
C491 C490 1.502 . S
C492 H478 0.960 . S
C492 H479 0.961 . S
C492 H480 0.959 . S
C492 C490 1.561 . S
C493 C490 1.526 . S
C493 C494 1.396 . S
C493 C498 1.390 . S
C494 C488 1.465 . S
C494 C493 1.396 . S
C494 C495 1.399 . S
C495 H481 0.929 . S
C495 C494 1.399 . S
C495 C496 1.385 . S
C496 H482 0.931 . S
C496 C495 1.385 . S
C496 C497 1.389 . S
C497 C496 1.389 . S
C497 C498 1.387 . S
C498 H483 0.930 . S
C498 C493 1.390 . S
C498 C497 1.387 . S
H499 C511 0.930 . S
H500 C513 0.930 . S
H501 C514 0.930 . S
H502 C518 0.959 . S
H503 C518 0.959 . S
H504 C518 0.961 . S
H505 C519 0.960 . S
H506 C519 0.961 . S
H507 C519 0.959 . S
H508 C522 0.929 . S
H509 C523 0.931 . S
H510 C525 0.930 . S
C511 H499 0.930 . S
C511 C512 1.399 . S
C511 C516 1.399 . S
C512 C511 1.399 . S
C512 C513 1.376 . S
C513 H500 0.930 . S
C513 C512 1.376 . S
C513 C514 1.388 . S
C514 H501 0.930 . S
C514 C513 1.388 . S
C514 C515 1.390 . S
C515 C514 1.390 . S
C515 C516 1.394 . S
C515 C521 1.465 . S
C516 C511 1.399 . S
C516 C515 1.394 . S
C516 C517 1.516 . S
C517 C516 1.516 . S
C517 C518 1.502 . S
C517 C519 1.561 . S
C517 C520 1.526 . S
C518 H502 0.959 . S
C518 H503 0.959 . S
C518 H504 0.961 . S
C518 C517 1.502 . S
C519 H505 0.960 . S
C519 H506 0.961 . S
C519 H507 0.959 . S
C519 C517 1.561 . S
C520 C517 1.526 . S
C520 C521 1.396 . S
C520 C525 1.390 . S
C521 C515 1.465 . S
C521 C520 1.396 . S
C521 C522 1.399 . S
C522 H508 0.929 . S
C522 C521 1.399 . S
C522 C523 1.385 . S
C523 H509 0.931 . S
C523 C522 1.385 . S
C523 C524 1.389 . S
C524 C523 1.389 . S
C524 C525 1.387 . S
C525 H510 0.930 . S
C525 C520 1.390 . S
C525 C524 1.387 . S
H526 C538 0.930 . S
H527 C540 0.930 . S
H528 C541 0.930 . S
H529 C545 0.959 . S
H530 C545 0.959 . S
H531 C545 0.961 . S
H532 C546 0.960 . S
H533 C546 0.961 . S
H534 C546 0.959 . S
H535 C549 0.929 . S
H536 C550 0.931 . S
H537 C552 0.930 . S
C538 H526 0.930 . S
C538 C539 1.399 . S
C538 C543 1.399 . S
C539 C538 1.399 . S
C539 C540 1.376 . S
C540 H527 0.930 . S
C540 C539 1.376 . S
C540 C541 1.388 . S
C541 H528 0.930 . S
C541 C540 1.388 . S
C541 C542 1.390 . S
C542 C541 1.390 . S
C542 C543 1.394 . S
C542 C548 1.465 . S
C543 C538 1.399 . S
C543 C542 1.394 . S
C543 C544 1.516 . S
C544 C543 1.516 . S
C544 C545 1.502 . S
C544 C546 1.561 . S
C544 C547 1.526 . S
C545 H529 0.959 . S
C545 H530 0.959 . S
C545 H531 0.961 . S
C545 C544 1.502 . S
C546 H532 0.960 . S
C546 H533 0.961 . S
C546 H534 0.959 . S
C546 C544 1.561 . S
C547 C544 1.526 . S
C547 C548 1.396 . S
C547 C552 1.390 . S
C548 C542 1.465 . S
C548 C547 1.396 . S
C548 C549 1.399 . S
C549 H535 0.929 . S
C549 C548 1.399 . S
C549 C550 1.385 . S
C550 H536 0.931 . S
C550 C549 1.385 . S
C550 C551 1.389 . S
C551 C550 1.389 . S
C551 C552 1.387 . S
C552 H537 0.930 . S
C552 C547 1.390 . S
C552 C551 1.387 . S
H553 C565 0.930 . S
H554 C567 0.930 . S
H555 C568 0.930 . S
H556 C572 0.959 . S
H557 C572 0.959 . S
H558 C572 0.961 . S
H559 C573 0.960 . S
H560 C573 0.961 . S
H561 C573 0.959 . S
H562 C576 0.929 . S
H563 C577 0.931 . S
H564 C579 0.930 . S
C565 H553 0.930 . S
C565 C566 1.399 . S
C565 C570 1.399 . S
C566 C565 1.399 . S
C566 C567 1.376 . S
C567 H554 0.930 . S
C567 C566 1.376 . S
C567 C568 1.388 . S
C568 H555 0.930 . S
C568 C567 1.388 . S
C568 C569 1.390 . S
C569 C568 1.390 . S
C569 C570 1.394 . S
C569 C575 1.465 . S
C570 C565 1.399 . S
C570 C569 1.394 . S
C570 C571 1.516 . S
C571 C570 1.516 . S
C571 C572 1.502 . S
C571 C573 1.561 . S
C571 C574 1.526 . S
C572 H556 0.959 . S
C572 H557 0.959 . S
C572 H558 0.961 . S
C572 C571 1.502 . S
C573 H559 0.960 . S
C573 H560 0.961 . S
C573 H561 0.959 . S
C573 C571 1.561 . S
C574 C571 1.526 . S
C574 C575 1.396 . S
C574 C579 1.390 . S
C575 C569 1.465 . S
C575 C574 1.396 . S
C575 C576 1.399 . S
C576 H562 0.929 . S
C576 C575 1.399 . S
C576 C577 1.385 . S
C577 H563 0.931 . S
C577 C576 1.385 . S
C577 C578 1.389 . S
C578 C577 1.389 . S
C578 C579 1.387 . S
C579 H564 0.930 . S
C579 C574 1.390 . S
C579 C578 1.387 . S
H580 C592 0.930 . S
H581 C594 0.930 . S
H582 C595 0.930 . S
H583 C599 0.959 . S
H584 C599 0.959 . S
H585 C599 0.961 . S
H586 C600 0.960 . S
H587 C600 0.961 . S
H588 C600 0.959 . S
H589 C603 0.929 . S
H590 C604 0.931 . S
H591 C606 0.931 . S
C592 H580 0.930 . S
C592 C593 1.399 . S
C592 C597 1.399 . S
C593 C592 1.399 . S
C593 C594 1.376 . S
C594 H581 0.930 . S
C594 C593 1.376 . S
C594 C595 1.388 . S
C595 H582 0.930 . S
C595 C594 1.388 . S
C595 C596 1.390 . S
C596 C595 1.390 . S
C596 C597 1.394 . S
C596 C602 1.465 . S
C597 C592 1.399 . S
C597 C596 1.394 . S
C597 C598 1.516 . S
C598 C597 1.516 . S
C598 C599 1.502 . S
C598 C600 1.561 . S
C598 C601 1.526 . S
C599 H583 0.959 . S
C599 H584 0.959 . S
C599 H585 0.961 . S
C599 C598 1.502 . S
C600 H586 0.960 . S
C600 H587 0.961 . S
C600 H588 0.959 . S
C600 C598 1.561 . S
C601 C598 1.526 . S
C601 C602 1.396 . S
C601 C606 1.387 1_565 S
C602 C596 1.465 . S
C602 C601 1.396 . S
C602 C603 1.399 . S
C603 H589 0.929 . S
C603 C602 1.399 . S
C603 C604 1.385 1_565 S
C604 H590 0.931 . S
C604 C603 1.385 1_545 S
C604 C605 1.389 . S
C605 C604 1.389 . S
C605 C606 1.388 . S
C606 H591 0.931 . S
C606 C601 1.387 1_545 S
C606 C605 1.388 . S
H607 C619 0.930 . S
H608 C621 0.930 . S
H609 C622 0.930 . S
H610 C626 0.959 . S
H611 C626 0.959 . S
H612 C626 0.961 . S
H613 C627 0.960 . S
H614 C627 0.961 . S
H615 C627 0.959 . S
H616 C630 0.929 . S
H617 C631 0.931 . S
H618 C633 0.930 . S
C619 H607 0.930 . S
C619 C620 1.399 . S
C619 C624 1.399 . S
C620 C619 1.399 . S
C620 C621 1.376 . S
C621 H608 0.930 . S
C621 C620 1.376 . S
C621 C622 1.388 . S
C622 H609 0.930 . S
C622 C621 1.388 . S
C622 C623 1.390 . S
C623 C622 1.390 . S
C623 C624 1.394 . S
C623 C629 1.465 . S
C624 C619 1.399 . S
C624 C623 1.394 . S
C624 C625 1.516 . S
C625 C624 1.516 . S
C625 C626 1.502 . S
C625 C627 1.561 . S
C625 C628 1.526 . S
C626 H610 0.959 . S
C626 H611 0.959 . S
C626 H612 0.961 . S
C626 C625 1.502 . S
C627 H613 0.960 . S
C627 H614 0.961 . S
C627 H615 0.959 . S
C627 C625 1.561 . S
C628 C625 1.526 . S
C628 C629 1.396 . S
C628 C633 1.390 . S
C629 C623 1.465 . S
C629 C628 1.396 . S
C629 C630 1.399 . S
C630 H616 0.929 . S
C630 C629 1.399 . S
C630 C631 1.385 . S
C631 H617 0.931 . S
C631 C630 1.385 . S
C631 C632 1.389 . S
C632 C631 1.389 . S
C632 C633 1.387 . S
C633 H618 0.930 . S
C633 C628 1.390 . S
C633 C632 1.387 . S
H634 C646 0.930 . S
H635 C648 0.930 . S
H636 C649 0.930 . S
H637 C653 0.959 . S
H638 C653 0.959 . S
H639 C653 0.961 . S
H640 C654 0.960 . S
H641 C654 0.961 . S
H642 C654 0.959 . S
H643 C657 0.929 . S
H644 C658 0.931 . S
H645 C660 0.930 . S
C646 H634 0.930 . S
C646 C647 1.399 . S
C646 C651 1.399 . S
C647 C646 1.399 . S
C647 C648 1.376 . S
C648 H635 0.930 . S
C648 C647 1.376 . S
C648 C649 1.388 . S
C649 H636 0.930 . S
C649 C648 1.388 . S
C649 C650 1.390 . S
C650 C649 1.390 . S
C650 C651 1.394 . S
C650 C656 1.465 . S
C651 C646 1.399 . S
C651 C650 1.394 . S
C651 C652 1.516 . S
C652 C651 1.516 . S
C652 C653 1.502 . S
C652 C654 1.561 . S
C652 C655 1.526 . S
C653 H637 0.959 . S
C653 H638 0.959 . S
C653 H639 0.961 . S
C653 C652 1.502 . S
C654 H640 0.960 . S
C654 H641 0.961 . S
C654 H642 0.959 . S
C654 C652 1.561 . S
C655 C652 1.526 . S
C655 C656 1.396 . S
C655 C660 1.390 . S
C656 C650 1.465 . S
C656 C655 1.396 . S
C656 C657 1.399 . S
C657 H643 0.929 . S
C657 C656 1.399 . S
C657 C658 1.385 . S
C658 H644 0.931 . S
C658 C657 1.385 . S
C658 C659 1.389 . S
C659 C658 1.389 . S
C659 C660 1.387 . S
C660 H645 0.930 . S
C660 C655 1.390 . S
C660 C659 1.387 . S
H661 C673 0.930 . S
H662 C675 0.930 . S
H663 C676 0.930 . S
H664 C680 0.959 . S
H665 C680 0.959 . S
H666 C680 0.961 . S
H667 C681 0.960 . S
H668 C681 0.961 . S
H669 C681 0.959 . S
H670 C684 0.929 . S
H671 C685 0.931 . S
H672 C687 0.930 . S
C673 H661 0.930 . S
C673 C674 1.399 . S
C673 C678 1.399 . S
C674 C673 1.399 . S
C674 C675 1.376 . S
C675 H662 0.930 . S
C675 C674 1.376 . S
C675 C676 1.388 . S
C676 H663 0.930 . S
C676 C675 1.388 . S
C676 C677 1.390 . S
C677 C676 1.390 . S
C677 C678 1.394 . S
C677 C683 1.465 . S
C678 C673 1.399 . S
C678 C677 1.394 . S
C678 C679 1.516 . S
C679 C678 1.516 . S
C679 C680 1.502 . S
C679 C681 1.561 . S
C679 C682 1.526 . S
C680 H664 0.959 . S
C680 H665 0.959 . S
C680 H666 0.961 . S
C680 C679 1.502 . S
C681 H667 0.960 . S
C681 H668 0.961 . S
C681 H669 0.959 . S
C681 C679 1.561 . S
C682 C679 1.526 . S
C682 C683 1.396 . S
C682 C687 1.390 . S
C683 C677 1.465 . S
C683 C682 1.396 . S
C683 C684 1.399 . S
C684 H670 0.929 . S
C684 C683 1.399 . S
C684 C685 1.385 . S
C685 H671 0.931 . S
C685 C684 1.385 . S
C685 C686 1.389 . S
C686 C685 1.389 . S
C686 C687 1.387 . S
C687 H672 0.930 . S
C687 C682 1.390 . S
C687 C686 1.387 . S
H688 C700 0.930 . S
H689 C702 0.930 . S
H690 C703 0.930 . S
H691 C707 0.959 . S
H692 C707 0.959 . S
H693 C707 0.961 . S
H694 C708 0.960 . S
H695 C708 0.961 . S
H696 C708 0.959 . S
H697 C711 0.929 . S
H698 C712 0.931 . S
H699 C714 0.930 . S
C700 H688 0.930 . S
C700 C701 1.399 . S
C700 C705 1.399 . S
C701 C700 1.399 . S
C701 C702 1.376 . S
C702 H689 0.930 . S
C702 C701 1.376 . S
C702 C703 1.388 . S
C703 H690 0.930 . S
C703 C702 1.388 . S
C703 C704 1.390 . S
C704 C703 1.390 . S
C704 C705 1.394 . S
C704 C710 1.465 . S
C705 C700 1.399 . S
C705 C704 1.394 . S
C705 C706 1.516 . S
C706 C705 1.516 . S
C706 C707 1.502 . S
C706 C708 1.561 . S
C706 C709 1.526 . S
C707 H691 0.959 . S
C707 H692 0.959 . S
C707 H693 0.961 . S
C707 C706 1.502 . S
C708 H694 0.960 . S
C708 H695 0.961 . S
C708 H696 0.959 . S
C708 C706 1.561 . S
C709 C706 1.526 . S
C709 C710 1.396 . S
C709 C714 1.390 . S
C710 C704 1.465 . S
C710 C709 1.396 . S
C710 C711 1.399 . S
C711 H697 0.929 . S
C711 C710 1.399 . S
C711 C712 1.385 . S
C712 H698 0.931 . S
C712 C711 1.385 . S
C712 C713 1.389 . S
C713 C712 1.389 . S
C713 C714 1.387 . S
C714 H699 0.930 . S
C714 C709 1.390 . S
C714 C713 1.387 . S
H715 C727 0.930 . S
H716 C729 0.930 . S
H717 C730 0.930 . S
H718 C734 0.959 . S
H719 C734 0.959 . S
H720 C734 0.961 . S
H721 C735 0.960 . S
H722 C735 0.961 . S
H723 C735 0.959 . S
H724 C738 0.929 . S
H725 C739 0.931 . S
H726 C741 0.930 . S
C727 H715 0.930 . S
C727 C728 1.399 . S
C727 C732 1.399 . S
C728 C727 1.399 . S
C728 C729 1.376 . S
C729 H716 0.930 . S
C729 C728 1.376 . S
C729 C730 1.388 . S
C730 H717 0.930 . S
C730 C729 1.388 . S
C730 C731 1.390 . S
C731 C730 1.390 . S
C731 C732 1.394 . S
C731 C737 1.465 . S
C732 C727 1.399 . S
C732 C731 1.394 . S
C732 C733 1.516 . S
C733 C732 1.516 . S
C733 C734 1.502 . S
C733 C735 1.561 . S
C733 C736 1.526 . S
C734 H718 0.959 . S
C734 H719 0.959 . S
C734 H720 0.961 . S
C734 C733 1.502 . S
C735 H721 0.960 . S
C735 H722 0.961 . S
C735 H723 0.959 . S
C735 C733 1.561 . S
C736 C733 1.526 . S
C736 C737 1.396 . S
C736 C741 1.390 . S
C737 C731 1.465 . S
C737 C736 1.396 . S
C737 C738 1.399 . S
C738 H724 0.929 . S
C738 C737 1.399 . S
C738 C739 1.385 . S
C739 H725 0.931 . S
C739 C738 1.385 . S
C739 C740 1.389 . S
C740 C739 1.389 . S
C740 C741 1.387 . S
C741 H726 0.930 . S
C741 C736 1.390 . S
C741 C740 1.387 . S
H742 C754 0.930 . S
H743 C756 0.930 . S
H744 C757 0.930 . S
H745 C761 0.959 . S
H746 C761 0.959 . S
H747 C761 0.961 . S
H748 C762 0.960 . S
H749 C762 0.961 . S
H750 C762 0.959 . S
H751 C765 0.929 . S
H752 C766 0.931 . S
H753 C768 0.930 . S
C754 H742 0.930 . S
C754 C755 1.399 . S
C754 C759 1.399 . S
C755 C754 1.399 . S
C755 C756 1.376 . S
C756 H743 0.930 . S
C756 C755 1.376 . S
C756 C757 1.388 . S
C757 H744 0.930 . S
C757 C756 1.388 . S
C757 C758 1.390 . S
C758 C757 1.390 . S
C758 C759 1.394 . S
C758 C764 1.465 . S
C759 C754 1.399 . S
C759 C758 1.394 . S
C759 C760 1.516 . S
C760 C759 1.516 . S
C760 C761 1.502 . S
C760 C762 1.561 . S
C760 C763 1.526 . S
C761 H745 0.959 . S
C761 H746 0.959 . S
C761 H747 0.961 . S
C761 C760 1.502 . S
C762 H748 0.960 . S
C762 H749 0.961 . S
C762 H750 0.959 . S
C762 C760 1.561 . S
C763 C760 1.526 . S
C763 C764 1.396 . S
C763 C768 1.390 . S
C764 C758 1.465 . S
C764 C763 1.396 . S
C764 C765 1.399 . S
C765 H751 0.929 . S
C765 C764 1.399 . S
C765 C766 1.385 . S
C766 H752 0.931 . S
C766 C765 1.385 . S
C766 C767 1.389 . S
C767 C766 1.389 . S
C767 C768 1.387 . S
C768 H753 0.930 . S
C768 C763 1.390 . S
C768 C767 1.387 . S
H769 C781 0.930 . S
H770 C783 0.930 . S
H771 C784 0.930 . S
H772 C788 0.959 . S
H773 C788 0.959 . S
H774 C788 0.961 . S
H775 C789 0.960 . S
H776 C789 0.961 . S
H777 C789 0.959 . S
H778 C792 0.929 . S
H779 C793 0.931 . S
H780 C795 0.930 . S
C781 H769 0.930 . S
C781 C782 1.399 . S
C781 C786 1.399 . S
C782 C781 1.399 . S
C782 C783 1.376 . S
C783 H770 0.930 . S
C783 C782 1.376 . S
C783 C784 1.388 . S
C784 H771 0.930 . S
C784 C783 1.388 . S
C784 C785 1.390 . S
C785 C784 1.390 . S
C785 C786 1.394 . S
C785 C791 1.465 . S
C786 C781 1.399 . S
C786 C785 1.394 . S
C786 C787 1.516 . S
C787 C786 1.516 . S
C787 C788 1.502 . S
C787 C789 1.561 . S
C787 C790 1.526 . S
C788 H772 0.959 . S
C788 H773 0.959 . S
C788 H774 0.961 . S
C788 C787 1.502 . S
C789 H775 0.960 . S
C789 H776 0.961 . S
C789 H777 0.959 . S
C789 C787 1.561 . S
C790 C787 1.526 . S
C790 C791 1.396 . S
C790 C795 1.390 . S
C791 C785 1.465 . S
C791 C790 1.396 . S
C791 C792 1.399 . S
C792 H778 0.929 . S
C792 C791 1.399 . S
C792 C793 1.385 . S
C793 H779 0.931 . S
C793 C792 1.385 . S
C793 C794 1.389 . S
C794 C793 1.389 . S
C794 C795 1.387 . S
C795 H780 0.930 . S
C795 C790 1.390 . S
C795 C794 1.387 . S
H796 C808 0.930 . S
H797 C810 0.930 . S
H798 C811 0.930 . S
H799 C815 0.959 . S
H800 C815 0.959 . S
H801 C815 0.961 . S
H802 C816 0.960 . S
H803 C816 0.961 . S
H804 C816 0.959 . S
H805 C819 0.929 . S
H806 C820 0.931 . S
H807 C822 0.930 . S
C808 H796 0.930 . S
C808 C809 1.399 . S
C808 C813 1.399 . S
C809 C808 1.399 . S
C809 C810 1.376 . S
C810 H797 0.930 . S
C810 C809 1.376 . S
C810 C811 1.388 . S
C811 H798 0.930 . S
C811 C810 1.388 . S
C811 C812 1.390 . S
C812 C811 1.390 . S
C812 C813 1.394 . S
C812 C818 1.465 . S
C813 C808 1.399 . S
C813 C812 1.394 . S
C813 C814 1.516 . S
C814 C813 1.516 . S
C814 C815 1.502 . S
C814 C816 1.561 . S
C814 C817 1.526 . S
C815 H799 0.959 . S
C815 H800 0.959 . S
C815 H801 0.961 . S
C815 C814 1.502 . S
C816 H802 0.960 . S
C816 H803 0.961 . S
C816 H804 0.959 . S
C816 C814 1.561 . S
C817 C814 1.526 . S
C817 C818 1.396 . S
C817 C822 1.390 . S
C818 C812 1.465 . S
C818 C817 1.396 . S
C818 C819 1.399 . S
C819 H805 0.929 . S
C819 C818 1.399 . S
C819 C820 1.385 . S
C820 H806 0.931 . S
C820 C819 1.385 . S
C820 C821 1.389 . S
C821 C820 1.389 . S
C821 C822 1.387 . S
C822 H807 0.930 . S
C822 C817 1.390 . S
C822 C821 1.387 . S
H823 C835 0.930 . S
H824 C837 0.930 . S
H825 C838 0.930 . S
H826 C842 0.959 . S
H827 C842 0.959 . S
H828 C842 0.961 . S
H829 C843 0.960 . S
H830 C843 0.961 . S
H831 C843 0.959 . S
H832 C846 0.929 . S
H833 C847 0.931 . S
H834 C849 0.930 . S
C835 H823 0.930 . S
C835 C836 1.399 . S
C835 C840 1.399 . S
C836 C835 1.399 . S
C836 C837 1.376 . S
C837 H824 0.930 . S
C837 C836 1.376 . S
C837 C838 1.388 . S
C838 H825 0.930 . S
C838 C837 1.388 . S
C838 C839 1.390 . S
C839 C838 1.390 . S
C839 C840 1.394 . S
C839 C845 1.465 . S
C840 C835 1.399 . S
C840 C839 1.394 . S
C840 C841 1.516 . S
C841 C840 1.516 . S
C841 C842 1.502 . S
C841 C843 1.561 . S
C841 C844 1.526 . S
C842 H826 0.959 . S
C842 H827 0.959 . S
C842 H828 0.961 . S
C842 C841 1.502 . S
C843 H829 0.960 . S
C843 H830 0.961 . S
C843 H831 0.959 . S
C843 C841 1.561 . S
C844 C841 1.526 . S
C844 C845 1.396 . S
C844 C849 1.390 . S
C845 C839 1.465 . S
C845 C844 1.396 . S
C845 C846 1.399 . S
C846 H832 0.929 . S
C846 C845 1.399 . S
C846 C847 1.385 . S
C847 H833 0.931 . S
C847 C846 1.385 . S
C847 C848 1.389 . S
C848 C847 1.389 . S
C848 C849 1.387 . S
C849 H834 0.930 . S
C849 C844 1.390 . S
C849 C848 1.387 . S
H850 C862 0.930 . S
H851 C864 0.930 . S
H852 C865 0.930 . S
H853 C869 0.959 . S
H854 C869 0.959 . S
H855 C869 0.961 . S
H856 C870 0.960 . S
H857 C870 0.961 . S
H858 C870 0.959 . S
H859 C873 0.929 . S
H860 C874 0.931 . S
H861 C876 0.930 . S
C862 H850 0.930 . S
C862 C863 1.399 . S
C862 C867 1.399 . S
C863 C862 1.399 . S
C863 C864 1.376 . S
C864 H851 0.930 . S
C864 C863 1.376 . S
C864 C865 1.388 . S
C865 H852 0.930 . S
C865 C864 1.388 . S
C865 C866 1.390 . S
C866 C865 1.390 . S
C866 C867 1.394 . S
C866 C872 1.465 . S
C867 C862 1.399 . S
C867 C866 1.394 . S
C867 C868 1.516 . S
C868 C867 1.516 . S
C868 C869 1.502 . S
C868 C870 1.561 . S
C868 C871 1.526 . S
C869 H853 0.959 . S
C869 H854 0.959 . S
C869 H855 0.961 . S
C869 C868 1.502 . S
C870 H856 0.960 . S
C870 H857 0.961 . S
C870 H858 0.959 . S
C870 C868 1.561 . S
C871 C868 1.526 . S
C871 C872 1.396 . S
C871 C876 1.390 . S
C872 C866 1.465 . S
C872 C871 1.396 . S
C872 C873 1.399 . S
C873 H859 0.929 . S
C873 C872 1.399 . S
C873 C874 1.385 . S
C874 H860 0.931 . S
C874 C873 1.385 . S
C874 C875 1.389 . S
C875 C874 1.389 . S
C875 C876 1.387 . S
C876 H861 0.930 . S
C876 C871 1.390 . S
C876 C875 1.387 . S
H877 C889 0.930 . S
H878 C891 0.930 . S
H879 C892 0.930 . S
H880 C896 0.959 . S
H881 C896 0.959 . S
H882 C896 0.961 . S
H883 C897 0.960 . S
H884 C897 0.961 . S
H885 C897 0.959 . S
H886 C900 0.929 . S
H887 C901 0.931 . S
H888 C903 0.930 . S
C889 H877 0.930 . S
C889 C890 1.399 . S
C889 C894 1.399 . S
C890 C889 1.399 . S
C890 C891 1.376 . S
C891 H878 0.930 . S
C891 C890 1.376 . S
C891 C892 1.388 . S
C892 H879 0.930 . S
C892 C891 1.388 . S
C892 C893 1.390 . S
C893 C892 1.390 . S
C893 C894 1.394 . S
C893 C899 1.465 . S
C894 C889 1.399 . S
C894 C893 1.394 . S
C894 C895 1.516 . S
C895 C894 1.516 . S
C895 C896 1.502 . S
C895 C897 1.561 . S
C895 C898 1.526 . S
C896 H880 0.959 . S
C896 H881 0.959 . S
C896 H882 0.961 . S
C896 C895 1.502 . S
C897 H883 0.960 . S
C897 H884 0.961 . S
C897 H885 0.959 . S
C897 C895 1.561 . S
C898 C895 1.526 . S
C898 C899 1.396 . S
C898 C903 1.390 . S
C899 C893 1.465 . S
C899 C898 1.396 . S
C899 C900 1.399 . S
C900 H886 0.929 . S
C900 C899 1.399 . S
C900 C901 1.385 . S
C901 H887 0.931 . S
C901 C900 1.385 . S
C901 C902 1.389 . S
C902 C901 1.389 . S
C902 C903 1.387 . S
C903 H888 0.930 . S
C903 C898 1.390 . S
C903 C902 1.387 . S
H904 C916 0.930 . S
H905 C918 0.930 . S
H906 C919 0.930 . S
H907 C923 0.959 . S
H908 C923 0.959 . S
H909 C923 0.961 . S
H910 C924 0.960 . S
H911 C924 0.961 . S
H912 C924 0.959 . S
H913 C927 0.929 . S
H914 C928 0.931 . S
H915 C930 0.930 . S
C916 H904 0.930 . S
C916 C917 1.399 . S
C916 C921 1.399 . S
C917 C916 1.399 . S
C917 C918 1.376 . S
C918 H905 0.930 . S
C918 C917 1.376 . S
C918 C919 1.388 . S
C919 H906 0.930 . S
C919 C918 1.388 . S
C919 C920 1.390 . S
C920 C919 1.390 . S
C920 C921 1.394 . S
C920 C926 1.465 . S
C921 C916 1.399 . S
C921 C920 1.394 . S
C921 C922 1.516 . S
C922 C921 1.516 . S
C922 C923 1.502 . S
C922 C924 1.561 . S
C922 C925 1.526 . S
C923 H907 0.959 . S
C923 H908 0.959 . S
C923 H909 0.961 . S
C923 C922 1.502 . S
C924 H910 0.960 . S
C924 H911 0.961 . S
C924 H912 0.959 . S
C924 C922 1.561 . S
C925 C922 1.526 . S
C925 C926 1.396 . S
C925 C930 1.390 . S
C926 C920 1.465 . S
C926 C925 1.396 . S
C926 C927 1.399 . S
C927 H913 0.929 . S
C927 C926 1.399 . S
C927 C928 1.385 . S
C928 H914 0.931 . S
C928 C927 1.385 . S
C928 C929 1.389 . S
C929 C928 1.389 . S
C929 C930 1.387 . S
C930 H915 0.930 . S
C930 C925 1.390 . S
C930 C929 1.387 . S
H931 C943 0.930 . S
H932 C945 0.930 . S
H933 C946 0.930 . S
H934 C950 0.959 . S
H935 C950 0.959 . S
H936 C950 0.961 . S
H937 C951 0.960 . S
H938 C951 0.961 . S
H939 C951 0.959 . S
H940 C954 0.929 . S
H941 C955 0.931 . S
H942 C957 0.930 . S
C943 H931 0.930 . S
C943 C944 1.399 . S
C943 C948 1.399 . S
C944 C943 1.399 . S
C944 C945 1.376 . S
C945 H932 0.930 . S
C945 C944 1.376 . S
C945 C946 1.388 . S
C946 H933 0.930 . S
C946 C945 1.388 . S
C946 C947 1.390 . S
C947 C946 1.390 . S
C947 C948 1.394 . S
C947 C953 1.465 . S
C948 C943 1.399 . S
C948 C947 1.394 . S
C948 C949 1.516 . S
C949 C948 1.516 . S
C949 C950 1.502 . S
C949 C951 1.561 . S
C949 C952 1.526 . S
C950 H934 0.959 . S
C950 H935 0.959 . S
C950 H936 0.961 . S
C950 C949 1.502 . S
C951 H937 0.960 . S
C951 H938 0.961 . S
C951 H939 0.959 . S
C951 C949 1.561 . S
C952 C949 1.526 . S
C952 C953 1.396 . S
C952 C957 1.390 . S
C953 C947 1.465 . S
C953 C952 1.396 . S
C953 C954 1.399 . S
C954 H940 0.929 . S
C954 C953 1.399 . S
C954 C955 1.385 . S
C955 H941 0.931 . S
C955 C954 1.385 . S
C955 C956 1.389 . S
C956 C955 1.389 . S
C956 C957 1.387 . S
C957 H942 0.930 . S
C957 C952 1.390 . S
C957 C956 1.387 . S
H958 C970 0.930 . S
H959 C972 0.930 . S
H960 C973 0.930 . S
H961 C977 0.959 . S
H962 C977 0.959 . S
H963 C977 0.961 . S
H964 C978 0.960 . S
H965 C978 0.961 1_545 S
H966 C978 0.959 . S
H967 C981 0.929 . S
H968 C982 0.948 . S
H969 C984 0.930 . S
C970 H958 0.930 . S
C970 C971 1.399 . S
C970 C975 1.399 . S
C971 C970 1.399 . S
C971 C972 1.376 . S
C972 H959 0.930 . S
C972 C971 1.376 . S
C972 C973 1.388 . S
C973 H960 0.930 . S
C973 C972 1.388 . S
C973 C974 1.390 . S
C974 C973 1.390 . S
C974 C975 1.394 . S
C974 C980 1.465 . S
C975 C970 1.399 . S
C975 C974 1.394 . S
C975 C976 1.516 . S
C976 C975 1.516 . S
C976 C977 1.502 . S
C976 C978 1.561 . S
C976 C979 1.526 . S
C977 H961 0.959 . S
C977 H962 0.959 . S
C977 H963 0.961 . S
C977 C976 1.502 . S
C978 H964 0.960 . S
C978 H965 0.961 1_565 S
C978 H966 0.959 . S
C978 C976 1.561 . S
C979 C976 1.526 . S
C979 C980 1.396 . S
C979 C984 1.390 1_565 S
C980 C974 1.465 . S
C980 C979 1.396 . S
C980 C981 1.399 . S
C981 H967 0.929 . S
C981 C980 1.399 . S
C981 C982 1.385 . S
C982 H968 0.948 . S
C982 C981 1.385 . S
C982 C983 1.389 1_565 S
C983 C982 1.389 1_545 S
C983 C984 1.387 . S
C984 H969 0.930 . S
C984 C979 1.390 1_545 S
C984 C983 1.387 . S
H985 C997 0.930 . S
H986 C999 0.930 . S
H987 C1000 0.930 . S
H988 C1004 0.959 . S
H989 C1004 0.959 . S
H990 C1004 0.961 . S
H991 C1005 0.960 . S
H992 C1005 0.961 . S
H993 C1005 0.959 . S
H994 C1008 0.929 . S
H995 C1009 0.931 . S
H996 C1011 0.930 . S
C997 H985 0.930 . S
C997 C998 1.399 . S
C997 C1002 1.399 . S
C998 C997 1.399 . S
C998 C999 1.376 . S
C999 H986 0.930 . S
C999 C998 1.376 . S
C999 C1000 1.388 . S
C1000 H987 0.930 . S
C1000 C999 1.388 . S
C1000 C1001 1.390 . S
C1001 C1000 1.390 . S
C1001 C1002 1.394 . S
C1001 C1007 1.465 . S
C1002 C997 1.399 . S
C1002 C1001 1.394 . S
C1002 C1003 1.516 . S
C1003 C1002 1.516 . S
C1003 C1004 1.502 . S
C1003 C1005 1.561 . S
C1003 C1006 1.526 . S
C1004 H988 0.959 . S
C1004 H989 0.959 . S
C1004 H990 0.961 . S
C1004 C1003 1.502 . S
C1005 H991 0.960 . S
C1005 H992 0.961 . S
C1005 H993 0.959 . S
C1005 C1003 1.561 . S
C1006 C1003 1.526 . S
C1006 C1007 1.396 . S
C1006 C1011 1.390 . S
C1007 C1001 1.465 . S
C1007 C1006 1.396 . S
C1007 C1008 1.399 . S
C1008 H994 0.929 . S
C1008 C1007 1.399 . S
C1008 C1009 1.385 . S
C1009 H995 0.931 . S
C1009 C1008 1.385 . S
C1009 C1010 1.389 . S
C1010 C1009 1.389 . S
C1010 C1011 1.387 . S
C1011 H996 0.930 . S
C1011 C1006 1.390 . S
C1011 C1010 1.387 . S
C389 C96 1.535 . S
C377 C5 1.422 . S
C416 C149 1.517 . S
C404 C16 1.313 . S
C443 C110 1.713 . S
C431 C30 1.703 . S
C470 C135 1.598 . S
C458 C40 1.581 . S
C497 C181 1.479 . S
C485 C8 1.473 . S
C524 C227 1.456 . S
C512 C18 1.454 . S
C539 C29 1.741 . S
C551 C294 1.768 . S
C578 C326 1.540 . S
C566 C38 1.349 . S
C605 C195 1.465 . S
C593 C19 1.415 . S
C620 C27 1.456 . S
C632 C241 1.647 . S
C659 C280 1.549 . S
C647 C41 1.579 . S
C686 C340 1.517 . S
C674 C7 1.459 . S
C701 C52 1.579 . S
C713 C156 1.595 . S
C740 C89 1.589 . S
C728 C62 1.534 . S
C755 C74 1.351 . S
C767 C142 1.396 . S
C782 C82 1.273 . S
C794 C103 1.409 . S
C821 C287 1.811 . S
C809 C51 1.751 . S
C848 C333 1.616 . S
C836 C60 1.297 . S
C875 C188 1.528 . S
C863 C71 1.179 . S
C890 C84 1.420 . S
C902 C248 1.527 . S
C929 C273 1.685 . S
C917 C63 1.682 . S
C956 C319 1.455 . S
C944 C73 1.466 . S
C983 C202 1.538 . S
C971 C85 1.565 . S
C998 C49 1.389 . S
C1010 C234 1.666 . S
