# Generated by pormake.
# Topology tsx, (6,3)-cn, num edge types: 1
# Building blocks:
#     Node 0, Type 0, BuildingBlock: MIDCAF_clean_sbu_0, # of connection points: 6
#     Node 1, Type 0, BuildingBlock: MIDCAF_clean_sbu_0, # of connection points: 6
#     Node 2, Type 1, BuildingBlock: QEWDON_clean_linker_0, # of connection points: 3
#     Node 3, Type 1, BuildingBlock: QEWDON_clean_linker_0, # of connection points: 3
#     Node 4, Type 1, BuildingBlock: QEWDON_clean_linker_0, # of connection points: 3
#     Node 5, Type 1, BuildingBlock: QEWDON_clean_linker_0, # of connection points: 3
#     Edge 6, Type (0, 1), BuildingBlock: CIFDUS_clean_linker_0, # of connection points: 2
#     Edge 7, Type (0, 1), BuildingBlock: CIFDUS_clean_linker_0, # of connection points: 2
#     Edge 8, Type (0, 1), BuildingBlock: CIFDUS_clean_linker_0, # of connection points: 2
#     Edge 9, Type (0, 1), BuildingBlock: CIFDUS_clean_linker_0, # of connection points: 2
#     Edge 10, Type (0, 1), BuildingBlock: CIFDUS_clean_linker_0, # of connection points: 2
#     Edge 11, Type (0, 1), BuildingBlock: CIFDUS_clean_linker_0, # of connection points: 2
#     Edge 12, Type (0, 1), BuildingBlock: CIFDUS_clean_linker_0, # of connection points: 2
#     Edge 13, Type (0, 1), BuildingBlock: CIFDUS_clean_linker_0, # of connection points: 2
#     Edge 14, Type (0, 1), BuildingBlock: CIFDUS_clean_linker_0, # of connection points: 2
#     Edge 15, Type (0, 1), BuildingBlock: CIFDUS_clean_linker_0, # of connection points: 2
#     Edge 16, Type (0, 1), BuildingBlock: CIFDUS_clean_linker_0, # of connection points: 2
#     Edge 17, Type (0, 1), BuildingBlock: CIFDUS_clean_linker_0, # of connection points: 2
# Relax obj value: 0.090
# Max RMSD: 0.150
# Mean RMSD: 0.148
data_MOF--net-tsx--node1-MIDCAF_clean_sbu_0--node2-QEWDON_clean_linker_0--edge1-CIFDUS_clean_linker_0
_symmetry_space_group_name_H-M    P1
_symmetry_Int_Tables_number       1
_symmetry_cell_setting            triclinic
loop_
_symmetry_equiv_pos_as_xyz
'x, y, z'
_cell_length_a     19.142456
_cell_length_b     20.665645
_cell_length_c     30.162575
_cell_angle_alpha  89.958348
_cell_angle_beta   111.35009
_cell_angle_gamma 90.291484
loop_
_atom_site_label
_atom_site_type_symbol
_atom_site_fract_x
_atom_site_fract_y
_atom_site_fract_z
_atom_type_partial_charge
Zn0 Zn 0.8721 0.95582 0.92778 0.0
Zn1 Zn 0.26271 0.95008 0.1122 0.0
Zn2 Zn 0.05415 0.96022 1.01317 0.0
C3 C 0.16192 0.06931 0.04 0.0
C4 C 0.1873 0.90806 1.01285 0.0
O5 O 1.00447 0.9062 0.05832 0.0
O6 O 0.92403 0.92739 0.99046 0.0
C7 C 0.93886 0.08103 0.97558 0.0
O8 O 0.09212 0.0591 1.01603 0.0
O9 O 0.19995 0.02455 0.06718 0.0
O10 O 0.19264 0.94446 0.04712 0.0
O11 O 0.12171 0.90335 0.98149 0.0
O12 O 0.88265 0.0478 0.94954 0.0
O13 O 1.00496 0.05692 0.99628 0.0
O14 O 0.05142 0.91414 0.9463 0.0
O15 O 0.938 0.93827 0.89168 0.0
C16 C 1.00576 0.92072 0.90272 0.0
O17 O 0.08505 0.93842 0.09111 0.0
O18 O 0.19821 0.92307 0.14946 0.0
C19 C 0.93704 0.90171 0.02983 0.0
C20 C 0.12661 0.92614 0.13496 0.0
Zn21 Zn 0.6633 0.47753 0.58484 0.0
Zn22 Zn 0.45656 0.47134 0.46411 0.0
Zn23 Zn 0.56243 0.46983 0.523 0.0
C24 C 0.54698 0.47201 0.41978 0.0
C25 C 0.45804 0.57905 0.51181 0.0
O26 O 0.54148 0.51 0.5871 0.0
O27 O 0.62377 0.44131 0.63199 0.0
C28 C 0.67649 0.37062 0.53593 0.0
O29 O 0.57764 0.50743 0.45696 0.0
O30 O 0.5015 0.42886 0.42178 0.0
O31 O 0.44915 0.56742 0.46897 0.0
O32 O 0.49112 0.53683 0.54398 0.0
O33 O 0.71274 0.42114 0.55406 0.0
O34 O 0.60591 0.36888 0.52896 0.0
O35 O 0.63295 0.53395 0.50036 0.0
O36 O 0.66673 0.57245 0.57325 0.0
C37 C 0.6623 0.5793 0.53068 0.0
O38 O 0.52396 0.36807 0.51904 0.0
O39 O 0.41619 0.41719 0.50209 0.0
C40 C 0.57106 0.48017 0.62718 0.0
C41 C 0.45569 0.3675 0.51726 0.0
H42 H 0.08928 0.02774 0.4036 0.0
C43 C 0.13463 -0.00502 0.42171 0.0
C44 C 0.15743 0.95093 0.39445 0.0
C45 C 0.16924 -0.00467 0.4719 0.0
H46 H 0.23725 0.87735 0.39587 0.0
C47 C 0.21869 0.91085 0.41698 0.0
C48 C 0.25444 0.91112 0.46641 0.0
C49 C 0.22906 0.95265 0.49405 0.0
C50 C 0.14101 0.03863 0.50074 0.0
H51 H 0.25501 0.9506 0.53247 0.0
C52 C 0.04834 0.05927 0.4788 0.0
C53 C 0.01799 0.143 0.53448 0.0
C54 C 0.20107 0.07004 0.55316 0.0
H55 H 0.25893 0.05492 0.56448 0.0
C56 C 0.18237 0.12469 0.58991 0.0
H57 H 0.01342 0.03738 0.44489 0.0
C58 C 0.0989 0.15983 0.58282 0.0
H59 H 0.09714 0.19388 0.60961 0.0
H60 H 0.22935 0.13877 0.62134 0.0
H61 H 0.02877 0.0416 0.6271 0.0
C62 C 0.99013 0.00188 0.61222 0.0
C63 C 0.96987 0.96217 0.643 0.0
C64 C 0.96071 -0.00932 0.56276 0.0
H65 H 0.89945 0.88318 0.64797 0.0
C66 C 0.91698 0.91305 0.62424 0.0
C67 C 0.88489 0.90335 0.57499 0.0
C68 C 0.90732 0.94163 0.54408 0.0
C69 C 0.98735 0.03129 0.53214 0.0
H70 H 0.88349 0.9332 0.50602 0.0
C71 C 0.07885 0.0528 0.55502 0.0
C72 C 0.10855 0.14818 0.50713 0.0
C73 C 0.92622 0.06716 0.48283 0.0
H74 H 0.86908 0.04939 0.47103 0.0
C75 C 0.94088 0.12934 0.44995 0.0
H76 H 0.11365 0.02699 0.5872 0.0
C77 C 0.02751 0.17057 0.46015 0.0
H78 H 0.04069 0.21462 0.43887 0.0
H79 H 0.98465 0.15403 0.45276 0.0
H80 H 0.60216 0.54854 0.91447 0.0
C81 C 0.64243 0.51091 0.93097 0.0
C82 C 0.66561 0.47005 0.90184 0.0
C83 C 0.66823 0.50101 0.98086 0.0
H84 H 0.73488 0.38868 0.90112 0.0
C85 C 0.71816 0.42184 0.9233 0.0
C86 C 0.74349 0.41144 0.9725 0.0
C87 C 0.71899 0.45124 1.00136 0.0
C88 C 0.63809 0.54046 1.01052 0.0
H89 H 0.73613 0.4411 0.0391 0.0
C90 C 0.5469 0.56225 0.98585 0.0
C91 C 0.51313 0.64904 0.03831 0.0
C92 C 0.69537 0.57174 0.06377 0.0
H93 H 0.75274 0.5549 0.07704 0.0
C94 C 0.67467 0.6292 0.09791 0.0
H95 H 0.5139 0.53951 0.95178 0.0
C96 C 0.59124 0.66642 0.0876 0.0
H97 H 0.58737 0.70192 0.11293 0.0
H98 H 0.72015 0.64331 0.13013 0.0
H99 H 0.48609 0.56038 0.12431 0.0
C100 C 0.46316 0.5129 0.11158 0.0
C101 C 0.44542 0.47104 0.14236 0.0
C102 C 0.45056 0.49411 0.06423 0.0
H103 H 0.40472 0.37686 0.15046 0.0
C104 C 0.41769 0.40947 0.12624 0.0
C105 C 0.40649 0.38868 0.07998 0.0
C106 C 0.42118 0.43193 0.04814 0.0
C107 C 0.47922 0.53753 0.03573 0.0
H108 H 0.41383 0.41629 1.01244 0.0
C109 C 0.5707 0.55812 0.06153 0.0
C110 C 0.60725 0.65109 1.01413 0.0
C111 C 0.42243 0.57415 0.98487 0.0
H112 H 0.36454 0.55819 0.97119 0.0
C113 C 0.44464 0.63531 0.95368 0.0
H114 H 0.60263 0.5323 0.09441 0.0
C115 C 0.52928 0.67263 0.96588 0.0
H116 H 0.53404 0.71058 0.94242 0.0
H117 H 0.3994 0.65231 0.92246 0.0
H118 H 0.29622 0.11167 0.10046 0.0
H119 H 0.12089 0.15888 0.96761 0.0
H120 H 0.18209 0.26288 0.96553 0.0
H121 H 0.28401 0.34312 1.00555 0.0
H122 H 0.47021 0.28199 0.1295 0.0
H123 H 0.40846 0.17892 0.12964 0.0
C124 C 0.27118 0.14453 0.07089 0.0
C125 C 0.2005 0.13032 0.03631 0.0
C126 C 0.31 0.20099 0.06784 0.0
C127 C 0.17111 0.17203 0.99718 0.0
C128 C 0.20754 0.23041 0.99521 0.0
C129 C 0.31209 0.30625 0.0314 0.0
C130 C 0.38072 0.32076 0.06813 0.0
C131 C 0.27664 0.24602 0.03091 0.0
C132 C 0.4168 0.27225 0.10127 0.0
C133 C 0.38126 0.21353 0.10172 0.0
H134 H 0.19922 0.77749 1.01781 0.0
H135 H 0.32172 0.95111 1.01389 0.0
H136 H 0.43268 0.88696 0.02032 0.0
H137 H 0.4943 0.7798 0.02617 0.0
H138 H 0.38016 0.61268 0.05316 0.0
H139 H 0.26741 0.6744 0.03746 0.0
C140 C 0.24989 0.80094 1.01753 0.0
C141 C 0.2516 0.86842 1.01331 0.0
C142 C 0.3149 0.76426 0.02451 0.0
C143 C 0.31861 0.89883 1.01544 0.0
C144 C 0.38214 0.86224 0.01947 0.0
C145 C 0.4446 0.75687 0.02836 0.0
C146 C 0.44427 0.68945 0.03554 0.0
C147 C 0.38094 0.79462 0.02386 0.0
C148 C 0.3812 0.66232 0.04265 0.0
C149 C 0.31617 0.69818 0.03455 0.0
H150 H 0.92853 0.77401 0.04249 0.0
H151 H 0.80419 0.95047 0.02687 0.0
H152 H 0.69167 0.88927 0.0229 0.0
H153 H 0.62829 0.78284 0.02286 0.0
H154 H 0.7431 0.61375 1.0016 0.0
H155 H 0.85894 0.67216 0.02419 0.0
C156 C 0.87759 0.79895 0.04023 0.0
C157 C 0.87603 0.86657 0.03857 0.0
C158 C 0.81134 0.76349 0.03287 0.0
C159 C 0.80789 0.89841 0.03145 0.0
C160 C 0.74322 0.86338 0.02833 0.0
C161 C 0.67882 0.75867 0.02359 0.0
C162 C 0.67828 0.69073 1.01832 0.0
C163 C 0.74413 0.79544 0.02889 0.0
C164 C 0.74248 0.66281 1.01327 0.0
C165 C 0.8095 0.6971 0.02463 0.0
H166 H 0.8184 0.12009 0.99263 0.0
H167 H 0.02363 0.19024 0.9824 0.0
H168 H 0.98671 0.3019 0.98847 0.0
H169 H 0.88605 0.37892 0.98475 0.0
H170 H 0.68166 0.30698 0.9962 0.0
H171 H 0.72775 0.19612 1.00191 0.0
C172 C 0.85537 0.15993 0.99223 0.0
C173 C 0.92314 0.14757 0.9859 0.0
C174 C 0.83344 0.22336 0.99593 0.0
C175 C 0.97138 0.19897 0.98675 0.0
C176 C 0.94989 0.2627 0.99008 0.0
C177 C 0.85329 0.33892 0.99037 0.0
C178 C 0.78125 0.35023 0.99054 0.0
C179 C 0.87989 0.27545 0.99315 0.0
C180 C 0.73796 0.29873 0.99695 0.0
C181 C 0.76384 0.23554 0.99959 0.0
H182 H 0.62718 0.70156 0.54014 0.0
H183 H 0.78091 0.58268 0.50236 0.0
H184 H 0.86371 0.67627 0.50962 0.0
H185 H 0.89813 0.78907 0.53595 0.0
H186 H 0.74499 0.90584 0.57617 0.0
H187 H 0.65431 0.81653 0.55749 0.0
C188 C 0.67704 0.69718 0.53129 0.0
C189 C 0.69747 0.63649 0.51946 0.0
C190 C 0.72435 0.75061 0.53639 0.0
C191 C 0.76341 0.62988 0.50989 0.0
C192 C 0.81107 0.68303 0.51477 0.0
C193 C 0.84393 0.79504 0.53923 0.0
C194 C 0.82709 0.85332 0.55674 0.0
C195 C 0.79298 0.74321 0.52922 0.0
C196 C 0.75803 0.861 0.5623 0.0
C197 C 0.70661 0.81012 0.55181 0.0
H198 H 0.81562 0.38173 0.53732 0.0
H199 H 0.63957 0.23954 0.51258 0.0
H200 H 0.7285 0.15404 0.51045 0.0
H201 H 0.86166 0.12126 0.52888 0.0
H202 H 0.02879 0.2709 0.54981 0.0
H203 H 0.93919 0.35125 0.54709 0.0
C204 C 0.79547 0.3321 0.53153 0.0
C205 C 0.72122 0.31705 0.52671 0.0
C206 C 0.8463 0.28429 0.5315 0.0
C207 C 0.69682 0.2525 0.51753 0.0
C208 C 0.74795 0.20371 0.51673 0.0
C209 C 0.87826 0.17106 0.52825 0.0
C210 C 0.95319 0.1887 0.53318 0.0
C211 C 0.82385 0.21904 0.52508 0.0
C212 C 0.97239 0.25452 0.54121 0.0
C213 C 0.92055 0.30134 0.54028 0.0
H214 H 0.34662 0.37416 0.55101 0.0
H215 H 0.47236 0.23604 0.50366 0.0
H216 H 0.37498 0.1533 0.49577 0.0
H217 H 0.24443 0.12767 0.49027 0.0
H218 H 0.11767 0.27549 0.52695 0.0
H219 H 0.2216 0.34957 0.54614 0.0
C220 C 0.35366 0.32552 0.53966 0.0
C221 C 0.41601 0.31129 0.5274 0.0
C222 C 0.29546 0.28102 0.53141 0.0
C223 C 0.4249 0.24804 0.51347 0.0
C224 C 0.3684 0.20138 0.50796 0.0
C225 C 0.24061 0.17497 0.50456 0.0
C226 C 0.17491 0.19333 0.51265 0.0
C227 C 0.30181 0.2183 0.51492 0.0
C228 C 0.16886 0.25766 0.52524 0.0
C229 C 0.22858 0.30051 0.53574 0.0
H230 H 0.49375 0.69775 0.49208 0.0
H231 H 0.35048 0.59466 0.54988 0.0
H232 H 0.27834 0.69365 0.54669 0.0
H233 H 0.24745 0.80584 0.51768 0.0
H234 H 0.3904 0.90681 0.45832 0.0
H235 H 0.47367 0.81325 0.47358 0.0
C236 C 0.44877 0.69792 0.50592 0.0
C237 C 0.42823 0.63997 0.52229 0.0
C238 C 0.4078 0.75462 0.50365 0.0
C239 C 0.3683 0.6395 0.53851 0.0
C240 C 0.32672 0.69583 0.53616 0.0
C241 C 0.29851 0.80792 0.50994 0.0
C242 C 0.31382 0.863 0.48765 0.0
C243 C 0.34488 0.75327 0.51769 0.0
C244 C 0.37858 0.86499 0.47619 0.0
C245 C 0.4256 0.81139 0.48445 0.0
H246 H 0.07982 0.84537 0.19044 0.0
H247 H 0.11358 0.04553 0.16376 0.0
H248 H 0.11335 0.07593 0.24191 0.0
H249 H 0.13182 0.04095 0.32391 0.0
H250 H 0.09341 0.84113 0.34936 0.0
H251 H 0.06392 0.81553 0.26552 0.0
C252 C 0.08361 0.89579 0.20107 0.0
C253 C 0.09718 0.94313 0.172 0.0
C254 C 0.08363 0.91291 0.24621 0.0
C255 C 0.10263 0.00845 0.18589 0.0
C256 C 0.10331 0.0258 0.23075 0.0
C257 C 0.11421 -0.00753 0.31059 0.0
C258 C 0.11684 0.94249 0.34266 0.0
C259 C 0.09808 -0.02212 0.26226 0.0
C260 C 0.09333 0.87992 0.32515 0.0
C261 C 0.07682 0.86518 0.27732 0.0
H262 H 0.99035 0.02286 0.84769 0.0
H263 H 0.08606 0.83192 0.87216 0.0
H264 H 0.09889 0.83471 0.79378 0.0
H265 H 0.05381 0.88154 0.71241 0.0
H266 H 0.94851 0.06885 0.68807 0.0
H267 H 0.96738 0.0777 0.77247 0.0
C268 C 0.01549 -0.01765 0.83614 0.0
C269 C 0.03498 0.92633 0.86427 0.0
C270 C 0.01904 -0.01663 0.79085 0.0
C271 C 0.0695 0.87485 0.85028 0.0
C272 C 0.07607 0.87639 0.80547 0.0
C273 C 0.03716 0.92489 0.72618 0.0
C274 C 0.999 -0.02586 0.69459 0.0
C275 C 0.04654 0.92871 0.77442 0.0
C276 C 0.97797 0.0306 0.71211 0.0
C277 C 0.98837 0.03541 0.76015 0.0
H278 H 0.53286 0.40027 0.68439 0.0
H279 H 0.59294 0.59794 0.67042 0.0
H280 H 0.62407 0.61536 0.75602 0.0
H281 H 0.65158 0.56838 0.83704 0.0
H282 H 0.59334 0.36885 0.84856 0.0
H283 H 0.54368 0.35812 0.76225 0.0
C284 C 0.54932 0.448 0.6998 0.0
C285 C 0.55896 0.49814 0.67111 0.0
C286 C 0.56934 0.45675 0.74906 0.0
C287 C 0.58271 0.55924 0.69158 0.0
C288 C 0.60198 0.56874 0.74074 0.0
C289 C 0.62659 0.52314 0.82042 0.0
C290 C 0.62717 0.46914 0.84914 0.0
C291 C 0.59822 0.51706 0.77022 0.0
C292 C 0.59468 0.41071 0.82722 0.0
C293 C 0.56601 0.40456 0.77784 0.0
H294 H 0.42461 0.46955 0.34247 0.0
H295 H 0.66012 0.51583 0.38875 0.0
H296 H 0.64806 0.52915 0.3047 0.0
H297 H 0.57078 0.51286 0.21741 0.0
H298 H 0.33528 0.46747 0.17696 0.0
H299 H 0.34732 0.46768 0.25983 0.0
C300 C 0.47368 0.48292 0.33446 0.0
C301 C 0.54353 0.49013 0.37156 0.0
C302 C 0.46613 0.49 0.28705 0.0
C303 C 0.60589 0.50927 0.36063 0.0
C304 C 0.59886 0.51657 0.31265 0.0
C305 C 0.52196 0.50521 0.22695 0.0
C306 C 0.45221 0.4895 0.19123 0.0
C307 C 0.52937 0.50519 0.27539 0.0
C308 C 0.38933 0.47936 0.20385 0.0
C309 C 0.39623 0.47915 0.2512 0.0
loop_
_geom_bond_atom_site_label_1
_geom_bond_atom_site_label_2
_geom_bond_distance
_geom_bond_site_symmetry_2
_ccdc_geom_bond_type
Zn0 O6 1.920 1_545 S
Zn0 O12 1.898 . S
Zn0 O15 1.905 1_545 S
Zn1 O9 1.905 . S
Zn1 O10 1.898 1_545 S
Zn1 O18 1.920 1_545 S
Zn2 O5 2.080 1_444 S
Zn2 O8 2.114 . S
Zn2 O11 2.120 1_545 S
Zn2 O13 2.118 1_455 S
Zn2 O14 2.114 1_554 S
Zn2 O17 2.080 . S
C3 O8 1.166 . S
C3 O9 1.182 . S
C4 O10 1.167 . S
C4 O11 1.299 . S
O5 Zn2 2.080 1_666 S
O5 C19 1.305 . S
O6 Zn0 1.920 1_565 S
O6 C19 1.234 . S
C7 O12 1.167 . S
C7 O13 1.293 1_556 S
O8 Zn2 2.114 . S
O8 C3 1.166 . S
O9 Zn1 1.905 . S
O9 C3 1.182 . S
O10 Zn1 1.898 1_565 S
O10 C4 1.167 . S
O11 Zn2 2.120 1_565 S
O11 C4 1.299 . S
O12 Zn0 1.898 . S
O12 C7 1.167 . S
O13 Zn2 2.118 1_655 S
O13 C7 1.293 1_554 S
O14 Zn2 2.114 1_556 S
O14 C16 1.166 1_445 S
O15 Zn0 1.905 1_565 S
O15 C16 1.182 . S
C16 O14 1.166 1_665 S
C16 O15 1.182 . S
O17 Zn2 2.080 . S
O17 C20 1.305 1_545 S
O18 Zn1 1.920 1_565 S
O18 C20 1.234 . S
C19 O5 1.305 . S
C19 O6 1.234 . S
C20 O17 1.305 1_565 S
C20 O18 1.234 . S
Zn21 O27 1.920 . S
Zn21 O33 1.898 . S
Zn21 O36 1.905 . S
Zn22 O30 1.905 . S
Zn22 O31 1.898 . S
Zn22 O39 1.920 . S
Zn23 O26 2.080 . S
Zn23 O29 2.114 . S
Zn23 O32 2.120 . S
Zn23 O34 2.120 . S
Zn23 O35 2.114 . S
Zn23 O38 2.080 . S
C24 O29 1.166 . S
C24 O30 1.182 . S
C25 O31 1.167 . S
C25 O32 1.299 . S
O26 Zn23 2.080 . S
O26 C40 1.305 . S
O27 Zn21 1.920 . S
O27 C40 1.234 . S
C28 O33 1.167 . S
C28 O34 1.299 . S
O29 Zn23 2.114 . S
O29 C24 1.166 . S
O30 Zn22 1.905 . S
O30 C24 1.182 . S
O31 Zn22 1.898 . S
O31 C25 1.167 . S
O32 Zn23 2.120 . S
O32 C25 1.299 . S
O33 Zn21 1.898 . S
O33 C28 1.167 . S
O34 Zn23 2.120 . S
O34 C28 1.299 . S
O35 Zn23 2.114 . S
O35 C37 1.166 . S
O36 Zn21 1.905 . S
O36 C37 1.182 . S
C37 O35 1.166 . S
C37 O36 1.182 . S
O38 Zn23 2.080 . S
O38 C41 1.305 . S
O39 Zn22 1.920 . S
O39 C41 1.234 . S
C40 O26 1.305 . S
C40 O27 1.234 . S
C41 O38 1.305 . S
C41 O39 1.234 . S
H42 C43 0.949 . S
C43 H42 0.949 . S
C43 C44 1.395 . S
C43 C45 1.391 . S
C44 C43 1.395 . S
C44 C47 1.390 1_545 S
C45 C43 1.391 . S
C45 C49 1.387 1_545 S
C45 C50 1.491 . S
H46 C47 0.950 . S
C47 C44 1.390 1_565 S
C47 H46 0.950 . S
C47 C48 1.378 . S
C48 C47 1.378 . S
C48 C49 1.409 . S
C49 C45 1.387 1_565 S
C49 C48 1.409 . S
C49 H51 0.951 . S
C50 C45 1.491 . S
C50 C52 1.382 . S
C50 C54 1.404 . S
H51 C49 0.951 . S
C52 C50 1.382 . S
C52 C53 1.390 . S
C52 H57 0.949 1_455 S
C53 C52 1.390 . S
C53 C58 1.399 . S
C54 C50 1.404 . S
C54 H55 0.950 . S
C54 C56 1.375 . S
H55 C54 0.950 . S
C56 C54 1.375 . S
C56 C58 1.382 . S
C56 H60 0.950 . S
H57 C52 0.949 1_655 S
C58 C53 1.399 . S
C58 C56 1.382 . S
C58 H59 0.952 . S
H59 C58 0.952 . S
H60 C56 0.950 . S
H61 C62 0.949 . S
C62 H61 0.949 . S
C62 C63 1.395 1_455 S
C62 C64 1.391 1_455 S
C63 C62 1.395 1_655 S
C63 C66 1.390 1_545 S
C64 C62 1.391 1_655 S
C64 C68 1.387 1_545 S
C64 C69 1.491 1_655 S
H65 C66 0.950 . S
C66 C63 1.390 1_565 S
C66 H65 0.950 . S
C66 C67 1.378 . S
C67 C66 1.378 . S
C67 C68 1.409 . S
C68 C64 1.387 1_565 S
C68 C67 1.409 . S
C68 H70 0.951 . S
C69 C64 1.491 1_455 S
C69 C71 1.382 . S
C69 C73 1.404 1_455 S
H70 C68 0.951 . S
C71 C69 1.382 . S
C71 C72 1.390 . S
C71 H76 0.949 . S
C72 C71 1.390 . S
C72 C77 1.399 . S
C73 C69 1.404 1_655 S
C73 H74 0.950 . S
C73 C75 1.375 . S
H74 C73 0.950 . S
C75 C73 1.375 . S
C75 C77 1.382 1_655 S
C75 H79 0.950 . S
H76 C71 0.949 . S
C77 C72 1.399 . S
C77 C75 1.382 1_455 S
C77 H78 0.952 . S
H78 C77 0.952 . S
H79 C75 0.950 . S
H80 C81 0.949 . S
C81 H80 0.949 . S
C81 C82 1.395 . S
C81 C83 1.391 . S
C82 C81 1.395 . S
C82 C85 1.390 . S
C83 C81 1.391 . S
C83 C87 1.387 . S
C83 C88 1.491 . S
H84 C85 0.950 . S
C85 C82 1.390 . S
C85 H84 0.950 . S
C85 C86 1.378 . S
C86 C85 1.378 . S
C86 C87 1.409 . S
C87 C83 1.387 . S
C87 C86 1.409 . S
C87 H89 0.951 . S
C88 C83 1.491 . S
C88 C90 1.382 . S
C88 C92 1.404 1_556 S
H89 C87 0.951 . S
C90 C88 1.382 . S
C90 C91 1.390 . S
C90 H95 0.949 . S
C91 C90 1.390 . S
C91 C96 1.399 1_556 S
C92 C88 1.404 1_554 S
C92 H93 0.950 . S
C92 C94 1.375 . S
H93 C92 0.950 . S
C94 C92 1.375 . S
C94 C96 1.382 . S
C94 H98 0.950 . S
H95 C90 0.949 . S
C96 C91 1.399 1_554 S
C96 C94 1.382 . S
C96 H97 0.952 . S
H97 C96 0.952 . S
H98 C94 0.950 . S
H99 C100 0.949 . S
C100 H99 0.949 . S
C100 C101 1.395 . S
C100 C102 1.391 . S
C101 C100 1.395 . S
C101 C104 1.390 . S
C102 C100 1.391 . S
C102 C106 1.387 . S
C102 C107 1.491 . S
H103 C104 0.950 . S
C104 C101 1.390 . S
C104 H103 0.950 . S
C104 C105 1.378 . S
C105 C104 1.378 . S
C105 C106 1.409 . S
C106 C102 1.387 . S
C106 C105 1.409 . S
C106 H108 0.951 . S
C107 C102 1.491 . S
C107 C109 1.382 . S
C107 C111 1.404 1_554 S
H108 C106 0.951 . S
C109 C107 1.382 . S
C109 C110 1.390 . S
C109 H114 0.949 . S
C110 C109 1.390 . S
C110 C115 1.399 1_554 S
C111 C107 1.404 1_556 S
C111 H112 0.950 . S
C111 C113 1.375 . S
H112 C111 0.950 . S
C113 C111 1.375 . S
C113 C115 1.382 . S
C113 H117 0.950 . S
H114 C109 0.949 . S
C115 C110 1.399 1_556 S
C115 C113 1.382 . S
C115 H116 0.952 . S
H116 C115 0.952 . S
H117 C113 0.950 . S
H118 C124 0.930 . S
H119 C127 0.930 . S
H120 C128 0.930 . S
H121 C129 0.930 1_556 S
H122 C132 0.930 . S
H123 C133 0.930 . S
C124 H118 0.930 . S
C124 C125 1.355 . S
C124 C126 1.415 . S
C125 C124 1.355 . S
C125 C127 1.419 1_554 S
C126 C124 1.415 . S
C126 C131 1.425 . S
C126 C133 1.409 . S
C127 H119 0.930 . S
C127 C125 1.419 1_556 S
C127 C128 1.362 . S
C128 H120 0.930 . S
C128 C127 1.362 . S
C128 C131 1.409 1_556 S
C129 H121 0.930 1_554 S
C129 C130 1.355 . S
C129 C131 1.415 . S
C130 C129 1.355 . S
C130 C132 1.419 . S
C131 C126 1.425 . S
C131 C128 1.409 1_554 S
C131 C129 1.415 . S
C132 H122 0.930 . S
C132 C130 1.419 . S
C132 C133 1.362 . S
C133 H123 0.930 . S
C133 C126 1.409 . S
C133 C132 1.362 . S
H134 C140 0.930 . S
H135 C143 0.930 . S
H136 C144 0.930 . S
H137 C145 0.930 1_554 S
H138 C148 0.930 . S
H139 C149 0.930 . S
C140 H134 0.930 . S
C140 C141 1.355 . S
C140 C142 1.415 . S
C141 C140 1.355 . S
C141 C143 1.419 1_556 S
C142 C140 1.415 . S
C142 C147 1.425 . S
C142 C149 1.409 . S
C143 H135 0.930 . S
C143 C141 1.419 1_554 S
C143 C144 1.362 . S
C144 H136 0.930 . S
C144 C143 1.362 . S
C144 C147 1.409 1_554 S
C145 H137 0.930 1_556 S
C145 C146 1.355 . S
C145 C147 1.415 . S
C146 C145 1.355 . S
C146 C148 1.419 . S
C147 C142 1.425 . S
C147 C144 1.409 1_556 S
C147 C145 1.415 . S
C148 H138 0.930 . S
C148 C146 1.419 . S
C148 C149 1.362 . S
C149 H139 0.930 . S
C149 C142 1.409 . S
C149 C148 1.362 . S
H150 C156 0.930 . S
H151 C159 0.930 . S
H152 C160 0.930 . S
H153 C161 0.930 1_556 S
H154 C164 0.930 . S
H155 C165 0.930 . S
C156 H150 0.930 . S
C156 C157 1.355 . S
C156 C158 1.415 . S
C157 C156 1.355 . S
C157 C159 1.419 1_554 S
C158 C156 1.415 . S
C158 C163 1.425 . S
C158 C165 1.409 . S
C159 H151 0.930 . S
C159 C157 1.419 1_556 S
C159 C160 1.362 . S
C160 H152 0.930 . S
C160 C159 1.362 . S
C160 C163 1.409 1_556 S
C161 H153 0.930 1_554 S
C161 C162 1.355 . S
C161 C163 1.415 . S
C162 C161 1.355 . S
C162 C164 1.419 . S
C163 C158 1.425 . S
C163 C160 1.409 1_554 S
C163 C161 1.415 . S
C164 H154 0.930 . S
C164 C162 1.419 . S
C164 C165 1.362 . S
C165 H155 0.930 . S
C165 C158 1.409 . S
C165 C164 1.362 . S
H166 C172 0.930 . S
H167 C175 0.930 1_455 S
H168 C176 0.930 . S
H169 C177 0.930 . S
H170 C180 0.930 . S
H171 C181 0.930 . S
C172 H166 0.930 . S
C172 C173 1.355 . S
C172 C174 1.415 . S
C173 C172 1.355 . S
C173 C175 1.419 . S
C174 C172 1.415 . S
C174 C179 1.425 . S
C174 C181 1.409 . S
C175 H167 0.930 1_655 S
C175 C173 1.419 . S
C175 C176 1.362 . S
C176 H168 0.930 . S
C176 C175 1.362 . S
C176 C179 1.409 . S
C177 H169 0.930 . S
C177 C178 1.355 . S
C177 C179 1.415 . S
C178 C177 1.355 . S
C178 C180 1.419 . S
C179 C174 1.425 . S
C179 C176 1.409 . S
C179 C177 1.415 . S
C180 H170 0.930 . S
C180 C178 1.419 . S
C180 C181 1.362 . S
C181 H171 0.930 . S
C181 C174 1.409 . S
C181 C180 1.362 . S
H182 C188 0.930 . S
H183 C191 0.930 . S
H184 C192 0.930 . S
H185 C193 0.930 . S
H186 C196 0.930 . S
H187 C197 0.930 . S
C188 H182 0.930 . S
C188 C189 1.355 . S
C188 C190 1.415 . S
C189 C188 1.355 . S
C189 C191 1.419 . S
C190 C188 1.415 . S
C190 C195 1.425 . S
C190 C197 1.409 . S
C191 H183 0.930 . S
C191 C189 1.419 . S
C191 C192 1.362 . S
C192 H184 0.930 . S
C192 C191 1.362 . S
C192 C195 1.409 . S
C193 H185 0.930 . S
C193 C194 1.355 . S
C193 C195 1.415 . S
C194 C193 1.355 . S
C194 C196 1.419 . S
C195 C190 1.425 . S
C195 C192 1.409 . S
C195 C193 1.415 . S
C196 H186 0.930 . S
C196 C194 1.419 . S
C196 C197 1.362 . S
C197 H187 0.930 . S
C197 C190 1.409 . S
C197 C196 1.362 . S
H198 C204 0.930 . S
H199 C207 0.930 . S
H200 C208 0.930 . S
H201 C209 0.930 . S
H202 C212 0.930 1_455 S
H203 C213 0.930 . S
C204 H198 0.930 . S
C204 C205 1.355 . S
C204 C206 1.415 . S
C205 C204 1.355 . S
C205 C207 1.419 . S
C206 C204 1.415 . S
C206 C211 1.425 . S
C206 C213 1.409 . S
C207 H199 0.930 . S
C207 C205 1.419 . S
C207 C208 1.362 . S
C208 H200 0.930 . S
C208 C207 1.362 . S
C208 C211 1.409 . S
C209 H201 0.930 . S
C209 C210 1.355 . S
C209 C211 1.415 . S
C210 C209 1.355 . S
C210 C212 1.419 . S
C211 C206 1.425 . S
C211 C208 1.409 . S
C211 C209 1.415 . S
C212 H202 0.930 1_655 S
C212 C210 1.419 . S
C212 C213 1.362 . S
C213 H203 0.930 . S
C213 C206 1.409 . S
C213 C212 1.362 . S
H214 C220 0.930 . S
H215 C223 0.930 . S
H216 C224 0.930 . S
H217 C225 0.930 . S
H218 C228 0.930 . S
H219 C229 0.930 . S
C220 H214 0.930 . S
C220 C221 1.355 . S
C220 C222 1.415 . S
C221 C220 1.355 . S
C221 C223 1.419 . S
C222 C220 1.415 . S
C222 C227 1.425 . S
C222 C229 1.409 . S
C223 H215 0.930 . S
C223 C221 1.419 . S
C223 C224 1.362 . S
C224 H216 0.930 . S
C224 C223 1.362 . S
C224 C227 1.409 . S
C225 H217 0.930 . S
C225 C226 1.355 . S
C225 C227 1.415 . S
C226 C225 1.355 . S
C226 C228 1.419 . S
C227 C222 1.425 . S
C227 C224 1.409 . S
C227 C225 1.415 . S
C228 H218 0.930 . S
C228 C226 1.419 . S
C228 C229 1.362 . S
C229 H219 0.930 . S
C229 C222 1.409 . S
C229 C228 1.362 . S
H230 C236 0.930 . S
H231 C239 0.930 . S
H232 C240 0.930 . S
H233 C241 0.930 . S
H234 C244 0.930 . S
H235 C245 0.930 . S
C236 H230 0.930 . S
C236 C237 1.355 . S
C236 C238 1.415 . S
C237 C236 1.355 . S
C237 C239 1.419 . S
C238 C236 1.415 . S
C238 C243 1.425 . S
C238 C245 1.409 . S
C239 H231 0.930 . S
C239 C237 1.419 . S
C239 C240 1.362 . S
C240 H232 0.930 . S
C240 C239 1.362 . S
C240 C243 1.409 . S
C241 H233 0.930 . S
C241 C242 1.355 . S
C241 C243 1.415 . S
C242 C241 1.355 . S
C242 C244 1.419 . S
C243 C238 1.425 . S
C243 C240 1.409 . S
C243 C241 1.415 . S
C244 H234 0.930 . S
C244 C242 1.419 . S
C244 C245 1.362 . S
C245 H235 0.930 . S
C245 C238 1.409 . S
C245 C244 1.362 . S
H246 C252 0.930 . S
H247 C255 0.930 . S
H248 C256 0.930 . S
H249 C257 0.930 . S
H250 C260 0.930 . S
H251 C261 0.930 . S
C252 H246 0.930 . S
C252 C253 1.355 . S
C252 C254 1.415 . S
C253 C252 1.355 . S
C253 C255 1.419 1_565 S
C254 C252 1.415 . S
C254 C259 1.425 1_565 S
C254 C261 1.409 . S
C255 H247 0.930 . S
C255 C253 1.419 1_545 S
C255 C256 1.362 . S
C256 H248 0.930 . S
C256 C255 1.362 . S
C256 C259 1.409 . S
C257 H249 0.930 . S
C257 C258 1.355 . S
C257 C259 1.415 . S
C258 C257 1.355 . S
C258 C260 1.419 1_545 S
C259 C254 1.425 1_545 S
C259 C256 1.409 . S
C259 C257 1.415 . S
C260 H250 0.930 . S
C260 C258 1.419 1_565 S
C260 C261 1.362 . S
C261 H251 0.930 . S
C261 C254 1.409 . S
C261 C260 1.362 . S
H262 C268 0.930 . S
H263 C271 0.930 . S
H264 C272 0.930 . S
H265 C273 0.930 . S
H266 C276 0.930 . S
H267 C277 0.930 . S
C268 H262 0.930 . S
C268 C269 1.355 1_645 S
C268 C270 1.415 . S
C269 C268 1.355 1_465 S
C269 C271 1.419 . S
C270 C268 1.415 . S
C270 C275 1.425 1_645 S
C270 C277 1.409 . S
C271 H263 0.930 . S
C271 C269 1.419 . S
C271 C272 1.362 . S
C272 H264 0.930 . S
C272 C271 1.362 . S
C272 C275 1.409 . S
C273 H265 0.930 . S
C273 C274 1.355 1_465 S
C273 C275 1.415 . S
C274 C273 1.355 1_645 S
C274 C276 1.419 . S
C275 C270 1.425 1_465 S
C275 C272 1.409 . S
C275 C273 1.415 . S
C276 H266 0.930 . S
C276 C274 1.419 . S
C276 C277 1.362 . S
C277 H267 0.930 . S
C277 C270 1.409 . S
C277 C276 1.362 . S
H278 C284 0.930 . S
H279 C287 0.930 . S
H280 C288 0.930 . S
H281 C289 0.930 . S
H282 C292 0.930 . S
H283 C293 0.930 . S
C284 H278 0.930 . S
C284 C285 1.355 . S
C284 C286 1.415 . S
C285 C284 1.355 . S
C285 C287 1.419 . S
C286 C284 1.415 . S
C286 C291 1.425 . S
C286 C293 1.409 . S
C287 H279 0.930 . S
C287 C285 1.419 . S
C287 C288 1.362 . S
C288 H280 0.930 . S
C288 C287 1.362 . S
C288 C291 1.409 . S
C289 H281 0.930 . S
C289 C290 1.355 . S
C289 C291 1.415 . S
C290 C289 1.355 . S
C290 C292 1.419 . S
C291 C286 1.425 . S
C291 C288 1.409 . S
C291 C289 1.415 . S
C292 H282 0.930 . S
C292 C290 1.419 . S
C292 C293 1.362 . S
C293 H283 0.930 . S
C293 C286 1.409 . S
C293 C292 1.362 . S
H294 C300 0.930 . S
H295 C303 0.930 . S
H296 C304 0.930 . S
H297 C305 0.930 . S
H298 C308 0.930 . S
H299 C309 0.930 . S
C300 H294 0.930 . S
C300 C301 1.355 . S
C300 C302 1.415 . S
C301 C300 1.355 . S
C301 C303 1.419 . S
C302 C300 1.415 . S
C302 C307 1.425 . S
C302 C309 1.409 . S
C303 H295 0.930 . S
C303 C301 1.419 . S
C303 C304 1.362 . S
C304 H296 0.930 . S
C304 C303 1.362 . S
C304 C307 1.409 . S
C305 H297 0.930 . S
C305 C306 1.355 . S
C305 C307 1.415 . S
C306 C305 1.355 . S
C306 C308 1.419 . S
C307 C302 1.425 . S
C307 C304 1.409 . S
C307 C305 1.415 . S
C308 H298 0.930 . S
C308 C306 1.419 . S
C308 C309 1.362 . S
C309 H299 0.930 . S
C309 C302 1.409 . S
C309 C308 1.362 . S
C130 C105 1.385 . S
C125 C3 1.360 . S
C141 C4 1.370 1_556 S
C146 C91 1.534 . S
C157 C19 1.392 1_554 S
C162 C110 1.544 . S
C173 C7 1.341 . S
C178 C86 1.417 . S
C189 C37 1.278 . S
C194 C67 1.395 . S
C205 C28 1.473 . S
C210 C53 1.470 1_655 S
C226 C72 1.482 . S
C221 C41 1.483 . S
C242 C48 1.401 . S
C237 C25 1.293 . S
C253 C20 1.380 . S
C258 C44 1.492 . S
C269 C16 1.477 1_455 S
C274 C63 1.573 . S
C290 C82 1.493 . S
C285 C40 1.371 . S
C301 C24 1.467 . S
C306 C101 1.539 . S
