# Generated by pormake.
# Topology anh, (6,3)-cn, num edge types: 1
# Building blocks:
#     Node 0, Type 0, BuildingBlock: PAMTOO_clean_sbu_0, # of connection points: 6
#     Node 1, Type 0, BuildingBlock: PAMTOO_clean_sbu_0, # of connection points: 6
#     Node 2, Type 0, BuildingBlock: PAMTOO_clean_sbu_0, # of connection points: 6
#     Node 3, Type 1, BuildingBlock: MIDCAF_clean_linker_0, # of connection points: 3
#     Node 4, Type 1, BuildingBlock: MIDCAF_clean_linker_0, # of connection points: 3
#     Node 5, Type 1, BuildingBlock: MIDCAF_clean_linker_0, # of connection points: 3
#     Node 6, Type 1, BuildingBlock: MIDCAF_clean_linker_0, # of connection points: 3
#     Node 7, Type 1, BuildingBlock: MIDCAF_clean_linker_0, # of connection points: 3
#     Node 8, Type 1, BuildingBlock: MIDCAF_clean_linker_0, # of connection points: 3
#     Edge 9, Type (0, 1), BuildingBlock: CIFDUS_clean_linker_0, # of connection points: 2
#     Edge 10, Type (0, 1), BuildingBlock: CIFDUS_clean_linker_0, # of connection points: 2
#     Edge 11, Type (0, 1), BuildingBlock: CIFDUS_clean_linker_0, # of connection points: 2
#     Edge 12, Type (0, 1), BuildingBlock: CIFDUS_clean_linker_0, # of connection points: 2
#     Edge 13, Type (0, 1), BuildingBlock: CIFDUS_clean_linker_0, # of connection points: 2
#     Edge 14, Type (0, 1), BuildingBlock: CIFDUS_clean_linker_0, # of connection points: 2
#     Edge 15, Type (0, 1), BuildingBlock: CIFDUS_clean_linker_0, # of connection points: 2
#     Edge 16, Type (0, 1), BuildingBlock: CIFDUS_clean_linker_0, # of connection points: 2
#     Edge 17, Type (0, 1), BuildingBlock: CIFDUS_clean_linker_0, # of connection points: 2
#     Edge 18, Type (0, 1), BuildingBlock: CIFDUS_clean_linker_0, # of connection points: 2
#     Edge 19, Type (0, 1), BuildingBlock: CIFDUS_clean_linker_0, # of connection points: 2
#     Edge 20, Type (0, 1), BuildingBlock: CIFDUS_clean_linker_0, # of connection points: 2
#     Edge 21, Type (0, 1), BuildingBlock: CIFDUS_clean_linker_0, # of connection points: 2
#     Edge 22, Type (0, 1), BuildingBlock: CIFDUS_clean_linker_0, # of connection points: 2
#     Edge 23, Type (0, 1), BuildingBlock: CIFDUS_clean_linker_0, # of connection points: 2
#     Edge 24, Type (0, 1), BuildingBlock: CIFDUS_clean_linker_0, # of connection points: 2
#     Edge 25, Type (0, 1), BuildingBlock: CIFDUS_clean_linker_0, # of connection points: 2
#     Edge 26, Type (0, 1), BuildingBlock: CIFDUS_clean_linker_0, # of connection points: 2
# Relax obj value: 0.193
# Max RMSD: 0.201
# Mean RMSD: 0.160
data_MOF--net-anh--node1-PAMTOO_clean_sbu_0--node2-MIDCAF_clean_linker_0--edge1-CIFDUS_clean_linker_0
_symmetry_space_group_name_H-M    P1
_symmetry_Int_Tables_number       1
_symmetry_cell_setting            triclinic
loop_
_symmetry_equiv_pos_as_xyz
'x, y, z'
_cell_length_a     32.669411
_cell_length_b     31.750752
_cell_length_c     60.181668
_cell_angle_alpha  90.588811
_cell_angle_beta   94.18826
_cell_angle_gamma 103.86588
loop_
_atom_site_label
_atom_site_type_symbol
_atom_site_fract_x
_atom_site_fract_y
_atom_site_fract_z
_atom_type_partial_charge
Dy0 Dy 0.07335 0.59813 0.14251 0.0
Dy1 Dy 1.03911 0.49221 0.14122 0.0
C2 C 1.05099 0.54551 0.09727 0.0
O3 O 1.0041 0.58817 0.14813 0.0
O4 O 0.9788 0.51571 0.13845 0.0
O5 O 0.10275 0.65577 0.12563 0.0
O6 O 0.08249 0.66099 0.15885 0.0
O7 O 1.03528 0.51451 0.17608 0.0
O8 O 0.08871 0.57595 0.17638 0.0
O9 O 0.11 0.50318 0.14686 0.0
O10 O 0.13228 0.57458 0.13751 0.0
O11 O 1.04253 0.42992 0.15393 0.0
O12 O 0.99825 0.43374 0.12578 0.0
C13 C 0.97228 0.55392 0.14369 0.0
O14 O 1.04282 0.57732 0.10871 0.0
O15 O 1.05933 0.51189 0.10742 0.0
C16 C 0.14609 0.70797 0.15026 0.0
C17 C 0.22668 0.75892 0.16491 0.0
C18 C 0.21956 0.71357 0.16265 0.0
C19 C 0.17957 0.68834 0.15552 0.0
C20 C 0.15298 0.75315 0.15213 0.0
C21 C 0.19302 0.77851 0.15943 0.0
C22 C 0.10409 0.68105 0.14304 0.0
C23 C 1.06381 0.54541 0.18695 0.0
C24 C 0.14047 0.53692 0.14246 0.0
C25 C 0.97652 0.379 0.15158 0.0
C26 C 0.91152 0.3211 0.17184 0.0
C27 C 0.93665 0.35751 0.18385 0.0
C28 C 0.9687 0.38639 0.17377 0.0
C29 C 0.95141 0.34278 0.13954 0.0
C30 C 0.91902 0.31412 0.14956 0.0
C31 C 1.01038 0.40899 0.1408 0.0
H32 H 0.24488 0.69751 0.16643 0.0
H33 H 0.17472 0.65344 0.1542 0.0
H34 H 0.12735 0.76872 0.14818 0.0
H35 H 0.19735 0.81329 0.16128 0.0
H36 H 0.93116 0.36394 0.20095 0.0
H37 H 0.98733 0.41445 0.18333 0.0
H38 H 0.9569 0.33667 0.1224 0.0
H39 H 0.90024 0.28615 0.13999 0.0
Dy40 Dy 0.56056 0.00745 0.52419 0.0
Dy41 Dy 0.66542 0.03807 0.53125 0.0
C42 C 0.60898 0.01943 0.57178 0.0
O43 O 0.5751 0.07879 0.51908 0.0
O44 O 0.64339 0.0995 0.53504 0.0
O45 O 0.50206 0.97408 0.53739 0.0
O46 O 0.50102 0.00637 0.50584 0.0
O47 O 0.64711 0.05005 0.49597 0.0
O48 O 0.585 0.99773 0.49138 0.0
O49 O 0.65252 0.96602 0.52493 0.0
O50 O 0.58073 0.94557 0.52883 0.0
O51 O 0.72743 0.03924 0.52083 0.0
O52 O 0.72091 0.07325 0.55133 0.0
C53 C 0.60832 0.10894 0.52676 0.0
O54 O 0.57941 0.0314 0.55931 0.0
O55 O 0.64129 0.01024 0.56288 0.0
C56 C 0.44795 0.94191 0.51001 0.0
C57 C 0.3876 0.86801 0.49221 0.0
C58 C 0.38296 0.88642 0.51294 0.0
C59 C 0.41281 0.92313 0.52171 0.0
C60 C 0.45304 0.92325 0.48944 0.0
C61 C 0.423 0.88677 0.48058 0.0
C62 C 0.47906 0.98045 0.51969 0.0
C63 C 0.61696 0.02457 0.4831 0.0
C64 C 0.61725 0.93601 0.52659 0.0
C65 C 0.77626 0.10606 0.52967 0.0
C66 C 0.83289 0.18174 0.51654 0.0
C67 C 0.79447 0.16466 0.50385 0.0
C68 C 0.76631 0.12731 0.51041 0.0
C69 C 0.81431 0.12318 0.54252 0.0
C70 C 0.8424 0.16085 0.53605 0.0
C71 C 0.74657 0.06686 0.53672 0.0
H72 H 0.35585 0.87289 0.52219 0.0
H73 H 0.40841 0.93696 0.53764 0.0
H74 H 0.48017 0.93681 0.48021 0.0
H75 H 0.42767 0.87296 0.4647 0.0
H76 H 0.78602 0.18045 0.48892 0.0
H77 H 0.73676 0.11502 0.50045 0.0
H78 H 0.8223 0.10737 0.55753 0.0
H79 H 0.87184 0.17321 0.54608 0.0
Dy80 Dy 0.60161 0.51262 0.84218 0.0
Dy81 Dy 0.49894 0.49327 0.8394 0.0
C82 C 0.54959 0.50554 0.79692 0.0
O83 O 0.58708 0.57846 0.83882 0.0
O84 O 0.51959 0.56265 0.8499 0.0
O85 O 0.65852 0.54783 0.8286 0.0
O86 O 0.66198 0.50233 0.85498 0.0
O87 O 0.51863 0.48031 0.87456 0.0
O88 O 0.58639 0.52343 0.87677 0.0
O89 O 0.51101 0.42777 0.83446 0.0
O90 O 0.581 0.44104 0.8475 0.0
O91 O 0.43962 0.49247 0.85308 0.0
O92 O 0.44053 0.4728 0.81859 0.0
C93 C 0.55384 0.59085 0.84504 0.0
O94 O 0.57589 0.48737 0.80828 0.0
O95 O 0.52276 0.52136 0.80747 0.0
C96 C 0.70894 0.50578 0.82655 0.0
C97 C 0.76684 0.47476 0.80237 0.0
C98 C 0.73461 0.49043 0.79109 0.0
C99 C 0.7057 0.5056 0.80307 0.0
C100 C 0.73957 0.48784 0.8377 0.0
C101 C 0.76812 0.4723 0.82574 0.0
C102 C 0.68193 0.52592 0.83965 0.0
C103 C 0.55323 0.5014 0.88624 0.0
C104 C 0.54459 0.41404 0.84124 0.0
C105 C 0.39621 0.51923 0.82636 0.0
C106 C 0.3612 0.58861 0.8124 0.0
C107 C 0.37262 0.58404 0.83506 0.0
C108 C 0.38977 0.54977 0.84196 0.0
C109 C 0.38429 0.52338 0.80369 0.0
C110 C 0.36691 0.55774 0.79678 0.0
C111 C 0.41886 0.48591 0.83349 0.0
H112 H 0.73297 0.49276 0.77312 0.0
H113 H 0.6819 0.51863 0.79396 0.0
H114 H 0.74251 0.48741 0.85574 0.0
H115 H 0.79308 0.46121 0.83499 0.0
H116 H 0.36738 0.60646 0.84763 0.0
H117 H 0.3984 0.54758 0.85956 0.0
H118 H 0.38893 0.50042 0.79125 0.0
H119 H 0.35806 0.56022 0.77923 0.0
C120 C 0.44124 0.93479 0.23015 0.0
C121 C 0.43802 0.93348 0.20675 0.0
C122 C 0.47032 0.9601 0.19547 0.0
C123 C 0.50541 0.98706 0.20744 0.0
H124 H 0.62286 0.07358 0.20189 0.0
H125 H 0.67828 0.12346 0.18383 0.0
H126 H 0.72446 0.18943 0.24719 0.0
H127 H 0.66996 0.13866 0.26539 0.0
H128 H 0.62821 0.09729 0.31074 0.0
H129 H 0.62871 0.09125 0.35118 0.0
H130 H 0.5431 0.96422 0.3428 0.0
H131 H 0.54142 0.97089 0.30268 0.0
H132 H 0.47723 0.9614 0.26008 0.0
H133 H 0.41646 0.91545 0.23936 0.0
H134 H 0.46875 0.95963 0.17743 0.0
H135 H 0.52994 0.00699 0.19832 0.0
N136 N 0.57578 0.04472 0.23389 0.0
N137 N 0.61172 0.06792 0.26881 0.0
N138 N 0.5491 0.01318 0.26645 0.0
C139 C 0.60896 0.07087 0.24621 0.0
C140 C 0.58191 0.03885 0.27899 0.0
C141 C 0.54557 0.01592 0.24397 0.0
C142 C 0.642 0.10198 0.23512 0.0
C143 C 0.64476 0.09876 0.21198 0.0
C144 C 0.67646 0.12754 0.20159 0.0
C145 C 0.70593 0.16047 0.21404 0.0
C146 C 0.70281 0.16398 0.23714 0.0
C147 C 0.67136 0.13497 0.24757 0.0
C148 C 0.58451 0.03477 0.30349 0.0
C149 C 0.60964 0.06806 0.31758 0.0
C150 C 0.61004 0.06449 0.34075 0.0
C151 C 0.58565 0.02737 0.35027 0.0
C152 C 0.56146 0.9937 0.33609 0.0
C153 C 0.5607 0.99745 0.31303 0.0
C154 C 0.50874 0.98786 0.2309 0.0
C155 C 0.47613 0.96145 0.24205 0.0
C156 C 0.58969 0.37008 0.54981 0.0
C157 C 0.62346 0.36452 0.53782 0.0
C158 C 0.65325 0.40186 0.5318 0.0
C159 C 0.65039 0.44354 0.53861 0.0
H160 H 0.60533 0.5924 0.52629 0.0
H161 H 0.61326 0.66761 0.51422 0.0
H162 H 0.69016 0.71414 0.57497 0.0
H163 H 0.68175 0.63978 0.58704 0.0
H164 H 0.60782 0.5877 0.62804 0.0
H165 H 0.59852 0.58124 0.66794 0.0
H166 H 0.59764 0.44527 0.66323 0.0
H167 H 0.60696 0.45138 0.62362 0.0
H168 H 0.56193 0.41414 0.56702 0.0
H169 H 0.56641 0.3423 0.555 0.0
H170 H 0.67947 0.39878 0.5224 0.0
H171 H 0.67491 0.4715 0.53479 0.0
N172 N 0.63019 0.52945 0.55444 0.0
N173 N 0.62557 0.56297 0.58902 0.0
N174 N 0.61257 0.48755 0.58591 0.0
C175 C 0.63281 0.56627 0.56705 0.0
C176 C 0.61535 0.52374 0.59855 0.0
C177 C 0.61995 0.4898 0.56402 0.0
C178 C 0.64293 0.61023 0.5576 0.0
C179 C 0.62464 0.61873 0.53677 0.0
C180 C 0.62888 0.66174 0.52998 0.0
C181 C 0.6523 0.69685 0.54367 0.0
C182 C 0.67225 0.68794 0.56394 0.0
C183 C 0.66731 0.64528 0.57089 0.0
C184 C 0.60835 0.52013 0.62259 0.0
C185 C 0.60554 0.5564 0.6355 0.0
C186 C 0.59998 0.5527 0.6583 0.0
C187 C 0.59761 0.51282 0.66866 0.0
C188 C 0.59989 0.47654 0.65573 0.0
C189 C 0.60503 0.48008 0.63297 0.0
C190 C 0.61802 0.44848 0.55181 0.0
C191 C 0.58715 0.41138 0.55677 0.0
C192 C 0.99494 0.4891 0.8418 0.0
C193 C 0.99375 0.49421 0.81857 0.0
C194 C 1.0234 0.52874 0.81003 0.0
C195 C 1.05026 0.55994 0.82444 0.0
H196 H 0.1152 0.69795 0.82812 0.0
H197 H 0.17736 0.73203 0.80899 0.0
H198 H 0.25496 0.73745 0.8708 0.0
H199 H 0.19285 0.70582 0.88989 0.0
H200 H 0.12508 0.6812 0.93361 0.0
H201 H 0.11719 0.67282 0.97346 0.0
H202 H 1.03223 0.54673 0.96019 0.0
H203 H 1.04042 0.55453 0.9206 0.0
H204 H 1.01998 0.51605 0.87392 0.0
H205 H 0.97251 0.46331 0.84918 0.0
H206 H 1.02392 0.53325 0.79223 0.0
H207 H 0.07102 0.58745 0.81731 0.0
N208 N 0.09637 0.62919 0.85505 0.0
N209 N 0.11383 0.65879 0.89143 0.0
N210 N 0.0673 0.59029 0.88523 0.0
C211 C 0.1176 0.66224 0.86911 0.0
C212 C 0.08815 0.62296 0.89957 0.0
C213 C 0.07136 0.59297 0.86299 0.0
C214 C 0.14969 0.69756 0.86023 0.0
C215 C 0.14536 0.70845 0.83776 0.0
C216 C 0.18101 0.728 0.82682 0.0
C217 C 0.22152 0.73515 0.83801 0.0
C218 C 0.22452 0.7317 0.86139 0.0
C219 C 0.18874 0.7131 0.87244 0.0
C220 C 0.08346 0.61857 0.92382 0.0
C221 C 0.10474 0.65168 0.93917 0.0
C222 C 0.10008 0.64698 0.962 0.0
C223 C 0.07416 0.60906 0.96996 0.0
C224 C 1.05291 0.57605 0.95462 0.0
C225 C 1.05746 0.58074 0.93186 0.0
C226 C 1.04821 0.55695 0.84766 0.0
C227 C 1.02183 0.52001 0.85614 0.0
C228 C 0.21984 0.63326 0.43506 0.0
C229 C 0.21688 0.64665 0.4571 0.0
C230 C 0.18319 0.62366 0.46886 0.0
C231 C 0.15252 0.58905 0.45853 0.0
H232 H 0.0724 0.45285 0.46633 0.0
H233 H 1.02663 0.39039 0.48294 0.0
H234 H 0.93698 0.37715 0.42535 0.0
H235 H 0.98269 0.43827 0.40867 0.0
H236 H 1.01479 0.47317 0.36301 0.0
H237 H 1.00637 0.47258 0.32253 0.0
H238 H 0.13429 0.55047 0.32112 0.0
H239 H 0.14215 0.55246 0.36166 0.0
H240 H 0.19217 0.59031 0.40759 0.0
H241 H 0.24591 0.64934 0.42567 0.0
H242 H 0.17974 0.63323 0.48581 0.0
H243 H 0.12638 0.57276 0.46782 0.0
N244 N 0.09301 0.51364 0.43565 0.0
N245 N 1.05678 0.48429 0.40174 0.0
N246 N 0.11594 0.5427 0.40167 0.0
C247 C 1.06101 0.48393 0.42434 0.0
C248 C 0.08408 0.51339 0.39027 0.0
C249 C 0.12054 0.5433 0.42431 0.0
C250 C 1.03152 0.45011 0.43604 0.0
C251 C 1.04267 0.43685 0.45739 0.0
C252 C 1.01643 0.40112 0.46691 0.0
C253 C 0.97854 0.37826 0.45527 0.0
C254 C 0.9665 0.3932 0.43449 0.0
C255 C 0.99268 0.42847 0.42497 0.0
C256 C 0.07914 0.51294 0.36561 0.0
C257 C 1.04115 0.4902 0.35408 0.0
C258 C 1.03639 0.48964 0.33082 0.0
C259 C 0.06965 0.51141 0.31849 0.0
C260 C 0.10773 0.53397 0.33005 0.0
C261 C 0.11233 0.53493 0.35333 0.0
C262 C 0.15472 0.57699 0.43619 0.0
C263 C 0.18908 0.59912 0.42472 0.0
C264 C 0.53469 0.14902 0.81468 0.0
C265 C 0.5613 0.16727 0.83348 0.0
C266 C 0.58596 0.14189 0.84464 0.0
C267 C 0.58491 0.09976 0.83664 0.0
H268 H 0.61925 0.95337 0.84044 0.0
H269 H 0.62549 0.8816 0.85354 0.0
H270 H 0.52241 0.82 0.8061 0.0
H271 H 0.51673 0.89073 0.79303 0.0
H272 H 0.57425 0.94333 0.74238 0.0
H273 H 0.57407 0.94614 0.70187 0.0
H274 H 0.54413 0.07134 0.70389 0.0
H275 H 0.54386 0.0686 0.74426 0.0
H276 H 0.51394 0.09532 0.79171 0.0
H277 H 0.51576 0.16756 0.80538 0.0
H278 H 0.60662 0.15489 0.85926 0.0
H279 H 0.60528 0.08149 0.84496 0.0
N280 N 0.5668 0.00595 0.81684 0.0
N281 N 0.56427 0.96918 0.78232 0.0
N282 N 0.5603 0.04146 0.78311 0.0
C283 C 0.567 0.96902 0.80496 0.0
C284 C 0.5613 0.00537 0.77128 0.0
C285 C 0.56295 0.04231 0.80572 0.0
C286 C 0.56745 0.92748 0.81579 0.0
C287 C 0.5975 0.92438 0.83323 0.0
C288 C 0.60128 0.88342 0.84055 0.0
C289 C 0.5744 0.84515 0.83085 0.0
C290 C 0.54329 0.84874 0.81409 0.0
C291 C 0.54011 0.88929 0.80655 0.0
C292 C 0.5593 0.00583 0.74663 0.0
C293 C 0.56734 0.97133 0.73421 0.0
C294 C 0.56745 0.973 0.71102 0.0
C295 C 0.55922 0.00902 0.69977 0.0
C296 C 0.55021 0.043 0.7121 0.0
C297 C 0.55037 0.0415 0.73527 0.0
C298 C 0.55966 0.08276 0.81719 0.0
C299 C 0.53391 0.10752 0.80669 0.0
C300 C 0.70971 0.57813 0.12821 0.0
C301 C 0.7208 0.54602 0.14174 0.0
C302 C 0.68772 0.51741 0.15193 0.0
C303 C 0.64501 0.51941 0.14773 0.0
H304 H 0.49584 0.59528 0.15151 0.0
H305 H 0.42464 0.6019 0.15908 0.0
H306 H 0.37054 0.48111 0.12269 0.0
H307 H 0.44108 0.47451 0.11567 0.0
H308 H 0.47797 0.4855 0.06286 0.0
H309 H 0.47105 0.47521 0.02248 0.0
H310 H 0.59715 0.55665 0.01914 0.0
H311 H 0.60474 0.56463 0.05953 0.0
H312 H 0.66001 0.6031 0.1121 0.0
H313 H 0.73363 0.60052 0.11979 0.0
H314 H 0.69464 0.49246 0.16268 0.0
H315 H 0.62044 0.49517 0.1547 0.0
N316 N 0.5545 0.54229 0.13422 0.0
N317 N 0.51188 0.52918 0.10029 0.0
N318 N 0.58499 0.53915 0.10005 0.0
C319 C 0.51511 0.53501 0.12277 0.0
C320 C 0.5464 0.53144 0.08884 0.0
C321 C 0.58977 0.54406 0.12259 0.0
C322 C 0.47454 0.53399 0.13328 0.0
C323 C 0.4688 0.56937 0.14593 0.0
C324 C 0.42768 0.57349 0.14987 0.0
C325 C 0.39103 0.54229 0.14133 0.0
C326 C 0.3973 0.50574 0.12984 0.0
C327 C 0.43812 0.50184 0.12582 0.0
C328 C 0.54197 0.52571 0.06433 0.0
C329 C 0.5042 0.50107 0.05344 0.0
C330 C 0.50017 0.49541 0.03025 0.0
C331 C 0.53354 0.51497 0.0174 0.0
C332 C 0.57111 0.54012 0.02841 0.0
C333 C 0.57543 0.54501 0.0516 0.0
C334 C 0.63402 0.54992 0.1331 0.0
C335 C 0.6672 0.57977 0.12385 0.0
H336 H 0.21552 0.5998 0.13977 0.0
H337 H 0.16761 0.46197 0.14679 0.0
H338 H 0.23929 0.45173 0.14781 0.0
H339 H 0.31613 0.48106 0.14639 0.0
H340 H 0.36475 0.61872 0.13928 0.0
H341 H 0.29319 0.62951 0.13917 0.0
C342 C 0.22062 0.56747 0.14152 0.0
C343 C 0.1854 0.53175 0.14311 0.0
C344 C 0.26256 0.56161 0.14228 0.0
C345 C 0.19344 0.49027 0.1455 0.0
C346 C 0.23473 0.48428 0.1461 0.0
C347 C 0.31133 0.51352 0.14472 0.0
C348 C 0.34671 0.54893 0.14285 0.0
C349 C 0.26963 0.51961 0.14443 0.0
C350 C 0.33894 0.59068 0.14111 0.0
C351 C 0.29766 0.59692 0.14081 0.0
H352 H 0.85825 0.19743 0.47501 0.0
H353 H 0.87529 0.25362 0.54155 0.0
H354 H 0.92301 0.31916 0.52877 0.0
H355 H 0.9577 0.36154 0.49815 0.0
H356 H 0.94091 0.3035 0.43189 0.0
H357 H 0.89488 0.23801 0.44503 0.0
C358 C 0.87227 0.22413 0.48669 0.0
C359 C 0.86303 0.22088 0.50912 0.0
C360 C 0.89953 0.26151 0.47924 0.0
C361 C 0.88208 0.25533 0.52419 0.0
C362 C 0.9092 0.29284 0.51687 0.0
C363 C 0.94429 0.33439 0.48666 0.0
C364 C 0.95229 0.3378 0.46399 0.0
C365 C 0.91794 0.29643 0.49437 0.0
C366 C 0.93452 0.30227 0.44931 0.0
C367 C 0.90837 0.26462 0.45682 0.0
H368 H 0.61976 0.66305 0.84227 0.0
H369 H 0.4849 0.62385 0.84802 0.0
H370 H 0.48015 0.69876 0.84589 0.0
H371 H 0.51288 0.77521 0.8403 0.0
H372 H 0.64723 0.81637 0.83467 0.0
H373 H 0.65366 0.74152 0.83935 0.0
C374 C 0.58943 0.67097 0.84321 0.0
C375 C 0.55281 0.6375 0.84519 0.0
C376 C 0.58674 0.71467 0.84209 0.0
C377 C 0.51378 0.64859 0.84654 0.0
C378 C 0.51088 0.69161 0.84528 0.0
C379 C 0.54364 0.76783 0.84028 0.0
C380 C 0.57946 0.80125 0.837 0.0
C381 C 0.54698 0.72482 0.84277 0.0
C382 C 0.61919 0.79129 0.83732 0.0
C383 C 0.6228 0.7484 0.8398 0.0
H384 H 0.89712 0.49041 0.14305 0.0
H385 H 0.94568 0.62943 0.14569 0.0
H386 H 0.8739 0.63933 0.14585 0.0
H387 H 0.7965 0.60907 0.14468 0.0
H388 H 0.74767 0.47012 0.1426 0.0
H389 H 0.81954 0.46008 0.14315 0.0
C390 C 0.89213 0.52293 0.14367 0.0
C391 C 0.92749 0.55908 0.14426 0.0
C392 C 0.85025 0.52859 0.14399 0.0
C393 C 0.91969 0.60083 0.14524 0.0
C394 C 0.87836 0.6066 0.14531 0.0
C395 C 0.80137 0.5765 0.14432 0.0
C396 C 0.76587 0.54048 0.14364 0.0
C397 C 0.84326 0.57079 0.14459 0.0
C398 C 0.77373 0.49867 0.14348 0.0
C399 C 0.81511 0.49282 0.1436 0.0
H400 H 0.35091 0.79428 0.5131 0.0
H401 H 0.35176 0.85623 0.44961 0.0
H402 H 0.29871 0.79371 0.43338 0.0
H403 H 0.25188 0.72198 0.43723 0.0
H404 H 0.2524 0.65825 0.50023 0.0
H405 H 0.30425 0.72146 0.51681 0.0
C406 C 0.33925 0.79413 0.49575 0.0
C407 C 0.35531 0.82979 0.48256 0.0
C408 C 0.30884 0.75793 0.48649 0.0
C409 C 0.34028 0.82897 0.46004 0.0
C410 C 0.3098 0.79334 0.45078 0.0
C411 C 0.26368 0.72154 0.45452 0.0
C412 C 0.24829 0.68516 0.46739 0.0
C413 C 0.29398 0.75761 0.46382 0.0
C414 C 0.26327 0.68587 0.48995 0.0
C415 C 0.29316 0.72192 0.49941 0.0
H416 H 0.60781 0.3712 0.84896 0.0
H417 H 0.47274 0.3493 0.83449 0.0
H418 H 0.46577 0.27131 0.83337 0.0
H419 H 0.49786 0.20928 0.83438 0.0
H420 H 0.63303 0.22998 0.84679 0.0
H421 H 0.6398 0.30804 0.85162 0.0
C422 C 0.57681 0.34939 0.84569 0.0
C423 C 0.54093 0.36642 0.8416 0.0
C424 C 0.57293 0.30417 0.84486 0.0
C425 C 0.50104 0.33744 0.83747 0.0
C426 C 0.49693 0.29266 0.83689 0.0
C427 C 0.52887 0.2308 0.83818 0.0
C428 C 0.5649 0.21363 0.83998 0.0
C429 C 0.53267 0.2757 0.84022 0.0
C430 C 0.60466 0.24206 0.84546 0.0
C431 C 0.60861 0.28685 0.84798 0.0
H432 H 0.68578 0.90047 0.5335 0.0
H433 H 0.55019 0.86598 0.51955 0.0
H434 H 0.54956 0.78927 0.52165 0.0
H435 H 0.58661 0.73162 0.5298 0.0
H436 H 0.72159 0.76552 0.54527 0.0
H437 H 0.72335 0.84228 0.5401 0.0
C438 C 0.65616 0.87617 0.53071 0.0
C439 C 0.6181 0.88928 0.52649 0.0
C440 C 0.65584 0.83176 0.53228 0.0
C441 C 0.57999 0.85713 0.52302 0.0
C442 C 0.57954 0.81307 0.52418 0.0
C443 C 0.6165 0.75574 0.53163 0.0
C444 C 0.6539 0.74278 0.53787 0.0
C445 C 0.61715 0.79997 0.5291 0.0
C446 C 0.6923 0.77462 0.54056 0.0
C447 C 0.69332 0.81855 0.53763 0.0
H448 H 0.80755 0.40932 0.80637 0.0
H449 H 0.81028 0.52956 0.77314 0.0
H450 H 0.88509 0.53906 0.76827 0.0
H451 H 0.95082 0.52623 0.78508 0.0
H452 H 0.94982 0.40862 0.82057 0.0
H453 H 0.87341 0.38458 0.81246 0.0
C454 C 0.82427 0.43663 0.79725 0.0
C455 C 0.80397 0.4695 0.79091 0.0
C456 C 0.86788 0.44301 0.79548 0.0
C457 C 0.82534 0.50408 0.77851 0.0
C458 C 0.86838 0.50985 0.77595 0.0
C459 C 0.93452 0.49429 0.79012 0.0
C460 C 0.95563 0.47043 0.80456 0.0
C461 C 0.89047 0.4815 0.78612 0.0
C462 C 0.93388 0.4286 0.81032 0.0
C463 C 0.89012 0.4149 0.80578 0.0
H464 H 0.26963 0.83765 0.15094 0.0
H465 H 0.27786 0.73954 0.19911 0.0
H466 H 0.34567 0.78332 0.21482 0.0
H467 H 0.40082 0.8506 0.21618 0.0
H468 H 0.39146 0.95115 0.16978 0.0
H469 H 0.32616 0.90502 0.15187 0.0
C470 C 0.28619 0.82597 0.16494 0.0
C471 C 0.26862 0.78537 0.17382 0.0
C472 C 0.32498 0.85166 0.17417 0.0
C473 C 0.29085 0.77037 0.19173 0.0
C474 C 0.32954 0.7955 0.20084 0.0
C475 C 0.38442 0.86253 0.2022 0.0
C476 C 0.40069 0.9044 0.19449 0.0
C477 C 0.3466 0.83634 0.19237 0.0
C478 C 0.37969 0.91895 0.17597 0.0
C479 C 0.34219 0.89273 0.16585 0.0
H480 H 0.67204 0.18283 0.53484 0.0
H481 H 0.53766 0.13925 0.51759 0.0
H482 H 0.53118 0.21402 0.51784 0.0
H483 H 0.56265 0.29177 0.52436 0.0
H484 H 0.6966 0.33622 0.54205 0.0
H485 H 0.70426 0.26159 0.53964 0.0
C486 C 0.64134 0.18965 0.53112 0.0
C487 C 0.60538 0.1551 0.52639 0.0
C488 C 0.6377 0.23308 0.53119 0.0
C489 C 0.56596 0.16487 0.52136 0.0
C490 C 0.56214 0.20778 0.52149 0.0
C491 C 0.59358 0.28521 0.52765 0.0
C492 C 0.62892 0.31977 0.53349 0.0
C493 C 0.59767 0.24211 0.52658 0.0
C494 C 0.66886 0.31051 0.53728 0.0
C495 C 0.67321 0.26769 0.53614 0.0
H496 H 0.38142 0.6734 0.82655 0.0
H497 H 0.29116 0.58045 0.78365 0.0
H498 H 0.24325 0.62854 0.78193 0.0
H499 H 0.21974 0.68468 0.80115 0.0
H500 H 0.30638 0.77468 0.84713 0.0
H501 H 0.36328 0.74066 0.83867 0.0
C502 C 0.35165 0.66423 0.81641 0.0
C503 C 0.33921 0.62286 0.80585 0.0
C504 C 0.32332 0.69118 0.81635 0.0
C505 C 0.30133 0.61189 0.79214 0.0
C506 C 0.2737 0.63926 0.7913 0.0
C507 C 0.25138 0.69851 0.80865 0.0
C508 C 0.25822 0.73104 0.82557 0.0
C509 C 0.2832 0.67741 0.80459 0.0
C510 C 0.29984 0.74864 0.83464 0.0
C511 C 0.33233 0.72895 0.82994 0.0
H512 H 0.83035 0.28858 0.15531 0.0
H513 H 0.91688 0.28533 0.21257 0.0
H514 H 0.86104 0.23517 0.23061 0.0
H515 H 0.78801 0.1918 0.22991 0.0
H516 H 0.70049 0.19733 0.17329 0.0
H517 H 0.75662 0.24626 0.15499 0.0
C518 C 0.83696 0.27661 0.17167 0.0
C519 C 0.8776 0.2905 0.1826 0.0
C520 C 0.80465 0.24807 0.182 0.0
C521 C 0.8857 0.2753 0.20392 0.0
C522 C 0.85386 0.24654 0.2142 0.0
C523 C 0.78099 0.2041 0.21369 0.0
C524 C 0.74001 0.19077 0.20302 0.0
C525 C 0.81321 0.23279 0.20341 0.0
C526 C 0.73184 0.20646 0.18178 0.0
C527 C 0.76386 0.2347 0.17134 0.0
H528 H 1.04839 0.61604 0.07266 0.0
H529 H 1.06051 0.48393 0.0672 0.0
H530 H 0.06869 0.492 0.02731 0.0
H531 H 0.07412 0.5372 -0.00578 0.0
H532 H 1.06237 0.66933 -5e-05 0.0
H533 H 1.05299 0.66077 0.03968 0.0
C534 C 1.05251 0.58884 0.06276 0.0
C535 C 1.05369 0.54938 0.07292 0.0
C536 C 1.05769 0.59386 0.03994 0.0
C537 C 1.05942 0.51464 0.05982 0.0
C538 C 1.06419 0.51926 0.03701 0.0
C539 C 0.06914 0.564 0.00413 0.0
C540 C 0.06896 0.60386 -0.00586 0.0
C541 C 1.06361 0.5588 0.02694 0.0
C542 C 1.06317 0.6385 0.00729 0.0
C543 C 1.05751 0.63354 0.02996 0.0
H544 H 0.55218 0.99622 0.45154 0.0
H545 H 0.68507 0.05977 0.4599 0.0
H546 H 0.68726 0.06599 0.41957 0.0
H547 H 0.65145 0.05325 0.38194 0.0
H548 H 0.5176 0.99344 0.37393 0.0
H549 H 0.51602 0.98539 0.41408 0.0
C550 C 0.58168 0.0112 0.44454 0.0
C551 C 0.61841 0.02732 0.45868 0.0
C552 C 0.58261 0.01529 0.42138 0.0
C553 C 0.6563 0.04713 0.44937 0.0
C554 C 0.6576 0.0507 0.42631 0.0
C555 C 0.62182 0.03891 0.38897 0.0
C556 C 0.58481 0.02372 0.37485 0.0
C557 C 0.6209 0.03505 0.41216 0.0
C558 C 0.5468 0.00467 0.38431 0.0
C559 C 0.54576 1.00029 0.40731 0.0
H560 H 0.60318 0.47752 0.77144 0.0
H561 H 0.50253 0.5445 0.76784 0.0
H562 H 0.50907 0.55363 0.72781 0.0
H563 H 0.54348 0.54219 0.69377 0.0
H564 H 0.64364 0.47468 0.69799 0.0
H565 H 0.63719 0.46621 0.73793 0.0
C566 C 0.58253 0.49406 0.76195 0.0
C567 C 0.55238 0.51027 0.77263 0.0
C568 C 0.58644 0.49914 0.73905 0.0
C569 C 0.52597 0.53164 0.76002 0.0
C570 C 0.52974 0.53694 0.73715 0.0
C571 C 0.56401 0.5259 0.70351 0.0
C572 C 0.59389 0.50895 0.69298 0.0
C573 C 0.55994 0.52087 0.72649 0.0
C574 C 0.62007 0.48754 0.70571 0.0
C575 C 0.6165 0.48279 0.72853 0.0
H576 H 0.54703 0.03599 0.59595 0.0
H577 H 0.66335 0.99351 0.60222 0.0
H578 H 0.65752 0.98558 0.64218 0.0
H579 H 0.61995 0.99136 0.67543 0.0
H580 H 0.50392 0.03401 0.66941 0.0
H581 H 0.50921 0.04141 0.62925 0.0
C582 C 0.57115 0.02504 0.60604 0.0
C583 C 0.60557 0.01541 0.59607 0.0
C584 C 0.56767 0.02056 0.62905 0.0
C585 C 0.63652 1.00123 0.60943 0.0
C586 C 0.63322 0.99661 0.6323 0.0
C587 C 0.59558 1.00178 0.66527 0.0
C588 C 0.56154 0.01197 0.67532 0.0
C589 C 0.59893 0.00614 0.64227 0.0
C590 C 0.53058 0.02624 0.66205 0.0
C591 C 0.53353 0.03037 0.6391 0.0
H592 H 0.48899 0.49775 0.91292 0.0
H593 H 0.62255 0.50422 0.91435 0.0
H594 H 0.62767 0.50639 0.95504 0.0
H595 H 0.59472 0.50805 0.99003 0.0
H596 H 0.46262 0.50931 0.98883 0.0
H597 H 0.45621 0.50136 0.94831 0.0
C598 C 0.51907 0.49927 0.92221 0.0
C599 C 0.55531 0.50072 0.91075 0.0
C600 C 0.52204 0.50178 0.94562 0.0
C601 C 0.59427 0.50327 0.92287 0.0
C602 C 0.59721 0.50446 0.94611 0.0
C603 C 0.56458 0.50723 0.98099 0.0
C604 C 0.5293 0.5094 0.99265 0.0
C605 C 0.5614 0.50422 0.95764 0.0
C606 C 0.49028 0.50704 0.98047 0.0
C607 C 0.48661 0.50287 0.95722 0.0
H608 H 1.03222 0.47971 0.21425 0.0
H609 H 0.10573 0.61238 0.21494 0.0
H610 H 0.11349 0.61366 0.25558 0.0
H611 H 0.099 0.5775 0.29086 0.0
H612 H 1.02878 0.4436 0.29026 0.0
H613 H 1.0195 0.44279 0.24966 0.0
C614 C 1.04983 0.50894 0.22329 0.0
C615 C 0.06827 0.5459 0.21157 0.0
C616 C 1.05461 0.50935 0.24668 0.0
C617 C 0.0913 0.58341 0.22354 0.0
C618 C 0.09572 0.58422 0.24679 0.0
C619 C 0.08214 0.54791 0.28189 0.0
C620 C 1.06457 0.51073 0.2937 0.0
C621 C 0.07758 0.54737 0.25852 0.0
C622 C 1.04208 0.47297 0.2817 0.0
C623 C 1.037 0.47234 0.25844 0.0
loop_
_geom_bond_atom_site_label_1
_geom_bond_atom_site_label_2
_geom_bond_distance
_geom_bond_site_symmetry_2
_ccdc_geom_bond_type
Dy0 O3 2.307 1_455 S
Dy0 O5 2.395 . S
Dy0 O6 2.379 . S
Dy0 O8 2.339 . S
Dy0 O10 2.298 . S
Dy0 O14 2.275 . S
Dy0 C22 2.738 . S
Dy1 O4 2.298 . S
Dy1 O7 2.275 1_655 S
Dy1 O9 2.307 1_655 S
Dy1 O11 2.395 . S
Dy1 O12 2.379 . S
Dy1 O15 2.339 . S
Dy1 C31 2.738 . S
C2 O14 1.254 . S
C2 O15 1.257 1_455 S
O3 Dy0 2.307 1_655 S
O3 C13 1.266 . S
O4 Dy1 2.298 . S
O4 C13 1.236 . S
O5 Dy0 2.395 . S
O5 C22 1.255 . S
O6 Dy0 2.379 . S
O6 C22 1.249 . S
O7 Dy1 2.275 1_455 S
O7 C23 1.254 . S
O8 Dy0 2.339 . S
O8 C23 1.257 . S
O9 Dy1 2.307 1_455 S
O9 C24 1.266 . S
O10 Dy0 2.298 . S
O10 C24 1.236 . S
O11 Dy1 2.395 . S
O11 C31 1.255 . S
O12 Dy1 2.379 . S
O12 C31 1.249 . S
C13 O3 1.266 . S
C13 O4 1.236 . S
O14 Dy0 2.275 . S
O14 C2 1.254 . S
O15 Dy1 2.339 . S
O15 C2 1.257 1_655 S
C16 C19 1.344 . S
C16 C20 1.328 . S
C16 C22 1.516 . S
C17 C18 1.304 . S
C17 C21 1.323 . S
C18 C17 1.304 . S
C18 C19 1.371 . S
C18 H32 0.930 . S
C19 C16 1.344 . S
C19 C18 1.371 . S
C19 H33 0.931 . S
C20 C16 1.328 . S
C20 C21 1.433 . S
C20 H34 0.931 . S
C21 C17 1.323 . S
C21 C20 1.433 . S
C21 H35 0.933 . S
C22 Dy0 2.738 . S
C22 O5 1.255 . S
C22 O6 1.249 . S
C22 C16 1.516 . S
C23 O7 1.254 . S
C23 O8 1.257 . S
C24 O9 1.266 . S
C24 O10 1.236 . S
C25 C28 1.344 . S
C25 C29 1.328 . S
C25 C31 1.516 . S
C26 C27 1.304 . S
C26 C30 1.323 . S
C27 C26 1.304 . S
C27 C28 1.371 . S
C27 H36 0.930 . S
C28 C25 1.344 . S
C28 C27 1.371 . S
C28 H37 0.931 . S
C29 C25 1.328 . S
C29 C30 1.433 . S
C29 H38 0.931 . S
C30 C26 1.323 . S
C30 C29 1.433 . S
C30 H39 0.933 . S
C31 Dy1 2.738 . S
C31 O11 1.255 . S
C31 O12 1.249 . S
C31 C25 1.516 . S
H32 C18 0.930 . S
H33 C19 0.931 . S
H34 C20 0.931 . S
H35 C21 0.933 . S
H36 C27 0.930 . S
H37 C28 0.931 . S
H38 C29 0.931 . S
H39 C30 0.933 . S
Dy40 O43 2.326 . S
Dy40 O45 2.383 1_545 S
Dy40 O46 2.368 1_545 S
Dy40 O48 2.340 . S
Dy40 O50 2.280 1_545 S
Dy40 O54 2.275 . S
Dy40 C62 2.725 1_545 S
Dy41 O44 2.298 . S
Dy41 O47 2.275 . S
Dy41 O49 2.307 1_545 S
Dy41 O51 2.395 . S
Dy41 O52 2.379 . S
Dy41 O55 2.339 . S
Dy41 C71 2.738 . S
C42 O54 1.254 . S
C42 O55 1.257 . S
O43 Dy40 2.326 . S
O43 C53 1.266 . S
O44 Dy41 2.298 . S
O44 C53 1.236 . S
O45 Dy40 2.383 1_565 S
O45 C62 1.255 . S
O46 Dy40 2.368 1_565 S
O46 C62 1.249 . S
O47 Dy41 2.275 . S
O47 C63 1.254 . S
O48 Dy40 2.340 . S
O48 C63 1.257 . S
O49 Dy41 2.307 1_565 S
O49 C64 1.266 . S
O50 Dy40 2.280 1_565 S
O50 C64 1.236 . S
O51 Dy41 2.395 . S
O51 C71 1.255 . S
O52 Dy41 2.379 . S
O52 C71 1.249 . S
C53 O43 1.266 . S
C53 O44 1.236 . S
O54 Dy40 2.275 . S
O54 C42 1.254 . S
O55 Dy41 2.339 . S
O55 C42 1.257 . S
C56 C59 1.344 . S
C56 C60 1.328 . S
C56 C62 1.516 . S
C57 C58 1.304 . S
C57 C61 1.323 . S
C58 C57 1.304 . S
C58 C59 1.371 . S
C58 H72 0.930 . S
C59 C56 1.344 . S
C59 C58 1.371 . S
C59 H73 0.931 . S
C60 C56 1.328 . S
C60 C61 1.433 . S
C60 H74 0.931 . S
C61 C57 1.323 . S
C61 C60 1.433 . S
C61 H75 0.933 . S
C62 Dy40 2.725 1_565 S
C62 O45 1.255 . S
C62 O46 1.249 . S
C62 C56 1.516 . S
C63 O47 1.254 . S
C63 O48 1.257 . S
C64 O49 1.266 . S
C64 O50 1.236 . S
C65 C68 1.344 . S
C65 C69 1.328 . S
C65 C71 1.516 . S
C66 C67 1.304 . S
C66 C70 1.323 . S
C67 C66 1.304 . S
C67 C68 1.371 . S
C67 H76 0.930 . S
C68 C65 1.344 . S
C68 C67 1.371 . S
C68 H77 0.931 . S
C69 C65 1.328 . S
C69 C70 1.433 . S
C69 H78 0.931 . S
C70 C66 1.323 . S
C70 C69 1.433 . S
C70 H79 0.933 . S
C71 Dy41 2.738 . S
C71 O51 1.255 . S
C71 O52 1.249 . S
C71 C65 1.516 . S
H72 C58 0.930 . S
H73 C59 0.931 . S
H74 C60 0.931 . S
H75 C61 0.933 . S
H76 C67 0.930 . S
H77 C68 0.931 . S
H78 C69 0.931 . S
H79 C70 0.933 . S
Dy80 O83 2.307 . S
Dy80 O85 2.395 . S
Dy80 O86 2.379 . S
Dy80 O88 2.339 . S
Dy80 O90 2.298 . S
Dy80 O94 2.275 . S
Dy80 C102 2.738 . S
Dy81 O84 2.298 . S
Dy81 O87 2.275 . S
Dy81 O89 2.307 . S
Dy81 O91 2.395 . S
Dy81 O92 2.379 . S
Dy81 O95 2.339 . S
Dy81 C111 2.738 . S
C82 O94 1.254 . S
C82 O95 1.257 . S
O83 Dy80 2.307 . S
O83 C93 1.266 . S
O84 Dy81 2.298 . S
O84 C93 1.236 . S
O85 Dy80 2.395 . S
O85 C102 1.255 . S
O86 Dy80 2.379 . S
O86 C102 1.249 . S
O87 Dy81 2.275 . S
O87 C103 1.254 . S
O88 Dy80 2.339 . S
O88 C103 1.257 . S
O89 Dy81 2.307 . S
O89 C104 1.266 . S
O90 Dy80 2.298 . S
O90 C104 1.236 . S
O91 Dy81 2.395 . S
O91 C111 1.255 . S
O92 Dy81 2.379 . S
O92 C111 1.249 . S
C93 O83 1.266 . S
C93 O84 1.236 . S
O94 Dy80 2.275 . S
O94 C82 1.254 . S
O95 Dy81 2.339 . S
O95 C82 1.257 . S
C96 C99 1.344 . S
C96 C100 1.328 . S
C96 C102 1.516 . S
C97 C98 1.304 . S
C97 C101 1.323 . S
C98 C97 1.304 . S
C98 C99 1.371 . S
C98 H112 0.930 . S
C99 C96 1.344 . S
C99 C98 1.371 . S
C99 H113 0.931 . S
C100 C96 1.328 . S
C100 C101 1.433 . S
C100 H114 0.931 . S
C101 C97 1.323 . S
C101 C100 1.433 . S
C101 H115 0.933 . S
C102 Dy80 2.738 . S
C102 O85 1.255 . S
C102 O86 1.249 . S
C102 C96 1.516 . S
C103 O87 1.254 . S
C103 O88 1.257 . S
C104 O89 1.266 . S
C104 O90 1.236 . S
C105 C108 1.344 . S
C105 C109 1.328 . S
C105 C111 1.516 . S
C106 C107 1.304 . S
C106 C110 1.323 . S
C107 C106 1.304 . S
C107 C108 1.371 . S
C107 H116 0.930 . S
C108 C105 1.344 . S
C108 C107 1.371 . S
C108 H117 0.931 . S
C109 C105 1.328 . S
C109 C110 1.433 . S
C109 H118 0.931 . S
C110 C106 1.323 . S
C110 C109 1.433 . S
C110 H119 0.933 . S
C111 Dy81 2.738 . S
C111 O91 1.255 . S
C111 O92 1.249 . S
C111 C105 1.516 . S
H112 C98 0.930 . S
H113 C99 0.931 . S
H114 C100 0.931 . S
H115 C101 0.933 . S
H116 C107 0.930 . S
H117 C108 0.931 . S
H118 C109 0.931 . S
H119 C110 0.933 . S
C120 C121 1.384 . S
C120 H133 0.947 . S
C120 C155 1.382 . S
C121 C120 1.384 . S
C121 C122 1.378 . S
C122 C121 1.378 . S
C122 C123 1.378 . S
C122 H134 0.952 . S
C123 C122 1.378 . S
C123 H135 0.950 1_565 S
C123 C154 1.383 . S
H124 C143 0.947 . S
H125 C144 0.946 . S
H126 C146 0.953 . S
H127 C147 0.945 . S
H128 C149 0.952 . S
H129 C150 0.949 . S
H130 C152 0.950 1_565 S
H131 C153 0.948 1_565 S
H132 C155 0.951 . S
H133 C120 0.947 . S
H134 C122 0.952 . S
H135 C123 0.950 1_545 S
N136 C139 1.382 . S
N136 C141 1.363 . S
N137 C139 1.371 . S
N137 C140 1.372 . S
N138 C140 1.361 . S
N138 C141 1.377 . S
C139 N136 1.382 . S
C139 N137 1.371 . S
C139 C142 1.480 . S
C140 N137 1.372 . S
C140 N138 1.361 . S
C140 C148 1.457 . S
C141 N136 1.363 . S
C141 N138 1.377 . S
C141 C154 1.479 1_545 S
C142 C139 1.480 . S
C142 C143 1.383 . S
C142 C147 1.385 . S
C143 H124 0.947 . S
C143 C142 1.383 . S
C143 C144 1.388 . S
C144 H125 0.946 . S
C144 C143 1.388 . S
C144 C145 1.384 . S
C145 C144 1.384 . S
C145 C146 1.377 . S
C146 H126 0.953 . S
C146 C145 1.377 . S
C146 C147 1.369 . S
C147 H127 0.945 . S
C147 C142 1.385 . S
C147 C146 1.369 . S
C148 C140 1.457 . S
C148 C149 1.372 . S
C148 C153 1.364 . S
C149 H128 0.952 . S
C149 C148 1.372 . S
C149 C150 1.389 . S
C150 H129 0.949 . S
C150 C149 1.389 . S
C150 C151 1.387 . S
C151 C150 1.387 . S
C151 C152 1.372 . S
C152 H130 0.950 1_545 S
C152 C151 1.372 . S
C152 C153 1.379 . S
C153 H131 0.948 1_545 S
C153 C148 1.364 . S
C153 C152 1.379 . S
C154 C123 1.383 . S
C154 C141 1.479 1_565 S
C154 C155 1.398 . S
C155 C120 1.382 . S
C155 H132 0.951 . S
C155 C154 1.398 . S
C156 C157 1.384 . S
C156 H169 0.947 . S
C156 C191 1.382 . S
C157 C156 1.384 . S
C157 C158 1.378 . S
C158 C157 1.378 . S
C158 C159 1.378 . S
C158 H170 0.952 . S
C159 C158 1.378 . S
C159 H171 0.950 . S
C159 C190 1.383 . S
H160 C179 0.947 . S
H161 C180 0.946 . S
H162 C182 0.953 . S
H163 C183 0.945 . S
H164 C185 0.952 . S
H165 C186 0.949 . S
H166 C188 0.950 . S
H167 C189 0.948 . S
H168 C191 0.951 . S
H169 C156 0.947 . S
H170 C158 0.952 . S
H171 C159 0.950 . S
N172 C175 1.382 . S
N172 C177 1.363 . S
N173 C175 1.371 . S
N173 C176 1.372 . S
N174 C176 1.361 . S
N174 C177 1.377 . S
C175 N172 1.382 . S
C175 N173 1.371 . S
C175 C178 1.480 . S
C176 N173 1.372 . S
C176 N174 1.361 . S
C176 C184 1.457 . S
C177 N172 1.363 . S
C177 N174 1.377 . S
C177 C190 1.479 . S
C178 C175 1.480 . S
C178 C179 1.383 . S
C178 C183 1.385 . S
C179 H160 0.947 . S
C179 C178 1.383 . S
C179 C180 1.388 . S
C180 H161 0.946 . S
C180 C179 1.388 . S
C180 C181 1.384 . S
C181 C180 1.384 . S
C181 C182 1.377 . S
C182 H162 0.953 . S
C182 C181 1.377 . S
C182 C183 1.369 . S
C183 H163 0.945 . S
C183 C178 1.385 . S
C183 C182 1.369 . S
C184 C176 1.457 . S
C184 C185 1.372 . S
C184 C189 1.364 . S
C185 H164 0.952 . S
C185 C184 1.372 . S
C185 C186 1.389 . S
C186 H165 0.949 . S
C186 C185 1.389 . S
C186 C187 1.387 . S
C187 C186 1.387 . S
C187 C188 1.372 . S
C188 H166 0.950 . S
C188 C187 1.372 . S
C188 C189 1.379 . S
C189 H167 0.948 . S
C189 C184 1.364 . S
C189 C188 1.379 . S
C190 C159 1.383 . S
C190 C177 1.479 . S
C190 C191 1.398 . S
C191 C156 1.382 . S
C191 H168 0.951 . S
C191 C190 1.398 . S
C192 C193 1.384 . S
C192 H205 0.947 . S
C192 C227 1.382 . S
C193 C192 1.384 . S
C193 C194 1.378 . S
C194 C193 1.378 . S
C194 C195 1.378 . S
C194 H206 0.952 . S
C195 C194 1.378 . S
C195 H207 0.950 . S
C195 C226 1.383 . S
H196 C215 0.947 . S
H197 C216 0.946 . S
H198 C218 0.953 . S
H199 C219 0.945 . S
H200 C221 0.952 . S
H201 C222 0.949 1_554 S
H202 C224 0.925 1_554 S
H203 C225 0.948 . S
H204 C227 0.951 . S
H205 C192 0.947 . S
H206 C194 0.952 . S
H207 C195 0.950 . S
N208 C211 1.382 . S
N208 C213 1.363 1_455 S
N209 C211 1.371 . S
N209 C212 1.372 . S
N210 C212 1.361 1_655 S
N210 C213 1.377 . S
C211 N208 1.382 . S
C211 N209 1.371 . S
C211 C214 1.480 . S
C212 N209 1.372 . S
C212 N210 1.361 1_455 S
C212 C220 1.457 . S
C213 N208 1.363 1_655 S
C213 N210 1.377 . S
C213 C226 1.479 . S
C214 C211 1.480 . S
C214 C215 1.383 . S
C214 C219 1.385 . S
C215 H196 0.947 . S
C215 C214 1.383 . S
C215 C216 1.388 . S
C216 H197 0.946 . S
C216 C215 1.388 . S
C216 C217 1.384 . S
C217 C216 1.384 . S
C217 C218 1.377 . S
C218 H198 0.953 . S
C218 C217 1.377 . S
C218 C219 1.369 . S
C219 H199 0.945 . S
C219 C214 1.385 . S
C219 C218 1.369 . S
C220 C212 1.457 . S
C220 C221 1.372 . S
C220 C225 1.364 1_455 S
C221 H200 0.952 . S
C221 C220 1.372 . S
C221 C222 1.389 . S
C222 H201 0.949 1_556 S
C222 C221 1.389 . S
C222 C223 1.387 1_556 S
C223 C222 1.387 1_554 S
C223 C224 1.372 1_454 S
C224 H202 0.925 1_556 S
C224 C223 1.372 1_656 S
C224 C225 1.379 . S
C225 H203 0.948 . S
C225 C220 1.364 1_655 S
C225 C224 1.379 . S
C226 C195 1.383 . S
C226 C213 1.479 . S
C226 C227 1.398 . S
C227 C192 1.382 . S
C227 H204 0.951 . S
C227 C226 1.398 . S
C228 C229 1.384 . S
C228 H241 0.947 . S
C228 C263 1.382 . S
C229 C228 1.384 . S
C229 C230 1.378 . S
C230 C229 1.378 . S
C230 C231 1.378 . S
C230 H242 0.952 . S
C231 C230 1.378 . S
C231 H243 0.950 . S
C231 C262 1.383 . S
H232 C251 0.947 . S
H233 C252 0.946 . S
H234 C254 0.953 . S
H235 C255 0.945 . S
H236 C257 0.952 . S
H237 C258 0.949 . S
H238 C260 0.950 . S
H239 C261 0.948 . S
H240 C263 0.951 . S
H241 C228 0.947 . S
H242 C230 0.952 . S
H243 C231 0.950 . S
N244 C247 1.382 1_455 S
N244 C249 1.363 . S
N245 C247 1.371 . S
N245 C248 1.372 1_655 S
N246 C248 1.361 . S
N246 C249 1.377 . S
C247 N244 1.382 1_655 S
C247 N245 1.371 . S
C247 C250 1.480 . S
C248 N245 1.372 1_455 S
C248 N246 1.361 . S
C248 C256 1.457 . S
C249 N244 1.363 . S
C249 N246 1.377 . S
C249 C262 1.479 . S
C250 C247 1.480 . S
C250 C251 1.383 . S
C250 C255 1.385 . S
C251 H232 0.947 . S
C251 C250 1.383 . S
C251 C252 1.388 . S
C252 H233 0.946 . S
C252 C251 1.388 . S
C252 C253 1.384 . S
C253 C252 1.384 . S
C253 C254 1.377 . S
C254 H234 0.953 . S
C254 C253 1.377 . S
C254 C255 1.369 . S
C255 H235 0.945 . S
C255 C250 1.385 . S
C255 C254 1.369 . S
C256 C248 1.457 . S
C256 C257 1.372 1_455 S
C256 C261 1.364 . S
C257 H236 0.952 . S
C257 C256 1.372 1_655 S
C257 C258 1.389 . S
C258 H237 0.949 . S
C258 C257 1.389 . S
C258 C259 1.387 . S
C259 C258 1.387 . S
C259 C260 1.372 1_655 S
C260 H238 0.950 . S
C260 C259 1.372 1_455 S
C260 C261 1.379 . S
C261 H239 0.948 . S
C261 C256 1.364 . S
C261 C260 1.379 . S
C262 C231 1.383 . S
C262 C249 1.479 . S
C262 C263 1.398 . S
C263 C228 1.382 . S
C263 H240 0.951 . S
C263 C262 1.398 . S
C264 C265 1.384 . S
C264 H277 0.947 . S
C264 C299 1.382 . S
C265 C264 1.384 . S
C265 C266 1.378 . S
C266 C265 1.378 . S
C266 C267 1.378 . S
C266 H278 0.952 . S
C267 C266 1.378 . S
C267 H279 0.950 . S
C267 C298 1.383 . S
H268 C287 0.947 . S
H269 C288 0.946 . S
H270 C290 0.953 . S
H271 C291 0.945 . S
H272 C293 0.952 . S
H273 C294 0.949 . S
H274 C296 0.950 . S
H275 C297 0.948 . S
H276 C299 0.951 . S
H277 C264 0.947 . S
H278 C266 0.952 . S
H279 C267 0.950 . S
N280 C283 1.382 1_545 S
N280 C285 1.363 . S
N281 C283 1.371 . S
N281 C284 1.372 1_565 S
N282 C284 1.361 . S
N282 C285 1.377 . S
C283 N280 1.382 1_565 S
C283 N281 1.371 . S
C283 C286 1.480 . S
C284 N281 1.372 1_545 S
C284 N282 1.361 . S
C284 C292 1.457 . S
C285 N280 1.363 . S
C285 N282 1.377 . S
C285 C298 1.479 . S
C286 C283 1.480 . S
C286 C287 1.383 . S
C286 C291 1.385 . S
C287 H268 0.947 . S
C287 C286 1.383 . S
C287 C288 1.388 . S
C288 H269 0.946 . S
C288 C287 1.388 . S
C288 C289 1.384 . S
C289 C288 1.384 . S
C289 C290 1.377 . S
C290 H270 0.953 . S
C290 C289 1.377 . S
C290 C291 1.369 . S
C291 H271 0.945 . S
C291 C286 1.385 . S
C291 C290 1.369 . S
C292 C284 1.457 . S
C292 C293 1.372 1_545 S
C292 C297 1.364 . S
C293 H272 0.952 . S
C293 C292 1.372 1_565 S
C293 C294 1.389 . S
C294 H273 0.949 . S
C294 C293 1.389 . S
C294 C295 1.387 1_565 S
C295 C294 1.387 1_545 S
C295 C296 1.372 . S
C296 H274 0.950 . S
C296 C295 1.372 . S
C296 C297 1.379 . S
C297 H275 0.948 . S
C297 C292 1.364 . S
C297 C296 1.379 . S
C298 C267 1.383 . S
C298 C285 1.479 . S
C298 C299 1.398 . S
C299 C264 1.382 . S
C299 H276 0.951 . S
C299 C298 1.398 . S
C300 C301 1.384 . S
C300 H313 0.947 . S
C300 C335 1.382 . S
C301 C300 1.384 . S
C301 C302 1.378 . S
C302 C301 1.378 . S
C302 C303 1.378 . S
C302 H314 0.952 . S
C303 C302 1.378 . S
C303 H315 0.950 . S
C303 C334 1.383 . S
H304 C323 0.947 . S
H305 C324 0.946 . S
H306 C326 0.953 . S
H307 C327 0.945 . S
H308 C329 0.952 . S
H309 C330 0.949 . S
H310 C332 0.950 . S
H311 C333 0.948 . S
H312 C335 0.951 . S
H313 C300 0.947 . S
H314 C302 0.952 . S
H315 C303 0.950 . S
N316 C319 1.382 . S
N316 C321 1.363 . S
N317 C319 1.371 . S
N317 C320 1.372 . S
N318 C320 1.361 . S
N318 C321 1.377 . S
C319 N316 1.382 . S
C319 N317 1.371 . S
C319 C322 1.480 . S
C320 N317 1.372 . S
C320 N318 1.361 . S
C320 C328 1.457 . S
C321 N316 1.363 . S
C321 N318 1.377 . S
C321 C334 1.479 . S
C322 C319 1.480 . S
C322 C323 1.383 . S
C322 C327 1.385 . S
C323 H304 0.947 . S
C323 C322 1.383 . S
C323 C324 1.388 . S
C324 H305 0.946 . S
C324 C323 1.388 . S
C324 C325 1.384 . S
C325 C324 1.384 . S
C325 C326 1.377 . S
C326 H306 0.953 . S
C326 C325 1.377 . S
C326 C327 1.369 . S
C327 H307 0.945 . S
C327 C322 1.385 . S
C327 C326 1.369 . S
C328 C320 1.457 . S
C328 C329 1.372 . S
C328 C333 1.364 . S
C329 H308 0.952 . S
C329 C328 1.372 . S
C329 C330 1.389 . S
C330 H309 0.949 . S
C330 C329 1.389 . S
C330 C331 1.387 . S
C331 C330 1.387 . S
C331 C332 1.372 . S
C332 H310 0.950 . S
C332 C331 1.372 . S
C332 C333 1.379 . S
C333 H311 0.948 . S
C333 C328 1.364 . S
C333 C332 1.379 . S
C334 C303 1.383 . S
C334 C321 1.479 . S
C334 C335 1.398 . S
C335 C300 1.382 . S
C335 H312 0.951 . S
C335 C334 1.398 . S
H336 C342 0.930 . S
H337 C345 0.930 . S
H338 C346 0.930 . S
H339 C347 0.930 . S
H340 C350 0.930 . S
H341 C351 0.930 . S
C342 H336 0.930 . S
C342 C343 1.355 . S
C342 C344 1.415 . S
C343 C342 1.355 . S
C343 C345 1.419 . S
C344 C342 1.415 . S
C344 C349 1.425 . S
C344 C351 1.409 . S
C345 H337 0.930 . S
C345 C343 1.419 . S
C345 C346 1.362 . S
C346 H338 0.930 . S
C346 C345 1.362 . S
C346 C349 1.409 . S
C347 H339 0.930 . S
C347 C348 1.355 . S
C347 C349 1.415 . S
C348 C347 1.355 . S
C348 C350 1.419 . S
C349 C344 1.425 . S
C349 C346 1.409 . S
C349 C347 1.415 . S
C350 H340 0.930 . S
C350 C348 1.419 . S
C350 C351 1.362 . S
C351 H341 0.930 . S
C351 C344 1.409 . S
C351 C350 1.362 . S
H352 C358 0.930 . S
H353 C361 0.930 . S
H354 C362 0.930 . S
H355 C363 0.930 . S
H356 C366 0.930 . S
H357 C367 0.930 . S
C358 H352 0.930 . S
C358 C359 1.355 . S
C358 C360 1.415 . S
C359 C358 1.355 . S
C359 C361 1.419 . S
C360 C358 1.415 . S
C360 C365 1.425 . S
C360 C367 1.409 . S
C361 H353 0.930 . S
C361 C359 1.419 . S
C361 C362 1.362 . S
C362 H354 0.930 . S
C362 C361 1.362 . S
C362 C365 1.409 . S
C363 H355 0.930 . S
C363 C364 1.355 . S
C363 C365 1.415 . S
C364 C363 1.355 . S
C364 C366 1.419 . S
C365 C360 1.425 . S
C365 C362 1.409 . S
C365 C363 1.415 . S
C366 H356 0.930 . S
C366 C364 1.419 . S
C366 C367 1.362 . S
C367 H357 0.930 . S
C367 C360 1.409 . S
C367 C366 1.362 . S
H368 C374 0.930 . S
H369 C377 0.930 . S
H370 C378 0.930 . S
H371 C379 0.930 . S
H372 C382 0.930 . S
H373 C383 0.930 . S
C374 H368 0.930 . S
C374 C375 1.355 . S
C374 C376 1.415 . S
C375 C374 1.355 . S
C375 C377 1.419 . S
C376 C374 1.415 . S
C376 C381 1.425 . S
C376 C383 1.409 . S
C377 H369 0.930 . S
C377 C375 1.419 . S
C377 C378 1.362 . S
C378 H370 0.930 . S
C378 C377 1.362 . S
C378 C381 1.409 . S
C379 H371 0.930 . S
C379 C380 1.355 . S
C379 C381 1.415 . S
C380 C379 1.355 . S
C380 C382 1.419 . S
C381 C376 1.425 . S
C381 C378 1.409 . S
C381 C379 1.415 . S
C382 H372 0.930 . S
C382 C380 1.419 . S
C382 C383 1.362 . S
C383 H373 0.930 . S
C383 C376 1.409 . S
C383 C382 1.362 . S
H384 C390 0.930 . S
H385 C393 0.930 . S
H386 C394 0.930 . S
H387 C395 0.930 . S
H388 C398 0.930 . S
H389 C399 0.930 . S
C390 H384 0.930 . S
C390 C391 1.355 . S
C390 C392 1.415 . S
C391 C390 1.355 . S
C391 C393 1.419 . S
C392 C390 1.415 . S
C392 C397 1.425 . S
C392 C399 1.409 . S
C393 H385 0.930 . S
C393 C391 1.419 . S
C393 C394 1.362 . S
C394 H386 0.930 . S
C394 C393 1.362 . S
C394 C397 1.409 . S
C395 H387 0.930 . S
C395 C396 1.355 . S
C395 C397 1.415 . S
C396 C395 1.355 . S
C396 C398 1.419 . S
C397 C392 1.425 . S
C397 C394 1.409 . S
C397 C395 1.415 . S
C398 H388 0.930 . S
C398 C396 1.419 . S
C398 C399 1.362 . S
C399 H389 0.930 . S
C399 C392 1.409 . S
C399 C398 1.362 . S
H400 C406 0.930 . S
H401 C409 0.930 . S
H402 C410 0.930 . S
H403 C411 0.930 . S
H404 C414 0.930 . S
H405 C415 0.930 . S
C406 H400 0.930 . S
C406 C407 1.355 . S
C406 C408 1.415 . S
C407 C406 1.355 . S
C407 C409 1.419 . S
C408 C406 1.415 . S
C408 C413 1.425 . S
C408 C415 1.409 . S
C409 H401 0.930 . S
C409 C407 1.419 . S
C409 C410 1.362 . S
C410 H402 0.930 . S
C410 C409 1.362 . S
C410 C413 1.409 . S
C411 H403 0.930 . S
C411 C412 1.355 . S
C411 C413 1.415 . S
C412 C411 1.355 . S
C412 C414 1.419 . S
C413 C408 1.425 . S
C413 C410 1.409 . S
C413 C411 1.415 . S
C414 H404 0.930 . S
C414 C412 1.419 . S
C414 C415 1.362 . S
C415 H405 0.930 . S
C415 C408 1.409 . S
C415 C414 1.362 . S
H416 C422 0.930 . S
H417 C425 0.930 . S
H418 C426 0.930 . S
H419 C427 0.930 . S
H420 C430 0.930 . S
H421 C431 0.930 . S
C422 H416 0.930 . S
C422 C423 1.355 . S
C422 C424 1.415 . S
C423 C422 1.355 . S
C423 C425 1.419 . S
C424 C422 1.415 . S
C424 C429 1.425 . S
C424 C431 1.409 . S
C425 H417 0.930 . S
C425 C423 1.419 . S
C425 C426 1.362 . S
C426 H418 0.930 . S
C426 C425 1.362 . S
C426 C429 1.409 . S
C427 H419 0.930 . S
C427 C428 1.355 . S
C427 C429 1.415 . S
C428 C427 1.355 . S
C428 C430 1.419 . S
C429 C424 1.425 . S
C429 C426 1.409 . S
C429 C427 1.415 . S
C430 H420 0.930 . S
C430 C428 1.419 . S
C430 C431 1.362 . S
C431 H421 0.930 . S
C431 C424 1.409 . S
C431 C430 1.362 . S
H432 C438 0.930 . S
H433 C441 0.930 . S
H434 C442 0.930 . S
H435 C443 0.930 . S
H436 C446 0.930 . S
H437 C447 0.930 . S
C438 H432 0.930 . S
C438 C439 1.355 . S
C438 C440 1.415 . S
C439 C438 1.355 . S
C439 C441 1.419 . S
C440 C438 1.415 . S
C440 C445 1.425 . S
C440 C447 1.409 . S
C441 H433 0.930 . S
C441 C439 1.419 . S
C441 C442 1.362 . S
C442 H434 0.930 . S
C442 C441 1.362 . S
C442 C445 1.409 . S
C443 H435 0.930 . S
C443 C444 1.355 . S
C443 C445 1.415 . S
C444 C443 1.355 . S
C444 C446 1.419 . S
C445 C440 1.425 . S
C445 C442 1.409 . S
C445 C443 1.415 . S
C446 H436 0.930 . S
C446 C444 1.419 . S
C446 C447 1.362 . S
C447 H437 0.930 . S
C447 C440 1.409 . S
C447 C446 1.362 . S
H448 C454 0.930 . S
H449 C457 0.930 . S
H450 C458 0.930 . S
H451 C459 0.930 . S
H452 C462 0.930 . S
H453 C463 0.930 . S
C454 H448 0.930 . S
C454 C455 1.355 . S
C454 C456 1.415 . S
C455 C454 1.355 . S
C455 C457 1.419 . S
C456 C454 1.415 . S
C456 C461 1.425 . S
C456 C463 1.409 . S
C457 H449 0.930 . S
C457 C455 1.419 . S
C457 C458 1.362 . S
C458 H450 0.930 . S
C458 C457 1.362 . S
C458 C461 1.409 . S
C459 H451 0.930 . S
C459 C460 1.355 . S
C459 C461 1.415 . S
C460 C459 1.355 . S
C460 C462 1.419 . S
C461 C456 1.425 . S
C461 C458 1.409 . S
C461 C459 1.415 . S
C462 H452 0.930 . S
C462 C460 1.419 . S
C462 C463 1.362 . S
C463 H453 0.930 . S
C463 C456 1.409 . S
C463 C462 1.362 . S
H464 C470 0.930 . S
H465 C473 0.930 . S
H466 C474 0.930 . S
H467 C475 0.930 . S
H468 C478 0.930 . S
H469 C479 0.930 . S
C470 H464 0.930 . S
C470 C471 1.355 . S
C470 C472 1.415 . S
C471 C470 1.355 . S
C471 C473 1.419 . S
C472 C470 1.415 . S
C472 C477 1.425 . S
C472 C479 1.409 . S
C473 H465 0.930 . S
C473 C471 1.419 . S
C473 C474 1.362 . S
C474 H466 0.930 . S
C474 C473 1.362 . S
C474 C477 1.409 . S
C475 H467 0.930 . S
C475 C476 1.355 . S
C475 C477 1.415 . S
C476 C475 1.355 . S
C476 C478 1.419 . S
C477 C472 1.425 . S
C477 C474 1.409 . S
C477 C475 1.415 . S
C478 H468 0.930 . S
C478 C476 1.419 . S
C478 C479 1.362 . S
C479 H469 0.930 . S
C479 C472 1.409 . S
C479 C478 1.362 . S
H480 C486 0.930 . S
H481 C489 0.930 . S
H482 C490 0.930 . S
H483 C491 0.930 . S
H484 C494 0.930 . S
H485 C495 0.930 . S
C486 H480 0.930 . S
C486 C487 1.355 . S
C486 C488 1.415 . S
C487 C486 1.355 . S
C487 C489 1.419 . S
C488 C486 1.415 . S
C488 C493 1.425 . S
C488 C495 1.409 . S
C489 H481 0.930 . S
C489 C487 1.419 . S
C489 C490 1.362 . S
C490 H482 0.930 . S
C490 C489 1.362 . S
C490 C493 1.409 . S
C491 H483 0.930 . S
C491 C492 1.355 . S
C491 C493 1.415 . S
C492 C491 1.355 . S
C492 C494 1.419 . S
C493 C488 1.425 . S
C493 C490 1.409 . S
C493 C491 1.415 . S
C494 H484 0.930 . S
C494 C492 1.419 . S
C494 C495 1.362 . S
C495 H485 0.930 . S
C495 C488 1.409 . S
C495 C494 1.362 . S
H496 C502 0.930 . S
H497 C505 0.930 . S
H498 C506 0.930 . S
H499 C507 0.930 . S
H500 C510 0.930 . S
H501 C511 0.930 . S
C502 H496 0.930 . S
C502 C503 1.355 . S
C502 C504 1.415 . S
C503 C502 1.355 . S
C503 C505 1.419 . S
C504 C502 1.415 . S
C504 C509 1.425 . S
C504 C511 1.409 . S
C505 H497 0.930 . S
C505 C503 1.419 . S
C505 C506 1.362 . S
C506 H498 0.930 . S
C506 C505 1.362 . S
C506 C509 1.409 . S
C507 H499 0.930 . S
C507 C508 1.355 . S
C507 C509 1.415 . S
C508 C507 1.355 . S
C508 C510 1.419 . S
C509 C504 1.425 . S
C509 C506 1.409 . S
C509 C507 1.415 . S
C510 H500 0.930 . S
C510 C508 1.419 . S
C510 C511 1.362 . S
C511 H501 0.930 . S
C511 C504 1.409 . S
C511 C510 1.362 . S
H512 C518 0.930 . S
H513 C521 0.930 . S
H514 C522 0.930 . S
H515 C523 0.930 . S
H516 C526 0.930 . S
H517 C527 0.930 . S
C518 H512 0.930 . S
C518 C519 1.355 . S
C518 C520 1.415 . S
C519 C518 1.355 . S
C519 C521 1.419 . S
C520 C518 1.415 . S
C520 C525 1.425 . S
C520 C527 1.409 . S
C521 H513 0.930 . S
C521 C519 1.419 . S
C521 C522 1.362 . S
C522 H514 0.930 . S
C522 C521 1.362 . S
C522 C525 1.409 . S
C523 H515 0.930 . S
C523 C524 1.355 . S
C523 C525 1.415 . S
C524 C523 1.355 . S
C524 C526 1.419 . S
C525 C520 1.425 . S
C525 C522 1.409 . S
C525 C523 1.415 . S
C526 H516 0.930 . S
C526 C524 1.419 . S
C526 C527 1.362 . S
C527 H517 0.930 . S
C527 C520 1.409 . S
C527 C526 1.362 . S
H528 C534 0.930 . S
H529 C537 0.930 . S
H530 C538 0.930 . S
H531 C539 0.930 . S
H532 C542 0.930 . S
H533 C543 0.930 . S
C534 H528 0.930 . S
C534 C535 1.355 . S
C534 C536 1.415 . S
C535 C534 1.355 . S
C535 C537 1.419 1_455 S
C536 C534 1.415 . S
C536 C541 1.425 . S
C536 C543 1.409 . S
C537 H529 0.930 . S
C537 C535 1.419 1_655 S
C537 C538 1.362 . S
C538 H530 0.930 . S
C538 C537 1.362 . S
C538 C541 1.409 1_655 S
C539 H531 0.930 . S
C539 C540 1.355 . S
C539 C541 1.415 . S
C540 C539 1.355 . S
C540 C542 1.419 . S
C541 C536 1.425 . S
C541 C538 1.409 1_455 S
C541 C539 1.415 . S
C542 H532 0.930 . S
C542 C540 1.419 . S
C542 C543 1.362 . S
C543 H533 0.930 . S
C543 C536 1.409 . S
C543 C542 1.362 . S
H544 C550 0.930 1_565 S
H545 C553 0.930 . S
H546 C554 0.930 . S
H547 C555 0.930 . S
H548 C558 0.930 1_565 S
H549 C559 0.930 . S
C550 H544 0.930 1_545 S
C550 C551 1.355 . S
C550 C552 1.415 . S
C551 C550 1.355 . S
C551 C553 1.419 . S
C552 C550 1.415 . S
C552 C557 1.425 . S
C552 C559 1.409 1_545 S
C553 H545 0.930 . S
C553 C551 1.419 . S
C553 C554 1.362 . S
C554 H546 0.930 . S
C554 C553 1.362 . S
C554 C557 1.409 . S
C555 H547 0.930 . S
C555 C556 1.355 . S
C555 C557 1.415 . S
C556 C555 1.355 . S
C556 C558 1.419 . S
C557 C552 1.425 . S
C557 C554 1.409 . S
C557 C555 1.415 . S
C558 H548 0.930 1_545 S
C558 C556 1.419 . S
C558 C559 1.362 1_545 S
C559 H549 0.930 . S
C559 C552 1.409 1_565 S
C559 C558 1.362 1_565 S
H560 C566 0.930 . S
H561 C569 0.930 . S
H562 C570 0.930 . S
H563 C571 0.930 . S
H564 C574 0.930 . S
H565 C575 0.930 . S
C566 H560 0.930 . S
C566 C567 1.355 . S
C566 C568 1.415 . S
C567 C566 1.355 . S
C567 C569 1.419 . S
C568 C566 1.415 . S
C568 C573 1.425 . S
C568 C575 1.409 . S
C569 H561 0.930 . S
C569 C567 1.419 . S
C569 C570 1.362 . S
C570 H562 0.930 . S
C570 C569 1.362 . S
C570 C573 1.409 . S
C571 H563 0.930 . S
C571 C572 1.355 . S
C571 C573 1.415 . S
C572 C571 1.355 . S
C572 C574 1.419 . S
C573 C568 1.425 . S
C573 C570 1.409 . S
C573 C571 1.415 . S
C574 H564 0.930 . S
C574 C572 1.419 . S
C574 C575 1.362 . S
C575 H565 0.930 . S
C575 C568 1.409 . S
C575 C574 1.362 . S
H576 C582 0.930 . S
H577 C585 0.930 . S
H578 C586 0.930 . S
H579 C587 0.930 . S
H580 C590 0.930 . S
H581 C591 0.930 . S
C582 H576 0.930 . S
C582 C583 1.355 . S
C582 C584 1.415 . S
C583 C582 1.355 . S
C583 C585 1.419 1_545 S
C584 C582 1.415 . S
C584 C589 1.425 1_545 S
C584 C591 1.409 . S
C585 H577 0.930 . S
C585 C583 1.419 1_565 S
C585 C586 1.362 . S
C586 H578 0.930 . S
C586 C585 1.362 . S
C586 C589 1.409 . S
C587 H579 0.930 . S
C587 C588 1.355 1_565 S
C587 C589 1.415 . S
C588 C587 1.355 1_545 S
C588 C590 1.419 . S
C589 C584 1.425 1_565 S
C589 C586 1.409 . S
C589 C587 1.415 . S
C590 H580 0.930 . S
C590 C588 1.419 . S
C590 C591 1.362 . S
C591 H581 0.930 . S
C591 C584 1.409 . S
C591 C590 1.362 . S
H592 C598 0.930 . S
H593 C601 0.930 . S
H594 C602 0.930 . S
H595 C603 0.930 . S
H596 C606 0.930 . S
H597 C607 0.930 . S
C598 H592 0.930 . S
C598 C599 1.355 . S
C598 C600 1.415 . S
C599 C598 1.355 . S
C599 C601 1.419 . S
C600 C598 1.415 . S
C600 C605 1.425 . S
C600 C607 1.409 . S
C601 H593 0.930 . S
C601 C599 1.419 . S
C601 C602 1.362 . S
C602 H594 0.930 . S
C602 C601 1.362 . S
C602 C605 1.409 . S
C603 H595 0.930 . S
C603 C604 1.355 . S
C603 C605 1.415 . S
C604 C603 1.355 . S
C604 C606 1.419 . S
C605 C600 1.425 . S
C605 C602 1.409 . S
C605 C603 1.415 . S
C606 H596 0.930 . S
C606 C604 1.419 . S
C606 C607 1.362 . S
C607 H597 0.930 . S
C607 C600 1.409 . S
C607 C606 1.362 . S
H608 C614 0.930 . S
H609 C617 0.930 . S
H610 C618 0.930 . S
H611 C619 0.930 . S
H612 C622 0.930 . S
H613 C623 0.930 . S
C614 H608 0.930 . S
C614 C615 1.360 . S
C614 C616 1.415 . S
C615 C614 1.360 . S
C615 C617 1.409 1_455 S
C616 C614 1.415 . S
C616 C621 1.425 1_455 S
C616 C623 1.409 . S
C617 H609 0.930 . S
C617 C615 1.409 1_655 S
C617 C618 1.362 . S
C618 H610 0.930 . S
C618 C617 1.362 . S
C618 C621 1.409 . S
C619 H611 0.930 . S
C619 C620 1.355 . S
C619 C621 1.415 . S
C620 C619 1.355 . S
C620 C622 1.419 1_655 S
C621 C616 1.425 1_655 S
C621 C618 1.409 . S
C621 C619 1.415 . S
C622 H612 0.930 . S
C622 C620 1.419 1_455 S
C622 C623 1.362 . S
C623 H613 0.930 . S
C623 C616 1.409 . S
C623 C622 1.362 . S
C343 C24 2.984 . S
C348 C325 2.919 . S
C359 C66 1.191 . S
C364 C253 1.178 . S
C375 C93 1.902 . S
C380 C289 1.777 . S
C391 C13 3.120 . S
C396 C301 3.070 . S
C412 C229 1.304 . S
C407 C57 1.305 . S
C428 C265 1.984 . S
C423 C104 2.023 . S
C439 C64 1.988 . S
C444 C181 1.881 . S
C455 C97 0.606 . S
C460 C193 0.664 . S
C471 C17 1.322 . S
C476 C121 1.354 . S
C492 C157 1.863 . S
C487 C53 1.904 . S
C508 C217 0.394 . S
C503 C106 0.424 . S
C519 C26 1.172 . S
C524 C145 1.241 . S
C540 C223 1.090 . S
C535 C2 1.030 . S
C551 C63 1.485 . S
C556 C151 1.479 . S
C567 C82 1.340 . S
C572 C187 1.373 . S
C588 C295 1.401 . S
C583 C42 1.378 . S
C604 C331 1.791 1_556 S
C599 C103 1.716 . S
C615 C23 1.467 . S
C620 C259 1.476 . S
