# Generated by pormake.
# Topology pyr, (3,6)-cn, num edge types: 1
# Building blocks:
#     Node 0, Type 0, BuildingBlock: CUQRIR_clean_linker_1, # of connection points: 3
#     Node 1, Type 0, BuildingBlock: CUQRIR_clean_linker_1, # of connection points: 3
#     Node 2, Type 0, BuildingBlock: CUQRIR_clean_linker_1, # of connection points: 3
#     Node 3, Type 0, BuildingBlock: CUQRIR_clean_linker_1, # of connection points: 3
#     Node 4, Type 0, BuildingBlock: CUQRIR_clean_linker_1, # of connection points: 3
#     Node 5, Type 0, BuildingBlock: CUQRIR_clean_linker_1, # of connection points: 3
#     Node 6, Type 0, BuildingBlock: CUQRIR_clean_linker_1, # of connection points: 3
#     Node 7, Type 0, BuildingBlock: CUQRIR_clean_linker_1, # of connection points: 3
#     Node 8, Type 1, BuildingBlock: JUFBIX_clean_sbu_0, # of connection points: 6
#     Node 9, Type 1, BuildingBlock: JUFBIX_clean_sbu_0, # of connection points: 6
#     Node 10, Type 1, BuildingBlock: JUFBIX_clean_sbu_0, # of connection points: 6
#     Node 11, Type 1, BuildingBlock: JUFBIX_clean_sbu_0, # of connection points: 6
#     Edge 12, Type (0, 1), BuildingBlock: OJICUG_clean_linker_0, # of connection points: 2
#     Edge 13, Type (0, 1), BuildingBlock: OJICUG_clean_linker_0, # of connection points: 2
#     Edge 14, Type (0, 1), BuildingBlock: OJICUG_clean_linker_0, # of connection points: 2
#     Edge 15, Type (0, 1), BuildingBlock: OJICUG_clean_linker_0, # of connection points: 2
#     Edge 16, Type (0, 1), BuildingBlock: OJICUG_clean_linker_0, # of connection points: 2
#     Edge 17, Type (0, 1), BuildingBlock: OJICUG_clean_linker_0, # of connection points: 2
#     Edge 18, Type (0, 1), BuildingBlock: OJICUG_clean_linker_0, # of connection points: 2
#     Edge 19, Type (0, 1), BuildingBlock: OJICUG_clean_linker_0, # of connection points: 2
#     Edge 20, Type (0, 1), BuildingBlock: OJICUG_clean_linker_0, # of connection points: 2
#     Edge 21, Type (0, 1), BuildingBlock: OJICUG_clean_linker_0, # of connection points: 2
#     Edge 22, Type (0, 1), BuildingBlock: OJICUG_clean_linker_0, # of connection points: 2
#     Edge 23, Type (0, 1), BuildingBlock: OJICUG_clean_linker_0, # of connection points: 2
#     Edge 24, Type (0, 1), BuildingBlock: OJICUG_clean_linker_0, # of connection points: 2
#     Edge 25, Type (0, 1), BuildingBlock: OJICUG_clean_linker_0, # of connection points: 2
#     Edge 26, Type (0, 1), BuildingBlock: OJICUG_clean_linker_0, # of connection points: 2
#     Edge 27, Type (0, 1), BuildingBlock: OJICUG_clean_linker_0, # of connection points: 2
#     Edge 28, Type (0, 1), BuildingBlock: OJICUG_clean_linker_0, # of connection points: 2
#     Edge 29, Type (0, 1), BuildingBlock: OJICUG_clean_linker_0, # of connection points: 2
#     Edge 30, Type (0, 1), BuildingBlock: OJICUG_clean_linker_0, # of connection points: 2
#     Edge 31, Type (0, 1), BuildingBlock: OJICUG_clean_linker_0, # of connection points: 2
#     Edge 32, Type (0, 1), BuildingBlock: OJICUG_clean_linker_0, # of connection points: 2
#     Edge 33, Type (0, 1), BuildingBlock: OJICUG_clean_linker_0, # of connection points: 2
#     Edge 34, Type (0, 1), BuildingBlock: OJICUG_clean_linker_0, # of connection points: 2
#     Edge 35, Type (0, 1), BuildingBlock: OJICUG_clean_linker_0, # of connection points: 2
# Relax obj value: 0.189
# Max RMSD: 0.233
# Mean RMSD: 0.155
data_MOF--net-pry--node1-JUFBIX_clean_sbu_0--node2-CUQRIR_clean_linker_1--edge1-OJICUG_clean_linker_0
_symmetry_space_group_name_H-M    P1
_symmetry_Int_Tables_number       1
_symmetry_cell_setting            triclinic
loop_
_symmetry_equiv_pos_as_xyz
'x, y, z'
_cell_length_a     24.283593
_cell_length_b     22.722789
_cell_length_c     23.518671
_cell_angle_alpha  77.047986
_cell_angle_beta   88.90138
_cell_angle_gamma 93.999728
loop_
_atom_site_label
_atom_site_type_symbol
_atom_site_fract_x
_atom_site_fract_y
_atom_site_fract_z
_atom_type_partial_charge
C0 C 0.21187 0.21571 0.2491 0.0
N1 N 0.24708 0.17084 0.258 0.0
N2 N 0.22263 0.25454 0.19684 0.0
C3 C 0.16484 0.22055 0.29052 0.0
C4 C 0.26604 0.23168 0.174 0.0
N5 N 0.2812 0.18046 0.21096 0.0
C6 C 0.29547 0.26145 0.11689 0.0
H7 H 0.12795 0.23576 0.26589 0.0
H8 H 0.17774 0.25461 0.31578 0.0
H9 H 0.15278 0.17762 0.32229 0.0
H10 H 0.28915 0.31053 0.1049 0.0
H11 H 0.27879 0.24012 0.08212 0.0
H12 H 0.3404 0.25543 0.11926 0.0
C13 C 0.50858 0.9176 0.60736 0.0
N14 N 0.49715 0.95302 0.64465 0.0
N15 N 0.54837 0.88053 0.6279 0.0
C16 C 0.47309 0.91012 0.55711 0.0
C17 C 0.56243 0.8963 0.6782 0.0
N18 N 0.53181 0.94084 0.68814 0.0
C19 C 0.60241 0.86395 0.71978 0.0
H20 H 0.43268 0.88634 0.57438 0.0
H21 H 0.49299 0.88379 0.52909 0.0
H22 H 0.46536 0.9551 0.52983 0.0
H23 H 0.63565 0.84798 0.69527 0.0
H24 H 0.58031 0.82366 0.74889 0.0
H25 H 0.62072 0.89395 0.74687 0.0
C26 C 0.65988 0.41254 0.91724 0.0
N27 N 0.69718 0.39089 0.95734 0.0
N28 N 0.68402 0.45357 0.87133 0.0
C29 C 0.59999 0.38913 0.92065 0.0
C30 C 0.7376 0.45833 0.88588 0.0
N31 N 0.74578 0.42014 0.93792 0.0
C32 C 0.78272 0.49757 0.8478 0.0
H33 H 0.59605 0.34674 0.90459 0.0
H34 H 0.57462 0.42282 0.89365 0.0
H35 H 0.58397 0.37854 0.96659 0.0
H36 H 0.81066 0.52005 0.87461 0.0
H37 H 0.76615 0.53261 0.81323 0.0
H38 H 0.80749 0.46869 0.82663 0.0
C39 C 1.0019 0.57216 0.49614 0.0
N40 N 0.03985 0.61756 0.47092 0.0
N41 N 0.97975 0.5816 0.54628 0.0
C42 C 0.97698 0.52566 0.46529 0.0
C43 C 1.01437 0.62717 0.55653 0.0
N44 N 0.04813 0.65213 0.50944 0.0
C45 C 1.00603 0.65568 0.6078 0.0
H46 H 0.94222 0.54448 0.4389 0.0
H47 H 0.96095 0.48425 0.49754 0.0
H48 H 1.00799 0.51286 0.43595 0.0
H49 H 0.04605 0.66097 0.62877 0.0
H50 H 0.97589 0.62729 0.64047 0.0
H51 H 0.99091 0.70138 0.59288 0.0
C52 C 0.85404 0.86749 0.95478 0.0
N53 N 0.89305 0.85789 0.91632 0.0
N54 N 0.82703 0.917 0.93182 0.0
C55 C 0.83841 0.82502 1.01273 0.0
C56 C 0.85028 0.93666 0.87724 0.0
N57 N 0.89014 0.90042 0.86729 0.0
C58 C 0.83745 0.99447 0.83588 0.0
H59 H 0.84667 0.77778 1.01197 0.0
H60 H 0.79404 0.82618 1.02422 0.0
H61 H 0.86318 0.83915 1.04721 0.0
H62 H 0.87462 0.01593 0.80899 0.0
H63 H 0.82196 0.02703 0.86004 0.0
H64 H 0.80493 0.98412 0.80632 0.0
C65 C 0.67426 0.17801 0.5603 0.0
N66 N 0.68603 0.13488 0.53128 0.0
N67 N 0.6242 0.19893 0.54609 0.0
C68 C 0.71206 0.20195 0.60112 0.0
C69 C 0.60529 0.16582 0.50837 0.0
N70 N 0.64271 0.12722 0.49919 0.0
C71 C 0.5561 0.18038 0.47106 0.0
H72 H 0.68742 0.21519 0.63584 0.0
H73 H 0.73679 0.24303 0.57668 0.0
H74 H 0.74047 0.16757 0.6212 0.0
H75 H 0.53609 0.13877 0.46091 0.0
H76 H 0.57019 0.21191 0.42932 0.0
H77 H 0.52509 0.20207 0.49303 0.0
C78 C 0.36112 0.62231 0.20998 0.0
N79 N 0.40642 0.65408 0.22387 0.0
N80 N 0.3437 0.64856 0.15655 0.0
C81 C 0.33417 0.56474 0.24761 0.0
C82 C 0.37965 0.69752 0.13819 0.0
N83 N 0.41836 0.70052 0.17853 0.0
C84 C 0.37253 0.74665 0.08441 0.0
H85 H 0.36501 0.53832 0.27447 0.0
H86 H 0.3133 0.53654 0.22028 0.0
H87 H 0.30244 0.5761 0.27715 0.0
H88 H 0.33012 0.74425 0.06805 0.0
H89 H 0.4019 0.7416 1.04941 0.0
H90 H 0.38165 0.79209 0.09358 0.0
C91 C 0.05145 0.36647 0.63094 0.0
N92 N 0.09286 0.35186 0.59879 0.0
N93 N 0.06142 0.423 0.63996 0.0
C94 C 1.00619 0.32181 0.66227 0.0
C95 C 0.10843 0.44355 0.60735 0.0
N96 N 0.12962 0.39941 0.58507 0.0
C97 C 0.14026 0.50265 0.60876 0.0
H98 H 0.97426 0.34509 0.68133 0.0
H99 H 1.0241 0.28854 0.69768 0.0
H100 H 0.98689 0.29649 0.63162 0.0
H101 H 0.16696 0.49585 0.64712 0.0
H102 H 0.11162 0.53767 0.61242 0.0
H103 H 0.16674 0.51923 0.56864 0.0
Co104 Co 0.0453 1.00731 0.53175 0.0
C105 C 0.08171 0.89216 0.53816 0.0
Co106 Co 0.11977 0.99026 0.58312 0.0
C107 C 0.93979 0.05274 0.50906 0.0
C108 C 0.95549 0.9922 0.45388 0.0
N109 N 0.97966 0.02063 0.4926 0.0
N110 N 0.8917 0.04483 0.48323 0.0
C111 C 0.90116 1.00668 0.44839 0.0
H112 H 0.94445 0.07763 0.54313 0.0
H113 H 0.97486 0.96009 0.43384 0.0
C114 C 0.08606 0.10703 0.57197 0.0
N115 N 0.1819 0.98011 0.62782 0.0
C116 C 0.23547 0.98077 0.61115 0.0
C117 C 0.18289 0.98 0.68538 0.0
N118 N 0.26907 0.98058 0.65614 0.0
C119 C 0.23625 0.97946 0.70296 0.0
C120 C 0.14304 0.03614 0.46341 0.0
O121 O 0.04956 0.08884 0.54069 0.0
O122 O 0.11952 0.06998 0.5971 0.0
O123 O 0.16434 0.02211 0.51325 0.0
O124 O 0.0904 0.03291 0.4604 0.0
O125 O 0.12047 0.91015 0.56769 0.0
H126 H 0.1475 0.98292 0.71285 0.0
H127 H 0.24977 0.982 0.567 0.0
O128 O 0.0431 0.92663 0.52168 0.0
O129 O 1.0007 0.98059 0.60371 0.0
O130 O 0.07448 0.95816 0.65237 0.0
C131 C 1.02248 0.95959 0.65205 0.0
H132 H 0.87053 0.98899 0.42247 0.0
H133 H 0.25013 0.97994 0.74635 0.0
Co134 Co 0.54256 0.04713 1.04909 0.0
C135 C 0.52597 0.93509 0.12965 0.0
Co136 Co 0.58423 0.04139 0.13282 0.0
C137 C 0.52765 0.04915 0.92678 0.0
C138 C 0.45164 0.02825 0.97717 0.0
N139 N 0.50509 0.04753 0.9803 0.0
N140 N 0.49093 0.03008 0.8913 0.0
C141 C 0.44304 0.01683 0.92279 0.0
H142 H 0.5714 0.05779 0.91584 0.0
H143 H 0.42231 0.01697 1.01388 0.0
C144 C 0.60481 0.15272 0.05302 0.0
N145 N 0.62427 0.03895 0.19963 0.0
C146 C 0.60719 0.04233 0.2537 0.0
C147 C 0.67996 0.0404 0.20161 0.0
N148 N 0.65009 0.04644 0.28856 0.0
C149 C 0.69581 0.04488 0.25604 0.0
C150 C 0.64645 1.00594 1.04398 0.0
O151 O 0.57296 0.12923 1.02012 0.0
O152 O 0.61377 0.12239 0.10376 0.0
O153 O 0.6469 0.01158 0.09657 0.0
O154 O 0.60394 0.01947 1.01533 0.0
O155 O 0.55531 0.96064 0.16254 0.0
H156 H 0.70809 0.04196 0.16508 0.0
H157 H 0.56468 0.04612 0.26617 0.0
O158 O 0.51505 0.96475 0.07899 0.0
O159 O 0.47924 0.07487 0.08391 0.0
O160 O 0.51986 0.07073 0.16702 0.0
C161 C 0.47718 0.08148 0.13638 0.0
H162 H 0.40593 0.9953 0.90924 0.0
H163 H 0.73784 0.05029 0.2697 0.0
Co164 Co 0.59165 0.56251 0.52561 0.0
C165 C 0.51136 0.5796 0.44367 0.0
Co166 Co 0.5091 0.53167 0.56556 0.0
C167 C 0.70897 0.56427 0.5212 0.0
C168 C 0.6799 0.63383 0.45366 0.0
N169 N 0.66253 0.58608 0.49688 0.0
N170 N 0.75462 0.59761 0.49624 0.0
C171 C 0.73661 0.64106 0.45316 0.0
H172 H 0.70917 0.5271 0.55909 0.0
H173 H 0.65303 0.6634 0.42651 0.0
C174 C 0.58857 0.5178 0.64725 0.0
N175 N 0.43792 0.5065 0.59521 0.0
C176 C 0.39724 0.47774 0.57079 0.0
C177 C 0.41678 0.5094 0.64781 0.0
N178 N 0.3519 0.46186 0.60651 0.0
C179 C 0.36405 0.48187 0.65494 0.0
C180 C 0.56376 0.44085 0.533 0.0
O181 O 0.61888 0.54311 0.60288 0.0
O182 O 0.53756 0.50569 0.64121 0.0
O183 O 0.51747 0.45247 0.55242 0.0
O184 O 0.60136 0.48342 0.51756 0.0
O185 O 0.48081 0.55849 0.48928 0.0
H186 H 0.43852 0.5297 0.6792 0.0
H187 H 0.40123 0.46745 0.5282 0.0
O188 O 0.56351 0.58309 0.44848 0.0
O189 O 0.58305 0.64095 0.53457 0.0
O190 O 0.50289 0.61116 0.58036 0.0
C191 C 0.54171 0.6525 0.56272 0.0
H192 H 0.76238 0.67691 0.4247 0.0
H193 H 0.33642 0.47765 0.69256 0.0
Co194 Co 0.05926 0.53933 1.00401 0.0
C195 C 0.95058 0.48579 1.03117 0.0
Co196 Co 1.02573 0.5467 0.09013 0.0
C197 C 0.0573 0.52037 0.88644 0.0
C198 C 0.13839 0.51828 0.92098 0.0
N199 N 0.08595 0.52882 0.93308 0.0
N200 N 0.08975 0.50385 0.84654 0.0
C201 C 0.14077 0.50265 0.86796 0.0
H202 H 1.01295 0.52177 0.88367 0.0
H203 H 0.17204 0.51803 0.95048 0.0
C204 C 0.13399 0.5971 0.06393 0.0
N205 N 1.00077 0.55947 0.16216 0.0
C206 C 1.03163 0.57146 0.20639 0.0
C207 C 0.94924 0.57145 0.17576 0.0
N208 N 1.00179 0.59212 0.24603 0.0
C209 C 0.94966 0.59114 0.22705 0.0
C210 C 0.08395 0.44469 0.09665 0.0
O211 O 0.12833 0.58131 1.01571 0.0
O212 O 0.09327 0.58804 0.09994 0.0
O213 O 0.05598 0.47213 0.1278 0.0
O214 O 0.08795 0.46525 1.04174 0.0
O215 O 0.95601 0.50353 0.07877 0.0
H216 H 0.9141 0.56916 0.14855 0.0
H217 H 0.07578 0.56813 0.20792 0.0
O218 O 0.99084 0.49668 0.99399 0.0
O219 O 1.03069 0.61412 0.96602 0.0
O220 O 0.99806 0.62178 0.05156 0.0
C221 C 1.00489 0.64341 0.99682 0.0
H222 H 0.1765 0.48817 0.8481 0.0
H223 H 0.91415 0.60471 0.248 0.0
C224 C 0.25858 0.12325 0.36057 0.0
C225 C 0.2393 0.1183 0.30576 0.0
H226 H 0.24321 0.10127 0.45345 0.0
C227 C 0.19396 0.07654 0.30428 0.0
H228 H 0.29248 0.15607 0.36305 0.0
C229 C 0.16359 0.04786 0.35569 0.0
C230 C 0.17947 0.05824 0.40998 0.0
H231 H 0.17742 0.07293 0.26266 0.0
H232 H 0.12601 0.02032 0.35258 0.0
C233 C 0.22936 0.09303 0.41221 0.0
C234 C 0.52828 0.02605 0.73694 0.0
C235 C 0.52786 0.96339 0.74074 0.0
H236 H 0.51748 0.09666 0.78298 0.0
C237 C 0.51661 0.92334 0.79521 0.0
H238 H 0.53603 0.05755 0.69514 0.0
C239 C 0.50479 0.94551 0.84459 0.0
C240 C 0.5046 1.00805 0.84056 0.0
H241 H 0.51424 0.87489 0.79896 0.0
H242 H 0.49505 0.91393 0.88599 0.0
C243 C 0.51741 0.0483 0.78669 0.0
C244 C 0.65829 0.53171 0.78648 0.0
C245 C 0.66161 0.47063 0.81415 0.0
H246 H 0.63299 0.59462 0.71055 0.0
C247 C 0.64075 0.42547 0.78634 0.0
H248 H 0.67342 0.56713 0.80752 0.0
C249 C 0.61587 0.44093 0.73253 0.0
C250 C 0.61294 0.50186 0.7048 0.0
H251 H 0.64358 0.3781 0.80657 0.0
H252 H 0.59977 0.40536 0.7121 0.0
C253 C 0.63488 0.54726 0.73161 0.0
C254 C 1.00146 0.66097 0.37708 0.0
C255 C 0.04619 0.63536 0.40806 0.0
H256 H 0.95252 0.66808 0.3019 0.0
C257 C 0.08215 0.60457 0.37942 0.0
H258 H 0.97098 0.68164 0.39866 0.0
C259 C 0.06967 0.5932 0.32445 0.0
C260 C 1.0211 0.61299 0.29677 0.0
H261 H 0.11586 0.58263 0.4028 0.0
H262 H 0.09561 0.56474 0.30621 0.0
C263 C 0.98931 0.65036 0.32225 0.0
C264 C 0.37374 0.14065 0.23349 0.0
C265 C 0.32623 0.14482 0.19973 0.0
H266 H 0.4586 0.11776 0.24055 0.0
C267 C 0.328 0.12398 0.14779 0.0
H268 H 0.37416 0.15733 0.27315 0.0
C269 C 0.37631 0.10262 0.12844 0.0
C270 C 0.42491 0.10084 0.1605 0.0
H271 H 0.29236 0.12686 0.12061 0.0
H272 H 0.3758 0.0887 0.08731 0.0
C273 C 0.42239 0.11868 0.21429 0.0
C274 C 0.40848 0.93347 0.69837 0.0
C275 C 0.442 0.96939 0.65261 0.0
H276 H 0.32678 0.90955 0.73525 0.0
C277 C 0.41829 0.01228 0.6095 0.0
H278 H 0.42547 0.89821 0.7305 0.0
C279 C 0.36114 0.01666 0.61062 0.0
C280 C 0.32777 0.97928 0.65576 0.0
H281 H 0.44362 0.03982 0.57359 0.0
H282 H 0.34284 0.04839 0.5761 0.0
C283 C 0.35204 0.93909 0.70047 0.0
C284 C 0.7963 0.44408 1.02132 0.0
C285 C 0.79562 0.42066 0.97076 0.0
H286 H 0.84573 0.48309 0.0806 0.0
C287 C 0.84621 0.41079 0.94597 0.0
H288 H 0.75782 0.45284 1.04078 0.0
C289 C 0.89634 0.4288 0.96793 0.0
C290 C 0.89735 0.45678 1.01574 0.0
H291 H 0.84685 0.39281 0.90707 0.0
H292 H 0.9344 0.42337 0.94553 0.0
C293 C 0.84666 0.46186 1.04375 0.0
C294 C 0.89992 0.64221 0.52539 0.0
C295 C 0.92077 0.58587 0.54901 0.0
H296 H 0.83143 0.68993 0.49042 0.0
C297 C 0.88418 0.53368 0.56091 0.0
H298 H 0.92692 0.68332 0.51462 0.0
C299 C 0.82892 0.53741 0.54503 0.0
C300 C 0.80975 0.59345 0.51722 0.0
H301 H 0.89925 0.48983 0.57873 0.0
H302 H 0.80205 0.49622 0.55178 0.0
C303 C 0.84531 0.64592 0.50988 0.0
C304 C 0.16841 0.3071 0.11489 0.0
C305 C 0.19031 0.30415 0.17023 0.0
H306 H 0.1173 0.35347 1.04843 0.0
C307 C 0.17609 0.34734 0.20146 0.0
H308 H 0.17796 0.27401 0.09019 0.0
C309 C 0.13954 0.39117 0.17882 0.0
C310 C 0.11751 0.39404 0.12354 0.0
H311 H 0.19318 0.34699 0.24367 0.0
H312 H 0.12982 0.42396 0.20387 0.0
C313 C 0.13297 0.35196 0.09151 0.0
C314 C 0.69234 0.28325 0.95768 0.0
C315 C 0.68977 0.32877 0.98934 0.0
H316 H 0.66472 0.19312 0.95149 0.0
C317 C 0.66274 0.31431 1.04452 0.0
H318 H 0.71166 0.29399 0.91432 0.0
C319 C 0.63636 0.25632 0.06618 0.0
C320 C 0.63474 0.21288 1.03184 0.0
H321 H 0.65886 0.34908 0.06887 0.0
H322 H 0.61464 0.24652 0.10829 0.0
C323 C 0.66421 0.22632 0.97812 0.0
C324 C 1.03508 0.75973 0.47246 0.0
C325 C 0.0694 0.71479 0.49842 0.0
H326 H 1.01146 0.84978 0.46504 0.0
C327 C 0.11279 0.73112 0.53207 0.0
H328 H 0.99984 0.74857 0.44872 0.0
C329 C 0.11866 0.7894 0.54347 0.0
C330 C 0.08103 0.83254 0.52143 0.0
H331 H 0.13875 0.69688 0.55418 0.0
H332 H 0.15058 0.79941 0.57218 0.0
C333 C 0.04081 0.81768 0.48363 0.0
C334 C 0.5118 0.77473 0.64254 0.0
C335 C 0.55107 0.82161 0.61593 0.0
H336 H 0.47699 0.68466 0.64575 0.0
C337 C 0.58632 0.81333 0.5712 0.0
H338 H 0.48343 0.78137 0.67626 0.0
C339 C 0.58248 0.75861 0.55326 0.0
C340 C 0.54271 0.71159 0.57934 0.0
H341 H 0.61575 0.84976 0.54937 0.0
H342 H 0.61044 0.75334 0.51861 0.0
C343 C 0.50751 0.72016 0.62435 0.0
C344 C 0.98151 0.91157 0.81468 0.0
C345 C 0.92358 0.90801 0.81387 0.0
H346 H 0.05807 0.93026 0.76463 0.0
C347 C 0.89851 0.91763 0.75939 0.0
H348 H 1.00202 0.90501 0.85585 0.0
C349 C 0.93038 0.93343 0.70702 0.0
C350 C 0.98839 0.93908 0.70763 0.0
H351 H 0.85394 0.9143 0.75741 0.0
H352 H 0.90947 0.94198 0.66603 0.0
C353 C 1.01353 0.92661 0.76224 0.0
C354 C 0.60824 0.05657 0.43982 0.0
C355 C 0.64547 0.10398 0.44745 0.0
H356 H 0.58031 1.00105 0.38146 0.0
C357 C 0.68413 0.1314 0.40286 0.0
H358 H 0.57801 0.03537 0.47404 0.0
C359 C 0.68623 0.11137 0.35137 0.0
C360 C 0.64879 0.06445 0.34303 0.0
H361 H 0.71214 0.16901 0.40775 0.0
H362 H 0.71606 0.13381 0.31723 0.0
C363 C 0.60953 0.03722 0.3874 0.0
C364 C 0.40371 0.63007 0.33166 0.0
C365 C 0.43438 0.64144 0.27861 0.0
H366 H 0.40344 0.60076 0.42462 0.0
C367 C 0.49158 0.63553 0.28001 0.0
H368 H 0.35983 0.63572 0.33188 0.0
C369 C 0.51712 0.61615 0.33351 0.0
C370 C 0.48573 0.60192 0.3865 0.0
H371 H 0.51608 0.64402 0.23965 0.0
H372 H 0.56112 0.611 0.33326 0.0
C373 C 0.42884 0.61004 0.38478 0.0
C374 C 0.08012 0.40139 0.74377 0.0
C375 C 0.05429 0.4366 0.69639 0.0
H376 H 0.11183 0.39596 0.82874 0.0
C377 C 1.03366 0.49127 0.70212 0.0
H378 H 0.09737 0.35972 0.73987 0.0
C379 C 0.0423 0.51229 0.75325 0.0
C380 C 0.07232 0.47903 0.79836 0.0
H381 H 1.01433 0.51924 0.66571 0.0
H382 H 1.02888 0.55603 0.75609 0.0
C383 C 0.08922 0.4225 0.79406 0.0
C384 C 0.78805 0.95253 1.01563 0.0
C385 C 0.78283 0.94163 0.95926 0.0
H386 H 0.74936 0.98103 0.08693 0.0
C387 C 0.73297 0.95268 0.9311 0.0
H388 H 0.82626 0.94479 1.03812 0.0
C389 C 0.68918 0.97369 0.95868 0.0
C390 C 0.69392 0.98401 1.01541 0.0
H391 H 0.72755 0.94391 0.88809 0.0
H392 H 0.65124 0.98119 0.93555 0.0
C393 C 0.74407 0.97332 1.0435 0.0
C394 C 0.78773 0.14958 0.51328 0.0
C395 C 0.73902 0.11094 0.52469 0.0
H396 H 0.87468 0.15828 0.49166 0.0
C397 C 0.74161 0.04991 0.5222 0.0
H398 H 0.78687 0.19733 0.51211 0.0
C399 C 0.79142 0.02833 0.50755 0.0
C400 C 0.83996 0.06705 0.49648 0.0
H401 H 0.70463 0.01932 0.53031 0.0
H402 H 0.79225 0.98127 0.50551 0.0
C403 C 0.83779 0.12759 0.50038 0.0
C404 C 0.24259 0.64364 0.16122 0.0
C405 C 0.29152 0.63681 0.13187 0.0
H406 H 0.15468 0.63908 0.16155 0.0
C407 C 0.28904 0.62201 0.07708 0.0
H408 H 0.24398 0.65647 0.20286 0.0
C409 C 0.2378 0.61184 0.05296 0.0
C410 C 0.1885 0.61702 0.08324 0.0
H411 H 0.32673 0.61754 0.05358 0.0
H412 H 0.23679 0.59823 1.01169 0.0
C413 C 0.19168 0.63421 0.1371 0.0
C414 C 0.21453 0.3748 0.63534 0.0
C415 C 0.1885 0.39534 0.58254 0.0
H416 H 0.28727 0.38009 0.68431 0.0
C417 C 0.22039 0.4294 0.53434 0.0
H418 H 0.19038 0.35081 0.67373 0.0
C419 C 0.27602 0.44753 0.54068 0.0
C420 C 0.30004 0.43225 0.59552 0.0
H421 H 0.20077 0.44712 0.49375 0.0
H422 H 0.2986 0.47783 0.5043 0.0
C423 C 0.26959 0.39309 0.64181 0.0
C424 C 0.93155 0.76614 0.89527 0.0
C425 C 0.93068 0.81035 0.92852 0.0
H426 H 0.95661 0.67814 0.89063 0.0
C427 C 0.95999 0.80205 0.9803 0.0
H428 H 0.90891 0.7713 0.85546 0.0
C429 C 0.98513 0.74841 1.00146 0.0
C430 C 0.98339 0.70251 0.97023 0.0
H431 H 0.96043 0.83583 1.00629 0.0
H432 H 1.0049 0.74222 1.04308 0.0
C433 C 0.95834 0.71279 0.91569 0.0
C434 C 0.45268 0.78905 0.21548 0.0
C435 C 0.45759 0.75161 0.17585 0.0
H436 H 0.47139 0.8776 0.23185 0.0
C437 C 0.49168 0.7723 0.12543 0.0
H438 H 0.42596 0.77426 0.25417 0.0
C439 C 0.5151 0.83176 0.11127 0.0
C440 C 0.50678 0.8707 0.14862 0.0
H441 H 0.49603 0.74393 0.0945 0.0
H442 H 0.53819 0.84796 0.07018 0.0
C443 C 0.47783 0.84821 0.20225 0.0
C444 C 0.12402 0.24858 0.62768 0.0
C445 C 0.09834 0.29277 0.58769 0.0
H446 H 0.14081 0.15509 0.65382 0.0
C447 C 0.06934 0.27588 0.54221 0.0
H448 H 0.1445 0.26005 0.66456 0.0
C449 C 0.06539 0.21558 0.53705 0.0
C450 C 0.09082 0.17101 0.57721 0.0
H451 H 0.048 0.30916 0.51202 0.0
H452 H 0.04204 0.2038 0.50188 0.0
C453 C 0.12101 0.18837 0.62202 0.0
C454 C 0.64257 0.30886 0.51349 0.0
C455 C 0.60925 0.25919 0.54547 0.0
H456 H 0.65387 0.40488 0.48359 0.0
C457 C 0.55923 0.26897 0.57142 0.0
H458 H 0.6806 0.30194 0.49192 0.0
C459 C 0.54305 0.328 0.56584 0.0
C460 C 0.57689 0.37794 0.53429 0.0
H461 H 0.53271 0.23089 0.59549 0.0
H462 H 0.50469 0.33457 0.58702 0.0
C463 C 0.62675 0.36756 0.50811 0.0
loop_
_geom_bond_atom_site_label_1
_geom_bond_atom_site_label_2
_geom_bond_distance
_geom_bond_site_symmetry_2
_ccdc_geom_bond_type
C0 N1 1.317 . S
C0 N2 1.348 . S
C0 C3 1.485 . S
N1 C0 1.317 . S
N1 N5 1.370 . S
N2 C0 1.348 . S
N2 C4 1.346 . S
C3 C0 1.485 . S
C3 H7 0.960 . S
C3 H8 0.961 . S
C3 H9 0.960 . S
C4 N2 1.346 . S
C4 N5 1.307 . S
C4 C6 1.486 . S
N5 N1 1.370 . S
N5 C4 1.307 . S
C6 C4 1.486 . S
C6 H10 0.960 . S
C6 H11 0.960 . S
C6 H12 0.959 . S
H7 C3 0.960 . S
H8 C3 0.961 . S
H9 C3 0.960 . S
H10 C6 0.960 . S
H11 C6 0.960 . S
H12 C6 0.959 . S
C13 N14 1.317 . S
C13 N15 1.348 . S
C13 C16 1.485 . S
N14 C13 1.317 . S
N14 N18 1.370 . S
N15 C13 1.348 . S
N15 C17 1.346 . S
C16 C13 1.485 . S
C16 H20 0.960 . S
C16 H21 0.961 . S
C16 H22 0.960 . S
C17 N15 1.346 . S
C17 N18 1.307 . S
C17 C19 1.486 . S
N18 N14 1.370 . S
N18 C17 1.307 . S
C19 C17 1.486 . S
C19 H23 0.960 . S
C19 H24 0.960 . S
C19 H25 0.959 . S
H20 C16 0.960 . S
H21 C16 0.961 . S
H22 C16 0.960 . S
H23 C19 0.960 . S
H24 C19 0.960 . S
H25 C19 0.959 . S
C26 N27 1.317 . S
C26 N28 1.348 . S
C26 C29 1.485 . S
N27 C26 1.317 . S
N27 N31 1.370 . S
N28 C26 1.348 . S
N28 C30 1.346 . S
C29 C26 1.485 . S
C29 H33 0.960 . S
C29 H34 0.961 . S
C29 H35 0.960 . S
C30 N28 1.346 . S
C30 N31 1.307 . S
C30 C32 1.486 . S
N31 N27 1.370 . S
N31 C30 1.307 . S
C32 C30 1.486 . S
C32 H36 0.960 . S
C32 H37 0.960 . S
C32 H38 0.959 . S
H33 C29 0.960 . S
H34 C29 0.961 . S
H35 C29 0.960 . S
H36 C32 0.960 . S
H37 C32 0.960 . S
H38 C32 0.959 . S
C39 N40 1.317 . S
C39 N41 1.348 . S
C39 C42 1.485 . S
N40 C39 1.317 . S
N40 N44 1.370 . S
N41 C39 1.348 . S
N41 C43 1.346 . S
C42 C39 1.485 . S
C42 H46 0.960 . S
C42 H47 0.961 . S
C42 H48 0.960 . S
C43 N41 1.346 . S
C43 N44 1.307 . S
C43 C45 1.486 . S
N44 N40 1.370 . S
N44 C43 1.307 . S
C45 C43 1.486 . S
C45 H49 0.960 . S
C45 H50 0.960 . S
C45 H51 0.959 . S
H46 C42 0.960 . S
H47 C42 0.961 . S
H48 C42 0.960 . S
H49 C45 0.960 . S
H50 C45 0.960 . S
H51 C45 0.959 . S
C52 N53 1.317 . S
C52 N54 1.348 . S
C52 C55 1.485 . S
N53 C52 1.317 . S
N53 N57 1.370 . S
N54 C52 1.348 . S
N54 C56 1.346 . S
C55 C52 1.485 . S
C55 H59 0.960 . S
C55 H60 0.961 1_556 S
C55 H61 0.960 1_556 S
C56 N54 1.346 . S
C56 N57 1.307 . S
C56 C58 1.486 1_565 S
N57 N53 1.370 . S
N57 C56 1.307 . S
C58 C56 1.486 1_545 S
C58 H62 0.960 . S
C58 H63 0.960 . S
C58 H64 0.959 . S
H59 C55 0.960 . S
H60 C55 0.961 1_554 S
H61 C55 0.960 1_554 S
H62 C58 0.960 . S
H63 C58 0.960 . S
H64 C58 0.959 . S
C65 N66 1.317 . S
C65 N67 1.348 . S
C65 C68 1.485 . S
N66 C65 1.317 . S
N66 N70 1.370 . S
N67 C65 1.348 . S
N67 C69 1.346 . S
C68 C65 1.485 . S
C68 H72 0.960 . S
C68 H73 0.961 . S
C68 H74 0.960 . S
C69 N67 1.346 . S
C69 N70 1.307 . S
C69 C71 1.486 . S
N70 N66 1.370 . S
N70 C69 1.307 . S
C71 C69 1.486 . S
C71 H75 0.960 . S
C71 H76 0.960 . S
C71 H77 0.959 . S
H72 C68 0.960 . S
H73 C68 0.961 . S
H74 C68 0.960 . S
H75 C71 0.960 . S
H76 C71 0.960 . S
H77 C71 0.959 . S
C78 N79 1.317 . S
C78 N80 1.348 . S
C78 C81 1.485 . S
N79 C78 1.317 . S
N79 N83 1.370 . S
N80 C78 1.348 . S
N80 C82 1.346 . S
C81 C78 1.485 . S
C81 H85 0.960 . S
C81 H86 0.961 . S
C81 H87 0.960 . S
C82 N80 1.346 . S
C82 N83 1.307 . S
C82 C84 1.486 . S
N83 N79 1.370 . S
N83 C82 1.307 . S
C84 C82 1.486 . S
C84 H88 0.960 . S
C84 H89 0.960 . S
C84 H90 0.959 . S
H85 C81 0.960 . S
H86 C81 0.961 . S
H87 C81 0.960 . S
H88 C84 0.960 . S
H89 C84 0.960 . S
H90 C84 0.959 . S
C91 N92 1.317 . S
C91 N93 1.348 . S
C91 C94 1.485 . S
N92 C91 1.317 . S
N92 N96 1.370 . S
N93 C91 1.348 . S
N93 C95 1.346 . S
C94 C91 1.485 . S
C94 H98 0.960 1_455 S
C94 H99 0.961 . S
C94 H100 0.960 . S
C95 N93 1.346 . S
C95 N96 1.307 . S
C95 C97 1.486 . S
N96 N92 1.370 . S
N96 C95 1.307 . S
C97 C95 1.486 . S
C97 H101 0.960 . S
C97 H102 0.960 . S
C97 H103 0.959 . S
H98 C94 0.960 1_655 S
H99 C94 0.961 . S
H100 C94 0.960 . S
H101 C97 0.960 . S
H102 C97 0.960 . S
H103 C97 0.959 . S
Co104 N109 2.057 . S
Co104 O121 2.021 1_655 S
Co104 O124 2.062 1_655 S
Co104 O128 2.117 1_545 S
Co104 O129 2.020 . S
C105 O125 1.259 . S
C105 O128 1.258 1_455 S
Co106 N115 2.057 . S
Co106 O122 2.117 1_565 S
Co106 O123 2.020 1_565 S
Co106 O125 2.021 . S
Co106 O130 2.062 . S
C107 N109 1.316 . S
C107 N110 1.347 . S
C107 H112 0.931 . S
C108 N109 1.390 . S
C108 C111 1.360 . S
C108 H113 0.909 1_545 S
N109 Co104 2.057 . S
N109 C107 1.316 . S
N109 C108 1.390 . S
N110 C107 1.347 . S
N110 C111 1.373 . S
C111 C108 1.360 . S
C111 N110 1.373 . S
C111 H132 0.931 . S
H112 C107 0.931 . S
H113 C108 0.909 1_565 S
C114 O121 1.259 . S
C114 O122 1.258 . S
N115 Co106 2.057 . S
N115 C116 1.316 . S
N115 C117 1.375 1_565 S
C116 N115 1.316 . S
C116 N118 1.347 . S
C116 H127 0.931 . S
C117 N115 1.375 1_545 S
C117 C119 1.350 . S
C117 H126 0.930 . S
N118 C116 1.347 . S
N118 C119 1.373 1_565 S
C119 C117 1.350 . S
C119 N118 1.373 1_545 S
C119 H133 0.931 . S
C120 O123 1.256 . S
C120 O124 1.255 . S
O121 Co104 2.021 1_455 S
O121 C114 1.259 . S
O122 Co106 2.117 1_545 S
O122 C114 1.258 . S
O123 Co106 2.020 1_545 S
O123 C120 1.256 . S
O124 Co104 2.062 1_455 S
O124 C120 1.255 . S
O125 C105 1.259 . S
O125 Co106 2.021 . S
H126 C117 0.930 . S
H127 C116 0.931 . S
O128 Co104 2.117 1_565 S
O128 C105 1.258 1_655 S
O129 Co104 2.020 . S
O129 C131 1.256 1_645 S
O130 Co106 2.062 . S
O130 C131 1.255 . S
C131 O129 1.256 1_465 S
C131 O130 1.255 . S
H132 C111 0.931 . S
H133 C119 0.931 . S
Co134 N139 2.057 1_545 S
Co134 O151 2.021 . S
Co134 O154 2.062 1_545 S
Co134 O158 2.117 1_546 S
Co134 O159 2.020 1_556 S
C135 O155 1.259 . S
C135 O158 1.258 . S
Co136 N145 2.057 . S
Co136 O152 2.117 . S
Co136 O153 2.020 . S
Co136 O155 2.021 1_545 S
Co136 O160 2.062 . S
C137 N139 1.316 . S
C137 N140 1.347 . S
C137 H142 0.931 1_565 S
C138 N139 1.375 . S
C138 C141 1.350 . S
C138 H143 0.930 . S
N139 Co134 2.057 1_565 S
N139 C137 1.316 . S
N139 C138 1.375 . S
N140 C137 1.347 . S
N140 C141 1.373 . S
C141 C138 1.350 . S
C141 N140 1.373 . S
C141 H162 0.931 . S
H142 C137 0.931 1_545 S
H143 C138 0.930 . S
C144 O151 1.259 . S
C144 O152 1.258 1_556 S
N145 Co136 2.057 . S
N145 C146 1.316 . S
N145 C147 1.375 . S
C146 N145 1.316 . S
C146 N148 1.347 . S
C146 H157 0.931 . S
C147 N145 1.375 . S
C147 C149 1.350 . S
C147 H156 0.930 . S
N148 C146 1.347 . S
N148 C149 1.373 . S
C149 C147 1.350 . S
C149 N148 1.373 . S
C149 H163 0.931 . S
C150 O153 1.256 1_565 S
C150 O154 1.255 1_554 S
O151 Co134 2.021 . S
O151 C144 1.259 . S
O152 Co136 2.117 . S
O152 C144 1.258 1_554 S
O153 Co136 2.020 . S
O153 C150 1.256 1_545 S
O154 Co134 2.062 1_565 S
O154 C150 1.255 1_556 S
O155 C135 1.259 . S
O155 Co136 2.021 1_565 S
H156 C147 0.930 . S
H157 C146 0.931 . S
O158 Co134 2.117 1_564 S
O158 C135 1.258 . S
O159 Co134 2.020 1_554 S
O159 C161 1.256 . S
O160 Co136 2.062 . S
O160 C161 1.255 . S
C161 O159 1.256 . S
C161 O160 1.255 . S
H162 C141 0.931 . S
H163 C149 0.931 . S
Co164 N169 2.057 . S
Co164 O181 2.021 . S
Co164 O184 2.062 . S
Co164 O188 2.117 . S
Co164 O189 2.020 . S
C165 O185 1.259 . S
C165 O188 1.258 . S
Co166 N175 2.057 . S
Co166 O182 2.117 . S
Co166 O183 2.020 . S
Co166 O185 2.021 . S
Co166 O190 2.062 . S
C167 N169 1.316 . S
C167 N170 1.347 . S
C167 H172 0.931 . S
C168 N169 1.375 . S
C168 C171 1.350 . S
C168 H173 0.930 . S
N169 Co164 2.057 . S
N169 C167 1.316 . S
N169 C168 1.375 . S
N170 C167 1.347 . S
N170 C171 1.373 . S
C171 C168 1.350 . S
C171 N170 1.373 . S
C171 H192 0.931 . S
H172 C167 0.931 . S
H173 C168 0.930 . S
C174 O181 1.259 . S
C174 O182 1.258 . S
N175 Co166 2.057 . S
N175 C176 1.316 . S
N175 C177 1.375 . S
C176 N175 1.316 . S
C176 N178 1.347 . S
C176 H187 0.931 . S
C177 N175 1.375 . S
C177 C179 1.350 . S
C177 H186 0.930 . S
N178 C176 1.347 . S
N178 C179 1.373 . S
C179 C177 1.350 . S
C179 N178 1.373 . S
C179 H193 0.931 . S
C180 O183 1.256 . S
C180 O184 1.255 . S
O181 Co164 2.021 . S
O181 C174 1.259 . S
O182 Co166 2.117 . S
O182 C174 1.258 . S
O183 Co166 2.020 . S
O183 C180 1.256 . S
O184 Co164 2.062 . S
O184 C180 1.255 . S
O185 C165 1.259 . S
O185 Co166 2.021 . S
H186 C177 0.930 . S
H187 C176 0.931 . S
O188 Co164 2.117 . S
O188 C165 1.258 . S
O189 Co164 2.020 . S
O189 C191 1.256 . S
O190 Co166 2.062 . S
O190 C191 1.255 . S
C191 O189 1.256 . S
C191 O190 1.255 . S
H192 C171 0.931 . S
H193 C179 0.931 . S
Co194 N199 2.057 . S
Co194 O211 2.021 . S
Co194 O214 2.062 . S
Co194 O218 2.117 1_455 S
Co194 O219 2.020 . S
C195 O215 1.259 1_556 S
C195 O218 1.258 . S
Co196 N205 2.057 . S
Co196 O212 2.117 1_655 S
Co196 O213 2.020 1_655 S
Co196 O215 2.021 . S
Co196 O220 2.062 . S
C197 N199 1.316 . S
C197 N200 1.347 . S
C197 H202 0.931 . S
C198 N199 1.375 1_655 S
C198 C201 1.350 1_655 S
C198 H203 0.930 . S
N199 Co194 2.057 . S
N199 C197 1.316 . S
N199 C198 1.375 1_455 S
N200 C197 1.347 . S
N200 C201 1.373 . S
C201 C198 1.350 1_455 S
C201 N200 1.373 . S
C201 H222 0.931 1_455 S
H202 C197 0.931 . S
H203 C198 0.930 . S
C204 O211 1.259 1_554 S
C204 O212 1.258 . S
N205 Co196 2.057 . S
N205 C206 1.316 . S
N205 C207 1.375 1_655 S
C206 N205 1.316 . S
C206 N208 1.347 . S
C206 H217 0.931 . S
C207 N205 1.375 1_455 S
C207 C209 1.350 . S
C207 H216 0.930 . S
N208 C206 1.347 . S
N208 C209 1.373 1_655 S
C209 C207 1.350 . S
C209 N208 1.373 1_455 S
C209 H223 0.931 . S
C210 O213 1.256 . S
C210 O214 1.255 1_554 S
O211 Co194 2.021 . S
O211 C204 1.259 1_556 S
O212 Co196 2.117 1_455 S
O212 C204 1.258 . S
O213 Co196 2.020 1_455 S
O213 C210 1.256 . S
O214 Co194 2.062 . S
O214 C210 1.255 1_556 S
O215 C195 1.259 1_554 S
O215 Co196 2.021 . S
H216 C207 0.930 . S
H217 C206 0.931 . S
O218 Co194 2.117 1_655 S
O218 C195 1.258 . S
O219 Co194 2.020 . S
O219 C221 1.256 1_455 S
O220 Co196 2.062 . S
O220 C221 1.255 1_554 S
C221 O219 1.256 1_655 S
C221 O220 1.255 1_556 S
H222 C201 0.931 1_655 S
H223 C209 0.931 . S
C224 C225 1.387 . S
C224 H228 0.950 . S
C224 C233 1.390 . S
C225 C224 1.387 . S
C225 C227 1.387 . S
H226 C233 0.950 . S
C227 C225 1.387 . S
C227 C229 1.390 . S
C227 H231 0.950 . S
H228 C224 0.950 . S
C229 C227 1.390 . S
C229 C230 1.387 . S
C229 H232 0.950 1_545 S
C230 C229 1.387 . S
C230 C233 1.387 . S
H231 C227 0.950 . S
H232 C229 0.950 1_565 S
C233 C224 1.390 . S
C233 H226 0.950 . S
C233 C230 1.387 . S
C234 C235 1.387 . S
C234 H238 0.950 . S
C234 C243 1.390 . S
C235 C234 1.387 . S
C235 C237 1.387 . S
H236 C243 0.950 . S
C237 C235 1.387 . S
C237 C239 1.390 . S
C237 H241 0.950 . S
H238 C234 0.950 . S
C239 C237 1.390 . S
C239 C240 1.387 . S
C239 H242 0.950 . S
C240 C239 1.387 . S
C240 C243 1.387 . S
H241 C237 0.950 . S
H242 C239 0.950 . S
C243 C234 1.390 . S
C243 H236 0.950 . S
C243 C240 1.387 . S
C244 C245 1.387 . S
C244 H248 0.950 . S
C244 C253 1.390 . S
C245 C244 1.387 . S
C245 C247 1.387 . S
H246 C253 0.950 . S
C247 C245 1.387 . S
C247 C249 1.390 . S
C247 H251 0.950 . S
H248 C244 0.950 . S
C249 C247 1.390 . S
C249 C250 1.387 . S
C249 H252 0.950 . S
C250 C249 1.387 . S
C250 C253 1.387 . S
H251 C247 0.950 . S
H252 C249 0.950 . S
C253 C244 1.390 . S
C253 H246 0.950 . S
C253 C250 1.387 . S
C254 C255 1.387 . S
C254 H258 0.950 . S
C254 C263 1.390 . S
C255 C254 1.387 . S
C255 C257 1.387 . S
H256 C263 0.950 . S
C257 C255 1.387 . S
C257 C259 1.390 . S
C257 H261 0.950 . S
H258 C254 0.950 . S
C259 C257 1.390 . S
C259 C260 1.387 . S
C259 H262 0.950 . S
C260 C259 1.387 . S
C260 C263 1.387 . S
H261 C257 0.950 . S
H262 C259 0.950 . S
C263 C254 1.390 . S
C263 H256 0.950 . S
C263 C260 1.387 . S
C264 C265 1.387 . S
C264 H268 0.950 . S
C264 C273 1.390 . S
C265 C264 1.387 . S
C265 C267 1.387 . S
H266 C273 0.950 . S
C267 C265 1.387 . S
C267 C269 1.390 . S
C267 H271 0.950 . S
H268 C264 0.950 . S
C269 C267 1.390 . S
C269 C270 1.387 . S
C269 H272 0.950 . S
C270 C269 1.387 . S
C270 C273 1.387 . S
H271 C267 0.950 . S
H272 C269 0.950 . S
C273 C264 1.390 . S
C273 H266 0.950 . S
C273 C270 1.387 . S
C274 C275 1.387 . S
C274 H278 0.950 . S
C274 C283 1.390 . S
C275 C274 1.387 . S
C275 C277 1.387 . S
H276 C283 0.950 . S
C277 C275 1.387 . S
C277 C279 1.390 . S
C277 H281 0.950 . S
H278 C274 0.950 . S
C279 C277 1.390 . S
C279 C280 1.387 . S
C279 H282 0.950 . S
C280 C279 1.387 . S
C280 C283 1.387 . S
H281 C277 0.950 . S
H282 C279 0.950 . S
C283 C274 1.390 . S
C283 H276 0.950 . S
C283 C280 1.387 . S
C284 C285 1.387 . S
C284 H288 0.950 . S
C284 C293 1.390 . S
C285 C284 1.387 . S
C285 C287 1.387 . S
H286 C293 0.950 . S
C287 C285 1.387 . S
C287 C289 1.390 . S
C287 H291 0.950 . S
H288 C284 0.950 . S
C289 C287 1.390 . S
C289 C290 1.387 . S
C289 H292 0.950 1_556 S
C290 C289 1.387 . S
C290 C293 1.387 . S
H291 C287 0.950 . S
H292 C289 0.950 1_554 S
C293 C284 1.390 . S
C293 H286 0.950 . S
C293 C290 1.387 . S
C294 C295 1.387 . S
C294 H298 0.950 . S
C294 C303 1.390 . S
C295 C294 1.387 . S
C295 C297 1.387 . S
H296 C303 0.950 . S
C297 C295 1.387 . S
C297 C299 1.390 . S
C297 H301 0.950 . S
H298 C294 0.950 . S
C299 C297 1.390 . S
C299 C300 1.387 . S
C299 H302 0.950 . S
C300 C299 1.387 . S
C300 C303 1.387 . S
H301 C297 0.950 . S
H302 C299 0.950 . S
C303 C294 1.390 . S
C303 H296 0.950 . S
C303 C300 1.387 . S
C304 C305 1.387 . S
C304 H308 0.950 1_554 S
C304 C313 1.390 . S
C305 C304 1.387 . S
C305 C307 1.387 . S
H306 C313 0.950 1_556 S
C307 C305 1.387 . S
C307 C309 1.390 . S
C307 H311 0.950 . S
H308 C304 0.950 1_556 S
C309 C307 1.390 . S
C309 C310 1.387 . S
C309 H312 0.950 . S
C310 C309 1.387 . S
C310 C313 1.387 . S
H311 C307 0.950 . S
H312 C309 0.950 . S
C313 C304 1.390 . S
C313 H306 0.950 1_554 S
C313 C310 1.387 . S
C314 C315 1.387 . S
C314 H318 0.950 . S
C314 C323 1.390 . S
C315 C314 1.387 . S
C315 C317 1.387 . S
H316 C323 0.950 . S
C317 C315 1.387 . S
C317 C319 1.390 1_556 S
C317 H321 0.950 1_556 S
H318 C314 0.950 . S
C319 C317 1.390 1_554 S
C319 C320 1.387 1_554 S
C319 H322 0.950 . S
C320 C319 1.387 1_556 S
C320 C323 1.387 . S
H321 C317 0.950 1_554 S
H322 C319 0.950 . S
C323 C314 1.390 . S
C323 H316 0.950 . S
C323 C320 1.387 . S
C324 C325 1.387 1_455 S
C324 H328 0.950 . S
C324 C333 1.390 . S
C325 C324 1.387 1_655 S
C325 C327 1.387 . S
H326 C333 0.950 . S
C327 C325 1.387 . S
C327 C329 1.390 . S
C327 H331 0.950 . S
H328 C324 0.950 . S
C329 C327 1.390 . S
C329 C330 1.387 1_655 S
C329 H332 0.950 . S
C330 C329 1.387 1_455 S
C330 C333 1.387 . S
H331 C327 0.950 . S
H332 C329 0.950 . S
C333 C324 1.390 . S
C333 H326 0.950 . S
C333 C330 1.387 . S
C334 C335 1.387 . S
C334 H338 0.950 . S
C334 C343 1.390 . S
C335 C334 1.387 . S
C335 C337 1.387 . S
H336 C343 0.950 . S
C337 C335 1.387 . S
C337 C339 1.390 . S
C337 H341 0.950 . S
H338 C334 0.950 . S
C339 C337 1.390 . S
C339 C340 1.387 . S
C339 H342 0.950 . S
C340 C339 1.387 . S
C340 C343 1.387 . S
H341 C337 0.950 . S
H342 C339 0.950 . S
C343 C334 1.390 . S
C343 H336 0.950 . S
C343 C340 1.387 . S
C344 C345 1.387 . S
C344 H348 0.950 1_565 S
C344 C353 1.390 1_665 S
C345 C344 1.387 . S
C345 C347 1.387 . S
H346 C353 0.961 . S
C347 C345 1.387 . S
C347 C349 1.390 . S
C347 H351 0.950 . S
H348 C344 0.950 1_545 S
C349 C347 1.390 . S
C349 C350 1.387 . S
C349 H352 0.950 . S
C350 C349 1.387 . S
C350 C353 1.376 1_665 S
H351 C347 0.950 . S
H352 C349 0.950 . S
C353 C344 1.390 1_445 S
C353 H346 0.961 . S
C353 C350 1.376 1_445 S
C354 C355 1.387 . S
C354 H358 0.950 . S
C354 C363 1.390 . S
C355 C354 1.387 . S
C355 C357 1.387 . S
H356 C363 0.950 . S
C357 C355 1.387 . S
C357 C359 1.390 . S
C357 H361 0.950 . S
H358 C354 0.950 . S
C359 C357 1.390 . S
C359 C360 1.387 . S
C359 H362 0.950 . S
C360 C359 1.387 . S
C360 C363 1.387 . S
H361 C357 0.950 . S
H362 C359 0.950 . S
C363 C354 1.390 . S
C363 H356 0.950 . S
C363 C360 1.387 . S
C364 C365 1.387 . S
C364 H368 0.950 . S
C364 C373 1.390 . S
C365 C364 1.387 . S
C365 C367 1.387 . S
H366 C373 0.950 . S
C367 C365 1.387 . S
C367 C369 1.390 . S
C367 H371 0.950 . S
H368 C364 0.950 . S
C369 C367 1.390 . S
C369 C370 1.387 . S
C369 H372 0.950 . S
C370 C369 1.387 . S
C370 C373 1.387 . S
H371 C367 0.950 . S
H372 C369 0.950 . S
C373 C364 1.390 . S
C373 H366 0.950 . S
C373 C370 1.387 . S
C374 C375 1.387 . S
C374 H378 0.950 . S
C374 C383 1.390 . S
C375 C374 1.387 . S
C375 C377 1.387 . S
H376 C383 0.950 . S
C377 C375 1.387 . S
C377 C379 1.390 . S
C377 H381 0.950 1_455 S
H378 C374 0.950 . S
C379 C377 1.390 . S
C379 C380 1.387 . S
C379 H382 0.950 . S
C380 C379 1.387 . S
C380 C383 1.387 . S
H381 C377 0.950 1_655 S
H382 C379 0.950 . S
C383 C374 1.390 . S
C383 H376 0.950 . S
C383 C380 1.387 . S
C384 C385 1.387 1_545 S
C384 H388 0.950 . S
C384 C393 1.390 . S
C385 C384 1.387 1_565 S
C385 C387 1.387 . S
H386 C393 0.950 . S
C387 C385 1.387 . S
C387 C389 1.390 . S
C387 H391 0.950 . S
H388 C384 0.950 . S
C389 C387 1.390 . S
C389 C390 1.387 . S
C389 H392 0.950 1_556 S
C390 C389 1.387 . S
C390 C393 1.387 1_565 S
H391 C387 0.950 . S
H392 C389 0.950 1_554 S
C393 C384 1.390 . S
C393 H386 0.950 . S
C393 C390 1.387 1_545 S
C394 C395 1.387 . S
C394 H398 0.950 . S
C394 C403 1.390 . S
C395 C394 1.387 . S
C395 C397 1.387 . S
H396 C403 0.950 . S
C397 C395 1.387 . S
C397 C399 1.390 . S
C397 H401 0.950 . S
H398 C394 0.950 . S
C399 C397 1.390 . S
C399 C400 1.387 . S
C399 H402 0.950 . S
C400 C399 1.387 . S
C400 C403 1.387 . S
H401 C397 0.950 . S
H402 C399 0.950 . S
C403 C394 1.390 . S
C403 H396 0.950 . S
C403 C400 1.387 . S
C404 C405 1.387 . S
C404 H408 0.950 . S
C404 C413 1.390 . S
C405 C404 1.387 . S
C405 C407 1.387 . S
H406 C413 0.950 . S
C407 C405 1.387 . S
C407 C409 1.390 . S
C407 H411 0.950 . S
H408 C404 0.950 . S
C409 C407 1.390 . S
C409 C410 1.387 . S
C409 H412 0.950 1_554 S
C410 C409 1.387 . S
C410 C413 1.387 . S
H411 C407 0.950 . S
H412 C409 0.950 1_556 S
C413 C404 1.390 . S
C413 H406 0.950 . S
C413 C410 1.387 . S
C414 C415 1.387 . S
C414 H418 0.950 . S
C414 C423 1.390 . S
C415 C414 1.387 . S
C415 C417 1.387 . S
H416 C423 0.950 . S
C417 C415 1.387 . S
C417 C419 1.390 . S
C417 H421 0.950 . S
H418 C414 0.950 . S
C419 C417 1.390 . S
C419 C420 1.387 . S
C419 H422 0.950 . S
C420 C419 1.387 . S
C420 C423 1.387 . S
H421 C417 0.950 . S
H422 C419 0.950 . S
C423 C414 1.390 . S
C423 H416 0.950 . S
C423 C420 1.387 . S
C424 C425 1.387 . S
C424 H428 0.950 . S
C424 C433 1.390 . S
C425 C424 1.387 . S
C425 C427 1.387 . S
H426 C433 0.950 . S
C427 C425 1.387 . S
C427 C429 1.390 . S
C427 H431 0.950 1_556 S
H428 C424 0.950 . S
C429 C427 1.390 . S
C429 C430 1.387 . S
C429 H432 0.950 1_556 S
C430 C429 1.387 . S
C430 C433 1.387 . S
H431 C427 0.950 1_554 S
H432 C429 0.950 1_554 S
C433 C424 1.390 . S
C433 H426 0.950 . S
C433 C430 1.387 . S
C434 C435 1.387 . S
C434 H438 0.950 . S
C434 C443 1.390 . S
C435 C434 1.387 . S
C435 C437 1.387 . S
H436 C443 0.950 . S
C437 C435 1.387 . S
C437 C439 1.390 . S
C437 H441 0.950 . S
H438 C434 0.950 . S
C439 C437 1.390 . S
C439 C440 1.387 . S
C439 H442 0.950 . S
C440 C439 1.387 . S
C440 C443 1.387 . S
H441 C437 0.950 . S
H442 C439 0.950 . S
C443 C434 1.390 . S
C443 H436 0.950 . S
C443 C440 1.387 . S
C444 C445 1.387 . S
C444 H448 0.950 . S
C444 C453 1.390 . S
C445 C444 1.387 . S
C445 C447 1.387 . S
H446 C453 0.950 . S
C447 C445 1.387 . S
C447 C449 1.390 . S
C447 H451 0.950 . S
H448 C444 0.950 . S
C449 C447 1.390 . S
C449 C450 1.387 . S
C449 H452 0.950 . S
C450 C449 1.387 . S
C450 C453 1.387 . S
H451 C447 0.950 . S
H452 C449 0.950 . S
C453 C444 1.390 . S
C453 H446 0.950 . S
C453 C450 1.387 . S
C454 C455 1.387 . S
C454 H458 0.950 . S
C454 C463 1.390 . S
C455 C454 1.387 . S
C455 C457 1.387 . S
H456 C463 0.950 . S
C457 C455 1.387 . S
C457 C459 1.390 . S
C457 H461 0.950 . S
H458 C454 0.950 . S
C459 C457 1.390 . S
C459 C460 1.387 . S
C459 H462 0.950 . S
C460 C459 1.387 . S
C460 C463 1.387 . S
H461 C457 0.950 . S
H462 C459 0.950 . S
C463 C454 1.390 . S
C463 H456 0.950 . S
C463 C460 1.387 . S
C225 N1 2.020 . S
C230 C120 2.115 . S
C235 N18 1.357 . S
C240 N140 1.322 . S
C250 C174 1.630 . S
C245 N28 1.631 . S
C255 N40 1.353 . S
C260 N208 1.336 . S
C270 C161 2.513 . S
C265 N5 2.463 . S
C280 N118 1.151 . S
C275 N14 1.188 . S
C290 C195 1.999 . S
C285 N31 1.959 . S
C300 N170 0.860 . S
C295 N41 0.851 . S
C305 N2 1.707 . S
C310 C210 1.730 . S
C320 C144 1.756 . S
C315 N27 1.699 . S
C325 N44 1.455 . S
C330 C105 1.517 . S
C335 N15 1.233 . S
C340 C191 1.245 . S
C350 C131 2.341 1_655 S
C345 N57 2.337 . S
C355 N70 1.059 . S
C360 N148 1.033 . S
C365 N79 1.820 . S
C370 C165 1.880 . S
C375 N93 1.185 . S
C380 N200 1.136 . S
C385 N54 2.207 . S
C390 C150 2.209 1_556 S
C400 N110 1.436 . S
C395 N66 1.491 . S
C410 C204 1.613 . S
C405 N80 1.600 . S
C420 N178 1.039 . S
C415 N96 1.017 . S
C425 N53 1.738 . S
C430 C221 1.769 . S
C440 C135 1.674 . S
C435 N83 1.637 . S
C450 C114 1.516 . S
C445 N92 1.493 . S
C455 N67 1.223 . S
C460 C180 1.242 . S
