# Generated by pormake.
# Topology zzz, (3,6)-cn, num edge types: 1
# Building blocks:
#     Node 0, Type 0, BuildingBlock: CUQRIR_clean_linker_1, # of connection points: 3
#     Node 1, Type 0, BuildingBlock: CUQRIR_clean_linker_1, # of connection points: 3
#     Node 2, Type 0, BuildingBlock: CUQRIR_clean_linker_1, # of connection points: 3
#     Node 3, Type 0, BuildingBlock: CUQRIR_clean_linker_1, # of connection points: 3
#     Node 4, Type 0, BuildingBlock: CUQRIR_clean_linker_1, # of connection points: 3
#     Node 5, Type 0, BuildingBlock: CUQRIR_clean_linker_1, # of connection points: 3
#     Node 6, Type 0, BuildingBlock: CUQRIR_clean_linker_1, # of connection points: 3
#     Node 7, Type 0, BuildingBlock: CUQRIR_clean_linker_1, # of connection points: 3
#     Node 8, Type 1, BuildingBlock: FUNLAD_clean_sbu_0, # of connection points: 6
#     Node 9, Type 1, BuildingBlock: FUNLAD_clean_sbu_0, # of connection points: 6
#     Node 10, Type 1, BuildingBlock: FUNLAD_clean_sbu_0, # of connection points: 6
#     Node 11, Type 1, BuildingBlock: FUNLAD_clean_sbu_0, # of connection points: 6
#     Edge 12, Type (0, 1), BuildingBlock: AJUNOK_clean_linker_0, # of connection points: 2
#     Edge 13, Type (0, 1), BuildingBlock: AJUNOK_clean_linker_0, # of connection points: 2
#     Edge 14, Type (0, 1), BuildingBlock: AJUNOK_clean_linker_0, # of connection points: 2
#     Edge 15, Type (0, 1), BuildingBlock: AJUNOK_clean_linker_0, # of connection points: 2
#     Edge 16, Type (0, 1), BuildingBlock: AJUNOK_clean_linker_0, # of connection points: 2
#     Edge 17, Type (0, 1), BuildingBlock: AJUNOK_clean_linker_0, # of connection points: 2
#     Edge 18, Type (0, 1), BuildingBlock: AJUNOK_clean_linker_0, # of connection points: 2
#     Edge 19, Type (0, 1), BuildingBlock: AJUNOK_clean_linker_0, # of connection points: 2
#     Edge 20, Type (0, 1), BuildingBlock: AJUNOK_clean_linker_0, # of connection points: 2
#     Edge 21, Type (0, 1), BuildingBlock: AJUNOK_clean_linker_0, # of connection points: 2
#     Edge 22, Type (0, 1), BuildingBlock: AJUNOK_clean_linker_0, # of connection points: 2
#     Edge 23, Type (0, 1), BuildingBlock: AJUNOK_clean_linker_0, # of connection points: 2
#     Edge 24, Type (0, 1), BuildingBlock: AJUNOK_clean_linker_0, # of connection points: 2
#     Edge 25, Type (0, 1), BuildingBlock: AJUNOK_clean_linker_0, # of connection points: 2
#     Edge 26, Type (0, 1), BuildingBlock: AJUNOK_clean_linker_0, # of connection points: 2
#     Edge 27, Type (0, 1), BuildingBlock: AJUNOK_clean_linker_0, # of connection points: 2
#     Edge 28, Type (0, 1), BuildingBlock: AJUNOK_clean_linker_0, # of connection points: 2
#     Edge 29, Type (0, 1), BuildingBlock: AJUNOK_clean_linker_0, # of connection points: 2
#     Edge 30, Type (0, 1), BuildingBlock: AJUNOK_clean_linker_0, # of connection points: 2
#     Edge 31, Type (0, 1), BuildingBlock: AJUNOK_clean_linker_0, # of connection points: 2
#     Edge 32, Type (0, 1), BuildingBlock: AJUNOK_clean_linker_0, # of connection points: 2
#     Edge 33, Type (0, 1), BuildingBlock: AJUNOK_clean_linker_0, # of connection points: 2
#     Edge 34, Type (0, 1), BuildingBlock: AJUNOK_clean_linker_0, # of connection points: 2
#     Edge 35, Type (0, 1), BuildingBlock: AJUNOK_clean_linker_0, # of connection points: 2
# Relax obj value: 0.127
# Max RMSD: 0.182
# Mean RMSD: 0.102
data_MOF--net-zzz--node1-FUNLAD_clean_sbu_0--node2-CUQRIR_clean_linker_1--edge1-AJUNOK_clean_linker_0
_symmetry_space_group_name_H-M    P1
_symmetry_Int_Tables_number       1
_symmetry_cell_setting            triclinic
loop_
_symmetry_equiv_pos_as_xyz
'x, y, z'
_cell_length_a     34.527939
_cell_length_b     40.951231
_cell_length_c     11.307178
_cell_angle_alpha  82.428014
_cell_angle_beta   81.786517
_cell_angle_gamma 89.391061
loop_
_atom_site_label
_atom_site_type_symbol
_atom_site_fract_x
_atom_site_fract_y
_atom_site_fract_z
_atom_type_partial_charge
C0 C 0.80563 0.4776 0.41812 0.0
N1 N 0.84244 0.4693 0.43922 0.0
N2 N 0.79981 0.47048 0.30789 0.0
C3 C 0.77579 0.49289 0.50346 0.0
C4 C 0.83446 0.45831 0.26219 0.0
N5 N 0.8601 0.45703 0.34257 0.0
C6 C 0.84495 0.4524 0.1323 0.0
H7 H 0.78016 0.48483 0.59823 0.0
H8 H 0.74573 0.48642 0.49002 0.0
H9 H 0.77924 0.52007 0.48537 0.0
H10 H 0.82467 0.46507 0.07393 0.0
H11 H 0.84348 0.42558 0.12731 0.0
H12 H 0.87508 0.46119 0.09544 0.0
C13 C 0.97617 0.77084 0.20921 0.0
N14 N 0.98617 0.80313 0.195 0.0
N15 N 0.99614 0.75584 0.11967 0.0
C16 C 0.94741 0.75397 0.31023 0.0
C17 C 0.01884 0.77991 0.05145 0.0
N18 N 1.0132 0.80854 0.09808 0.0
C19 C 0.0451 0.77577 0.93622 0.0
H20 H 0.96336 0.74419 0.3857 0.0
H21 H 0.93289 0.73299 0.28093 0.0
H22 H 0.9251 0.77158 0.34341 0.0
H23 H 0.05916 0.75127 0.94222 0.0
H24 H 0.0681 0.79522 0.91429 0.0
H25 H 0.02716 0.77751 0.86171 0.0
C26 C 0.77785 0.99737 0.23217 0.0
N27 N 0.73859 0.00226 0.23884 0.0
N28 N 0.79556 0.00275 0.11549 0.0
C29 C 0.79898 0.98712 0.33791 0.0
C30 C 0.76563 0.01146 0.05246 0.0
N31 N 0.73137 0.01132 0.12718 0.0
C32 C 0.76949 0.019 0.91732 0.0
H33 H 0.81783 0.0078 0.35039 0.0
H34 H 0.81837 0.96605 0.31934 0.0
H35 H 0.77836 0.98029 0.422 0.0
H36 H 0.7615 0.99667 0.87998 0.0
H37 H 0.79979 0.02657 0.87736 0.0
H38 H 0.74918 0.03884 0.89048 0.0
C39 C 0.54664 0.70082 0.26724 0.0
N40 N 0.54058 0.66812 0.26806 0.0
N41 N 0.53972 0.71789 0.16095 0.0
C42 C 0.55885 0.71594 0.37019 0.0
C43 C 0.52892 0.69446 0.0979 0.0
N44 N 0.52913 0.66435 0.16312 0.0
C45 C 0.51828 0.70083 0.9724 0.0
H46 H 0.54206 0.70452 0.45656 0.0
H47 H 0.55455 0.74299 0.35944 0.0
H48 H 0.59029 0.71083 0.37406 0.0
H49 H 0.52813 0.7255 0.92609 0.0
H50 H 0.48601 0.69935 0.9778 0.0
H51 H 0.53119 0.68171 0.91796 0.0
C52 C 0.2565 0.51908 0.19747 0.0
N53 N 0.21838 0.52418 0.1831 0.0
N54 N 0.26215 0.52321 0.31128 0.0
C55 C 0.28831 0.51155 0.10004 0.0
C56 C 0.2263 0.53068 0.36524 0.0
N57 N 0.2 0.5318 0.28728 0.0
C58 C 0.21604 0.53305 0.49822 0.0
H59 H 0.29135 0.48447 0.10361 0.0
H60 H 0.31672 0.52185 0.1136 0.0
H61 H 0.28109 0.52163 0.00985 0.0
H62 H 0.21667 0.55933 0.51226 0.0
H63 H 0.23708 0.51936 0.55137 0.0
H64 H 0.18627 0.52308 0.53339 0.0
C65 C 0.08156 0.23828 0.33005 0.0
N66 N 0.07333 0.20575 0.34083 0.0
N67 N 0.07454 0.24897 0.43962 0.0
C68 C 0.09462 0.25968 0.21331 0.0
C69 C 0.06126 0.22199 0.51635 0.0
N70 N 0.06019 0.19594 0.4558 0.0
C71 C 0.04928 0.22126 0.64976 0.0
H72 H 0.11046 0.28183 0.2287 0.0
H73 H 0.06846 0.2678 0.17094 0.0
H74 H 0.11356 0.24566 0.15034 0.0
H75 H 0.03211 0.24353 0.66849 0.0
H76 H 0.07598 0.22154 0.69385 0.0
H77 H 0.03184 0.19885 0.68912 0.0
C78 C 0.29272 0.99734 0.32071 0.0
N79 N 0.33222 0.99539 0.31701 0.0
N80 N 0.27438 0.99405 0.43704 0.0
C81 C 0.27217 0.001 0.21152 0.0
C82 C 0.3045 0.99056 0.50288 0.0
N83 N 0.33916 0.99064 0.43026 0.0
C84 C 0.30075 0.99112 0.637 0.0
H85 H 0.2672 0.02755 0.18404 0.0
H86 H 0.24335 0.9882 0.23196 0.0
H87 H 0.29025 0.99109 0.13523 0.0
H88 H 0.2729 0.00252 0.67199 0.0
H89 H 0.32554 0.00503 0.65944 0.0
H90 H 0.30192 0.96555 0.68305 0.0
C91 C 0.52821 0.29968 0.31845 0.0
N92 N 0.53215 0.33232 0.32477 0.0
N93 N 0.53732 0.28146 0.41986 0.0
C94 C 0.51363 0.28575 0.21649 0.0
C95 C 0.54732 0.30415 0.48707 0.0
N96 N 0.54451 0.33496 0.42918 0.0
C97 C 0.56027 0.2961 0.60901 0.0
H98 H 0.50085 0.26078 0.24645 0.0
H99 H 0.53858 0.28397 0.14404 0.0
H100 H 0.4915 0.30225 0.17848 0.0
H101 H 0.57537 0.27201 0.61632 0.0
H102 H 0.53415 0.29448 0.67923 0.0
H103 H 0.5801 0.31556 0.62617 0.0
C104 C 0.04295 0.94287 0.89618 0.0
N105 N 1.00852 0.96483 0.56126 0.0
C106 C 0.03459 0.94053 0.53854 0.0
C107 C 0.02431 0.91414 0.48384 0.0
C108 C 0.9868 0.91241 0.4511 0.0
C109 C 0.96083 0.93849 0.47027 0.0
C110 C 0.97236 0.96466 0.52626 0.0
Zn111 Zn 0.02282 0.9941 0.68207 0.0
C112 C 0.95549 0.00097 0.87295 0.0
N113 N 0.05639 0.04132 0.96155 0.0
C114 C 0.08727 0.04189 0.02406 0.0
C115 C 0.03048 0.06662 0.95869 0.0
C116 C 0.0362 0.09448 0.01071 0.0
C117 C 0.06741 0.0963 0.07605 0.0
C118 C 0.09288 0.06907 0.08481 0.0
Zn119 Zn 0.04477 0.00975 0.84216 0.0
O120 O 0.03272 0.95057 0.79277 0.0
C121 C 0.11218 0.0015 0.65424 0.0
O122 O 0.05113 0.96553 0.95595 0.0
H123 H 1.00593 0.06641 0.90959 0.0
H124 H 0.06268 0.94031 0.5701 0.0
H125 H 0.10781 0.02176 0.02519 0.0
O126 O 0.08377 0.99594 0.5989 0.0
O127 O 0.1051 0.00761 0.76297 0.0
H128 H 0.95171 0.9838 0.54748 0.0
O129 O 0.03983 0.05274 0.72218 0.0
O130 O 1.01312 0.03838 0.57191 0.0
O131 O 0.98373 0.0102 0.92161 0.0
O132 O 0.96286 0.99253 0.76784 0.0
C133 C 0.02699 0.06047 0.62319 0.0
H134 H 0.04531 0.89467 0.47086 0.0
H135 H 0.93144 0.93794 0.4476 0.0
H136 H 1.01623 0.11474 0.99724 0.0
H137 H 0.11678 0.06863 0.13721 0.0
C138 C 0.48392 0.98778 0.62351 0.0
N139 N 0.53212 0.0757 0.69321 0.0
C140 C 0.53385 0.08428 0.57198 0.0
C141 C 0.53365 0.11737 0.52229 0.0
C142 C 0.53232 0.14217 0.59741 0.0
C143 C 0.5302 0.13265 0.72247 0.0
C144 C 0.5301 0.09914 0.76868 0.0
Zn145 Zn 0.53407 0.02607 0.75622 0.0
C146 C 0.46958 0.00266 0.9522 0.0
N147 N 0.53929 0.9217 0.86576 0.0
C148 C 0.54489 0.89778 0.79213 0.0
C149 C 0.53498 0.91383 0.98786 0.0
C150 C 0.53575 0.88106 0.04041 0.0
C151 C 0.54094 0.85582 0.96715 0.0
C152 C 0.54595 0.86452 0.84124 0.0
Zn153 Zn 0.53698 0.97124 0.80101 0.0
O154 O 0.49553 0.01622 0.63685 0.0
C155 C 0.60143 0.99458 0.60473 0.0
O156 O 0.49776 0.96245 0.68039 0.0
H157 H 0.53091 0.93307 0.04527 0.0
H158 H 0.53556 0.0654 0.51305 0.0
H159 H 0.54837 0.90448 0.69539 0.0
O160 O 0.58418 0.02147 0.62336 0.0
O161 O 0.58733 0.96779 0.66527 0.0
H162 H 0.52879 0.09189 0.86469 0.0
O163 O 0.57562 0.98116 0.9199 0.0
O164 O 0.57297 0.03486 0.87758 0.0
O165 O 0.48704 0.97586 0.9339 0.0
O166 O 0.4835 0.02949 0.89146 0.0
C167 C 0.58694 0.0096 0.93423 0.0
H168 H 0.53426 0.1234 0.42588 0.0
H169 H 0.52923 0.15092 0.78386 0.0
H170 H 0.53262 0.87555 0.13767 0.0
H171 H 0.55005 0.84576 0.78152 0.0
C172 C 0.55444 0.45255 0.65066 0.0
N173 N 0.44892 0.49888 0.73371 0.0
C174 C 0.45465 0.4962 0.6133 0.0
C175 C 0.42363 0.49781 0.54719 0.0
C176 C 0.38599 0.50333 0.60329 0.0
C177 C 0.3802 0.50655 0.72702 0.0
C178 C 0.41236 0.50393 0.79152 0.0
Zn179 Zn 0.50127 0.49913 0.80458 0.0
C180 C 0.51611 0.44616 0.9766 0.0
N181 N 0.61888 0.49899 0.86605 0.0
C182 C 0.6562 0.50095 0.80655 0.0
C183 C 0.61219 0.49487 0.98909 0.0
C184 C 0.64276 0.49271 0.05689 0.0
C185 C 0.68117 0.49421 0.99905 0.0
C186 C 0.68817 0.49844 0.87217 0.0
Zn187 Zn 0.56646 0.4999 0.7945 0.0
O188 O 0.52128 0.46231 0.69589 0.0
C189 C 0.55015 0.55273 0.62093 0.0
O190 O 0.58538 0.46623 0.6705 0.0
H191 H 0.58275 0.49302 0.03677 0.0
H192 H 0.48372 0.49419 0.56535 0.0
H193 H 0.66121 0.5039 0.70906 0.0
O194 O 0.51832 0.53788 0.66545 0.0
O195 O 0.58168 0.54219 0.65903 0.0
H196 H 0.40827 0.50681 0.88622 0.0
O197 O 0.5466 0.5334 0.91488 0.0
O198 O 0.48308 0.53568 0.91877 0.0
O199 O 0.54914 0.45786 0.92562 0.0
O200 O 0.48496 0.46015 0.9482 0.0
C201 C 0.51399 0.54541 0.95353 0.0
H202 H 0.42931 0.49608 0.45142 0.0
H203 H 0.35132 0.51128 0.77265 0.0
H204 H 0.63638 0.4892 0.15441 0.0
H205 H 0.71779 0.49921 0.8249 0.0
C206 C 0.06043 0.52246 0.58604 0.0
N207 N 0.05229 0.42602 0.75232 0.0
C208 C 0.08739 0.42231 0.68349 0.0
C209 C 0.09468 0.39415 0.6266 0.0
C210 C 0.06532 0.37007 0.63982 0.0
C211 C 0.03015 0.37378 0.71558 0.0
C212 C 0.02427 0.40206 0.77185 0.0
Zn213 Zn 0.03804 0.47057 0.80641 0.0
C214 C 0.10232 0.50326 0.88971 0.0
N215 N 1.00831 0.56715 0.88014 0.0
C216 C 0.99593 0.59359 0.80956 0.0
C217 C 1.01472 0.56945 0.99487 0.0
C218 C 1.009 0.59893 0.04268 0.0
C219 C 0.99813 0.62702 0.97068 0.0
C220 C 0.99073 0.62406 0.85331 0.0
Zn221 Zn 0.02158 0.52247 0.82264 0.0
O222 O 0.06008 0.49262 0.63373 0.0
C223 C 0.95739 0.4901 0.73782 0.0
O224 O 0.04582 0.54432 0.64871 0.0
H225 H 0.02533 0.54857 0.04947 0.0
H226 H 0.10909 0.44182 0.66832 0.0
H227 H 0.99115 0.5913 0.71853 0.0
O228 O 0.98204 0.46702 0.74986 0.0
O229 O 0.96582 0.51845 0.76219 0.0
H230 H 0.99668 0.4055 0.82719 0.0
O231 O 0.99759 0.49939 0.99491 0.0
O232 O 1.01538 0.44848 0.97968 0.0
O233 O 0.07731 0.5261 0.88046 0.0
O234 O 0.09409 0.47512 0.86348 0.0
C235 C 0.9986 0.46952 0.04179 0.0
H236 H 0.12221 0.39185 0.56903 0.0
H237 H 1.00718 0.35528 0.72913 0.0
H238 H 1.01395 0.59985 0.13465 0.0
H239 H 0.98228 0.64524 0.79488 0.0
C240 C 0.2085 0.01987 0.44327 0.0
C241 C 0.23285 0.99413 0.48311 0.0
C242 C 0.16913 0.02178 0.49673 0.0
C243 C 0.15315 0.99871 0.59475 0.0
H244 H 0.2202 0.03906 0.37239 0.0
H245 H 0.15141 0.04179 0.46265 0.0
S246 S 0.20256 0.92422 0.72158 0.0
N247 N 0.23605 0.94268 0.61555 0.0
N248 N 0.16346 0.94782 0.72167 0.0
C249 C 0.17669 0.97236 0.63248 0.0
C250 C 0.21615 0.96972 0.5754 0.0
C251 C 0.5078 0.23363 0.55703 0.0
C252 C 0.53414 0.24639 0.45544 0.0
C253 C 0.50709 0.19993 0.60136 0.0
C254 C 0.53291 0.17773 0.54601 0.0
H255 H 0.488 0.25003 0.60331 0.0
H256 H 0.48621 0.19123 0.67982 0.0
S257 S 0.6086 0.1997 0.27932 0.0
N258 N 0.58685 0.23494 0.30154 0.0
N259 N 0.58636 0.17162 0.3848 0.0
C260 C 0.55927 0.19039 0.4434 0.0
C261 C 0.5597 0.2247 0.39819 0.0
C262 C 0.30892 0.54434 0.42824 0.0
C263 C 0.29663 0.51882 0.36966 0.0
C264 C 0.33704 0.5389 0.50667 0.0
C265 C 0.35405 0.50779 0.52836 0.0
H266 H 0.29559 0.56838 0.41605 0.0
H267 H 0.34574 0.55918 0.54998 0.0
S268 S 0.33225 0.43298 0.39674 0.0
N269 N 0.30335 0.4614 0.33951 0.0
N270 N 0.35744 0.45137 0.48326 0.0
C271 C 0.3428 0.48231 0.46798 0.0
C272 C 0.31382 0.48779 0.3893 0.0
C273 C 0.10367 0.28942 0.54323 0.0
C274 C 0.07646 0.28173 0.46976 0.0
C275 C 0.10114 0.31899 0.59365 0.0
C276 C 0.0708 0.34128 0.5736 0.0
H277 H 0.12596 0.27178 0.5655 0.0
H278 H 0.12178 0.3237 0.65326 0.0
S279 S 0.99388 0.33301 0.38179 0.0
N280 N 0.01981 0.29901 0.37425 0.0
N281 N 1.01464 0.35469 0.46936 0.0
C282 C 0.04442 0.33437 0.49623 0.0
C283 C 0.04735 0.3045 0.44407 0.0
C284 C 0.86519 0.02025 0.09074 0.0
C285 C 0.83629 0.9992 0.0662 0.0
C286 C 0.90377 0.0203 0.02943 0.0
C287 C 0.91476 0.99968 0.93967 0.0
H288 H 0.85752 0.03757 0.15467 0.0
H289 H 0.92486 0.03735 0.04998 0.0
S290 S 0.85073 0.93735 0.85258 0.0
N291 N 0.82207 0.95508 0.95509 0.0
N292 N 0.89384 0.95574 0.83743 0.0
C293 C 0.8863 0.97773 0.91772 0.0
C294 C 0.84734 0.97733 0.98161 0.0
C295 C 0.57159 0.76621 0.03172 0.0
C296 C 0.54182 0.75286 0.12263 0.0
C297 C 0.57122 0.79952 0.98205 0.0
C298 C 0.54113 0.82067 0.0222 0.0
H299 H 0.5947 0.75047 0.997 0.0
H300 H 0.59461 0.80878 0.91161 0.0
S301 S 0.45595 0.79689 0.25695 0.0
N302 N 0.48143 0.76266 0.24974 0.0
N303 N 0.48046 0.8253 0.1579 0.0
C304 C 0.51144 0.80748 0.11443 0.0
C305 C 0.51186 0.77357 0.16426 0.0
C306 C 0.75598 0.50869 0.20328 0.0
C307 C 0.76658 0.47638 0.24444 0.0
C308 C 0.72911 0.5146 0.12023 0.0
C309 C 0.71275 0.48836 0.07462 0.0
H310 H 0.76949 0.52938 0.23259 0.0
H311 H 0.7211 0.53973 0.0914 0.0
S312 S 0.72999 0.39947 0.15837 0.0
N313 N 0.75764 0.4181 0.23736 0.0
N314 N 0.70775 0.42911 0.08047 0.0
C315 C 0.72261 0.45607 0.11711 0.0
C316 C 0.74937 0.45011 0.20225 0.0
C317 C 0.96372 0.7118 0.04143 0.0
C318 C 0.9941 0.72229 0.09799 0.0
C319 C 0.96485 0.68072 1.00149 0.0
C320 C 0.99655 0.65939 0.01661 0.0
H321 H 0.9397 0.72818 0.02485 0.0
H322 H 0.941 0.67348 0.95758 0.0
S323 S 0.08366 0.67673 0.15783 0.0
N324 N 0.05615 0.70974 0.16831 0.0
N325 N 0.05948 0.65178 0.09043 0.0
C326 C 0.0269 0.66981 0.07458 0.0
C327 C 0.02534 0.70117 0.11607 0.0
C328 C 1.01244 0.15051 0.52019 0.0
C329 C 0.05114 0.1624 0.50412 0.0
C330 C 1.00429 0.11665 0.55066 0.0
C331 C 0.03482 0.09423 0.56523 0.0
H332 H 0.98868 0.16748 0.50744 0.0
H333 H 0.97417 0.10814 0.56666 0.0
S334 S 0.14075 0.11382 0.53158 0.0
N335 N 0.1197 0.14981 0.50268 0.0
N336 N 0.10482 0.08635 0.56205 0.0
C337 C 0.07349 0.10614 0.54855 0.0
C338 C 0.08157 0.14025 0.51756 0.0
C339 C 0.4033 0.01477 0.43971 0.0
C340 C 0.37728 0.98796 0.46737 0.0
C341 C 0.43921 0.01355 0.48383 0.0
C342 C 0.45031 0.98539 0.55703 0.0
H343 H 0.39507 0.03721 0.38756 0.0
H344 H 0.45767 0.03538 0.46445 0.0
S345 S 0.39338 0.90735 0.64229 0.0
N346 N 0.36567 0.93166 0.56162 0.0
N347 N 0.43317 0.92902 0.64617 0.0
C348 C 0.42526 0.95767 0.57897 0.0
C349 C 0.38863 0.9591 0.53414 0.0
C350 C 0.52282 0.37014 0.58371 0.0
C351 C 0.54815 0.36495 0.47992 0.0
C352 C 0.52599 0.3984 0.6381 0.0
C353 C 0.55488 0.42254 0.59141 0.0
H354 H 0.50021 0.35216 0.62243 0.0
H355 H 0.50552 0.4013 0.7181 0.0
S356 S 0.62852 0.42022 0.32041 0.0
N357 N 0.60313 0.38566 0.3314 0.0
N358 N 0.60939 0.43937 0.43475 0.0
C359 C 0.58078 0.41755 0.48791 0.0
C360 C 0.57722 0.38864 0.43149 0.0
C361 C 0.1434 0.56208 0.37271 0.0
C362 C 0.15846 0.53447 0.32029 0.0
C363 C 0.10717 0.56031 0.4471 0.0
C364 C 0.08517 0.53091 0.46892 0.0
H365 H 0.16176 0.58365 0.36744 0.0
H366 H 0.09893 0.5804 0.49877 0.0
S367 S 0.1069 0.45539 0.32442 0.0
N368 N 0.14583 0.47922 0.2789 0.0
N369 N 0.07596 0.47713 0.40715 0.0
C370 C 0.09678 0.50557 0.399 0.0
C371 C 0.1342 0.50687 0.32786 0.0
C372 C 1.01587 0.85288 0.93092 0.0
C373 C 0.02745 0.84039 0.04133 0.0
C374 C 0.02264 0.88574 0.88353 0.0
C375 C 0.04106 0.90756 0.94537 0.0
H376 H 0.99943 0.83754 0.88448 0.0
H377 H 1.01158 0.89426 0.79996 0.0
S378 S 0.08324 0.88466 0.22788 0.0
N379 N 0.06289 0.85024 0.20382 0.0
N380 N 0.07505 0.91297 0.11605 0.0
C381 C 0.05506 0.89475 0.05251 0.0
C382 C 0.04847 0.86088 0.1001 0.0
C383 C 0.6715 0.9833 0.10176 0.0
C384 C 0.69305 0.01251 0.09175 0.0
C385 C 0.63568 0.98312 0.05802 0.0
C386 C 0.62027 0.01223 1.00186 0.0
H387 H 0.68325 0.96028 0.1398 0.0
H388 H 0.6209 0.95964 0.06363 0.0
S389 S 0.66389 0.09598 0.97064 0.0
N390 N 0.69539 0.07167 0.03582 0.0
N391 N 0.62804 0.07176 0.95074 0.0
C392 C 0.64063 0.04205 0.99869 0.0
C393 C 0.67714 0.04208 0.04406 0.0
C394 C 0.48851 0.62569 0.0805 0.0
C395 C 0.52367 0.63328 0.12084 0.0
C396 C 0.48412 0.59606 0.03308 0.0
C397 C 0.51472 0.57311 0.02578 0.0
H398 H 0.46465 0.64305 0.08379 0.0
H399 H 0.45737 0.59179 0.99753 0.0
S400 S 0.61155 0.5811 0.1289 0.0
N401 N 0.58894 0.61581 0.15239 0.0
N402 N 0.58013 0.55925 0.0742 0.0
C403 C 0.54912 0.57995 0.07289 0.0
C404 C 0.5538 0.6103 0.11731 0.0
C405 C 0.92514 0.48223 0.30215 0.0
C406 C 0.90168 0.45402 0.31184 0.0
C407 C 0.96112 0.48483 0.22803 0.0
C408 C 0.97384 0.45978 0.15793 0.0
H409 H 0.91362 0.50394 0.33928 0.0
H410 H 0.9764 0.50832 0.21353 0.0
S411 S 0.92787 0.37744 0.18027 0.0
N412 N 0.89769 0.39758 0.2715 0.0
N413 N 0.96473 0.40296 0.12499 0.0
C414 C 0.95374 0.42944 0.18226 0.0
C415 C 0.91749 0.42654 0.26087 0.0
C416 C 0.03827 0.17145 0.23198 0.0
C417 C 0.07391 0.18456 0.2492 0.0
C418 C 0.03682 0.14263 0.17963 0.0
C419 C 0.07119 0.12646 0.13545 0.0
H420 H 1.01111 0.18215 0.2689 0.0
H421 H 1.00812 0.13248 0.1779 0.0
S422 S 0.17259 0.15335 0.15076 0.0
N423 N 0.14453 0.18038 0.21799 0.0
N424 N 0.14255 0.12782 0.1063 0.0
C425 C 0.1074 0.14057 0.14644 0.0
C426 C 0.10861 0.16943 0.20496 0.0
C427 C 0.38646 0.96941 0.19776 0.0
C428 C 0.3626 0.9969 0.21389 0.0
C429 C 0.42058 0.97162 0.11282 0.0
C430 C 0.43275 0.00163 0.04097 0.0
H431 H 0.37917 0.94621 0.25421 0.0
H432 H 0.43796 0.94961 0.10537 0.0
S433 S 0.37994 0.08101 0.05009 0.0
N434 N 0.35295 0.05493 0.15221 0.0
N435 N 0.41701 0.05951 0.99205 0.0
C436 C 0.40862 0.02929 0.05548 0.0
C437 C 0.37361 0.02682 0.14179 0.0
C438 C 0.54882 0.36402 0.1238 0.0
C439 C 0.52488 0.35946 0.23575 0.0
C440 C 0.5446 0.39167 0.03946 0.0
C441 C 0.51582 0.41558 0.06306 0.0
H442 H 0.5718 0.34658 0.10325 0.0
H443 H 0.56453 0.39463 0.95548 0.0
S444 S 0.44467 0.41403 0.34201 0.0
N445 N 0.47054 0.38018 0.36519 0.0
N446 N 0.46235 0.43227 0.20604 0.0
C447 C 0.49076 0.41069 0.17331 0.0
C448 C 0.49542 0.38262 0.25997 0.0
C449 C 0.17494 0.54651 0.03934 0.0
C450 C 0.19894 0.52085 0.08029 0.0
C451 C 0.14555 0.54098 0.97063 0.0
C452 C 0.13879 0.5094 0.94032 0.0
H453 H 0.17699 0.57046 0.06889 0.0
H454 H 0.12648 0.56129 0.94762 0.0
S455 S 0.1977 0.43491 0.01179 0.0
N456 N 0.21726 0.46369 0.07481 0.0
N457 N 0.16214 0.453 0.94475 0.0
C458 C 0.16513 0.48421 0.9711 0.0
C459 C 0.19534 0.49005 0.04073 0.0
C460 C 0.98605 0.8241 0.38781 0.0
C461 C 0.97378 0.82724 0.27407 0.0
C462 C 0.98682 0.85144 0.44982 0.0
C463 C 0.97584 0.88292 0.39915 0.0
H464 H 0.99839 0.80113 0.4238 0.0
H465 H 0.99868 0.84836 0.53426 0.0
S466 S 0.93383 0.90201 0.114 0.0
N467 N 0.94339 0.86219 0.12345 0.0
N468 N 0.94704 0.91433 0.23586 0.0
C469 C 0.95955 0.88549 0.29128 0.0
C470 C 0.95795 0.85737 0.22974 0.0
C471 C 0.68723 0.02802 0.36921 0.0
C472 C 0.70853 -0.00017 0.34309 0.0
C473 C 0.65311 0.02594 0.4541 0.0
C474 C 0.63834 0.99541 0.51613 0.0
H475 H 0.69651 0.05184 0.32041 0.0
H476 H 0.63784 0.04858 0.46938 0.0
S477 S 0.68339 0.91396 0.47733 0.0
N478 N 0.71262 0.94045 0.38371 0.0
N479 N 0.64866 0.93611 0.54424 0.0
C480 C 0.65983 0.96694 0.4915 0.0
C481 C 0.6948 0.96923 0.40489 0.0
C482 C 0.57769 0.63314 0.41013 0.0
C483 C 0.54229 0.64177 0.36598 0.0
C484 C 0.58059 0.60416 0.49138 0.0
C485 C 0.5481 0.58295 0.53154 0.0
H486 H 0.60359 0.64818 0.37776 0.0
H487 H 0.60844 0.59828 0.52222 0.0
S488 S 0.44811 0.5965 0.44595 0.0
N489 N 0.474 0.62838 0.37263 0.0
N490 N 0.47874 0.57409 0.52139 0.0
C491 C 0.5123 0.59217 0.48918 0.0
C492 C 0.50956 0.62154 0.40792 0.0
C493 C 0.87032 0.50564 0.56482 0.0
C494 C 0.86176 0.47383 0.54114 0.0
C495 C 0.89962 0.51076 0.63567 0.0
C496 C 0.9212 0.48419 0.68517 0.0
H497 H 0.85676 0.5268 0.51979 0.0
H498 H 0.90712 0.53583 0.64484 0.0
S499 S 0.90441 0.39568 0.66499 0.0
N500 N 0.87319 0.41542 0.58386 0.0
N501 N 0.92744 0.42444 0.71822 0.0
C502 C 0.91003 0.45207 0.67074 0.0
C503 C 0.88047 0.44706 0.59866 0.0
loop_
_geom_bond_atom_site_label_1
_geom_bond_atom_site_label_2
_geom_bond_distance
_geom_bond_site_symmetry_2
_ccdc_geom_bond_type
C0 N1 1.317 . S
C0 N2 1.348 . S
C0 C3 1.485 . S
N1 C0 1.317 . S
N1 N5 1.370 . S
N2 C0 1.348 . S
N2 C4 1.346 . S
C3 C0 1.485 . S
C3 H7 0.960 . S
C3 H8 0.961 . S
C3 H9 0.960 . S
C4 N2 1.346 . S
C4 N5 1.307 . S
C4 C6 1.486 1_554 S
N5 N1 1.370 . S
N5 C4 1.307 . S
C6 C4 1.486 1_556 S
C6 H10 0.960 . S
C6 H11 0.960 . S
C6 H12 0.959 . S
H7 C3 0.960 . S
H8 C3 0.961 . S
H9 C3 0.960 . S
H10 C6 0.960 . S
H11 C6 0.960 . S
H12 C6 0.959 . S
C13 N14 1.317 . S
C13 N15 1.348 1_554 S
C13 C16 1.485 . S
N14 C13 1.317 . S
N14 N18 1.370 1_554 S
N15 C13 1.348 1_556 S
N15 C17 1.346 . S
C16 C13 1.485 . S
C16 H20 0.960 . S
C16 H21 0.961 . S
C16 H22 0.960 . S
C17 N15 1.346 . S
C17 N18 1.307 . S
C17 C19 1.486 . S
N18 N14 1.370 1_556 S
N18 C17 1.307 . S
C19 C17 1.486 . S
C19 H23 0.960 . S
C19 H24 0.960 . S
C19 H25 0.959 . S
H20 C16 0.960 . S
H21 C16 0.961 . S
H22 C16 0.960 . S
H23 C19 0.960 . S
H24 C19 0.960 . S
H25 C19 0.959 . S
C26 N27 1.317 . S
C26 N28 1.348 . S
C26 C29 1.485 . S
N27 C26 1.317 . S
N27 N31 1.369 . S
N28 C26 1.348 . S
N28 C30 1.346 1_565 S
C29 C26 1.485 . S
C29 H33 0.960 1_565 S
C29 H34 0.961 . S
C29 H35 0.960 . S
C30 N28 1.346 1_545 S
C30 N31 1.308 1_545 S
C30 C32 1.486 1_554 S
N31 N27 1.369 . S
N31 C30 1.308 1_565 S
C32 C30 1.486 1_556 S
C32 H36 0.960 1_545 S
C32 H37 0.960 . S
C32 H38 0.959 . S
H33 C29 0.960 1_545 S
H34 C29 0.961 . S
H35 C29 0.960 . S
H36 C32 0.960 1_565 S
H37 C32 0.960 . S
H38 C32 0.959 . S
C39 N40 1.317 . S
C39 N41 1.348 . S
C39 C42 1.485 . S
N40 C39 1.317 . S
N40 N44 1.370 . S
N41 C39 1.348 . S
N41 C43 1.346 . S
C42 C39 1.485 . S
C42 H46 0.960 . S
C42 H47 0.961 . S
C42 H48 0.960 . S
C43 N41 1.346 . S
C43 N44 1.307 . S
C43 C45 1.486 1_554 S
N44 N40 1.370 . S
N44 C43 1.307 . S
C45 C43 1.486 1_556 S
C45 H49 0.960 . S
C45 H50 0.960 . S
C45 H51 0.959 . S
H46 C42 0.960 . S
H47 C42 0.961 . S
H48 C42 0.960 . S
H49 C45 0.960 . S
H50 C45 0.960 . S
H51 C45 0.959 . S
C52 N53 1.317 . S
C52 N54 1.348 . S
C52 C55 1.485 . S
N53 C52 1.317 . S
N53 N57 1.370 . S
N54 C52 1.348 . S
N54 C56 1.346 . S
C55 C52 1.485 . S
C55 H59 0.960 . S
C55 H60 0.961 . S
C55 H61 0.960 . S
C56 N54 1.346 . S
C56 N57 1.307 . S
C56 C58 1.486 . S
N57 N53 1.370 . S
N57 C56 1.307 . S
C58 C56 1.486 . S
C58 H62 0.960 . S
C58 H63 0.960 . S
C58 H64 0.959 . S
H59 C55 0.960 . S
H60 C55 0.961 . S
H61 C55 0.960 . S
H62 C58 0.960 . S
H63 C58 0.960 . S
H64 C58 0.959 . S
C65 N66 1.317 . S
C65 N67 1.348 . S
C65 C68 1.485 . S
N66 C65 1.317 . S
N66 N70 1.370 . S
N67 C65 1.348 . S
N67 C69 1.346 . S
C68 C65 1.485 . S
C68 H72 0.960 . S
C68 H73 0.961 . S
C68 H74 0.960 . S
C69 N67 1.346 . S
C69 N70 1.307 . S
C69 C71 1.486 . S
N70 N66 1.370 . S
N70 C69 1.307 . S
C71 C69 1.486 . S
C71 H75 0.960 . S
C71 H76 0.960 . S
C71 H77 0.959 . S
H72 C68 0.960 . S
H73 C68 0.961 . S
H74 C68 0.960 . S
H75 C71 0.960 . S
H76 C71 0.960 . S
H77 C71 0.959 . S
C78 N79 1.317 . S
C78 N80 1.353 . S
C78 C81 1.485 . S
N79 C78 1.317 . S
N79 N83 1.371 . S
N80 C78 1.353 . S
N80 C82 1.342 1_565 S
C81 C78 1.485 . S
C81 H85 0.960 1_565 S
C81 H86 0.961 . S
C81 H87 0.960 . S
C82 N80 1.342 1_545 S
C82 N83 1.306 1_545 S
C82 C84 1.488 . S
N83 N79 1.371 . S
N83 C82 1.306 1_565 S
C84 C82 1.488 . S
C84 H88 0.960 1_545 S
C84 H89 0.960 . S
C84 H90 0.959 . S
H85 C81 0.960 1_545 S
H86 C81 0.961 . S
H87 C81 0.960 . S
H88 C84 0.960 1_565 S
H89 C84 0.960 . S
H90 C84 0.959 . S
C91 N92 1.317 . S
C91 N93 1.348 . S
C91 C94 1.485 . S
N92 C91 1.317 . S
N92 N96 1.370 . S
N93 C91 1.348 . S
N93 C95 1.346 . S
C94 C91 1.485 . S
C94 H98 0.960 . S
C94 H99 0.961 . S
C94 H100 0.960 . S
C95 N93 1.346 . S
C95 N96 1.307 . S
C95 C97 1.486 . S
N96 N92 1.370 . S
N96 C95 1.307 . S
C97 C95 1.486 . S
C97 H101 0.960 . S
C97 H102 0.960 . S
C97 H103 0.959 . S
H98 C94 0.960 . S
H99 C94 0.961 . S
H100 C94 0.960 . S
H101 C97 0.960 . S
H102 C97 0.960 . S
H103 C97 0.959 . S
C104 O120 1.251 . S
C104 O122 1.254 . S
N105 C106 1.333 1_655 S
N105 C110 1.307 . S
N105 Zn111 2.020 1_655 S
C106 N105 1.333 1_455 S
C106 C107 1.379 . S
C106 H124 0.952 . S
C107 C106 1.379 . S
C107 C108 1.390 1_455 S
C107 H134 0.949 . S
C108 C107 1.390 1_655 S
C108 C109 1.357 . S
C109 C108 1.357 . S
C109 C110 1.370 . S
C109 H135 0.950 . S
C110 N105 1.307 . S
C110 C109 1.370 . S
C110 H128 0.948 1_565 S
Zn111 N105 2.020 1_455 S
Zn111 O120 2.039 . S
Zn111 O126 2.034 . S
Zn111 O130 2.025 1_565 S
Zn111 O132 2.024 1_455 S
C112 O131 1.246 . S
C112 O132 1.249 1_545 S
N113 C114 1.307 . S
N113 C115 1.333 . S
N113 Zn119 2.020 1_554 S
C114 N113 1.307 . S
C114 C118 1.370 . S
C114 H125 0.948 1_545 S
C115 N113 1.333 . S
C115 C116 1.379 . S
C115 H123 0.952 1_554 S
C116 C115 1.379 . S
C116 C117 1.390 . S
C116 H136 0.949 . S
C117 C116 1.390 . S
C117 C118 1.357 . S
C118 C114 1.370 . S
C118 C117 1.357 . S
C118 H137 0.950 . S
Zn119 N113 2.020 1_556 S
Zn119 O122 2.025 1_545 S
Zn119 O127 2.024 . S
Zn119 O129 2.039 . S
Zn119 O131 2.034 1_455 S
O120 C104 1.251 . S
O120 Zn111 2.039 . S
C121 O126 1.246 . S
C121 O127 1.249 1_565 S
O122 C104 1.254 . S
O122 Zn119 2.025 1_565 S
H123 C115 0.952 1_556 S
H124 C106 0.952 . S
H125 C114 0.948 1_565 S
O126 Zn111 2.034 . S
O126 C121 1.246 . S
O127 Zn119 2.024 . S
O127 C121 1.249 1_545 S
H128 C110 0.948 1_545 S
O129 Zn119 2.039 . S
O129 C133 1.251 . S
O130 Zn111 2.025 1_545 S
O130 C133 1.254 . S
O131 C112 1.246 . S
O131 Zn119 2.034 1_655 S
O132 Zn111 2.024 1_655 S
O132 C112 1.249 1_565 S
C133 O129 1.251 . S
C133 O130 1.254 . S
H134 C107 0.949 . S
H135 C109 0.950 . S
H136 C116 0.949 . S
H137 C118 0.950 . S
C138 O154 1.251 1_565 S
C138 O156 1.254 . S
N139 C140 1.333 . S
N139 C144 1.307 . S
N139 Zn145 2.020 . S
C140 N139 1.333 . S
C140 C141 1.379 . S
C140 H158 0.952 . S
C141 C140 1.379 . S
C141 C142 1.390 . S
C141 H168 0.949 . S
C142 C141 1.390 . S
C142 C143 1.357 . S
C143 C142 1.357 . S
C143 C144 1.370 . S
C143 H169 0.950 . S
C144 N139 1.307 . S
C144 C143 1.370 . S
C144 H162 0.948 . S
Zn145 N139 2.020 . S
Zn145 O154 2.039 . S
Zn145 O160 2.034 . S
Zn145 O164 2.025 . S
Zn145 O166 2.024 . S
C146 O165 1.246 1_545 S
C146 O166 1.249 . S
N147 C148 1.307 . S
N147 C149 1.333 . S
N147 Zn153 2.020 . S
C148 N147 1.307 . S
C148 C152 1.370 . S
C148 H159 0.948 . S
C149 N147 1.333 . S
C149 C150 1.379 . S
C149 H157 0.952 . S
C150 C149 1.379 . S
C150 C151 1.390 . S
C150 H170 0.949 1_556 S
C151 C150 1.390 . S
C151 C152 1.357 . S
C152 C148 1.370 . S
C152 C151 1.357 . S
C152 H171 0.950 . S
Zn153 N147 2.020 . S
Zn153 O156 2.025 . S
Zn153 O161 2.024 . S
Zn153 O163 2.039 . S
Zn153 O165 2.034 . S
O154 C138 1.251 1_545 S
O154 Zn145 2.039 . S
C155 O160 1.246 1_565 S
C155 O161 1.249 . S
O156 C138 1.254 . S
O156 Zn153 2.025 . S
H157 C149 0.952 . S
H158 C140 0.952 . S
H159 C148 0.948 . S
O160 Zn145 2.034 . S
O160 C155 1.246 1_545 S
O161 Zn153 2.024 . S
O161 C155 1.249 . S
H162 C144 0.948 . S
O163 Zn153 2.039 . S
O163 C167 1.251 1_565 S
O164 Zn145 2.025 . S
O164 C167 1.254 . S
O165 C146 1.246 1_565 S
O165 Zn153 2.034 . S
O166 Zn145 2.024 . S
O166 C146 1.249 . S
C167 O163 1.251 1_545 S
C167 O164 1.254 . S
H168 C141 0.949 . S
H169 C143 0.950 . S
H170 C150 0.949 1_554 S
H171 C152 0.950 . S
C172 O188 1.251 . S
C172 O190 1.254 . S
N173 C174 1.333 . S
N173 C178 1.307 . S
N173 Zn179 2.020 . S
C174 N173 1.333 . S
C174 C175 1.379 . S
C174 H192 0.952 . S
C175 C174 1.379 . S
C175 C176 1.390 . S
C175 H202 0.949 . S
C176 C175 1.390 . S
C176 C177 1.357 . S
C177 C176 1.357 . S
C177 C178 1.370 . S
C177 H203 0.950 . S
C178 N173 1.307 . S
C178 C177 1.370 . S
C178 H196 0.948 . S
Zn179 N173 2.020 . S
Zn179 O188 2.039 . S
Zn179 O194 2.034 . S
Zn179 O198 2.025 . S
Zn179 O200 2.024 . S
C180 O199 1.246 . S
C180 O200 1.249 . S
N181 C182 1.307 . S
N181 C183 1.333 . S
N181 Zn187 2.020 . S
C182 N181 1.307 . S
C182 C186 1.370 . S
C182 H193 0.948 . S
C183 N181 1.333 . S
C183 C184 1.379 . S
C183 H191 0.952 . S
C184 C183 1.379 . S
C184 C185 1.390 . S
C184 H204 0.949 1_556 S
C185 C184 1.390 . S
C185 C186 1.357 . S
C186 C182 1.370 . S
C186 C185 1.357 . S
C186 H205 0.950 . S
Zn187 N181 2.020 . S
Zn187 O190 2.025 . S
Zn187 O195 2.024 . S
Zn187 O197 2.039 . S
Zn187 O199 2.034 . S
O188 C172 1.251 . S
O188 Zn179 2.039 . S
C189 O194 1.246 . S
C189 O195 1.249 . S
O190 C172 1.254 . S
O190 Zn187 2.025 . S
H191 C183 0.952 . S
H192 C174 0.952 . S
H193 C182 0.948 . S
O194 Zn179 2.034 . S
O194 C189 1.246 . S
O195 Zn187 2.024 . S
O195 C189 1.249 . S
H196 C178 0.948 . S
O197 Zn187 2.039 . S
O197 C201 1.251 . S
O198 Zn179 2.025 . S
O198 C201 1.254 . S
O199 C180 1.246 . S
O199 Zn187 2.034 . S
O200 Zn179 2.024 . S
O200 C180 1.249 . S
C201 O197 1.251 . S
C201 O198 1.254 . S
H202 C175 0.949 . S
H203 C177 0.950 . S
H204 C184 0.949 1_554 S
H205 C186 0.950 . S
C206 O222 1.251 . S
C206 O224 1.254 . S
N207 C208 1.333 . S
N207 C212 1.307 . S
N207 Zn213 2.020 . S
C208 N207 1.333 . S
C208 C209 1.379 . S
C208 H226 0.952 . S
C209 C208 1.379 . S
C209 C210 1.390 . S
C209 H236 0.949 . S
C210 C209 1.390 . S
C210 C211 1.357 . S
C211 C210 1.357 . S
C211 C212 1.370 . S
C211 H237 0.950 . S
C212 N207 1.307 . S
C212 C211 1.370 . S
C212 H230 0.948 . S
Zn213 N207 2.020 . S
Zn213 O222 2.039 . S
Zn213 O228 2.034 1_455 S
Zn213 O232 2.025 1_455 S
Zn213 O234 2.024 . S
C214 O233 1.246 . S
C214 O234 1.249 . S
N215 C216 1.307 . S
N215 C217 1.333 1_455 S
N215 Zn221 2.020 . S
C216 N215 1.307 . S
C216 C220 1.370 . S
C216 H227 0.948 . S
C217 N215 1.333 1_655 S
C217 C218 1.379 . S
C217 H225 0.952 . S
C218 C217 1.379 . S
C218 C219 1.390 1_655 S
C218 H238 0.949 . S
C219 C218 1.390 1_455 S
C219 C220 1.357 . S
C220 C216 1.370 . S
C220 C219 1.357 . S
C220 H239 0.950 . S
Zn221 N215 2.020 . S
Zn221 O224 2.025 . S
Zn221 O229 2.024 1_455 S
Zn221 O231 2.039 1_455 S
Zn221 O233 2.034 . S
O222 C206 1.251 . S
O222 Zn213 2.039 . S
C223 O228 1.246 . S
C223 O229 1.249 . S
O224 C206 1.254 . S
O224 Zn221 2.025 . S
H225 C217 0.952 . S
H226 C208 0.952 . S
H227 C216 0.948 . S
O228 Zn213 2.034 1_655 S
O228 C223 1.246 . S
O229 Zn221 2.024 1_655 S
O229 C223 1.249 . S
H230 C212 0.948 . S
O231 Zn221 2.039 1_655 S
O231 C235 1.251 . S
O232 Zn213 2.025 1_655 S
O232 C235 1.254 . S
O233 C214 1.246 . S
O233 Zn221 2.034 . S
O234 Zn213 2.024 . S
O234 C214 1.249 . S
C235 O231 1.251 . S
C235 O232 1.254 . S
H236 C209 0.949 . S
H237 C211 0.950 . S
H238 C218 0.949 . S
H239 C220 0.950 . S
C240 C241 1.369 1_545 S
C240 C242 1.419 . S
C240 H244 0.930 . S
C241 C240 1.369 1_565 S
C241 C250 1.429 . S
C242 C240 1.419 . S
C242 C243 1.363 1_545 S
C242 H245 0.929 . S
C243 C242 1.363 1_565 S
C243 C249 1.428 . S
H244 C240 0.930 . S
H245 C242 0.929 . S
S246 N247 1.613 . S
S246 N248 1.610 . S
N247 S246 1.613 . S
N247 C250 1.350 . S
N248 S246 1.610 . S
N248 C249 1.351 . S
C249 C243 1.428 . S
C249 N248 1.351 . S
C249 C250 1.434 . S
C250 C241 1.429 . S
C250 N247 1.350 . S
C250 C249 1.434 . S
C251 C252 1.369 . S
C251 C253 1.419 . S
C251 H255 0.930 . S
C252 C251 1.369 . S
C252 C261 1.429 . S
C253 C251 1.419 . S
C253 C254 1.363 . S
C253 H256 0.929 . S
C254 C253 1.363 . S
C254 C260 1.428 . S
H255 C251 0.930 . S
H256 C253 0.929 . S
S257 N258 1.613 . S
S257 N259 1.610 . S
N258 S257 1.613 . S
N258 C261 1.350 . S
N259 S257 1.610 . S
N259 C260 1.351 . S
C260 C254 1.428 . S
C260 N259 1.351 . S
C260 C261 1.434 . S
C261 C252 1.429 . S
C261 N258 1.350 . S
C261 C260 1.434 . S
C262 C263 1.369 . S
C262 C264 1.419 . S
C262 H266 0.930 . S
C263 C262 1.369 . S
C263 C272 1.429 . S
C264 C262 1.419 . S
C264 C265 1.363 . S
C264 H267 0.929 . S
C265 C264 1.363 . S
C265 C271 1.428 . S
H266 C262 0.930 . S
H267 C264 0.929 . S
S268 N269 1.613 . S
S268 N270 1.610 . S
N269 S268 1.613 . S
N269 C272 1.350 . S
N270 S268 1.610 . S
N270 C271 1.351 . S
C271 C265 1.428 . S
C271 N270 1.351 . S
C271 C272 1.434 . S
C272 C263 1.429 . S
C272 N269 1.350 . S
C272 C271 1.434 . S
C273 C274 1.369 . S
C273 C275 1.419 . S
C273 H277 0.930 . S
C274 C273 1.369 . S
C274 C283 1.429 . S
C275 C273 1.419 . S
C275 C276 1.363 . S
C275 H278 0.929 . S
C276 C275 1.363 . S
C276 C282 1.428 . S
H277 C273 0.930 . S
H278 C275 0.929 . S
S279 N280 1.613 . S
S279 N281 1.610 . S
N280 S279 1.613 . S
N280 C283 1.350 . S
N281 S279 1.610 . S
N281 C282 1.351 . S
C282 C276 1.428 . S
C282 N281 1.351 . S
C282 C283 1.434 . S
C283 C274 1.429 . S
C283 N280 1.350 . S
C283 C282 1.434 . S
C284 C285 1.389 1_556 S
C284 C286 1.422 . S
C284 H288 0.928 1_556 S
C285 C284 1.389 1_554 S
C285 C294 1.407 1_545 S
C286 C284 1.422 . S
C286 C287 1.363 . S
C286 H289 0.929 . S
C287 C286 1.363 . S
C287 C293 1.428 1_545 S
H288 C284 0.928 1_554 S
H289 C286 0.929 . S
S290 N291 1.613 . S
S290 N292 1.610 1_554 S
N291 S290 1.613 . S
N291 C294 1.350 . S
N292 S290 1.610 1_556 S
N292 C293 1.351 . S
C293 C287 1.428 1_565 S
C293 N292 1.351 . S
C293 C294 1.434 1_556 S
C294 C285 1.407 1_565 S
C294 N291 1.350 . S
C294 C293 1.434 1_554 S
C295 C296 1.369 1_556 S
C295 C297 1.419 . S
C295 H299 0.930 . S
C296 C295 1.369 1_554 S
C296 C305 1.429 . S
C297 C295 1.419 . S
C297 C298 1.363 . S
C297 H300 0.929 . S
C298 C297 1.363 . S
C298 C304 1.428 1_556 S
H299 C295 0.930 . S
H300 C297 0.929 . S
S301 N302 1.613 . S
S301 N303 1.610 . S
N302 S301 1.613 . S
N302 C305 1.350 . S
N303 S301 1.610 . S
N303 C304 1.351 . S
C304 C298 1.428 1_554 S
C304 N303 1.351 . S
C304 C305 1.434 . S
C305 C296 1.429 . S
C305 N302 1.350 . S
C305 C304 1.434 . S
C306 C307 1.369 . S
C306 C308 1.423 . S
C306 H310 0.930 . S
C307 C306 1.369 . S
C307 C316 1.429 . S
C308 C306 1.423 . S
C308 C309 1.360 1_554 S
C308 H311 0.927 1_554 S
C309 C308 1.360 1_556 S
C309 C315 1.428 . S
H310 C306 0.930 . S
H311 C308 0.927 1_556 S
S312 N313 1.613 . S
S312 N314 1.610 1_554 S
N313 S312 1.613 . S
N313 C316 1.350 . S
N314 S312 1.610 1_556 S
N314 C315 1.351 . S
C315 C309 1.428 . S
C315 N314 1.351 . S
C315 C316 1.434 1_556 S
C316 C307 1.429 . S
C316 N313 1.350 . S
C316 C315 1.434 1_554 S
C317 C318 1.369 . S
C317 C319 1.419 . S
C317 H321 0.930 . S
C318 C317 1.369 . S
C318 C327 1.429 1_655 S
C319 C317 1.419 . S
C319 C320 1.363 . S
C319 H322 0.929 . S
C320 C319 1.363 . S
C320 C326 1.428 1_655 S
H321 C317 0.930 . S
H322 C319 0.929 . S
S323 N324 1.613 . S
S323 N325 1.610 . S
N324 S323 1.613 . S
N324 C327 1.350 . S
N325 S323 1.610 . S
N325 C326 1.351 . S
C326 C320 1.428 1_455 S
C326 N325 1.351 . S
C326 C327 1.434 . S
C327 C318 1.429 1_455 S
C327 N324 1.350 . S
C327 C326 1.434 . S
C328 C329 1.369 . S
C328 C330 1.419 . S
C328 H332 0.930 . S
C329 C328 1.369 . S
C329 C338 1.429 . S
C330 C328 1.419 . S
C330 C331 1.363 . S
C330 H333 0.929 1_455 S
C331 C330 1.363 . S
C331 C337 1.428 . S
H332 C328 0.930 . S
H333 C330 0.929 1_655 S
S334 N335 1.613 . S
S334 N336 1.610 . S
N335 S334 1.613 . S
N335 C338 1.350 . S
N336 S334 1.610 . S
N336 C337 1.351 . S
C337 C331 1.428 . S
C337 N336 1.351 . S
C337 C338 1.434 . S
C338 C329 1.429 . S
C338 N335 1.350 . S
C338 C337 1.434 . S
C339 C340 1.363 1_545 S
C339 C341 1.419 . S
C339 H343 0.930 . S
C340 C339 1.363 1_565 S
C340 C349 1.435 . S
C341 C339 1.419 . S
C341 C342 1.363 1_545 S
C341 H344 0.929 . S
C342 C341 1.363 1_565 S
C342 C348 1.428 . S
H343 C339 0.930 . S
H344 C341 0.929 . S
S345 N346 1.613 . S
S345 N347 1.610 . S
N346 S345 1.613 . S
N346 C349 1.350 . S
N347 S345 1.610 . S
N347 C348 1.351 . S
C348 C342 1.428 . S
C348 N347 1.351 . S
C348 C349 1.434 . S
C349 C340 1.435 . S
C349 N346 1.350 . S
C349 C348 1.434 . S
C350 C351 1.369 . S
C350 C352 1.419 . S
C350 H354 0.930 . S
C351 C350 1.369 . S
C351 C360 1.429 . S
C352 C350 1.419 . S
C352 C353 1.363 . S
C352 H355 0.929 . S
C353 C352 1.363 . S
C353 C359 1.428 . S
H354 C350 0.930 . S
H355 C352 0.929 . S
S356 N357 1.613 . S
S356 N358 1.610 . S
N357 S356 1.613 . S
N357 C360 1.350 . S
N358 S356 1.610 . S
N358 C359 1.351 . S
C359 C353 1.428 . S
C359 N358 1.351 . S
C359 C360 1.434 . S
C360 C351 1.429 . S
C360 N357 1.350 . S
C360 C359 1.434 . S
C361 C362 1.369 . S
C361 C363 1.419 . S
C361 H365 0.930 . S
C362 C361 1.369 . S
C362 C371 1.429 . S
C363 C361 1.419 . S
C363 C364 1.363 . S
C363 H366 0.929 . S
C364 C363 1.363 . S
C364 C370 1.428 . S
H365 C361 0.930 . S
H366 C363 0.929 . S
S367 N368 1.613 . S
S367 N369 1.610 . S
N368 S367 1.613 . S
N368 C371 1.350 . S
N369 S367 1.610 . S
N369 C370 1.351 . S
C370 C364 1.428 . S
C370 N369 1.351 . S
C370 C371 1.434 . S
C371 C362 1.429 . S
C371 N368 1.350 . S
C371 C370 1.434 . S
C372 C373 1.369 . S
C372 C374 1.419 . S
C372 H376 0.930 . S
C373 C372 1.369 . S
C373 C382 1.429 1_655 S
C374 C372 1.419 . S
C374 C375 1.363 1_655 S
C374 H377 0.929 . S
C375 C374 1.363 1_455 S
C375 C381 1.428 . S
H376 C372 0.930 . S
H377 C374 0.929 . S
S378 N379 1.613 . S
S378 N380 1.610 . S
N379 S378 1.613 . S
N379 C382 1.350 . S
N380 S378 1.610 . S
N380 C381 1.351 . S
C381 C375 1.428 . S
C381 N380 1.351 . S
C381 C382 1.434 . S
C382 C373 1.429 1_455 S
C382 N379 1.350 . S
C382 C381 1.434 . S
C383 C384 1.369 1_565 S
C383 C385 1.419 . S
C383 H387 0.930 . S
C384 C383 1.369 1_545 S
C384 C393 1.429 1_554 S
C385 C383 1.419 . S
C385 C386 1.363 1_564 S
C385 H388 0.929 . S
C386 C385 1.363 1_546 S
C386 C392 1.428 . S
H387 C383 0.930 . S
H388 C385 0.929 . S
S389 N390 1.613 . S
S389 N391 1.610 . S
N390 S389 1.613 . S
N390 C393 1.350 . S
N391 S389 1.610 . S
N391 C392 1.351 . S
C392 C386 1.428 . S
C392 N391 1.351 . S
C392 C393 1.434 . S
C393 C384 1.429 1_556 S
C393 N390 1.350 . S
C393 C392 1.434 . S
C394 C395 1.369 1_556 S
C394 C396 1.419 . S
C394 H398 0.930 . S
C395 C394 1.369 1_554 S
C395 C404 1.429 . S
C396 C394 1.419 . S
C396 C397 1.363 . S
C396 H399 0.929 . S
C397 C396 1.363 . S
C397 C403 1.428 1_556 S
H398 C394 0.930 . S
H399 C396 0.929 . S
S400 N401 1.613 . S
S400 N402 1.610 . S
N401 S400 1.613 . S
N401 C404 1.350 . S
N402 S400 1.610 . S
N402 C403 1.351 . S
C403 C397 1.428 1_554 S
C403 N402 1.351 . S
C403 C404 1.434 . S
C404 C395 1.429 . S
C404 N401 1.350 . S
C404 C403 1.434 . S
C405 C406 1.369 . S
C405 C407 1.419 1_554 S
C405 H409 0.930 . S
C406 C405 1.369 . S
C406 C415 1.429 . S
C407 C405 1.419 1_556 S
C407 C408 1.363 . S
C407 H410 0.929 . S
C408 C407 1.363 . S
C408 C414 1.428 1_556 S
H409 C405 0.930 . S
H410 C407 0.929 . S
S411 N412 1.613 . S
S411 N413 1.610 . S
N412 S411 1.613 . S
N412 C415 1.350 . S
N413 S411 1.610 . S
N413 C414 1.351 . S
C414 C408 1.428 1_554 S
C414 N413 1.351 . S
C414 C415 1.434 . S
C415 C406 1.429 . S
C415 N412 1.350 . S
C415 C414 1.434 . S
C416 C417 1.369 . S
C416 C418 1.419 . S
C416 H420 0.930 . S
C417 C416 1.369 . S
C417 C426 1.429 . S
C418 C416 1.419 . S
C418 C419 1.363 . S
C418 H421 0.929 . S
C419 C418 1.363 . S
C419 C425 1.428 . S
H420 C416 0.930 . S
H421 C418 0.929 . S
S422 N423 1.613 . S
S422 N424 1.610 . S
N423 S422 1.613 . S
N423 C426 1.350 . S
N424 S422 1.610 . S
N424 C425 1.351 . S
C425 C419 1.428 . S
C425 N424 1.351 . S
C425 C426 1.434 . S
C426 C417 1.429 . S
C426 N423 1.350 . S
C426 C425 1.434 . S
C427 C428 1.369 . S
C427 C429 1.419 . S
C427 H431 0.933 . S
C428 C427 1.369 . S
C428 C437 1.429 . S
C429 C427 1.419 . S
C429 C430 1.363 . S
C429 H432 0.929 1_554 S
C430 C429 1.363 . S
C430 C436 1.428 . S
H431 C427 0.933 . S
H432 C429 0.929 1_556 S
S433 N434 1.613 . S
S433 N435 1.610 . S
N434 S433 1.613 . S
N434 C437 1.350 . S
N435 S433 1.610 . S
N435 C436 1.351 . S
C436 C430 1.428 . S
C436 N435 1.351 . S
C436 C437 1.434 . S
C437 C428 1.429 . S
C437 N434 1.350 . S
C437 C436 1.434 . S
C438 C439 1.369 . S
C438 C440 1.419 . S
C438 H442 0.930 . S
C439 C438 1.369 . S
C439 C448 1.429 . S
C440 C438 1.419 . S
C440 C441 1.363 . S
C440 H443 0.929 1_554 S
C441 C440 1.363 . S
C441 C447 1.428 . S
H442 C438 0.930 . S
H443 C440 0.929 1_556 S
S444 N445 1.613 . S
S444 N446 1.610 . S
N445 S444 1.613 . S
N445 C448 1.350 . S
N446 S444 1.610 . S
N446 C447 1.351 . S
C447 C441 1.428 . S
C447 N446 1.351 . S
C447 C448 1.434 . S
C448 C439 1.429 . S
C448 N445 1.350 . S
C448 C447 1.434 . S
C449 C450 1.369 . S
C449 C451 1.419 . S
C449 H453 0.930 . S
C450 C449 1.369 . S
C450 C459 1.429 . S
C451 C449 1.419 . S
C451 C452 1.363 . S
C451 H454 0.929 1_554 S
C452 C451 1.363 . S
C452 C458 1.428 . S
H453 C449 0.930 . S
H454 C451 0.929 1_556 S
S455 N456 1.613 . S
S455 N457 1.610 . S
N456 S455 1.613 . S
N456 C459 1.350 . S
N457 S455 1.610 . S
N457 C458 1.351 . S
C458 C452 1.428 . S
C458 N457 1.351 . S
C458 C459 1.434 . S
C459 C450 1.429 . S
C459 N456 1.350 . S
C459 C458 1.434 . S
C460 C461 1.369 . S
C460 C462 1.419 . S
C460 H464 0.930 . S
C461 C460 1.369 . S
C461 C470 1.429 . S
C462 C460 1.419 . S
C462 C463 1.363 . S
C462 H465 0.929 . S
C463 C462 1.363 . S
C463 C469 1.428 . S
H464 C460 0.930 . S
H465 C462 0.929 . S
S466 N467 1.613 . S
S466 N468 1.610 1_556 S
N467 S466 1.613 . S
N467 C470 1.350 1_556 S
N468 S466 1.610 1_554 S
N468 C469 1.351 . S
C469 C463 1.428 . S
C469 N468 1.351 . S
C469 C470 1.434 . S
C470 C461 1.429 . S
C470 N467 1.350 1_554 S
C470 C469 1.434 . S
C471 C472 1.369 1_545 S
C471 C473 1.419 . S
C471 H475 0.930 . S
C472 C471 1.369 1_565 S
C472 C481 1.429 . S
C473 C471 1.419 . S
C473 C474 1.363 1_545 S
C473 H476 0.929 . S
C474 C473 1.363 1_565 S
C474 C480 1.428 . S
H475 C471 0.930 . S
H476 C473 0.929 . S
S477 N478 1.613 . S
S477 N479 1.610 . S
N478 S477 1.613 . S
N478 C481 1.350 . S
N479 S477 1.610 . S
N479 C480 1.351 . S
C480 C474 1.428 . S
C480 N479 1.351 . S
C480 C481 1.434 . S
C481 C472 1.429 . S
C481 N478 1.350 . S
C481 C480 1.434 . S
C482 C483 1.369 . S
C482 C484 1.419 . S
C482 H486 0.930 . S
C483 C482 1.369 . S
C483 C492 1.429 . S
C484 C482 1.419 . S
C484 C485 1.363 . S
C484 H487 0.929 . S
C485 C484 1.363 . S
C485 C491 1.428 . S
H486 C482 0.930 . S
H487 C484 0.929 . S
S488 N489 1.613 . S
S488 N490 1.610 . S
N489 S488 1.613 . S
N489 C492 1.350 . S
N490 S488 1.610 . S
N490 C491 1.351 . S
C491 C485 1.428 . S
C491 N490 1.351 . S
C491 C492 1.434 . S
C492 C483 1.429 . S
C492 N489 1.350 . S
C492 C491 1.434 . S
C493 C494 1.369 . S
C493 C495 1.419 . S
C493 H497 0.930 . S
C494 C493 1.369 . S
C494 C503 1.429 . S
C495 C493 1.419 . S
C495 C496 1.363 . S
C495 H498 0.929 . S
C496 C495 1.363 . S
C496 C502 1.428 . S
H497 C493 0.930 . S
H498 C495 0.929 . S
S499 N500 1.613 . S
S499 N501 1.610 . S
N500 S499 1.613 . S
N500 C503 1.350 . S
N501 S499 1.610 . S
N501 C502 1.351 . S
C502 C496 1.428 . S
C502 N501 1.351 . S
C502 C503 1.434 . S
C503 C494 1.429 . S
C503 N500 1.350 . S
C503 C502 1.434 . S
C241 N80 1.888 . S
C243 C121 1.897 . S
C254 C142 1.534 . S
C252 N93 1.526 . S
C265 C176 1.480 . S
C263 N54 1.469 . S
C276 C210 1.543 . S
C274 N67 1.539 . S
C287 C112 1.897 . S
C285 N28 1.891 1_545 S
C296 N41 1.533 . S
C298 C151 1.537 . S
C307 N2 1.467 . S
C309 C185 1.480 . S
C318 N15 1.544 . S
C320 C219 1.545 1_655 S
C331 C133 0.834 . S
C329 N70 0.832 . S
C342 C138 1.276 . S
C340 N83 1.279 . S
C353 C172 1.184 . S
C351 N96 1.185 . S
C362 N57 0.661 . S
C364 C206 0.648 . S
C373 N18 0.825 . S
C375 C104 0.844 . S
C386 C167 1.274 . S
C384 N31 1.278 1_545 S
C397 C201 1.180 . S
C395 N44 1.192 . S
C406 N5 0.658 . S
C408 C235 0.651 . S
C417 N66 1.426 . S
C419 C117 1.410 . S
C428 N79 1.755 1_545 S
C430 C146 1.762 1_554 S
C441 C180 1.552 1_554 S
C439 N92 1.554 . S
C452 C214 1.605 1_554 S
C450 N53 1.600 . S
C461 N14 1.428 . S
C463 C108 1.418 . S
C474 C155 1.762 . S
C472 N27 1.754 . S
C485 C189 1.551 . S
C483 N40 1.554 . S
C494 N1 1.596 . S
C496 C223 1.604 . S
