# Generated by pormake.
# Topology ssa, (4,4)-cn, num edge types: 1
# Building blocks:
#     Node 0, Type 0, BuildingBlock: NAWXER_clean_sbu_0, # of connection points: 4
#     Node 1, Type 0, BuildingBlock: NAWXER_clean_sbu_0, # of connection points: 4
#     Node 2, Type 0, BuildingBlock: NAWXER_clean_sbu_0, # of connection points: 4
#     Node 3, Type 0, BuildingBlock: NAWXER_clean_sbu_0, # of connection points: 4
#     Node 4, Type 0, BuildingBlock: NAWXER_clean_sbu_0, # of connection points: 4
#     Node 5, Type 0, BuildingBlock: NAWXER_clean_sbu_0, # of connection points: 4
#     Node 6, Type 1, BuildingBlock: AZAVOO_clean_linker_0, # of connection points: 4
#     Node 7, Type 1, BuildingBlock: AZAVOO_clean_linker_0, # of connection points: 4
#     Node 8, Type 1, BuildingBlock: AZAVOO_clean_linker_0, # of connection points: 4
#     Node 9, Type 1, BuildingBlock: AZAVOO_clean_linker_0, # of connection points: 4
#     Node 10, Type 1, BuildingBlock: AZAVOO_clean_linker_0, # of connection points: 4
#     Node 11, Type 1, BuildingBlock: AZAVOO_clean_linker_0, # of connection points: 4
#     Edge 12, Type (0, 1), BuildingBlock: KIFKEQ_clean_linker_1, # of connection points: 2
#     Edge 13, Type (0, 1), BuildingBlock: KIFKEQ_clean_linker_1, # of connection points: 2
#     Edge 14, Type (0, 1), BuildingBlock: KIFKEQ_clean_linker_1, # of connection points: 2
#     Edge 15, Type (0, 1), BuildingBlock: KIFKEQ_clean_linker_1, # of connection points: 2
#     Edge 16, Type (0, 1), BuildingBlock: KIFKEQ_clean_linker_1, # of connection points: 2
#     Edge 17, Type (0, 1), BuildingBlock: KIFKEQ_clean_linker_1, # of connection points: 2
#     Edge 18, Type (0, 1), BuildingBlock: KIFKEQ_clean_linker_1, # of connection points: 2
#     Edge 19, Type (0, 1), BuildingBlock: KIFKEQ_clean_linker_1, # of connection points: 2
#     Edge 20, Type (0, 1), BuildingBlock: KIFKEQ_clean_linker_1, # of connection points: 2
#     Edge 21, Type (0, 1), BuildingBlock: KIFKEQ_clean_linker_1, # of connection points: 2
#     Edge 22, Type (0, 1), BuildingBlock: KIFKEQ_clean_linker_1, # of connection points: 2
#     Edge 23, Type (0, 1), BuildingBlock: KIFKEQ_clean_linker_1, # of connection points: 2
#     Edge 24, Type (0, 1), BuildingBlock: KIFKEQ_clean_linker_1, # of connection points: 2
#     Edge 25, Type (0, 1), BuildingBlock: KIFKEQ_clean_linker_1, # of connection points: 2
#     Edge 26, Type (0, 1), BuildingBlock: KIFKEQ_clean_linker_1, # of connection points: 2
#     Edge 27, Type (0, 1), BuildingBlock: KIFKEQ_clean_linker_1, # of connection points: 2
#     Edge 28, Type (0, 1), BuildingBlock: KIFKEQ_clean_linker_1, # of connection points: 2
#     Edge 29, Type (0, 1), BuildingBlock: KIFKEQ_clean_linker_1, # of connection points: 2
#     Edge 30, Type (0, 1), BuildingBlock: KIFKEQ_clean_linker_1, # of connection points: 2
#     Edge 31, Type (0, 1), BuildingBlock: KIFKEQ_clean_linker_1, # of connection points: 2
#     Edge 32, Type (0, 1), BuildingBlock: KIFKEQ_clean_linker_1, # of connection points: 2
#     Edge 33, Type (0, 1), BuildingBlock: KIFKEQ_clean_linker_1, # of connection points: 2
#     Edge 34, Type (0, 1), BuildingBlock: KIFKEQ_clean_linker_1, # of connection points: 2
#     Edge 35, Type (0, 1), BuildingBlock: KIFKEQ_clean_linker_1, # of connection points: 2
# Relax obj value: 0.084
# Max RMSD: 0.234
# Mean RMSD: 0.129
data_MOF--net-ssa--node1-NAWXER_clean_sbu_0--node2-AZAVOO_clean_linker_0--edge1-KIFKEQ_clean_linker_1
_symmetry_space_group_name_H-M    P1
_symmetry_Int_Tables_number       1
_symmetry_cell_setting            triclinic
loop_
_symmetry_equiv_pos_as_xyz
'x, y, z'
_cell_length_a     49.464908
_cell_length_b     49.836879
_cell_length_c     46.760456
_cell_angle_alpha  89.864691
_cell_angle_beta   92.746044
_cell_angle_gamma 120.18764
loop_
_atom_site_label
_atom_site_type_symbol
_atom_site_fract_x
_atom_site_fract_y
_atom_site_fract_z
_atom_type_partial_charge
C0 C 0.16992 0.59238 0.03244 0.0
C1 C 0.12934 0.50546 0.96393 0.0
O2 O 0.1438 0.56911 0.03918 0.0
Zn3 Zn 0.11109 0.52319 0.02281 0.0
O4 O 0.18279 0.59105 0.01 0.0
Zn5 Zn 0.15001 0.54988 0.99745 0.0
O6 O 0.11042 0.55649 0.98942 0.0
O7 O 0.07311 0.52429 0.01696 0.0
O8 O 0.15311 0.53225 0.96132 0.0
O9 O 0.11245 0.49988 0.98548 0.0
O10 O 0.11241 0.49685 0.05194 0.0
O11 O 0.15629 0.52165 0.02916 0.0
C12 C 0.0827 0.54524 0.99834 0.0
C13 C 0.14004 0.50248 0.04824 0.0
C14 C 0.55106 0.03335 0.59341 0.0
C15 C 0.58976 0.97637 0.54112 0.0
O16 O 0.54562 0.00587 0.59732 0.0
Zn17 Zn 0.57063 0.00491 0.56761 0.0
O18 O 0.56886 0.04942 0.5735 0.0
Zn19 Zn 0.59496 0.04335 0.54099 0.0
O20 O 0.5755 0.04749 0.50587 0.0
O21 O 0.54483 0.00526 0.52933 0.0
O22 O 0.59931 0.00363 0.53148 0.0
O23 O 0.5726 0.96751 0.56246 0.0
O24 O 0.61752 0.03839 0.58296 0.0
O25 O 0.63757 0.07492 0.55082 0.0
C26 C 0.54934 0.02264 0.50769 0.0
C27 C 0.64048 0.06382 0.57448 0.0
C28 C 0.59255 0.4689 0.06916 0.0
C29 C 0.64672 0.55529 0.13847 0.0
O30 O 0.58878 0.492 0.06345 0.0
Zn31 Zn 0.60268 0.53704 0.08061 0.0
O32 O 0.60904 0.47011 0.09139 0.0
Zn33 Zn 0.61984 0.51144 0.10445 0.0
O34 O 0.57565 0.50446 0.11657 0.0
O35 O 0.56274 0.53296 0.08942 0.0
O36 O 0.64591 0.52939 0.13924 0.0
O37 O 0.63193 0.56052 0.11798 0.0
O38 O 0.6263 0.56323 0.04976 0.0
O39 O 0.64905 0.53974 0.07144 0.0
C40 C 0.55637 0.51371 0.10947 0.0
C41 C 0.64896 0.55799 0.05208 0.0
C42 C 0.10116 0.54193 0.52923 0.0
C43 C 0.05936 0.45106 0.58898 0.0
O44 O 0.1154 0.53629 0.54959 0.0
Zn45 Zn 0.08073 0.49658 0.55943 0.0
O46 O 0.0725 0.52207 0.52227 0.0
Zn47 Zn 0.03717 0.47733 0.53523 0.0
O48 O 0.00477 0.48531 0.54691 0.0
O49 O 0.04779 0.50826 0.57513 0.0
O50 O 0.03942 0.44932 0.56938 0.0
O51 O 0.08655 0.475 0.5911 0.0
O52 O 0.07573 0.46723 0.52384 0.0
O53 O 0.02986 0.45192 0.50114 0.0
C54 C 0.01988 0.50257 0.56866 0.0
C55 C 0.05557 0.45193 0.50336 0.0
C56 C 0.63169 0.02714 0.12421 0.0
C57 C 0.59245 0.08134 0.06273 0.0
O58 O 0.63665 0.05453 0.12839 0.0
Zn59 Zn 0.61199 0.05501 0.09483 0.0
O60 O 0.61447 0.01102 0.1024 0.0
Zn61 Zn 0.58858 0.01513 0.06642 0.0
O62 O 0.60986 0.01072 0.03465 0.0
O63 O 0.63886 0.0535 0.06094 0.0
O64 O 0.58379 0.05371 0.05395 0.0
O65 O 0.60903 0.09178 0.08603 0.0
O66 O 0.56533 0.02144 0.10508 0.0
O67 O 0.5461 0.98319 0.0728 0.0
C68 C 0.63575 0.03577 0.03969 0.0
C69 C 0.54276 0.9953 0.09528 0.0
C70 C 0.59857 0.5102 0.59737 0.0
C71 C 0.51291 0.45342 0.52661 0.0
O72 O 0.57657 0.51645 0.59935 0.0
Zn73 Zn 0.53166 0.50248 0.57905 0.0
O74 O 0.59611 0.49065 0.57853 0.0
Zn75 Zn 0.55573 0.48117 0.56209 0.0
O76 O 0.56499 0.52379 0.54273 0.0
O77 O 0.53794 0.54144 0.56402 0.0
O78 O 0.53807 0.4525 0.52998 0.0
O79 O 0.50781 0.47054 0.54341 0.0
O80 O 0.50437 0.48349 0.61049 0.0
O81 O 0.52584 0.45672 0.59596 0.0
C82 C 0.55692 0.54439 0.54519 0.0
C83 C 0.50799 0.46005 0.61281 0.0
H84 H 0.29292 0.42493 0.48696 0.0
H85 H 0.07478 0.35141 0.21859 0.0
H86 H 0.33869 0.45205 0.33718 0.0
H87 H 0.38155 0.45321 0.3667 0.0
H88 H 0.34641 0.35673 0.34466 0.0
H89 H 0.30392 0.35597 0.31451 0.0
H90 H 0.27647 0.44394 0.36531 0.0
H91 H 0.2844 0.44458 0.41743 0.0
H92 H 0.27234 0.35251 0.41202 0.0
H93 H 0.26402 0.35204 0.35996 0.0
H94 H 0.2199 0.43881 0.31789 0.0
H95 H 0.1802 0.43833 0.34757 0.0
H96 H 0.16307 0.35162 0.38331 0.0
H97 H 0.20158 0.35112 0.35221 0.0
H98 H 0.22665 0.44023 0.25679 0.0
H99 H 0.17905 0.43428 0.23236 0.0
H100 H 0.12811 0.33857 0.25794 0.0
H101 H 0.17607 0.3447 0.2819 0.0
H102 H 0.28964 0.45164 0.23545 0.0
H103 H 0.27298 0.45956 0.18768 0.0
H104 H 0.20115 0.36282 0.18159 0.0
H105 H 0.21876 0.35466 0.22901 0.0
H106 H 0.34111 0.45928 0.28129 0.0
H107 H 0.38503 0.47628 0.25051 0.0
H108 H 0.33711 0.38676 0.20652 0.0
H109 H 0.29368 0.36955 0.23835 0.0
O110 O 0.28954 0.42411 0.46634 0.0
O111 O 0.28344 0.37689 0.46236 0.0
O112 O 0.12136 0.40358 0.2151 0.0
O113 O 0.09387 0.35448 0.22833 0.0
C114 C 0.2898 0.40185 0.30996 0.0
C115 C 0.26542 0.39793 0.32727 0.0
C116 C 0.23783 0.39563 0.31453 0.0
C117 C 0.23422 0.39599 0.28442 0.0
C118 C 0.25877 0.40013 0.26715 0.0
C119 C 0.28698 0.40402 0.27999 0.0
C120 C 0.31843 0.40399 0.32366 0.0
C121 C 0.34085 0.43148 0.33803 0.0
C122 C 0.36524 0.43208 0.35481 0.0
C123 C 0.36718 0.40504 0.35786 0.0
C124 C 0.34535 0.37784 0.34258 0.0
C125 C 0.32127 0.37742 0.32533 0.0
C126 C 0.26968 0.39796 0.35892 0.0
C127 C 0.2754 0.42389 0.37547 0.0
C128 C 0.27999 0.42421 0.40521 0.0
C129 C 0.27904 0.3986 0.4189 0.0
C130 C 0.27324 0.37262 0.40217 0.0
C131 C 0.26854 0.3723 0.37244 0.0
C132 C 0.21355 0.3949 0.33269 0.0
C133 C 0.20716 0.41936 0.33165 0.0
C134 C 0.18457 0.41911 0.34858 0.0
C135 C 0.1686 0.39483 0.36744 0.0
C136 C 0.1751 0.37048 0.36877 0.0
C137 C 0.19714 0.37029 0.3512 0.0
C138 C 0.20486 0.39281 0.27089 0.0
C139 C 0.2052 0.41798 0.25703 0.0
C140 C 0.17796 0.41454 0.24316 0.0
C141 C 0.14978 0.38589 0.24311 0.0
C142 C 0.14942 0.36091 0.2575 0.0
C143 C 0.17674 0.36435 0.27128 0.0
C144 C 0.25521 0.40264 0.23576 0.0
C145 C 0.27142 0.4318 0.22323 0.0
C146 C 0.26183 0.43631 0.196 0.0
C147 C 0.23564 0.41182 0.18126 0.0
C148 C 0.22137 0.382 0.19267 0.0
C149 C 0.23141 0.37734 0.21964 0.0
C150 C 0.31436 0.41305 0.26233 0.0
C151 C 0.34037 0.44313 0.26539 0.0
C152 C 0.36523 0.45297 0.24744 0.0
C153 C 0.36453 0.433 0.22584 0.0
C154 C 0.33857 0.40266 0.22308 0.0
C155 C 0.3137 0.39278 0.24118 0.0
C156 C 0.28412 0.39909 0.45048 0.0
C157 C 0.12089 0.38199 0.228 0.0
H158 H 0.93549 0.2496 0.00428 0.0
H159 H 0.71871 0.02134 0.77046 0.0
H160 H 0.92423 0.27615 0.85046 0.0
H161 H 0.97009 0.32641 0.8637 0.0
H162 H 0.03046 0.29369 0.83499 0.0
H163 H 0.98406 0.24308 0.82169 0.0
H164 H 0.88048 0.22811 0.88718 0.0
H165 H 0.89716 0.23974 0.93792 0.0
H166 H 0.966 0.21195 0.92668 0.0
H167 H 0.94883 0.2001 0.876 0.0
H168 H 0.82458 0.18567 0.85155 0.0
H169 H 0.78593 0.1575 0.88694 0.0
H170 H 0.83312 0.10685 0.9102 0.0
H171 H 0.87193 0.13529 0.87428 0.0
H172 H 0.81203 0.17439 0.79013 0.0
H173 H 0.761 0.1301 0.7749 0.0
H174 H 0.79582 0.06787 0.79544 0.0
H175 H 0.84695 0.11247 0.81013 0.0
H176 H 0.86353 0.22824 0.76055 0.0
H177 H 0.82966 0.21329 0.71679 0.0
H178 H 0.83997 0.1329 0.70617 0.0
H179 H 0.87417 0.14818 0.74998 0.0
H180 H 0.9204 0.27718 0.78857 0.0
H181 H 0.95245 0.31524 0.7538 0.0
H182 H 0.97942 0.25124 0.7218 0.0
H183 H 0.94714 0.21314 0.7569 0.0
O184 O 0.92917 0.24472 0.98418 0.0
O185 O 0.96424 0.23026 0.97726 0.0
O186 O 0.72209 0.07232 0.76569 0.0
O187 O 0.73868 0.03929 0.77632 0.0
C188 C 0.92255 0.22617 0.82636 0.0
C189 C 0.90322 0.206 0.84723 0.0
C190 C 0.87392 0.18006 0.83877 0.0
C191 C 0.86448 0.17358 0.80947 0.0
C192 C 0.88387 0.19367 0.78854 0.0
C193 C 0.9128 0.22005 0.79702 0.0
C194 C 0.95089 0.25595 0.8354 0.0
C195 C 0.94736 0.27976 0.84717 0.0
C196 C 0.97353 0.30855 0.85434 0.0
C197 C 0.00382 0.31405 0.85005 0.0
C198 C 0.00737 0.29005 0.83847 0.0
C199 C 0.98102 0.26122 0.83098 0.0
C200 C 0.9132 0.21291 0.87805 0.0
C201 C 0.89895 0.22427 0.8958 0.0
C202 C 0.90862 0.23103 0.92474 0.0
C203 C 0.93286 0.2267 0.93639 0.0
C204 C 0.94722 0.21548 0.91842 0.0
C205 C 0.93747 0.20868 0.88949 0.0
C206 C 0.85097 0.16249 0.86047 0.0
C207 C 0.82654 0.16845 0.86425 0.0
C208 C 0.80462 0.15247 0.88452 0.0
C209 C 0.80667 0.13014 0.90139 0.0
C210 C 0.83097 0.12385 0.89734 0.0
C211 C 0.85315 0.14011 0.87706 0.0
C212 C 0.83325 0.14661 0.80087 0.0
C213 C 0.80864 0.15118 0.79112 0.0
C214 C 0.77949 0.12584 0.78255 0.0
C215 C 0.77435 0.09542 0.78388 0.0
C216 C 0.799 0.09096 0.79406 0.0
C217 C 0.8282 0.11637 0.8025 0.0
C218 C 0.87128 0.18928 0.75842 0.0
C219 C 0.85959 0.20814 0.74814 0.0
C220 C 0.84001 0.19941 0.72334 0.0
C221 C 0.83196 0.17177 0.70837 0.0
C222 C 0.84598 0.15441 0.71724 0.0
C223 C 0.86549 0.16309 0.7422 0.0
C224 C 0.93179 0.24262 0.7754 0.0
C225 C 0.93346 0.27151 0.77421 0.0
C226 C 0.95187 0.29323 0.75445 0.0
C227 C 0.96873 0.28633 0.73531 0.0
C228 C 0.96664 0.25714 0.73627 0.0
C229 C 0.9483 0.23543 0.75624 0.0
C230 C 0.94312 0.23396 0.96714 0.0
C231 C 0.74344 0.06841 0.77473 0.0
H232 H 0.74679 0.78832 0.15755 0.0
H233 H 0.68177 0.98305 0.38991 0.0
H234 H 0.64792 0.73687 0.30754 0.0
H235 H 0.64976 0.69331 0.28621 0.0
H236 H 0.75088 0.74537 0.29464 0.0
H237 H 0.74876 0.78891 0.31666 0.0
H238 H 0.67567 0.77862 0.25721 0.0
H239 H 0.69723 0.77544 0.21221 0.0
H240 H 0.78722 0.85312 0.24071 0.0
H241 H 0.76546 0.85573 0.28587 0.0
H242 H 0.66994 0.8337 0.25813 0.0
H243 H 0.67055 0.87194 0.22512 0.0
H244 H 0.74393 0.9458 0.27827 0.0
H245 H 0.74416 0.9071 0.31083 0.0
H246 H 0.64364 0.85461 0.31364 0.0
H247 H 0.63326 0.8962 0.32596 0.0
H248 H 0.7148 0.93647 0.38489 0.0
H249 H 0.72506 0.89494 0.37211 0.0
H250 H 0.62009 0.80269 0.35949 0.0
H251 H 0.59775 0.81749 0.39774 0.0
H252 H 0.68679 0.85916 0.446 0.0
H253 H 0.70873 0.84363 0.40778 0.0
H254 H 0.62387 0.74864 0.34997 0.0
H255 H 0.60205 0.70635 0.38399 0.0
H256 H 0.69409 0.74151 0.42519 0.0
H257 H 0.71584 0.78368 0.39069 0.0
O258 O 0.73875 0.79002 0.17551 0.0
O259 O 0.78443 0.83029 0.19098 0.0
O260 O 0.64427 0.94536 0.35331 0.0
O261 O 0.68558 0.96661 0.38431 0.0
C262 C 0.69679 0.79401 0.32209 0.0
C263 C 0.70622 0.81864 0.30258 0.0
C264 C 0.70254 0.84431 0.30901 0.0
C265 C 0.69052 0.84583 0.33537 0.0
C266 C 0.68123 0.82135 0.35476 0.0
C267 C 0.68391 0.7953 0.34804 0.0
C268 C 0.69817 0.76594 0.31403 0.0
C269 C 0.67044 0.73844 0.30593 0.0
C270 C 0.67156 0.71359 0.29361 0.0
C271 C 0.70048 0.7159 0.28877 0.0
C272 C 0.72827 0.74299 0.29803 0.0
C273 C 0.7271 0.76776 0.31071 0.0
C274 C 0.7191 0.81718 0.27493 0.0
C275 C 0.70009 0.79478 0.25378 0.0
C276 C 0.71244 0.7931 0.22804 0.0
C277 C 0.74398 0.81397 0.22289 0.0
C278 C 0.76285 0.83665 0.24402 0.0
C279 C 0.75049 0.83823 0.2698 0.0
C280 C 0.7071 0.86751 0.28685 0.0
C281 C 0.68697 0.85802 0.26217 0.0
C282 C 0.68723 0.87992 0.2434 0.0
C283 C 0.70724 0.91181 0.24922 0.0
C284 C 0.7282 0.92134 0.2734 0.0
C285 C 0.7284 0.89931 0.2919 0.0
C286 C 0.68512 0.87187 0.34194 0.0
C287 C 0.65935 0.8726 0.32902 0.0
C288 C 0.65343 0.8963 0.33617 0.0
C289 C 0.67317 0.91963 0.35648 0.0
C290 C 0.69911 0.91887 0.36921 0.0
C291 C 0.70505 0.89521 0.36195 0.0
C292 C 0.66599 0.82227 0.38092 0.0
C293 C 0.63436 0.81391 0.37884 0.0
C294 C 0.62176 0.82261 0.40056 0.0
C295 C 0.64071 0.83995 0.42459 0.0
C296 C 0.6716 0.84569 0.42781 0.0
C297 C 0.68418 0.83687 0.40604 0.0
C298 C 0.67146 0.76882 0.36765 0.0
C299 C 0.63936 0.74692 0.3661 0.0
C300 C 0.62697 0.72287 0.38552 0.0
C301 C 0.64641 0.72066 0.40717 0.0
C302 C 0.67859 0.7428 0.40879 0.0
C303 C 0.69105 0.76666 0.38905 0.0
C304 C 0.75705 0.81203 0.19555 0.0
C305 C 0.66671 0.94459 0.3645 0.0
H306 H 0.77945 0.59918 0.63714 0.0
H307 H 0.04295 0.59389 0.85833 0.0
H308 H 0.82473 0.64492 0.79065 0.0
H309 H 0.77649 0.63304 0.763 0.0
H310 H 0.74558 0.53508 0.767 0.0
H311 H 0.79303 0.54724 0.79511 0.0
H312 H 0.85871 0.64481 0.74276 0.0
H313 H 0.82933 0.63507 0.69666 0.0
H314 H 0.80192 0.53798 0.70049 0.0
H315 H 0.83115 0.54804 0.74674 0.0
H316 H 0.91947 0.63921 0.73691 0.0
H317 H 0.93968 0.62445 0.69652 0.0
H318 H 0.91315 0.53661 0.73586 0.0
H319 H 0.89252 0.55127 0.77559 0.0
H320 H 0.96154 0.65477 0.79779 0.0
H321 H 0.01196 0.65799 0.80924 0.0
H322 H 0.96386 0.56826 0.84847 0.0
H323 H 0.91367 0.5651 0.83643 0.0
H324 H 0.93843 0.66207 0.85853 0.0
H325 H 0.97177 0.66112 0.89844 0.0
H326 H 0.90142 0.56656 0.91488 0.0
H327 H 0.86847 0.56757 0.87485 0.0
H328 H 0.86309 0.65559 0.86239 0.0
H329 H 0.83071 0.65212 0.9021 0.0
H330 H 0.77648 0.5525 0.8889 0.0
H331 H 0.80924 0.5562 0.84994 0.0
O332 O 0.79198 0.60275 0.65476 0.0
O333 O 0.77983 0.55336 0.65696 0.0
O334 O 0.04691 0.63809 0.83094 0.0
O335 O 0.02333 0.59285 0.85279 0.0
C336 C 0.84469 0.60366 0.80075 0.0
C337 C 0.86146 0.60246 0.77757 0.0
C338 C 0.89043 0.60394 0.78278 0.0
C339 C 0.90366 0.6088 0.81101 0.0
C340 C 0.88744 0.61138 0.83414 0.0
C341 C 0.85747 0.60787 0.82907 0.0
C342 C 0.81225 0.59691 0.79472 0.0
C343 C 0.80669 0.6209 0.78679 0.0
C344 C 0.77939 0.61405 0.7706 0.0
C345 C 0.75752 0.58315 0.76219 0.0
C346 C 0.7617 0.55911 0.77316 0.0
C347 C 0.78882 0.56597 0.7894 0.0
C348 C 0.84709 0.59715 0.74798 0.0
C349 C 0.8467 0.62155 0.73338 0.0
C350 C 0.82978 0.61588 0.70714 0.0
C351 C 0.81312 0.58571 0.69497 0.0
C352 C 0.81443 0.56148 0.70929 0.0
C353 C 0.83128 0.56717 0.73559 0.0
C354 C 0.90475 0.59638 0.75922 0.0
C355 C 0.91824 0.61688 0.73678 0.0
C356 C 0.92978 0.60843 0.71381 0.0
C357 C 0.92782 0.57926 0.71291 0.0
C358 C 0.91456 0.55901 0.73566 0.0
C359 C 0.90311 0.56748 0.75855 0.0
C360 C 0.93404 0.60986 0.81653 0.0
C361 C 0.96197 0.63574 0.80864 0.0
C362 C 0.99071 0.63755 0.81528 0.0
C363 C 0.99194 0.61344 0.82992 0.0
C364 C 0.96378 0.58727 0.83728 0.0
C365 C 0.93508 0.58543 0.83049 0.0
C366 C 0.9012 0.6148 0.86367 0.0
C367 C 0.92962 0.64168 0.87162 0.0
C368 C 0.9487 0.64103 0.89424 0.0
C369 C 0.93936 0.61359 0.90936 0.0
C370 C 0.90913 0.58806 0.90367 0.0
C371 C 0.89018 0.58864 0.88087 0.0
C372 C 0.83842 0.60615 0.8533 0.0
C373 C 0.84425 0.63307 0.86822 0.0
C374 C 0.82563 0.63105 0.89072 0.0
C375 C 0.80104 0.60202 0.8987 0.0
C376 C 0.79545 0.57516 0.88361 0.0
C377 C 0.81398 0.57723 0.86119 0.0
C378 C 0.79402 0.57952 0.66773 0.0
C379 C 0.02243 0.61563 0.8378 0.0
H380 H 0.29381 0.87431 0.48488 0.0
H381 H 0.14248 0.60275 0.26368 0.0
H382 H 0.30826 0.88402 0.32881 0.0
H383 H 0.35169 0.93009 0.35336 0.0
H384 H 0.41026 0.88905 0.34775 0.0
H385 H 0.36689 0.84331 0.32369 0.0
H386 H 0.2523 0.82938 0.36647 0.0
H387 H 0.26196 0.84917 0.41598 0.0
H388 H 0.3439 0.83916 0.42405 0.0
H389 H 0.33368 0.81897 0.37468 0.0
H390 H 0.2006 0.76012 0.3428 0.0
H391 H 0.172 0.723 0.38 0.0
H392 H 0.25513 0.71891 0.40463 0.0
H393 H 0.28322 0.75533 0.36715 0.0
H394 H 0.19461 0.75382 0.28495 0.0
H395 H 0.15165 0.70163 0.27149 0.0
H396 H 0.21454 0.66567 0.28524 0.0
H397 H 0.25724 0.71802 0.29863 0.0
H398 H 0.23001 0.78559 0.24061 0.0
H399 H 0.21553 0.75944 0.19335 0.0
H400 H 0.29203 0.74123 0.20357 0.0
H401 H 0.3058 0.7666 0.25118 0.0
H402 H 0.29771 0.85877 0.24864 0.0
H403 H 0.33577 0.88928 0.21289 0.0
H404 H 0.39247 0.84962 0.24057 0.0
H405 H 0.3543 0.81907 0.27573 0.0
O406 O 0.29032 0.86626 0.4654 0.0
O407 O 0.33244 0.86104 0.46831 0.0
O408 O 0.12766 0.64328 0.26222 0.0
O409 O 0.15901 0.62362 0.269 0.0
C410 C 0.30684 0.83018 0.3155 0.0
C411 C 0.28668 0.81158 0.33671 0.0
C412 C 0.26129 0.78177 0.32932 0.0
C413 C 0.25495 0.77124 0.30048 0.0
C414 C 0.27489 0.78994 0.27921 0.0
C415 C 0.30124 0.81909 0.28684 0.0
C416 C 0.33459 0.86055 0.32407 0.0
C417 C 0.33083 0.88554 0.33206 0.0
C418 C 0.35553 0.91166 0.34624 0.0
C419 C 0.38437 0.91318 0.35251 0.0
C420 C 0.38857 0.8889 0.34279 0.0
C421 C 0.36383 0.86275 0.32886 0.0
C422 C 0.29246 0.82307 0.36694 0.0
C423 C 0.27227 0.83143 0.37902 0.0
C424 C 0.27788 0.84277 0.40727 0.0
C425 C 0.30379 0.84589 0.42394 0.0
C426 C 0.32381 0.83718 0.41178 0.0
C427 C 0.31811 0.82575 0.38356 0.0
C428 C 0.24389 0.76024 0.35225 0.0
C429 C 0.21251 0.75108 0.35619 0.0
C430 C 0.1963 0.73 0.37741 0.0
C431 C 0.21144 0.71823 0.39522 0.0
C432 C 0.24303 0.72793 0.39147 0.0
C433 C 0.25903 0.74861 0.37005 0.0
C434 C 0.22889 0.73955 0.29279 0.0
C435 C 0.19897 0.73459 0.28509 0.0
C436 C 0.17453 0.70479 0.27739 0.0
C437 C 0.17967 0.67946 0.27729 0.0
C438 C 0.20977 0.68463 0.2851 0.0
C439 C 0.23418 0.71446 0.29278 0.0
C440 C 0.26891 0.77795 0.24924 0.0
C441 C 0.24385 0.7763 0.23246 0.0
C442 C 0.23564 0.7614 0.20558 0.0
C443 C 0.25271 0.74839 0.19493 0.0
C444 C 0.27875 0.7514 0.2112 0.0
C445 C 0.28662 0.76584 0.23831 0.0
C446 C 0.32369 0.83729 0.26505 0.0
C447 C 0.31837 0.85676 0.24687 0.0
C448 C 0.33994 0.87394 0.22645 0.0
C449 C 0.36714 0.87196 0.22423 0.0
C450 C 0.37195 0.85193 0.24217 0.0
C451 C 0.35029 0.83458 0.26226 0.0
C452 C 0.30981 0.85816 0.45388 0.0
C453 C 0.15381 0.64776 0.26904 0.0
H454 H 0.44315 0.27546 0.64688 0.0
H455 H 0.50961 0.0605 0.86512 0.0
H456 H 0.52705 0.30777 0.80791 0.0
H457 H 0.52094 0.34725 0.78228 0.0
H458 H 0.42078 0.28526 0.77473 0.0
H459 H 0.42712 0.24589 0.80073 0.0
H460 H 0.50981 0.27167 0.75203 0.0
H461 H 0.49044 0.28048 0.70595 0.0
H462 H 0.40103 0.1974 0.71607 0.0
H463 H 0.42053 0.18922 0.7625 0.0
H464 H 0.51943 0.21899 0.74858 0.0
H465 H 0.52069 0.18569 0.71107 0.0
H466 H 0.44627 0.10523 0.74972 0.0
H467 H 0.44442 0.13896 0.78688 0.0
H468 H 0.54331 0.1939 0.80327 0.0
H469 H 0.55583 0.15289 0.81259 0.0
H470 H 0.47415 0.1052 0.86278 0.0
H471 H 0.46171 0.14616 0.85298 0.0
H472 H 0.56019 0.23714 0.85783 0.0
H473 H 0.58147 0.22427 0.90058 0.0
H474 H 0.4904 0.18152 0.93633 0.0
H475 H 0.46947 0.19497 0.89355 0.0
H476 H 0.55014 0.2935 0.85529 0.0
H477 H 0.56361 0.3283 0.89693 0.0
H478 H 0.46681 0.27845 0.91944 0.0
H479 H 0.45351 0.24448 0.877 0.0
O480 O 0.45051 0.27116 0.66491 0.0
O481 O 0.40567 0.22715 0.67015 0.0
O482 O 0.54659 0.10212 0.83462 0.0
O483 O 0.50509 0.07689 0.86092 0.0
C484 C 0.48231 0.24725 0.81236 0.0
C485 C 0.47746 0.22609 0.78976 0.0
C486 C 0.48362 0.20163 0.79462 0.0
C487 C 0.49431 0.19809 0.82214 0.0
C488 C 0.49953 0.21938 0.84455 0.0
C489 C 0.49367 0.24399 0.83966 0.0
C490 C 0.47756 0.2739 0.80616 0.0
C491 C 0.50366 0.30327 0.80207 0.0
C492 C 0.50011 0.32577 0.78721 0.0
C493 C 0.4704 0.31916 0.77608 0.0
C494 C 0.44399 0.29084 0.78272 0.0
C495 C 0.44754 0.26846 0.79782 0.0
C496 C 0.46646 0.22998 0.76072 0.0
C497 C 0.48604 0.25541 0.74426 0.0
C498 C 0.47493 0.26037 0.71793 0.0
C499 C 0.44412 0.23973 0.70739 0.0
C500 C 0.42484 0.21379 0.72362 0.0
C501 C 0.43594 0.20898 0.75006 0.0
C502 C 0.48172 0.18144 0.77037 0.0
C503 C 0.50279 0.19429 0.74854 0.0
C504 C 0.50353 0.17525 0.72718 0.0
C505 C 0.48355 0.14292 0.72753 0.0
C506 C 0.46198 0.13008 0.74907 0.0
C507 C 0.46087 0.14927 0.7702 0.0
C508 C 0.50156 0.17289 0.82737 0.0
C509 C 0.52806 0.17446 0.81611 0.0
C510 C 0.5352 0.15107 0.82154 0.0
C511 C 0.51599 0.12576 0.83846 0.0
C512 C 0.48944 0.12433 0.84968 0.0
C513 C 0.48228 0.14769 0.84415 0.0
C514 C 0.5133 0.21679 0.8726 0.0
C515 C 0.54508 0.2257 0.87524 0.0
C516 C 0.5571 0.21816 0.89956 0.0
C517 C 0.53751 0.20152 0.92166 0.0
C518 C 0.50614 0.19453 0.91979 0.0
C519 C 0.49411 0.20211 0.89537 0.0
C520 C 0.50084 0.26684 0.86305 0.0
C521 C 0.53182 0.29053 0.86899 0.0
C522 C 0.53949 0.31005 0.89301 0.0
C523 C 0.51634 0.30599 0.91173 0.0
C524 C 0.48515 0.28245 0.90534 0.0
C525 C 0.47747 0.26305 0.88114 0.0
C526 C 0.43218 0.24549 0.6797 0.0
C527 C 0.52358 0.10096 0.84447 0.0
H528 H 0.10858 0.44542 0.07163 0.0
H529 H 0.20143 0.52363 0.06278 0.0
H530 H 0.13061 0.41877 0.09922 0.0
H531 H 0.22351 0.49816 0.09197 0.0
H532 H 0.26035 0.44093 0.13156 0.0
H533 H 0.23603 0.45931 0.0959 0.0
H534 H 0.15236 0.41971 0.14407 0.0
H535 H 0.17604 0.39986 0.17818 0.0
C536 C 0.13371 0.45702 0.07593 0.0
C537 C 0.15332 0.48661 0.06531 0.0
C538 C 0.14639 0.44183 0.09182 0.0
C539 C 0.17893 0.45627 0.09806 0.0
C540 C 0.19846 0.48591 0.08718 0.0
C541 C 0.18581 0.50074 0.0707 0.0
C542 C 0.23647 0.4356 0.13389 0.0
C543 C 0.21991 0.41885 0.15733 0.0
C544 C 0.22262 0.44641 0.11375 0.0
C545 C 0.19227 0.44139 0.11716 0.0
C546 C 0.17547 0.42363 0.14025 0.0
C547 C 0.18905 0.41226 0.15993 0.0
H548 H 0.64886 0.05478 0.63082 0.0
H549 H 0.69823 0.1099 0.5593 0.0
H550 H 0.6965 0.08245 0.66155 0.0
H551 H 0.74622 0.13743 0.59028 0.0
H552 H 0.82974 0.14822 0.65473 0.0
H553 H 0.78402 0.12285 0.6206 0.0
H554 H 0.72932 0.13989 0.67938 0.0
H555 H 0.77465 0.16515 0.7132 0.0
C556 C 0.66992 0.07269 0.62161 0.0
C557 C 0.66977 0.08025 0.59266 0.0
C558 C 0.69713 0.08859 0.63924 0.0
C559 C 0.72489 0.1121 0.62825 0.0
C560 C 0.72507 0.1193 0.59918 0.0
C561 C 0.69762 0.10367 0.58156 0.0
C562 C 0.80799 0.14679 0.66008 0.0
C563 C 0.80572 0.15883 0.68642 0.0
C564 C 0.78198 0.13244 0.6406 0.0
C565 C 0.75323 0.12938 0.6475 0.0
C566 C 0.75119 0.14183 0.67365 0.0
C567 C 0.77718 0.15652 0.69284 0.0
H568 H 0.66218 0.54734 0.19378 0.0
H569 H 0.6676 0.61694 0.13535 0.0
H570 H 0.68256 0.58612 0.23316 0.0
H571 H 0.68777 0.65531 0.17433 0.0
H572 H 0.73751 0.72431 0.24435 0.0
H573 H 0.73208 0.68513 0.20973 0.0
H574 H 0.6587 0.61362 0.25774 0.0
H575 H 0.66462 0.65275 0.29276 0.0
C576 C 0.6683 0.571 0.18926 0.0
C577 C 0.66307 0.57907 0.16157 0.0
C578 C 0.6798 0.59312 0.21178 0.0
C579 C 0.68674 0.62374 0.20683 0.0
C580 C 0.68303 0.63205 0.17881 0.0
C581 C 0.67121 0.60996 0.1565 0.0
C582 C 0.72094 0.70012 0.24804 0.0
C583 C 0.7013 0.69161 0.27115 0.0
C584 C 0.71765 0.67772 0.22807 0.0
C585 C 0.69473 0.64636 0.23085 0.0
C586 C 0.67668 0.63757 0.25509 0.0
C587 C 0.67987 0.65999 0.275 0.0
H588 H 0.95946 0.49154 0.56548 0.0
H589 H 0.04817 0.54354 0.61362 0.0
H590 H 0.93614 0.51206 0.5976 0.0
H591 H 0.02487 0.56348 0.6457 0.0
H592 H 0.98221 0.61445 0.68578 0.0
H593 H 0.00329 0.59785 0.64791 0.0
H594 H 0.92184 0.5059 0.6478 0.0
H595 H 0.9003 0.52278 0.68494 0.0
C596 C 0.974 0.50742 0.58278 0.0
C597 C 0.00564 0.5158 0.58703 0.0
C598 C 0.96062 0.51906 0.60124 0.0
C599 C 0.97866 0.53944 0.62419 0.0
C600 C 0.01041 0.54822 0.62801 0.0
C601 C 0.02371 0.53654 0.6097 0.0
C602 C 0.96857 0.59086 0.67732 0.0
C603 C 0.93972 0.56986 0.68854 0.0
C604 C 0.98077 0.58126 0.65581 0.0
C605 C 0.96435 0.55048 0.64499 0.0
C606 C 0.93498 0.52981 0.65551 0.0
C607 C 0.92283 0.53939 0.67705 0.0
H608 H 0.53019 0.01497 0.1445 0.0
H609 H 0.49034 0.93848 0.08275 0.0
H610 H 0.48576 0.9863 0.17403 0.0
H611 H 0.44565 0.90967 0.11268 0.0
H612 H 0.3585 0.87993 0.16721 0.0
H613 H 0.39905 0.91109 0.13377 0.0
H614 H 0.47 0.93831 0.20255 0.0
H615 H 0.42976 0.90754 0.23572 0.0
C616 C 0.51182 0.99214 0.13705 0.0
C617 C 0.51401 0.97886 0.11139 0.0
C618 C 0.48641 0.97571 0.15406 0.0
C619 C 0.46249 0.94567 0.14578 0.0
C620 C 0.46377 0.93287 0.11949 0.0
C621 C 0.4894 0.94929 0.10245 0.0
C622 C 0.38278 0.89282 0.17509 0.0
C623 C 0.3911 0.89133 0.20396 0.0
C624 C 0.40591 0.9104 0.15598 0.0
C625 C 0.43759 0.92715 0.16563 0.0
C626 C 0.44573 0.9259 0.19459 0.0
C627 C 0.42276 0.90811 0.21352 0.0
H628 H 0.4879 0.46872 0.66391 0.0
H629 H 0.49746 0.40112 0.61449 0.0
H630 H 0.47239 0.43399 0.70474 0.0
H631 H 0.4821 0.36673 0.65495 0.0
H632 H 0.43654 0.30159 0.72506 0.0
H633 H 0.43854 0.33468 0.68582 0.0
H634 H 0.50179 0.41601 0.73761 0.0
H635 H 0.49928 0.38281 0.77723 0.0
C636 C 0.48607 0.44623 0.66157 0.0
C637 C 0.49403 0.43769 0.63605 0.0
C638 C 0.47742 0.42648 0.68498 0.0
C639 C 0.47609 0.39766 0.68309 0.0
C640 C 0.48255 0.38859 0.65704 0.0
C641 C 0.49155 0.40841 0.63388 0.0
C642 C 0.4501 0.32655 0.72844 0.0
C643 C 0.46776 0.3396 0.75429 0.0
C644 C 0.4515 0.34549 0.70582 0.0
C645 C 0.47049 0.37794 0.70853 0.0
C646 C 0.48675 0.3911 0.73493 0.0
C647 C 0.48552 0.37211 0.75754 0.0
H648 H 0.62161 0.98743 0.49264 0.0
H649 H 0.57611 0.91761 0.55614 0.0
H650 H 0.63247 0.95226 0.46636 0.0
H651 H 0.5871 0.88216 0.52943 0.0
H652 H 0.64704 0.84579 0.48338 0.0
H653 H 0.63431 0.87775 0.51357 0.0
H654 H 0.5981 0.90255 0.43855 0.0
H655 H 0.61123 0.87143 0.40856 0.0
C656 C 0.61402 0.96461 0.5011 0.0
C657 C 0.59777 0.95525 0.5264 0.0
C658 C 0.62012 0.94441 0.48592 0.0
C659 C 0.61028 0.91439 0.4957 0.0
C660 C 0.59493 0.90522 0.52147 0.0
C661 C 0.58857 0.92545 0.53665 0.0
C662 C 0.63607 0.85787 0.47349 0.0
C663 C 0.62994 0.85597 0.44367 0.0
C664 C 0.62867 0.87597 0.49073 0.0
C665 C 0.61546 0.89276 0.47832 0.0
C666 C 0.60856 0.89009 0.44864 0.0
C667 C 0.61571 0.87193 0.43152 0.0
H668 H 0.64984 0.58385 -0.00012 0.0
H669 H 0.70525 0.56071 0.05791 0.0
H670 H 0.68873 0.59786 0.96382 0.0
H671 H 0.74428 0.57538 0.02239 0.0
H672 H 0.78073 0.55891 0.94049 0.0
H673 H 0.74585 0.55221 0.97813 0.0
H674 H 0.7423 0.63307 0.94992 0.0
H675 H 0.7765 0.63907 0.91129 0.0
C676 C 0.67059 0.58235 0.00515 0.0
C677 C 0.67425 0.57079 0.03161 0.0
C678 C 0.69293 0.59045 0.98452 0.0
C679 C 0.71942 0.58728 0.99004 0.0
C680 C 0.72381 0.57738 0.01714 0.0
C681 C 0.70148 0.56912 0.03759 0.0
C682 C 0.77243 0.57521 0.94218 0.0
C683 C 0.78126 0.5994 0.92274 0.0
C684 C 0.75271 0.57161 0.96404 0.0
C685 C 0.74133 0.59219 0.96718 0.0
C686 C 0.75046 0.61668 0.94798 0.0
C687 C 0.7703 0.62031 0.92604 0.0
H688 H 0.16431 0.58113 0.52617 0.0
H689 H 0.07448 0.5674 0.49502 0.0
H690 H 0.19046 0.62555 0.49522 0.0
H691 H 0.10048 0.61238 0.46503 0.0
H692 H 0.1543 0.66591 0.38805 0.0
H693 H 0.1277 0.62521 0.42238 0.0
H694 H 0.20302 0.6775 0.4859 0.0
H695 H 0.23 0.71779 0.45107 0.0
C696 C 0.1502 0.58794 0.51308 0.0
C697 C 0.11737 0.57062 0.51279 0.0
C698 C 0.16516 0.61349 0.49543 0.0
C699 C 0.14757 0.62242 0.4774 0.0
C700 C 0.11475 0.60576 0.4781 0.0
C701 C 0.09984 0.58006 0.49543 0.0
C702 C 0.16492 0.66884 0.40948 0.0
C703 C 0.19419 0.69492 0.41692 0.0
C704 C 0.14967 0.64558 0.42922 0.0
C705 C 0.16321 0.64802 0.45697 0.0
C706 C 0.19217 0.67458 0.46459 0.0
C707 C 0.20756 0.69772 0.44472 0.0
H708 H 0.60361 0.14062 0.07389 0.0
H709 H 0.56228 0.06602 0.01017 0.0
H710 H 0.5918 0.17279 0.04149 0.0
H711 H 0.55086 0.09789 0.97836 0.0
H712 H 0.57168 0.1732 0.91569 0.0
H713 H 0.58619 0.14695 0.95188 0.0
H714 H 0.54227 0.17215 0.01584 0.0
H715 H 0.52799 0.19915 0.97942 0.0
C716 C 0.59192 0.13104 0.05316 0.0
C717 C 0.58411 0.10082 0.04458 0.0
C718 C 0.58511 0.1494 0.03471 0.0
C719 C 0.5708 0.13791 0.00732 0.0
C720 C 0.56238 0.10752 0.99915 0.0
C721 C 0.56884 0.08921 0.01753 0.0
C722 C 0.5657 0.17383 0.93756 0.0
C723 C 0.54874 0.18834 0.94469 0.0
C724 C 0.57376 0.15852 0.95823 0.0
C725 C 0.56513 0.15733 0.98658 0.0
C726 C 0.54928 0.17284 0.99414 0.0
C727 C 0.54094 0.18805 0.97329 0.0
H728 H 0.52553 0.43839 0.47474 0.0
H729 H 0.4506 0.43318 0.52269 0.0
H730 H 0.49052 0.42014 0.43146 0.0
H731 H 0.41564 0.41446 0.47971 0.0
H732 H 0.43017 0.44519 0.36357 0.0
H733 H 0.46574 0.44955 0.40389 0.0
H734 H 0.39027 0.36916 0.44151 0.0
H735 H 0.3548 0.36463 0.40105 0.0
C736 C 0.50139 0.43254 0.47619 0.0
C737 C 0.49075 0.43733 0.50197 0.0
C738 C 0.48148 0.42227 0.45145 0.0
C739 C 0.45049 0.41596 0.45234 0.0
C740 C 0.43936 0.4189 0.47853 0.0
C741 C 0.45939 0.42975 0.50306 0.0
C742 C 0.42148 0.42806 0.38014 0.0
C743 C 0.38985 0.40462 0.37932 0.0
C744 C 0.44179 0.43042 0.40306 0.0
C745 C 0.43064 0.40969 0.42574 0.0
C746 C 0.39937 0.38539 0.42425 0.0
C747 C 0.37918 0.38272 0.40109 0.0
H748 H 0.13255 0.50765 0.90535 0.0
H749 H 0.10678 0.44545 0.97632 0.0
H750 H 0.11014 0.46273 0.87173 0.0
H751 H 0.085 0.40113 0.94325 0.0
H752 H 0.05607 0.3245 0.88187 0.0
H753 H 0.09595 0.37357 0.9048 0.0
H754 H 0.05281 0.4208 0.86241 0.0
H755 H 0.01329 0.37189 0.83919 0.0
C756 C 0.12284 0.48448 0.91368 0.0
C757 C 0.12102 0.47985 0.9433 0.0
C758 C 0.10998 0.45886 0.89454 0.0
C759 C 0.09587 0.42845 0.90489 0.0
C760 C 0.09604 0.42422 0.93457 0.0
C761 C 0.10824 0.4496 0.95353 0.0
C762 C 0.05573 0.34555 0.87676 0.0
C763 C 0.03133 0.34436 0.85916 0.0
C764 C 0.07846 0.37358 0.88995 0.0
C765 C 0.07727 0.40092 0.88561 0.0
C766 C 0.05445 0.40018 0.86604 0.0
C767 C 0.03162 0.37213 0.85302 0.0
H768 H 0.01913 0.5177 -0.00015 0.0
H769 H 0.10093 0.60066 0.97322 0.0
H770 H 0.98592 0.53757 0.9812 0.0
H771 H 0.06806 0.62132 0.95588 0.0
H772 H 0.9973 0.62829 0.89439 0.0
H773 H 0.03247 0.61352 0.91775 0.0
H774 H 0.96958 0.57424 0.98674 0.0
H775 H 0.93354 0.58799 0.96232 0.0
C776 C 0.03001 0.54035 0.99027 0.0
C777 C 0.06255 0.55747 0.98766 0.0
C778 C 0.01103 0.55192 0.97983 0.0
C779 C 0.02424 0.5811 0.96697 0.0
C780 C 0.05695 0.59851 0.9651 0.0
C781 C 0.07584 0.58671 0.97509 0.0
C782 C 0.99132 0.61714 0.91488 0.0
C783 C 0.96275 0.60939 0.92662 0.0
C784 C 0.01154 0.60865 0.92835 0.0
C785 C 0.0039 0.59254 0.95415 0.0
C786 C 0.97594 0.58607 0.96661 0.0
C787 C 0.95543 0.59419 0.95283 0.0
H788 H 0.55379 0.04634 0.45395 0.0
H789 H 0.48867 0.97624 0.50915 0.0
H790 H 0.5135 0.02627 0.4147 0.0
H791 H 0.44884 0.9562 0.47013 0.0
H792 H 0.37539 0.93528 0.40226 0.0
H793 H 0.41507 0.96809 0.43896 0.0
H794 H 0.4877 0.97747 0.38503 0.0
H795 H 0.44798 0.94539 0.34787 0.0
C796 C 0.53082 0.02694 0.45781 0.0
C797 C 0.52448 0.01274 0.4846 0.0
C798 C 0.50782 0.01539 0.43533 0.0
C799 C 0.478 0.98968 0.43933 0.0
C800 C 0.47141 0.97631 0.46644 0.0
C801 C 0.49437 0.98765 0.48877 0.0
C802 C 0.39985 0.94518 0.39782 0.0
C803 C 0.40858 0.93762 0.37223 0.0
C804 C 0.42256 0.96368 0.41899 0.0
C805 C 0.45447 0.97502 0.41503 0.0
C806 C 0.46332 0.96921 0.38867 0.0
C807 C 0.44058 0.95063 0.36749 0.0
H808 H 0.5965 0.41575 0.07192 0.0
H809 H 0.55688 0.461 0.02043 0.0
H810 H 0.57516 0.37288 0.03655 0.0
H811 H 0.53657 0.41907 0.98512 0.0
H812 H 0.48329 0.33053 0.93468 0.0
H813 H 0.49854 0.36578 0.97593 0.0
H814 H 0.58469 0.36385 0.98819 0.0
H815 H 0.5686 0.32717 0.94795 0.0
C816 C 0.58317 0.4165 0.05319 0.0
C817 C 0.57849 0.44183 0.04899 0.0
C818 C 0.57109 0.39205 0.03286 0.0
C819 C 0.55411 0.3925 0.008 0.0
C820 C 0.54901 0.4176 0.00421 0.0
C821 C 0.56095 0.44186 0.02444 0.0
C822 C 0.50519 0.33711 0.9465 0.0
C823 C 0.52486 0.32626 0.93777 0.0
C824 C 0.51411 0.35761 0.96999 0.0
C825 C 0.54302 0.36794 0.9852 0.0
C826 C 0.56219 0.35624 0.9771 0.0
C827 C 0.55317 0.33558 0.95371 0.0
H828 H 0.05449 0.45678 0.44543 0.0
H829 H 0.07554 0.41131 0.51415 0.0
H830 H 0.07812 0.43831 0.41185 0.0
H831 H 0.09681 0.39044 0.48053 0.0
H832 H 0.17393 0.39891 0.4253 0.0
H833 H 0.14179 0.4078 0.45729 0.0
H834 H 0.08055 0.40124 0.38491 0.0
H835 H 0.11452 0.39463 0.3529 0.0
C836 C 0.0632 0.44184 0.45304 0.0
C837 C 0.06344 0.43552 0.48222 0.0
C838 C 0.0767 0.43109 0.43382 0.0
C839 C 0.09003 0.41317 0.44337 0.0
C840 C 0.0879 0.40501 0.47239 0.0
C841 C 0.07531 0.41657 0.49166 0.0
C842 C 0.15335 0.39903 0.41643 0.0
C843 C 0.14659 0.39615 0.38681 0.0
C844 C 0.13465 0.40389 0.43474 0.0
C845 C 0.10828 0.40528 0.42389 0.0
C846 C 0.10091 0.40101 0.39415 0.0
C847 C 0.12013 0.39691 0.37578 0.0
H848 H 0.63583 0.01183 0.98675 0.0
H849 H 0.69586 0.0818 0.05064 0.0
H850 H 0.67908 0.03251 0.95444 0.0
H851 H 0.73878 0.10189 0.01877 0.0
H852 H 0.78775 0.15657 0.94039 0.0
H853 H 0.74739 0.13081 0.97457 0.0
H854 H 0.7333 0.04181 0.94688 0.0
H855 H 0.77364 0.06784 0.91195 0.0
C856 C 0.65831 0.03126 0.99404 0.0
C857 C 0.66228 0.0455 0.02104 0.0
C858 C 0.68309 0.04299 0.97563 0.0
C859 C 0.71216 0.06908 0.98397 0.0
C860 C 0.71646 0.08218 0.01153 0.0
C861 C 0.69183 0.07059 0.0298 0.0
C862 C 0.77607 0.13151 0.9416 0.0
C863 C 0.78368 0.11417 0.92346 0.0
C864 C 0.75315 0.11676 0.96135 0.0
C865 C 0.73725 0.08428 0.96347 0.0
C866 C 0.74508 0.06686 0.94558 0.0
C867 C 0.76829 0.08173 0.92583 0.0
H868 H 0.55662 0.59925 0.55003 0.0
H869 H 0.58583 0.54933 0.49589 0.0
H870 H 0.57816 0.6427 0.51704 0.0
H871 H 0.60699 0.59237 0.4632 0.0
H872 H 0.6069 0.65905 0.39555 0.0
H873 H 0.58437 0.61698 0.42953 0.0
H874 H 0.6329 0.68277 0.49964 0.0
H875 H 0.65546 0.72502 0.46553 0.0
C876 C 0.56754 0.59752 0.53113 0.0
C877 C 0.56951 0.57086 0.52558 0.0
C878 C 0.57999 0.6224 0.51237 0.0
C879 C 0.59413 0.6208 0.48754 0.0
C880 C 0.59595 0.59411 0.48201 0.0
C881 C 0.58395 0.56953 0.50087 0.0
C882 C 0.61263 0.66453 0.41823 0.0
C883 C 0.63298 0.69525 0.42793 0.0
C884 C 0.59988 0.64047 0.43764 0.0
C885 C 0.60691 0.64665 0.4672 0.0
C886 C 0.62693 0.67742 0.47698 0.0
C887 C 0.64005 0.70149 0.45749 0.0
H888 H 0.50729 0.00463 0.63356 0.0
H889 H 0.56432 0.09341 0.59502 0.0
H890 H 0.48596 0.02813 0.66441 0.0
H891 H 0.54391 0.11699 0.62631 0.0
H892 H 0.48647 0.14892 0.66964 0.0
H893 H 0.49859 0.11974 0.63583 0.0
H894 H 0.50205 0.06338 0.70477 0.0
H895 H 0.489 0.09205 0.73829 0.0
C896 C 0.5153 0.02914 0.6317 0.0
C897 C 0.53752 0.04715 0.61185 0.0
C898 C 0.50317 0.04264 0.64945 0.0
C899 C 0.51313 0.07445 0.64782 0.0
C900 C 0.53519 0.09231 0.62779 0.0
C901 C 0.54712 0.07881 0.60996 0.0
C902 C 0.48945 0.13001 0.6774 0.0
C903 C 0.48696 0.1228 0.70654 0.0
C904 C 0.49656 0.1134 0.65812 0.0
C905 C 0.50174 0.08947 0.66763 0.0
C906 C 0.49791 0.08142 0.69662 0.0
C907 C 0.49047 0.09786 0.71586 0.0
H908 H 0.50799 0.52553 0.09979 0.0
H909 H 0.53846 0.47451 0.15427 0.0
H910 H 0.45993 0.50493 0.12573 0.0
H911 H 0.49119 0.45469 0.18034 0.0
H912 H 0.39149 0.40077 0.2058 0.0
H913 H 0.43578 0.41938 0.17537 0.0
H914 H 0.44234 0.50912 0.17226 0.0
H915 H 0.39711 0.49004 0.20157 0.0
C916 C 0.5045 0.51002 0.11729 0.0
C917 C 0.52709 0.50167 0.12489 0.0
C918 C 0.47703 0.49831 0.13223 0.0
C919 C 0.47159 0.47799 0.15505 0.0
C920 C 0.49425 0.46976 0.16256 0.0
C921 C 0.52156 0.48137 0.14768 0.0
C922 C 0.40204 0.42431 0.19826 0.0
C923 C 0.39084 0.44395 0.20635 0.0
C924 C 0.42769 0.43512 0.18106 0.0
C925 C 0.44286 0.46587 0.17156 0.0
C926 C 0.43115 0.48526 0.17902 0.0
C927 C 0.40545 0.47443 0.19617 0.0
H928 H 0.00545 0.395 0.58662 0.0
H929 H 0.09214 0.4492 0.63723 0.0
H930 H 0.98794 0.35424 0.62155 0.0
H931 H 0.07462 0.40791 0.67217 0.0
H932 H 0.97146 0.27592 0.67847 0.0
H933 H 0.99793 0.31461 0.64224 0.0
H934 H 0.03374 0.38742 0.70744 0.0
H935 H 0.00812 0.34868 0.74374 0.0
C936 C 0.02094 0.39809 0.60507 0.0
C937 C 0.05009 0.42547 0.60928 0.0
C938 C 0.01099 0.37455 0.62497 0.0
C939 C 0.02991 0.37785 0.6496 0.0
C940 C 0.05944 0.40486 0.65348 0.0
C941 C 0.0695 0.42842 0.63344 0.0
C942 C 0.98556 0.30012 0.68513 0.0
C943 C 0.98748 0.30933 0.71387 0.0
C944 C 0.00048 0.32229 0.66437 0.0
C945 C 0.01767 0.35407 0.67197 0.0
C946 C 0.02084 0.36311 0.70093 0.0
C947 C 0.00588 0.34097 0.72166 0.0
H948 H 0.62014 0.96788 0.12256 0.0
H949 H 0.67499 0.05495 0.16974 0.0
H950 H 0.64327 0.94447 0.15269 0.0
H951 H 0.69893 0.03128 0.19997 0.0
H952 H 0.7003 0.96013 0.26671 0.0
H953 H 0.68552 0.99154 0.23675 0.0
H954 H 0.6924 0.94618 0.16107 0.0
H955 H 0.70633 0.9144 0.19106 0.0
C956 C 0.63734 0.98218 0.1393 0.0
C957 C 0.6458 0.0134 0.14362 0.0
C958 C 0.65086 0.96874 0.15647 0.0
C959 C 0.67339 0.98611 0.17845 0.0
C960 C 0.68163 0.01728 0.18319 0.0
C961 C 0.66797 0.03083 0.16589 0.0
C962 C 0.69933 0.95746 0.24363 0.0
C963 C 0.70411 0.93465 0.23115 0.0
C964 C 0.69087 0.97544 0.22648 0.0
C965 C 0.6872 0.97096 0.19655 0.0
C966 C 0.69422 0.94964 0.1841 0.0
C967 C 0.70236 0.93155 0.20121 0.0
H968 H 0.62305 0.56608 0.62507 0.0
H969 H 0.63347 0.48535 0.61796 0.0
H970 H 0.66261 0.5863 0.66495 0.0
H971 H 0.67244 0.50533 0.65841 0.0
H972 H 0.69759 0.53353 0.75715 0.0
H973 H 0.66152 0.51745 0.71484 0.0
H974 H 0.72611 0.60055 0.67224 0.0
H975 H 0.7631 0.6161 0.71378 0.0
C976 C 0.63408 0.55288 0.63184 0.0
C977 C 0.62526 0.52416 0.61855 0.0
C978 C 0.65662 0.56445 0.65456 0.0
C979 C 0.6701 0.54712 0.66468 0.0
C980 C 0.66206 0.51889 0.65091 0.0
C981 C 0.64003 0.50763 0.62774 0.0
C982 C 0.70414 0.54844 0.73882 0.0
C983 C 0.73328 0.57608 0.73889 0.0
C984 C 0.68353 0.5392 0.71469 0.0
C985 C 0.6914 0.55771 0.69044 0.0
C986 C 0.71969 0.58602 0.69084 0.0
C987 C 0.74061 0.59503 0.71477 0.0
H988 H 0.23133 0.62784 0.05116 0.0
H989 H 0.1405 0.61928 0.056 0.0
H990 H 0.25254 0.66858 0.0886 0.0
H991 H 0.16175 0.66123 0.09174 0.0
H992 H 0.19434 0.70062 0.18181 0.0
H993 H 0.176 0.66623 0.13993 0.0
H994 H 0.2676 0.71882 0.10545 0.0
H995 H 0.28625 0.75238 0.14855 0.0
C996 C 0.21621 0.63538 0.05972 0.0
C997 C 0.1843 0.62034 0.05112 0.0
C998 C 0.22829 0.65878 0.0811 0.0
C999 C 0.20874 0.6679 0.09373 0.0
C1000 C 0.17731 0.65417 0.08336 0.0
C1001 C 0.16514 0.63034 0.06266 0.0
C1002 C 0.21041 0.70501 0.16509 0.0
C1003 C 0.2416 0.7292 0.16824 0.0
C1004 C 0.1999 0.68541 0.14091 0.0
C1005 C 0.22017 0.68982 0.11895 0.0
C1006 C 0.25139 0.71444 0.12199 0.0
C1007 C 0.26206 0.73378 0.14654 0.0
loop_
_geom_bond_atom_site_label_1
_geom_bond_atom_site_label_2
_geom_bond_distance
_geom_bond_site_symmetry_2
_ccdc_geom_bond_type
C0 O2 1.247 . S
C0 O4 1.258 . S
C1 O8 1.247 . S
C1 O9 1.258 . S
O2 C0 1.247 . S
O2 Zn3 2.028 . S
Zn3 O2 2.028 . S
Zn3 O7 2.035 1_554 S
Zn3 O9 2.035 1_554 S
Zn3 O10 2.028 . S
O4 C0 1.258 . S
O4 Zn5 2.035 1_554 S
Zn5 O4 2.035 1_556 S
Zn5 O6 2.028 . S
Zn5 O8 2.028 . S
Zn5 O11 2.035 1_556 S
O6 Zn5 2.028 . S
O6 C12 1.247 . S
O7 Zn3 2.035 1_556 S
O7 C12 1.258 . S
O8 C1 1.247 . S
O8 Zn5 2.028 . S
O9 C1 1.258 . S
O9 Zn3 2.035 1_556 S
O10 Zn3 2.028 . S
O10 C13 1.247 . S
O11 Zn5 2.035 1_554 S
O11 C13 1.258 . S
C12 O6 1.247 . S
C12 O7 1.258 . S
C13 O10 1.247 . S
C13 O11 1.258 . S
C14 O16 1.247 1_545 S
C14 O18 1.258 . S
C15 O22 1.247 1_565 S
C15 O23 1.258 . S
O16 C14 1.247 1_565 S
O16 Zn17 2.028 . S
Zn17 O16 2.028 . S
Zn17 O21 2.035 . S
Zn17 O23 2.035 . S
Zn17 O24 2.034 . S
O18 C14 1.258 . S
O18 Zn19 2.035 . S
Zn19 O18 2.035 . S
Zn19 O20 2.028 . S
Zn19 O22 2.028 . S
Zn19 O25 2.035 . S
O20 Zn19 2.028 . S
O20 C26 1.247 1_545 S
O21 Zn17 2.035 . S
O21 C26 1.258 . S
O22 C15 1.247 1_545 S
O22 Zn19 2.028 . S
O23 C15 1.258 . S
O23 Zn17 2.035 . S
O24 Zn17 2.034 . S
O24 C27 1.217 1_565 S
O25 Zn19 2.035 . S
O25 C27 1.258 . S
C26 O20 1.247 1_565 S
C26 O21 1.258 . S
C27 O24 1.217 1_545 S
C27 O25 1.258 . S
C28 O30 1.247 . S
C28 O32 1.258 . S
C29 O36 1.247 . S
C29 O37 1.258 . S
O30 C28 1.247 . S
O30 Zn31 2.028 . S
Zn31 O30 2.028 . S
Zn31 O35 2.035 . S
Zn31 O37 2.035 . S
Zn31 O38 2.028 . S
O32 C28 1.258 . S
O32 Zn33 2.035 . S
Zn33 O32 2.035 . S
Zn33 O34 2.028 . S
Zn33 O36 2.028 . S
Zn33 O39 2.035 . S
O34 Zn33 2.028 . S
O34 C40 1.247 . S
O35 Zn31 2.035 . S
O35 C40 1.258 . S
O36 C29 1.247 . S
O36 Zn33 2.028 . S
O37 C29 1.258 . S
O37 Zn31 2.035 . S
O38 Zn31 2.028 . S
O38 C41 1.247 . S
O39 Zn33 2.035 . S
O39 C41 1.258 . S
C40 O34 1.247 . S
C40 O35 1.258 . S
C41 O38 1.247 . S
C41 O39 1.258 . S
C42 O44 1.247 . S
C42 O46 1.258 . S
C43 O50 1.247 . S
C43 O51 1.258 1_655 S
O44 C42 1.247 . S
O44 Zn45 2.028 . S
Zn45 O44 2.028 . S
Zn45 O49 2.035 . S
Zn45 O51 2.035 . S
Zn45 O52 2.028 . S
O46 C42 1.258 . S
O46 Zn47 2.035 1_455 S
Zn47 O46 2.035 1_655 S
Zn47 O48 2.028 . S
Zn47 O50 2.028 . S
Zn47 O53 2.035 1_655 S
O48 Zn47 2.028 . S
O48 C54 1.247 . S
O49 Zn45 2.035 . S
O49 C54 1.258 1_455 S
O50 C43 1.247 . S
O50 Zn47 2.028 . S
O51 C43 1.258 1_455 S
O51 Zn45 2.035 . S
O52 Zn45 2.028 . S
O52 C55 1.247 . S
O53 Zn47 2.035 1_455 S
O53 C55 1.258 . S
C54 O48 1.247 . S
C54 O49 1.258 1_655 S
C55 O52 1.247 . S
C55 O53 1.258 . S
C56 O58 1.247 . S
C56 O60 1.258 . S
C57 O64 1.247 . S
C57 O65 1.258 . S
O58 C56 1.247 . S
O58 Zn59 2.028 . S
Zn59 O58 2.028 . S
Zn59 O63 2.035 . S
Zn59 O65 2.035 . S
Zn59 O66 2.028 . S
O60 C56 1.258 . S
O60 Zn61 2.035 . S
Zn61 O60 2.035 . S
Zn61 O62 2.028 . S
Zn61 O64 2.028 . S
Zn61 O67 2.035 . S
O62 Zn61 2.028 . S
O62 C68 1.247 . S
O63 Zn59 2.035 . S
O63 C68 1.258 . S
O64 C57 1.247 . S
O64 Zn61 2.028 . S
O65 C57 1.258 . S
O65 Zn59 2.035 . S
O66 Zn59 2.028 . S
O66 C69 1.247 . S
O67 Zn61 2.035 . S
O67 C69 1.258 . S
C68 O62 1.247 . S
C68 O63 1.258 . S
C69 O66 1.247 . S
C69 O67 1.258 . S
C70 O72 1.247 . S
C70 O74 1.258 . S
C71 O78 1.247 . S
C71 O79 1.258 . S
O72 C70 1.247 . S
O72 Zn73 2.028 . S
Zn73 O72 2.028 . S
Zn73 O77 2.035 . S
Zn73 O79 2.035 . S
Zn73 O80 2.028 . S
O74 C70 1.258 . S
O74 Zn75 2.035 . S
Zn75 O74 2.035 . S
Zn75 O76 2.028 . S
Zn75 O78 2.028 . S
Zn75 O81 2.035 . S
O76 Zn75 2.028 . S
O76 C82 1.247 . S
O77 Zn73 2.035 . S
O77 C82 1.258 . S
O78 C71 1.247 . S
O78 Zn75 2.028 . S
O79 C71 1.258 . S
O79 Zn73 2.035 . S
O80 Zn73 2.028 . S
O80 C83 1.247 . S
O81 Zn75 2.035 . S
O81 C83 1.258 . S
C82 O76 1.247 . S
C82 O77 1.258 . S
C83 O80 1.247 . S
C83 O81 1.258 . S
H84 O110 0.856 . S
H85 O113 0.854 . S
H86 C121 0.930 . S
H87 C122 0.930 . S
H88 C124 0.930 . S
H89 C125 0.930 . S
H90 C127 0.931 . S
H91 C128 0.930 . S
H92 C130 0.930 . S
H93 C131 0.929 . S
H94 C133 0.930 . S
H95 C134 0.931 . S
H96 C136 0.930 . S
H97 C137 0.929 . S
H98 C139 0.931 . S
H99 C140 0.930 . S
H100 C142 0.930 . S
H101 C143 0.932 . S
H102 C145 0.930 . S
H103 C146 0.929 . S
H104 C148 0.931 . S
H105 C149 0.930 . S
H106 C151 0.929 . S
H107 C152 0.931 . S
H108 C154 0.930 . S
H109 C155 0.929 . S
O110 H84 0.856 . S
O110 C156 1.300 . S
O111 C156 1.209 . S
O112 C157 1.199 . S
O113 H85 0.854 . S
O113 C157 1.297 . S
C114 C115 1.404 . S
C114 C119 1.397 . S
C114 C120 1.492 . S
C115 C114 1.404 . S
C115 C116 1.396 . S
C115 C126 1.492 . S
C116 C115 1.396 . S
C116 C117 1.397 . S
C116 C132 1.509 . S
C117 C116 1.397 . S
C117 C118 1.412 . S
C117 C138 1.485 . S
C118 C117 1.412 . S
C118 C119 1.388 . S
C118 C144 1.490 . S
C119 C114 1.397 . S
C119 C118 1.388 . S
C119 C150 1.519 . S
C120 C114 1.492 . S
C120 C121 1.363 . S
C120 C125 1.390 . S
C121 H86 0.930 . S
C121 C120 1.363 . S
C121 C122 1.372 . S
C122 H87 0.930 . S
C122 C121 1.372 . S
C122 C123 1.383 . S
C123 C122 1.383 . S
C123 C124 1.395 . S
C124 H88 0.930 . S
C124 C123 1.395 . S
C124 C125 1.362 . S
C125 H89 0.930 . S
C125 C120 1.390 . S
C125 C124 1.362 . S
C126 C115 1.492 . S
C126 C127 1.377 . S
C126 C131 1.397 . S
C127 H90 0.931 . S
C127 C126 1.377 . S
C127 C128 1.376 . S
C128 H91 0.930 . S
C128 C127 1.376 . S
C128 C129 1.376 . S
C129 C128 1.376 . S
C129 C130 1.378 . S
C129 C156 1.486 . S
C130 H92 0.930 . S
C130 C129 1.378 . S
C130 C131 1.376 . S
C131 H93 0.929 . S
C131 C126 1.397 . S
C131 C130 1.376 . S
C132 C116 1.509 . S
C132 C133 1.391 . S
C132 C137 1.386 . S
C133 H94 0.930 . S
C133 C132 1.391 . S
C133 C134 1.375 . S
C134 H95 0.931 . S
C134 C133 1.375 . S
C134 C135 1.375 . S
C135 C134 1.375 . S
C135 C136 1.361 . S
C136 H96 0.930 . S
C136 C135 1.361 . S
C136 C137 1.399 . S
C137 H97 0.929 . S
C137 C132 1.386 . S
C137 C136 1.399 . S
C138 C117 1.485 . S
C138 C139 1.394 . S
C138 C143 1.360 . S
C139 H98 0.931 . S
C139 C138 1.394 . S
C139 C140 1.372 . S
C140 H99 0.930 . S
C140 C139 1.372 . S
C140 C141 1.397 . S
C141 C140 1.397 . S
C141 C142 1.390 . S
C141 C157 1.476 . S
C142 H100 0.930 . S
C142 C141 1.390 . S
C142 C143 1.366 . S
C143 H101 0.932 . S
C143 C138 1.360 . S
C143 C142 1.366 . S
C144 C118 1.490 . S
C144 C145 1.380 . S
C144 C149 1.386 . S
C145 H102 0.930 . S
C145 C144 1.380 . S
C145 C146 1.381 . S
C146 H103 0.929 . S
C146 C145 1.381 . S
C146 C147 1.371 . S
C147 C146 1.371 . S
C147 C148 1.380 . S
C148 H104 0.931 . S
C148 C147 1.380 . S
C148 C149 1.387 . S
C149 H105 0.930 . S
C149 C144 1.386 . S
C149 C148 1.387 . S
C150 C119 1.519 . S
C150 C151 1.377 . S
C150 C155 1.361 . S
C151 H106 0.929 . S
C151 C150 1.377 . S
C151 C152 1.386 . S
C152 H107 0.931 . S
C152 C151 1.386 . S
C152 C153 1.363 . S
C153 C152 1.363 . S
C153 C154 1.385 . S
C154 H108 0.930 . S
C154 C153 1.385 . S
C154 C155 1.396 . S
C155 H109 0.929 . S
C155 C150 1.361 . S
C155 C154 1.396 . S
C156 O110 1.300 . S
C156 O111 1.209 . S
C156 C129 1.486 . S
C157 O112 1.199 . S
C157 O113 1.297 . S
C157 C141 1.476 . S
H158 O184 0.856 1_554 S
H159 O187 0.854 1_565 S
H160 C195 0.930 . S
H161 C196 0.930 . S
H162 C198 0.903 1_455 S
H163 C199 0.930 . S
H164 C201 0.931 . S
H165 C202 0.930 . S
H166 C204 0.930 . S
H167 C205 0.929 . S
H168 C207 0.930 . S
H169 C208 0.931 . S
H170 C210 0.930 . S
H171 C211 0.929 . S
H172 C213 0.931 . S
H173 C214 0.930 . S
H174 C216 0.930 . S
H175 C217 0.932 . S
H176 C219 0.930 . S
H177 C220 0.929 . S
H178 C222 0.931 . S
H179 C223 0.930 . S
H180 C225 0.929 . S
H181 C226 0.931 . S
H182 C228 0.930 . S
H183 C229 0.929 . S
O184 H158 0.856 1_556 S
O184 C230 1.300 . S
O185 C230 1.209 . S
O186 C231 1.199 . S
O187 H159 0.854 1_545 S
O187 C231 1.297 . S
C188 C189 1.404 . S
C188 C193 1.397 . S
C188 C194 1.492 . S
C189 C188 1.404 . S
C189 C190 1.396 . S
C189 C200 1.492 . S
C190 C189 1.396 . S
C190 C191 1.397 . S
C190 C206 1.509 . S
C191 C190 1.397 . S
C191 C192 1.412 . S
C191 C212 1.485 . S
C192 C191 1.412 . S
C192 C193 1.388 . S
C192 C218 1.490 . S
C193 C188 1.397 . S
C193 C192 1.388 . S
C193 C224 1.519 . S
C194 C188 1.492 . S
C194 C195 1.363 . S
C194 C199 1.390 . S
C195 H160 0.930 . S
C195 C194 1.363 . S
C195 C196 1.372 . S
C196 H161 0.930 . S
C196 C195 1.372 . S
C196 C197 1.383 . S
C197 C196 1.383 . S
C197 C198 1.410 . S
C198 H162 0.903 1_655 S
C198 C197 1.410 . S
C198 C199 1.373 . S
C199 H163 0.930 . S
C199 C194 1.390 . S
C199 C198 1.373 . S
C200 C189 1.492 . S
C200 C201 1.377 . S
C200 C205 1.397 . S
C201 H164 0.931 . S
C201 C200 1.377 . S
C201 C202 1.376 . S
C202 H165 0.930 . S
C202 C201 1.376 . S
C202 C203 1.376 . S
C203 C202 1.376 . S
C203 C204 1.378 . S
C203 C230 1.486 . S
C204 H166 0.930 . S
C204 C203 1.378 . S
C204 C205 1.376 . S
C205 H167 0.929 . S
C205 C200 1.397 . S
C205 C204 1.376 . S
C206 C190 1.509 . S
C206 C207 1.391 . S
C206 C211 1.386 . S
C207 H168 0.930 . S
C207 C206 1.391 . S
C207 C208 1.375 . S
C208 H169 0.931 . S
C208 C207 1.375 . S
C208 C209 1.375 . S
C209 C208 1.375 . S
C209 C210 1.361 . S
C210 H170 0.930 . S
C210 C209 1.361 . S
C210 C211 1.399 . S
C211 H171 0.929 . S
C211 C206 1.386 . S
C211 C210 1.399 . S
C212 C191 1.485 . S
C212 C213 1.394 . S
C212 C217 1.360 . S
C213 H172 0.931 . S
C213 C212 1.394 . S
C213 C214 1.372 . S
C214 H173 0.930 . S
C214 C213 1.372 . S
C214 C215 1.397 . S
C215 C214 1.397 . S
C215 C216 1.390 . S
C215 C231 1.476 . S
C216 H174 0.930 . S
C216 C215 1.390 . S
C216 C217 1.366 . S
C217 H175 0.932 . S
C217 C212 1.360 . S
C217 C216 1.366 . S
C218 C192 1.490 . S
C218 C219 1.380 . S
C218 C223 1.386 . S
C219 H176 0.930 . S
C219 C218 1.380 . S
C219 C220 1.381 . S
C220 H177 0.929 . S
C220 C219 1.381 . S
C220 C221 1.371 . S
C221 C220 1.371 . S
C221 C222 1.380 . S
C222 H178 0.931 . S
C222 C221 1.380 . S
C222 C223 1.387 . S
C223 H179 0.930 . S
C223 C218 1.386 . S
C223 C222 1.387 . S
C224 C193 1.519 . S
C224 C225 1.377 . S
C224 C229 1.361 . S
C225 H180 0.929 . S
C225 C224 1.377 . S
C225 C226 1.386 . S
C226 H181 0.931 . S
C226 C225 1.386 . S
C226 C227 1.363 . S
C227 C226 1.363 . S
C227 C228 1.385 . S
C228 H182 0.930 . S
C228 C227 1.385 . S
C228 C229 1.396 . S
C229 H183 0.929 . S
C229 C224 1.361 . S
C229 C228 1.396 . S
C230 O184 1.300 . S
C230 O185 1.209 . S
C230 C203 1.486 . S
C231 O186 1.199 . S
C231 O187 1.297 . S
C231 C215 1.476 . S
H232 O258 0.856 . S
H233 O261 0.854 . S
H234 C269 0.930 . S
H235 C270 0.930 . S
H236 C272 0.930 . S
H237 C273 0.930 . S
H238 C275 0.931 . S
H239 C276 0.930 . S
H240 C278 0.930 . S
H241 C279 0.929 . S
H242 C281 0.930 . S
H243 C282 0.931 . S
H244 C284 0.930 . S
H245 C285 0.929 . S
H246 C287 0.931 . S
H247 C288 0.930 . S
H248 C290 0.930 . S
H249 C291 0.932 . S
H250 C293 0.930 . S
H251 C294 0.929 . S
H252 C296 0.931 . S
H253 C297 0.930 . S
H254 C299 0.929 . S
H255 C300 0.931 . S
H256 C302 0.930 . S
H257 C303 0.929 . S
O258 H232 0.856 . S
O258 C304 1.300 . S
O259 C304 1.209 . S
O260 C305 1.199 . S
O261 H233 0.854 . S
O261 C305 1.297 1_545 S
C262 C263 1.404 . S
C262 C267 1.397 . S
C262 C268 1.492 . S
C263 C262 1.404 . S
C263 C264 1.396 . S
C263 C274 1.492 . S
C264 C263 1.396 . S
C264 C265 1.397 . S
C264 C280 1.509 . S
C265 C264 1.397 . S
C265 C266 1.412 . S
C265 C286 1.485 . S
C266 C265 1.412 . S
C266 C267 1.388 . S
C266 C292 1.490 . S
C267 C262 1.397 . S
C267 C266 1.388 . S
C267 C298 1.519 . S
C268 C262 1.492 . S
C268 C269 1.363 . S
C268 C273 1.390 . S
C269 H234 0.930 . S
C269 C268 1.363 . S
C269 C270 1.372 . S
C270 H235 0.930 . S
C270 C269 1.372 . S
C270 C271 1.383 . S
C271 C270 1.383 . S
C271 C272 1.395 . S
C272 H236 0.930 . S
C272 C271 1.395 . S
C272 C273 1.362 . S
C273 H237 0.930 . S
C273 C268 1.390 . S
C273 C272 1.362 . S
C274 C263 1.492 . S
C274 C275 1.377 . S
C274 C279 1.397 . S
C275 H238 0.931 . S
C275 C274 1.377 . S
C275 C276 1.376 . S
C276 H239 0.930 . S
C276 C275 1.376 . S
C276 C277 1.376 . S
C277 C276 1.376 . S
C277 C278 1.378 . S
C277 C304 1.486 . S
C278 H240 0.930 . S
C278 C277 1.378 . S
C278 C279 1.376 . S
C279 H241 0.929 . S
C279 C274 1.397 . S
C279 C278 1.376 . S
C280 C264 1.509 . S
C280 C281 1.391 . S
C280 C285 1.386 . S
C281 H242 0.930 . S
C281 C280 1.391 . S
C281 C282 1.375 . S
C282 H243 0.931 . S
C282 C281 1.375 . S
C282 C283 1.375 . S
C283 C282 1.375 . S
C283 C284 1.361 . S
C284 H244 0.930 . S
C284 C283 1.361 . S
C284 C285 1.399 . S
C285 H245 0.929 . S
C285 C280 1.386 . S
C285 C284 1.399 . S
C286 C265 1.485 . S
C286 C287 1.394 . S
C286 C291 1.360 . S
C287 H246 0.931 . S
C287 C286 1.394 . S
C287 C288 1.372 . S
C288 H247 0.930 . S
C288 C287 1.372 . S
C288 C289 1.397 . S
C289 C288 1.397 . S
C289 C290 1.390 . S
C289 C305 1.476 . S
C290 H248 0.930 . S
C290 C289 1.390 . S
C290 C291 1.366 . S
C291 H249 0.932 . S
C291 C286 1.360 . S
C291 C290 1.366 . S
C292 C266 1.490 . S
C292 C293 1.380 . S
C292 C297 1.386 . S
C293 H250 0.930 . S
C293 C292 1.380 . S
C293 C294 1.381 . S
C294 H251 0.929 . S
C294 C293 1.381 . S
C294 C295 1.371 . S
C295 C294 1.371 . S
C295 C296 1.380 . S
C296 H252 0.931 . S
C296 C295 1.380 . S
C296 C297 1.387 . S
C297 H253 0.930 . S
C297 C292 1.386 . S
C297 C296 1.387 . S
C298 C267 1.519 . S
C298 C299 1.377 . S
C298 C303 1.361 . S
C299 H254 0.929 . S
C299 C298 1.377 . S
C299 C300 1.386 . S
C300 H255 0.931 . S
C300 C299 1.386 . S
C300 C301 1.363 . S
C301 C300 1.363 . S
C301 C302 1.385 . S
C302 H256 0.930 . S
C302 C301 1.385 . S
C302 C303 1.396 . S
C303 H257 0.929 . S
C303 C298 1.361 . S
C303 C302 1.396 . S
C304 O258 1.300 . S
C304 O259 1.209 . S
C304 C277 1.486 . S
C305 O260 1.199 . S
C305 O261 1.297 1_565 S
C305 C289 1.476 . S
H306 O332 0.856 . S
H307 O335 0.854 . S
H308 C343 0.930 . S
H309 C344 0.930 . S
H310 C346 0.930 . S
H311 C347 0.930 . S
H312 C349 0.931 . S
H313 C350 0.930 . S
H314 C352 0.930 . S
H315 C353 0.929 . S
H316 C355 0.930 . S
H317 C356 0.931 . S
H318 C358 0.930 . S
H319 C359 0.929 . S
H320 C361 0.944 1_455 S
H321 C362 0.930 . S
H322 C364 0.930 . S
H323 C365 0.932 . S
H324 C367 0.930 . S
H325 C368 0.929 . S
H326 C370 0.931 . S
H327 C371 0.930 . S
H328 C373 0.929 . S
H329 C374 0.931 . S
H330 C376 0.930 . S
H331 C377 0.929 . S
O332 H306 0.856 . S
O332 C378 1.300 . S
O333 C378 1.209 . S
O334 C379 1.199 . S
O335 H307 0.854 . S
O335 C379 1.297 . S
C336 C337 1.404 . S
C336 C341 1.397 . S
C336 C342 1.492 . S
C337 C336 1.404 . S
C337 C338 1.396 . S
C337 C348 1.492 . S
C338 C337 1.396 . S
C338 C339 1.397 . S
C338 C354 1.509 . S
C339 C338 1.397 . S
C339 C340 1.412 . S
C339 C360 1.485 . S
C340 C339 1.412 . S
C340 C341 1.388 . S
C340 C366 1.490 . S
C341 C336 1.397 . S
C341 C340 1.388 . S
C341 C372 1.519 . S
C342 C336 1.492 . S
C342 C343 1.363 . S
C342 C347 1.390 . S
C343 H308 0.930 . S
C343 C342 1.363 . S
C343 C344 1.372 . S
C344 H309 0.930 . S
C344 C343 1.372 . S
C344 C345 1.383 . S
C345 C344 1.383 . S
C345 C346 1.395 . S
C346 H310 0.930 . S
C346 C345 1.395 . S
C346 C347 1.362 . S
C347 H311 0.930 . S
C347 C342 1.390 . S
C347 C346 1.362 . S
C348 C337 1.492 . S
C348 C349 1.377 . S
C348 C353 1.397 . S
C349 H312 0.931 . S
C349 C348 1.377 . S
C349 C350 1.376 . S
C350 H313 0.930 . S
C350 C349 1.376 . S
C350 C351 1.376 . S
C351 C350 1.376 . S
C351 C352 1.378 . S
C351 C378 1.486 . S
C352 H314 0.930 . S
C352 C351 1.378 . S
C352 C353 1.376 . S
C353 H315 0.929 . S
C353 C348 1.397 . S
C353 C352 1.376 . S
C354 C338 1.509 . S
C354 C355 1.391 . S
C354 C359 1.386 . S
C355 H316 0.930 . S
C355 C354 1.391 . S
C355 C356 1.375 . S
C356 H317 0.931 . S
C356 C355 1.375 . S
C356 C357 1.375 . S
C357 C356 1.375 . S
C357 C358 1.361 . S
C358 H318 0.930 . S
C358 C357 1.361 . S
C358 C359 1.399 . S
C359 H319 0.929 . S
C359 C354 1.386 . S
C359 C358 1.399 . S
C360 C339 1.485 . S
C360 C361 1.397 . S
C360 C365 1.360 . S
C361 H320 0.944 1_655 S
C361 C360 1.397 . S
C361 C362 1.366 1_655 S
C362 H321 0.930 . S
C362 C361 1.366 1_455 S
C362 C363 1.397 . S
C363 C362 1.397 . S
C363 C364 1.390 1_455 S
C363 C379 1.476 . S
C364 H322 0.930 . S
C364 C363 1.390 1_655 S
C364 C365 1.366 . S
C365 H323 0.932 . S
C365 C360 1.360 . S
C365 C364 1.366 . S
C366 C340 1.490 . S
C366 C367 1.380 . S
C366 C371 1.386 . S
C367 H324 0.930 . S
C367 C366 1.380 . S
C367 C368 1.381 . S
C368 H325 0.929 . S
C368 C367 1.381 . S
C368 C369 1.371 . S
C369 C368 1.371 . S
C369 C370 1.380 . S
C370 H326 0.931 . S
C370 C369 1.380 . S
C370 C371 1.387 . S
C371 H327 0.930 . S
C371 C366 1.386 . S
C371 C370 1.387 . S
C372 C341 1.519 . S
C372 C373 1.377 . S
C372 C377 1.361 . S
C373 H328 0.929 . S
C373 C372 1.377 . S
C373 C374 1.386 . S
C374 H329 0.931 . S
C374 C373 1.386 . S
C374 C375 1.363 . S
C375 C374 1.363 . S
C375 C376 1.385 . S
C376 H330 0.930 . S
C376 C375 1.385 . S
C376 C377 1.396 . S
C377 H331 0.929 . S
C377 C372 1.361 . S
C377 C376 1.396 . S
C378 O332 1.300 . S
C378 O333 1.209 . S
C378 C351 1.486 . S
C379 O334 1.199 . S
C379 O335 1.297 . S
C379 C363 1.476 . S
H380 O406 0.856 . S
H381 O409 0.854 . S
H382 C417 0.930 . S
H383 C418 0.930 . S
H384 C420 0.930 . S
H385 C421 0.930 . S
H386 C423 0.931 . S
H387 C424 0.930 . S
H388 C426 0.930 . S
H389 C427 0.929 . S
H390 C429 0.930 . S
H391 C430 0.931 . S
H392 C432 0.930 . S
H393 C433 0.929 . S
H394 C435 0.931 . S
H395 C436 0.930 . S
H396 C438 0.930 . S
H397 C439 0.932 . S
H398 C441 0.930 . S
H399 C442 0.929 . S
H400 C444 0.931 . S
H401 C445 0.930 . S
H402 C447 0.929 . S
H403 C448 0.931 . S
H404 C450 0.930 . S
H405 C451 0.929 . S
O406 H380 0.856 . S
O406 C452 1.300 . S
O407 C452 1.209 . S
O408 C453 1.199 . S
O409 H381 0.854 . S
O409 C453 1.297 . S
C410 C411 1.404 . S
C410 C415 1.397 . S
C410 C416 1.492 . S
C411 C410 1.404 . S
C411 C412 1.396 . S
C411 C422 1.492 . S
C412 C411 1.396 . S
C412 C413 1.397 . S
C412 C428 1.509 . S
C413 C412 1.397 . S
C413 C414 1.412 . S
C413 C434 1.485 . S
C414 C413 1.412 . S
C414 C415 1.388 . S
C414 C440 1.490 . S
C415 C410 1.397 . S
C415 C414 1.388 . S
C415 C446 1.519 . S
C416 C410 1.492 . S
C416 C417 1.363 . S
C416 C421 1.390 . S
C417 H382 0.930 . S
C417 C416 1.363 . S
C417 C418 1.372 . S
C418 H383 0.930 . S
C418 C417 1.372 . S
C418 C419 1.383 . S
C419 C418 1.383 . S
C419 C420 1.395 . S
C420 H384 0.930 . S
C420 C419 1.395 . S
C420 C421 1.362 . S
C421 H385 0.930 . S
C421 C416 1.390 . S
C421 C420 1.362 . S
C422 C411 1.492 . S
C422 C423 1.377 . S
C422 C427 1.397 . S
C423 H386 0.931 . S
C423 C422 1.377 . S
C423 C424 1.376 . S
C424 H387 0.930 . S
C424 C423 1.376 . S
C424 C425 1.376 . S
C425 C424 1.376 . S
C425 C426 1.378 . S
C425 C452 1.486 . S
C426 H388 0.930 . S
C426 C425 1.378 . S
C426 C427 1.376 . S
C427 H389 0.929 . S
C427 C422 1.397 . S
C427 C426 1.376 . S
C428 C412 1.509 . S
C428 C429 1.391 . S
C428 C433 1.386 . S
C429 H390 0.930 . S
C429 C428 1.391 . S
C429 C430 1.375 . S
C430 H391 0.931 . S
C430 C429 1.375 . S
C430 C431 1.375 . S
C431 C430 1.375 . S
C431 C432 1.361 . S
C432 H392 0.930 . S
C432 C431 1.361 . S
C432 C433 1.399 . S
C433 H393 0.929 . S
C433 C428 1.386 . S
C433 C432 1.399 . S
C434 C413 1.485 . S
C434 C435 1.394 . S
C434 C439 1.360 . S
C435 H394 0.931 . S
C435 C434 1.394 . S
C435 C436 1.372 . S
C436 H395 0.930 . S
C436 C435 1.372 . S
C436 C437 1.397 . S
C437 C436 1.397 . S
C437 C438 1.390 . S
C437 C453 1.476 . S
C438 H396 0.930 . S
C438 C437 1.390 . S
C438 C439 1.366 . S
C439 H397 0.932 . S
C439 C434 1.360 . S
C439 C438 1.366 . S
C440 C414 1.490 . S
C440 C441 1.380 . S
C440 C445 1.386 . S
C441 H398 0.930 . S
C441 C440 1.380 . S
C441 C442 1.381 . S
C442 H399 0.929 . S
C442 C441 1.381 . S
C442 C443 1.371 . S
C443 C442 1.371 . S
C443 C444 1.380 . S
C444 H400 0.931 . S
C444 C443 1.380 . S
C444 C445 1.387 . S
C445 H401 0.930 . S
C445 C440 1.386 . S
C445 C444 1.387 . S
C446 C415 1.519 . S
C446 C447 1.377 . S
C446 C451 1.361 . S
C447 H402 0.929 . S
C447 C446 1.377 . S
C447 C448 1.386 . S
C448 H403 0.931 . S
C448 C447 1.386 . S
C448 C449 1.363 . S
C449 C448 1.363 . S
C449 C450 1.385 . S
C450 H404 0.930 . S
C450 C449 1.385 . S
C450 C451 1.396 . S
C451 H405 0.929 . S
C451 C446 1.361 . S
C451 C450 1.396 . S
C452 O406 1.300 . S
C452 O407 1.209 . S
C452 C425 1.486 . S
C453 O408 1.199 . S
C453 O409 1.297 . S
C453 C437 1.476 . S
H454 O480 0.856 . S
H455 O483 0.887 . S
H456 C491 0.930 . S
H457 C492 0.930 . S
H458 C494 0.930 . S
H459 C495 0.930 . S
H460 C497 0.931 . S
H461 C498 0.930 . S
H462 C500 0.930 . S
H463 C501 0.929 . S
H464 C503 0.930 . S
H465 C504 0.931 . S
H466 C506 0.930 . S
H467 C507 0.929 . S
H468 C509 0.931 . S
H469 C510 0.930 . S
H470 C512 0.930 . S
H471 C513 0.932 . S
H472 C515 0.930 . S
H473 C516 0.929 . S
H474 C518 0.931 . S
H475 C519 0.930 . S
H476 C521 0.929 . S
H477 C522 0.931 . S
H478 C524 0.930 . S
H479 C525 0.929 . S
O480 H454 0.856 . S
O480 C526 1.300 . S
O481 C526 1.209 . S
O482 C527 1.199 . S
O483 H455 0.887 . S
O483 C527 1.297 . S
C484 C485 1.404 . S
C484 C489 1.397 . S
C484 C490 1.492 . S
C485 C484 1.404 . S
C485 C486 1.396 . S
C485 C496 1.492 . S
C486 C485 1.396 . S
C486 C487 1.397 . S
C486 C502 1.509 . S
C487 C486 1.397 . S
C487 C488 1.412 . S
C487 C508 1.485 . S
C488 C487 1.412 . S
C488 C489 1.388 . S
C488 C514 1.490 . S
C489 C484 1.397 . S
C489 C488 1.388 . S
C489 C520 1.519 . S
C490 C484 1.492 . S
C490 C491 1.363 . S
C490 C495 1.390 . S
C491 H456 0.930 . S
C491 C490 1.363 . S
C491 C492 1.372 . S
C492 H457 0.930 . S
C492 C491 1.372 . S
C492 C493 1.383 . S
C493 C492 1.383 . S
C493 C494 1.395 . S
C494 H458 0.930 . S
C494 C493 1.395 . S
C494 C495 1.362 . S
C495 H459 0.930 . S
C495 C490 1.390 . S
C495 C494 1.362 . S
C496 C485 1.492 . S
C496 C497 1.377 . S
C496 C501 1.397 . S
C497 H460 0.931 . S
C497 C496 1.377 . S
C497 C498 1.376 . S
C498 H461 0.930 . S
C498 C497 1.376 . S
C498 C499 1.376 . S
C499 C498 1.376 . S
C499 C500 1.378 . S
C499 C526 1.486 . S
C500 H462 0.930 . S
C500 C499 1.378 . S
C500 C501 1.376 . S
C501 H463 0.929 . S
C501 C496 1.397 . S
C501 C500 1.376 . S
C502 C486 1.509 . S
C502 C503 1.391 . S
C502 C507 1.386 . S
C503 H464 0.930 . S
C503 C502 1.391 . S
C503 C504 1.375 . S
C504 H465 0.931 . S
C504 C503 1.375 . S
C504 C505 1.375 . S
C505 C504 1.375 . S
C505 C506 1.361 . S
C506 H466 0.930 . S
C506 C505 1.361 . S
C506 C507 1.399 . S
C507 H467 0.929 . S
C507 C502 1.386 . S
C507 C506 1.399 . S
C508 C487 1.485 . S
C508 C509 1.394 . S
C508 C513 1.360 . S
C509 H468 0.931 . S
C509 C508 1.394 . S
C509 C510 1.372 . S
C510 H469 0.930 . S
C510 C509 1.372 . S
C510 C511 1.397 . S
C511 C510 1.397 . S
C511 C512 1.390 . S
C511 C527 1.476 . S
C512 H470 0.930 . S
C512 C511 1.390 . S
C512 C513 1.366 . S
C513 H471 0.932 . S
C513 C508 1.360 . S
C513 C512 1.366 . S
C514 C488 1.490 . S
C514 C515 1.380 . S
C514 C519 1.386 . S
C515 H472 0.930 . S
C515 C514 1.380 . S
C515 C516 1.381 . S
C516 H473 0.929 . S
C516 C515 1.381 . S
C516 C517 1.371 . S
C517 C516 1.371 . S
C517 C518 1.380 . S
C518 H474 0.931 . S
C518 C517 1.380 . S
C518 C519 1.387 . S
C519 H475 0.930 . S
C519 C514 1.386 . S
C519 C518 1.387 . S
C520 C489 1.519 . S
C520 C521 1.377 . S
C520 C525 1.361 . S
C521 H476 0.929 . S
C521 C520 1.377 . S
C521 C522 1.386 . S
C522 H477 0.931 . S
C522 C521 1.386 . S
C522 C523 1.363 . S
C523 C522 1.363 . S
C523 C524 1.385 . S
C524 H478 0.930 . S
C524 C523 1.385 . S
C524 C525 1.396 . S
C525 H479 0.929 . S
C525 C520 1.361 . S
C525 C524 1.396 . S
C526 O480 1.300 . S
C526 O481 1.209 . S
C526 C499 1.486 . S
C527 O482 1.199 . S
C527 O483 1.297 . S
C527 C511 1.476 . S
H528 C536 0.950 . S
H529 C541 0.950 . S
H530 C538 0.950 . S
H531 C540 0.950 . S
H532 C542 0.950 . S
H533 C544 0.950 . S
H534 C546 0.950 . S
H535 C547 0.950 . S
C536 H528 0.950 . S
C536 C537 1.386 . S
C536 C538 1.391 . S
C537 C536 1.386 . S
C537 C541 1.393 . S
C538 H530 0.950 . S
C538 C536 1.391 . S
C538 C539 1.400 . S
C539 C538 1.400 . S
C539 C540 1.398 . S
C539 C545 1.491 . S
C540 H531 0.950 . S
C540 C539 1.398 . S
C540 C541 1.391 . S
C541 H529 0.950 . S
C541 C537 1.393 . S
C541 C540 1.391 . S
C542 H532 0.950 . S
C542 C543 1.386 . S
C542 C544 1.391 . S
C543 C542 1.386 . S
C543 C547 1.393 . S
C544 H533 0.950 . S
C544 C542 1.391 . S
C544 C545 1.400 . S
C545 C539 1.491 . S
C545 C544 1.400 . S
C545 C546 1.398 . S
C546 H534 0.950 . S
C546 C545 1.398 . S
C546 C547 1.391 . S
C547 H535 0.950 . S
C547 C543 1.393 . S
C547 C546 1.391 . S
H548 C556 0.950 . S
H549 C561 0.950 . S
H550 C558 0.950 . S
H551 C560 0.950 . S
H552 C562 0.950 . S
H553 C564 0.950 . S
H554 C566 0.950 . S
H555 C567 0.950 . S
C556 H548 0.950 . S
C556 C557 1.386 . S
C556 C558 1.391 . S
C557 C556 1.386 . S
C557 C561 1.393 . S
C558 H550 0.950 . S
C558 C556 1.391 . S
C558 C559 1.400 . S
C559 C558 1.400 . S
C559 C560 1.398 . S
C559 C565 1.491 . S
C560 H551 0.950 . S
C560 C559 1.398 . S
C560 C561 1.391 . S
C561 H549 0.950 . S
C561 C557 1.393 . S
C561 C560 1.391 . S
C562 H552 0.950 . S
C562 C563 1.386 . S
C562 C564 1.391 . S
C563 C562 1.386 . S
C563 C567 1.393 . S
C564 H553 0.950 . S
C564 C562 1.391 . S
C564 C565 1.400 . S
C565 C559 1.491 . S
C565 C564 1.400 . S
C565 C566 1.398 . S
C566 H554 0.950 . S
C566 C565 1.398 . S
C566 C567 1.391 . S
C567 H555 0.950 . S
C567 C563 1.393 . S
C567 C566 1.391 . S
H568 C576 0.950 . S
H569 C581 0.950 . S
H570 C578 0.950 . S
H571 C580 0.950 . S
H572 C582 0.950 . S
H573 C584 0.950 . S
H574 C586 0.950 . S
H575 C587 0.950 . S
C576 H568 0.950 . S
C576 C577 1.386 . S
C576 C578 1.391 . S
C577 C576 1.386 . S
C577 C581 1.393 . S
C578 H570 0.950 . S
C578 C576 1.391 . S
C578 C579 1.400 . S
C579 C578 1.400 . S
C579 C580 1.398 . S
C579 C585 1.491 . S
C580 H571 0.950 . S
C580 C579 1.398 . S
C580 C581 1.391 . S
C581 H569 0.950 . S
C581 C577 1.393 . S
C581 C580 1.391 . S
C582 H572 0.950 . S
C582 C583 1.386 . S
C582 C584 1.391 . S
C583 C582 1.386 . S
C583 C587 1.393 . S
C584 H573 0.950 . S
C584 C582 1.391 . S
C584 C585 1.400 . S
C585 C579 1.491 . S
C585 C584 1.400 . S
C585 C586 1.398 . S
C586 H574 0.950 . S
C586 C585 1.398 . S
C586 C587 1.391 . S
C587 H575 0.950 . S
C587 C583 1.393 . S
C587 C586 1.391 . S
H588 C596 0.950 . S
H589 C601 0.935 1_455 S
H590 C598 0.950 . S
H591 C600 0.950 . S
H592 C602 0.948 1_455 S
H593 C604 0.934 1_455 S
H594 C606 0.950 . S
H595 C607 0.950 . S
C596 H588 0.950 . S
C596 C597 1.386 . S
C596 C598 1.391 . S
C597 C596 1.386 . S
C597 C601 1.393 . S
C598 H590 0.950 . S
C598 C596 1.391 . S
C598 C599 1.400 . S
C599 C598 1.400 . S
C599 C600 1.398 . S
C599 C605 1.491 . S
C600 H591 0.950 . S
C600 C599 1.398 . S
C600 C601 1.391 . S
C601 H589 0.935 1_655 S
C601 C597 1.393 . S
C601 C600 1.391 . S
C602 H592 0.948 1_655 S
C602 C603 1.386 . S
C602 C604 1.391 . S
C603 C602 1.386 . S
C603 C607 1.393 . S
C604 H593 0.934 1_655 S
C604 C602 1.391 . S
C604 C605 1.400 . S
C605 C599 1.491 . S
C605 C604 1.400 . S
C605 C606 1.398 . S
C606 H594 0.950 . S
C606 C605 1.398 . S
C606 C607 1.391 . S
C607 H595 0.950 . S
C607 C603 1.393 . S
C607 C606 1.391 . S
H608 C616 0.950 . S
H609 C621 0.950 . S
H610 C618 0.950 . S
H611 C620 0.950 . S
H612 C622 0.950 . S
H613 C624 0.950 . S
H614 C626 0.950 . S
H615 C627 0.950 . S
C616 H608 0.950 . S
C616 C617 1.386 . S
C616 C618 1.391 1_545 S
C617 C616 1.386 . S
C617 C621 1.393 1_545 S
C618 H610 0.950 . S
C618 C616 1.391 1_565 S
C618 C619 1.400 . S
C619 C618 1.400 . S
C619 C620 1.398 . S
C619 C625 1.491 . S
C620 H611 0.950 . S
C620 C619 1.398 . S
C620 C621 1.391 . S
C621 H609 0.950 . S
C621 C617 1.393 1_565 S
C621 C620 1.391 . S
C622 H612 0.950 . S
C622 C623 1.386 . S
C622 C624 1.391 . S
C623 C622 1.386 . S
C623 C627 1.393 . S
C624 H613 0.950 . S
C624 C622 1.391 . S
C624 C625 1.400 . S
C625 C619 1.491 . S
C625 C624 1.400 . S
C625 C626 1.398 . S
C626 H614 0.950 . S
C626 C625 1.398 . S
C626 C627 1.391 . S
C627 H615 0.950 . S
C627 C623 1.393 . S
C627 C626 1.391 . S
H628 C636 0.950 . S
H629 C641 0.950 . S
H630 C638 0.950 . S
H631 C640 0.950 . S
H632 C642 0.950 . S
H633 C644 0.950 . S
H634 C646 0.950 . S
H635 C647 0.950 . S
C636 H628 0.950 . S
C636 C637 1.386 . S
C636 C638 1.391 . S
C637 C636 1.386 . S
C637 C641 1.393 . S
C638 H630 0.950 . S
C638 C636 1.391 . S
C638 C639 1.400 . S
C639 C638 1.400 . S
C639 C640 1.398 . S
C639 C645 1.491 . S
C640 H631 0.950 . S
C640 C639 1.398 . S
C640 C641 1.391 . S
C641 H629 0.950 . S
C641 C637 1.393 . S
C641 C640 1.391 . S
C642 H632 0.950 . S
C642 C643 1.386 . S
C642 C644 1.391 . S
C643 C642 1.386 . S
C643 C647 1.393 . S
C644 H633 0.950 . S
C644 C642 1.391 . S
C644 C645 1.400 . S
C645 C639 1.491 . S
C645 C644 1.400 . S
C645 C646 1.398 . S
C646 H634 0.950 . S
C646 C645 1.398 . S
C646 C647 1.391 . S
C647 H635 0.950 . S
C647 C643 1.393 . S
C647 C646 1.391 . S
H648 C656 0.950 . S
H649 C661 0.950 . S
H650 C658 0.950 . S
H651 C660 0.950 . S
H652 C662 0.950 . S
H653 C664 0.950 . S
H654 C666 0.950 . S
H655 C667 0.950 . S
C656 H648 0.950 . S
C656 C657 1.386 . S
C656 C658 1.391 . S
C657 C656 1.386 . S
C657 C661 1.393 . S
C658 H650 0.950 . S
C658 C656 1.391 . S
C658 C659 1.400 . S
C659 C658 1.400 . S
C659 C660 1.398 . S
C659 C665 1.491 . S
C660 H651 0.950 . S
C660 C659 1.398 . S
C660 C661 1.391 . S
C661 H649 0.950 . S
C661 C657 1.393 . S
C661 C660 1.391 . S
C662 H652 0.950 . S
C662 C663 1.386 . S
C662 C664 1.391 . S
C663 C662 1.386 . S
C663 C667 1.393 . S
C664 H653 0.950 . S
C664 C662 1.391 . S
C664 C665 1.400 . S
C665 C659 1.491 . S
C665 C664 1.400 . S
C665 C666 1.398 . S
C666 H654 0.950 . S
C666 C665 1.398 . S
C666 C667 1.391 . S
C667 H655 0.950 . S
C667 C663 1.393 . S
C667 C666 1.391 . S
H668 C676 0.950 . S
H669 C681 0.950 . S
H670 C678 0.950 . S
H671 C680 0.950 . S
H672 C682 0.950 . S
H673 C684 0.950 . S
H674 C686 0.950 . S
H675 C687 0.950 . S
C676 H668 0.950 . S
C676 C677 1.386 . S
C676 C678 1.391 1_554 S
C677 C676 1.386 . S
C677 C681 1.393 . S
C678 H670 0.950 . S
C678 C676 1.391 1_556 S
C678 C679 1.400 . S
C679 C678 1.400 . S
C679 C680 1.398 1_556 S
C679 C685 1.491 . S
C680 H671 0.950 . S
C680 C679 1.398 1_554 S
C680 C681 1.391 . S
C681 H669 0.950 . S
C681 C677 1.393 . S
C681 C680 1.391 . S
C682 H672 0.950 . S
C682 C683 1.386 . S
C682 C684 1.391 . S
C683 C682 1.386 . S
C683 C687 1.393 . S
C684 H673 0.950 . S
C684 C682 1.391 . S
C684 C685 1.400 . S
C685 C679 1.491 . S
C685 C684 1.400 . S
C685 C686 1.398 . S
C686 H674 0.950 . S
C686 C685 1.398 . S
C686 C687 1.391 . S
C687 H675 0.950 . S
C687 C683 1.393 . S
C687 C686 1.391 . S
H688 C696 0.950 . S
H689 C701 0.950 . S
H690 C698 0.950 . S
H691 C700 0.950 . S
H692 C702 0.950 . S
H693 C704 0.950 . S
H694 C706 0.950 . S
H695 C707 0.950 . S
C696 H688 0.950 . S
C696 C697 1.386 . S
C696 C698 1.391 . S
C697 C696 1.386 . S
C697 C701 1.393 . S
C698 H690 0.950 . S
C698 C696 1.391 . S
C698 C699 1.400 . S
C699 C698 1.400 . S
C699 C700 1.398 . S
C699 C705 1.491 . S
C700 H691 0.950 . S
C700 C699 1.398 . S
C700 C701 1.391 . S
C701 H689 0.950 . S
C701 C697 1.393 . S
C701 C700 1.391 . S
C702 H692 0.950 . S
C702 C703 1.386 . S
C702 C704 1.391 . S
C703 C702 1.386 . S
C703 C707 1.393 . S
C704 H693 0.950 . S
C704 C702 1.391 . S
C704 C705 1.400 . S
C705 C699 1.491 . S
C705 C704 1.400 . S
C705 C706 1.398 . S
C706 H694 0.950 . S
C706 C705 1.398 . S
C706 C707 1.391 . S
C707 H695 0.950 . S
C707 C703 1.393 . S
C707 C706 1.391 . S
H708 C716 0.950 . S
H709 C721 0.950 . S
H710 C718 0.950 . S
H711 C720 0.950 . S
H712 C722 0.950 . S
H713 C724 0.950 . S
H714 C726 0.950 1_554 S
H715 C727 0.950 . S
C716 H708 0.950 . S
C716 C717 1.386 . S
C716 C718 1.391 . S
C717 C716 1.386 . S
C717 C721 1.393 . S
C718 H710 0.950 . S
C718 C716 1.391 . S
C718 C719 1.400 . S
C719 C718 1.400 . S
C719 C720 1.398 1_554 S
C719 C725 1.491 1_554 S
C720 H711 0.950 . S
C720 C719 1.398 1_556 S
C720 C721 1.391 1_556 S
C721 H709 0.950 . S
C721 C717 1.393 . S
C721 C720 1.391 1_554 S
C722 H712 0.950 . S
C722 C723 1.386 . S
C722 C724 1.391 . S
C723 C722 1.386 . S
C723 C727 1.393 . S
C724 H713 0.950 . S
C724 C722 1.391 . S
C724 C725 1.400 . S
C725 C719 1.491 1_556 S
C725 C724 1.400 . S
C725 C726 1.398 . S
C726 H714 0.950 1_556 S
C726 C725 1.398 . S
C726 C727 1.391 . S
C727 H715 0.950 . S
C727 C723 1.393 . S
C727 C726 1.391 . S
H728 C736 0.950 . S
H729 C741 0.950 . S
H730 C738 0.950 . S
H731 C740 0.950 . S
H732 C742 0.950 . S
H733 C744 0.950 . S
H734 C746 0.950 . S
H735 C747 0.950 . S
C736 H728 0.950 . S
C736 C737 1.386 . S
C736 C738 1.391 . S
C737 C736 1.386 . S
C737 C741 1.393 . S
C738 H730 0.950 . S
C738 C736 1.391 . S
C738 C739 1.400 . S
C739 C738 1.400 . S
C739 C740 1.398 . S
C739 C745 1.491 . S
C740 H731 0.950 . S
C740 C739 1.398 . S
C740 C741 1.391 . S
C741 H729 0.950 . S
C741 C737 1.393 . S
C741 C740 1.391 . S
C742 H732 0.950 . S
C742 C743 1.386 . S
C742 C744 1.391 . S
C743 C742 1.386 . S
C743 C747 1.393 . S
C744 H733 0.950 . S
C744 C742 1.391 . S
C744 C745 1.400 . S
C745 C739 1.491 . S
C745 C744 1.400 . S
C745 C746 1.398 . S
C746 H734 0.950 . S
C746 C745 1.398 . S
C746 C747 1.391 . S
C747 H735 0.950 . S
C747 C743 1.393 . S
C747 C746 1.391 . S
H748 C756 0.950 . S
H749 C761 0.950 . S
H750 C758 0.950 . S
H751 C760 0.950 . S
H752 C762 0.950 . S
H753 C764 0.950 . S
H754 C766 0.950 . S
H755 C767 0.950 . S
C756 H748 0.950 . S
C756 C757 1.386 . S
C756 C758 1.391 . S
C757 C756 1.386 . S
C757 C761 1.393 . S
C758 H750 0.950 . S
C758 C756 1.391 . S
C758 C759 1.400 . S
C759 C758 1.400 . S
C759 C760 1.398 . S
C759 C765 1.491 . S
C760 H751 0.950 . S
C760 C759 1.398 . S
C760 C761 1.391 . S
C761 H749 0.950 . S
C761 C757 1.393 . S
C761 C760 1.391 . S
C762 H752 0.950 . S
C762 C763 1.386 . S
C762 C764 1.391 . S
C763 C762 1.386 . S
C763 C767 1.393 . S
C764 H753 0.950 . S
C764 C762 1.391 . S
C764 C765 1.400 . S
C765 C759 1.491 . S
C765 C764 1.400 . S
C765 C766 1.398 . S
C766 H754 0.950 . S
C766 C765 1.398 . S
C766 C767 1.391 . S
C767 H755 0.950 . S
C767 C763 1.393 . S
C767 C766 1.391 . S
H768 C776 0.950 . S
H769 C781 0.950 . S
H770 C778 0.950 . S
H771 C780 0.950 . S
H772 C782 0.950 . S
H773 C784 0.950 . S
H774 C786 0.950 . S
H775 C787 0.950 . S
C776 H768 0.950 . S
C776 C777 1.386 . S
C776 C778 1.391 . S
C777 C776 1.386 . S
C777 C781 1.393 . S
C778 H770 0.950 . S
C778 C776 1.391 . S
C778 C779 1.400 . S
C779 C778 1.400 . S
C779 C780 1.398 . S
C779 C785 1.491 . S
C780 H771 0.950 . S
C780 C779 1.398 . S
C780 C781 1.391 . S
C781 H769 0.950 . S
C781 C777 1.393 . S
C781 C780 1.391 . S
C782 H772 0.950 . S
C782 C783 1.386 . S
C782 C784 1.391 . S
C783 C782 1.386 . S
C783 C787 1.393 1_455 S
C784 H773 0.950 . S
C784 C782 1.391 . S
C784 C785 1.400 . S
C785 C779 1.491 . S
C785 C784 1.400 . S
C785 C786 1.398 . S
C786 H774 0.950 . S
C786 C785 1.398 . S
C786 C787 1.391 1_455 S
C787 H775 0.950 . S
C787 C783 1.393 1_655 S
C787 C786 1.391 1_655 S
H788 C796 0.950 1_545 S
H789 C801 0.950 . S
H790 C798 0.950 . S
H791 C800 0.950 . S
H792 C802 0.950 . S
H793 C804 0.950 . S
H794 C806 0.950 . S
H795 C807 0.950 . S
C796 H788 0.950 1_565 S
C796 C797 1.386 . S
C796 C798 1.391 . S
C797 C796 1.386 . S
C797 C801 1.393 . S
C798 H790 0.950 . S
C798 C796 1.391 . S
C798 C799 1.400 . S
C799 C798 1.400 . S
C799 C800 1.398 . S
C799 C805 1.491 . S
C800 H791 0.950 . S
C800 C799 1.398 . S
C800 C801 1.391 . S
C801 H789 0.950 . S
C801 C797 1.393 . S
C801 C800 1.391 . S
C802 H792 0.950 . S
C802 C803 1.386 . S
C802 C804 1.391 . S
C803 C802 1.386 . S
C803 C807 1.393 . S
C804 H793 0.950 . S
C804 C802 1.391 . S
C804 C805 1.400 . S
C805 C799 1.491 . S
C805 C804 1.400 . S
C805 C806 1.398 . S
C806 H794 0.950 . S
C806 C805 1.398 . S
C806 C807 1.391 . S
C807 H795 0.950 . S
C807 C803 1.393 . S
C807 C806 1.391 . S
H808 C816 0.950 . S
H809 C821 0.950 . S
H810 C818 0.950 . S
H811 C820 0.950 . S
H812 C822 0.950 . S
H813 C824 0.950 . S
H814 C826 0.950 . S
H815 C827 0.950 . S
C816 H808 0.950 . S
C816 C817 1.386 . S
C816 C818 1.391 1_554 S
C817 C816 1.386 . S
C817 C821 1.393 . S
C818 H810 0.950 . S
C818 C816 1.391 1_556 S
C818 C819 1.400 . S
C819 C818 1.400 . S
C819 C820 1.398 . S
C819 C825 1.491 . S
C820 H811 0.950 . S
C820 C819 1.398 . S
C820 C821 1.391 1_556 S
C821 H809 0.950 . S
C821 C817 1.393 . S
C821 C820 1.391 1_554 S
C822 H812 0.950 . S
C822 C823 1.386 . S
C822 C824 1.391 . S
C823 C822 1.386 . S
C823 C827 1.393 . S
C824 H813 0.950 . S
C824 C822 1.391 . S
C824 C825 1.400 . S
C825 C819 1.491 . S
C825 C824 1.400 . S
C825 C826 1.398 . S
C826 H814 0.950 . S
C826 C825 1.398 . S
C826 C827 1.391 . S
C827 H815 0.950 . S
C827 C823 1.393 . S
C827 C826 1.391 . S
H828 C836 0.950 . S
H829 C841 0.950 . S
H830 C838 0.950 . S
H831 C840 0.950 . S
H832 C842 0.950 . S
H833 C844 0.950 . S
H834 C846 0.950 . S
H835 C847 0.950 . S
C836 H828 0.950 . S
C836 C837 1.386 . S
C836 C838 1.391 . S
C837 C836 1.386 . S
C837 C841 1.393 . S
C838 H830 0.950 . S
C838 C836 1.391 . S
C838 C839 1.400 . S
C839 C838 1.400 . S
C839 C840 1.398 . S
C839 C845 1.491 . S
C840 H831 0.950 . S
C840 C839 1.398 . S
C840 C841 1.391 . S
C841 H829 0.950 . S
C841 C837 1.393 . S
C841 C840 1.391 . S
C842 H832 0.950 . S
C842 C843 1.386 . S
C842 C844 1.391 . S
C843 C842 1.386 . S
C843 C847 1.393 . S
C844 H833 0.950 . S
C844 C842 1.391 . S
C844 C845 1.400 . S
C845 C839 1.491 . S
C845 C844 1.400 . S
C845 C846 1.398 . S
C846 H834 0.950 . S
C846 C845 1.398 . S
C846 C847 1.391 . S
C847 H835 0.950 . S
C847 C843 1.393 . S
C847 C846 1.391 . S
H848 C856 0.950 . S
H849 C861 0.950 . S
H850 C858 0.949 . S
H851 C860 0.950 . S
H852 C862 0.950 . S
H853 C864 0.981 . S
H854 C866 0.950 . S
H855 C867 0.950 . S
C856 H848 0.950 . S
C856 C857 1.386 . S
C856 C858 1.392 1_554 S
C857 C856 1.386 . S
C857 C861 1.393 . S
C858 H850 0.949 . S
C858 C856 1.392 1_556 S
C858 C859 1.400 1_556 S
C859 C858 1.400 1_554 S
C859 C860 1.398 . S
C859 C865 1.491 1_554 S
C860 H851 0.950 . S
C860 C859 1.398 . S
C860 C861 1.391 . S
C861 H849 0.950 . S
C861 C857 1.393 . S
C861 C860 1.391 . S
C862 H852 0.950 . S
C862 C863 1.386 . S
C862 C864 1.370 1_556 S
C863 C862 1.386 . S
C863 C867 1.393 . S
C864 H853 0.981 . S
C864 C862 1.370 1_554 S
C864 C865 1.392 1_554 S
C865 C859 1.491 1_556 S
C865 C864 1.392 1_556 S
C865 C866 1.398 . S
C866 H854 0.950 . S
C866 C865 1.398 . S
C866 C867 1.391 . S
C867 H855 0.950 . S
C867 C863 1.393 . S
C867 C866 1.391 . S
H868 C876 0.950 . S
H869 C881 0.950 . S
H870 C878 0.950 . S
H871 C880 0.950 . S
H872 C882 0.950 . S
H873 C884 0.950 . S
H874 C886 0.950 . S
H875 C887 0.950 . S
C876 H868 0.950 . S
C876 C877 1.386 . S
C876 C878 1.391 . S
C877 C876 1.386 . S
C877 C881 1.393 . S
C878 H870 0.950 . S
C878 C876 1.391 . S
C878 C879 1.400 . S
C879 C878 1.400 . S
C879 C880 1.398 . S
C879 C885 1.491 . S
C880 H871 0.950 . S
C880 C879 1.398 . S
C880 C881 1.391 . S
C881 H869 0.950 . S
C881 C877 1.393 . S
C881 C880 1.391 . S
C882 H872 0.950 . S
C882 C883 1.386 . S
C882 C884 1.391 . S
C883 C882 1.386 . S
C883 C887 1.393 . S
C884 H873 0.950 . S
C884 C882 1.391 . S
C884 C885 1.400 . S
C885 C879 1.491 . S
C885 C884 1.400 . S
C885 C886 1.398 . S
C886 H874 0.950 . S
C886 C885 1.398 . S
C886 C887 1.391 . S
C887 H875 0.950 . S
C887 C883 1.393 . S
C887 C886 1.391 . S
H888 C896 0.950 1_565 S
H889 C901 0.950 . S
H890 C898 0.950 . S
H891 C900 0.950 . S
H892 C902 0.950 . S
H893 C904 0.950 . S
H894 C906 0.950 . S
H895 C907 0.950 . S
C896 H888 0.950 1_545 S
C896 C897 1.386 . S
C896 C898 1.391 . S
C897 C896 1.386 . S
C897 C901 1.393 . S
C898 H890 0.950 . S
C898 C896 1.391 . S
C898 C899 1.400 . S
C899 C898 1.400 . S
C899 C900 1.398 . S
C899 C905 1.491 . S
C900 H891 0.950 . S
C900 C899 1.398 . S
C900 C901 1.391 . S
C901 H889 0.950 . S
C901 C897 1.393 . S
C901 C900 1.391 . S
C902 H892 0.950 . S
C902 C903 1.386 . S
C902 C904 1.391 . S
C903 C902 1.386 . S
C903 C907 1.393 . S
C904 H893 0.950 . S
C904 C902 1.391 . S
C904 C905 1.400 . S
C905 C899 1.491 . S
C905 C904 1.400 . S
C905 C906 1.398 . S
C906 H894 0.950 . S
C906 C905 1.398 . S
C906 C907 1.391 . S
C907 H895 0.950 . S
C907 C903 1.393 . S
C907 C906 1.391 . S
H908 C916 0.950 . S
H909 C921 0.950 . S
H910 C918 0.950 . S
H911 C920 0.950 . S
H912 C922 0.950 . S
H913 C924 0.950 . S
H914 C926 0.950 . S
H915 C927 0.950 . S
C916 H908 0.950 . S
C916 C917 1.386 . S
C916 C918 1.391 . S
C917 C916 1.386 . S
C917 C921 1.393 . S
C918 H910 0.950 . S
C918 C916 1.391 . S
C918 C919 1.400 . S
C919 C918 1.400 . S
C919 C920 1.398 . S
C919 C925 1.491 . S
C920 H911 0.950 . S
C920 C919 1.398 . S
C920 C921 1.391 . S
C921 H909 0.950 . S
C921 C917 1.393 . S
C921 C920 1.391 . S
C922 H912 0.950 . S
C922 C923 1.386 . S
C922 C924 1.391 . S
C923 C922 1.386 . S
C923 C927 1.393 . S
C924 H913 0.950 . S
C924 C922 1.391 . S
C924 C925 1.400 . S
C925 C919 1.491 . S
C925 C924 1.400 . S
C925 C926 1.398 . S
C926 H914 0.950 . S
C926 C925 1.398 . S
C926 C927 1.391 . S
C927 H915 0.950 . S
C927 C923 1.393 . S
C927 C926 1.391 . S
H928 C936 0.950 . S
H929 C941 0.950 . S
H930 C938 0.950 . S
H931 C940 0.950 . S
H932 C942 0.950 . S
H933 C944 0.950 . S
H934 C946 0.950 . S
H935 C947 0.950 . S
C936 H928 0.950 . S
C936 C937 1.386 . S
C936 C938 1.391 . S
C937 C936 1.386 . S
C937 C941 1.393 . S
C938 H930 0.950 . S
C938 C936 1.391 . S
C938 C939 1.400 . S
C939 C938 1.400 . S
C939 C940 1.398 . S
C939 C945 1.491 . S
C940 H931 0.950 . S
C940 C939 1.398 . S
C940 C941 1.391 . S
C941 H929 0.950 . S
C941 C937 1.393 . S
C941 C940 1.391 . S
C942 H932 0.950 . S
C942 C943 1.386 . S
C942 C944 1.391 . S
C943 C942 1.386 . S
C943 C947 1.393 . S
C944 H933 0.950 . S
C944 C942 1.391 . S
C944 C945 1.400 . S
C945 C939 1.491 . S
C945 C944 1.400 . S
C945 C946 1.398 . S
C946 H934 0.950 . S
C946 C945 1.398 . S
C946 C947 1.391 . S
C947 H935 0.950 . S
C947 C943 1.393 . S
C947 C946 1.391 . S
H948 C956 0.950 . S
H949 C961 0.950 . S
H950 C958 0.950 . S
H951 C960 0.950 . S
H952 C962 0.950 1_545 S
H953 C964 0.950 . S
H954 C966 0.950 . S
H955 C967 0.950 . S
C956 H948 0.950 . S
C956 C957 1.386 1_565 S
C956 C958 1.391 . S
C957 C956 1.386 1_545 S
C957 C961 1.393 . S
C958 H950 0.950 . S
C958 C956 1.391 . S
C958 C959 1.400 . S
C959 C958 1.400 . S
C959 C960 1.398 1_565 S
C959 C965 1.491 . S
C960 H951 0.950 . S
C960 C959 1.398 1_545 S
C960 C961 1.391 . S
C961 H949 0.950 . S
C961 C957 1.393 . S
C961 C960 1.391 . S
C962 H952 0.950 1_565 S
C962 C963 1.386 . S
C962 C964 1.391 1_565 S
C963 C962 1.386 . S
C963 C967 1.393 . S
C964 H953 0.950 . S
C964 C962 1.391 1_545 S
C964 C965 1.400 1_545 S
C965 C959 1.491 . S
C965 C964 1.400 1_565 S
C965 C966 1.398 . S
C966 H954 0.950 . S
C966 C965 1.398 . S
C966 C967 1.391 . S
C967 H955 0.950 . S
C967 C963 1.393 . S
C967 C966 1.391 . S
H968 C976 0.950 . S
H969 C981 0.950 . S
H970 C978 0.950 . S
H971 C980 0.950 . S
H972 C982 0.950 . S
H973 C984 0.950 . S
H974 C986 0.950 . S
H975 C987 0.950 . S
C976 H968 0.950 . S
C976 C977 1.386 . S
C976 C978 1.391 . S
C977 C976 1.386 . S
C977 C981 1.393 . S
C978 H970 0.950 . S
C978 C976 1.391 . S
C978 C979 1.400 . S
C979 C978 1.400 . S
C979 C980 1.398 . S
C979 C985 1.491 . S
C980 H971 0.950 . S
C980 C979 1.398 . S
C980 C981 1.391 . S
C981 H969 0.950 . S
C981 C977 1.393 . S
C981 C980 1.391 . S
C982 H972 0.950 . S
C982 C983 1.386 . S
C982 C984 1.391 . S
C983 C982 1.386 . S
C983 C987 1.393 . S
C984 H973 0.950 . S
C984 C982 1.391 . S
C984 C985 1.400 . S
C985 C979 1.491 . S
C985 C984 1.400 . S
C985 C986 1.398 . S
C986 H974 0.950 . S
C986 C985 1.398 . S
C986 C987 1.391 . S
C987 H975 0.950 . S
C987 C983 1.393 . S
C987 C986 1.391 . S
H988 C996 0.950 . S
H989 C1001 0.950 . S
H990 C998 0.950 . S
H991 C1000 0.950 . S
H992 C1002 0.950 . S
H993 C1004 0.950 . S
H994 C1006 0.950 . S
H995 C1007 0.950 . S
C996 H988 0.950 . S
C996 C997 1.386 . S
C996 C998 1.391 . S
C997 C996 1.386 . S
C997 C1001 1.393 . S
C998 H990 0.950 . S
C998 C996 1.391 . S
C998 C999 1.400 . S
C999 C998 1.400 . S
C999 C1000 1.398 . S
C999 C1005 1.491 . S
C1000 H991 0.950 . S
C1000 C999 1.398 . S
C1000 C1001 1.391 . S
C1001 H989 0.950 . S
C1001 C997 1.393 . S
C1001 C1000 1.391 . S
C1002 H992 0.950 . S
C1002 C1003 1.386 . S
C1002 C1004 1.391 . S
C1003 C1002 1.386 . S
C1003 C1007 1.393 . S
C1004 H993 0.950 . S
C1004 C1002 1.391 . S
C1004 C1005 1.400 . S
C1005 C999 1.491 . S
C1005 C1004 1.400 . S
C1005 C1006 1.398 . S
C1006 H994 0.950 . S
C1006 C1005 1.398 . S
C1006 C1007 1.391 . S
C1007 H995 0.950 . S
C1007 C1003 1.393 . S
C1007 C1006 1.391 . S
C537 C13 2.194 . S
C543 C147 2.123 . S
C557 C27 1.396 . S
C563 C221 1.360 . S
C583 C271 1.772 . S
C577 C29 1.842 . S
C603 C357 1.335 . S
C597 C54 1.345 . S
C623 C449 1.883 . S
C617 C69 1.882 . S
C643 C493 1.837 . S
C637 C83 1.893 . S
C657 C15 1.296 . S
C663 C295 1.230 . S
C677 C41 2.492 . S
C683 C375 2.450 . S
C703 C431 1.417 . S
C697 C42 1.420 . S
C723 C517 1.482 . S
C717 C57 1.527 . S
C737 C71 2.164 . S
C743 C123 2.071 . S
C763 C197 1.865 1_455 S
C757 C1 1.900 . S
C783 C369 1.912 1_455 S
C777 C12 2.106 . S
C797 C26 2.212 . S
C803 C419 2.034 . S
C823 C523 2.291 . S
C817 C28 2.410 . S
C837 C55 1.485 . S
C843 C135 1.442 . S
C857 C68 2.028 . S
C863 C209 1.930 . S
C877 C82 2.416 . S
C883 C301 2.301 . S
C897 C14 2.000 . S
C903 C505 1.901 . S
C923 C153 2.155 . S
C917 C40 2.191 . S
C937 C43 2.407 . S
C943 C227 2.282 . S
C957 C56 1.802 . S
C963 C283 1.676 . S
C977 C70 1.697 . S
C983 C345 1.519 . S
C997 C0 2.163 . S
C1003 C443 1.992 . S
