# Generated by pormake.
# Topology zzz, (3,6)-cn, num edge types: 1
# Building blocks:
#     Node 0, Type 0, BuildingBlock: QEWDON_clean_linker_0, # of connection points: 3
#     Node 1, Type 0, BuildingBlock: QEWDON_clean_linker_0, # of connection points: 3
#     Node 2, Type 0, BuildingBlock: QEWDON_clean_linker_0, # of connection points: 3
#     Node 3, Type 0, BuildingBlock: QEWDON_clean_linker_0, # of connection points: 3
#     Node 4, Type 0, BuildingBlock: QEWDON_clean_linker_0, # of connection points: 3
#     Node 5, Type 0, BuildingBlock: QEWDON_clean_linker_0, # of connection points: 3
#     Node 6, Type 0, BuildingBlock: QEWDON_clean_linker_0, # of connection points: 3
#     Node 7, Type 0, BuildingBlock: QEWDON_clean_linker_0, # of connection points: 3
#     Node 8, Type 1, BuildingBlock: HISSIN_clean_sbu_0, # of connection points: 6
#     Node 9, Type 1, BuildingBlock: HISSIN_clean_sbu_0, # of connection points: 6
#     Node 10, Type 1, BuildingBlock: HISSIN_clean_sbu_0, # of connection points: 6
#     Node 11, Type 1, BuildingBlock: HISSIN_clean_sbu_0, # of connection points: 6
#     Edge 12, Type (0, 1), BuildingBlock: TEMPAE_clean_linker_10, # of connection points: 2
#     Edge 13, Type (0, 1), BuildingBlock: TEMPAE_clean_linker_10, # of connection points: 2
#     Edge 14, Type (0, 1), BuildingBlock: TEMPAE_clean_linker_10, # of connection points: 2
#     Edge 15, Type (0, 1), BuildingBlock: TEMPAE_clean_linker_10, # of connection points: 2
#     Edge 16, Type (0, 1), BuildingBlock: TEMPAE_clean_linker_10, # of connection points: 2
#     Edge 17, Type (0, 1), BuildingBlock: TEMPAE_clean_linker_10, # of connection points: 2
#     Edge 18, Type (0, 1), BuildingBlock: TEMPAE_clean_linker_10, # of connection points: 2
#     Edge 19, Type (0, 1), BuildingBlock: TEMPAE_clean_linker_10, # of connection points: 2
#     Edge 20, Type (0, 1), BuildingBlock: TEMPAE_clean_linker_10, # of connection points: 2
#     Edge 21, Type (0, 1), BuildingBlock: TEMPAE_clean_linker_10, # of connection points: 2
#     Edge 22, Type (0, 1), BuildingBlock: TEMPAE_clean_linker_10, # of connection points: 2
#     Edge 23, Type (0, 1), BuildingBlock: TEMPAE_clean_linker_10, # of connection points: 2
#     Edge 24, Type (0, 1), BuildingBlock: TEMPAE_clean_linker_10, # of connection points: 2
#     Edge 25, Type (0, 1), BuildingBlock: TEMPAE_clean_linker_10, # of connection points: 2
#     Edge 26, Type (0, 1), BuildingBlock: TEMPAE_clean_linker_10, # of connection points: 2
#     Edge 27, Type (0, 1), BuildingBlock: TEMPAE_clean_linker_10, # of connection points: 2
#     Edge 28, Type (0, 1), BuildingBlock: TEMPAE_clean_linker_10, # of connection points: 2
#     Edge 29, Type (0, 1), BuildingBlock: TEMPAE_clean_linker_10, # of connection points: 2
#     Edge 30, Type (0, 1), BuildingBlock: TEMPAE_clean_linker_10, # of connection points: 2
#     Edge 31, Type (0, 1), BuildingBlock: TEMPAE_clean_linker_10, # of connection points: 2
#     Edge 32, Type (0, 1), BuildingBlock: TEMPAE_clean_linker_10, # of connection points: 2
#     Edge 33, Type (0, 1), BuildingBlock: TEMPAE_clean_linker_10, # of connection points: 2
#     Edge 34, Type (0, 1), BuildingBlock: TEMPAE_clean_linker_10, # of connection points: 2
#     Edge 35, Type (0, 1), BuildingBlock: TEMPAE_clean_linker_10, # of connection points: 2
# Relax obj value: 0.189
# Max RMSD: 0.193
# Mean RMSD: 0.065
data_MOF--net-zzz--node1-HISSIN_clean_sbu_0--node2-QEWDON_clean_linker_0--edge1-TEMPAE_clean_linker_10
_symmetry_space_group_name_H-M    P1
_symmetry_Int_Tables_number       1
_symmetry_cell_setting            triclinic
loop_
_symmetry_equiv_pos_as_xyz
'x, y, z'
_cell_length_a     54.103376
_cell_length_b     54.147501
_cell_length_c     16.159363
_cell_angle_alpha  89.752994
_cell_angle_beta   91.562049
_cell_angle_gamma 90.426859
loop_
_atom_site_label
_atom_site_type_symbol
_atom_site_fract_x
_atom_site_fract_y
_atom_site_fract_z
_atom_type_partial_charge
H0 H 0.76133 0.56534 0.18265 0.0
C1 C 0.7743 0.56123 0.23285 0.0
C2 C 0.79943 0.5614 0.21542 0.0
C3 C 0.7661 0.55544 0.31286 0.0
H4 H 0.83636 0.5568 0.26495 0.0
C5 C 0.81687 0.55705 0.27908 0.0
C6 C 0.80977 0.55121 0.35933 0.0
C7 C 0.78426 0.55052 0.37654 0.0
C8 C 0.7387 0.55429 0.32769 0.0
H9 H 0.77878 0.54523 0.43806 0.0
C10 C 0.7213 0.54911 0.26229 0.0
C11 C 0.69556 0.55001 0.2743 0.0
C12 C 0.72952 0.55939 0.40639 0.0
H13 H 0.74186 0.56397 0.45795 0.0
C14 C 0.7041 0.55941 0.4194 0.0
H15 H 0.72753 0.54412 0.20162 0.0
C16 C 0.68725 0.55492 0.3541 0.0
H17 H 0.66766 0.55593 0.36572 0.0
H18 H 0.69737 0.5635 0.48028 0.0
H19 H 1.00393 0.76567 0.15577 0.0
C20 C 1.00815 0.7785 0.20534 0.0
C21 C 1.0091 0.80355 0.18534 0.0
C22 C 1.01298 0.77009 0.28673 0.0
H23 H 1.01365 0.84037 0.23228 0.0
C24 C 1.01297 0.82093 0.24833 0.0
C25 C 1.01742 0.81388 0.33083 0.0
C26 C 1.01742 0.78822 0.35009 0.0
C27 C 1.01343 0.7425 0.30278 0.0
H28 H 1.02168 0.78259 0.41314 0.0
C29 C 1.01828 0.7252 0.23864 0.0
C30 C 1.01666 0.69936 0.25192 0.0
C31 C 1.00785 0.73301 0.38129 0.0
H32 H 1.0035 0.74514 0.43178 0.0
C33 C 1.007 0.70755 0.39553 0.0
H34 H 0.02365 0.73153 0.17815 0.0
C35 C 1.01119 0.69091 0.33171 0.0
H36 H 1.00954 0.67133 0.34455 0.0
H37 H 1.00252 0.70064 0.45631 0.0
H38 H 0.79105 1.00118 0.1497 0.0
C39 C 0.77858 1.00594 0.19813 0.0
C40 C 0.75334 1.00626 0.17804 0.0
C41 C 0.78766 1.01226 0.27769 0.0
H42 H 0.7168 1.01088 0.22422 0.0
C43 C 0.73637 1.01063 0.24024 0.0
C44 C 0.74396 1.01614 0.32169 0.0
C45 C 0.76989 1.01705 0.34037 0.0
C46 C 0.81557 1.01384 0.2922 0.0
H47 H 0.77594 0.0223 0.40219 0.0
C48 C 0.83239 1.0177 0.2259 0.0
C49 C 0.85847 1.01754 0.23945 0.0
C50 C 0.82585 1.01049 0.37226 0.0
H51 H 0.81425 1.00695 0.42451 0.0
C52 C 0.85144 1.0109 0.3863 0.0
H53 H 0.82553 0.0213 0.16363 0.0
C54 C 0.86754 1.01426 0.32103 0.0
H55 H 0.88725 1.01375 0.33444 0.0
H56 H 0.85892 1.00814 0.44845 0.0
H57 H 0.56042 0.79596 0.15767 0.0
C58 C 0.5564 0.78315 0.20709 0.0
C59 C 0.55561 0.75806 0.18791 0.0
C60 C 0.55181 0.79154 0.28764 0.0
H61 H 0.55103 0.72125 0.23496 0.0
C62 C 0.55169 0.7407 0.25061 0.0
C63 C 0.54706 0.74778 0.33187 0.0
C64 C 0.54723 0.77341 0.35054 0.0
C65 C 0.55184 0.81909 0.30364 0.0
H66 H 0.54296 0.77901 0.41267 0.0
C67 C 0.54717 0.83665 0.23884 0.0
C68 C 0.54915 0.86242 0.25271 0.0
C69 C 0.55771 0.82825 0.38316 0.0
H70 H 0.56199 0.81591 0.43427 0.0
C71 C 0.55895 0.85364 0.39779 0.0
H72 H 0.54166 0.83059 0.17738 0.0
C73 C 0.55487 0.87055 0.33346 0.0
H74 H 0.55677 0.89007 0.34673 0.0
H75 H 0.56364 0.86029 0.45936 0.0
H76 H 0.28744 0.52645 0.22708 0.0
C77 C 0.27596 0.52757 0.17136 0.0
C78 C 0.25225 0.53746 0.17748 0.0
C79 C 0.28405 0.51798 0.09553 0.0
H80 H 0.21794 0.54549 0.11352 0.0
C81 C 0.23638 0.53804 0.10782 0.0
C82 C 0.24336 0.52841 0.03204 0.0
C83 C 0.26729 0.51854 0.02574 0.0
C84 C 0.30924 0.50628 0.09107 0.0
H85 H 0.27266 0.51162 0.96624 0.0
C86 C 0.329 0.51258 0.14734 0.0
C87 C 0.35195 0.50017 0.14614 0.0
C88 C 0.31344 0.48768 0.03245 0.0
H89 H 0.29896 0.48137 0.99006 0.0
C90 C 0.33635 0.4762 0.02863 0.0
H91 H 0.32658 0.52678 0.19316 0.0
C92 C 0.35539 0.48233 0.08466 0.0
H93 H 0.37289 0.47293 0.07987 0.0
H94 H 0.33923 0.46211 0.98264 0.0
H95 H 0.02226 0.28207 0.24422 0.0
C96 C 0.02224 0.27117 0.18834 0.0
C97 C 1.01188 0.24743 0.19127 0.0
C98 C 0.03366 0.28002 0.1163 0.0
H99 H 1.00482 0.21368 0.12534 0.0
C100 C 1.01271 0.23212 0.12191 0.0
C101 C 0.02422 0.23964 0.04957 0.0
C102 C 0.03454 0.26374 0.04665 0.0
C103 C 0.04576 0.30543 0.11658 0.0
H104 H 0.04285 0.2696 0.9897 0.0
C105 C 0.03929 0.32436 0.17354 0.0
C106 C 0.0523 0.34724 0.17714 0.0
C107 C 0.06506 0.3106 0.06214 0.0
H108 H 0.07156 0.29692 0.01961 0.0
C109 C 0.07705 0.33346 0.06276 0.0
H110 H 0.02452 0.32141 0.21621 0.0
C111 C 0.07082 0.35154 0.11934 0.0
H112 H 0.08069 0.369 0.11785 0.0
H113 H 0.09168 0.33705 0.0198 0.0
H114 H 0.27979 1.01938 0.25013 0.0
C115 C 0.29042 0.01999 0.19451 0.0
C116 C 0.31385 1.00917 0.19739 0.0
C117 C 0.28154 0.03258 0.12316 0.0
H118 H 0.34708 1.00238 0.13193 0.0
C119 C 0.32892 1.01072 0.12847 0.0
C120 C 0.32157 0.02341 0.05651 0.0
C121 C 0.29768 0.03423 0.05383 0.0
C122 C 0.25631 0.04502 0.12429 0.0
H123 H 0.29186 0.04346 0.99728 0.0
C124 C 0.23761 0.0386 0.18249 0.0
C125 C 0.21512 0.05205 0.18646 0.0
C126 C 0.25114 0.06467 0.06921 0.0
H127 H 0.26454 0.07116 0.02568 0.0
C128 C 0.22868 0.07707 0.07027 0.0
H129 H 0.24042 0.02355 0.22573 0.0
C130 C 0.21096 0.07092 0.12785 0.0
H131 H 0.19383 0.08116 0.12641 0.0
H132 H 0.22514 0.09196 0.02674 0.0
H133 H 0.56188 0.26677 0.19574 0.0
C134 C 0.55676 0.28051 0.14977 0.0
C135 C 0.56841 0.30356 0.15479 0.0
C136 C 0.53916 0.2753 0.086 0.0
H137 H 0.57197 0.33969 0.10232 0.0
C138 C 0.5632 0.32171 0.09538 0.0
C139 C 0.54613 0.31759 0.03013 0.0
C140 C 0.53365 0.29444 0.02682 0.0
C141 C 0.52752 0.24976 0.08045 0.0
H142 H 0.51989 0.29153 0.97803 0.0
C143 C 0.52624 0.23354 0.15034 0.0
C144 C 0.51668 0.20917 0.14262 0.0
C145 C 0.51865 0.24078 1.00344 0.0
H146 H 0.51988 0.25172 0.94759 0.0
C147 C 0.50869 0.21703 0.99604 0.0
H148 H 0.53228 0.23968 0.2112 0.0
C149 C 0.50776 0.20137 0.06454 0.0
H150 H 0.50057 0.18281 0.0558 0.0
H151 H 0.50209 0.21051 0.93612 0.0
Eu152 Eu 1.01281 0.03628 0.62089 0.0
Eu153 Eu 0.05153 1.01914 0.76363 0.0
C154 C 0.03593 0.07674 0.75057 0.0
C155 C 0.9653 0.07517 0.51151 0.0
C156 C 0.95841 0.0857 0.4354 0.0
C157 C 0.95197 0.11221 0.58162 0.0
C158 C 0.94937 0.10973 0.43193 0.0
C159 C 0.96126 0.08818 0.5849 0.0
C160 C 0.94697 0.12372 0.5048 0.0
C161 C 0.9802 0.05267 0.51299 0.0
O162 O 1.01358 1.0095 0.81406 0.0
O163 O 0.99215 0.03872 0.74129 0.0
C164 C 0.99377 0.0233 0.80417 0.0
O165 O 1.01093 0.99437 0.61212 0.0
O166 O 0.06132 1.00751 0.88977 0.0
O167 O 0.08989 1.0117 0.80008 0.0
O168 O 0.04628 0.98445 0.68586 0.0
C169 C 0.02778 0.97814 0.63547 0.0
O170 O 0.0484 0.02847 0.55342 0.0
O171 O 0.07436 0.03673 0.66282 0.0
O172 O 0.04311 0.05852 0.79948 0.0
O173 O 1.00393 0.05651 0.50734 0.0
O174 O 0.97505 0.03636 0.56977 0.0
O175 O 0.02782 0.07244 0.67432 0.0
C176 C 0.09112 0.97656 0.88637 0.0
C177 C 0.08794 0.96633 0.96506 0.0
C178 C 0.09485 0.93533 0.82954 0.0
C179 C 0.08664 0.94078 0.97495 0.0
C180 C 0.0959 0.96089 0.81947 0.0
C181 C 0.0887 0.92508 0.90621 0.0
C182 C 0.084 1.00235 0.87128 0.0
C183 C 0.07081 0.03331 0.58291 0.0
H184 H 0.96162 0.07599 0.37821 0.0
H185 H 0.95007 0.12221 0.63895 0.0
H186 H 0.94628 0.1179 0.37131 0.0
H187 H 0.96664 0.08033 0.64446 0.0
H188 H 0.08416 0.97807 0.01731 0.0
H189 H 0.09707 0.92368 0.77602 0.0
H190 H 0.08172 0.93354 0.03493 0.0
H191 H 0.09848 0.96826 0.75785 0.0
Eu192 Eu 0.54007 0.05239 0.74798 0.0
Eu193 Eu 0.5218 1.0118 0.61591 0.0
C194 C 0.53761 0.99547 0.80152 0.0
C195 C 0.58374 0.09352 0.86121 0.0
C196 C 0.59391 0.09001 0.94094 0.0
C197 C 0.62509 0.09568 0.80664 0.0
C198 C 0.61939 0.0876 0.95248 0.0
C199 C 0.5996 0.09788 0.79494 0.0
C200 C 0.63506 0.0889 0.88438 0.0
C201 C 0.55766 0.08692 0.84488 0.0
O202 O 0.48589 0.02601 0.67008 0.0
O203 O 0.50139 0.04311 0.7903 0.0
C204 C 0.48252 0.0348 0.74503 0.0
O205 O 0.51899 0.07243 0.64533 0.0
O206 O 0.52198 0.97375 0.57219 0.0
O207 O 0.49995 1.00123 0.50644 0.0
O208 O 0.52924 0.04674 0.54195 0.0
C209 C 0.52295 0.06883 0.56665 0.0
O210 O 0.57428 0.04673 0.67028 0.0
O211 O 0.56374 1.01059 0.60464 0.0
O212 O 0.52119 0.99285 0.74092 0.0
O213 O 0.54913 0.09114 0.77004 0.0
O214 O 0.55114 0.06512 0.87164 0.0
O215 O 0.5514 1.01556 0.80567 0.0
C216 C 0.48263 0.96189 0.51988 0.0
C217 C 0.47136 0.95364 0.44626 0.0
C218 C 0.44697 0.9478 0.59585 0.0
C219 C 0.44757 0.94358 0.44669 0.0
C220 C 0.47074 0.9581 0.59517 0.0
C221 C 0.43457 0.94155 0.52107 0.0
C222 C 0.50462 0.97777 0.51618 0.0
C223 C 0.58023 0.02787 0.62361 0.0
H224 H 0.58204 0.08667 0.99284 0.0
H225 H 0.6368 0.09738 0.7536 0.0
H226 H 0.62644 0.08231 0.01332 0.0
H227 H 0.59234 0.10085 0.7326 0.0
H228 H 0.48022 0.95658 0.38763 0.0
H229 H 0.43776 0.94622 0.65431 0.0
H230 H 0.43872 0.93948 0.38741 0.0
H231 H 0.47921 0.96447 0.65284 0.0
Eu232 Eu 0.51011 0.54049 0.74697 0.0
Eu233 Eu 0.55119 0.52491 0.61625 0.0
C234 C 0.5669 0.5386 0.80307 0.0
C235 C 0.47148 0.58264 0.8658 0.0
C236 C 0.47695 0.59084 0.94639 0.0
C237 C 0.46919 0.62529 0.81884 0.0
C238 C 0.48004 0.61599 0.96198 0.0
C239 C 0.46628 0.60013 0.80309 0.0
C240 C 0.47747 0.63335 0.89724 0.0
C241 C 0.47647 0.55677 0.84438 0.0
O242 O 0.53696 0.48805 0.66566 0.0
O243 O 0.51972 0.50138 0.78578 0.0
C244 C 0.52805 0.48346 0.73947 0.0
O245 O 0.49024 0.51982 0.644 0.0
O246 O 0.58969 0.52415 0.57873 0.0
O247 O 0.56083 0.50856 0.49898 0.0
O248 O 0.51569 0.53216 0.54255 0.0
C249 C 0.49385 0.52453 0.5657 0.0
O250 O 0.5154 0.57522 0.66926 0.0
O251 O 0.55283 0.56684 0.61325 0.0
O252 O 0.56966 0.52262 0.74329 0.0
O253 O 0.47185 0.55057 0.76761 0.0
O254 O 0.49775 0.54835 0.87158 0.0
O255 O 0.54702 0.55237 0.80409 0.0
C256 C 0.59911 0.48906 0.50015 0.0
C257 C 0.59602 0.46855 0.55225 0.0
C258 C 0.62281 0.4641 0.40759 0.0
C259 C 0.60537 0.44561 0.53013 0.0
C260 C 0.61343 0.48701 0.42974 0.0
C261 C 0.61779 0.44296 0.45544 0.0
C262 C 0.58457 0.51137 0.51217 0.0
C263 C 0.53496 0.58242 0.62859 0.0
H264 H 0.48099 0.57773 0.99569 0.0
H265 H 0.46651 0.6383 0.76838 0.0
H266 H 0.48652 0.62157 0.02315 0.0
H267 H 0.46181 0.59446 0.74023 0.0
H268 H 0.58493 0.46989 0.60688 0.0
H269 H 0.63247 0.46255 0.34999 0.0
H270 H 0.601 0.42962 0.56769 0.0
H271 H 0.616 0.50275 0.3891 0.0
Eu272 Eu 0.03563 0.54709 0.62444 0.0
Eu273 Eu 1.01865 0.5083 0.76454 0.0
C274 C 0.07658 0.522 0.7476 0.0
C275 C 0.07705 0.5905 0.51095 0.0
C276 C 0.09254 0.59381 0.58131 0.0
C277 C 0.11134 0.60057 0.42363 0.0
C278 C 0.1175 0.59997 0.5727 0.0
C279 C 0.0864 0.59476 0.43241 0.0
C280 C 0.12748 0.60244 0.49352 0.0
C281 C 0.05266 0.57874 0.51778 0.0
O282 O 1.009 0.5463 0.81266 0.0
O283 O 0.03987 0.56669 0.74814 0.0
C284 C 0.02382 0.56555 0.80759 0.0
O285 O 0.9939 0.55063 0.61924 0.0
O286 O 1.01286 0.49788 0.8933 0.0
O287 O 1.00454 0.47171 0.79563 0.0
O288 O 0.98351 0.51514 0.68859 0.0
C289 C 0.97732 0.53423 0.64209 0.0
O290 O 0.02575 0.5115 0.55645 0.0
O291 O 0.03541 0.48557 0.66337 0.0
O292 O 0.05889 0.51564 0.79791 0.0
O293 O 0.05254 0.55493 0.50636 0.0
O294 O 0.03955 0.58512 0.58071 0.0
O295 O 0.07148 0.53031 0.67253 0.0
C296 C 0.97534 0.47598 0.90036 0.0
C297 C 0.95587 0.47088 0.84322 0.0
C298 C 0.94542 0.48986 0.99868 0.0
C299 C 0.93156 0.47635 0.86236 0.0
C300 C 0.96974 0.48426 0.97974 0.0
C301 C 0.92629 0.48704 0.93869 0.0
C302 C 1.00103 0.47764 0.87253 0.0
C303 C 0.03122 0.48924 0.58386 0.0
H304 H 0.08568 0.59036 0.6427 0.0
H305 H 0.11818 0.60173 0.3614 0.0
H306 H 0.12916 0.6016 0.62795 0.0
H307 H 0.07479 0.59198 0.37745 0.0
H308 H 0.95946 0.46429 0.78155 0.0
H309 H 0.94195 0.49813 0.05813 0.0
H310 H 0.91706 0.47341 0.81586 0.0
H311 H 0.98439 0.4883 0.02487 0.0
C312 C 0.1837 0.06777 0.28671 0.0
C313 C 0.19586 0.04757 0.2515 0.0
C314 C 0.16392 0.0646 0.34103 0.0
C315 C 0.15585 0.04054 0.3629 0.0
C316 C 0.16854 0.01998 0.33019 0.0
C317 C 0.18828 0.0237 0.27513 0.0
C318 C 0.15132 0.08719 0.37389 0.0
C319 C 0.16093 0.99398 0.35215 0.0
C320 C 0.11692 0.03582 0.55859 0.0
C321 C 0.09251 0.03466 0.52615 0.0
C322 C 0.13755 0.03695 0.50663 0.0
C323 C 0.13404 0.03721 0.41924 0.0
C324 C 0.10946 0.03584 0.38606 0.0
C325 C 0.08915 0.03445 0.43951 0.0
C326 C 0.1632 0.03815 0.54556 0.0
C327 C 0.10456 0.0363 0.29371 0.0
H328 H 0.18957 0.08635 0.27112 0.0
H329 H 0.19728 1.00789 0.24869 0.0
H330 H 0.13148 0.08696 0.35454 0.0
H331 H 0.15221 0.08708 0.44255 0.0
H332 H 0.15981 0.10465 0.35161 0.0
H333 H 0.17331 0.97998 0.32559 0.0
H334 H 0.161 0.99162 0.4204 0.0
H335 H 0.14177 0.99039 0.32885 0.0
H336 H 0.11999 0.03578 0.62514 0.0
H337 H 0.07054 0.0335 0.41315 0.0
H338 H 0.17211 0.05602 0.52992 0.0
H339 H 0.17482 0.0233 0.52041 0.0
H340 H 0.16304 0.03626 0.61403 0.0
H341 H 0.11134 0.05401 0.26761 0.0
H342 H 0.08459 0.03424 0.2772 0.0
H343 H 0.11483 0.02125 0.26387 0.0
C344 C 0.49597 0.17583 0.22651 0.0
C345 C 0.51664 0.19115 0.21382 0.0
C346 C 0.49649 0.15672 0.28611 0.0
C347 C 0.51829 0.15247 0.3346 0.0
C348 C 0.539 0.16835 0.32394 0.0
C349 C 0.53789 0.18751 0.26419 0.0
C350 C 0.47382 0.14065 0.29571 0.0
C351 C 0.56266 0.16457 0.3738 0.0
C352 C 0.51371 0.11352 0.5328 0.0
C353 C 0.52122 0.09005 0.50667 0.0
C354 C 0.51275 0.13389 0.47794 0.0
C355 C 0.51958 0.131 0.39444 0.0
C356 C 0.52717 0.10736 0.36767 0.0
C357 C 0.52784 0.08727 0.42375 0.0
C358 C 0.50436 0.15857 0.50946 0.0
C359 C 0.53469 0.10329 0.27953 0.0
H360 H 0.47935 0.17858 0.18871 0.0
H361 H 0.55405 0.199 0.25453 0.0
H362 H 0.47806 0.12137 0.27842 0.0
H363 H 0.46826 0.14038 0.36129 0.0
H364 H 0.45792 0.14709 0.25657 0.0
H365 H 0.57669 0.17909 0.36127 0.0
H366 H 0.55887 0.16452 0.44092 0.0
H367 H 0.57056 0.14631 0.35895 0.0
H368 H 0.50858 0.11605 0.59655 0.0
H369 H 0.5338 0.06936 0.40259 0.0
H370 H 0.48783 0.16479 0.47316 0.0
H371 H 0.51907 0.17266 0.501 0.0
H372 H 0.49971 0.15789 0.57598 0.0
H373 H 0.51903 0.10766 0.23633 0.0
H374 H 0.54055 0.08399 0.2685 0.0
H375 H 0.55017 0.11594 0.26433 0.0
C376 C 0.37783 0.52882 0.23811 0.0
C377 C 0.37217 0.50488 0.20982 0.0
C378 C 0.39738 0.53312 0.29608 0.0
C379 C 0.41177 0.51306 0.32645 0.0
C380 C 0.406 0.48888 0.29871 0.0
C381 C 0.38628 0.4851 0.24159 0.0
C382 C 0.40275 0.55917 0.32449 0.0
C383 C 0.42073 0.46691 0.32921 0.0
C384 C 0.4768 0.524 0.41878 0.0
C385 C 0.47291 0.52192 0.50411 0.0
C386 C 0.45708 0.52154 0.36043 0.0
C387 C 0.43274 0.51712 0.38777 0.0
C388 C 0.42866 0.51538 0.47385 0.0
C389 C 0.44873 0.51767 0.53073 0.0
C390 C 0.46236 0.52329 0.26934 0.0
C391 C 0.40307 0.51085 0.506 0.0
H392 H 0.36728 0.5443 0.21384 0.0
H393 H 0.38182 0.46643 0.22206 0.0
H394 H 0.40179 0.56021 0.39289 0.0
H395 H 0.4218 0.56461 0.30786 0.0
H396 H 0.38959 0.5727 0.29658 0.0
H397 H 0.41418 0.44934 0.30059 0.0
H398 H 0.44054 0.46958 0.31522 0.0
H399 H 0.41949 0.46518 0.3974 0.0
H400 H 0.49535 0.52731 0.39736 0.0
H401 H 0.44539 0.51622 0.5964 0.0
H402 H 0.45082 0.53786 0.23965 0.0
H403 H 0.4574 0.50558 0.23859 0.0
H404 H 0.48211 0.52751 0.25804 0.0
H405 H 0.39017 0.5251 0.48135 0.0
H406 H 0.40276 0.51112 0.5747 0.0
H407 H 0.39599 0.49267 0.4842 0.0
C408 C 0.02361 0.37279 0.26519 0.0
C409 C 0.04762 0.36665 0.24158 0.0
C410 C 1.01949 0.39218 0.32163 0.0
C411 C 0.03979 0.40595 0.35551 0.0
C412 C 0.06402 0.39947 0.33321 0.0
C413 C 0.06761 0.37996 0.27753 0.0
C414 C 0.99334 0.3982 0.34412 0.0
C415 C 0.08631 0.41339 0.36745 0.0
C416 C 0.03146 0.47162 0.43885 0.0
C417 C 0.0326 0.46792 0.52503 0.0
C418 C 0.03321 0.45166 0.38323 0.0
C419 C 0.03596 0.4272 0.41392 0.0
C420 C 0.03661 0.42331 0.50081 0.0
C421 C 0.03505 0.4436 0.55498 0.0
C422 C 0.03265 0.45685 0.29136 0.0
C423 C 0.03932 0.39767 0.53679 0.0
H424 H 1.00797 0.36285 0.238 0.0
H425 H 0.08631 0.37515 0.26187 0.0
H426 H 0.99153 0.39761 0.41233 0.0
H427 H 0.98879 0.41724 0.32345 0.0
H428 H 0.97963 0.38522 0.31556 0.0
H429 H 0.10395 0.40615 0.34402 0.0
H430 H 0.08491 0.43322 0.35052 0.0
H431 H 0.08693 0.41223 0.43602 0.0
H432 H 0.02955 0.49021 0.41461 0.0
H433 H 0.03577 0.44033 0.62121 0.0
H434 H 1.0179 0.44568 0.26012 0.0
H435 H 0.05049 0.45138 0.26476 0.0
H436 H 0.02941 0.47667 0.27703 0.0
H437 H 0.02483 0.38523 0.51003 0.0
H438 H 0.03798 0.39747 0.60527 0.0
H439 H 0.05748 0.38997 0.52043 0.0
C440 C 0.87357 1.00661 0.096 0.0
C441 C 0.87661 0.02005 0.16995 0.0
C442 C 0.8919 1.00684 0.03479 0.0
C443 C 0.91391 0.02107 0.04648 0.0
C444 C 0.91669 0.03525 0.11989 0.0
C445 C 0.89824 0.03449 0.18027 0.0
C446 C 0.88796 0.99128 0.95828 0.0
C447 C 0.93941 0.05109 0.13537 0.0
C448 C 0.97321 1.00494 0.93083 0.0
C449 C 0.97313 0.02218 0.8654 0.0
C450 C 0.95403 1.00413 0.98892 0.0
C451 C 0.93409 0.02107 0.98276 0.0
C452 C 0.93389 0.03845 0.91671 0.0
C453 C 0.95318 0.03874 0.85921 0.0
C454 C 0.95519 0.98514 0.0575 0.0
C455 C 0.91337 0.05706 0.90724 0.0
H456 H 0.85719 0.99517 0.08718 0.0
H457 H 0.90085 0.04522 0.23633 0.0
H458 H 0.88924 1.00298 0.902 0.0
H459 H 0.90272 0.97722 0.95539 0.0
H460 H 0.86973 0.9817 0.95697 0.0
H461 H 0.93858 0.06162 0.19409 0.0
H462 H 0.95612 0.03933 0.13804 0.0
H463 H 0.94165 0.06436 0.08354 0.0
H464 H 0.98834 0.992 0.93684 0.0
H465 H 0.95271 0.05224 0.80951 0.0
H466 H 0.93804 0.97376 0.05626 0.0
H467 H 0.95635 0.99453 0.1184 0.0
H468 H 0.97133 0.97272 0.05262 0.0
H469 H 0.89524 0.04743 0.9018 0.0
H470 H 0.91555 0.06912 0.85209 0.0
H471 H 0.91296 0.06887 0.96313 0.0
C472 C 0.53323 0.90307 0.19519 0.0
C473 C 0.54622 0.88099 0.18348 0.0
C474 C 0.5318 0.92152 0.13327 0.0
C475 C 0.54383 0.91816 0.05725 0.0
C476 C 0.55674 0.89581 0.04461 0.0
C477 C 0.55765 0.87752 0.10737 0.0
C478 C 0.51745 0.94472 0.1495 0.0
C479 C 0.57 0.89137 0.96513 0.0
C480 C 0.52228 0.95623 0.86831 0.0
C481 C 0.53968 0.97567 0.86677 0.0
C482 C 0.52344 0.93754 0.9294 0.0
C483 C 0.54264 0.93789 0.99089 0.0
C484 C 0.56042 0.95734 0.9894 0.0
C485 C 0.55866 0.97598 0.92792 0.0
C486 C 0.5039 0.91749 0.92852 0.0
C487 C 0.58133 0.95846 0.053 0.0
H488 H 0.52409 0.90594 0.25318 0.0
H489 H 0.56799 0.86076 0.09773 0.0
H490 H 0.52988 0.96106 0.14633 0.0
H491 H 0.50272 0.94714 0.10106 0.0
H492 H 0.50878 0.94441 0.21104 0.0
H493 H 0.57917 0.87308 0.96448 0.0
H494 H 0.55675 0.89244 0.91164 0.0
H495 H 0.58419 0.90597 0.9563 0.0
H496 H 0.50743 0.95568 0.82194 0.0
H497 H 0.57225 0.99078 0.92764 0.0
H498 H 0.49394 0.91759 0.98765 0.0
H499 H 0.51267 0.89913 0.92318 0.0
H500 H 0.4902 0.91973 0.87662 0.0
H501 H 0.57379 0.96009 0.11588 0.0
H502 H 0.59404 0.9743 0.0424 0.0
H503 H 0.59212 0.94112 0.05177 0.0
C504 C 0.65547 0.53319 0.21247 0.0
C505 C 0.67734 0.54699 0.20335 0.0
C506 C 0.63755 0.53141 0.14771 0.0
C507 C 0.64134 0.54394 0.07178 0.0
C508 C 0.66348 0.55771 0.06194 0.0
C509 C 0.68118 0.55898 0.12745 0.0
C510 C 0.61446 0.51623 0.16085 0.0
C511 C 0.66829 0.57148 0.9825 0.0
C512 C 0.60539 0.52313 0.8769 0.0
C513 C 0.58604 0.5403 0.87142 0.0
C514 C 0.62333 0.52402 0.94171 0.0
C515 C 0.62219 0.54267 1.00272 0.0
C516 C 0.6028 0.56015 0.99738 0.0
C517 C 0.58495 0.5587 0.93221 0.0
C518 C 0.64348 0.50487 0.94509 0.0
C519 C 0.60091 0.58046 0.06055 0.0
H520 H 0.65238 0.52365 0.27045 0.0
H521 H 0.6978 0.56997 0.11998 0.0
H522 H 0.59798 0.52828 0.15631 0.0
H523 H 0.61233 0.50206 0.11174 0.0
H524 H 0.61471 0.50682 0.2221 0.0
H525 H 0.68647 0.58118 0.98419 0.0
H526 H 0.66778 0.55849 0.92958 0.0
H527 H 0.65355 0.58529 0.97064 0.0
H528 H 0.60644 0.50873 0.83078 0.0
H529 H 0.57015 0.57208 0.92884 0.0
H530 H 0.64297 0.49461 1.00462 0.0
H531 H 0.66185 0.51401 0.94233 0.0
H532 H 0.64169 0.49141 0.89353 0.0
H533 H 0.59899 0.57233 0.12321 0.0
H534 H 0.58494 0.59277 0.04741 0.0
H535 H 0.6181 0.59178 0.06181 0.0
C536 C 0.03264 0.65894 0.19649 0.0
C537 C 1.01963 0.68105 0.18285 0.0
C538 C 0.03389 0.64064 0.13477 0.0
C539 C 1.02166 0.64418 0.05687 0.0
C540 C 1.00886 0.66665 0.04211 0.0
C541 C 1.00811 0.68478 0.10477 0.0
C542 C 0.0481 0.61729 0.15347 0.0
C543 C 0.99539 0.67131 0.96061 0.0
C544 C 0.04087 0.60486 0.87221 0.0
C545 C 0.02295 0.58589 0.87051 0.0
C546 C 0.04065 0.62384 0.93194 0.0
C547 C 0.02192 0.62424 0.9917 0.0
C548 C 1.00364 0.60528 0.98982 0.0
C549 C 1.00443 0.58638 0.92986 0.0
C550 C 0.06068 0.64339 0.93155 0.0
C551 C 0.98319 0.60491 0.05151 0.0
H552 H 0.04187 0.65587 0.25597 0.0
H553 H 0.99776 0.70157 0.09349 0.0
H554 H 0.03539 0.60112 0.15036 0.0
H555 H 0.06233 0.61451 0.10631 0.0
H556 H 0.05735 0.61765 0.2157 0.0
H557 H 0.98686 0.68991 0.95765 0.0
H558 H 1.00831 0.6696 0.90883 0.0
H559 H 0.98064 0.65719 0.95094 0.0
H560 H 0.05535 0.60478 0.82717 0.0
H561 H 0.99043 0.57196 0.92948 0.0
H562 H 0.07114 0.6432 0.99157 0.0
H563 H 0.05232 0.66195 0.92441 0.0
H564 H 0.07386 0.64066 0.88094 0.0
H565 H 0.99118 0.60332 0.11525 0.0
H566 H 0.97 0.58935 0.04081 0.0
H567 H 0.97281 0.6225 0.04801 0.0
C568 C 1.00748 0.21375 0.29406 0.0
C569 C 1.00092 0.23748 0.26757 0.0
C570 C 0.99399 0.20135 0.35392 0.0
C571 C 0.9738 0.21335 0.39057 0.0
C572 C 0.96877 0.23835 0.37054 0.0
C573 C 0.98228 0.25011 0.30823 0.0
C574 C 1.0005 0.17476 0.37342 0.0
C575 C 0.94851 0.2525 0.41106 0.0
C576 C 0.93134 0.16122 0.42951 0.0
C577 C 0.94411 0.15102 0.49811 0.0
C578 C 0.93788 0.1846 0.39933 0.0
C579 C 0.95684 0.19817 0.44105 0.0
C580 C 0.96483 0.19066 0.52108 0.0
C581 C 0.95891 0.16674 0.54821 0.0
C582 C 0.92753 0.19279 0.31615 0.0
C583 C 0.9827 0.20618 0.572 0.0
H584 H 0.02244 0.20432 0.2643 0.0
H585 H 0.97742 0.26867 0.28861 0.0
H586 H 1.00573 0.1728 0.43992 0.0
H587 H 0.98431 0.16254 0.36047 0.0
H588 H 1.01615 0.16808 0.33668 0.0
H589 H 0.95476 0.27172 0.42412 0.0
H590 H 0.93229 0.25369 0.36777 0.0
H591 H 0.94262 0.24381 0.46969 0.0
H592 H 0.91854 0.1498 0.39352 0.0
H593 H 0.96825 0.15968 0.60346 0.0
H594 H 0.94172 0.1903 0.26857 0.0
H595 H 0.92273 0.21264 0.31752 0.0
H596 H 0.91078 0.182 0.29718 0.0
H597 H 1.00191 0.20067 0.55896 0.0
H598 H 0.97972 0.20332 0.63909 0.0
H599 H 0.98067 0.22612 0.5571 0.0
C600 C 0.30995 0.97894 0.31534 0.0
C601 C 0.32367 0.99694 0.27351 0.0
C602 C 0.32095 0.96482 0.37954 0.0
C603 C 0.34631 0.96852 0.40039 0.0
C604 C 0.35964 0.98788 0.36167 0.0
C605 C 0.34798 1.00204 0.30004 0.0
C606 C 0.3055 0.94545 0.42161 0.0
C607 C 0.38671 0.99296 0.38162 0.0
C608 C 0.39214 0.95356 0.56369 0.0
C609 C 0.4072 0.93818 0.51679 0.0
C610 C 0.3683 0.9597 0.53449 0.0
C611 C 0.3603 0.95128 0.45561 0.0
C612 C 0.37289 0.93152 0.41883 0.0
C613 C 0.39619 0.9248 0.45114 0.0
C614 C 0.35366 0.97847 0.5807 0.0
C615 C 0.36396 0.92057 0.33768 0.0
H616 H 0.29098 0.97516 0.2957 0.0
H617 H 0.35831 1.01656 0.26967 0.0
H618 H 0.30298 0.92935 0.37987 0.0
H619 H 0.31394 0.93904 0.48118 0.0
H620 H 0.2868 0.95279 0.43333 0.0
H621 H 0.39444 1.00791 0.34253 0.0
H622 H 0.38917 0.99853 0.44728 0.0
H623 H 0.39775 0.97607 0.37222 0.0
H624 H 0.39976 0.96333 0.61699 0.0
H625 H 0.40707 0.91153 0.41806 0.0
H626 H 0.33355 0.97638 0.56675 0.0
H627 H 0.35944 0.99733 0.56187 0.0
H628 H 0.35709 0.97659 0.6485 0.0
H629 H 0.34381 0.91678 0.33874 0.0
H630 H 0.37368 0.90314 0.32367 0.0
H631 H 0.36731 0.93396 0.28691 0.0
C632 C 0.60908 0.31633 0.21544 0.0
C633 C 0.58412 0.31059 0.22666 0.0
C634 C 0.62157 0.33273 0.26926 0.0
C635 C 0.60829 0.34423 0.3325 0.0
C636 C 0.58434 0.33544 0.35131 0.0
C637 C 0.57253 0.31848 0.298 0.0
C638 C 0.64775 0.34032 0.25131 0.0
C639 C 0.56972 0.34677 0.41952 0.0
C640 C 0.62932 0.39813 0.46738 0.0
C641 C 0.62052 0.41806 0.41959 0.0
C642 C 0.62739 0.37381 0.43753 0.0
C643 C 0.6156 0.36947 0.3596 0.0
C644 C 0.60791 0.38973 0.30952 0.0
C645 C 0.61073 0.41372 0.33987 0.0
C646 C 0.63682 0.35297 0.49161 0.0
C647 C 0.59499 0.38613 0.22608 0.0
H648 H 0.61804 0.30998 0.16029 0.0
H649 H 0.55321 0.31389 0.30633 0.0
H650 H 0.64755 0.35721 0.21215 0.0
H651 H 0.65829 0.3446 0.30946 0.0
H652 H 0.65745 0.32561 0.21748 0.0
H653 H 0.55299 0.33564 0.4335 0.0
H654 H 0.58128 0.34858 0.47686 0.0
H655 H 0.56375 0.36557 0.40044 0.0
H656 H 0.63703 0.40148 0.529 0.0
H657 H 0.60357 0.42902 0.30322 0.0
H658 H 0.64148 0.33643 0.45498 0.0
H659 H 0.62242 0.34769 0.53606 0.0
H660 H 0.65348 0.35889 0.5283 0.0
H661 H 0.60696 0.37565 0.18432 0.0
H662 H 0.59018 0.40392 0.19537 0.0
H663 H 0.5777 0.37528 0.2335 0.0
C664 C 0.25453 0.56597 0.2995 0.0
C665 C 0.2428 0.54651 0.25668 0.0
C666 C 0.24218 0.57865 0.3618 0.0
C667 C 0.21749 0.57194 0.37933 0.0
C668 C 0.20669 0.5507 0.34164 0.0
C669 C 0.21968 0.53808 0.28174 0.0
C670 C 0.25514 0.60003 0.40428 0.0
C671 C 0.18054 0.54244 0.35889 0.0
C672 C 0.17053 0.58851 0.53284 0.0
C673 C 0.15475 0.60291 0.48186 0.0
C674 C 0.19403 0.58177 0.50629 0.0
C675 C 0.20117 0.58854 0.42587 0.0
C676 C 0.18727 0.60642 0.38099 0.0
C677 C 0.16441 0.61383 0.41064 0.0
C678 C 0.20971 0.5649 0.55998 0.0
C679 C 0.19475 0.61508 0.29629 0.0
H680 H 0.27262 0.57228 0.28085 0.0
H681 H 0.21095 0.5226 0.24974 0.0
H682 H 0.25438 0.61647 0.36311 0.0
H683 H 0.24668 0.60475 0.46392 0.0
H684 H 0.27497 0.59571 0.416 0.0
H685 H 0.17494 0.52573 0.32316 0.0
H686 H 0.17877 0.5382 0.42563 0.0
H687 H 0.16737 0.55744 0.34281 0.0
H688 H 0.16389 0.5805 0.58963 0.0
H689 H 0.15304 0.62627 0.37352 0.0
H690 H 0.20805 0.56978 0.62625 0.0
H691 H 0.2295 0.56593 0.5437 0.0
H692 H 0.2032 0.54556 0.55201 0.0
H693 H 0.21441 0.62098 0.29774 0.0
H694 H 0.18327 0.63071 0.27314 0.0
H695 H 0.19272 0.5996 0.2517 0.0
C696 C 0.02781 0.80038 0.04677 0.0
C697 C 1.01079 0.8118 0.09815 0.0
C698 C 0.03861 0.81374 0.9825 0.0
C699 C 0.03282 0.83896 0.97287 0.0
C700 C 1.01208 0.84871 0.01279 0.0
C701 C 1.00091 0.83468 0.07442 0.0
C702 C 0.05857 0.80199 0.93309 0.0
C703 C 1.00421 0.87518 1.00007 0.0
C704 C 0.08447 0.88562 0.98466 0.0
C705 C 0.07995 0.89916 0.91206 0.0
C706 C 0.07038 0.86461 1.00235 0.0
C707 C 0.05195 0.85644 0.94419 0.0
C708 C 0.04947 0.86826 0.86636 0.0
C709 C 0.06337 0.88969 0.85151 0.0
C710 C 0.07361 0.85276 0.08692 0.0
C711 C 0.03136 0.85935 0.80008 0.0
H712 H 0.03496 0.78226 0.06254 0.0
H713 H 0.98678 0.84296 0.11145 0.0
H714 H 0.05876 0.80979 0.86941 0.0
H715 H 0.07688 0.80572 0.96325 0.0
H716 H 0.05594 0.78165 0.92957 0.0
H717 H 0.98636 0.87909 0.02961 0.0
H718 H 1.01856 0.88774 0.0272 0.0
H719 H 1.0023 0.87949 0.93305 0.0
H720 H 0.09774 0.89257 0.03054 0.0
H721 H 0.05968 0.90007 0.7952 0.0
H722 H 0.07781 0.83287 0.08066 0.0
H723 H 0.05623 0.85426 0.12146 0.0
H724 H 0.08875 0.8615 0.12456 0.0
H725 H 0.04134 0.8475 0.75638 0.0
H726 H 0.02357 0.87518 0.7644 0.0
H727 H 1.01589 0.84829 0.82489 0.0
C728 C 0.75648 0.02287 0.03462 0.0
C729 C 0.7446 1.00701 0.09027 0.0
C730 C 0.7432 0.0333 0.96777 0.0
C731 C 0.71762 0.02839 0.95974 0.0
C732 C 0.70719 1.00848 1.00426 0.0
C733 C 0.72113 0.99758 0.06855 0.0
C734 C 0.75549 0.05235 0.91414 0.0
C735 C 0.68021 1.00154 0.99372 0.0
C736 C 0.67442 0.08234 0.9646 0.0
C737 C 0.66024 0.07854 0.89215 0.0
C738 C 0.69444 0.06709 0.98452 0.0
C739 C 0.70092 0.04809 0.92888 0.0
C740 C 0.68848 0.04608 0.85123 0.0
C741 C 0.66809 0.06125 0.83403 0.0
C742 C 0.70708 0.06993 0.06869 0.0
C743 C 0.69576 0.02733 0.78758 0.0
H744 H 0.77503 0.02963 0.0486 0.0
H745 H 0.71244 0.98419 0.10871 0.0
H746 H 0.74723 0.05219 0.85047 0.0
H747 H 0.75281 0.07099 0.94051 0.0
H748 H 0.77569 0.04902 0.91114 0.0
H749 H 0.67586 0.98378 0.02504 0.0
H750 H 0.6687 1.01621 0.02065 0.0
H751 H 0.67494 0.99995 0.92716 0.0
H752 H 0.6687 0.09609 0.00861 0.0
H753 H 0.65716 0.05812 0.77789 0.0
H754 H 0.72719 0.07307 0.06182 0.0
H755 H 0.7047 0.05278 0.10563 0.0
H756 H 0.69961 0.08558 0.10429 0.0
H757 H 0.70407 1.01052 0.81573 0.0
H758 H 0.70973 0.03585 0.74709 0.0
H759 H 0.67959 0.02175 0.74798 0.0
C760 C 0.5653 0.72735 0.07997 0.0
C761 C 0.55411 0.74963 0.101 0.0
C762 C 0.55465 0.71241 0.01809 0.0
C763 C 0.5329 0.72051 0.97597 0.0
C764 C 0.52535 0.74527 0.98369 0.0
C765 C 0.53589 0.75964 0.04755 0.0
C766 C 0.56425 0.68654 1.00765 0.0
C767 C 0.50382 0.75524 0.93308 0.0
C768 C 0.50273 0.66931 0.85008 0.0
C769 C 0.48713 0.65878 0.90894 0.0
C770 C 0.51652 0.69075 0.8679 0.0
C771 C 0.51478 0.70165 0.94679 0.0
C772 C 0.49768 0.69209 1.00414 0.0
C773 C 0.48384 0.67096 0.98388 0.0
C774 C 0.53344 0.70089 0.80301 0.0
C775 C 0.49533 0.70294 0.08969 0.0
H776 H 0.58013 0.72012 0.11931 0.0
H777 H 0.52765 0.77726 0.06178 0.0
H778 H 0.55159 0.67323 0.03777 0.0
H779 H 0.56484 0.68172 0.94109 0.0
H780 H 0.58305 0.68432 0.03596 0.0
H781 H 0.50443 0.77573 0.92994 0.0
H782 H 0.50372 0.74767 0.86931 0.0
H783 H 0.48627 0.74961 0.962 0.0
H784 H 0.50552 0.6599 0.79214 0.0
H785 H 0.47142 0.66313 0.02872 0.0
H786 H 0.54913 0.71181 0.82952 0.0
H787 H 0.5226 0.71315 0.76074 0.0
H788 H 0.54094 0.6857 0.76541 0.0
H789 H 0.51331 0.70178 0.12423 0.0
H790 H 0.48112 0.69326 0.12642 0.0
H791 H 0.4903 0.72272 0.08507 0.0
C792 C 0.82959 0.57379 0.10982 0.0
C793 C 0.80794 0.56095 0.1294 0.0
C794 C 0.84545 0.5643 0.05109 0.0
C795 C 0.83905 0.54182 0.0114 0.0
C796 C 0.81481 0.53224 0.01738 0.0
C797 C 0.79939 0.54188 0.07739 0.0
C798 C 0.87065 0.57596 0.04205 0.0
C799 C 0.80669 0.50952 0.97015 0.0
C800 C 0.89035 0.51265 0.89085 0.0
C801 C 0.90176 0.49796 0.95249 0.0
C802 C 0.86913 0.52633 0.90717 0.0
C803 C 0.8592 0.52521 0.98709 0.0
C804 C 0.87001 0.50946 0.04837 0.0
C805 C 0.89105 0.49593 0.02998 0.0
C806 C 0.85796 0.54215 0.83893 0.0
C807 C 0.86016 0.50781 0.135 0.0
H808 H 0.83576 0.5891 0.14843 0.0
H809 H 0.78229 0.53228 0.09086 0.0
H810 H 0.87617 0.57572 0.97643 0.0
H811 H 0.8711 0.59534 0.06447 0.0
H812 H 0.8845 0.56522 0.07885 0.0
H813 H 0.78621 0.50796 0.96581 0.0
H814 H 0.81414 0.50982 0.90681 0.0
H815 H 0.81396 0.49286 1.00255 0.0
H816 H 0.89872 0.51451 0.83097 0.0
H817 H 0.89965 0.48433 0.07725 0.0
H818 H 0.84703 0.55773 0.86248 0.0
H819 H 0.84552 0.53048 0.79952 0.0
H820 H 0.87262 0.54971 0.79904 0.0
H821 H 0.87054 0.4944 0.1746 0.0
H822 H 0.84042 0.50215 0.13264 0.0
H823 H 0.86139 0.52618 0.1651 0.0
C824 C 0.04908 0.21428 0.95025 0.0
C825 C 0.02609 0.22091 0.98145 0.0
C826 C 0.05172 0.19256 0.90281 0.0
C827 C 0.03097 0.17687 0.88667 0.0
C828 C 1.00747 0.18447 0.91318 0.0
C829 C 1.00532 0.20634 0.9593 0.0
C830 C 0.07703 0.18564 0.87417 0.0
C831 C 0.98473 0.16863 0.89777 0.0
C832 C 0.03127 0.12307 0.7318 0.0
C833 C 0.03607 0.10264 0.78373 0.0
C834 C 0.03031 0.14735 0.76361 0.0
C835 C 0.03397 0.1515 0.8498 0.0
C836 C 0.03904 0.13096 0.90224 0.0
C837 C 0.04018 0.10699 0.86874 0.0
C838 C 0.02526 0.16855 0.70491 0.0
C839 C 0.04258 0.1342 0.99459 0.0
H840 H 0.06529 0.22521 0.96723 0.0
H841 H 0.98741 0.21136 0.98238 0.0
H842 H 0.08403 0.16974 0.91116 0.0
H843 H 0.07609 0.17985 0.80838 0.0
H844 H 0.09048 0.20116 0.88102 0.0
H845 H 0.96756 0.17792 0.91679 0.0
H846 H 0.98278 0.16382 0.83126 0.0
H847 H 0.98661 0.15108 0.93302 0.0
H848 H 0.02813 0.12012 0.66605 0.0
H849 H 0.04377 0.0915 0.90992 0.0
H850 H 0.04158 0.18108 0.70446 0.0
H851 H 1.00943 0.17951 0.72612 0.0
H852 H 1.02117 0.16222 0.64065 0.0
H853 H 0.04692 0.11654 0.02688 0.0
H854 H 0.02553 0.14189 0.02072 0.0
H855 H 0.0578 0.14755 1.00799 0.0
C856 C 0.34745 0.04855 0.95622 0.0
C857 C 0.34022 0.02553 0.9885 0.0
C858 C 0.36892 0.05108 0.90804 0.0
C859 C 0.38388 0.03019 0.8921 0.0
C860 C 0.37575 1.00675 0.92036 0.0
C861 C 0.35412 1.00471 0.967 0.0
C862 C 0.37628 0.07637 0.87761 0.0
C863 C 0.39072 0.98384 0.9056 0.0
C864 C 0.43562 0.03011 0.73168 0.0
C865 C 0.45702 0.03468 0.78098 0.0
C866 C 0.41176 0.02935 0.76604 0.0
C867 C 0.40892 0.03287 0.85241 0.0
C868 C 0.43047 0.03753 0.90225 0.0
C869 C 0.45399 0.03858 0.86616 0.0
C870 C 0.38955 0.02483 0.70963 0.0
C871 C 0.42878 0.0408 0.99465 0.0
H872 H 0.33714 0.06483 0.97248 0.0
H873 H 0.34871 0.98675 0.99059 0.0
H874 H 0.393 0.08283 0.91269 0.0
H875 H 0.38103 0.07563 0.8113 0.0
H876 H 0.36136 0.09009 0.88527 0.0
H877 H 0.38132 0.9668 0.9274 0.0
H878 H 0.39435 0.98186 0.83874 0.0
H879 H 0.40892 0.98547 0.93861 0.0
H880 H 0.43748 0.02716 0.66586 0.0
H881 H 0.47019 0.04195 0.90554 0.0
H882 H 0.37773 0.0415 0.7082 0.0
H883 H 0.37819 1.00938 0.73351 0.0
H884 H 0.39483 0.02051 0.64535 0.0
H885 H 0.41617 0.05623 0.0083 0.0
H886 H 0.44708 0.04466 0.02494 0.0
H887 H 0.4209 0.02384 0.02268 0.0
C888 C 0.5619 0.35283 0.94327 0.0
C889 C 0.54174 0.33834 0.9689 0.0
C890 C 0.55856 0.37519 0.89979 0.0
C891 C 0.5344 0.38333 0.8784 0.0
C892 C 0.51397 0.36796 0.89856 0.0
C893 C 0.51784 0.34578 0.94395 0.0
C894 C 0.58099 0.3908 0.88096 0.0
C895 C 0.48791 0.37547 0.87527 0.0
C896 C 0.5263 0.45341 0.85894 0.0
C897 C 0.52826 0.45758 0.77342 0.0
C898 C 0.52776 0.42944 0.89326 0.0
C899 C 0.53072 0.40872 0.84106 0.0
C900 C 0.53199 0.41271 0.75433 0.0
C901 C 0.53106 0.43701 0.72178 0.0
C902 C 0.52696 0.4264 0.98609 0.0
C903 C 0.53468 0.3913 0.69588 0.0
H904 H 0.58052 0.34711 0.96033 0.0
H905 H 0.50209 0.33492 0.96315 0.0
H906 H 0.58115 0.39551 0.81415 0.0
H907 H 0.58024 0.40843 0.91558 0.0
H908 H 0.59858 0.3814 0.89816 0.0
H909 H 0.47441 0.36026 0.88522 0.0
H910 H 0.48258 0.3915 0.9132 0.0
H911 H 0.48669 0.38132 0.80938 0.0
H912 H 0.52433 0.46904 0.89984 0.0
H913 H 0.53251 0.43987 0.65566 0.0
H914 H 0.54461 0.41836 0.00981 0.0
H915 H 0.51192 0.4134 1.00253 0.0
H916 H 0.524 0.4442 0.01817 0.0
H917 H 0.55302 0.38262 0.70625 0.0
H918 H 0.53295 0.3971 0.62996 0.0
H919 H 0.52045 0.37697 0.70807 0.0
C920 C 0.21004 0.54865 0.94589 0.0
C921 C 0.22421 0.52755 0.96362 0.0
C922 C 0.18754 0.54712 0.90055 0.0
C923 C 0.17895 0.5239 0.87107 0.0
C924 C 0.19424 0.5029 0.88239 0.0
C925 C 0.21667 0.50495 0.92879 0.0
C926 C 0.17205 0.57007 0.8901 0.0
C927 C 0.18612 0.4779 0.85062 0.0
C928 C 0.10875 0.516 0.86122 0.0
C929 C 0.10294 0.52075 0.77745 0.0
C930 C 0.13338 0.51638 0.89169 0.0
C931 C 0.15293 0.52135 0.83717 0.0
C932 C 0.14727 0.52543 0.75207 0.0
C933 C 0.12241 0.52525 0.72337 0.0
C934 C 0.13841 0.51221 0.98307 0.0
C935 C 0.16746 0.53053 0.69165 0.0
H936 H 0.21582 0.56621 0.97235 0.0
H937 H 0.22737 0.48853 0.9427 0.0
H938 H 0.16561 0.57225 0.82476 0.0
H939 H 0.15538 0.56835 0.92834 0.0
H940 H 0.18235 0.58703 0.90916 0.0
H941 H 0.2015 0.4644 0.85267 0.0
H942 H 0.17101 0.47063 0.88915 0.0
H943 H 0.17874 0.47934 0.78605 0.0
H944 H 0.09397 0.51257 0.9038 0.0
H945 H 0.11826 0.52889 0.65849 0.0
H946 H 0.14704 0.529 0.01079 0.0
H947 H 0.15165 0.49685 0.99255 0.0
H948 H 0.12131 0.50779 0.01686 0.0
H949 H 0.16021 0.53217 0.62688 0.0
H950 H 0.18137 0.51558 0.69481 0.0
H951 H 0.17716 0.54795 0.70867 0.0
C952 C 1.00987 0.83655 0.46585 0.0
C953 C 0.02292 0.83428 0.39236 0.0
C954 C 1.01118 0.85852 0.51345 0.0
C955 C 0.02556 0.87905 0.48645 0.0
C956 C 0.03961 0.87631 0.41432 0.0
C957 C 0.03852 0.854 0.36976 0.0
C958 C 0.99586 0.85988 0.58978 0.0
C959 C 0.05461 0.89755 0.38066 0.0
C960 C 1.00761 0.94528 0.54409 0.0
C961 C 0.0264 0.95221 0.6015 0.0
C962 C 1.00679 0.92149 0.5082 0.0
C963 C 0.02513 0.90381 0.52978 0.0
C964 C 0.04387 0.91049 0.58888 0.0
C965 C 0.04426 0.93442 0.62396 0.0
C966 C 0.98652 0.91544 0.44543 0.0
C967 C 0.06366 0.8923 0.6145 0.0
H968 H 0.99761 0.82168 0.48408 0.0
H969 H 0.04903 0.85246 0.31385 0.0
H970 H 1.00177 0.87503 0.63188 0.0
H971 H 0.97624 0.86287 0.57073 0.0
H972 H 0.99674 0.84212 0.62443 0.0
H973 H 0.06502 0.89231 0.32516 0.0
H974 H 0.04212 0.91304 0.36354 0.0
H975 H 0.06794 0.90453 0.42852 0.0
H976 H 0.99363 0.95861 0.52593 0.0
H977 H 0.05884 0.93926 0.66838 0.0
H978 H 0.97565 0.89932 0.46711 0.0
H979 H 0.99471 0.91026 0.38575 0.0
H980 H 0.97375 0.93115 0.43432 0.0
H981 H 0.05497 0.87581 0.64277 0.0
H982 H 0.07742 0.90032 0.65909 0.0
H983 H 0.07361 0.88584 0.55967 0.0
C984 C 0.72134 1.00899 0.45711 0.0
C985 C 0.72372 0.02186 0.38198 0.0
C986 C 0.6994 1.01036 0.50354 0.0
C987 C 0.67896 0.02477 0.47423 0.0
C988 C 0.68179 0.03854 0.40013 0.0
C989 C 0.70399 0.03725 0.35635 0.0
C990 C 0.69814 0.99511 0.58157 0.0
C991 C 0.66071 0.05358 0.36377 0.0
C992 C 0.61231 1.00752 0.53403 0.0
C993 C 0.60601 0.02643 0.5891 0.0
C994 C 0.63593 1.00649 0.49819 0.0
C995 C 0.65421 0.02472 0.51728 0.0
C996 C 0.64818 0.04358 0.57405 0.0
C997 C 0.62438 0.04422 0.60899 0.0
C998 C 0.64121 0.98599 0.43848 0.0
C999 C 0.66699 0.06319 0.59772 0.0
H1000 H 0.73609 0.9968 0.47772 0.0
H1001 H 0.70546 0.04747 0.29883 0.0
H1002 H 0.68179 0.9992 0.61881 0.0
H1003 H 0.69759 0.97524 0.56489 0.0
H1004 H 0.71512 0.99817 0.62048 0.0
H1005 H 0.66592 0.06371 0.30686 0.0
H1006 H 0.64484 0.04118 0.34816 0.0
H1007 H 0.65428 0.06712 0.40957 0.0
H1008 H 0.5986 0.99356 0.51774 0.0
H1009 H 0.62012 0.05889 0.65158 0.0
H1010 H 0.65723 0.9751 0.46209 0.0
H1011 H 0.64626 0.99391 0.37771 0.0
H1012 H 0.62515 0.97332 0.42893 0.0
H1013 H 0.68344 0.05439 0.6274 0.0
H1014 H 0.65952 0.07705 0.6406 0.0
H1015 H 0.6734 0.07299 0.54178 0.0
C1016 C 0.52509 0.70816 0.3673 0.0
C1017 C 0.54118 0.72744 0.39254 0.0
C1018 C 0.52364 0.68574 0.41145 0.0
C1019 C 0.53789 0.68244 0.48552 0.0
C1020 C 0.55276 0.70255 0.51504 0.0
C1021 C 0.55439 0.72466 0.46797 0.0
C1022 C 0.50804 0.66496 0.37537 0.0
C1023 C 0.56829 0.70054 0.59362 0.0
C1024 C 0.519 0.6264 0.61761 0.0
C1025 C 0.53652 0.60855 0.59643 0.0
C1026 C 0.51967 0.65063 0.58431 0.0
C1027 C 0.53821 0.65743 0.52787 0.0
C1028 C 0.5562 0.63966 0.50763 0.0
C1029 C 0.55521 0.61565 0.54216 0.0
C1030 C 0.50042 0.66899 0.60908 0.0
C1031 C 0.57624 0.64584 0.44764 0.0
H1032 H 0.51452 0.71012 0.30966 0.0
H1033 H 0.56702 0.73919 0.48815 0.0
H1034 H 0.52013 0.64929 0.35958 0.0
H1035 H 0.49479 0.65807 0.42138 0.0
H1036 H 0.4975 0.67066 0.31858 0.0
H1037 H 0.56837 0.71832 0.62766 0.0
H1038 H 0.56179 0.68568 0.63527 0.0
H1039 H 0.58766 0.69659 0.57746 0.0
H1040 H 0.50457 0.62142 0.65993 0.0
H1041 H 0.56891 0.60224 0.52504 0.0
H1042 H 0.49008 0.67591 0.55364 0.0
H1043 H 0.50964 0.68518 0.63867 0.0
H1044 H 0.48695 0.66094 0.6524 0.0
H1045 H 0.56781 0.65149 0.38714 0.0
H1046 H 0.58875 0.63004 0.43744 0.0
H1047 H 0.58743 0.66168 0.47133 0.0
C1048 C 0.83462 0.55867 0.49181 0.0
C1049 C 0.82994 0.54456 0.42046 0.0
C1050 C 0.85721 0.55651 0.53737 0.0
C1051 C 0.87571 0.54012 0.51024 0.0
C1052 C 0.87035 0.52482 0.44102 0.0
C1053 C 0.84756 0.52706 0.39785 0.0
C1054 C 0.86173 0.5731 0.611 0.0
C1055 C 0.88933 0.50721 0.40888 0.0
C1056 C 0.94435 0.55434 0.55158 0.0
C1057 C 0.95095 0.53681 0.61246 0.0
C1058 C 0.91988 0.55605 0.51971 0.0
C1059 C 0.90128 0.53998 0.54951 0.0
C1060 C 0.90762 0.52272 0.61265 0.0
C1061 C 0.93228 0.52131 0.64319 0.0
C1062 C 0.91408 0.57466 0.45229 0.0
C1063 C 0.88834 0.50559 0.6473 0.0
H1064 H 0.8213 0.57245 0.50917 0.0
H1065 H 0.84409 0.51609 0.34267 0.0
H1066 H 0.87442 0.56456 0.65772 0.0
H1067 H 0.87031 0.59061 0.58985 0.0
H1068 H 0.84411 0.5777 0.64093 0.0
H1069 H 0.88183 0.49567 0.3572 0.0
H1070 H 0.90546 0.51783 0.38646 0.0
H1071 H 0.89615 0.49484 0.45926 0.0
H1072 H 0.95845 0.56647 0.52726 0.0
H1073 H 0.93694 0.50785 0.69084 0.0
H1074 H 0.89907 0.58702 0.47184 0.0
H1075 H 0.90736 0.56498 0.3955 0.0
H1076 H 0.93041 0.58616 0.43673 0.0
H1077 H 0.89622 0.49271 0.69445 0.0
H1078 H 0.87944 0.49455 0.59693 0.0
H1079 H 0.87361 0.5166 0.67575 0.0
loop_
_geom_bond_atom_site_label_1
_geom_bond_atom_site_label_2
_geom_bond_distance
_geom_bond_site_symmetry_2
_ccdc_geom_bond_type
H0 C1 0.949 . S
C1 H0 0.949 . S
C1 C2 1.395 . S
C1 C3 1.391 . S
C2 C1 1.395 . S
C2 C5 1.390 . S
C3 C1 1.391 . S
C3 C7 1.387 . S
C3 C8 1.491 . S
H4 C5 0.950 . S
C5 C2 1.390 . S
C5 H4 0.950 . S
C5 C6 1.378 . S
C6 C5 1.378 . S
C6 C7 1.409 . S
C7 C3 1.387 . S
C7 C6 1.409 . S
C7 H9 0.951 . S
C8 C3 1.491 . S
C8 C10 1.382 . S
C8 C12 1.404 . S
H9 C7 0.951 . S
C10 C8 1.382 . S
C10 C11 1.390 . S
C10 H15 0.949 . S
C11 C10 1.390 . S
C11 C16 1.399 . S
C12 C8 1.404 . S
C12 H13 0.950 . S
C12 C14 1.375 . S
H13 C12 0.950 . S
C14 C12 1.375 . S
C14 C16 1.382 . S
C14 H18 0.950 . S
H15 C10 0.949 . S
C16 C11 1.399 . S
C16 C14 1.382 . S
C16 H17 0.952 . S
H17 C16 0.952 . S
H18 C14 0.950 . S
H19 C20 0.949 . S
C20 H19 0.949 . S
C20 C21 1.395 . S
C20 C22 1.391 . S
C21 C20 1.395 . S
C21 C24 1.390 . S
C22 C20 1.391 . S
C22 C26 1.387 . S
C22 C27 1.491 . S
H23 C24 0.950 . S
C24 C21 1.390 . S
C24 H23 0.950 . S
C24 C25 1.378 . S
C25 C24 1.378 . S
C25 C26 1.409 . S
C26 C22 1.387 . S
C26 C25 1.409 . S
C26 H28 0.951 . S
C27 C22 1.491 . S
C27 C29 1.382 . S
C27 C31 1.404 . S
H28 C26 0.951 . S
C29 C27 1.382 . S
C29 C30 1.390 . S
C29 H34 0.949 . S
C30 C29 1.390 . S
C30 C35 1.399 . S
C31 C27 1.404 . S
C31 H32 0.950 . S
C31 C33 1.375 . S
H32 C31 0.950 . S
C33 C31 1.375 . S
C33 C35 1.382 . S
C33 H37 0.950 . S
H34 C29 0.949 . S
C35 C30 1.399 . S
C35 C33 1.382 . S
C35 H36 0.952 . S
H36 C35 0.952 . S
H37 C33 0.950 . S
H38 C39 0.949 . S
C39 H38 0.949 . S
C39 C40 1.395 . S
C39 C41 1.391 . S
C40 C39 1.395 . S
C40 C43 1.390 . S
C41 C39 1.391 . S
C41 C45 1.387 . S
C41 C46 1.491 . S
H42 C43 0.950 . S
C43 C40 1.390 . S
C43 H42 0.950 . S
C43 C44 1.378 . S
C44 C43 1.378 . S
C44 C45 1.409 . S
C45 C41 1.387 . S
C45 C44 1.409 . S
C45 H47 0.951 . S
C46 C41 1.491 . S
C46 C48 1.382 . S
C46 C50 1.404 . S
H47 C45 0.951 . S
C48 C46 1.382 . S
C48 C49 1.390 . S
C48 H53 0.949 . S
C49 C48 1.390 . S
C49 C54 1.399 . S
C50 C46 1.404 . S
C50 H51 0.950 . S
C50 C52 1.375 . S
H51 C50 0.950 . S
C52 C50 1.375 . S
C52 C54 1.382 . S
C52 H56 0.950 . S
H53 C48 0.949 . S
C54 C49 1.399 . S
C54 C52 1.382 . S
C54 H55 0.952 . S
H55 C54 0.952 . S
H56 C52 0.950 . S
H57 C58 0.949 . S
C58 H57 0.949 . S
C58 C59 1.395 . S
C58 C60 1.391 . S
C59 C58 1.395 . S
C59 C62 1.390 . S
C60 C58 1.391 . S
C60 C64 1.387 . S
C60 C65 1.491 . S
H61 C62 0.950 . S
C62 C59 1.390 . S
C62 H61 0.950 . S
C62 C63 1.378 . S
C63 C62 1.378 . S
C63 C64 1.409 . S
C64 C60 1.387 . S
C64 C63 1.409 . S
C64 H66 0.951 . S
C65 C60 1.491 . S
C65 C67 1.382 . S
C65 C69 1.404 . S
H66 C64 0.951 . S
C67 C65 1.382 . S
C67 C68 1.390 . S
C67 H72 0.949 . S
C68 C67 1.390 . S
C68 C73 1.399 . S
C69 C65 1.404 . S
C69 H70 0.950 . S
C69 C71 1.375 . S
H70 C69 0.950 . S
C71 C69 1.375 . S
C71 C73 1.382 . S
C71 H75 0.950 . S
H72 C67 0.949 . S
C73 C68 1.399 . S
C73 C71 1.382 . S
C73 H74 0.952 . S
H74 C73 0.952 . S
H75 C71 0.950 . S
H76 C77 0.949 . S
C77 H76 0.949 . S
C77 C78 1.395 . S
C77 C79 1.391 . S
C78 C77 1.395 . S
C78 C81 1.390 . S
C79 C77 1.391 . S
C79 C83 1.387 1_554 S
C79 C84 1.491 . S
H80 C81 0.950 . S
C81 C78 1.390 . S
C81 H80 0.950 . S
C81 C82 1.378 1_554 S
C82 C81 1.378 1_556 S
C82 C83 1.409 . S
C83 C79 1.387 1_556 S
C83 C82 1.409 . S
C83 H85 0.951 . S
C84 C79 1.491 . S
C84 C86 1.382 . S
C84 C88 1.404 . S
H85 C83 0.951 . S
C86 C84 1.382 . S
C86 C87 1.390 . S
C86 H91 0.949 . S
C87 C86 1.390 . S
C87 C92 1.399 . S
C88 C84 1.404 . S
C88 H89 0.950 1_554 S
C88 C90 1.375 . S
H89 C88 0.950 1_556 S
C90 C88 1.375 . S
C90 C92 1.382 . S
C90 H94 0.950 1_554 S
H91 C86 0.949 . S
C92 C87 1.399 . S
C92 C90 1.382 . S
C92 H93 0.952 . S
H93 C92 0.952 . S
H94 C90 0.950 1_556 S
H95 C96 0.949 . S
C96 H95 0.949 . S
C96 C97 1.395 . S
C96 C98 1.391 . S
C97 C96 1.395 . S
C97 C100 1.390 . S
C98 C96 1.391 . S
C98 C102 1.387 1_554 S
C98 C103 1.491 . S
H99 C100 0.950 . S
C100 C97 1.390 . S
C100 H99 0.950 . S
C100 C101 1.378 1_554 S
C101 C100 1.378 1_556 S
C101 C102 1.409 . S
C102 C98 1.387 1_556 S
C102 C101 1.409 . S
C102 H104 0.951 . S
C103 C98 1.491 . S
C103 C105 1.382 . S
C103 C107 1.404 1_554 S
H104 C102 0.951 . S
C105 C103 1.382 . S
C105 C106 1.390 . S
C105 H110 0.949 . S
C106 C105 1.390 . S
C106 C111 1.399 . S
C107 C103 1.404 1_556 S
C107 H108 0.950 . S
C107 C109 1.375 . S
H108 C107 0.950 . S
C109 C107 1.375 . S
C109 C111 1.382 1_556 S
C109 H113 0.950 . S
H110 C105 0.949 . S
C111 C106 1.399 . S
C111 C109 1.382 1_554 S
C111 H112 0.952 . S
H112 C111 0.952 . S
H113 C109 0.950 . S
H114 C115 0.949 . S
C115 H114 0.949 . S
C115 C116 1.395 . S
C115 C117 1.391 1_554 S
C116 C115 1.395 . S
C116 C119 1.390 1_554 S
C117 C115 1.391 1_556 S
C117 C121 1.387 . S
C117 C122 1.491 . S
H118 C119 0.950 . S
C119 C116 1.390 1_556 S
C119 H118 0.950 . S
C119 C120 1.378 . S
C120 C119 1.378 . S
C120 C121 1.409 . S
C121 C117 1.387 . S
C121 C120 1.409 . S
C121 H123 0.951 . S
C122 C117 1.491 . S
C122 C124 1.382 1_556 S
C122 C126 1.404 . S
H123 C121 0.951 . S
C124 C122 1.382 1_554 S
C124 C125 1.390 . S
C124 H129 0.949 . S
C125 C124 1.390 . S
C125 C130 1.399 1_554 S
C126 C122 1.404 . S
C126 H127 0.950 . S
C126 C128 1.375 . S
H127 C126 0.950 . S
C128 C126 1.375 . S
C128 C130 1.382 . S
C128 H132 0.950 1_545 S
H129 C124 0.949 . S
C130 C125 1.399 1_556 S
C130 C128 1.382 . S
C130 H131 0.952 . S
H131 C130 0.952 . S
H132 C128 0.950 1_565 S
H133 C134 0.949 . S
C134 H133 0.949 . S
C134 C135 1.395 . S
C134 C136 1.391 . S
C135 C134 1.395 . S
C135 C138 1.390 . S
C136 C134 1.391 . S
C136 C140 1.387 1_554 S
C136 C141 1.491 . S
H137 C138 0.950 . S
C138 C135 1.390 . S
C138 H137 0.950 . S
C138 C139 1.378 1_554 S
C139 C138 1.378 1_556 S
C139 C140 1.409 . S
C140 C136 1.387 1_556 S
C140 C139 1.409 . S
C140 H142 0.951 . S
C141 C136 1.491 . S
C141 C143 1.382 . S
C141 C145 1.404 . S
H142 C140 0.951 . S
C143 C141 1.382 . S
C143 C144 1.390 . S
C143 H148 0.949 . S
C144 C143 1.390 . S
C144 C149 1.399 . S
C145 C141 1.404 . S
C145 H146 0.950 1_554 S
C145 C147 1.375 . S
H146 C145 0.950 1_556 S
C147 C145 1.375 . S
C147 C149 1.382 . S
C147 H151 0.950 1_554 S
H148 C143 0.949 . S
C149 C144 1.399 . S
C149 C147 1.382 . S
C149 H150 0.952 . S
H150 C149 0.952 . S
H151 C147 0.950 1_556 S
Eu152 C161 2.828 . S
Eu152 O163 2.392 . S
Eu152 O165 2.418 1_545 S
Eu152 O170 2.373 1_655 S
Eu152 O173 2.488 . S
Eu152 O174 2.471 1_655 S
Eu152 O175 2.349 1_655 S
Eu153 O162 2.376 1_455 S
Eu153 O166 2.488 . S
Eu153 O167 2.471 . S
Eu153 O168 2.349 . S
Eu153 O171 2.392 1_565 S
Eu153 O172 2.418 1_565 S
Eu153 C182 2.828 . S
C154 O172 1.244 . S
C154 O175 1.265 . S
C155 C156 1.379 . S
C155 C159 1.373 1_455 S
C155 C161 1.505 1_455 S
C156 C155 1.379 . S
C156 C158 1.369 . S
C156 H184 0.930 . S
C157 C159 1.383 . S
C157 C160 1.382 1_655 S
C157 H185 0.930 . S
C158 C156 1.369 . S
C158 C160 1.392 . S
C158 H186 0.930 . S
C159 C155 1.373 1_655 S
C159 C157 1.383 . S
C159 H187 0.931 . S
C160 C157 1.382 1_455 S
C160 C158 1.392 . S
C161 Eu152 2.828 . S
C161 C155 1.505 1_655 S
C161 O173 1.249 . S
C161 O174 1.244 1_655 S
O162 Eu153 2.376 1_655 S
O162 C164 1.254 1_565 S
O163 Eu152 2.392 . S
O163 C164 1.242 . S
C164 O162 1.254 1_545 S
C164 O163 1.242 . S
O165 Eu152 2.418 1_565 S
O165 C169 1.244 . S
O166 Eu153 2.488 . S
O166 C182 1.249 . S
O167 Eu153 2.471 . S
O167 C182 1.244 . S
O168 Eu153 2.349 . S
O168 C169 1.265 1_455 S
C169 O165 1.244 . S
C169 O168 1.265 1_655 S
O170 Eu152 2.373 1_455 S
O170 C183 1.258 . S
O171 Eu153 2.392 1_545 S
O171 C183 1.242 . S
O172 Eu153 2.418 1_545 S
O172 C154 1.244 . S
O173 Eu152 2.488 . S
O173 C161 1.249 . S
O174 Eu152 2.471 1_455 S
O174 C161 1.244 1_455 S
O175 Eu152 2.349 1_455 S
O175 C154 1.265 . S
C176 C177 1.379 . S
C176 C180 1.373 1_556 S
C176 C182 1.505 . S
C177 C176 1.379 . S
C177 C179 1.369 1_456 S
C177 H188 0.930 1_455 S
C178 C180 1.383 . S
C178 C181 1.382 . S
C178 H189 0.930 . S
C179 C177 1.369 1_654 S
C179 C181 1.392 1_655 S
C179 H190 0.930 1_554 S
C180 C176 1.373 1_554 S
C180 C178 1.383 . S
C180 H191 0.931 . S
C181 C178 1.382 . S
C181 C179 1.392 1_455 S
C182 Eu153 2.828 . S
C182 O166 1.249 . S
C182 O167 1.244 . S
C182 C176 1.505 . S
C183 O170 1.258 . S
C183 O171 1.242 . S
H184 C156 0.930 . S
H185 C157 0.930 . S
H186 C158 0.930 . S
H187 C159 0.931 . S
H188 C177 0.930 1_655 S
H189 C178 0.930 . S
H190 C179 0.930 1_556 S
H191 C180 0.931 . S
Eu192 C201 2.828 . S
Eu192 O203 2.392 . S
Eu192 O205 2.418 . S
Eu192 O210 2.373 . S
Eu192 O213 2.488 . S
Eu192 O214 2.471 . S
Eu192 O215 2.349 1_545 S
Eu193 O202 2.373 1_565 S
Eu193 O206 2.488 . S
Eu193 O207 2.471 1_565 S
Eu193 O208 2.349 1_565 S
Eu193 O211 2.392 . S
Eu193 O212 2.418 . S
Eu193 C222 2.828 . S
C194 O212 1.244 . S
C194 O215 1.265 . S
C195 C196 1.379 . S
C195 C199 1.373 . S
C195 C201 1.505 . S
C196 C195 1.379 . S
C196 C198 1.369 . S
C196 H224 0.930 1_545 S
C197 C199 1.383 . S
C197 C200 1.382 . S
C197 H225 0.930 . S
C198 C196 1.369 . S
C198 C200 1.392 . S
C198 H226 0.930 1_545 S
C199 C195 1.373 . S
C199 C197 1.383 . S
C199 H227 0.931 . S
C200 C197 1.382 . S
C200 C198 1.392 . S
C201 Eu192 2.828 . S
C201 C195 1.505 . S
C201 O213 1.249 . S
C201 O214 1.244 . S
O202 Eu193 2.373 1_545 S
O202 C204 1.258 . S
O203 Eu192 2.392 . S
O203 C204 1.242 . S
C204 O202 1.258 . S
C204 O203 1.242 . S
O205 Eu192 2.418 . S
O205 C209 1.244 . S
O206 Eu193 2.488 . S
O206 C222 1.249 . S
O207 Eu193 2.471 1_545 S
O207 C222 1.244 1_545 S
O208 Eu193 2.349 1_545 S
O208 C209 1.265 . S
C209 O205 1.244 . S
C209 O208 1.265 . S
O210 Eu192 2.373 . S
O210 C223 1.258 1_545 S
O211 Eu193 2.392 . S
O211 C223 1.242 . S
O212 Eu193 2.418 . S
O212 C194 1.244 . S
O213 Eu192 2.488 . S
O213 C201 1.249 . S
O214 Eu192 2.471 . S
O214 C201 1.244 . S
O215 Eu192 2.349 1_565 S
O215 C194 1.265 . S
C216 C217 1.379 1_565 S
C216 C220 1.373 . S
C216 C222 1.505 . S
C217 C216 1.379 1_545 S
C217 C219 1.369 . S
C217 H228 0.930 . S
C218 C220 1.383 . S
C218 C221 1.382 . S
C218 H229 0.930 . S
C219 C217 1.369 . S
C219 C221 1.392 1_545 S
C219 H230 0.930 . S
C220 C216 1.373 . S
C220 C218 1.383 . S
C220 H231 0.931 . S
C221 C218 1.382 . S
C221 C219 1.392 1_565 S
C222 Eu193 2.828 . S
C222 O206 1.249 . S
C222 O207 1.244 1_565 S
C222 C216 1.505 . S
C223 O210 1.258 1_565 S
C223 O211 1.242 . S
H224 C196 0.930 1_565 S
H225 C197 0.930 . S
H226 C198 0.930 1_565 S
H227 C199 0.931 . S
H228 C217 0.930 . S
H229 C218 0.930 . S
H230 C219 0.930 . S
H231 C220 0.931 . S
Eu232 C241 2.828 . S
Eu232 O243 2.392 . S
Eu232 O245 2.418 . S
Eu232 O250 2.373 . S
Eu232 O253 2.488 . S
Eu232 O254 2.471 . S
Eu232 O255 2.349 . S
Eu233 O242 2.373 . S
Eu233 O246 2.488 . S
Eu233 O247 2.471 . S
Eu233 O248 2.349 . S
Eu233 O251 2.392 . S
Eu233 O252 2.418 . S
Eu233 C262 2.828 . S
C234 O252 1.244 . S
C234 O255 1.265 . S
C235 C236 1.379 . S
C235 C239 1.373 . S
C235 C241 1.505 . S
C236 C235 1.379 . S
C236 C238 1.369 . S
C236 H264 0.930 . S
C237 C239 1.383 . S
C237 C240 1.382 . S
C237 H265 0.930 . S
C238 C236 1.369 . S
C238 C240 1.392 . S
C238 H266 0.930 . S
C239 C235 1.373 . S
C239 C237 1.383 . S
C239 H267 0.931 . S
C240 C237 1.382 . S
C240 C238 1.392 . S
C241 Eu232 2.828 . S
C241 C235 1.505 . S
C241 O253 1.249 . S
C241 O254 1.244 . S
O242 Eu233 2.373 . S
O242 C244 1.258 . S
O243 Eu232 2.392 . S
O243 C244 1.242 . S
C244 O242 1.258 . S
C244 O243 1.242 . S
O245 Eu232 2.418 . S
O245 C249 1.244 . S
O246 Eu233 2.488 . S
O246 C262 1.249 . S
O247 Eu233 2.471 . S
O247 C262 1.244 . S
O248 Eu233 2.349 . S
O248 C249 1.265 . S
C249 O245 1.244 . S
C249 O248 1.265 . S
O250 Eu232 2.373 . S
O250 C263 1.258 . S
O251 Eu233 2.392 . S
O251 C263 1.242 . S
O252 Eu233 2.418 . S
O252 C234 1.244 . S
O253 Eu232 2.488 . S
O253 C241 1.249 . S
O254 Eu232 2.471 . S
O254 C241 1.244 . S
O255 Eu232 2.349 . S
O255 C234 1.265 . S
C256 C257 1.379 . S
C256 C260 1.373 . S
C256 C262 1.505 . S
C257 C256 1.379 . S
C257 C259 1.369 . S
C257 H268 0.930 . S
C258 C260 1.383 . S
C258 C261 1.382 . S
C258 H269 0.930 . S
C259 C257 1.369 . S
C259 C261 1.392 . S
C259 H270 0.930 . S
C260 C256 1.373 . S
C260 C258 1.383 . S
C260 H271 0.931 . S
C261 C258 1.382 . S
C261 C259 1.392 . S
C262 Eu233 2.828 . S
C262 O246 1.249 . S
C262 O247 1.244 . S
C262 C256 1.505 . S
C263 O250 1.258 . S
C263 O251 1.242 . S
H264 C236 0.930 . S
H265 C237 0.930 . S
H266 C238 0.930 . S
H267 C239 0.931 . S
H268 C257 0.930 . S
H269 C258 0.930 . S
H270 C259 0.930 . S
H271 C260 0.931 . S
Eu272 C281 2.828 . S
Eu272 O283 2.392 . S
Eu272 O285 2.418 1_455 S
Eu272 O290 2.373 . S
Eu272 O293 2.488 . S
Eu272 O294 2.471 . S
Eu272 O295 2.349 . S
Eu273 O282 2.373 . S
Eu273 O286 2.488 . S
Eu273 O287 2.471 . S
Eu273 O288 2.349 . S
Eu273 O291 2.392 1_655 S
Eu273 O292 2.418 1_655 S
Eu273 C302 2.828 . S
C274 O292 1.244 . S
C274 O295 1.265 . S
C275 C276 1.379 . S
C275 C279 1.373 . S
C275 C281 1.505 . S
C276 C275 1.379 . S
C276 C278 1.369 . S
C276 H304 0.930 . S
C277 C279 1.383 . S
C277 C280 1.382 . S
C277 H305 0.930 . S
C278 C276 1.369 . S
C278 C280 1.392 . S
C278 H306 0.930 . S
C279 C275 1.373 . S
C279 C277 1.383 . S
C279 H307 0.931 . S
C280 C277 1.382 . S
C280 C278 1.392 . S
C281 Eu272 2.828 . S
C281 C275 1.505 . S
C281 O293 1.249 . S
C281 O294 1.244 . S
O282 Eu273 2.373 . S
O282 C284 1.258 1_655 S
O283 Eu272 2.392 . S
O283 C284 1.242 . S
C284 O282 1.258 1_455 S
C284 O283 1.242 . S
O285 Eu272 2.418 1_655 S
O285 C289 1.244 . S
O286 Eu273 2.488 . S
O286 C302 1.249 . S
O287 Eu273 2.471 . S
O287 C302 1.244 . S
O288 Eu273 2.349 . S
O288 C289 1.265 . S
C289 O285 1.244 . S
C289 O288 1.265 . S
O290 Eu272 2.373 . S
O290 C303 1.258 . S
O291 Eu273 2.392 1_455 S
O291 C303 1.242 . S
O292 Eu273 2.418 1_455 S
O292 C274 1.244 . S
O293 Eu272 2.488 . S
O293 C281 1.249 . S
O294 Eu272 2.471 . S
O294 C281 1.244 . S
O295 Eu272 2.349 . S
O295 C274 1.265 . S
C296 C297 1.379 . S
C296 C300 1.373 1_556 S
C296 C302 1.505 . S
C297 C296 1.379 . S
C297 C299 1.369 . S
C297 H308 0.930 . S
C298 C300 1.383 . S
C298 C301 1.382 . S
C298 H309 0.930 . S
C299 C297 1.369 . S
C299 C301 1.392 1_556 S
C299 H310 0.930 . S
C300 C296 1.373 1_554 S
C300 C298 1.383 . S
C300 H311 0.931 . S
C301 C298 1.382 . S
C301 C299 1.392 1_554 S
C302 Eu273 2.828 . S
C302 O286 1.249 . S
C302 O287 1.244 . S
C302 C296 1.505 . S
C303 O290 1.258 . S
C303 O291 1.242 . S
H304 C276 0.930 . S
H305 C277 0.930 . S
H306 C278 0.930 . S
H307 C279 0.931 . S
H308 C297 0.930 . S
H309 C298 0.930 . S
H310 C299 0.930 . S
H311 C300 0.931 . S
C312 C313 1.391 . S
C312 C314 1.394 . S
C312 H328 0.931 . S
C313 C312 1.391 . S
C313 C317 1.376 . S
C314 C312 1.394 . S
C314 C315 1.369 . S
C314 C318 1.531 . S
C315 C314 1.369 . S
C315 C316 1.410 . S
C315 C323 1.503 . S
C316 C315 1.410 . S
C316 C317 1.392 . S
C316 C319 1.506 1_545 S
C317 C313 1.376 . S
C317 C316 1.392 . S
C317 H329 0.929 . S
C318 C314 1.531 . S
C318 H330 0.960 . S
C318 H331 0.962 . S
C318 H332 0.960 . S
C319 C316 1.506 1_565 S
C319 H333 0.961 . S
C319 H334 0.958 1_565 S
C319 H335 0.969 . S
C320 C321 1.370 . S
C320 C322 1.363 . S
C320 H336 0.931 . S
C321 C320 1.370 . S
C321 C325 1.408 . S
C322 C320 1.363 . S
C322 C323 1.370 . S
C322 C326 1.524 . S
C323 C315 1.503 . S
C323 C322 1.370 . S
C323 C324 1.403 . S
C324 C323 1.403 . S
C324 C325 1.404 . S
C324 C327 1.539 1_545 S
C325 C321 1.408 . S
C325 C324 1.404 . S
C325 H337 0.930 1_545 S
C326 C322 1.524 . S
C326 H338 0.956 . S
C326 H339 0.961 . S
C326 H340 0.961 . S
C327 C324 1.539 1_565 S
C327 H341 0.958 . S
C327 H342 0.961 . S
C327 H343 0.960 . S
H328 C312 0.931 . S
H329 C317 0.929 . S
H330 C318 0.960 . S
H331 C318 0.962 . S
H332 C318 0.960 . S
H333 C319 0.961 . S
H334 C319 0.958 1_545 S
H335 C319 0.969 . S
H336 C320 0.931 . S
H337 C325 0.930 1_565 S
H338 C326 0.956 . S
H339 C326 0.961 . S
H340 C326 0.961 . S
H341 C327 0.958 . S
H342 C327 0.961 . S
H343 C327 0.960 . S
C344 C345 1.391 . S
C344 C346 1.394 . S
C344 H360 0.931 . S
C345 C344 1.391 . S
C345 C349 1.376 . S
C346 C344 1.394 . S
C346 C347 1.369 . S
C346 C350 1.531 . S
C347 C346 1.369 . S
C347 C348 1.410 . S
C347 C355 1.503 . S
C348 C347 1.410 . S
C348 C349 1.392 . S
C348 C351 1.511 . S
C349 C345 1.376 . S
C349 C348 1.392 . S
C349 H361 0.929 . S
C350 C346 1.531 . S
C350 H362 0.960 . S
C350 H363 0.962 . S
C350 H364 0.960 . S
C351 C348 1.511 . S
C351 H365 0.961 . S
C351 H366 0.961 . S
C351 H367 0.961 . S
C352 C353 1.370 . S
C352 C354 1.363 . S
C352 H368 0.931 . S
C353 C352 1.370 . S
C353 C357 1.408 . S
C354 C352 1.363 . S
C354 C355 1.370 . S
C354 C358 1.524 . S
C355 C347 1.503 . S
C355 C354 1.370 . S
C355 C356 1.403 . S
C356 C355 1.403 . S
C356 C357 1.404 . S
C356 C359 1.539 . S
C357 C353 1.408 . S
C357 C356 1.404 . S
C357 H369 0.930 . S
C358 C354 1.524 . S
C358 H370 0.956 . S
C358 H371 0.961 . S
C358 H372 0.961 . S
C359 C356 1.539 . S
C359 H373 0.958 . S
C359 H374 0.961 . S
C359 H375 0.960 . S
H360 C344 0.931 . S
H361 C349 0.929 . S
H362 C350 0.960 . S
H363 C350 0.962 . S
H364 C350 0.960 . S
H365 C351 0.961 . S
H366 C351 0.961 . S
H367 C351 0.961 . S
H368 C352 0.931 . S
H369 C357 0.930 . S
H370 C358 0.956 . S
H371 C358 0.961 . S
H372 C358 0.961 . S
H373 C359 0.958 . S
H374 C359 0.961 . S
H375 C359 0.960 . S
C376 C377 1.391 . S
C376 C378 1.394 . S
C376 H392 0.931 . S
C377 C376 1.391 . S
C377 C381 1.376 . S
C378 C376 1.394 . S
C378 C379 1.369 . S
C378 C382 1.531 . S
C379 C378 1.369 . S
C379 C380 1.410 . S
C379 C387 1.503 . S
C380 C379 1.410 . S
C380 C381 1.392 . S
C380 C383 1.511 . S
C381 C377 1.376 . S
C381 C380 1.392 . S
C381 H393 0.929 . S
C382 C378 1.531 . S
C382 H394 0.960 . S
C382 H395 0.962 . S
C382 H396 0.960 . S
C383 C380 1.511 . S
C383 H397 0.961 . S
C383 H398 0.961 . S
C383 H399 0.961 . S
C384 C385 1.370 . S
C384 C386 1.363 . S
C384 H400 0.931 . S
C385 C384 1.370 . S
C385 C389 1.408 . S
C386 C384 1.363 . S
C386 C387 1.370 . S
C386 C390 1.524 . S
C387 C379 1.503 . S
C387 C386 1.370 . S
C387 C388 1.403 . S
C388 C387 1.403 . S
C388 C389 1.404 . S
C388 C391 1.539 . S
C389 C385 1.408 . S
C389 C388 1.404 . S
C389 H401 0.930 . S
C390 C386 1.524 . S
C390 H402 0.956 . S
C390 H403 0.961 . S
C390 H404 0.961 . S
C391 C388 1.539 . S
C391 H405 0.958 . S
C391 H406 0.961 . S
C391 H407 0.960 . S
H392 C376 0.931 . S
H393 C381 0.929 . S
H394 C382 0.960 . S
H395 C382 0.962 . S
H396 C382 0.960 . S
H397 C383 0.961 . S
H398 C383 0.961 . S
H399 C383 0.961 . S
H400 C384 0.931 . S
H401 C389 0.930 . S
H402 C390 0.956 . S
H403 C390 0.961 . S
H404 C390 0.961 . S
H405 C391 0.958 . S
H406 C391 0.961 . S
H407 C391 0.960 . S
C408 C409 1.391 . S
C408 C410 1.394 . S
C408 H424 0.931 . S
C409 C408 1.391 . S
C409 C413 1.376 . S
C410 C408 1.394 . S
C410 C411 1.369 . S
C410 C414 1.531 . S
C411 C410 1.369 . S
C411 C412 1.410 . S
C411 C419 1.503 . S
C412 C411 1.410 . S
C412 C413 1.392 . S
C412 C415 1.511 . S
C413 C409 1.376 . S
C413 C412 1.392 . S
C413 H425 0.929 . S
C414 C410 1.531 . S
C414 H426 0.960 . S
C414 H427 0.962 1_455 S
C414 H428 0.960 . S
C415 C412 1.511 . S
C415 H429 0.961 . S
C415 H430 0.961 . S
C415 H431 0.961 . S
C416 C417 1.370 . S
C416 C418 1.363 . S
C416 H432 0.961 . S
C417 C416 1.370 . S
C417 C421 1.408 . S
C418 C416 1.363 . S
C418 C419 1.370 . S
C418 C422 1.524 . S
C419 C411 1.503 . S
C419 C418 1.370 . S
C419 C420 1.403 . S
C420 C419 1.403 . S
C420 C421 1.404 . S
C420 C423 1.539 . S
C421 C417 1.408 . S
C421 C420 1.404 . S
C421 H433 0.930 . S
C422 C418 1.524 . S
C422 H434 0.956 1_455 S
C422 H435 0.961 . S
C422 H436 0.961 1_455 S
C423 C420 1.539 . S
C423 H437 0.958 . S
C423 H438 0.961 . S
C423 H439 0.960 . S
H424 C408 0.931 . S
H425 C413 0.929 . S
H426 C414 0.960 . S
H427 C414 0.962 1_655 S
H428 C414 0.960 . S
H429 C415 0.961 . S
H430 C415 0.961 . S
H431 C415 0.961 . S
H432 C416 0.961 . S
H433 C421 0.930 . S
H434 C422 0.956 1_655 S
H435 C422 0.961 . S
H436 C422 0.961 1_655 S
H437 C423 0.958 . S
H438 C423 0.961 . S
H439 C423 0.960 . S
C440 C441 1.391 . S
C440 C442 1.394 . S
C440 H456 0.931 . S
C441 C440 1.391 . S
C441 C445 1.376 . S
C442 C440 1.394 . S
C442 C443 1.369 . S
C442 C446 1.531 . S
C443 C442 1.369 . S
C443 C444 1.410 . S
C443 C451 1.503 . S
C444 C443 1.410 . S
C444 C445 1.392 . S
C444 C447 1.511 1_565 S
C445 C441 1.376 . S
C445 C444 1.392 . S
C445 H457 0.929 1_565 S
C446 C442 1.531 . S
C446 H458 0.960 . S
C446 H459 0.962 . S
C446 H460 0.960 . S
C447 C444 1.511 1_545 S
C447 H461 0.961 . S
C447 H462 0.961 1_554 S
C447 H463 0.961 1_554 S
C448 C449 1.370 1_545 S
C448 C450 1.363 1_556 S
C448 H464 0.931 . S
C449 C448 1.370 1_565 S
C449 C453 1.408 . S
C450 C448 1.363 1_554 S
C450 C451 1.370 1_545 S
C450 C454 1.524 . S
C451 C443 1.503 . S
C451 C450 1.370 1_565 S
C451 C452 1.403 1_554 S
C452 C451 1.403 1_556 S
C452 C453 1.404 . S
C452 C455 1.539 . S
C453 C449 1.408 . S
C453 C452 1.404 . S
C453 H465 0.930 . S
C454 C450 1.524 . S
C454 H466 0.956 . S
C454 H467 0.961 . S
C454 H468 0.961 . S
C455 C452 1.539 . S
C455 H469 0.958 . S
C455 H470 0.961 . S
C455 H471 0.960 . S
H456 C440 0.931 . S
H457 C445 0.929 1_545 S
H458 C446 0.960 . S
H459 C446 0.962 . S
H460 C446 0.960 . S
H461 C447 0.961 . S
H462 C447 0.961 1_556 S
H463 C447 0.961 1_556 S
H464 C448 0.931 . S
H465 C453 0.930 . S
H466 C454 0.956 . S
H467 C454 0.961 . S
H468 C454 0.961 . S
H469 C455 0.958 . S
H470 C455 0.961 . S
H471 C455 0.960 . S
C472 C473 1.391 . S
C472 C474 1.394 . S
C472 H488 0.931 . S
C473 C472 1.391 . S
C473 C477 1.376 . S
C474 C472 1.394 . S
C474 C475 1.369 . S
C474 C478 1.531 . S
C475 C474 1.369 . S
C475 C476 1.410 . S
C475 C483 1.503 1_554 S
C476 C475 1.410 . S
C476 C477 1.392 . S
C476 C479 1.511 1_554 S
C477 C473 1.376 . S
C477 C476 1.392 . S
C477 H489 0.929 . S
C478 C474 1.531 . S
C478 H490 0.960 . S
C478 H491 0.962 . S
C478 H492 0.960 . S
C479 C476 1.511 1_556 S
C479 H493 0.961 . S
C479 H494 0.961 . S
C479 H495 0.963 . S
C480 C481 1.370 . S
C480 C482 1.363 . S
C480 H496 0.931 . S
C481 C480 1.370 . S
C481 C485 1.408 . S
C482 C480 1.363 . S
C482 C483 1.370 . S
C482 C486 1.524 . S
C483 C475 1.503 1_556 S
C483 C482 1.370 . S
C483 C484 1.403 . S
C484 C483 1.403 . S
C484 C485 1.404 . S
C484 C487 1.539 1_556 S
C485 C481 1.408 . S
C485 C484 1.404 . S
C485 H497 0.930 . S
C486 C482 1.524 . S
C486 H498 0.956 . S
C486 H499 0.961 . S
C486 H500 0.961 . S
C487 C484 1.539 1_554 S
C487 H501 0.958 . S
C487 H502 0.961 . S
C487 H503 0.960 . S
H488 C472 0.931 . S
H489 C477 0.929 . S
H490 C478 0.960 . S
H491 C478 0.962 . S
H492 C478 0.960 . S
H493 C479 0.961 . S
H494 C479 0.961 . S
H495 C479 0.963 . S
H496 C480 0.931 . S
H497 C485 0.930 . S
H498 C486 0.956 . S
H499 C486 0.961 . S
H500 C486 0.961 . S
H501 C487 0.958 . S
H502 C487 0.961 . S
H503 C487 0.960 . S
C504 C505 1.391 . S
C504 C506 1.394 . S
C504 H520 0.931 . S
C505 C504 1.391 . S
C505 C509 1.376 . S
C506 C504 1.394 . S
C506 C507 1.369 . S
C506 C510 1.531 . S
C507 C506 1.369 . S
C507 C508 1.410 . S
C507 C515 1.503 1_554 S
C508 C507 1.410 . S
C508 C509 1.392 . S
C508 C511 1.511 1_554 S
C509 C505 1.376 . S
C509 C508 1.392 . S
C509 H521 0.929 . S
C510 C506 1.531 . S
C510 H522 0.960 . S
C510 H523 0.962 . S
C510 H524 0.960 . S
C511 C508 1.511 1_556 S
C511 H525 0.961 . S
C511 H526 0.961 . S
C511 H527 0.961 . S
C512 C513 1.370 . S
C512 C514 1.363 . S
C512 H528 0.931 . S
C513 C512 1.370 . S
C513 C517 1.408 . S
C514 C512 1.363 . S
C514 C515 1.370 . S
C514 C518 1.524 . S
C515 C507 1.503 1_556 S
C515 C514 1.370 . S
C515 C516 1.403 . S
C516 C515 1.403 . S
C516 C517 1.404 . S
C516 C519 1.539 . S
C517 C513 1.408 . S
C517 C516 1.404 . S
C517 H529 0.930 . S
C518 C514 1.524 . S
C518 H530 0.956 . S
C518 H531 0.961 . S
C518 H532 0.961 . S
C519 C516 1.539 . S
C519 H533 0.958 1_556 S
C519 H534 0.961 . S
C519 H535 0.960 1_556 S
H520 C504 0.931 . S
H521 C509 0.929 . S
H522 C510 0.960 . S
H523 C510 0.962 . S
H524 C510 0.960 . S
H525 C511 0.961 . S
H526 C511 0.961 . S
H527 C511 0.961 . S
H528 C512 0.931 . S
H529 C517 0.930 . S
H530 C518 0.956 . S
H531 C518 0.961 . S
H532 C518 0.961 . S
H533 C519 0.958 1_554 S
H534 C519 0.961 . S
H535 C519 0.960 1_554 S
C536 C537 1.391 . S
C536 C538 1.394 1_655 S
C536 H552 0.931 1_655 S
C537 C536 1.391 . S
C537 C541 1.376 . S
C538 C536 1.394 1_455 S
C538 C539 1.369 1_455 S
C538 C542 1.531 . S
C539 C538 1.369 1_655 S
C539 C540 1.410 . S
C539 C547 1.503 . S
C540 C539 1.410 . S
C540 C541 1.392 . S
C540 C543 1.511 . S
C541 C537 1.376 . S
C541 C540 1.392 . S
C541 H553 0.929 . S
C542 C538 1.531 . S
C542 H554 0.960 . S
C542 H555 0.962 . S
C542 H556 0.960 . S
C543 C540 1.511 . S
C543 H557 0.961 . S
C543 H558 0.961 . S
C543 H559 0.961 . S
C544 C545 1.370 . S
C544 C546 1.363 . S
C544 H560 0.931 . S
C545 C544 1.370 . S
C545 C549 1.408 . S
C546 C544 1.363 . S
C546 C547 1.370 1_556 S
C546 C550 1.524 . S
C547 C539 1.503 . S
C547 C546 1.370 1_554 S
C547 C548 1.403 . S
C548 C547 1.403 . S
C548 C549 1.404 1_554 S
C548 C551 1.539 . S
C549 C545 1.408 . S
C549 C548 1.404 1_556 S
C549 H561 0.930 1_655 S
C550 C546 1.524 . S
C550 H562 0.956 . S
C550 H563 0.961 . S
C550 H564 0.961 . S
C551 C548 1.539 . S
C551 H565 0.958 1_655 S
C551 H566 0.961 . S
C551 H567 0.960 . S
H552 C536 0.931 1_455 S
H553 C541 0.929 . S
H554 C542 0.960 . S
H555 C542 0.962 . S
H556 C542 0.960 . S
H557 C543 0.961 . S
H558 C543 0.961 . S
H559 C543 0.961 . S
H560 C544 0.931 . S
H561 C549 0.930 1_455 S
H562 C550 0.956 . S
H563 C550 0.961 . S
H564 C550 0.961 . S
H565 C551 0.958 1_455 S
H566 C551 0.961 . S
H567 C551 0.960 . S
C568 C569 1.391 . S
C568 C570 1.394 . S
C568 H584 0.931 . S
C569 C568 1.391 . S
C569 C573 1.376 . S
C570 C568 1.394 . S
C570 C571 1.369 . S
C570 C574 1.531 . S
C571 C570 1.369 . S
C571 C572 1.410 . S
C571 C579 1.503 . S
C572 C571 1.410 . S
C572 C573 1.392 . S
C572 C575 1.511 1_455 S
C573 C569 1.376 . S
C573 C572 1.392 . S
C573 H585 0.929 . S
C574 C570 1.531 . S
C574 H586 0.960 . S
C574 H587 0.962 . S
C574 H588 0.960 . S
C575 C572 1.511 1_655 S
C575 H589 0.961 . S
C575 H590 0.963 . S
C575 H591 0.961 . S
C576 C577 1.370 . S
C576 C578 1.363 . S
C576 H592 0.931 . S
C577 C576 1.370 . S
C577 C581 1.408 . S
C578 C576 1.363 . S
C578 C579 1.370 . S
C578 C582 1.524 . S
C579 C571 1.503 . S
C579 C578 1.370 . S
C579 C580 1.403 . S
C580 C579 1.403 . S
C580 C581 1.404 . S
C580 C583 1.539 1_455 S
C581 C577 1.408 . S
C581 C580 1.404 . S
C581 H593 0.930 1_455 S
C582 C578 1.524 . S
C582 H594 0.956 . S
C582 H595 0.961 . S
C582 H596 0.961 . S
C583 C580 1.539 1_655 S
C583 H597 0.958 1_655 S
C583 H598 0.961 . S
C583 H599 0.960 . S
H584 C568 0.931 . S
H585 C573 0.929 . S
H586 C574 0.960 . S
H587 C574 0.962 . S
H588 C574 0.960 . S
H589 C575 0.961 . S
H590 C575 0.963 . S
H591 C575 0.961 . S
H592 C576 0.931 . S
H593 C581 0.930 1_655 S
H594 C582 0.956 . S
H595 C582 0.961 . S
H596 C582 0.961 . S
H597 C583 0.958 1_455 S
H598 C583 0.961 . S
H599 C583 0.960 . S
C600 C601 1.391 . S
C600 C602 1.394 . S
C600 H616 0.931 . S
C601 C600 1.391 . S
C601 C605 1.376 . S
C602 C600 1.394 . S
C602 C603 1.369 . S
C602 C606 1.531 1_545 S
C603 C602 1.369 . S
C603 C604 1.410 . S
C603 C611 1.503 . S
C604 C603 1.410 . S
C604 C605 1.392 . S
C604 C607 1.511 . S
C605 C601 1.376 . S
C605 C604 1.392 . S
C605 H617 0.929 . S
C606 C602 1.531 1_565 S
C606 H618 0.960 . S
C606 H619 0.962 1_565 S
C606 H620 0.960 . S
C607 C604 1.511 . S
C607 H621 0.961 . S
C607 H622 0.961 . S
C607 H623 0.961 . S
C608 C609 1.370 1_545 S
C608 C610 1.363 . S
C608 H624 0.931 . S
C609 C608 1.370 1_565 S
C609 C613 1.408 . S
C610 C608 1.363 . S
C610 C611 1.370 . S
C610 C614 1.524 . S
C611 C603 1.503 . S
C611 C610 1.370 . S
C611 C612 1.403 1_545 S
C612 C611 1.403 1_565 S
C612 C613 1.404 . S
C612 C615 1.539 . S
C613 C609 1.408 . S
C613 C612 1.404 . S
C613 H625 0.930 . S
C614 C610 1.524 . S
C614 H626 0.956 . S
C614 H627 0.961 . S
C614 H628 0.961 . S
C615 C612 1.539 . S
C615 H629 0.958 . S
C615 H630 0.961 . S
C615 H631 0.960 . S
H616 C600 0.931 . S
H617 C605 0.929 . S
H618 C606 0.960 . S
H619 C606 0.962 1_545 S
H620 C606 0.960 . S
H621 C607 0.961 . S
H622 C607 0.961 . S
H623 C607 0.961 . S
H624 C608 0.931 . S
H625 C613 0.930 . S
H626 C614 0.956 . S
H627 C614 0.961 . S
H628 C614 0.961 . S
H629 C615 0.958 . S
H630 C615 0.961 . S
H631 C615 0.960 . S
C632 C633 1.391 . S
C632 C634 1.394 . S
C632 H648 0.931 . S
C633 C632 1.391 . S
C633 C637 1.376 . S
C634 C632 1.394 . S
C634 C635 1.369 . S
C634 C638 1.531 . S
C635 C634 1.369 . S
C635 C636 1.410 . S
C635 C643 1.503 . S
C636 C635 1.410 . S
C636 C637 1.392 . S
C636 C639 1.511 . S
C637 C633 1.376 . S
C637 C636 1.392 . S
C637 H649 0.929 . S
C638 C634 1.531 . S
C638 H650 0.960 . S
C638 H651 0.962 . S
C638 H652 0.960 . S
C639 C636 1.511 . S
C639 H653 0.961 . S
C639 H654 0.961 . S
C639 H655 0.961 . S
C640 C641 1.370 . S
C640 C642 1.363 . S
C640 H656 0.931 . S
C641 C640 1.370 . S
C641 C645 1.408 . S
C642 C640 1.363 . S
C642 C643 1.370 . S
C642 C646 1.524 . S
C643 C635 1.503 . S
C643 C642 1.370 . S
C643 C644 1.403 . S
C644 C643 1.403 . S
C644 C645 1.404 . S
C644 C647 1.539 . S
C645 C641 1.408 . S
C645 C644 1.404 . S
C645 H657 0.930 . S
C646 C642 1.524 . S
C646 H658 0.956 . S
C646 H659 0.961 . S
C646 H660 0.961 . S
C647 C644 1.539 . S
C647 H661 0.958 . S
C647 H662 0.961 . S
C647 H663 0.960 . S
H648 C632 0.931 . S
H649 C637 0.929 . S
H650 C638 0.960 . S
H651 C638 0.962 . S
H652 C638 0.960 . S
H653 C639 0.961 . S
H654 C639 0.961 . S
H655 C639 0.961 . S
H656 C640 0.931 . S
H657 C645 0.930 . S
H658 C646 0.956 . S
H659 C646 0.961 . S
H660 C646 0.961 . S
H661 C647 0.958 . S
H662 C647 0.961 . S
H663 C647 0.960 . S
C664 C665 1.391 . S
C664 C666 1.394 . S
C664 H680 0.931 . S
C665 C664 1.391 . S
C665 C669 1.376 . S
C666 C664 1.394 . S
C666 C667 1.369 . S
C666 C670 1.531 . S
C667 C666 1.369 . S
C667 C668 1.410 . S
C667 C675 1.503 . S
C668 C667 1.410 . S
C668 C669 1.392 . S
C668 C671 1.511 . S
C669 C665 1.376 . S
C669 C668 1.392 . S
C669 H681 0.929 . S
C670 C666 1.531 . S
C670 H682 0.960 . S
C670 H683 0.962 . S
C670 H684 0.960 . S
C671 C668 1.511 . S
C671 H685 0.961 . S
C671 H686 0.961 . S
C671 H687 0.961 . S
C672 C673 1.370 . S
C672 C674 1.363 . S
C672 H688 0.931 . S
C673 C672 1.370 . S
C673 C677 1.408 . S
C674 C672 1.363 . S
C674 C675 1.370 . S
C674 C678 1.524 . S
C675 C667 1.503 . S
C675 C674 1.370 . S
C675 C676 1.403 . S
C676 C675 1.403 . S
C676 C677 1.404 . S
C676 C679 1.539 . S
C677 C673 1.408 . S
C677 C676 1.404 . S
C677 H689 0.930 . S
C678 C674 1.524 . S
C678 H690 0.956 . S
C678 H691 0.961 . S
C678 H692 0.961 . S
C679 C676 1.539 . S
C679 H693 0.958 . S
C679 H694 0.961 . S
C679 H695 0.960 . S
H680 C664 0.931 . S
H681 C669 0.929 . S
H682 C670 0.960 . S
H683 C670 0.962 . S
H684 C670 0.960 . S
H685 C671 0.961 . S
H686 C671 0.961 . S
H687 C671 0.961 . S
H688 C672 0.931 . S
H689 C677 0.930 . S
H690 C678 0.956 . S
H691 C678 0.961 . S
H692 C678 0.961 . S
H693 C679 0.958 . S
H694 C679 0.961 . S
H695 C679 0.960 . S
C696 C697 1.391 . S
C696 C698 1.394 . S
C696 H712 0.929 . S
C697 C696 1.391 . S
C697 C701 1.376 . S
C698 C696 1.394 . S
C698 C699 1.369 . S
C698 C702 1.531 1_655 S
C699 C698 1.369 . S
C699 C700 1.410 . S
C699 C707 1.503 . S
C700 C699 1.410 . S
C700 C701 1.392 . S
C700 C703 1.511 . S
C701 C697 1.376 . S
C701 C700 1.392 . S
C701 H713 0.929 . S
C702 C698 1.531 1_455 S
C702 H714 0.960 . S
C702 H715 0.962 . S
C702 H716 0.960 . S
C703 C700 1.511 . S
C703 H717 0.961 . S
C703 H718 0.961 . S
C703 H719 0.961 . S
C704 C705 1.370 . S
C704 C706 1.363 . S
C704 H720 0.931 . S
C705 C704 1.370 . S
C705 C709 1.408 1_455 S
C706 C704 1.363 . S
C706 C707 1.370 1_455 S
C706 C710 1.524 . S
C707 C699 1.503 . S
C707 C706 1.370 1_655 S
C707 C708 1.403 . S
C708 C707 1.403 . S
C708 C709 1.404 . S
C708 C711 1.539 . S
C709 C705 1.408 1_655 S
C709 C708 1.404 . S
C709 H721 0.930 1_554 S
C710 C706 1.524 . S
C710 H722 0.956 . S
C710 H723 0.961 1_455 S
C710 H724 0.961 . S
C711 C708 1.539 . S
C711 H725 0.958 1_554 S
C711 H726 0.961 1_554 S
C711 H727 0.960 . S
H712 C696 0.929 . S
H713 C701 0.929 . S
H714 C702 0.960 . S
H715 C702 0.962 . S
H716 C702 0.960 . S
H717 C703 0.961 . S
H718 C703 0.961 . S
H719 C703 0.961 . S
H720 C704 0.931 . S
H721 C709 0.930 1_556 S
H722 C710 0.956 . S
H723 C710 0.961 1_655 S
H724 C710 0.961 . S
H725 C711 0.958 1_556 S
H726 C711 0.961 1_556 S
H727 C711 0.960 . S
C728 C729 1.391 . S
C728 C730 1.394 . S
C728 H744 0.931 . S
C729 C728 1.391 . S
C729 C733 1.376 . S
C730 C728 1.394 . S
C730 C731 1.369 . S
C730 C734 1.531 1_565 S
C731 C730 1.369 . S
C731 C732 1.410 . S
C731 C739 1.503 1_565 S
C732 C731 1.410 . S
C732 C733 1.392 . S
C732 C735 1.511 . S
C733 C729 1.376 . S
C733 C732 1.392 . S
C733 H745 0.929 . S
C734 C730 1.531 1_545 S
C734 H746 0.952 1_545 S
C734 H747 0.962 . S
C734 H748 0.960 1_545 S
C735 C732 1.511 . S
C735 H749 0.961 . S
C735 H750 0.961 . S
C735 H751 0.961 . S
C736 C737 1.370 . S
C736 C738 1.363 . S
C736 H752 0.931 . S
C737 C736 1.370 . S
C737 C741 1.408 1_544 S
C738 C736 1.363 . S
C738 C739 1.370 . S
C738 C742 1.524 . S
C739 C731 1.503 1_545 S
C739 C738 1.370 . S
C739 C740 1.403 1_545 S
C740 C739 1.403 1_565 S
C740 C741 1.404 1_554 S
C740 C743 1.539 . S
C741 C737 1.408 1_566 S
C741 C740 1.404 1_556 S
C741 H753 0.930 . S
C742 C738 1.524 . S
C742 H754 0.956 . S
C742 H755 0.961 . S
C742 H756 0.961 . S
C743 C740 1.539 . S
C743 H757 0.958 . S
C743 H758 0.961 . S
C743 H759 0.960 . S
H744 C728 0.931 . S
H745 C733 0.929 . S
H746 C734 0.952 1_565 S
H747 C734 0.962 . S
H748 C734 0.960 1_565 S
H749 C735 0.961 . S
H750 C735 0.961 . S
H751 C735 0.961 . S
H752 C736 0.931 . S
H753 C741 0.930 . S
H754 C742 0.956 . S
H755 C742 0.961 . S
H756 C742 0.961 . S
H757 C743 0.958 . S
H758 C743 0.961 . S
H759 C743 0.960 . S
C760 C761 1.391 . S
C760 C762 1.394 . S
C760 H776 0.931 . S
C761 C760 1.391 . S
C761 C765 1.376 . S
C762 C760 1.394 . S
C762 C763 1.369 . S
C762 C766 1.531 . S
C763 C762 1.369 . S
C763 C764 1.410 . S
C763 C771 1.503 . S
C764 C763 1.410 . S
C764 C765 1.392 . S
C764 C767 1.511 . S
C765 C761 1.376 . S
C765 C764 1.392 . S
C765 H777 0.929 . S
C766 C762 1.531 . S
C766 H778 0.960 . S
C766 H779 0.962 . S
C766 H780 0.960 . S
C767 C764 1.511 . S
C767 H781 0.961 . S
C767 H782 0.961 1_554 S
C767 H783 0.961 . S
C768 C769 1.370 . S
C768 C770 1.363 1_556 S
C768 H784 0.931 . S
C769 C768 1.370 . S
C769 C773 1.408 1_556 S
C770 C768 1.363 1_554 S
C770 C771 1.370 . S
C770 C774 1.524 . S
C771 C763 1.503 . S
C771 C770 1.370 . S
C771 C772 1.403 . S
C772 C771 1.403 . S
C772 C773 1.404 . S
C772 C775 1.539 . S
C773 C769 1.408 1_554 S
C773 C772 1.404 . S
C773 H785 0.930 . S
C774 C770 1.524 . S
C774 H786 0.956 . S
C774 H787 0.961 . S
C774 H788 0.961 1_554 S
C775 C772 1.539 . S
C775 H789 0.958 . S
C775 H790 0.961 . S
C775 H791 0.960 . S
H776 C760 0.931 . S
H777 C765 0.929 . S
H778 C766 0.960 . S
H779 C766 0.962 . S
H780 C766 0.960 . S
H781 C767 0.961 . S
H782 C767 0.961 1_556 S
H783 C767 0.961 . S
H784 C768 0.931 . S
H785 C773 0.930 . S
H786 C774 0.956 . S
H787 C774 0.961 . S
H788 C774 0.961 1_556 S
H789 C775 0.958 . S
H790 C775 0.961 . S
H791 C775 0.960 . S
C792 C793 1.391 . S
C792 C794 1.394 . S
C792 H808 0.931 . S
C793 C792 1.391 . S
C793 C797 1.376 . S
C794 C792 1.394 . S
C794 C795 1.369 . S
C794 C798 1.531 . S
C795 C794 1.369 . S
C795 C796 1.410 . S
C795 C803 1.503 . S
C796 C795 1.410 . S
C796 C797 1.392 . S
C796 C799 1.511 . S
C797 C793 1.376 . S
C797 C796 1.392 . S
C797 H809 0.929 . S
C798 C794 1.531 . S
C798 H810 0.960 . S
C798 H811 0.962 . S
C798 H812 0.960 . S
C799 C796 1.511 . S
C799 H813 0.961 . S
C799 H814 0.961 . S
C799 H815 0.961 . S
C800 C801 1.370 . S
C800 C802 1.363 . S
C800 H816 0.931 . S
C801 C800 1.370 . S
C801 C805 1.408 . S
C802 C800 1.363 . S
C802 C803 1.370 . S
C802 C806 1.524 . S
C803 C795 1.503 . S
C803 C802 1.370 . S
C803 C804 1.403 . S
C804 C803 1.403 . S
C804 C805 1.404 . S
C804 C807 1.539 . S
C805 C801 1.408 . S
C805 C804 1.404 . S
C805 H817 0.930 . S
C806 C802 1.524 . S
C806 H818 0.956 . S
C806 H819 0.961 . S
C806 H820 0.961 . S
C807 C804 1.539 . S
C807 H821 0.958 . S
C807 H822 0.961 . S
C807 H823 0.960 . S
H808 C792 0.931 . S
H809 C797 0.929 . S
H810 C798 0.960 . S
H811 C798 0.962 . S
H812 C798 0.960 . S
H813 C799 0.961 . S
H814 C799 0.961 . S
H815 C799 0.961 . S
H816 C800 0.931 . S
H817 C805 0.930 . S
H818 C806 0.956 . S
H819 C806 0.961 . S
H820 C806 0.961 . S
H821 C807 0.958 . S
H822 C807 0.961 . S
H823 C807 0.960 . S
C824 C825 1.391 . S
C824 C826 1.394 . S
C824 H840 0.931 . S
C825 C824 1.391 . S
C825 C829 1.376 . S
C826 C824 1.394 . S
C826 C827 1.369 . S
C826 C830 1.531 . S
C827 C826 1.369 . S
C827 C828 1.410 . S
C827 C835 1.503 . S
C828 C827 1.410 . S
C828 C829 1.392 . S
C828 C831 1.511 1_455 S
C829 C825 1.376 . S
C829 C828 1.392 . S
C829 H841 0.929 . S
C830 C826 1.531 . S
C830 H842 0.960 . S
C830 H843 0.962 . S
C830 H844 0.960 . S
C831 C828 1.511 1_655 S
C831 H845 0.961 . S
C831 H846 0.961 . S
C831 H847 0.961 . S
C832 C833 1.370 . S
C832 C834 1.363 . S
C832 H848 0.931 . S
C833 C832 1.370 . S
C833 C837 1.408 . S
C834 C832 1.363 . S
C834 C835 1.370 . S
C834 C838 1.524 . S
C835 C827 1.503 . S
C835 C834 1.370 . S
C835 C836 1.403 . S
C836 C835 1.403 . S
C836 C837 1.404 . S
C836 C839 1.539 . S
C837 C833 1.408 . S
C837 C836 1.404 . S
C837 H849 0.930 . S
C838 C834 1.524 . S
C838 H850 0.956 . S
C838 H851 0.961 . S
C838 H852 0.961 . S
C839 C836 1.539 . S
C839 H853 0.958 1_556 S
C839 H854 0.999 . S
C839 H855 0.960 . S
H840 C824 0.931 . S
H841 C829 0.929 . S
H842 C830 0.960 . S
H843 C830 0.962 . S
H844 C830 0.960 . S
H845 C831 0.961 . S
H846 C831 0.961 . S
H847 C831 0.961 . S
H848 C832 0.931 . S
H849 C837 0.930 . S
H850 C838 0.956 . S
H851 C838 0.961 . S
H852 C838 0.961 . S
H853 C839 0.958 1_554 S
H854 C839 0.999 . S
H855 C839 0.960 . S
C856 C857 1.391 . S
C856 C858 1.394 . S
C856 H872 0.931 . S
C857 C856 1.391 . S
C857 C861 1.376 . S
C858 C856 1.394 . S
C858 C859 1.369 . S
C858 C862 1.531 . S
C859 C858 1.369 . S
C859 C860 1.410 . S
C859 C867 1.503 . S
C860 C859 1.410 . S
C860 C861 1.392 . S
C860 C863 1.511 . S
C861 C857 1.376 . S
C861 C860 1.392 . S
C861 H873 0.929 . S
C862 C858 1.531 . S
C862 H874 0.960 . S
C862 H875 0.962 . S
C862 H876 0.960 1_556 S
C863 C860 1.511 . S
C863 H877 0.961 . S
C863 H878 0.961 . S
C863 H879 0.961 1_545 S
C864 C865 1.370 . S
C864 C866 1.363 . S
C864 H880 0.931 . S
C865 C864 1.370 . S
C865 C869 1.408 . S
C866 C864 1.363 . S
C866 C867 1.370 . S
C866 C870 1.524 . S
C867 C859 1.503 . S
C867 C866 1.370 . S
C867 C868 1.403 . S
C868 C867 1.403 . S
C868 C869 1.404 . S
C868 C871 1.539 1_545 S
C869 C865 1.408 . S
C869 C868 1.404 . S
C869 H881 0.930 1_545 S
C870 C866 1.524 . S
C870 H882 0.956 . S
C870 H883 0.961 . S
C870 H884 0.961 . S
C871 C868 1.539 1_565 S
C871 H885 0.958 . S
C871 H886 0.961 . S
C871 H887 0.960 . S
H872 C856 0.931 . S
H873 C861 0.929 . S
H874 C862 0.960 . S
H875 C862 0.962 . S
H876 C862 0.960 1_554 S
H877 C863 0.961 . S
H878 C863 0.961 . S
H879 C863 0.961 1_565 S
H880 C864 0.931 . S
H881 C869 0.930 1_565 S
H882 C870 0.956 . S
H883 C870 0.961 . S
H884 C870 0.961 . S
H885 C871 0.958 . S
H886 C871 0.961 . S
H887 C871 0.960 . S
C888 C889 1.391 . S
C888 C890 1.394 . S
C888 H904 0.931 . S
C889 C888 1.391 . S
C889 C893 1.376 . S
C890 C888 1.394 . S
C890 C891 1.369 . S
C890 C894 1.531 . S
C891 C890 1.369 . S
C891 C892 1.410 . S
C891 C899 1.503 . S
C892 C891 1.410 . S
C892 C893 1.392 . S
C892 C895 1.511 . S
C893 C889 1.376 . S
C893 C892 1.392 . S
C893 H905 0.929 . S
C894 C890 1.531 . S
C894 H906 0.960 . S
C894 H907 0.962 . S
C894 H908 0.960 . S
C895 C892 1.511 . S
C895 H909 0.961 . S
C895 H910 0.961 . S
C895 H911 0.961 . S
C896 C897 1.370 . S
C896 C898 1.363 . S
C896 H912 0.931 . S
C897 C896 1.370 . S
C897 C901 1.408 . S
C898 C896 1.363 . S
C898 C899 1.370 . S
C898 C902 1.524 . S
C899 C891 1.503 . S
C899 C898 1.370 . S
C899 C900 1.403 . S
C900 C899 1.403 . S
C900 C901 1.404 . S
C900 C903 1.539 . S
C901 C897 1.408 . S
C901 C900 1.404 . S
C901 H913 0.930 . S
C902 C898 1.524 . S
C902 H914 0.956 . S
C902 H915 0.961 . S
C902 H916 0.961 . S
C903 C900 1.539 . S
C903 H917 0.958 . S
C903 H918 0.961 . S
C903 H919 0.960 . S
H904 C888 0.931 . S
H905 C893 0.929 . S
H906 C894 0.960 . S
H907 C894 0.962 . S
H908 C894 0.960 . S
H909 C895 0.961 . S
H910 C895 0.961 . S
H911 C895 0.961 . S
H912 C896 0.931 . S
H913 C901 0.930 . S
H914 C902 0.956 . S
H915 C902 0.961 . S
H916 C902 0.961 . S
H917 C903 0.958 . S
H918 C903 0.961 . S
H919 C903 0.960 . S
C920 C921 1.391 . S
C920 C922 1.394 . S
C920 H936 0.931 . S
C921 C920 1.391 . S
C921 C925 1.376 . S
C922 C920 1.394 . S
C922 C923 1.369 . S
C922 C926 1.531 . S
C923 C922 1.369 . S
C923 C924 1.410 . S
C923 C931 1.503 . S
C924 C923 1.410 . S
C924 C925 1.392 . S
C924 C927 1.511 1_556 S
C925 C921 1.376 . S
C925 C924 1.392 . S
C925 H937 0.929 1_556 S
C926 C922 1.531 . S
C926 H938 0.960 . S
C926 H939 0.962 . S
C926 H940 0.960 . S
C927 C924 1.511 1_554 S
C927 H941 0.961 . S
C927 H942 0.961 . S
C927 H943 0.961 . S
C928 C929 1.370 . S
C928 C930 1.363 . S
C928 H944 0.931 . S
C929 C928 1.370 . S
C929 C933 1.408 . S
C930 C928 1.363 . S
C930 C931 1.370 . S
C930 C934 1.524 . S
C931 C923 1.503 . S
C931 C930 1.370 . S
C931 C932 1.403 . S
C932 C931 1.403 . S
C932 C933 1.404 . S
C932 C935 1.539 . S
C933 C929 1.408 . S
C933 C932 1.404 . S
C933 H945 0.930 . S
C934 C930 1.524 . S
C934 H946 0.956 . S
C934 H947 0.961 . S
C934 H948 0.961 . S
C935 C932 1.539 . S
C935 H949 0.958 . S
C935 H950 0.961 . S
C935 H951 0.960 . S
H936 C920 0.931 . S
H937 C925 0.929 1_554 S
H938 C926 0.960 . S
H939 C926 0.962 . S
H940 C926 0.960 . S
H941 C927 0.961 . S
H942 C927 0.961 . S
H943 C927 0.961 . S
H944 C928 0.931 . S
H945 C933 0.930 . S
H946 C934 0.956 . S
H947 C934 0.961 . S
H948 C934 0.961 . S
H949 C935 0.958 . S
H950 C935 0.961 . S
H951 C935 0.960 . S
C952 C953 1.391 . S
C952 C954 1.394 . S
C952 H968 0.931 . S
C953 C952 1.391 . S
C953 C957 1.376 . S
C954 C952 1.394 . S
C954 C955 1.369 . S
C954 C958 1.531 . S
C955 C954 1.369 . S
C955 C956 1.370 1_655 S
C955 C963 1.503 . S
C956 C955 1.370 1_455 S
C956 C957 1.385 1_455 S
C956 C959 1.559 . S
C957 C953 1.376 . S
C957 C956 1.385 1_655 S
C957 H969 0.929 1_655 S
C958 C954 1.531 . S
C958 H970 0.960 . S
C958 H971 0.962 . S
C958 H972 0.960 . S
C959 C956 1.559 . S
C959 H973 0.961 . S
C959 H974 0.961 . S
C959 H975 0.961 . S
C960 C961 1.370 . S
C960 C962 1.363 . S
C960 H976 0.931 . S
C961 C960 1.370 . S
C961 C965 1.408 . S
C962 C960 1.363 . S
C962 C963 1.370 . S
C962 C966 1.524 . S
C963 C955 1.503 . S
C963 C962 1.370 . S
C963 C964 1.403 . S
C964 C963 1.403 . S
C964 C965 1.404 . S
C964 C967 1.539 . S
C965 C961 1.408 . S
C965 C964 1.404 . S
C965 H977 0.929 1_655 S
C966 C962 1.524 . S
C966 H978 0.956 . S
C966 H979 0.961 . S
C966 H980 0.961 . S
C967 C964 1.539 . S
C967 H981 0.958 . S
C967 H982 0.961 1_655 S
C967 H983 0.960 1_655 S
H968 C952 0.931 . S
H969 C957 0.929 1_455 S
H970 C958 0.960 . S
H971 C958 0.962 . S
H972 C958 0.960 . S
H973 C959 0.961 . S
H974 C959 0.961 . S
H975 C959 0.961 . S
H976 C960 0.931 . S
H977 C965 0.929 1_455 S
H978 C966 0.956 . S
H979 C966 0.961 . S
H980 C966 0.961 . S
H981 C967 0.958 . S
H982 C967 0.961 1_455 S
H983 C967 0.960 1_455 S
C984 C985 1.391 . S
C984 C986 1.394 . S
C984 H1000 0.931 . S
C985 C984 1.391 . S
C985 C989 1.376 1_565 S
C986 C984 1.394 . S
C986 C987 1.369 . S
C986 C990 1.531 . S
C987 C986 1.369 . S
C987 C988 1.410 1_565 S
C987 C995 1.503 . S
C988 C987 1.410 1_545 S
C988 C989 1.392 . S
C988 C991 1.511 . S
C989 C985 1.376 1_545 S
C989 C988 1.392 . S
C989 H1001 0.929 . S
C990 C986 1.531 . S
C990 H1002 0.960 . S
C990 H1003 0.962 . S
C990 H1004 0.960 . S
C991 C988 1.511 . S
C991 H1005 0.961 . S
C991 H1006 0.961 . S
C991 H1007 0.961 . S
C992 C993 1.370 . S
C992 C994 1.363 . S
C992 H1008 0.931 1_565 S
C993 C992 1.370 . S
C993 C997 1.408 . S
C994 C992 1.363 . S
C994 C995 1.370 . S
C994 C998 1.524 1_565 S
C995 C987 1.503 . S
C995 C994 1.370 . S
C995 C996 1.403 . S
C996 C995 1.403 . S
C996 C997 1.404 . S
C996 C999 1.539 . S
C997 C993 1.408 . S
C997 C996 1.404 . S
C997 H1009 0.930 . S
C998 C994 1.524 1_545 S
C998 H1010 0.956 1_545 S
C998 H1011 0.961 . S
C998 H1012 0.961 . S
C999 C996 1.539 . S
C999 H1013 0.958 . S
C999 H1014 0.961 . S
C999 H1015 0.960 . S
H1000 C984 0.931 . S
H1001 C989 0.929 . S
H1002 C990 0.960 . S
H1003 C990 0.962 . S
H1004 C990 0.960 . S
H1005 C991 0.961 . S
H1006 C991 0.961 . S
H1007 C991 0.961 . S
H1008 C992 0.931 1_545 S
H1009 C997 0.930 . S
H1010 C998 0.956 1_565 S
H1011 C998 0.961 . S
H1012 C998 0.961 . S
H1013 C999 0.958 . S
H1014 C999 0.961 . S
H1015 C999 0.960 . S
C1016 C1017 1.391 . S
C1016 C1018 1.394 . S
C1016 H1032 0.931 . S
C1017 C1016 1.391 . S
C1017 C1021 1.376 . S
C1018 C1016 1.394 . S
C1018 C1019 1.369 . S
C1018 C1022 1.531 . S
C1019 C1018 1.369 . S
C1019 C1020 1.410 . S
C1019 C1027 1.503 . S
C1020 C1019 1.410 . S
C1020 C1021 1.392 . S
C1020 C1023 1.511 . S
C1021 C1017 1.376 . S
C1021 C1020 1.392 . S
C1021 H1033 0.929 . S
C1022 C1018 1.531 . S
C1022 H1034 0.960 . S
C1022 H1035 0.962 . S
C1022 H1036 0.960 . S
C1023 C1020 1.511 . S
C1023 H1037 0.961 . S
C1023 H1038 0.961 . S
C1023 H1039 0.961 . S
C1024 C1025 1.370 . S
C1024 C1026 1.363 . S
C1024 H1040 0.931 . S
C1025 C1024 1.370 . S
C1025 C1029 1.408 . S
C1026 C1024 1.363 . S
C1026 C1027 1.370 . S
C1026 C1030 1.524 . S
C1027 C1019 1.503 . S
C1027 C1026 1.370 . S
C1027 C1028 1.403 . S
C1028 C1027 1.403 . S
C1028 C1029 1.404 . S
C1028 C1031 1.539 . S
C1029 C1025 1.408 . S
C1029 C1028 1.404 . S
C1029 H1041 0.930 . S
C1030 C1026 1.524 . S
C1030 H1042 0.956 . S
C1030 H1043 0.961 . S
C1030 H1044 0.961 . S
C1031 C1028 1.539 . S
C1031 H1045 0.958 . S
C1031 H1046 0.961 . S
C1031 H1047 0.960 . S
H1032 C1016 0.931 . S
H1033 C1021 0.929 . S
H1034 C1022 0.960 . S
H1035 C1022 0.962 . S
H1036 C1022 0.960 . S
H1037 C1023 0.961 . S
H1038 C1023 0.961 . S
H1039 C1023 0.961 . S
H1040 C1024 0.931 . S
H1041 C1029 0.930 . S
H1042 C1030 0.956 . S
H1043 C1030 0.961 . S
H1044 C1030 0.961 . S
H1045 C1031 0.958 . S
H1046 C1031 0.961 . S
H1047 C1031 0.960 . S
C1048 C1049 1.391 . S
C1048 C1050 1.394 . S
C1048 H1064 0.931 . S
C1049 C1048 1.391 . S
C1049 C1053 1.376 . S
C1050 C1048 1.394 . S
C1050 C1051 1.369 . S
C1050 C1054 1.531 . S
C1051 C1050 1.369 . S
C1051 C1052 1.410 . S
C1051 C1059 1.503 . S
C1052 C1051 1.410 . S
C1052 C1053 1.392 . S
C1052 C1055 1.511 . S
C1053 C1049 1.376 . S
C1053 C1052 1.392 . S
C1053 H1065 0.929 . S
C1054 C1050 1.531 . S
C1054 H1066 0.960 . S
C1054 H1067 0.962 . S
C1054 H1068 0.960 . S
C1055 C1052 1.511 . S
C1055 H1069 0.961 . S
C1055 H1070 0.961 . S
C1055 H1071 0.961 . S
C1056 C1057 1.370 . S
C1056 C1058 1.363 . S
C1056 H1072 0.931 . S
C1057 C1056 1.370 . S
C1057 C1061 1.408 . S
C1058 C1056 1.363 . S
C1058 C1059 1.370 . S
C1058 C1062 1.524 . S
C1059 C1051 1.503 . S
C1059 C1058 1.370 . S
C1059 C1060 1.403 . S
C1060 C1059 1.403 . S
C1060 C1061 1.404 . S
C1060 C1063 1.539 . S
C1061 C1057 1.408 . S
C1061 C1060 1.404 . S
C1061 H1073 0.930 . S
C1062 C1058 1.524 . S
C1062 H1074 0.956 . S
C1062 H1075 0.961 . S
C1062 H1076 0.961 . S
C1063 C1060 1.539 . S
C1063 H1077 0.958 . S
C1063 H1078 0.961 . S
C1063 H1079 0.960 . S
H1064 C1048 0.931 . S
H1065 C1053 0.929 . S
H1066 C1054 0.960 . S
H1067 C1054 0.962 . S
H1068 C1054 0.960 . S
H1069 C1055 0.961 . S
H1070 C1055 0.961 . S
H1071 C1055 0.961 . S
H1072 C1056 0.931 . S
H1073 C1061 0.930 . S
H1074 C1062 0.956 . S
H1075 C1062 0.961 . S
H1076 C1062 0.961 . S
H1077 C1063 0.958 . S
H1078 C1063 0.961 . S
H1079 C1063 0.960 . S
C313 C125 2.238 . S
C321 C183 2.324 . S
C353 C209 1.861 . S
C345 C144 1.831 . S
C385 C249 1.944 . S
C377 C87 1.878 . S
C417 C303 2.382 . S
C409 C106 2.300 . S
C449 C164 2.331 1_565 S
C441 C49 2.297 . S
C473 C68 1.776 . S
C481 C194 1.868 . S
C505 C11 1.898 . S
C513 C234 1.946 . S
C537 C30 2.361 . S
C545 C284 2.377 1_655 S
C577 C160 0.580 . S
C569 C97 0.668 . S
C609 C221 0.705 . S
C601 C116 0.651 . S
C641 C261 0.574 . S
C633 C135 0.556 . S
C665 C78 0.497 . S
C673 C280 0.519 . S
C697 C21 0.711 . S
C705 C181 0.570 . S
C737 C200 0.691 1_554 S
C729 C40 0.751 . S
C769 C240 0.596 . S
C761 C59 0.564 . S
C793 C2 0.500 . S
C801 C301 0.509 . S
C825 C101 1.894 . S
C833 C154 2.142 . S
C857 C120 2.389 . S
C865 C204 2.602 . S
C897 C244 2.368 . S
C889 C139 2.212 . S
C929 C274 1.880 . S
C921 C82 1.729 . S
C953 C25 1.969 . S
C961 C169 2.140 . S
C993 C223 2.603 . S
C985 C44 2.429 . S
C1025 C263 2.369 . S
C1017 C63 2.159 . S
C1049 C6 1.726 . S
C1057 C289 1.886 . S
