# Generated by pormake.
# Topology zzz, (3,6)-cn, num edge types: 1
# Building blocks:
#     Node 0, Type 0, BuildingBlock: BETDAH_clean_linker_0, # of connection points: 3
#     Node 1, Type 0, BuildingBlock: BETDAH_clean_linker_0, # of connection points: 3
#     Node 2, Type 0, BuildingBlock: BETDAH_clean_linker_0, # of connection points: 3
#     Node 3, Type 0, BuildingBlock: BETDAH_clean_linker_0, # of connection points: 3
#     Node 4, Type 0, BuildingBlock: BETDAH_clean_linker_0, # of connection points: 3
#     Node 5, Type 0, BuildingBlock: BETDAH_clean_linker_0, # of connection points: 3
#     Node 6, Type 0, BuildingBlock: BETDAH_clean_linker_0, # of connection points: 3
#     Node 7, Type 0, BuildingBlock: BETDAH_clean_linker_0, # of connection points: 3
#     Node 8, Type 1, BuildingBlock: JUFBIX_clean_sbu_0, # of connection points: 6
#     Node 9, Type 1, BuildingBlock: JUFBIX_clean_sbu_0, # of connection points: 6
#     Node 10, Type 1, BuildingBlock: JUFBIX_clean_sbu_0, # of connection points: 6
#     Node 11, Type 1, BuildingBlock: JUFBIX_clean_sbu_0, # of connection points: 6
#     Edge 12, Type (0, 1), BuildingBlock: OJICUG_clean_linker_0, # of connection points: 2
#     Edge 13, Type (0, 1), BuildingBlock: OJICUG_clean_linker_0, # of connection points: 2
#     Edge 14, Type (0, 1), BuildingBlock: OJICUG_clean_linker_0, # of connection points: 2
#     Edge 15, Type (0, 1), BuildingBlock: OJICUG_clean_linker_0, # of connection points: 2
#     Edge 16, Type (0, 1), BuildingBlock: OJICUG_clean_linker_0, # of connection points: 2
#     Edge 17, Type (0, 1), BuildingBlock: OJICUG_clean_linker_0, # of connection points: 2
#     Edge 18, Type (0, 1), BuildingBlock: OJICUG_clean_linker_0, # of connection points: 2
#     Edge 19, Type (0, 1), BuildingBlock: OJICUG_clean_linker_0, # of connection points: 2
#     Edge 20, Type (0, 1), BuildingBlock: OJICUG_clean_linker_0, # of connection points: 2
#     Edge 21, Type (0, 1), BuildingBlock: OJICUG_clean_linker_0, # of connection points: 2
#     Edge 22, Type (0, 1), BuildingBlock: OJICUG_clean_linker_0, # of connection points: 2
#     Edge 23, Type (0, 1), BuildingBlock: OJICUG_clean_linker_0, # of connection points: 2
#     Edge 24, Type (0, 1), BuildingBlock: OJICUG_clean_linker_0, # of connection points: 2
#     Edge 25, Type (0, 1), BuildingBlock: OJICUG_clean_linker_0, # of connection points: 2
#     Edge 26, Type (0, 1), BuildingBlock: OJICUG_clean_linker_0, # of connection points: 2
#     Edge 27, Type (0, 1), BuildingBlock: OJICUG_clean_linker_0, # of connection points: 2
#     Edge 28, Type (0, 1), BuildingBlock: OJICUG_clean_linker_0, # of connection points: 2
#     Edge 29, Type (0, 1), BuildingBlock: OJICUG_clean_linker_0, # of connection points: 2
#     Edge 30, Type (0, 1), BuildingBlock: OJICUG_clean_linker_0, # of connection points: 2
#     Edge 31, Type (0, 1), BuildingBlock: OJICUG_clean_linker_0, # of connection points: 2
#     Edge 32, Type (0, 1), BuildingBlock: OJICUG_clean_linker_0, # of connection points: 2
#     Edge 33, Type (0, 1), BuildingBlock: OJICUG_clean_linker_0, # of connection points: 2
#     Edge 34, Type (0, 1), BuildingBlock: OJICUG_clean_linker_0, # of connection points: 2
#     Edge 35, Type (0, 1), BuildingBlock: OJICUG_clean_linker_0, # of connection points: 2
# Relax obj value: 0.113
# Max RMSD: 0.173
# Mean RMSD: 0.084
data_MOF--net-zzz--node1-JUFBIX_clean_sbu_0--node2-BETDAH_clean_linker_0--edge1-OJICUG_clean_linker_0
_symmetry_space_group_name_H-M    P1
_symmetry_Int_Tables_number       1
_symmetry_cell_setting            triclinic
loop_
_symmetry_equiv_pos_as_xyz
'x, y, z'
_cell_length_a     38.007686
_cell_length_b     37.893522
_cell_length_c     13.481843
_cell_angle_alpha  78.773042
_cell_angle_beta   90.108337
_cell_angle_gamma 91.999116
loop_
_atom_site_label
_atom_site_type_symbol
_atom_site_fract_x
_atom_site_fract_y
_atom_site_fract_z
_atom_type_partial_charge
H0 H 0.92304 0.48645 0.30804 0.0
H1 H 0.82857 0.50651 0.1353 0.0
H2 H 0.83347 0.52582 0.4403 0.0
C3 C 0.89553 0.49341 0.3038 0.0
C4 C 0.88026 0.50521 0.38496 0.0
C5 C 0.87726 0.49414 0.21362 0.0
C6 C 0.84233 0.50519 0.2062 0.0
C7 C 0.82597 0.51577 0.28916 0.0
C8 C 0.84542 0.51646 0.37767 0.0
N9 N 0.79062 0.52699 0.28489 0.0
C10 C 0.76818 0.52574 0.20388 0.0
H11 H 0.04367 0.86741 0.30516 0.0
H12 H 0.03663 0.78412 0.13035 0.0
H13 H 0.99451 0.76556 0.43415 0.0
C14 C 0.03737 0.8397 0.29964 0.0
C15 C 0.01992 0.8175 0.38051 0.0
C16 C 0.04312 0.82828 0.20871 0.0
C17 C 0.03257 0.79299 0.20098 0.0
C18 C 1.01554 0.7699 0.28317 0.0
C19 C 1.0088 0.78259 0.37232 0.0
N20 N 1.00351 0.73448 0.27704 0.0
C21 C 1.0088 0.71889 0.19331 0.0
H22 H 0.68388 0.0295 0.18177 0.0
H23 H 0.77368 0.01818 -0.00262 0.0
H24 H 0.7772 0.98441 0.32231 0.0
C25 C 0.71132 0.02317 0.17487 0.0
C26 C 0.72906 1.0079 0.26199 0.0
C27 C 0.72657 0.02665 0.07903 0.0
C28 C 0.76174 1.01641 0.07114 0.0
C29 C 0.78061 1.00223 0.16003 0.0
C30 C 0.76357 0.99704 0.25465 0.0
N31 N 0.81554 0.99003 0.15832 0.0
C32 C 0.84119 1.00182 0.08442 0.0
H33 H 0.55383 0.6355 0.20205 0.0
H34 H 0.52931 0.73902 0.0246 0.0
H35 H 0.53267 0.7227 0.35049 0.0
C36 C 0.54856 0.66376 0.19762 0.0
C37 C 0.54489 0.67667 0.28669 0.0
C38 C 0.54245 0.68557 0.10336 0.0
C39 C 0.5345 0.72213 0.09728 0.0
C40 C 0.53197 0.73596 0.18725 0.0
C41 C 0.53622 0.71267 0.28128 0.0
N42 N 0.52252 0.77194 0.18894 0.0
C43 C 0.52647 0.80247 0.11229 0.0
H44 H 0.15125 0.54719 0.29598 0.0
H45 H 0.24568 0.5271 0.46885 0.0
H46 H 0.24076 0.50759 0.16406 0.0
C47 C 0.17875 0.5402 0.30028 0.0
C48 C 0.194 0.52832 0.21922 0.0
C49 C 0.19702 0.5395 0.39045 0.0
C50 C 0.23193 0.5284 0.39795 0.0
C51 C 0.24827 0.51773 0.31511 0.0
C52 C 0.22883 0.51702 0.22661 0.0
N53 N 0.2836 0.50642 0.3195 0.0
C54 C 0.306 0.50761 0.40063 0.0
H55 H 0.02941 0.16602 0.29917 0.0
H56 H 0.03683 0.24931 0.47377 0.0
H57 H 0.07816 0.26797 0.16919 0.0
C58 C 0.03569 0.19374 0.30454 0.0
C59 C 0.05294 0.21596 0.22335 0.0
C60 C 0.03015 0.20516 0.39558 0.0
C61 C 0.04074 0.24046 0.40314 0.0
C62 C 0.05755 0.26358 0.32066 0.0
C63 C 0.06401 0.25091 0.23129 0.0
N64 N 0.06967 0.29899 0.32646 0.0
C65 C 0.06639 0.31424 0.41171 0.0
H66 H 0.39007 1.00359 0.42298 0.0
H67 H 0.3003 1.01501 0.60735 0.0
H68 H 0.2968 0.0488 0.28243 0.0
C69 C 0.36264 1.00994 0.42988 0.0
C70 C 0.34491 0.02524 0.34275 0.0
C71 C 0.3474 1.00649 0.52571 0.0
C72 C 0.31224 0.01677 0.5336 0.0
C73 C 0.29337 0.03097 0.44471 0.0
C74 C 0.31041 0.03614 0.35009 0.0
N75 N 0.25846 0.04322 0.4464 0.0
C76 C 0.23279 0.03144 0.52021 0.0
H77 H 0.52003 0.39757 0.40315 0.0
H78 H 0.54477 0.29411 0.5806 0.0
H79 H 0.54144 0.31043 0.25472 0.0
C80 C 0.52535 0.36932 0.40758 0.0
C81 C 0.52908 0.35642 0.31851 0.0
C82 C 0.5315 0.34753 0.50184 0.0
C83 C 0.53954 0.31099 0.50793 0.0
C84 C 0.54211 0.29716 0.41796 0.0
C85 C 0.53784 0.32044 0.32393 0.0
N86 N 0.55168 0.26123 0.41628 0.0
C87 C 0.54764 0.23066 0.49278 0.0
Co88 Co 0.04863 0.03004 0.86055 0.0
C89 C 0.97617 1.01612 0.88495 0.0
Co90 Co 0.02525 1.00337 0.74362 0.0
C91 C 0.05667 0.08871 0.9628 0.0
C92 C 0.09809 0.05188 0.00233 0.0
N93 N 0.06789 0.05657 0.94974 0.0
N94 N 0.07881 0.10482 0.01997 0.0
C95 C 0.10482 0.08143 0.04596 0.0
H96 H 0.03324 0.10059 0.92726 0.0
H97 H 0.11471 0.02907 0.00583 0.0
C98 C 0.09771 0.01727 0.71924 0.0
N99 N 1.00594 0.97686 0.6544 0.0
C100 C 0.01691 0.9446 0.64156 0.0
C101 C 0.97583 0.9818 0.60148 0.0
N102 N 0.99468 0.92866 0.58419 0.0
C103 C 0.96889 0.95229 0.55787 0.0
C104 C 0.02354 0.07592 0.68744 0.0
O105 O 0.09358 0.03043 0.79805 0.0
O106 O 0.07091 1.00388 0.68098 0.0
O107 O 1.01497 0.04734 0.65585 0.0
O108 O 0.03861 0.07353 0.77215 0.0
O109 O 0.9803 1.00297 0.80614 0.0
H110 H 0.95939 1.00476 0.59773 0.0
H111 H 0.04022 0.93253 0.67735 0.0
O112 O 1.00298 0.02952 0.92317 0.0
O113 O 0.05891 0.98607 0.94835 0.0
O114 O 0.03528 0.95988 0.83201 0.0
C115 C 0.05033 0.95749 0.91675 0.0
H116 H 0.12722 0.08523 0.09284 0.0
H117 H 0.94651 0.94868 0.51074 0.0
Co118 Co 0.52642 0.02577 0.86858 0.0
C119 C 0.53485 0.95087 0.89945 0.0
Co120 Co 0.54756 1.00732 0.73619 0.0
C121 C 0.47384 0.0279 0.01695 0.0
C122 C 0.51301 0.06992 0.01565 0.0
N123 N 0.50526 0.04055 0.97614 0.0
N124 N 0.46104 0.04863 0.0782 0.0
C125 C 0.48585 0.07495 0.07858 0.0
H126 H 0.45958 1.00513 -0.00319 0.0
H127 H 0.53592 0.08762 -0.00435 0.0
C128 C 0.53914 0.08223 0.70532 0.0
N129 N 0.56871 0.99255 0.62862 0.0
C130 C 0.60014 1.00521 0.58781 0.0
C131 C 0.56098 0.96317 0.58912 0.0
N132 N 0.61295 0.98448 0.52657 0.0
C133 C 0.58814 0.95815 0.5262 0.0
C134 C 0.47535 1.00659 0.73561 0.0
O135 O 0.5279 0.07435 0.79589 0.0
O136 O 0.54899 0.05683 0.6631 0.0
O137 O 0.5015 0.99967 0.68459 0.0
O138 O 0.48086 0.01873 0.81553 0.0
O139 O 0.54608 0.95874 0.80888 0.0
H140 H 0.53807 0.94547 0.60913 0.0
H141 H 0.61439 0.02798 0.60794 0.0
O142 O 0.52499 0.97627 0.94165 0.0
O143 O 0.57247 0.03343 0.92017 0.0
O144 O 0.59311 1.01437 0.78923 0.0
C145 C 0.59863 0.02651 0.86915 0.0
H146 H 0.48424 0.09672 0.11957 0.0
H147 H 0.58976 0.93637 0.48521 0.0
Co148 Co 0.566 0.51619 0.80501 0.0
C149 C 0.53145 0.47184 0.96944 0.0
Co150 Co 0.50797 0.51691 0.80022 0.0
C151 C 0.63194 0.52029 0.90461 0.0
C152 C 0.63967 0.51162 0.75419 0.0
N153 N 0.61444 0.51616 0.82024 0.0
N154 N 0.66711 0.51851 0.89444 0.0
C155 C 0.67212 0.51294 0.79975 0.0
H156 H 0.61891 0.52381 0.97316 0.0
H157 H 0.63477 0.50749 0.67813 0.0
C158 C 0.54253 0.56127 0.63578 0.0
N159 N 0.45954 0.51695 0.78497 0.0
C160 C 0.44206 0.51282 0.70056 0.0
C161 C 0.43429 0.52151 0.85096 0.0
N162 N 0.40689 0.51462 0.71064 0.0
C163 C 0.40185 0.5202 0.80532 0.0
C164 C 0.53604 0.57163 0.88571 0.0
O165 O 0.57054 0.54877 0.67859 0.0
O166 O 0.51288 0.54961 0.67447 0.0
O167 O 0.50683 0.55743 0.86485 0.0
O168 O 0.56443 0.55683 0.86946 0.0
O169 O 0.50343 0.48433 0.92662 0.0
H170 H 0.43917 0.52564 0.92702 0.0
H171 H 0.4551 0.5093 0.63204 0.0
O172 O 0.56109 0.48349 0.93077 0.0
O173 O 0.56714 0.47567 0.74039 0.0
O174 O 0.50954 0.47628 0.73576 0.0
C175 C 0.53792 0.46147 0.71952 0.0
H176 H 0.69738 0.51034 0.76546 0.0
H177 H 0.37658 0.52283 0.83952 0.0
Co178 Co 0.03389 0.54611 0.79339 0.0
C179 C 0.08386 0.51449 0.93722 0.0
Co180 Co 0.04042 0.48751 0.81067 0.0
C181 C 0.02741 0.60603 0.88821 0.0
C182 C 0.02551 0.6235 0.72771 0.0
N183 N 0.02862 0.59392 0.8007 0.0
N184 N 0.0239 0.64192 0.87367 0.0
C185 C 0.02245 0.65313 0.7725 0.0
H186 H 0.02859 0.58853 0.96178 0.0
H187 H 0.02559 0.62352 0.64746 0.0
C188 C 0.99047 0.51904 0.66685 0.0
N189 N 0.04582 0.43971 0.80338 0.0
C190 C 0.0503 0.42804 0.71613 0.0
C191 C 0.04587 0.40974 0.87609 0.0
N192 N 0.0533 0.39208 0.7306 0.0
C193 C 0.05035 0.38029 0.8314 0.0
C194 C 0.98705 0.5011 0.92734 0.0
O195 O 0.99952 0.54888 0.69068 0.0
O196 O 1.00617 0.49078 0.70708 0.0
O197 O 1.00365 0.47487 0.90689 0.0
O198 O 0.99733 0.53312 0.88947 0.0
O199 O 0.07454 0.4846 0.91413 0.0
H200 H 0.04278 0.40933 0.95606 0.0
H201 H 0.05065 0.44574 0.64269 0.0
O202 O 0.06842 0.5428 0.89619 0.0
O203 O 0.07041 0.55881 0.69639 0.0
O204 O 0.07722 0.50062 0.71542 0.0
C205 C 0.08726 0.53262 0.67675 0.0
H206 H 0.01989 0.68073 0.73364 0.0
H207 H 0.05169 0.35253 0.87011 0.0
C208 C 0.19554 0.03749 0.66613 0.0
C209 C 0.20037 0.02374 0.57812 0.0
H210 H 0.15937 0.04612 0.78009 0.0
C211 C 0.17182 1.00648 0.53876 0.0
H212 H 0.21711 0.05139 0.69687 0.0
C213 C 0.13862 1.00368 0.58549 0.0
C214 C 0.13332 0.01825 0.67242 0.0
H215 H 0.1749 0.99614 0.4699 0.0
H216 H 0.11697 0.99079 0.55219 0.0
C217 C 0.16239 0.03465 0.71314 0.0
C218 C 0.55699 0.16607 0.5018 0.0
C219 C 0.54573 0.19369 0.54891 0.0
H220 H 0.56374 0.10944 0.51337 0.0
C221 C 0.53216 0.1847 0.64754 0.0
H222 H 0.56745 0.17239 0.42541 0.0
C223 C 0.52995 0.14852 0.69823 0.0
C224 C 0.54119 0.12063 0.65108 0.0
H225 H 0.52318 0.20553 0.68525 0.0
H226 H 0.51938 0.14242 0.77444 0.0
C227 C 0.55477 0.12999 0.55212 0.0
C228 C 0.36238 0.49059 0.48249 0.0
C229 C 0.33077 0.50852 0.48137 0.0
H230 H 0.41127 0.47797 0.55756 0.0
C231 C 0.32385 0.52778 0.55755 0.0
H232 H 0.36807 0.47549 0.42424 0.0
C233 C 0.34856 0.52935 0.63392 0.0
C234 C 0.38066 0.51185 0.63471 0.0
H235 H 0.29959 0.54196 0.55751 0.0
H236 H 0.3429 0.54495 0.69083 0.0
C237 C 0.38713 0.49223 0.55842 0.0
C238 C 0.07773 0.36825 0.48289 0.0
C239 C 0.06416 0.33289 0.49489 0.0
H240 H 0.08563 0.41459 0.54953 0.0
C241 C 0.04818 0.31639 0.58665 0.0
H242 H 0.09037 0.38129 0.41263 0.0
C243 C 0.04524 0.33547 0.66533 0.0
C244 C 0.05812 0.37135 0.65283 0.0
H245 H 0.03758 0.28901 0.5972 0.0
H246 H 0.0321 0.32252 0.7347 0.0
C247 C 0.0748 0.38731 0.56108 0.0
C248 C 0.90211 0.02685 0.06562 0.0
C249 C 0.87357 1.00955 0.02639 0.0
H250 H 0.95695 0.04261 0.05199 0.0
C251 C 0.87838 0.99579 0.93837 0.0
H252 H 0.89905 0.0372 0.13449 0.0
C253 C 0.91151 0.99867 0.89124 0.0
C254 C 0.94058 1.01512 0.93185 0.0
H255 H 0.85682 0.98186 0.90773 0.0
H256 H 0.91452 0.9872 0.82429 0.0
C257 C 0.93529 0.02969 0.01878 0.0
C258 C 0.54192 0.84841 0.95744 0.0
C259 C 0.52833 0.83942 0.05605 0.0
H260 H 0.5547 0.89067 0.8305 0.0
C261 C 0.51701 0.86704 0.10306 0.0
H262 H 0.55095 0.82757 0.91982 0.0
C263 C 0.5192 0.90312 0.05266 0.0
C264 C 0.53281 0.91247 0.95374 0.0
H265 H 0.50653 0.86073 0.17942 0.0
H266 H 0.51018 0.92367 0.09134 0.0
C267 C 0.5441 0.88458 0.90668 0.0
C268 C 0.75026 0.50552 0.04708 0.0
C269 C 0.74335 0.52477 0.1233 0.0
H270 H 0.73117 0.48831 0.91391 0.0
C271 C 0.7117 0.54262 0.12239 0.0
H272 H 0.77455 0.49141 0.04696 0.0
C273 C 0.68691 0.54092 0.04661 0.0
C274 C 0.69337 0.52132 0.97027 0.0
H275 H 0.70602 0.5577 0.18068 0.0
H276 H 0.66274 0.55512 0.04763 0.0
C277 C 0.7255 0.5039 0.97087 0.0
C278 C 0.99903 0.71366 0.01546 0.0
C279 C 1.01424 0.70099 0.10991 0.0
H280 H 0.99018 0.70454 0.86508 0.0
C281 C 0.03398 0.66998 0.12448 0.0
H282 H 0.98371 0.7377 0.00323 0.0
C283 C 0.03783 0.65117 0.04606 0.0
C284 C 0.02188 0.66302 0.95162 0.0
H285 H 0.04606 0.65999 0.19694 0.0
H286 H 0.05325 0.62724 0.05964 0.0
C287 C 1.0029 0.69483 0.93659 0.0
C288 C 0.99569 0.14923 0.47394 0.0
C289 C 0.01968 0.1774 0.48503 0.0
H290 H 0.9789 0.09427 0.52796 0.0
C291 C 0.03986 0.17396 0.57341 0.0
H292 H 0.97916 0.15148 0.40759 0.0
C293 C 0.0392 0.14147 0.64301 0.0
C294 C 0.01872 0.11179 0.62458 0.0
H295 H 0.05864 0.19502 0.58434 0.0
H296 H 0.05681 0.13883 0.70713 0.0
C297 C 0.99568 0.11643 0.54223 0.0
C298 C 0.38006 0.02489 0.6687 0.0
C299 C 0.37202 0.99824 0.61216 0.0
H300 H 0.41957 0.04843 0.75217 0.0
C301 C 0.39597 0.97058 0.61304 0.0
H302 H 0.3624 0.04673 0.66864 0.0
C303 C 0.4294 0.97275 0.65529 0.0
C304 C 0.43878 1.00157 0.70222 0.0
H305 H 0.39042 0.94963 0.57021 0.0
H306 H 0.44837 0.95276 0.64755 0.0
C307 C 0.41312 0.0263 0.71441 0.0
C308 C 0.50212 0.38117 0.61626 0.0
C309 C 0.53304 0.36635 0.58809 0.0
H310 H 0.47939 0.42302 0.67821 0.0
C311 C 0.56571 0.38056 0.61368 0.0
H312 H 0.47666 0.37138 0.59473 0.0
C313 C 0.56744 0.41079 0.65947 0.0
C314 C 0.53649 0.42744 0.68007 0.0
H315 H 0.58993 0.37033 0.58994 0.0
H316 H 0.59304 0.42217 0.67389 0.0
C317 C 0.5038 0.41132 0.66186 0.0
C318 C 0.15356 0.57225 0.47392 0.0
C319 C 0.17638 0.54345 0.47977 0.0
H320 H 0.10694 0.59143 0.5324 0.0
C321 C 0.1725 0.51374 0.55937 0.0
H322 H 0.15604 0.59535 0.41245 0.0
C323 C 0.14412 0.5111 0.62576 0.0
C324 C 0.11943 0.53838 0.61449 0.0
H325 H 0.18947 0.49105 0.56475 0.0
H326 H 0.14064 0.48689 0.68322 0.0
C327 C 0.12533 0.56984 0.5415 0.0
C328 C 0.0338 0.85948 0.03069 0.0
C329 C 0.05379 0.85603 0.11944 0.0
H330 H 0.01714 0.89458 0.8966 0.0
C331 C 0.07775 0.88418 0.13089 0.0
H332 H 1.01505 0.83843 0.01949 0.0
C333 C 0.07791 0.91697 0.0625 0.0
C334 C 0.05505 0.92162 0.97973 0.0
H335 H 0.09412 0.88193 0.19755 0.0
H336 H 0.09466 0.93912 0.07703 0.0
C337 C 0.03462 0.89195 0.96102 0.0
C338 C 0.67799 0.06254 -0.00826 0.0
C339 C 0.70195 0.03488 -0.00743 0.0
H340 H 0.62558 0.08033 0.95726 0.0
C341 C 0.69393 1.00824 0.93599 0.0
H342 H 0.68354 0.08348 0.0346 0.0
C343 C 0.66087 1.00683 0.89028 0.0
C344 C 0.63519 0.03154 0.90252 0.0
H345 H 0.71159 0.98642 0.93602 0.0
H346 H 0.65442 0.9847 0.85249 0.0
C347 C 0.64456 0.06035 0.94949 0.0
C348 C 0.57183 0.65196 -0.01113 0.0
C349 C 0.5409 0.66676 0.0171 0.0
H350 H 0.59457 0.61012 0.9269 0.0
C351 C 0.50824 0.65253 -0.00843 0.0
H352 H 0.59729 0.66176 0.01036 0.0
C353 C 0.50651 0.6223 0.9458 0.0
C354 C 0.53747 0.60567 0.92514 0.0
H355 H 0.48402 0.66274 0.01537 0.0
H356 H 0.48091 0.6109 0.93143 0.0
C357 C 0.57016 0.62181 0.94328 0.0
C358 C 0.90184 0.52003 0.04487 0.0
C359 C 0.8979 0.49024 0.12425 0.0
H360 H 0.93377 0.54693 0.9212 0.0
C361 C 0.92068 0.46141 0.1299 0.0
H362 H 0.88491 0.54274 0.03965 0.0
C363 C 0.94892 0.46385 0.06234 0.0
C364 C 0.95488 0.49536 -0.0104 0.0
H365 H 0.91815 0.43827 0.19121 0.0
H366 H 0.96726 0.44222 0.07127 0.0
C367 C 0.93025 0.52268 0.97851 0.0
C368 C 0.09678 0.18573 0.13727 0.0
C369 C 0.06285 0.199 0.13869 0.0
H370 H 0.12871 0.14528 0.09754 0.0
C371 C 0.03589 0.18499 0.08515 0.0
H372 H 0.11782 0.19583 0.17961 0.0
C373 C 0.04166 0.15535 0.04098 0.0
C374 C 0.07465 0.13921 0.04909 0.0
H375 H 1.00936 0.19445 0.08703 0.0
H376 H 0.01932 0.14364 0.00786 0.0
C377 C 0.10268 0.1561 0.09256 0.0
C378 C 0.37998 1.0045 0.21244 0.0
C379 C 0.36574 0.03325 0.2486 0.0
H380 H 0.42198 0.98663 0.13214 0.0
C381 C 0.38061 0.06802 0.21722 0.0
H382 H 0.36942 0.97731 0.23796 0.0
C383 C 0.41115 0.07343 0.15763 0.0
C384 C 0.42725 0.04411 0.12854 0.0
H385 H 0.37049 0.09043 0.2462 0.0
H386 H 0.42291 0.1003 0.13806 0.0
C387 C 0.41041 1.00985 0.1529 0.0
C388 C 0.55783 0.39003 0.16049 0.0
C389 C 0.52765 0.3825 0.22152 0.0
H390 H 0.58296 0.42477 0.0346 0.0
C391 C 0.49824 0.40407 0.19813 0.0
H392 H 0.58104 0.37422 0.17822 0.0
C393 C 0.49921 0.43302 0.1158 0.0
C394 C 0.52992 0.44142 0.05696 0.0
H395 H 0.47483 0.399 0.24517 0.0
H396 H 0.47626 0.44931 0.09971 0.0
C397 C 0.55907 0.41935 0.0795 0.0
C398 C 0.15308 0.55551 0.08524 0.0
C399 C 0.17126 0.52529 0.13243 0.0
H400 H 0.11095 0.57565 -0.01138 0.0
C401 C 0.16185 0.49136 0.11141 0.0
H402 H 0.15967 0.58186 0.10146 0.0
C403 C 0.13345 0.48754 0.04747 0.0
C404 C 0.11414 0.51765 0.00413 0.0
H405 H 0.17514 0.4676 0.1488 0.0
H406 H 0.12612 0.461 0.03399 0.0
C407 C 0.12484 0.55176 0.02189 0.0
C408 C 0.97621 0.848 0.46622 0.0
C409 C 1.01002 0.83442 0.46524 0.0
H410 H 0.94456 0.88871 0.50572 0.0
C411 C 0.03701 0.84813 0.51937 0.0
H412 H 0.95515 0.83814 0.42343 0.0
C413 C 0.03142 0.87777 0.56366 0.0
C414 C 0.99859 0.89424 0.55509 0.0
H415 H 0.06345 0.83842 0.51785 0.0
H416 H 0.0538 0.88924 0.59725 0.0
C417 C 0.97049 0.87765 0.51106 0.0
C418 C 0.69399 0.02863 0.39233 0.0
C419 C 0.70824 0.99988 0.35616 0.0
H420 H 0.652 0.04649 0.47263 0.0
C421 C 0.69338 0.9651 0.38753 0.0
H422 H 0.70455 0.05582 0.36681 0.0
C423 C 0.66284 0.95969 0.44713 0.0
C424 C 0.64674 0.98901 0.47622 0.0
H425 H 0.7035 0.9427 0.35854 0.0
H426 H 0.65109 0.93281 0.46669 0.0
C427 C 0.66357 0.02326 0.45186 0.0
C428 C 0.51615 0.64309 0.44475 0.0
C429 C 0.54632 0.6506 0.38369 0.0
H430 H 0.49103 0.60836 0.57069 0.0
C431 C 0.57572 0.62901 0.40704 0.0
H432 H 0.49295 0.65891 0.42705 0.0
C433 C 0.57476 0.60006 0.48938 0.0
C434 C 0.54405 0.59169 0.54826 0.0
H435 H 0.59913 0.63407 0.35996 0.0
H436 H 0.5977 0.58377 0.50544 0.0
C437 C 0.51491 0.61376 0.52575 0.0
C438 C 0.91242 0.54215 0.49282 0.0
C439 C 0.903 0.50822 0.47178 0.0
H440 H 0.94816 0.5725 0.57019 0.0
C441 C 0.92118 0.478 0.51898 0.0
H442 H 0.89913 0.56591 0.45545 0.0
C443 C 0.94942 0.48174 0.58232 0.0
C444 C 0.96015 0.51586 0.60003 0.0
H445 H 0.91457 0.45165 0.50278 0.0
H446 H 0.9633 0.45785 0.61566 0.0
C447 C 0.94083 0.54596 0.55674 0.0
loop_
_geom_bond_atom_site_label_1
_geom_bond_atom_site_label_2
_geom_bond_distance
_geom_bond_site_symmetry_2
_ccdc_geom_bond_type
H0 C3 0.929 . S
H1 C6 0.929 . S
H2 C8 0.930 . S
C3 H0 0.929 . S
C3 C4 1.398 . S
C3 C5 1.396 . S
C4 C3 1.398 . S
C4 C8 1.407 . S
C5 C3 1.396 . S
C5 C6 1.394 . S
C6 H1 0.929 . S
C6 C5 1.394 . S
C6 C7 1.382 . S
C7 C6 1.382 . S
C7 C8 1.392 . S
C7 N9 1.420 . S
C8 H2 0.930 . S
C8 C4 1.407 . S
C8 C7 1.392 . S
N9 C7 1.420 . S
N9 C10 1.244 . S
C10 N9 1.244 . S
H11 C14 0.929 . S
H12 C17 0.929 1_556 S
H13 C19 0.930 . S
C14 H11 0.929 . S
C14 C15 1.398 . S
C14 C16 1.396 . S
C15 C14 1.398 . S
C15 C19 1.407 . S
C16 C14 1.396 . S
C16 C17 1.394 . S
C17 H12 0.929 1_554 S
C17 C16 1.394 . S
C17 C18 1.382 . S
C18 C17 1.382 . S
C18 C19 1.392 . S
C18 N20 1.420 . S
C19 H13 0.930 . S
C19 C15 1.407 . S
C19 C18 1.392 . S
N20 C18 1.420 . S
N20 C21 1.244 . S
C21 N20 1.244 . S
H22 C25 0.929 . S
H23 C28 0.929 . S
H24 C30 0.930 . S
C25 H22 0.929 . S
C25 C26 1.398 1_565 S
C25 C27 1.398 1_564 S
C26 C25 1.398 1_545 S
C26 C30 1.407 . S
C27 C25 1.398 1_546 S
C27 C28 1.396 . S
C28 H23 0.929 . S
C28 C27 1.396 . S
C28 C29 1.382 1_556 S
C29 C28 1.382 1_554 S
C29 C30 1.392 . S
C29 N31 1.420 . S
C30 H24 0.930 . S
C30 C26 1.407 . S
C30 C29 1.392 . S
N31 C29 1.420 . S
N31 C32 1.227 1_544 S
C32 N31 1.227 1_566 S
H33 C36 0.929 . S
H34 C39 0.936 . S
H35 C41 0.930 . S
C36 H33 0.929 . S
C36 C37 1.398 . S
C36 C38 1.396 . S
C37 C36 1.398 . S
C37 C41 1.407 . S
C38 C36 1.396 . S
C38 C39 1.394 . S
C39 H34 0.936 . S
C39 C38 1.394 . S
C39 C40 1.382 . S
C40 C39 1.382 . S
C40 C41 1.392 . S
C40 N42 1.420 . S
C41 H35 0.930 . S
C41 C37 1.407 . S
C41 C40 1.392 . S
N42 C40 1.420 . S
N42 C43 1.244 . S
C43 N42 1.244 . S
H44 C47 0.929 . S
H45 C50 0.929 . S
H46 C52 0.930 . S
C47 H44 0.929 . S
C47 C48 1.398 . S
C47 C49 1.396 . S
C48 C47 1.398 . S
C48 C52 1.407 . S
C49 C47 1.396 . S
C49 C50 1.394 . S
C50 H45 0.929 . S
C50 C49 1.394 . S
C50 C51 1.382 . S
C51 C50 1.382 . S
C51 C52 1.392 . S
C51 N53 1.420 . S
C52 H46 0.930 . S
C52 C48 1.407 . S
C52 C51 1.392 . S
N53 C51 1.420 . S
N53 C54 1.244 . S
C54 N53 1.244 . S
H55 C58 0.929 . S
H56 C61 0.929 . S
H57 C63 0.930 . S
C58 H55 0.929 . S
C58 C59 1.398 . S
C58 C60 1.396 . S
C59 C58 1.398 . S
C59 C63 1.407 . S
C60 C58 1.396 . S
C60 C61 1.394 . S
C61 H56 0.929 . S
C61 C60 1.394 . S
C61 C62 1.382 . S
C62 C61 1.382 . S
C62 C63 1.392 . S
C62 N64 1.420 . S
C63 H57 0.930 . S
C63 C59 1.407 . S
C63 C62 1.392 . S
N64 C62 1.420 . S
N64 C65 1.244 . S
C65 N64 1.244 . S
H66 C69 0.929 . S
H67 C72 0.929 . S
H68 C74 0.930 . S
C69 H66 0.929 . S
C69 C70 1.398 1_565 S
C69 C71 1.389 1_565 S
C70 C69 1.398 1_545 S
C70 C74 1.407 . S
C71 C69 1.389 1_545 S
C71 C72 1.400 . S
C72 H67 0.929 . S
C72 C71 1.400 . S
C72 C73 1.382 . S
C73 C72 1.382 . S
C73 C74 1.392 . S
C73 N75 1.420 . S
C74 H68 0.930 . S
C74 C70 1.407 . S
C74 C73 1.392 . S
N75 C73 1.420 . S
N75 C76 1.238 1_545 S
C76 N75 1.238 1_565 S
H77 C80 0.929 . S
H78 C83 0.929 . S
H79 C85 0.930 . S
C80 H77 0.929 . S
C80 C81 1.398 . S
C80 C82 1.396 . S
C81 C80 1.398 . S
C81 C85 1.407 . S
C82 C80 1.396 . S
C82 C83 1.394 . S
C83 H78 0.929 . S
C83 C82 1.394 . S
C83 C84 1.382 . S
C84 C83 1.382 . S
C84 C85 1.392 . S
C84 N86 1.420 . S
C85 H79 0.930 . S
C85 C81 1.407 . S
C85 C84 1.392 . S
N86 C84 1.420 . S
N86 C87 1.244 . S
C87 N86 1.244 . S
Co88 N93 2.057 1_556 S
Co88 O105 2.021 . S
Co88 O108 2.062 . S
Co88 O112 2.117 1_455 S
Co88 O113 2.020 1_545 S
C89 O109 1.259 1_545 S
C89 O112 1.258 . S
Co90 N99 2.057 . S
Co90 O106 2.117 . S
Co90 O107 2.020 1_565 S
Co90 O109 2.021 1_455 S
Co90 O114 2.062 . S
C91 N93 1.316 . S
C91 N94 1.347 . S
C91 H96 0.931 . S
C92 N93 1.375 . S
C92 C95 1.350 . S
C92 H97 0.930 1_455 S
N93 Co88 2.057 1_554 S
N93 C91 1.316 . S
N93 C92 1.375 . S
N94 C91 1.347 . S
N94 C95 1.373 . S
C95 C92 1.350 . S
C95 N94 1.373 . S
C95 H116 0.936 . S
H96 C91 0.931 . S
H97 C92 0.930 1_655 S
C98 O105 1.259 1_565 S
C98 O106 1.258 . S
N99 Co90 2.057 . S
N99 C100 1.316 1_455 S
N99 C101 1.375 . S
C100 N99 1.316 1_655 S
C100 N102 1.347 . S
C100 H111 0.931 . S
C101 N99 1.375 . S
C101 C103 1.350 . S
C101 H110 0.930 . S
N102 C100 1.347 . S
N102 C103 1.373 1_655 S
C103 C101 1.350 . S
C103 N102 1.373 1_455 S
C103 H117 0.931 . S
C104 O107 1.256 . S
C104 O108 1.255 . S
O105 Co88 2.021 . S
O105 C98 1.259 1_545 S
O106 Co90 2.117 . S
O106 C98 1.258 . S
O107 Co90 2.020 1_545 S
O107 C104 1.256 . S
O108 Co88 2.062 . S
O108 C104 1.255 . S
O109 C89 1.259 1_565 S
O109 Co90 2.021 1_655 S
H110 C101 0.930 . S
H111 C100 0.931 . S
O112 Co88 2.117 1_655 S
O112 C89 1.258 . S
O113 Co88 2.020 1_565 S
O113 C115 1.256 . S
O114 Co90 2.062 . S
O114 C115 1.255 . S
C115 O113 1.256 . S
C115 O114 1.255 . S
H116 C95 0.936 . S
H117 C103 0.931 . S
Co118 N123 2.057 1_546 S
Co118 O135 2.021 . S
Co118 O138 2.062 . S
Co118 O142 2.117 1_545 S
Co118 O143 2.020 . S
C119 O139 1.259 . S
C119 O142 1.258 . S
Co120 N129 2.057 1_565 S
Co120 O136 2.117 1_565 S
Co120 O137 2.020 . S
Co120 O139 2.021 . S
Co120 O144 2.062 . S
C121 N123 1.316 1_545 S
C121 N124 1.347 . S
C121 H126 0.931 . S
C122 N123 1.375 . S
C122 C125 1.350 . S
C122 H127 0.930 . S
N123 Co118 2.057 1_564 S
N123 C121 1.316 1_565 S
N123 C122 1.375 . S
N124 C121 1.347 . S
N124 C125 1.373 1_545 S
C125 C122 1.350 . S
C125 N124 1.373 1_565 S
C125 H146 0.931 . S
H126 C121 0.931 . S
H127 C122 0.930 . S
C128 O135 1.259 . S
C128 O136 1.258 . S
N129 Co120 2.057 1_545 S
N129 C130 1.316 1_545 S
N129 C131 1.375 . S
C130 N129 1.316 1_565 S
C130 N132 1.347 . S
C130 H141 0.931 . S
C131 N129 1.375 . S
C131 C133 1.350 . S
C131 H140 0.930 . S
N132 C130 1.347 . S
N132 C133 1.373 1_565 S
C133 C131 1.350 . S
C133 N132 1.373 1_545 S
C133 H147 0.931 . S
C134 O137 1.256 . S
C134 O138 1.255 1_565 S
O135 Co118 2.021 . S
O135 C128 1.259 . S
O136 Co120 2.117 1_545 S
O136 C128 1.258 . S
O137 Co120 2.020 . S
O137 C134 1.256 . S
O138 Co118 2.062 . S
O138 C134 1.255 1_545 S
O139 C119 1.259 . S
O139 Co120 2.021 . S
H140 C131 0.930 . S
H141 C130 0.931 . S
O142 Co118 2.117 1_565 S
O142 C119 1.258 . S
O143 Co118 2.020 . S
O143 C145 1.256 . S
O144 Co120 2.062 . S
O144 C145 1.255 1_565 S
C145 O143 1.256 . S
C145 O144 1.255 1_545 S
H146 C125 0.931 . S
H147 C133 0.931 . S
Co148 N153 2.057 . S
Co148 O165 2.021 . S
Co148 O168 2.062 . S
Co148 O172 2.117 . S
Co148 O173 2.020 . S
C149 O169 1.259 . S
C149 O172 1.258 . S
Co150 N159 2.057 . S
Co150 O166 2.117 . S
Co150 O167 2.020 . S
Co150 O169 2.021 . S
Co150 O174 2.062 . S
C151 N153 1.316 . S
C151 N154 1.347 . S
C151 H156 0.931 . S
C152 N153 1.375 . S
C152 C155 1.350 1_556 S
C152 H157 0.930 1_556 S
N153 Co148 2.057 . S
N153 C151 1.316 . S
N153 C152 1.375 . S
N154 C151 1.347 . S
N154 C155 1.373 1_556 S
C155 C152 1.350 1_554 S
C155 N154 1.373 1_554 S
C155 H176 0.931 . S
H156 C151 0.931 . S
H157 C152 0.930 1_554 S
C158 O165 1.259 . S
C158 O166 1.258 . S
N159 Co150 2.057 . S
N159 C160 1.316 . S
N159 C161 1.375 . S
C160 N159 1.316 . S
C160 N162 1.347 . S
C160 H171 0.931 . S
C161 N159 1.375 . S
C161 C163 1.350 . S
C161 H170 0.930 . S
N162 C160 1.347 . S
N162 C163 1.373 . S
C163 C161 1.350 . S
C163 N162 1.373 . S
C163 H177 0.931 . S
C164 O167 1.256 . S
C164 O168 1.255 . S
O165 Co148 2.021 . S
O165 C158 1.259 . S
O166 Co150 2.117 . S
O166 C158 1.258 . S
O167 Co150 2.020 . S
O167 C164 1.256 . S
O168 Co148 2.062 . S
O168 C164 1.255 . S
O169 C149 1.259 . S
O169 Co150 2.021 . S
H170 C161 0.930 . S
H171 C160 0.931 . S
O172 Co148 2.117 . S
O172 C149 1.258 . S
O173 Co148 2.020 . S
O173 C175 1.256 . S
O174 Co150 2.062 . S
O174 C175 1.255 . S
C175 O173 1.256 . S
C175 O174 1.255 . S
H176 C155 0.931 . S
H177 C163 0.931 . S
Co178 N183 2.057 . S
Co178 O195 2.021 1_455 S
Co178 O198 2.062 1_455 S
Co178 O202 2.117 . S
Co178 O203 2.020 . S
C179 O199 1.259 . S
C179 O202 1.258 . S
Co180 N189 2.057 . S
Co180 O196 2.117 1_455 S
Co180 O197 2.020 1_455 S
Co180 O199 2.021 . S
Co180 O204 2.062 . S
C181 N183 1.316 . S
C181 N184 1.347 . S
C181 H186 0.931 1_455 S
C182 N183 1.375 . S
C182 C185 1.350 . S
C182 H187 0.930 . S
N183 Co178 2.057 . S
N183 C181 1.316 . S
N183 C182 1.375 . S
N184 C181 1.347 . S
N184 C185 1.373 . S
C185 C182 1.350 . S
C185 N184 1.373 . S
C185 H206 0.931 . S
H186 C181 0.931 1_655 S
H187 C182 0.930 . S
C188 O195 1.259 . S
C188 O196 1.258 . S
N189 Co180 2.057 . S
N189 C190 1.316 . S
N189 C191 1.375 1_455 S
C190 N189 1.316 . S
C190 N192 1.347 . S
C190 H201 0.931 . S
C191 N189 1.375 1_655 S
C191 C193 1.350 1_655 S
C191 H200 0.930 . S
N192 C190 1.347 . S
N192 C193 1.373 . S
C193 C191 1.350 1_455 S
C193 N192 1.373 . S
C193 H207 0.931 1_455 S
C194 O197 1.256 . S
C194 O198 1.255 . S
O195 Co178 2.021 1_655 S
O195 C188 1.259 . S
O196 Co180 2.117 1_655 S
O196 C188 1.258 . S
O197 Co180 2.020 1_655 S
O197 C194 1.256 . S
O198 Co178 2.062 1_655 S
O198 C194 1.255 . S
O199 C179 1.259 . S
O199 Co180 2.021 . S
H200 C191 0.930 . S
H201 C190 0.931 . S
O202 Co178 2.117 . S
O202 C179 1.258 . S
O203 Co178 2.020 . S
O203 C205 1.256 . S
O204 Co180 2.062 . S
O204 C205 1.255 . S
C205 O203 1.256 . S
C205 O204 1.255 . S
H206 C185 0.931 . S
H207 C193 0.931 1_655 S
C208 C209 1.387 1_545 S
C208 H212 0.950 . S
C208 C217 1.390 . S
C209 C208 1.387 1_565 S
C209 C211 1.387 . S
H210 C217 0.950 . S
C211 C209 1.387 . S
C211 C213 1.390 . S
C211 H215 0.950 . S
H212 C208 0.950 . S
C213 C211 1.390 . S
C213 C214 1.387 . S
C213 H216 0.950 . S
C214 C213 1.387 . S
C214 C217 1.387 1_565 S
H215 C211 0.950 . S
H216 C213 0.950 . S
C217 C208 1.390 . S
C217 H210 0.950 . S
C217 C214 1.387 1_545 S
C218 C219 1.387 . S
C218 H222 0.950 . S
C218 C227 1.390 . S
C219 C218 1.387 . S
C219 C221 1.387 . S
H220 C227 0.950 . S
C221 C219 1.387 . S
C221 C223 1.390 . S
C221 H225 0.950 . S
H222 C218 0.950 . S
C223 C221 1.390 . S
C223 C224 1.387 . S
C223 H226 0.950 . S
C224 C223 1.387 . S
C224 C227 1.387 . S
H225 C221 0.950 . S
H226 C223 0.950 . S
C227 C218 1.390 . S
C227 H220 0.950 . S
C227 C224 1.387 . S
C228 C229 1.387 . S
C228 H232 0.950 . S
C228 C237 1.390 . S
C229 C228 1.387 . S
C229 C231 1.387 . S
H230 C237 0.950 . S
C231 C229 1.387 . S
C231 C233 1.390 . S
C231 H235 0.950 . S
H232 C228 0.950 . S
C233 C231 1.390 . S
C233 C234 1.387 . S
C233 H236 0.950 . S
C234 C233 1.387 . S
C234 C237 1.387 . S
H235 C231 0.950 . S
H236 C233 0.950 . S
C237 C228 1.390 . S
C237 H230 0.950 . S
C237 C234 1.387 . S
C238 C239 1.387 . S
C238 H242 0.950 . S
C238 C247 1.390 . S
C239 C238 1.387 . S
C239 C241 1.387 . S
H240 C247 0.950 . S
C241 C239 1.387 . S
C241 C243 1.390 . S
C241 H245 0.950 . S
H242 C238 0.950 . S
C243 C241 1.390 . S
C243 C244 1.387 . S
C243 H246 0.959 . S
C244 C243 1.387 . S
C244 C247 1.387 . S
H245 C241 0.950 . S
H246 C243 0.959 . S
C247 C238 1.390 . S
C247 H240 0.950 . S
C247 C244 1.387 . S
C248 C249 1.387 . S
C248 H252 0.950 . S
C248 C257 1.390 . S
C249 C248 1.387 . S
C249 C251 1.387 1_545 S
H250 C257 0.950 . S
C251 C249 1.387 1_565 S
C251 C253 1.390 . S
C251 H255 0.950 . S
H252 C248 0.950 . S
C253 C251 1.390 . S
C253 C254 1.387 1_565 S
C253 H256 0.950 . S
C254 C253 1.387 1_545 S
C254 C257 1.387 . S
H255 C251 0.950 . S
H256 C253 0.950 . S
C257 C248 1.390 . S
C257 H250 0.950 . S
C257 C254 1.387 . S
C258 C259 1.387 1_556 S
C258 H262 0.950 . S
C258 C267 1.390 . S
C259 C258 1.387 1_554 S
C259 C261 1.387 . S
H260 C267 0.950 . S
C261 C259 1.387 . S
C261 C263 1.390 1_554 S
C261 H265 0.950 . S
H262 C258 0.950 . S
C263 C261 1.390 1_556 S
C263 C264 1.387 . S
C263 H266 0.950 . S
C264 C263 1.387 . S
C264 C267 1.387 . S
H265 C261 0.950 . S
H266 C263 0.950 . S
C267 C258 1.390 . S
C267 H260 0.950 . S
C267 C264 1.387 . S
C268 C269 1.387 . S
C268 H272 0.950 . S
C268 C277 1.390 1_554 S
C269 C268 1.387 . S
C269 C271 1.387 . S
H270 C277 0.950 . S
C271 C269 1.387 . S
C271 C273 1.390 . S
C271 H275 0.950 . S
H272 C268 0.950 . S
C273 C271 1.390 . S
C273 C274 1.387 1_554 S
C273 H276 0.950 . S
C274 C273 1.387 1_556 S
C274 C277 1.387 . S
H275 C271 0.950 . S
H276 C273 0.950 . S
C277 C268 1.390 1_556 S
C277 H270 0.950 . S
C277 C274 1.387 . S
C278 C279 1.387 1_556 S
C278 H282 0.950 . S
C278 C287 1.390 . S
C279 C278 1.387 1_554 S
C279 C281 1.387 . S
H280 C287 0.950 . S
C281 C279 1.387 . S
C281 C283 1.390 1_654 S
C281 H285 0.950 . S
H282 C278 0.950 . S
C283 C281 1.390 1_456 S
C283 C284 1.387 1_455 S
C283 H286 0.950 1_556 S
C284 C283 1.387 1_655 S
C284 C287 1.387 . S
H285 C281 0.950 . S
H286 C283 0.950 1_554 S
C287 C278 1.390 . S
C287 H280 0.950 . S
C287 C284 1.387 . S
C288 C289 1.387 . S
C288 H292 0.950 . S
C288 C297 1.390 . S
C289 C288 1.387 . S
C289 C291 1.387 . S
H290 C297 0.950 . S
C291 C289 1.387 . S
C291 C293 1.390 . S
C291 H295 0.950 . S
H292 C288 0.950 . S
C293 C291 1.390 . S
C293 C294 1.387 . S
C293 H296 0.950 . S
C294 C293 1.387 . S
C294 C297 1.387 . S
H295 C291 0.950 . S
H296 C293 0.950 . S
C297 C288 1.390 . S
C297 H290 0.950 . S
C297 C294 1.387 . S
C298 C299 1.384 1_545 S
C298 H302 0.950 . S
C298 C307 1.390 . S
C299 C298 1.384 1_565 S
C299 C301 1.393 . S
H300 C307 0.950 . S
C301 C299 1.393 . S
C301 C303 1.390 . S
C301 H305 0.950 . S
H302 C298 0.950 . S
C303 C301 1.390 . S
C303 C304 1.387 . S
C303 H306 0.950 . S
C304 C303 1.387 . S
C304 C307 1.387 1_565 S
H305 C301 0.950 . S
H306 C303 0.950 . S
C307 C298 1.390 . S
C307 H300 0.950 . S
C307 C304 1.387 1_545 S
C308 C309 1.387 . S
C308 H312 0.950 . S
C308 C317 1.390 . S
C309 C308 1.387 . S
C309 C311 1.387 . S
H310 C317 0.950 . S
C311 C309 1.387 . S
C311 C313 1.390 . S
C311 H315 0.950 . S
H312 C308 0.950 . S
C313 C311 1.390 . S
C313 C314 1.387 . S
C313 H316 0.950 . S
C314 C313 1.387 . S
C314 C317 1.387 . S
H315 C311 0.950 . S
H316 C313 0.950 . S
C317 C308 1.390 . S
C317 H310 0.950 . S
C317 C314 1.387 . S
C318 C319 1.387 . S
C318 H322 0.950 . S
C318 C327 1.390 . S
C319 C318 1.387 . S
C319 C321 1.387 . S
H320 C327 0.950 . S
C321 C319 1.387 . S
C321 C323 1.390 . S
C321 H325 0.950 . S
H322 C318 0.950 . S
C323 C321 1.390 . S
C323 C324 1.387 . S
C323 H326 0.950 . S
C324 C323 1.387 . S
C324 C327 1.387 . S
H325 C321 0.950 . S
H326 C323 0.950 . S
C327 C318 1.390 . S
C327 H320 0.950 . S
C327 C324 1.387 . S
C328 C329 1.387 . S
C328 H332 0.950 . S
C328 C337 1.390 1_655 S
C329 C328 1.387 . S
C329 C331 1.387 1_556 S
H330 C337 0.950 . S
C331 C329 1.387 1_554 S
C331 C333 1.390 . S
C331 H335 0.950 . S
H332 C328 0.950 . S
C333 C331 1.390 . S
C333 C334 1.387 1_654 S
C333 H336 0.950 . S
C334 C333 1.387 1_456 S
C334 C337 1.387 . S
H335 C331 0.950 . S
H336 C333 0.950 . S
C337 C328 1.390 1_455 S
C337 H330 0.950 . S
C337 C334 1.387 . S
C338 C339 1.402 1_554 S
C338 H342 0.950 . S
C338 C347 1.390 1_554 S
C339 C338 1.402 1_556 S
C339 C341 1.375 1_545 S
H340 C347 0.950 1_554 S
C341 C339 1.375 1_565 S
C341 C343 1.390 . S
C341 H345 0.950 . S
H342 C338 0.950 . S
C343 C341 1.390 . S
C343 C344 1.387 1_565 S
C343 H346 0.950 . S
C344 C343 1.387 1_545 S
C344 C347 1.387 . S
H345 C341 0.950 . S
H346 C343 0.950 . S
C347 C338 1.390 1_556 S
C347 H340 0.950 1_556 S
C347 C344 1.387 . S
C348 C349 1.387 . S
C348 H352 0.950 . S
C348 C357 1.390 . S
C349 C348 1.387 . S
C349 C351 1.387 1_554 S
H350 C357 0.950 . S
C351 C349 1.387 1_556 S
C351 C353 1.390 . S
C351 H355 0.950 . S
H352 C348 0.950 . S
C353 C351 1.390 . S
C353 C354 1.387 . S
C353 H356 0.950 . S
C354 C353 1.387 . S
C354 C357 1.387 1_556 S
H355 C351 0.950 . S
H356 C353 0.950 . S
C357 C348 1.390 . S
C357 H350 0.950 . S
C357 C354 1.387 1_554 S
C358 C359 1.387 . S
C358 H362 0.950 . S
C358 C367 1.390 . S
C359 C358 1.387 . S
C359 C361 1.387 . S
H360 C367 0.950 1_556 S
C361 C359 1.387 . S
C361 C363 1.390 . S
C361 H365 0.950 . S
H362 C358 0.950 . S
C363 C361 1.390 . S
C363 C364 1.387 1_554 S
C363 H366 0.950 1_554 S
C364 C363 1.387 1_556 S
C364 C367 1.387 1_556 S
H365 C361 0.950 . S
H366 C363 0.950 1_556 S
C367 C358 1.390 . S
C367 H360 0.950 1_554 S
C367 C364 1.387 1_554 S
C368 C369 1.387 . S
C368 H372 0.950 . S
C368 C377 1.390 . S
C369 C368 1.387 . S
C369 C371 1.387 . S
H370 C377 0.950 . S
C371 C369 1.387 . S
C371 C373 1.390 . S
C371 H375 0.950 . S
H372 C368 0.950 . S
C373 C371 1.390 . S
C373 C374 1.387 . S
C373 H376 0.950 . S
C374 C373 1.387 . S
C374 C377 1.387 . S
H375 C371 0.950 . S
H376 C373 0.950 . S
C377 C368 1.390 . S
C377 H370 0.950 . S
C377 C374 1.387 . S
C378 C379 1.387 1_565 S
C378 H382 0.950 . S
C378 C387 1.390 . S
C379 C378 1.387 1_545 S
C379 C381 1.387 . S
H380 C387 0.950 . S
C381 C379 1.387 . S
C381 C383 1.390 . S
C381 H385 0.950 . S
H382 C378 0.950 . S
C383 C381 1.390 . S
C383 C384 1.387 . S
C383 H386 0.950 . S
C384 C383 1.387 . S
C384 C387 1.387 1_545 S
H385 C381 0.950 . S
H386 C383 0.950 . S
C387 C378 1.390 . S
C387 H380 0.950 . S
C387 C384 1.387 1_565 S
C388 C389 1.387 . S
C388 H392 0.950 . S
C388 C397 1.390 . S
C389 C388 1.387 . S
C389 C391 1.387 . S
H390 C397 0.950 . S
C391 C389 1.387 . S
C391 C393 1.390 . S
C391 H395 0.950 . S
H392 C388 0.950 . S
C393 C391 1.390 . S
C393 C394 1.387 . S
C393 H396 0.950 . S
C394 C393 1.387 . S
C394 C397 1.387 . S
H395 C391 0.950 . S
H396 C393 0.950 . S
C397 C388 1.390 . S
C397 H390 0.950 . S
C397 C394 1.387 . S
C398 C399 1.387 . S
C398 H402 0.950 . S
C398 C407 1.390 . S
C399 C398 1.387 . S
C399 C401 1.387 . S
H400 C407 0.950 . S
C401 C399 1.387 . S
C401 C403 1.390 . S
C401 H405 0.950 . S
H402 C398 0.950 . S
C403 C401 1.390 . S
C403 C404 1.387 . S
C403 H406 0.950 . S
C404 C403 1.387 . S
C404 C407 1.387 . S
H405 C401 0.950 . S
H406 C403 0.950 . S
C407 C398 1.390 . S
C407 H400 0.950 . S
C407 C404 1.387 . S
C408 C409 1.387 . S
C408 H412 0.950 . S
C408 C417 1.390 . S
C409 C408 1.387 . S
C409 C411 1.387 . S
H410 C417 0.950 . S
C411 C409 1.387 . S
C411 C413 1.390 1_655 S
C411 H415 0.950 1_655 S
H412 C408 0.950 . S
C413 C411 1.390 1_455 S
C413 C414 1.387 1_455 S
C413 H416 0.950 . S
C414 C413 1.387 1_655 S
C414 C417 1.387 . S
H415 C411 0.950 1_455 S
H416 C413 0.950 . S
C417 C408 1.390 . S
C417 H410 0.950 . S
C417 C414 1.387 . S
C418 C419 1.387 1_545 S
C418 H422 0.950 . S
C418 C427 1.390 . S
C419 C418 1.387 1_565 S
C419 C421 1.387 . S
H420 C427 0.950 . S
C421 C419 1.387 . S
C421 C423 1.390 . S
C421 H425 0.950 . S
H422 C418 0.950 . S
C423 C421 1.390 . S
C423 C424 1.387 . S
C423 H426 0.950 . S
C424 C423 1.387 . S
C424 C427 1.387 1_565 S
H425 C421 0.950 . S
H426 C423 0.950 . S
C427 C418 1.390 . S
C427 H420 0.950 . S
C427 C424 1.387 1_545 S
C428 C429 1.387 . S
C428 H432 0.950 . S
C428 C437 1.390 . S
C429 C428 1.387 . S
C429 C431 1.387 . S
H430 C437 0.950 . S
C431 C429 1.387 . S
C431 C433 1.390 . S
C431 H435 0.950 . S
H432 C428 0.950 . S
C433 C431 1.390 . S
C433 C434 1.387 . S
C433 H436 0.950 . S
C434 C433 1.387 . S
C434 C437 1.387 . S
H435 C431 0.950 . S
H436 C433 0.950 . S
C437 C428 1.390 . S
C437 H430 0.950 . S
C437 C434 1.387 . S
C438 C439 1.387 . S
C438 H442 0.950 . S
C438 C447 1.390 . S
C439 C438 1.387 . S
C439 C441 1.387 . S
H440 C447 0.950 . S
C441 C439 1.387 . S
C441 C443 1.390 . S
C441 H445 0.950 . S
H442 C438 0.950 . S
C443 C441 1.390 . S
C443 C444 1.387 . S
C443 H446 0.950 . S
C444 C443 1.387 . S
C444 C447 1.387 . S
H445 C441 0.950 . S
H446 C443 0.950 . S
C447 C438 1.390 . S
C447 H440 0.950 . S
C447 C444 1.387 . S
C209 C76 1.709 . S
C214 C98 1.717 . S
C224 C128 1.800 . S
C219 C87 1.776 . S
C234 N162 1.376 . S
C229 C54 1.395 . S
C244 N192 1.480 . S
C239 C65 1.463 . S
C254 C89 1.717 . S
C249 C32 1.713 1_545 S
C259 C43 1.784 . S
C264 C119 1.803 . S
C269 C10 1.398 . S
C274 N154 1.375 . S
C279 C21 1.479 . S
C284 N184 1.482 1_655 S
C294 C104 0.739 . S
C289 C60 0.741 . S
C304 C134 1.107 . S
C299 C71 1.038 1_565 S
C314 C175 1.363 . S
C309 C82 1.325 . S
C319 C49 0.852 . S
C324 C205 0.849 . S
C329 C16 0.737 1_556 S
C334 C115 0.734 . S
C344 C145 1.106 . S
C339 C27 1.032 . S
C354 C164 1.364 . S
C349 C38 1.321 . S
C359 C5 0.851 . S
C364 C194 0.851 . S
C369 C59 1.468 . S
C374 N94 1.488 . S
C379 C70 1.425 . S
C384 N124 1.441 . S
C394 C149 1.667 1_554 S
C389 C81 1.635 . S
C404 C179 1.595 1_554 S
C399 C48 1.560 . S
C409 C15 1.456 . S
C414 N102 1.493 . S
C424 N132 1.441 . S
C419 C26 1.434 1_565 S
C434 C158 1.668 . S
C429 C37 1.632 . S
C439 C4 1.560 . S
C444 C188 1.595 . S
