# Generated by pormake.
# Topology ctn, (3,4)-cn, num edge types: 1
# Building blocks:
#     Node 0, Type 0, BuildingBlock: BETDIP_clean_linker_0, # of connection points: 3
#     Node 1, Type 0, BuildingBlock: BETDIP_clean_linker_0, # of connection points: 3
#     Node 2, Type 0, BuildingBlock: BETDIP_clean_linker_0, # of connection points: 3
#     Node 3, Type 0, BuildingBlock: BETDIP_clean_linker_0, # of connection points: 3
#     Node 4, Type 0, BuildingBlock: BETDIP_clean_linker_0, # of connection points: 3
#     Node 5, Type 0, BuildingBlock: BETDIP_clean_linker_0, # of connection points: 3
#     Node 6, Type 0, BuildingBlock: BETDIP_clean_linker_0, # of connection points: 3
#     Node 7, Type 0, BuildingBlock: BETDIP_clean_linker_0, # of connection points: 3
#     Node 8, Type 0, BuildingBlock: BETDIP_clean_linker_0, # of connection points: 3
#     Node 9, Type 0, BuildingBlock: BETDIP_clean_linker_0, # of connection points: 3
#     Node 10, Type 0, BuildingBlock: BETDIP_clean_linker_0, # of connection points: 3
#     Node 11, Type 0, BuildingBlock: BETDIP_clean_linker_0, # of connection points: 3
#     Node 12, Type 0, BuildingBlock: BETDIP_clean_linker_0, # of connection points: 3
#     Node 13, Type 0, BuildingBlock: BETDIP_clean_linker_0, # of connection points: 3
#     Node 14, Type 0, BuildingBlock: BETDIP_clean_linker_0, # of connection points: 3
#     Node 15, Type 0, BuildingBlock: BETDIP_clean_linker_0, # of connection points: 3
#     Node 16, Type 1, BuildingBlock: NAHDIM_clean_sbu_0, # of connection points: 4
#     Node 17, Type 1, BuildingBlock: NAHDIM_clean_sbu_0, # of connection points: 4
#     Node 18, Type 1, BuildingBlock: NAHDIM_clean_sbu_0, # of connection points: 4
#     Node 19, Type 1, BuildingBlock: NAHDIM_clean_sbu_0, # of connection points: 4
#     Node 20, Type 1, BuildingBlock: NAHDIM_clean_sbu_0, # of connection points: 4
#     Node 21, Type 1, BuildingBlock: NAHDIM_clean_sbu_0, # of connection points: 4
#     Node 22, Type 1, BuildingBlock: NAHDIM_clean_sbu_0, # of connection points: 4
#     Node 23, Type 1, BuildingBlock: NAHDIM_clean_sbu_0, # of connection points: 4
#     Node 24, Type 1, BuildingBlock: NAHDIM_clean_sbu_0, # of connection points: 4
#     Node 25, Type 1, BuildingBlock: NAHDIM_clean_sbu_0, # of connection points: 4
#     Node 26, Type 1, BuildingBlock: NAHDIM_clean_sbu_0, # of connection points: 4
#     Node 27, Type 1, BuildingBlock: NAHDIM_clean_sbu_0, # of connection points: 4
#     Edge 28, Type (0, 1), BuildingBlock: UVAHIK_clean_linker_0, # of connection points: 2
#     Edge 29, Type (0, 1), BuildingBlock: UVAHIK_clean_linker_0, # of connection points: 2
#     Edge 30, Type (0, 1), BuildingBlock: UVAHIK_clean_linker_0, # of connection points: 2
#     Edge 31, Type (0, 1), BuildingBlock: UVAHIK_clean_linker_0, # of connection points: 2
#     Edge 32, Type (0, 1), BuildingBlock: UVAHIK_clean_linker_0, # of connection points: 2
#     Edge 33, Type (0, 1), BuildingBlock: UVAHIK_clean_linker_0, # of connection points: 2
#     Edge 34, Type (0, 1), BuildingBlock: UVAHIK_clean_linker_0, # of connection points: 2
#     Edge 35, Type (0, 1), BuildingBlock: UVAHIK_clean_linker_0, # of connection points: 2
#     Edge 36, Type (0, 1), BuildingBlock: UVAHIK_clean_linker_0, # of connection points: 2
#     Edge 37, Type (0, 1), BuildingBlock: UVAHIK_clean_linker_0, # of connection points: 2
#     Edge 38, Type (0, 1), BuildingBlock: UVAHIK_clean_linker_0, # of connection points: 2
#     Edge 39, Type (0, 1), BuildingBlock: UVAHIK_clean_linker_0, # of connection points: 2
#     Edge 40, Type (0, 1), BuildingBlock: UVAHIK_clean_linker_0, # of connection points: 2
#     Edge 41, Type (0, 1), BuildingBlock: UVAHIK_clean_linker_0, # of connection points: 2
#     Edge 42, Type (0, 1), BuildingBlock: UVAHIK_clean_linker_0, # of connection points: 2
#     Edge 43, Type (0, 1), BuildingBlock: UVAHIK_clean_linker_0, # of connection points: 2
#     Edge 44, Type (0, 1), BuildingBlock: UVAHIK_clean_linker_0, # of connection points: 2
#     Edge 45, Type (0, 1), BuildingBlock: UVAHIK_clean_linker_0, # of connection points: 2
#     Edge 46, Type (0, 1), BuildingBlock: UVAHIK_clean_linker_0, # of connection points: 2
#     Edge 47, Type (0, 1), BuildingBlock: UVAHIK_clean_linker_0, # of connection points: 2
#     Edge 48, Type (0, 1), BuildingBlock: UVAHIK_clean_linker_0, # of connection points: 2
#     Edge 49, Type (0, 1), BuildingBlock: UVAHIK_clean_linker_0, # of connection points: 2
#     Edge 50, Type (0, 1), BuildingBlock: UVAHIK_clean_linker_0, # of connection points: 2
#     Edge 51, Type (0, 1), BuildingBlock: UVAHIK_clean_linker_0, # of connection points: 2
#     Edge 52, Type (0, 1), BuildingBlock: UVAHIK_clean_linker_0, # of connection points: 2
#     Edge 53, Type (0, 1), BuildingBlock: UVAHIK_clean_linker_0, # of connection points: 2
#     Edge 54, Type (0, 1), BuildingBlock: UVAHIK_clean_linker_0, # of connection points: 2
#     Edge 55, Type (0, 1), BuildingBlock: UVAHIK_clean_linker_0, # of connection points: 2
#     Edge 56, Type (0, 1), BuildingBlock: UVAHIK_clean_linker_0, # of connection points: 2
#     Edge 57, Type (0, 1), BuildingBlock: UVAHIK_clean_linker_0, # of connection points: 2
#     Edge 58, Type (0, 1), BuildingBlock: UVAHIK_clean_linker_0, # of connection points: 2
#     Edge 59, Type (0, 1), BuildingBlock: UVAHIK_clean_linker_0, # of connection points: 2
#     Edge 60, Type (0, 1), BuildingBlock: UVAHIK_clean_linker_0, # of connection points: 2
#     Edge 61, Type (0, 1), BuildingBlock: UVAHIK_clean_linker_0, # of connection points: 2
#     Edge 62, Type (0, 1), BuildingBlock: UVAHIK_clean_linker_0, # of connection points: 2
#     Edge 63, Type (0, 1), BuildingBlock: UVAHIK_clean_linker_0, # of connection points: 2
#     Edge 64, Type (0, 1), BuildingBlock: UVAHIK_clean_linker_0, # of connection points: 2
#     Edge 65, Type (0, 1), BuildingBlock: UVAHIK_clean_linker_0, # of connection points: 2
#     Edge 66, Type (0, 1), BuildingBlock: UVAHIK_clean_linker_0, # of connection points: 2
#     Edge 67, Type (0, 1), BuildingBlock: UVAHIK_clean_linker_0, # of connection points: 2
#     Edge 68, Type (0, 1), BuildingBlock: UVAHIK_clean_linker_0, # of connection points: 2
#     Edge 69, Type (0, 1), BuildingBlock: UVAHIK_clean_linker_0, # of connection points: 2
#     Edge 70, Type (0, 1), BuildingBlock: UVAHIK_clean_linker_0, # of connection points: 2
#     Edge 71, Type (0, 1), BuildingBlock: UVAHIK_clean_linker_0, # of connection points: 2
#     Edge 72, Type (0, 1), BuildingBlock: UVAHIK_clean_linker_0, # of connection points: 2
#     Edge 73, Type (0, 1), BuildingBlock: UVAHIK_clean_linker_0, # of connection points: 2
#     Edge 74, Type (0, 1), BuildingBlock: UVAHIK_clean_linker_0, # of connection points: 2
#     Edge 75, Type (0, 1), BuildingBlock: UVAHIK_clean_linker_0, # of connection points: 2
# Relax obj value: 0.068
# Max RMSD: 0.191
# Mean RMSD: 0.118
data_MOF--net-ctn--node1-NAHDIM_clean_sbu_0--node2-BETDIP_clean_linker_0--edge1-UVAHIK_clean_linker_0
_symmetry_space_group_name_H-M    P1
_symmetry_Int_Tables_number       1
_symmetry_cell_setting            triclinic
loop_
_symmetry_equiv_pos_as_xyz
'x, y, z'
_cell_length_a     68.138804
_cell_length_b     68.863798
_cell_length_c     74.678209
_cell_angle_alpha  94.706196
_cell_angle_beta   93.741856
_cell_angle_gamma 95.101842
loop_
_atom_site_label
_atom_site_type_symbol
_atom_site_fract_x
_atom_site_fract_y
_atom_site_fract_z
_atom_type_partial_charge
H0 H 0.03072 0.07472 0.05722 0.0
H1 H 0.07363 0.05309 0.02306 0.0
H2 H 0.06495 0.02836 0.07307 0.0
H3 H 0.07618 0.08405 0.01548 0.0
C4 C 0.06101 0.08776 0.01491 0.0
C5 C 0.04204 0.06492 0.05482 0.0
C6 C 0.04634 0.05123 0.06717 0.0
C7 C 0.05232 0.06621 0.03926 0.0
C8 C 0.06642 0.05303 0.03554 0.0
C9 C 0.07085 0.03919 0.04759 0.0
C10 C 0.06094 0.03854 0.06345 0.0
N11 N 0.04788 0.08064 0.02743 0.0
H12 H 0.24974 0.69351 0.19738 0.0
H13 H 0.30337 0.72915 0.21531 0.0
H14 H 0.28608 0.67871 0.24279 0.0
H15 H 0.28678 0.75285 0.20395 0.0
C16 C 0.27948 0.74529 0.19163 0.0
C17 C 0.26265 0.69658 0.2068 0.0
C18 C 0.26634 0.68393 0.22023 0.0
C19 C 0.27557 0.71322 0.20529 0.0
C20 C 0.29271 0.71695 0.217 0.0
C21 C 0.29665 0.70456 0.23055 0.0
C22 C 0.28337 0.68808 0.2321 0.0
N23 N 0.27136 0.72553 0.19144 0.0
H24 H 0.96645 0.49369 0.99734 0.0
H25 H 0.0022 0.46453 0.03402 0.0
H26 H 0.97441 0.51491 0.05352 0.0
H27 H 0.01946 0.46022 0.00833 0.0
C28 C 0.00692 0.45524 -0.00119 0.0
C29 C 0.97292 0.49279 0.01086 0.0
C30 C 0.96873 0.50612 0.02509 0.0
C31 C 0.98548 0.47822 0.01388 0.0
C32 C 0.99335 0.47644 0.03145 0.0
C33 C 0.98932 0.48951 0.04588 0.0
C34 C 0.97708 0.5044 0.04255 0.0
N35 N 0.98948 0.46511 -0.00083 0.0
H36 H 0.711 0.79908 0.18097 0.0
H37 H 0.73417 0.84344 0.22268 0.0
H38 H 0.76528 0.83424 0.17507 0.0
H39 H 0.7164 0.82562 0.24017 0.0
C40 C 0.70372 0.81837 0.23194 0.0
C41 C 0.72238 0.81054 0.18611 0.0
C42 C 0.73839 0.8154 0.17585 0.0
C43 C 0.72091 0.82023 0.20313 0.0
C44 C 0.73531 0.8355 0.20975 0.0
C45 C 0.75138 0.84063 0.19967 0.0
C46 C 0.75281 0.83044 0.1828 0.0
N47 N 0.7047 0.81422 0.21308 0.0
H48 H 0.03978 0.97906 0.45452 0.0
H49 H 0.09098 0.00014 0.48975 0.0
H50 H 0.07477 0.03196 0.44496 0.0
H51 H 0.08974 0.97002 0.49754 0.0
C52 C 0.0745 0.96373 0.49555 0.0
C53 C 0.05234 0.98979 0.4581 0.0
C54 C 0.05559 0.00588 0.44788 0.0
C55 C 0.06516 0.98731 0.47297 0.0
C56 C 0.08126 0.00136 0.47795 0.0
C57 C 0.08467 0.01756 0.46795 0.0
C58 C 0.07178 0.01975 0.45297 0.0
N59 N 0.06113 0.97069 0.48271 0.0
H60 H 0.20593 0.73314 0.81364 0.0
H61 H 0.2357 0.69224 0.78129 0.0
H62 H 0.2586 0.711 0.83559 0.0
H63 H 0.22082 0.70662 0.75825 0.0
C64 C 0.20663 0.70976 0.76304 0.0
C65 C 0.21806 0.72408 0.81217 0.0
C66 C 0.23208 0.72335 0.82664 0.0
C67 C 0.21947 0.71329 0.79571 0.0
C68 C 0.23492 0.70124 0.79375 0.0
C69 C 0.24903 0.70019 0.80816 0.0
C70 C 0.24749 0.71131 0.82457 0.0
N71 N 0.20473 0.71456 0.78166 0.0
H72 H 0.00109 0.55869 0.46772 0.0
H73 H 0.96569 0.50365 0.45608 0.0
H74 H 0.95599 0.5415 0.50254 0.0
H75 H 0.97431 0.50613 0.42825 0.0
C76 C 0.98878 0.51426 0.42919 0.0
C77 C 0.98932 0.54829 0.4711 0.0
C78 C 0.97934 0.55208 0.4867 0.0
C79 C 0.98426 0.53112 0.45974 0.0
C80 C 0.96928 0.51734 0.46428 0.0
C81 C 0.95914 0.52093 0.47981 0.0
C82 C 0.96423 0.53835 0.49088 0.0
N83 N 0.99483 0.52812 0.44412 0.0
H84 H 0.79076 0.8015 0.75581 0.0
H85 H 0.81518 0.75873 0.78727 0.0
H86 H 0.76569 0.78764 0.80515 0.0
H87 H 0.84329 0.77008 0.77471 0.0
C88 C 0.83811 0.77205 0.76097 0.0
C89 C 0.79043 0.79313 0.76748 0.0
C90 C 0.77642 0.79615 0.78014 0.0
C91 C 0.80475 0.78011 0.77017 0.0
C92 C 0.80463 0.76937 0.78539 0.0
C93 C 0.79045 0.7719 0.79801 0.0
C94 C 0.77647 0.78538 0.79531 0.0
N95 N 0.81903 0.7782 0.75728 0.0
H96 H 0.28909 0.30195 0.25809 0.0
H97 H 0.31557 0.26244 0.29196 0.0
H98 H 0.2678 0.29382 0.31021 0.0
H99 H 0.34231 0.27144 0.27701 0.0
C100 C 0.3365 0.27267 0.2633 0.0
C101 C 0.28958 0.29486 0.27053 0.0
C102 C 0.27674 0.29956 0.28385 0.0
C103 C 0.30387 0.28187 0.27348 0.0
C104 C 0.30482 0.27279 0.28967 0.0
C105 C 0.29193 0.27715 0.30307 0.0
C106 C 0.27798 0.29058 0.30004 0.0
N107 N 0.31724 0.27856 0.25998 0.0
H108 H 0.46935 0.99221 0.49691 0.0
H109 H 0.50751 0.96532 0.53341 0.0
H110 H 0.47338 0.01071 0.55369 0.0
H111 H 0.52482 0.96177 0.50788 0.0
C112 C 0.51247 0.95647 0.49826 0.0
C113 C 0.47543 0.99111 0.51053 0.0
C114 C 0.46953 0.00312 0.52497 0.0
C115 C 0.48948 0.97788 0.5134 0.0
C116 C 0.49742 0.97626 0.53098 0.0
C117 C 0.49178 0.98811 0.54561 0.0
C118 C 0.47785 0.00156 0.54247 0.0
N119 N 0.49463 0.96568 0.4985 0.0
H120 H 0.21558 0.29907 0.68289 0.0
H121 H 0.22679 0.35177 0.71859 0.0
H122 H 0.25913 0.3447 0.67147 0.0
H123 H 0.21377 0.33328 0.73866 0.0
C124 C 0.20292 0.32259 0.73125 0.0
C125 C 0.22361 0.31333 0.68638 0.0
C126 C 0.23772 0.32063 0.67512 0.0
C127 C 0.21976 0.32421 0.70222 0.0
C128 C 0.22995 0.34285 0.70671 0.0
C129 C 0.24403 0.35038 0.69554 0.0
C130 C 0.24779 0.3392 0.67979 0.0
N131 N 0.20529 0.31606 0.71304 0.0
H132 H 0.74809 0.19334 0.70041 0.0
H133 H 0.80282 0.22865 0.71462 0.0
H134 H 0.78805 0.17829 0.74311 0.0
H135 H 0.7863 0.25229 0.70382 0.0
C136 C 0.77702 0.24488 0.69249 0.0
C137 C 0.76171 0.19634 0.70892 0.0
C138 C 0.76656 0.18362 0.72197 0.0
C139 C 0.77436 0.21291 0.70657 0.0
C140 C 0.79241 0.21652 0.71703 0.0
C141 C 0.79751 0.20409 0.73024 0.0
C142 C 0.78446 0.18769 0.73266 0.0
N143 N 0.76879 0.22528 0.69317 0.0
H144 H 0.53132 0.577 0.55918 0.0
H145 H 0.57404 0.55478 0.52509 0.0
H146 H 0.56496 0.53044 0.57533 0.0
H147 H 0.57646 0.58543 0.51693 0.0
C148 C 0.5613 0.58919 0.51641 0.0
C149 C 0.54251 0.56705 0.55672 0.0
C150 C 0.54668 0.55339 0.5691 0.0
C151 C 0.55273 0.56808 0.54113 0.0
C152 C 0.56682 0.55484 0.53757 0.0
C153 C 0.57134 0.5412 0.54982 0.0
C154 C 0.56119 0.54057 0.56557 0.0
N155 N 0.54829 0.58234 0.52914 0.0
H156 H 0.55108 0.46312 0.9431 0.0
H157 H 0.60067 0.48458 0.98013 0.0
H158 H 0.58209 0.51961 0.93849 0.0
H159 H 0.59988 0.45423 0.98744 0.0
C160 C 0.58476 0.44773 0.98485 0.0
C161 C 0.56273 0.47452 0.94773 0.0
C162 C 0.56493 0.49174 0.93888 0.0
C163 C 0.57557 0.47163 0.96246 0.0
C164 C 0.59091 0.4862 0.96846 0.0
C165 C 0.59336 0.50346 0.95976 0.0
C166 C 0.58028 0.50618 0.94507 0.0
N167 N 0.57198 0.45429 0.97128 0.0
H168 H 0.71025 0.23584 0.31386 0.0
H169 H 0.7388 0.1974 0.27791 0.0
H170 H 0.76487 0.21416 0.33158 0.0
H171 H 0.72158 0.21134 0.25664 0.0
C172 C 0.70778 0.21428 0.26236 0.0
C173 C 0.72243 0.22714 0.31125 0.0
C174 C 0.73761 0.22634 0.32471 0.0
C175 C 0.72282 0.21696 0.29433 0.0
C176 C 0.73844 0.20548 0.29091 0.0
C177 C 0.75373 0.20438 0.30428 0.0
C178 C 0.75315 0.21484 0.32118 0.0
N179 N 0.70711 0.21848 0.28123 0.0
H180 H 0.50187 0.05751 0.96868 0.0
H181 H 0.46715 0.00213 0.9568 0.0
H182 H 0.45682 0.03966 0.00329 0.0
H183 H 0.47509 0.00553 0.92879 0.0
C184 C 0.48969 0.01342 0.92982 0.0
C185 C 0.49021 0.04695 0.97201 0.0
C186 C 0.48016 0.05053 0.98759 0.0
C187 C 0.48534 0.02981 0.96057 0.0
C188 C 0.47052 0.01582 0.96505 0.0
C189 C 0.46028 0.01921 0.98055 0.0
C190 C 0.46515 0.03663 0.99167 0.0
N191 N 0.4959 0.02701 0.94492 0.0
C192 C 0.2161 0.90587 0.00585 0.0
O193 O 0.21842 0.89945 0.98913 0.0
O194 O 0.23962 0.86365 0.99174 0.0
Zn195 Zn 0.24768 0.88194 0.0139 0.0
O196 O 0.27311 0.89733 0.0097 0.0
C197 C 0.26613 0.85663 0.03743 0.0
O198 O 0.27921 0.85642 0.02526 0.0
O199 O 0.22698 0.9003 0.01854 0.0
C200 C 0.28487 0.90554 0.02255 0.0
O201 O 0.28021 0.90424 0.03923 0.0
C202 C 0.23423 0.84556 0.99218 0.0
O203 O 0.2331 0.83819 0.0078 0.0
O204 O 0.25149 0.86665 0.03539 0.0
C205 C 0.1473 0.45126 0.26082 0.0
O206 O 0.14829 0.466 0.27328 0.0
O207 O 0.10391 0.47812 0.26593 0.0
Zn208 Zn 0.11995 0.47444 0.24435 0.0
O209 O 0.13862 0.49836 0.24259 0.0
C210 C 0.08432 0.4743 0.22088 0.0
O211 O 0.07681 0.48072 0.23575 0.0
O212 O 0.13578 0.45141 0.24676 0.0
C213 C 0.13196 0.51436 0.239 0.0
O214 O 0.11276 0.51508 0.23676 0.0
C215 C 0.10947 0.49061 0.27918 0.0
O216 O 0.1263 0.50147 0.27899 0.0
O217 O 0.10218 0.47025 0.22151 0.0
C218 C 0.83283 0.64947 0.99174 0.0
O219 O 0.83022 0.65566 0.97565 0.0
O220 O 0.79806 0.67918 0.97435 0.0
Zn221 Zn 0.79653 0.66723 -0.00187 0.0
O222 O 0.77292 0.64707 0.99698 0.0
C223 C 0.78484 0.70292 0.01572 0.0
O224 O 0.77688 0.70492 -0.00045 0.0
O225 O 0.82063 0.65318 0.00344 0.0
C226 C 0.75611 0.65095 0.00198 0.0
O227 O 0.75362 0.66885 0.00829 0.0
C228 C 0.78296 0.67869 0.96332 0.0
O229 O 0.76598 0.67038 0.96754 0.0
O230 O 0.79432 0.68816 0.0182 0.0
C231 C 0.90669 0.07919 0.26773 0.0
O232 O 0.92494 0.0824 0.2749 0.0
O233 O 0.93453 0.03858 0.27814 0.0
Zn234 Zn 0.91772 0.04062 0.25526 0.0
O235 O 0.89854 0.01649 0.24979 0.0
C236 C 0.94973 0.03605 0.23198 0.0
O237 O 0.95488 0.02344 0.24328 0.0
O238 O 0.90103 0.06289 0.2589 0.0
C239 C 0.90116 0.00143 0.23953 0.0
O240 O 0.91769 0.00074 0.2315 0.0
C241 C 0.93838 0.02208 0.28322 0.0
O242 O 0.93155 0.00605 0.27319 0.0
O243 O 0.93457 0.04512 0.23452 0.0
C244 C 0.32162 0.1362 0.49473 0.0
O245 O 0.30715 0.13131 0.48222 0.0
O246 O 0.30058 0.18093 0.47804 0.0
Zn247 Zn 0.2983 0.1677 0.5011 0.0
O248 O 0.2735 0.14916 0.49929 0.0
C249 C 0.29511 0.20527 0.52119 0.0
O250 O 0.29476 0.21203 0.50525 0.0
O251 O 0.32139 0.15193 0.50484 0.0
C252 C 0.25727 0.15448 0.50455 0.0
O253 O 0.2565 0.17262 0.51125 0.0
C254 C 0.28524 0.18435 0.46862 0.0
O255 O 0.26775 0.17935 0.47413 0.0
O256 O 0.29716 0.18726 0.52249 0.0
C257 C 0.39543 0.56566 0.77884 0.0
O258 O 0.39709 0.55162 0.78958 0.0
O259 O 0.43601 0.53523 0.7779 0.0
Zn260 Zn 0.41749 0.54085 0.7572 0.0
O261 O 0.39671 0.51832 0.75137 0.0
C262 C 0.45076 0.54365 0.73484 0.0
O263 O 0.46083 0.53991 0.74956 0.0
O264 O 0.40357 0.5646 0.764 0.0
C265 C 0.38479 0.51813 0.73753 0.0
O266 O 0.38665 0.53254 0.72709 0.0
C267 C 0.4311 0.52265 0.78874 0.0
O268 O 0.41344 0.51306 0.7865 0.0
O269 O 0.43228 0.54492 0.73511 0.0
C270 C 0.72526 0.41651 0.51265 0.0
O271 O 0.74057 0.42329 0.50445 0.0
O272 O 0.74143 0.36341 0.49341 0.0
Zn273 Zn 0.74745 0.38292 0.51494 0.0
O274 O 0.77233 0.39954 0.51107 0.0
C275 C 0.7412 0.35245 0.53835 0.0
O276 O 0.72763 0.34579 0.52547 0.0
O277 O 0.72492 0.39951 0.51814 0.0
C278 C 0.78522 0.40591 0.52373 0.0
O279 O 0.7822 0.40198 0.5403 0.0
C280 C 0.75568 0.3545 0.48779 0.0
O281 O 0.77332 0.35852 0.49616 0.0
O282 O 0.75162 0.36839 0.53686 0.0
C283 C 0.64699 0.94865 0.76181 0.0
O284 O 0.64706 0.96238 0.77511 0.0
O285 O 0.60471 0.97686 0.76651 0.0
Zn286 Zn 0.62102 0.97324 0.74509 0.0
O287 O 0.63993 0.99708 0.7438 0.0
C288 C 0.58549 0.97261 0.72119 0.0
O289 O 0.57725 0.97772 0.73607 0.0
O290 O 0.63659 0.94999 0.74729 0.0
C291 C 0.63332 0.01325 0.74072 0.0
O292 O 0.61413 0.01411 0.73869 0.0
C293 C 0.61046 0.98902 0.77996 0.0
O294 O 0.62757 -0.00054 0.78005 0.0
O295 O 0.60364 0.96954 0.72203 0.0
C296 C 0.00972 0.22125 0.88486 0.0
O297 O 0.99283 0.22909 0.88478 0.0
O298 O 0.99209 0.23967 0.84223 0.0
Zn299 Zn 0.01654 0.24811 0.85844 0.0
O300 O 0.01209 0.27215 0.87414 0.0
C301 C 0.04097 0.24748 0.82795 0.0
O302 O 0.02684 0.23464 0.82035 0.0
O303 O 0.02249 0.22694 0.87428 0.0
C304 C 0.02609 0.2801 0.8851 0.0
O305 O 0.04293 0.27218 0.886 0.0
C306 C 0.98268 0.25265 0.8353 0.0
O307 O 0.98938 0.27116 0.83874 0.0
O308 O 0.03963 0.25478 0.84396 0.0
C309 C 0.50896 0.72121 0.38543 0.0
O310 O 0.49223 0.72933 0.38563 0.0
O311 O 0.49035 0.74005 0.34366 0.0
Zn312 Zn 0.51565 0.74789 0.35886 0.0
O313 O 0.51278 0.77225 0.37473 0.0
C314 C 0.53747 0.74965 0.32657 0.0
O315 O 0.52112 0.74089 0.31817 0.0
O316 O 0.52156 0.72665 0.37462 0.0
C317 C 0.52743 0.77979 0.38516 0.0
O318 O 0.54393 0.77125 0.38541 0.0
C319 C 0.48019 0.7532 0.33801 0.0
O320 O 0.48665 0.77169 0.34206 0.0
O321 O 0.53829 0.75359 0.34354 0.0
C322 C 0.01745 0.79811 0.59255 0.0
O323 O 0.00061 0.78747 0.58809 0.0
O324 O -0.00026 0.773 0.63325 0.0
Zn325 Zn 0.02212 0.76895 0.61746 0.0
O326 O 0.01466 0.74599 0.59925 0.0
C327 C 0.04428 0.75787 0.64862 0.0
O328 O 0.02695 0.75742 0.65537 0.0
O329 O 0.02909 0.79303 0.60493 0.0
C330 C 0.01057 0.72939 0.60504 0.0
O331 O 0.01077 0.72812 0.62251 0.0
C332 C 0.98159 0.76924 0.628 0.0
O333 O 0.97658 0.76302 0.61108 0.0
O334 O 0.04589 0.76275 0.63269 0.0
C335 C 0.51538 0.29519 0.0922 0.0
O336 O 0.4988 0.28431 0.08719 0.0
O337 O 0.49607 0.272 0.13407 0.0
Zn338 Zn 0.51853 0.26733 0.11861 0.0
O339 O 0.51115 0.24409 0.10072 0.0
C340 C 0.54055 0.25722 0.15038 0.0
O341 O 0.52327 0.25718 0.15722 0.0
O342 O 0.52612 0.29085 0.10557 0.0
C343 C 0.50735 0.22746 0.10656 0.0
O344 O 0.50771 0.2262 0.12404 0.0
C345 C 0.47792 0.26852 0.12871 0.0
O346 O 0.47297 0.26221 0.1118 0.0
O347 O 0.54208 0.26138 0.13422 0.0
C348 C 0.23323 0.72759 0.86038 0.0
C349 C 0.23086 0.73555 0.84373 0.0
C350 C 0.23217 0.73923 0.87646 0.0
C351 C 0.23902 0.79023 0.89542 0.0
H352 H 0.20838 0.77186 0.93371 0.0
C353 C 0.22948 0.8408 0.95859 0.0
C354 C 0.23091 0.8327 0.97523 0.0
C355 C 0.22789 0.82877 0.9425 0.0
C356 C 0.21718 0.77712 0.92323 0.0
H357 H 0.22569 0.76189 0.83081 0.0
H358 H 0.22388 0.78222 0.8589 0.0
H359 H 0.20914 0.75095 0.90575 0.0
H360 H 0.23129 0.80559 0.98807 0.0
H361 H 0.229 0.7846 0.95998 0.0
H362 H 0.24748 0.81616 0.91288 0.0
C363 C 0.22654 0.767 0.85951 0.0
C364 C 0.21757 0.76516 0.90723 0.0
C365 C 0.22741 0.75534 0.84345 0.0
C366 C 0.23015 0.81227 0.97545 0.0
C367 C 0.22875 0.80023 0.95934 0.0
C368 C 0.23876 0.80211 0.91144 0.0
C369 C 0.22894 0.75907 0.87616 0.0
C370 C 0.22847 0.77163 0.89316 0.0
C371 C 0.22789 0.80836 0.94266 0.0
C372 C 0.2278 0.79573 0.92553 0.0
H373 H 0.23577 0.71234 0.86095 0.0
H374 H 0.23422 0.7328 0.88913 0.0
H375 H 0.24779 0.79546 0.8849 0.0
H376 H 0.22981 0.85649 0.95798 0.0
H377 H 0.22681 0.83549 0.9299 0.0
C378 C 0.99492 0.49836 0.39918 0.0
C379 C 0.00146 0.5117 0.41402 0.0
C380 C 0.00664 0.49585 0.38465 0.0
C381 C 0.0581 0.50359 0.37204 0.0
H382 H 0.03361 0.49896 0.32333 0.0
C383 C 0.10351 0.50625 0.30955 0.0
C384 C 0.09714 0.49285 0.29465 0.0
C385 C 0.09186 0.50839 0.32417 0.0
C386 C 0.04063 0.50002 0.33685 0.0
H387 H 0.02543 0.5329 0.4254 0.0
H388 H 0.04579 0.52869 0.39997 0.0
H389 H 0.01323 0.50296 0.34879 0.0
H390 H 0.07355 0.47116 0.28343 0.0
H391 H 0.0533 0.47481 0.309 0.0
H392 H 0.08552 0.50072 0.36009 0.0
C393 C 0.03171 0.51997 0.39962 0.0
C394 C 0.02896 0.50229 0.35144 0.0
C395 C 0.01998 0.52247 0.41415 0.0
C396 C 0.07887 0.48164 0.29468 0.0
C397 C 0.06721 0.48381 0.30929 0.0
C398 C 0.06977 0.50133 0.35745 0.0
C399 C 0.02516 0.50665 0.3847 0.0
C400 C 0.03756 0.50412 0.3692 0.0
C401 C 0.07358 0.4972 0.3242 0.0
C402 C 0.06117 0.49953 0.3397 0.0
H403 H 0.98072 0.48985 0.39881 0.0
H404 H 0.00128 0.48529 0.37347 0.0
H405 H 0.06514 0.50465 0.38556 0.0
H406 H 0.11749 0.51515 0.30993 0.0
H407 H 0.09707 0.519 0.33536 0.0
C408 C 0.80798 0.759 0.8245 0.0
C409 C 0.79033 0.7608 0.8142 0.0
C410 C 0.80766 0.74951 0.84034 0.0
C411 C 0.77401 0.73564 0.87492 0.0
H412 H 0.81412 0.70182 0.88826 0.0
C413 C 0.76732 0.68819 0.93451 0.0
C414 C 0.78434 0.68764 0.94606 0.0
C415 C 0.76846 0.69685 0.91831 0.0
C416 C 0.80293 0.71138 0.88479 0.0
H417 H 0.75863 0.75335 0.81197 0.0
H418 H 0.75806 0.73663 0.83948 0.0
H419 H 0.81534 0.71708 0.85991 0.0
H420 H 0.81598 0.6956 0.94959 0.0
H421 H 0.81794 0.7108 0.92125 0.0
H422 H 0.76157 0.72991 0.89973 0.0
C423 C 0.77211 0.74295 0.83558 0.0
C424 C 0.80363 0.72012 0.86856 0.0
C425 C 0.77243 0.75248 0.8198 0.0
C426 C 0.80259 0.69579 0.94098 0.0
C427 C 0.80374 0.7044 0.92472 0.0
C428 C 0.77329 0.72687 0.89109 0.0
C429 C 0.78968 0.74157 0.84616 0.0
C430 C 0.78912 0.73229 0.86341 0.0
C431 C 0.78666 0.70511 0.91326 0.0
C432 C 0.78769 0.71459 0.89617 0.0
H433 H 0.82198 0.76544 0.8206 0.0
H434 H 0.82143 0.74888 0.84828 0.0
H435 H 0.76285 0.74526 0.87156 0.0
H436 H 0.75304 0.68199 0.93799 0.0
H437 H 0.75508 0.69693 0.90965 0.0
C438 C 0.03676 0.0263 0.42768 0.0
C439 C 0.04246 0.00788 0.4316 0.0
C440 C 0.02492 0.02822 0.41205 0.0
C441 C 0.99013 0.00012 0.3775 0.0
H442 H 0.00414 0.04265 0.34836 0.0
C443 C 0.95512 0.00267 0.30555 0.0
C444 C 0.95021 0.02088 0.30034 0.0
C445 C 0.96606 0.00145 0.32183 0.0
C446 C -0.00013 0.03084 0.35646 0.0
H447 H 0.04029 0.97709 0.42207 0.0
H448 H 0.01952 0.98045 0.39489 0.0
H449 H 0.02351 0.03991 0.37653 0.0
H450 H 0.95291 0.05212 0.30815 0.0
H451 H 0.9718 0.04994 0.33667 0.0
H452 H 0.9665 0.99103 0.35747 0.0
C453 C 0.02401 0.99335 0.40403 0.0
C454 C 0.01098 0.02927 0.37259 0.0
C455 C 0.03589 0.99143 0.41962 0.0
C456 C 0.95651 0.03786 0.31174 0.0
C457 C 0.96742 0.03663 0.32805 0.0
C458 C 0.979 0.00172 0.3614 0.0
C459 C 0.01848 0.01178 0.40003 0.0
C460 C 0.00629 0.01382 0.38322 0.0
C461 C 0.97228 0.0184 0.33329 0.0
C462 C 0.98382 0.01702 0.35063 0.0
H463 H 0.04134 0.03922 0.43677 0.0
H464 H 0.02068 0.04257 0.40945 0.0
H465 H 0.98598 0.98823 0.38554 0.0
H466 H 0.95057 0.98932 0.29705 0.0
H467 H 0.96982 0.98721 0.32533 0.0
C468 C 0.24534 0.31727 0.64268 0.0
C469 C 0.24258 0.30866 0.65887 0.0
C470 C 0.2511 0.3063 0.62768 0.0
C471 C 0.27613 0.26252 0.61532 0.0
H472 H 0.25253 0.26713 0.56736 0.0
C473 C 0.28946 0.21013 0.55397 0.0
C474 C 0.29121 0.21795 0.53728 0.0
C475 C 0.2843 0.22168 0.56886 0.0
C476 C 0.25947 0.26589 0.58063 0.0
H477 H 0.24349 0.28178 0.67199 0.0
H478 H 0.25329 0.26253 0.6457 0.0
H479 H 0.24127 0.28607 0.59312 0.0
H480 H 0.2895 0.24421 0.52329 0.0
H481 H 0.28078 0.26445 0.54939 0.0
H482 H 0.29436 0.24239 0.60287 0.0
C483 C 0.25118 0.27781 0.64467 0.0
C484 C 0.25297 0.27669 0.59539 0.0
C485 C 0.24534 0.28877 0.65965 0.0
C486 C 0.28819 0.23772 0.53593 0.0
C487 C 0.28306 0.24928 0.55086 0.0
C488 C 0.28267 0.25176 0.60057 0.0
C489 C 0.25429 0.28651 0.62858 0.0
C490 C 0.26118 0.27506 0.61289 0.0
C491 C 0.28083 0.24132 0.56744 0.0
C492 C 0.27436 0.25326 0.58306 0.0
H493 H 0.24316 0.33253 0.64164 0.0
H494 H 0.2535 0.31344 0.61551 0.0
H495 H 0.28298 0.26122 0.62861 0.0
H496 H 0.29163 0.19494 0.55546 0.0
H497 H 0.28249 0.21502 0.58137 0.0
C498 C 0.53291 0.5701 0.59601 0.0
C499 C 0.53621 0.55272 0.58589 0.0
C500 C 0.52348 0.56946 0.61204 0.0
C501 C 0.51225 0.53697 0.64765 0.0
H502 H 0.47375 0.57338 0.65933 0.0
C503 C 0.48107 0.54414 0.71757 0.0
C504 C 0.46067 0.54569 0.71796 0.0
C505 C 0.49033 0.54548 0.70151 0.0
C506 C 0.48438 0.56304 0.65621 0.0
H507 H 0.53178 0.52104 0.58444 0.0
H508 H 0.51528 0.5199 0.6124 0.0
H509 H 0.48932 0.57437 0.63087 0.0
H510 H 0.43403 0.55003 0.70181 0.0
H511 H 0.45017 0.55219 0.67377 0.0
H512 H 0.50704 0.52538 0.67281 0.0
C513 C 0.52028 0.53403 0.6081 0.0
C514 C 0.49345 0.56374 0.64 0.0
C515 C 0.52971 0.53468 0.59208 0.0
C516 C 0.44978 0.54882 0.70198 0.0
C517 C 0.45904 0.55016 0.68593 0.0
C518 C 0.5032 0.53629 0.66386 0.0
C519 C 0.51714 0.55141 0.61831 0.0
C520 C 0.50747 0.5507 0.63552 0.0
C521 C 0.4794 0.5484 0.68549 0.0
C522 C 0.48915 0.5493 0.66832 0.0
H523 H 0.53799 0.58423 0.59174 0.0
H524 H 0.52153 0.5831 0.61972 0.0
H525 H 0.52315 0.52687 0.6447 0.0
H526 H 0.48991 0.5418 0.72965 0.0
H527 H 0.50609 0.54434 0.70167 0.0
C528 C 0.78181 0.27475 0.67612 0.0
C529 C 0.77271 0.25574 0.67669 0.0
C530 C 0.77821 0.28518 0.66117 0.0
C531 C 0.74245 0.288 0.62266 0.0
H532 H 0.78651 0.31638 0.6028 0.0
C533 C 0.73419 0.32301 0.55527 0.0
C534 C 0.7445 0.34144 0.55427 0.0
C535 C 0.73749 0.31249 0.57023 0.0
C536 C 0.77401 0.30874 0.60831 0.0
H537 H 0.75259 0.2327 0.66216 0.0
H538 H 0.74631 0.25094 0.63603 0.0
H539 H 0.79245 0.29819 0.62897 0.0
H540 H 0.76623 0.36339 0.56825 0.0
H541 H 0.77174 0.34521 0.59445 0.0
H542 H 0.72397 0.29866 0.6021 0.0
C543 C 0.75613 0.25782 0.64719 0.0
C544 C 0.77743 0.2983 0.62328 0.0
C545 C 0.75981 0.24735 0.66211 0.0
C546 C 0.75811 0.34918 0.56857 0.0
C547 C 0.76136 0.33871 0.58355 0.0
C548 C 0.73902 0.29851 0.60772 0.0
C549 C 0.76536 0.27681 0.64654 0.0
C550 C 0.76169 0.28784 0.63062 0.0
C551 C 0.75113 0.32022 0.58453 0.0
C552 C 0.75476 0.30901 0.60038 0.0
H553 H 0.79178 0.28152 0.68722 0.0
H554 H 0.78535 0.29987 0.66114 0.0
H555 H 0.73001 0.28027 0.62817 0.0
H556 H 0.72367 0.31659 0.54444 0.0
H557 H 0.72957 0.29818 0.57045 0.0
C558 C 0.48839 0.98662 0.57884 0.0
C559 C 0.5003 0.98615 0.56414 0.0
C560 C 0.49639 0.98419 0.59614 0.0
C561 C 0.53767 0.96353 0.61973 0.0
H562 H 0.52698 -0.0015 0.66059 0.0
C563 C 0.58374 0.96864 0.68752 0.0
C564 C 0.57423 0.9718 0.70349 0.0
C565 C 0.5735 0.96906 0.67078 0.0
C566 C 0.52985 0.98839 0.64939 0.0
H567 H 0.53006 0.98332 0.55622 0.0
H568 H 0.54391 0.97884 0.58634 0.0
H569 H 0.51132 0.00205 0.63086 0.0
H570 H 0.54633 0.97736 0.7144 0.0
H571 H 0.52832 0.97776 0.68512 0.0
H572 H 0.55619 0.94986 0.63816 0.0
C573 C 0.52834 0.98083 0.58442 0.0
C574 C 0.52092 0.99047 0.63235 0.0
C575 C 0.5204 0.98338 0.56718 0.0
C576 C 0.55411 0.97496 0.70235 0.0
C577 C 0.54382 0.97531 0.68557 0.0
C578 C 0.5465 0.96137 0.63675 0.0
C579 C 0.51642 0.98111 0.59907 0.0
C580 C 0.52496 0.97824 0.61732 0.0
C581 C 0.55346 0.97256 0.66959 0.0
C582 C 0.54293 0.97395 0.65174 0.0
H583 H 0.4728 0.98845 0.57692 0.0
H584 H 0.48683 0.98431 0.60717 0.0
H585 H 0.54077 0.95367 0.60843 0.0
H586 H 0.59926 0.96624 0.68791 0.0
H587 H 0.58147 0.96718 0.65877 0.0
C588 C 0.82812 0.19317 0.74551 0.0
C589 C 0.81649 0.20832 0.7414 0.0
C590 C 0.84627 0.19735 0.75554 0.0
C591 C 0.88561 0.23716 0.76767 0.0
H592 H 0.90022 0.20646 0.80685 0.0
C593 C 0.95265 0.2615 0.81789 0.0
C594 C 0.96416 0.24705 0.8239 0.0
C595 C 0.93492 0.25627 0.80746 0.0
C596 C 0.89649 0.215 0.79579 0.0
H597 H 0.81455 0.23966 0.74514 0.0
H598 H 0.84629 0.24693 0.76242 0.0
H599 H 0.86861 0.19808 0.78941 0.0
H600 H 0.96624 0.21576 0.82349 0.0
H601 H 0.93546 0.20663 0.80501 0.0
H602 H 0.91345 0.25402 0.77389 0.0
C603 C 0.84148 0.23186 0.75767 0.0
C604 C 0.87837 0.21022 0.78584 0.0
C605 C 0.82331 0.22769 0.74775 0.0
C606 C 0.95765 0.22725 0.81913 0.0
C607 C 0.93995 0.22201 0.80863 0.0
C608 C 0.90375 0.24188 0.77754 0.0
C609 C 0.85321 0.21676 0.76157 0.0
C610 C 0.87268 0.22136 0.77178 0.0
C611 C 0.92834 0.23646 0.80272 0.0
C612 C 0.90934 0.23096 0.79182 0.0
H613 H 0.8234 0.17812 0.74064 0.0
H614 H 0.85509 0.18543 0.75822 0.0
H615 H 0.88175 0.2458 0.75671 0.0
H616 H 0.95719 0.27689 0.8214 0.0
H617 H 0.9262 0.26777 0.80338 0.0
C618 C 0.49857 0.93139 0.47332 0.0
C619 C 0.51439 0.93934 0.48548 0.0
C620 C 0.50035 0.91455 0.46198 0.0
C621 C 0.52885 0.87156 0.45813 0.0
H622 H 0.50707 0.86614 0.4085 0.0
C623 C 0.54225 0.80649 0.40812 0.0
C624 C 0.52604 0.79811 0.3966 0.0
C625 C 0.54102 0.82392 0.41878 0.0
C626 C 0.51305 0.86736 0.42239 0.0
H627 H 0.54451 0.9363 0.49515 0.0
H628 H 0.54776 0.90701 0.47519 0.0
H629 H 0.50477 0.8965 0.4272 0.0
H630 H 0.49579 0.80143 0.38727 0.0
H631 H 0.4936 0.83175 0.40599 0.0
H632 H 0.53708 0.84242 0.45335 0.0
C633 C 0.53389 0.91358 0.47457 0.0
C634 C 0.51174 0.88475 0.43309 0.0
C635 C 0.53209 0.9304 0.4859 0.0
C636 C 0.50856 0.80752 0.39598 0.0
C637 C 0.50734 0.82496 0.40662 0.0
C638 C 0.53017 0.85419 0.44743 0.0
C639 C 0.51798 0.90536 0.4626 0.0
C640 C 0.51961 0.88703 0.45109 0.0
C641 C 0.52356 0.83336 0.41813 0.0
C642 C 0.52226 0.85188 0.42945 0.0
H643 H 0.48469 0.93794 0.47273 0.0
H644 H 0.48775 0.90847 0.45305 0.0
H645 H 0.53476 0.87272 0.47204 0.0
H646 H 0.55596 0.79964 0.40888 0.0
H647 H 0.55385 0.83014 0.42735 0.0
C648 C 0.18482 0.32009 0.75899 0.0
C649 C 0.18642 0.31395 0.74081 0.0
C650 C 0.16932 0.3121 0.76826 0.0
C651 C 0.11928 0.28628 0.76105 0.0
H652 H 0.12935 0.27355 0.81025 0.0
C653 C 0.05938 0.24657 0.79993 0.0
C654 C 0.05805 0.25387 0.8179 0.0
C655 C 0.0753 0.25307 0.79035 0.0
C656 C 0.12627 0.27718 0.79657 0.0
H657 H 0.17308 0.29463 0.718 0.0
H658 H 0.14613 0.28057 0.73421 0.0
H659 H 0.15662 0.28662 0.79384 0.0
H660 H 0.07249 0.27362 0.83995 0.0
H661 H 0.1001 0.28502 0.82323 0.0
H662 H 0.0889 0.27695 0.76383 0.0
C663 C 0.15672 0.2917 0.74128 0.0
C664 C 0.14188 0.28468 0.78717 0.0
C665 C 0.17223 0.29969 0.73202 0.0
C666 C 0.07307 0.26765 0.82614 0.0
C667 C 0.08898 0.27412 0.81659 0.0
C668 C 0.10365 0.27877 0.77045 0.0
C669 C 0.15509 0.29781 0.75951 0.0
C670 C 0.13855 0.28942 0.76935 0.0
C671 C 0.09024 0.26696 0.79857 0.0
C672 C 0.10695 0.27425 0.78835 0.0
H673 H 0.19555 0.33112 0.76604 0.0
H674 H 0.16834 0.31732 0.78223 0.0
H675 H 0.11617 0.29002 0.74742 0.0
H676 H 0.04808 0.23591 0.7932 0.0
H677 H 0.07597 0.24711 0.77655 0.0
C678 C 0.56845 0.60871 0.4907 0.0
C679 C 0.55505 0.60236 0.50295 0.0
C680 C 0.56297 0.62121 0.47786 0.0
C681 C 0.51952 0.63872 0.45423 0.0
H682 H 0.55745 0.68116 0.44425 0.0
C683 C 0.4996 0.7006 0.41024 0.0
C684 C 0.51346 0.70661 0.39819 0.0
C685 C 0.50421 0.68742 0.42279 0.0
C686 C 0.54677 0.66925 0.44674 0.0
H687 H 0.52534 0.604 0.51143 0.0
H688 H 0.51582 0.6261 0.48911 0.0
H689 H 0.56632 0.65924 0.46682 0.0
H690 H 0.54289 0.70319 0.38962 0.0
H691 H 0.55084 0.68013 0.41144 0.0
H692 H 0.49994 0.64886 0.43417 0.0
C693 C 0.5305 0.62122 0.48928 0.0
C694 C 0.55185 0.65669 0.45967 0.0
C695 C 0.53599 0.60866 0.50212 0.0
C696 C 0.5319 0.69893 0.39876 0.0
C697 C 0.53651 0.6858 0.41134 0.0
C698 C 0.51442 0.65133 0.4413 0.0
C699 C 0.54396 0.62768 0.47703 0.0
C700 C 0.53833 0.64122 0.46351 0.0
C701 C 0.52278 0.68003 0.42359 0.0
C702 C 0.52803 0.66667 0.43737 0.0
H703 H 0.58319 0.60395 0.49102 0.0
H704 H 0.57358 0.62566 0.46844 0.0
H705 H 0.50886 0.62679 0.45671 0.0
H706 H 0.48526 0.70625 0.41014 0.0
H707 H 0.49338 0.68337 0.43216 0.0
C708 C 0.84591 0.77207 0.7286 0.0
C709 C 0.85222 0.7713 0.7468 0.0
C710 C 0.85954 0.77191 0.71541 0.0
C711 C 0.91179 0.78418 0.70919 0.0
H712 H 0.90182 0.7498 0.66514 0.0
C713 C 0.97197 0.77335 0.65973 0.0
C714 C 0.96639 0.77071 0.64118 0.0
C715 C 0.9577 0.7739 0.67229 0.0
C716 C 0.90471 0.75973 0.67722 0.0
H717 H 0.87751 0.7695 0.7655 0.0
H718 H 0.90143 0.76944 0.74243 0.0
H719 H 0.87746 0.74958 0.68768 0.0
H720 H 0.94144 0.76698 0.62124 0.0
H721 H 0.91649 0.76849 0.64317 0.0
H722 H 0.93882 0.79463 0.69874 0.0
C723 C 0.88598 0.77024 0.7384 0.0
C724 C 0.89078 0.75953 0.69015 0.0
C725 C 0.87232 0.77017 0.75156 0.0
C726 C 0.94621 0.76894 0.63545 0.0
C727 C 0.93191 0.76967 0.64803 0.0
C728 C 0.92562 0.78455 0.6962 0.0
C729 C 0.87973 0.77118 0.72021 0.0
C730 C 0.89427 0.77163 0.70632 0.0
C731 C 0.93748 0.77203 0.66662 0.0
C732 C 0.92235 0.77221 0.68011 0.0
H733 H 0.83048 0.77286 0.72453 0.0
H734 H 0.85435 0.77275 0.7015 0.0
H735 H 0.9147 0.79389 0.72143 0.0
H736 H 0.9874 0.77462 0.66461 0.0
H737 H 0.96257 0.77537 0.68647 0.0
C738 C 0.08167 0.94055 0.51846 0.0
C739 C 0.06827 0.94701 0.50571 0.0
C740 C 0.07607 0.92471 0.52815 0.0
C741 C 0.03212 0.89566 0.54182 0.0
H742 H 0.06919 0.85721 0.55022 0.0
C743 C 0.00982 0.82177 0.56991 0.0
C744 C 0.023 0.81557 0.58306 0.0
C745 C 0.01521 0.8381 0.56075 0.0
C746 C 0.05875 0.86794 0.54815 0.0
H747 H 0.03846 0.94201 0.49303 0.0
H748 H 0.02878 0.91419 0.50972 0.0
H749 H 0.07887 0.88514 0.53364 0.0
H750 H 0.05213 0.82174 0.597 0.0
H751 H 0.06148 0.85023 0.58103 0.0
H752 H 0.01195 0.87831 0.55622 0.0
C753 C 0.04353 0.92152 0.51247 0.0
C754 C 0.0643 0.88395 0.53866 0.0
C755 C 0.04912 0.9374 0.50282 0.0
C756 C 0.04164 0.8261 0.58692 0.0
C757 C 0.04705 0.84236 0.57771 0.0
C758 C 0.02655 0.8796 0.55126 0.0
C759 C 0.05695 0.91498 0.52524 0.0
C760 C 0.05105 0.898 0.53539 0.0
C761 C 0.03392 0.8485 0.56449 0.0
C762 C 0.03981 0.86558 0.55452 0.0
H763 H 0.09649 0.94779 0.52097 0.0
H764 H 0.08667 0.92022 0.53807 0.0
H765 H 0.02167 0.90638 0.53978 0.0
H766 H 0.99535 0.81398 0.56662 0.0
H767 H 0.00485 0.84237 0.55051 0.0
C768 C 0.1711 0.71427 0.75557 0.0
C769 C 0.19004 0.71193 0.74985 0.0
C770 C 0.15566 0.71722 0.7432 0.0
C771 C 0.14588 0.73642 0.69977 0.0
H772 H 0.09321 0.71099 0.70269 0.0
C773 C 0.07955 0.75006 0.65141 0.0
C774 C 0.0615 0.75194 0.6592 0.0
C775 C 0.09558 0.74388 0.66134 0.0
C776 C 0.10779 0.71834 0.7018 0.0
H777 H 0.20767 0.71039 0.72678 0.0
H778 H 0.18057 0.71575 0.70501 0.0
H779 H 0.12061 0.70194 0.72193 0.0
H780 H 0.04622 0.7491 0.68358 0.0
H781 H 0.07423 0.73874 0.70097 0.0
H782 H 0.133 0.75322 0.68 0.0
C783 C 0.17775 0.71536 0.71909 0.0
C784 C 0.12348 0.7131 0.71277 0.0
C785 C 0.19319 0.71222 0.73149 0.0
C786 C 0.05988 0.7477 0.67715 0.0
C787 C 0.07591 0.74161 0.68708 0.0
C788 C 0.13015 0.74175 0.68885 0.0
C789 C 0.15886 0.718 0.72487 0.0
C790 C 0.14262 0.72229 0.71206 0.0
C791 C 0.09391 0.73951 0.67928 0.0
C792 C 0.11087 0.73298 0.68995 0.0
H793 H 0.16818 0.71401 0.76964 0.0
H794 H 0.14132 0.71941 0.74806 0.0
H795 H 0.16045 0.74389 0.69908 0.0
H796 H 0.08124 0.75314 0.63757 0.0
H797 H 0.10919 0.74225 0.65489 0.0
C798 C 0.98503 0.5703 0.5173 0.0
C799 C 0.98422 0.57053 0.49847 0.0
C800 C 0.98822 0.58773 0.52843 0.0
C801 C 0.00701 0.63971 0.52976 0.0
H802 H 0.97403 0.64539 0.56993 0.0
C803 C 0.00667 0.71278 0.5737 0.0
C804 C 0.00659 0.7116 0.59239 0.0
C805 C 0.00364 0.69583 0.56184 0.0
C806 C 0.98349 0.64396 0.55888 0.0
H807 H 0.9865 0.58923 0.47655 0.0
H808 H 0.99218 0.61975 0.49606 0.0
H809 H 0.97006 0.61524 0.55005 0.0
H810 H 0.00312 0.69171 0.6133 0.0
H811 H 0.99805 0.6622 0.59265 0.0
H812 H 0.02052 0.66842 0.53868 0.0
C813 C 0.99047 0.60603 0.50218 0.0
C814 C 0.98122 0.62669 0.5475 0.0
C815 C 0.98725 0.58856 0.49102 0.0
C816 C 0.0032 0.69315 0.59897 0.0
C817 C 0.0002 0.67622 0.58712 0.0
C818 C 0.00931 0.657 0.54118 0.0
C819 C 0.9907 0.6058 0.521 0.0
C820 C 0.99303 0.62432 0.53288 0.0
C821 C 0.00046 0.67736 0.56843 0.0
C822 C 0.99764 0.65927 0.55593 0.0
H823 H 0.98312 0.55661 0.52344 0.0
H824 H 0.98872 0.58705 0.54289 0.0
H825 H 0.01644 0.63823 0.5187 0.0
H826 H 0.00918 0.72679 0.5682 0.0
H827 H 0.00368 0.69721 0.5475 0.0
C828 C 0.76144 0.87427 0.21494 0.0
C829 C 0.76672 0.85664 0.20658 0.0
C830 C 0.77584 0.88973 0.2204 0.0
C831 C 0.83014 0.90179 0.2291 0.0
H832 H 0.81779 0.95403 0.21953 0.0
C833 C 0.88959 0.96684 0.22804 0.0
C834 C 0.88574 0.98475 0.23691 0.0
C835 C 0.87498 0.95109 0.22565 0.0
C836 C 0.82138 0.93955 0.22245 0.0
H837 H 0.79138 0.84115 0.19813 0.0
H838 H 0.81634 0.86826 0.20701 0.0
H839 H 0.79237 0.92666 0.21341 0.0
H840 H 0.86354 0.00019 0.25021 0.0
H841 H 0.83802 0.97272 0.24585 0.0
H842 H 0.85935 0.91473 0.23765 0.0
C843 C 0.80113 0.87012 0.20959 0.0
C844 C 0.8068 0.92386 0.21903 0.0
C845 C 0.78677 0.85465 0.20425 0.0
C846 C 0.86698 0.98658 0.24331 0.0
C847 C 0.85233 0.9709 0.24076 0.0
C848 C 0.84476 0.91746 0.23237 0.0
C849 C 0.79583 0.88794 0.21756 0.0
C850 C 0.81104 0.90476 0.22218 0.0
C851 C 0.85619 0.953 0.23192 0.0
C852 C 0.84055 0.93647 0.22897 0.0
H853 H 0.74611 0.87632 0.21684 0.0
H854 H 0.77128 0.90315 0.22674 0.0
H855 H 0.83382 0.88734 0.23199 0.0
H856 H 0.9039 0.96496 0.22298 0.0
H857 H 0.87828 0.93751 0.21862 0.0
C858 C 0.76701 0.17415 0.29066 0.0
C859 C 0.77043 0.19258 0.30047 0.0
C860 C 0.78274 0.16324 0.28671 0.0
C861 C 0.83387 0.15661 0.30157 0.0
H862 H 0.83474 0.13067 0.25357 0.0
C863 C 0.89804 0.11195 0.28055 0.0
C864 C 0.89241 0.09393 0.2705 0.0
C865 C 0.88416 0.12543 0.28365 0.0
C866 C 0.83464 0.1377 0.26708 0.0
H867 H 0.79311 0.21404 0.31376 0.0
H868 H 0.82057 0.1948 0.30708 0.0
H869 H 0.80837 0.15121 0.26035 0.0
H870 H 0.86785 0.07601 0.25568 0.0
H871 H 0.84374 0.09926 0.26128 0.0
H872 H 0.85991 0.14275 0.30842 0.0
C873 C 0.80568 0.18879 0.30255 0.0
C874 C 0.81954 0.14946 0.27095 0.0
C875 C 0.78994 0.19977 0.30641 0.0
C876 C 0.87272 0.08978 0.26344 0.0
C877 C 0.85889 0.10319 0.26654 0.0
C878 C 0.84895 0.14475 0.29773 0.0
C879 C 0.80223 0.17047 0.29257 0.0
C880 C 0.81886 0.15883 0.28829 0.0
C881 C 0.8644 0.12113 0.27674 0.0
C882 C 0.84934 0.13495 0.2805 0.0
H883 H 0.75214 0.16804 0.28616 0.0
H884 H 0.77962 0.14901 0.27926 0.0
H885 H 0.83362 0.16354 0.3151 0.0
H886 H 0.91311 0.1156 0.28614 0.0
H887 H 0.88891 0.13922 0.2914 0.0
C888 C 0.43003 0.99609 0.97144 0.0
C889 C 0.44406 0.00494 0.98497 0.0
C890 C 0.41391 0.98385 0.97583 0.0
C891 C 0.38347 0.97479 0.01353 0.0
H892 H 0.36377 0.92716 0.98414 0.0
C893 C 0.31762 0.92393 0.03275 0.0
C894 C 0.30374 0.91615 0.01868 0.0
C895 C 0.33549 0.93382 0.02901 0.0
C896 C 0.36898 0.94052 0.99239 0.0
H897 H 0.4527 0.00712 0.0136 0.0
H898 H 0.4245 0.98584 0.02126 0.0
H899 H 0.39391 0.94577 0.97681 0.0
H900 H 0.29772 0.91269 0.98963 0.0
H901 H 0.32868 0.93021 0.98315 0.0
H902 H 0.35841 0.9698 0.02892 0.0
C903 C 0.42581 0.98862 0.0073 0.0
C904 C 0.38626 0.95115 0.9882 0.0
C905 C 0.44194 0.00081 0.00291 0.0
C906 C 0.30812 0.91845 0.00079 0.0
C907 C 0.32594 0.92838 0.99706 0.0
C908 C 0.36616 0.96421 0.01768 0.0
C909 C 0.41148 0.98024 0.99385 0.0
C910 C 0.39362 0.96845 -0.00133 0.0
C911 C 0.33984 0.93618 0.01112 0.0
C912 C 0.35865 0.94702 0.00709 0.0
H913 H 0.43112 -0.00084 0.95753 0.0
H914 H 0.403 0.97776 0.96519 0.0
H915 H 0.38861 0.98824 0.02169 0.0
H916 H 0.31475 0.92231 0.04667 0.0
H917 H 0.34599 0.93946 0.04014 0.0
C918 C 0.26049 0.32892 0.29516 0.0
C919 C 0.26263 0.31446 0.2812 0.0
C920 C 0.24767 0.34332 0.29261 0.0
C921 C 0.20436 0.35468 0.26479 0.0
H922 H 0.22254 0.40837 0.28192 0.0
C923 C 0.16021 0.42006 0.24905 0.0
C924 C 0.15982 0.43502 0.26298 0.0
C925 C 0.17248 0.40503 0.25099 0.0
C926 C 0.21714 0.39342 0.27725 0.0
H927 H 0.25279 0.30356 0.25373 0.0
H928 H 0.23042 0.3289 0.24923 0.0
H929 H 0.24439 0.38267 0.28582 0.0
H930 H 0.17172 0.44572 0.29 0.0
H931 H 0.19284 0.41939 0.29349 0.0
H932 H 0.17702 0.36544 0.25634 0.0
C933 C 0.23862 0.32899 0.26216 0.0
C934 C 0.22967 0.37871 0.27947 0.0
C935 C 0.25154 0.31461 0.26468 0.0
C936 C 0.17176 0.43449 0.27896 0.0
C937 C 0.18396 0.41945 0.28092 0.0
C938 C 0.19176 0.36941 0.26262 0.0
C939 C 0.23667 0.34357 0.27607 0.0
C940 C 0.22339 0.35918 0.27335 0.0
C941 C 0.18458 0.40462 0.26692 0.0
C942 C 0.19799 0.38894 0.26892 0.0
H943 H 0.269 0.3293 0.30797 0.0
H944 H 0.24632 0.35424 0.30365 0.0
H945 H 0.19905 0.33972 0.2601 0.0
H946 H 0.15122 0.42007 0.23654 0.0
H947 H 0.17277 0.39394 0.23988 0.0
C948 C 0.1208 0.02563 0.47619 0.0
C949 C 0.10199 0.03197 0.47293 0.0
C950 C 0.13724 0.03918 0.48052 0.0
C951 C 0.15445 0.09147 0.47796 0.0
H952 H 0.19685 0.07967 0.51138 0.0
C953 C 0.22055 0.14748 0.50371 0.0
C954 C 0.23926 0.14065 0.50231 0.0
C955 C 0.20347 0.13447 0.50094 0.0
C956 C 0.18513 0.08309 0.50198 0.0
H957 H 0.08546 0.05735 0.47196 0.0
H958 H 0.11407 0.0811 0.48002 0.0
H959 H 0.16738 0.05664 0.50532 0.0
H960 H 0.25481 0.11481 0.49727 0.0
H961 H 0.22495 0.09206 0.4927 0.0
H962 H 0.17219 0.11811 0.47492 0.0
C963 C 0.11628 0.06569 0.47879 0.0
C964 C 0.16828 0.06988 0.49842 0.0
C965 C 0.09986 0.05211 0.47424 0.0
C966 C 0.24059 0.12051 0.4984 0.0
C967 C 0.22353 0.10748 0.49588 0.0
C968 C 0.17119 0.10478 0.4817 0.0
C969 C 0.1352 0.05939 0.48188 0.0
C970 C 0.1528 0.07381 0.48623 0.0
C971 C 0.20482 0.11437 0.49698 0.0
C972 C 0.18675 0.10062 0.49361 0.0
H973 H 0.12285 0.01016 0.47504 0.0
H974 H 0.15161 0.03378 0.48244 0.0
H975 H 0.14301 0.09485 0.46827 0.0
H976 H 0.21905 0.16292 0.50668 0.0
H977 H 0.18921 0.14011 0.50198 0.0
C978 C 0.76034 0.14812 0.72717 0.0
C979 C 0.75294 0.16614 0.72444 0.0
C980 C 0.74751 0.13163 0.7293 0.0
C981 C 0.69685 0.11666 0.74107 0.0
H982 H 0.70638 0.06646 0.71742 0.0
C983 C 0.63982 0.04887 0.73642 0.0
C984 C 0.64708 0.03084 0.73936 0.0
C985 C 0.65282 0.06543 0.73493 0.0
C986 C 0.70365 0.08034 0.72426 0.0
H987 H 0.72627 0.18104 0.72209 0.0
H988 H 0.70386 0.15216 0.72539 0.0
H989 H 0.72894 0.09528 0.71419 0.0
H990 H 0.67369 0.01607 0.74315 0.0
H991 H 0.69635 0.045 0.74063 0.0
H992 H 0.67147 0.1017 0.75103 0.0
C993 C 0.7196 0.15082 0.72608 0.0
C994 C 0.71657 0.09685 0.72243 0.0
C995 C 0.73243 0.16732 0.72397 0.0
C996 C 0.66761 0.02974 0.74084 0.0
C997 C 0.6806 0.04628 0.7393 0.0
C998 C 0.68389 0.10016 0.74287 0.0
C999 C 0.72699 0.13278 0.72874 0.0
C1000 C 0.71332 0.1152 0.73081 0.0
C1001 C 0.67335 0.0643 0.73629 0.0
C1002 C 0.68715 0.08182 0.73447 0.0
H1003 H 0.77606 0.14668 0.72744 0.0
H1004 H 0.7537 0.118 0.73153 0.0
H1005 H 0.69409 0.13053 0.74792 0.0
H1006 H 0.62408 0.05021 0.73518 0.0
H1007 H 0.64678 0.07907 0.73242 0.0
C1008 C 0.43796 0.01175 0.50969 0.0
C1009 C 0.4546 0.01716 0.52178 0.0
C1010 C 0.42388 0.02489 0.50671 0.0
C1011 C 0.41655 0.07762 0.51159 0.0
H1012 H 0.36105 0.05839 0.50664 0.0
C1013 C 0.35345 0.12863 0.51023 0.0
C1014 C 0.33747 0.12316 0.49741 0.0
C1015 C 0.36808 0.11599 0.51308 0.0
C1016 C 0.3765 0.06394 0.50782 0.0
H1017 H 0.46958 0.04075 0.54007 0.0
H1018 H 0.44472 0.0635 0.53526 0.0
H1019 H 0.38586 0.03575 0.51205 0.0
H1020 H 0.32444 0.10022 0.47738 0.0
H1021 H 0.34997 0.07822 0.48236 0.0
H1022 H 0.40709 0.10587 0.50751 0.0
C1023 C 0.4427 0.04917 0.52789 0.0
C1024 C 0.39073 0.05097 0.5109 0.0
C1025 C 0.45683 0.03604 0.53082 0.0
C1026 C 0.33653 0.10487 0.48739 0.0
C1027 C 0.35109 0.0922 0.49031 0.0
C1028 C 0.4023 0.09061 0.50859 0.0
C1029 C 0.42604 0.04374 0.51581 0.0
C1030 C 0.41093 0.05763 0.51275 0.0
C1031 C 0.36696 0.09758 0.50325 0.0
C1032 C 0.38213 0.08389 0.5066 0.0
H1033 H 0.43569 0.99725 0.50265 0.0
H1034 H 0.41136 0.02031 0.49715 0.0
H1035 H 0.432 0.08318 0.51269 0.0
H1036 H 0.35461 0.14263 0.51817 0.0
H1037 H 0.38007 0.12047 0.52324 0.0
C1038 C 0.60442 0.53482 0.53897 0.0
C1039 C 0.58687 0.52786 0.54621 0.0
C1040 C 0.6189 0.5223 0.53517 0.0
C1041 C 0.63738 0.47605 0.54665 0.0
H1042 H 0.66234 0.47855 0.50158 0.0
C1043 C 0.69197 0.42112 0.52383 0.0
C1044 C 0.70882 0.4287 0.51589 0.0
C1045 C 0.67662 0.43276 0.52722 0.0
C1046 C 0.65568 0.47782 0.51431 0.0
H1047 H 0.57082 0.50223 0.55519 0.0
H1048 H 0.59629 0.48035 0.5487 0.0
H1049 H 0.63649 0.49976 0.50831 0.0
H1050 H 0.72276 0.45444 0.50524 0.0
H1051 H 0.69613 0.47483 0.5114 0.0
H1052 H 0.65671 0.45429 0.55277 0.0
C1053 C 0.59882 0.49557 0.54607 0.0
C1054 C 0.64085 0.48994 0.51814 0.0
C1055 C 0.58427 0.5081 0.5498 0.0
C1056 C 0.70994 0.44813 0.51131 0.0
C1057 C 0.69462 0.45979 0.51475 0.0
C1058 C 0.65227 0.46396 0.54285 0.0
C1059 C 0.61623 0.50252 0.53861 0.0
C1060 C 0.63161 0.48926 0.53439 0.0
C1061 C 0.6778 0.45226 0.52278 0.0
C1062 C 0.66165 0.46477 0.52666 0.0
H1063 H 0.60707 0.55005 0.53638 0.0
H1064 H 0.63232 0.52816 0.52974 0.0
H1065 H 0.63068 0.47537 0.55937 0.0
H1066 H 0.69061 0.40617 0.52745 0.0
H1067 H 0.66375 0.42643 0.53318 0.0
C1068 C 0.74154 0.22981 0.35848 0.0
C1069 C 0.73757 0.2381 0.34222 0.0
C1070 C 0.74195 0.24115 0.37492 0.0
C1071 C 0.72702 0.28806 0.39563 0.0
H1072 H 0.76791 0.28141 0.4326 0.0
C1073 C 0.73342 0.33318 0.46472 0.0
C1074 C 0.75259 0.33995 0.47196 0.0
C1075 C 0.73059 0.31954 0.44964 0.0
C1076 C 0.75648 0.28355 0.42237 0.0
H1077 H 0.73111 0.26469 0.33034 0.0
H1078 H 0.73224 0.28459 0.35893 0.0
H1079 H 0.76482 0.2602 0.40468 0.0
H1080 H 0.78381 0.33779 0.46909 0.0
H1081 H 0.77892 0.31449 0.44255 0.0
H1082 H 0.7193 0.31202 0.41294 0.0
C1083 C 0.73451 0.26924 0.3591 0.0
C1084 C 0.75452 0.27118 0.40645 0.0
C1085 C 0.73393 0.25787 0.3427 0.0
C1086 C 0.76885 0.33278 0.46388 0.0
C1087 C 0.76603 0.31929 0.44873 0.0
C1088 C 0.72908 0.30053 0.41148 0.0
C1089 C 0.73859 0.26104 0.37542 0.0
C1090 C 0.7399 0.27342 0.3928 0.0
C1091 C 0.74687 0.31251 0.4414 0.0
C1092 C 0.74397 0.29856 0.42497 0.0
H1093 H 0.74419 0.21453 0.35847 0.0
H1094 H 0.74483 0.23429 0.38725 0.0
H1095 H 0.71539 0.29 0.38552 0.0
H1096 H 0.72059 0.33833 0.47074 0.0
H1097 H 0.71563 0.31442 0.44452 0.0
C1098 C 0.49558 0.99781 0.89964 0.0
C1099 C 0.50234 0.01085 0.91464 0.0
C1100 C 0.50727 0.99526 0.8851 0.0
C1101 C 0.55885 0.00206 0.87267 0.0
H1102 H 0.53457 -0.00145 0.82393 0.0
C1103 C 0.60463 0.00445 0.81044 0.0
C1104 C 0.59806 0.99136 0.79538 0.0
C1105 C 0.59295 0.00668 0.82502 0.0
C1106 C 0.54153 -0.00071 0.83746 0.0
H1107 H 0.52666 0.03148 0.92628 0.0
H1108 H 0.54699 0.02719 0.90083 0.0
H1109 H 0.51419 0.00272 0.84937 0.0
H1110 H 0.57406 0.97031 0.78381 0.0
H1111 H 0.55374 0.97411 0.80933 0.0
H1112 H 0.5862 -0.00132 0.86075 0.0
C1113 C 0.53275 0.01874 0.90037 0.0
C1114 C 0.52986 0.00167 0.85203 0.0
C1115 C 0.52105 0.02129 0.91491 0.0
C1116 C 0.57954 0.98055 0.7952 0.0
C1117 C 0.56784 0.9828 0.80977 0.0
C1118 C 0.57052 -0.00031 0.8581 0.0
C1119 C 0.52599 0.00571 0.88529 0.0
C1120 C 0.53839 0.00309 0.86981 0.0
C1121 C 0.57442 0.99588 0.82485 0.0
C1122 C 0.562 -0.0017 0.84033 0.0
H1123 H 0.48123 0.98956 0.89917 0.0
H1124 H 0.50175 0.98492 0.8738 0.0
H1125 H 0.56582 0.0028 0.8862 0.0
H1126 H 0.6188 0.01304 0.81099 0.0
H1127 H 0.59832 0.01705 0.83634 0.0
C1128 C 0.29511 0.24781 0.32055 0.0
C1129 C 0.29311 0.26793 0.32033 0.0
C1130 C 0.29548 0.23907 0.3368 0.0
C1131 C 0.27987 0.24619 0.38297 0.0
H1132 H 0.31466 0.20608 0.39267 0.0
C1133 C 0.2699 0.19788 0.44158 0.0
C1134 C 0.28697 0.19401 0.45175 0.0
C1135 C 0.27138 0.20708 0.42569 0.0
C1136 C 0.30497 0.21737 0.39022 0.0
H1137 H 0.29072 0.29479 0.33701 0.0
H1138 H 0.2914 0.27956 0.36535 0.0
H1139 H 0.31652 0.22214 0.36477 0.0
H1140 H 0.31902 0.19671 0.45318 0.0
H1141 H 0.32159 0.21294 0.42543 0.0
H1142 H 0.26848 0.24162 0.40846 0.0
C1143 C 0.29229 0.27046 0.35295 0.0
C1144 C 0.30589 0.22642 0.37416 0.0
C1145 C 0.2919 0.27918 0.33672 0.0
C1146 C 0.30558 0.19947 0.44563 0.0
C1147 C 0.30705 0.20867 0.4297 0.0
C1148 C 0.27894 0.23714 0.39898 0.0
C1149 C 0.29389 0.25028 0.35316 0.0
C1150 C 0.2933 0.24089 0.37034 0.0
C1151 C 0.28996 0.21263 0.41959 0.0
C1152 C 0.2914 0.22256 0.40275 0.0
H1153 H 0.29588 0.23872 0.30812 0.0
H1154 H 0.29649 0.22344 0.3365 0.0
H1155 H 0.26982 0.25712 0.38036 0.0
H1156 H 0.25533 0.1938 0.44586 0.0
H1157 H 0.25792 0.20966 0.41807 0.0
C1158 C 0.53092 0.48866 0.92311 0.0
C1159 C 0.55122 0.49464 0.92322 0.0
C1160 C 0.51805 0.49141 0.9084 0.0
C1161 C 0.51248 0.52154 0.87054 0.0
H1162 H 0.4739 0.47931 0.85041 0.0
C1163 C 0.46479 0.52706 0.80485 0.0
C1164 C 0.44499 0.51913 0.8039 0.0
C1165 C 0.47788 0.52382 0.81924 0.0
C1166 C 0.4844 0.49134 0.85601 0.0
H1167 H 0.5739 0.50793 0.90776 0.0
H1168 H 0.55132 0.51306 0.88225 0.0
H1169 H 0.49638 0.47423 0.87602 0.0
H1170 H 0.42335 0.50166 0.81735 0.0
H1171 H 0.44604 0.4964 0.84267 0.0
H1172 H 0.50036 0.5388 0.85082 0.0
C1173 C 0.54541 0.50636 0.89363 0.0
C1174 C 0.4973 0.4884 0.87064 0.0
C1175 C 0.55831 0.50347 0.90827 0.0
C1176 C 0.43855 0.50788 0.81764 0.0
C1177 C 0.4516 0.50477 0.83211 0.0
C1178 C 0.49948 0.52455 0.85601 0.0
C1179 C 0.52516 0.50035 0.89355 0.0
C1180 C 0.51148 0.50346 0.87803 0.0
C1181 C 0.47143 0.5127 0.83309 0.0
C1182 C 0.48529 0.50948 0.84854 0.0
H1183 H 0.5249 0.48212 0.93452 0.0
H1184 H 0.50246 0.48686 0.90877 0.0
H1185 H 0.52311 0.53349 0.87613 0.0
H1186 H 0.47024 0.53569 0.79441 0.0
H1187 H 0.49312 0.52987 0.8194 0.0
C1188 C 0.74831 0.81406 0.14397 0.0
C1189 C 0.74059 0.8044 0.15822 0.0
C1190 C 0.75212 0.80351 0.128 0.0
C1191 C 0.76075 0.75336 0.11035 0.0
H1192 H 0.75622 0.77532 0.06426 0.0
C1193 C 0.79175 0.71644 0.04784 0.0
C1194 C 0.78074 0.71624 0.03126 0.0
C1195 C 0.7869 0.72794 0.0629 0.0
C1196 C 0.75739 0.76885 0.07698 0.0
H1197 H 0.73013 0.77604 0.16648 0.0
H1198 H 0.73581 0.75779 0.13833 0.0
H1199 H 0.74579 0.79319 0.09088 0.0
H1200 H 0.7562 0.72813 0.01735 0.0
H1201 H 0.74733 0.74769 0.0437 0.0
H1202 H 0.77154 0.72866 0.09637 0.0
C1203 C 0.73953 0.77348 0.13971 0.0
C1204 C 0.75164 0.77924 0.09232 0.0
C1205 C 0.73596 0.784 0.15578 0.0
C1206 C 0.76505 0.72808 0.02993 0.0
C1207 C 0.76001 0.73937 0.04505 0.0
C1208 C 0.76626 0.74287 0.09499 0.0
C1209 C 0.74804 0.78305 0.12575 0.0
C1210 C 0.75336 0.77168 0.10924 0.0
C1211 C 0.77074 0.73928 0.06179 0.0
C1212 C 0.76479 0.75053 0.07811 0.0
H1213 H 0.7517 0.82979 0.14523 0.0
H1214 H 0.75882 0.8114 0.11765 0.0
H1215 H 0.7626 0.74718 0.12316 0.0
H1216 H 0.80404 0.70758 0.04923 0.0
H1217 H 0.7958 0.72785 0.07544 0.0
C1218 C 0.03058 0.06744 0.09338 0.0
C1219 C 0.0359 0.0503 0.08406 0.0
C1220 C 0.02125 0.06654 0.10946 0.0
C1221 C 0.01707 0.03836 0.14802 0.0
H1222 H 0.96705 0.06004 0.15389 0.0
C1223 C 0.97217 0.0242 0.20916 0.0
C1224 C 0.96065 0.03872 0.21579 0.0
C1225 C 0.98169 0.02622 0.19332 0.0
C1226 C 0.9812 0.05424 0.15267 0.0
H1227 H 0.03496 0.01868 0.08426 0.0
H1228 H 0.0195 0.01735 0.1127 0.0
H1229 H 0.98303 0.06277 0.12579 0.0
H1230 H 0.95054 0.06702 0.21141 0.0
H1231 H 0.96787 0.07104 0.18425 0.0
H1232 H 0.01577 0.03034 0.17497 0.0
C1233 C 0.02258 0.03142 0.10746 0.0
C1234 C 0.99025 0.05571 0.13651 0.0
C1235 C 0.03154 0.03225 0.09122 0.0
C1236 C 0.9592 0.05551 0.20651 0.0
C1237 C 0.96903 0.05772 0.19085 0.0
C1238 C 0.00824 0.03721 0.16431 0.0
C1239 C 0.0174 0.04855 0.11671 0.0
C1240 C 0.00814 0.0476 0.134 0.0
C1241 C 0.98024 0.043 0.18392 0.0
C1242 C 0.99007 0.04494 0.16681 0.0
H1243 H 0.03397 0.08164 0.0885 0.0
H1244 H 0.01748 0.07995 0.11646 0.0
H1245 H 0.031 0.0322 0.14644 0.0
H1246 H 0.9734 0.011 0.21595 0.0
H1247 H 0.98983 0.01438 0.18828 0.0
C1248 C 0.26811 0.74727 0.15923 0.0
C1249 C 0.27798 0.75602 0.17537 0.0
C1250 C 0.26711 0.75765 0.14393 0.0
C1251 C 0.25709 0.78748 0.11766 0.0
H1252 H 0.30342 0.81925 0.10548 0.0
C1253 C 0.25314 0.84404 0.06524 0.0
C1254 C 0.26798 0.84488 0.05304 0.0
C1255 C 0.25462 0.8327 0.07983 0.0
C1256 C 0.29041 0.81033 0.10864 0.0
H1257 H 0.29452 0.78231 0.18828 0.0
H1258 H 0.2927 0.80053 0.16159 0.0
H1259 H 0.3056 0.80002 0.13148 0.0
H1260 H 0.2961 0.83458 0.04664 0.0
H1261 H 0.29867 0.81474 0.07219 0.0
H1262 H 0.24192 0.79768 0.09477 0.0
C1263 C 0.28591 0.78562 0.16068 0.0
C1264 C 0.2916 0.79948 0.12361 0.0
C1265 C 0.28684 0.77527 0.17597 0.0
C1266 C 0.28442 0.83425 0.05582 0.0
C1267 C 0.28594 0.82295 0.07048 0.0
C1268 C 0.25588 0.79839 0.10274 0.0
C1269 C 0.27604 0.77693 0.1445 0.0
C1270 C 0.27492 0.78802 0.12833 0.0
C1271 C 0.27101 0.82201 0.08259 0.0
C1272 C 0.27249 0.81 0.09813 0.0
H1273 H 0.26119 0.73241 0.15835 0.0
H1274 H 0.25956 0.75051 0.1316 0.0
H1275 H 0.24395 0.77891 0.12104 0.0
H1276 H 0.24029 0.85208 0.06351 0.0
H1277 H 0.24302 0.83248 0.08909 0.0
C1278 C 0.01745 0.48273 0.06711 0.0
C1279 C 0.99791 0.48751 0.06436 0.0
C1280 C 0.0254 0.48019 0.08436 0.0
C1281 C 0.02007 0.49303 0.13229 0.0
H1282 H 0.05134 0.44942 0.13891 0.0
C1283 C 0.05301 0.47801 0.20246 0.0
C1284 C 0.07268 0.47331 0.20335 0.0
C1285 C 0.04248 0.47832 0.1858 0.0
C1286 C 0.04278 0.46176 0.13727 0.0
H1287 H 0.97142 0.49341 0.07765 0.0
H1288 H 0.98546 0.48923 0.10789 0.0
H1289 H 0.03577 0.45317 0.10923 0.0
H1290 H 0.0966 0.46484 0.18746 0.0
H1291 H 0.07837 0.46566 0.15848 0.0
H1292 H 0.02742 0.50188 0.16022 0.0
C1293 C 0.9946 0.48753 0.09663 0.0
C1294 C 0.03385 0.46389 0.12027 0.0
C1295 C 0.98659 0.48998 0.07933 0.0
C1296 C 0.08145 0.46848 0.18726 0.0
C1297 C 0.07095 0.46884 0.17062 0.0
C1298 C 0.02908 0.49095 0.14929 0.0
C1299 C 0.01404 0.48247 0.09929 0.0
C1300 C 0.0226 0.47967 0.11756 0.0
C1301 C 0.05141 0.47396 0.16968 0.0
C1302 C 0.04073 0.47542 0.15193 0.0
H1303 H 0.0267 0.4811 0.05592 0.0
H1304 H 0.04055 0.47666 0.08604 0.0
H1305 H 0.01164 0.50544 0.13056 0.0
H1306 H 0.0458 0.48171 0.21461 0.0
H1307 H 0.02736 0.48204 0.18554 0.0
C1308 C 0.32635 0.69387 0.24745 0.0
C1309 C 0.31476 0.70888 0.2429 0.0
C1310 C 0.34399 0.69822 0.25826 0.0
C1311 C 0.38226 0.7387 0.27176 0.0
H1312 H 0.39712 0.70706 0.31016 0.0
C1313 C 0.44936 0.76232 0.32208 0.0
C1314 C 0.46127 0.74778 0.32719 0.0
C1315 C 0.43141 0.75724 0.31197 0.0
C1316 C 0.39329 0.7159 0.29934 0.0
H1317 H 0.31211 0.74008 0.24677 0.0
H1318 H 0.34288 0.74766 0.26553 0.0
H1319 H 0.36569 0.69864 0.2924 0.0
H1320 H 0.46372 0.71649 0.32564 0.0
H1321 H 0.43251 0.70765 0.30774 0.0
H1322 H 0.40984 0.75587 0.27853 0.0
C1323 C 0.33853 0.73258 0.26048 0.0
C1324 C 0.37528 0.71109 0.2892 0.0
C1325 C 0.32091 0.72824 0.24974 0.0
C1326 C 0.45485 0.72804 0.32196 0.0
C1327 C 0.43691 0.72297 0.3118 0.0
C1328 C 0.40027 0.74347 0.28184 0.0
C1329 C 0.35038 0.71766 0.26468 0.0
C1330 C 0.36955 0.72252 0.27537 0.0
C1331 C 0.42499 0.73751 0.30668 0.0
C1332 C 0.40595 0.73219 0.29581 0.0
H1333 H 0.3221 0.67884 0.24223 0.0
H1334 H 0.3529 0.68644 0.26116 0.0
H1335 H 0.37841 0.74757 0.26096 0.0
H1336 H 0.45382 0.77765 0.32598 0.0
H1337 H 0.42244 0.76879 0.30849 0.0
C1338 C 0.02603 0.42907 0.98594 0.0
C1339 C 0.00845 0.43822 0.98579 0.0
C1340 C 0.02764 0.41251 0.97424 0.0
C1341 C 0.99762 0.37188 0.94754 0.0
H1342 H 0.04615 0.36546 0.92425 0.0
C1343 C 0.00578 0.30704 0.89511 0.0
C1344 C 0.02363 0.29828 0.89636 0.0
C1345 C 0.0036 0.32441 0.90553 0.0
C1346 C 0.03257 0.36695 0.93079 0.0
H1347 H 0.97875 0.43742 0.97319 0.0
H1348 H 0.98161 0.40852 0.95259 0.0
H1349 H 0.04293 0.39553 0.943 0.0
H1350 H 0.05313 0.30081 0.90967 0.0
H1351 H 0.04926 0.33098 0.92797 0.0
H1352 H 0.98731 0.34323 0.93543 0.0
C1353 C 0.9941 0.41404 0.96189 0.0
C1354 C 0.03072 0.38419 0.94152 0.0
C1355 C 0.9925 0.43065 0.9736 0.0
C1356 C 0.03921 0.30721 0.90833 0.0
C1357 C 0.03704 0.32457 0.91874 0.0
C1358 C -0.00053 0.35463 0.93681 0.0
C1359 C 0.01167 0.40475 0.96214 0.0
C1360 C 0.01328 0.38679 0.95012 0.0
C1361 C 0.01923 0.3334 0.91742 0.0
C1362 C 0.01702 0.35192 0.92843 0.0
H1363 H 0.03849 0.4346 0.99529 0.0
H1364 H 0.04128 0.40555 0.97494 0.0
H1365 H 0.98409 0.37333 0.95418 0.0
H1366 H 0.99349 0.30056 0.88598 0.0
H1367 H 0.98977 0.33095 0.90407 0.0
C1368 C 0.66963 0.80098 0.23118 0.0
C1369 C 0.68626 0.81107 0.24102 0.0
C1370 C 0.65342 0.79384 0.24006 0.0
C1371 C 0.63956 0.77981 0.28447 0.0
H1372 H 0.58619 0.7852 0.26541 0.0
C1373 C 0.57193 0.76519 0.32546 0.0
C1374 C 0.55462 0.75551 0.31639 0.0
C1375 C 0.58798 0.77123 0.3159 0.0
C1376 C 0.60099 0.78335 0.27077 0.0
H1377 H 0.69896 0.82182 0.26769 0.0
H1378 H 0.6706 0.80949 0.28323 0.0
H1379 H 0.61417 0.79744 0.24939 0.0
H1380 H 0.54067 0.74441 0.29016 0.0
H1381 H 0.56882 0.75484 0.27347 0.0
H1382 H 0.62642 0.76579 0.30588 0.0
C1383 C 0.67016 0.80686 0.26871 0.0
C1384 C 0.61702 0.79038 0.26161 0.0
C1385 C 0.68633 0.81402 0.25983 0.0
C1386 C 0.55378 0.75187 0.29755 0.0
C1387 C 0.56985 0.75794 0.28797 0.0
C1388 C 0.62355 0.77277 0.29362 0.0
C1389 C 0.65355 0.79661 0.25893 0.0
C1390 C 0.63649 0.7888 0.26842 0.0
C1391 C 0.58711 0.76774 0.29705 0.0
C1392 C 0.60409 0.77458 0.28694 0.0
H1393 H 0.66913 0.79848 0.21664 0.0
H1394 H 0.64092 0.78585 0.23216 0.0
H1395 H 0.65437 0.77805 0.28989 0.0
H1396 H 0.57306 0.76829 0.33997 0.0
H1397 H 0.60094 0.77899 0.32328 0.0
C1398 C 0.06841 0.10784 0.98962 0.0
C1399 C 0.05486 0.10117 0.00161 0.0
C1400 C 0.06304 0.12056 0.97693 0.0
C1401 C 0.01978 0.13815 0.9531 0.0
H1402 H 0.05768 0.18103 0.94407 0.0
C1403 C 0.00013 0.20037 0.90941 0.0
C1404 C 0.01418 0.20663 0.89762 0.0
C1405 C 0.00464 0.18712 0.92193 0.0
C1406 C 0.04701 0.16901 0.94629 0.0
H1407 H 0.025 0.10246 0.00978 0.0
H1408 H 0.01565 0.12493 0.98773 0.0
H1409 H 0.06634 0.15885 0.96646 0.0
H1410 H 0.04385 0.20363 0.88951 0.0
H1411 H 0.05164 0.18046 0.91127 0.0
H1412 H 0.00043 0.14844 0.93294 0.0
C1413 C 0.03037 0.12014 0.98799 0.0
C1414 C 0.05197 0.15629 0.95912 0.0
C1415 C 0.03576 0.10737 0.00068 0.0
C1416 C 0.03272 0.19917 0.89844 0.0
C1417 C 0.03724 0.18597 0.91098 0.0
C1418 C 0.01481 0.15092 0.94027 0.0
C1419 C 0.04399 0.12692 0.976 0.0
C1420 C 0.03846 0.14065 0.96262 0.0
C1421 C 0.02331 0.17992 0.92296 0.0
C1422 C 0.02842 0.16642 0.93667 0.0
H1423 H 0.08319 0.10317 0.99002 0.0
H1424 H 0.07377 0.12525 0.96772 0.0
H1425 H 0.00914 0.12611 0.95532 0.0
H1426 H 0.98571 0.20585 0.90912 0.0
H1427 H 0.99367 0.18286 0.93108 0.0
C1428 C 0.37035 0.27089 0.25306 0.0
C1429 C 0.3501 0.27161 0.24873 0.0
C1430 C 0.38359 0.27092 0.23956 0.0
C1431 C 0.38741 0.25959 0.19126 0.0
H1432 H 0.4349 0.2956 0.19877 0.0
C1433 C 0.44249 0.26832 0.13605 0.0
C1434 C 0.46267 0.27032 0.14181 0.0
C1435 C 0.42816 0.26929 0.14861 0.0
C1436 C 0.42184 0.28529 0.19653 0.0
H1437 H 0.32764 0.27232 0.22688 0.0
H1438 H 0.35082 0.27213 0.20322 0.0
H1439 H 0.41113 0.29491 0.22176 0.0
H1440 H 0.48365 0.27492 0.16525 0.0
H1441 H 0.4588 0.27612 0.18705 0.0
H1442 H 0.39831 0.24958 0.16624 0.0
C1443 C 0.35644 0.27165 0.21707 0.0
C1444 C 0.40822 0.28494 0.20969 0.0
C1445 C 0.34321 0.27185 0.23061 0.0
C1446 C 0.46823 0.27346 0.16034 0.0
C1447 C 0.45395 0.27427 0.17287 0.0
C1448 C 0.40115 0.25979 0.17815 0.0
C1449 C 0.37678 0.27142 0.22145 0.0
C1450 C 0.39094 0.27201 0.20724 0.0
C1451 C 0.43373 0.27215 0.16719 0.0
C1452 C 0.41862 0.27254 0.18068 0.0
H1453 H 0.37599 0.27063 0.26694 0.0
H1454 H 0.39917 0.27049 0.24327 0.0
H1455 H 0.37427 0.24939 0.1891 0.0
H1456 H 0.43774 0.26596 0.12185 0.0
H1457 H 0.41274 0.26788 0.14374 0.0
C1458 C 0.55849 0.42238 0.99226 0.0
C1459 C 0.57763 0.43191 0.99568 0.0
C1460 C 0.55177 0.40778 0.00291 0.0
C1461 C 0.5692 0.37328 0.03442 0.0
H1462 H 0.5153 0.3713 0.04847 0.0
C1463 C 0.54059 0.32218 0.08631 0.0
C1464 C 0.52201 0.3117 0.08191 0.0
C1465 C 0.54725 0.33722 0.07612 0.0
C1466 C 0.53033 0.37157 0.04452 0.0
H1467 H 0.60474 0.43373 0.01279 0.0
H1468 H 0.59293 0.40837 0.03162 0.0
H1469 H 0.52736 0.39675 0.02996 0.0
H1470 H 0.4957 0.30903 0.06354 0.0
H1471 H 0.50737 0.33532 0.04574 0.0
H1472 H 0.57218 0.34814 0.04907 0.0
C1473 C 0.58321 0.41195 0.02055 0.0
C1474 C 0.53724 0.38612 0.0339 0.0
C1475 C 0.58995 0.42652 0.00985 0.0
C1476 C 0.51008 0.31682 0.06729 0.0
C1477 C 0.51672 0.33193 0.05714 0.0
C1478 C 0.56232 0.35878 0.0451 0.0
C1479 C 0.56401 0.40246 0.01723 0.0
C1480 C 0.55674 0.38711 0.02868 0.0
C1481 C 0.53545 0.34217 0.06136 0.0
C1482 C 0.5428 0.35775 0.05023 0.0
H1483 H 0.54866 0.42615 0.98137 0.0
H1484 H 0.53703 0.40054 -0.0002 0.0
H1485 H 0.5842 0.37344 0.03041 0.0
H1486 H 0.55012 0.31864 0.09753 0.0
H1487 H 0.56164 0.34503 0.07984 0.0
C1488 C 0.69226 0.21633 0.2315 0.0
C1489 C 0.69041 0.21656 0.25011 0.0
C1490 C 0.67611 0.21936 0.21987 0.0
C1491 C 0.62181 0.21757 0.21642 0.0
H1492 H 0.62964 0.2553 0.18114 0.0
C1493 C 0.55661 0.24894 0.17949 0.0
C1494 C 0.5579 0.25196 0.16121 0.0
C1495 C 0.5729 0.24373 0.18971 0.0
C1496 C 0.62724 0.24451 0.19073 0.0
H1497 H 0.67012 0.21957 0.27119 0.0
H1498 H 0.64198 0.22483 0.25092 0.0
H1499 H 0.65787 0.24714 0.19988 0.0
H1500 H 0.57727 0.25177 0.13927 0.0
H1501 H 0.60562 0.24237 0.15704 0.0
H1502 H 0.5912 0.2149 0.20732 0.0
C1503 C 0.65587 0.22228 0.24528 0.0
C1504 C 0.64341 0.23985 0.20146 0.0
C1505 C 0.67203 0.2194 0.25689 0.0
C1506 C 0.57583 0.24965 0.15336 0.0
C1507 C 0.59211 0.24434 0.16356 0.0
C1508 C 0.60565 0.22214 0.20563 0.0
C1509 C 0.65778 0.22247 0.22667 0.0
C1510 C 0.64082 0.22649 0.21455 0.0
C1511 C 0.59082 0.24131 0.18185 0.0
C1512 C 0.60814 0.23583 0.19279 0.0
H1513 H 0.70628 0.21409 0.22597 0.0
H1514 H 0.67795 0.21924 0.20557 0.0
H1515 H 0.61943 0.20701 0.22624 0.0
H1516 H 0.54303 0.25068 0.18597 0.0
H1517 H 0.5715 0.24184 0.20384 0.0
C1518 C 0.48562 0.06854 0.01828 0.0
C1519 C 0.4848 0.06893 -0.00054 0.0
C1520 C 0.48846 0.08591 0.02952 0.0
C1521 C 0.50607 0.13824 0.03119 0.0
H1522 H 0.47282 0.14277 0.07128 0.0
C1523 C 0.50369 0.21087 0.07523 0.0
C1524 C 0.50369 0.20964 0.09392 0.0
C1525 C 0.5011 0.19393 0.06335 0.0
C1526 C 0.48235 0.14167 0.06026 0.0
H1527 H 0.48674 0.08783 0.97768 0.0
H1528 H 0.49181 0.11825 0.99737 0.0
H1529 H 0.46964 0.11273 0.05126 0.0
H1530 H 0.50074 0.18966 0.11481 0.0
H1531 H 0.49639 0.16014 0.09413 0.0
H1532 H 0.51884 0.16718 0.04026 0.0
C1533 C 0.49037 0.10447 0.0034 0.0
C1534 C 0.48054 0.12445 0.0488 0.0
C1535 C 0.4875 0.08706 0.99213 0.0
C1536 C 0.50076 0.19113 0.10048 0.0
C1537 C 0.49817 0.1742 0.08861 0.0
C1538 C 0.5079 0.15547 0.04269 0.0
C1539 C 0.49058 0.10407 0.02221 0.0
C1540 C 0.49245 0.12251 0.0342 0.0
C1541 C 0.49842 0.1754 0.06993 0.0
C1542 C 0.49613 0.15733 0.0574 0.0
H1543 H 0.48395 0.05478 0.02433 0.0
H1544 H 0.48896 0.08511 0.04397 0.0
H1545 H 0.51557 0.1371 0.02015 0.0
H1546 H 0.50585 0.22492 0.06974 0.0
H1547 H 0.50108 0.19535 0.04902 0.0
C1548 C 0.25836 0.38302 0.68755 0.0
C1549 C 0.25546 0.3696 0.70053 0.0
C1550 C 0.27055 0.40039 0.69179 0.0
C1551 C 0.29605 0.43301 0.73006 0.0
H1552 H 0.33146 0.44805 0.69391 0.0
C1553 C 0.36529 0.48802 0.74576 0.0
C1554 C 0.36891 0.50201 0.73339 0.0
C1555 C 0.35026 0.47281 0.74186 0.0
C1556 C 0.32151 0.44418 0.70406 0.0
H1557 H 0.26265 0.36395 0.72819 0.0
H1558 H 0.28424 0.39413 0.73556 0.0
H1559 H 0.30703 0.41999 0.68704 0.0
H1560 H 0.35956 0.51107 0.70727 0.0
H1561 H 0.3334 0.48439 0.70043 0.0
H1562 H 0.31101 0.45698 0.74722 0.0
C1563 C 0.27683 0.39146 0.7222 0.0
C1564 C 0.30745 0.42812 0.70012 0.0
C1565 C 0.2645 0.37414 0.71799 0.0
C1566 C 0.35716 0.5005 0.71706 0.0
C1567 C 0.34224 0.48519 0.71311 0.0
C1568 C 0.31023 0.44899 0.73404 0.0
C1569 C 0.28025 0.40465 0.70906 0.0
C1570 C 0.2946 0.42228 0.71309 0.0
C1571 C 0.33865 0.47119 0.72547 0.0
C1572 C 0.32316 0.45467 0.7211 0.0
H1573 H 0.25134 0.37997 0.67405 0.0
H1574 H 0.27251 0.41041 0.68146 0.0
H1575 H 0.28619 0.4291 0.74026 0.0
H1576 H 0.37406 0.4888 0.75848 0.0
H1577 H 0.34797 0.4621 0.75155 0.0
C1578 C 0.2755 0.68681 0.79028 0.0
C1579 C 0.26536 0.68749 0.80608 0.0
C1580 C 0.29075 0.67471 0.78827 0.0
C1581 C 0.30937 0.6305 0.80478 0.0
H1582 H 0.35736 0.64832 0.78337 0.0
C1583 C 0.37416 0.58277 0.79986 0.0
C1584 C 0.38291 0.58158 0.78333 0.0
C1585 C 0.36108 0.59681 0.80359 0.0
C1586 C 0.34398 0.64309 0.78925 0.0
H1587 H 0.26323 0.67601 0.83215 0.0
H1588 H 0.29003 0.65506 0.82872 0.0
H1589 H 0.33188 0.67065 0.78799 0.0
H1590 H 0.38527 0.59457 0.75796 0.0
H1591 H 0.36224 0.61893 0.76439 0.0
H1592 H 0.32127 0.6029 0.80582 0.0
C1593 C 0.28609 0.66378 0.81784 0.0
C1594 C 0.3294 0.65587 0.79189 0.0
C1595 C 0.27087 0.67591 0.81987 0.0
C1596 C 0.37878 0.59512 0.77083 0.0
C1597 C 0.36565 0.60914 0.77455 0.0
C1598 C 0.32392 0.61774 0.80212 0.0
C1599 C 0.29614 0.663 0.80199 0.0
C1600 C 0.31191 0.64968 0.79961 0.0
C1601 C 0.35642 0.60995 0.79086 0.0
C1602 C 0.34136 0.62385 0.79426 0.0
H1603 H 0.27172 0.69572 0.7795 0.0
H1604 H 0.2981 0.67428 0.77583 0.0
H1605 H 0.29592 0.6252 0.8105 0.0
H1606 H 0.37715 0.57265 0.80984 0.0
H1607 H 0.35448 0.59728 0.81641 0.0
C1608 C 0.92847 0.49838 0.47096 0.0
C1609 C 0.94284 0.50685 0.48435 0.0
C1610 C 0.91233 0.48625 0.47548 0.0
C1611 C 0.883 0.47623 0.51391 0.0
H1612 H 0.86172 0.42994 0.48332 0.0
C1613 C 0.81831 0.4239 0.53342 0.0
C1614 C 0.80369 0.41711 0.51964 0.0
C1615 C 0.83589 0.43418 0.52942 0.0
C1616 C 0.8674 0.44292 0.49192 0.0
H1617 H 0.95206 0.50854 0.51283 0.0
H1618 H 0.92393 0.48732 0.5207 0.0
H1619 H 0.89167 0.44865 0.47569 0.0
H1620 H 0.79599 0.41588 0.49087 0.0
H1621 H 0.8265 0.43396 0.48397 0.0
H1622 H 0.85865 0.47062 0.53005 0.0
C1623 C 0.92492 0.49036 0.50677 0.0
C1624 C 0.88455 0.45362 0.48755 0.0
C1625 C 0.94104 0.50249 0.50226 0.0
C1626 C 0.80698 0.42087 0.50181 0.0
C1627 C 0.82453 0.43111 0.49782 0.0
C1628 C 0.86585 0.46553 0.51828 0.0
C1629 C 0.91024 0.48232 0.49347 0.0
C1630 C 0.89247 0.47046 0.49844 0.0
C1631 C 0.8392 0.43785 0.51157 0.0
C1632 C 0.85779 0.44883 0.50726 0.0
H1633 H 0.92934 0.50165 0.45708 0.0
H1634 H 0.90116 0.48047 0.46495 0.0
H1635 H 0.88854 0.48931 0.52243 0.0
H1636 H 0.81626 0.42119 0.54729 0.0
H1637 H 0.84699 0.43902 0.54029 0.0
C1638 C 0.75898 0.82414 0.79272 0.0
C1639 C 0.76231 0.81113 0.77797 0.0
C1640 C 0.74613 0.83861 0.79069 0.0
C1641 C 0.70452 0.85208 0.76192 0.0
H1642 H 0.7209 0.90447 0.78397 0.0
C1643 C 0.6609 0.91852 0.74881 0.0
C1644 C 0.65935 0.93222 0.76355 0.0
C1645 C 0.67312 0.90339 0.75036 0.0
C1646 C 0.71598 0.88987 0.77792 0.0
H1647 H 0.75456 0.80289 0.74958 0.0
H1648 H 0.73212 0.82834 0.74598 0.0
H1649 H 0.74283 0.87869 0.78702 0.0
H1650 H 0.66908 0.94054 0.79159 0.0
H1651 H 0.69011 0.91402 0.79438 0.0
H1652 H 0.6776 0.86325 0.75291 0.0
C1653 C 0.73941 0.82724 0.75914 0.0
C1654 C 0.72857 0.87511 0.77965 0.0
C1655 C 0.75237 0.8128 0.76116 0.0
C1656 C 0.67004 0.93031 0.77994 0.0
C1657 C 0.6822 0.91516 0.78151 0.0
C1658 C 0.69187 0.86685 0.76024 0.0
C1659 C 0.73627 0.84037 0.77387 0.0
C1660 C 0.72295 0.85605 0.77173 0.0
C1661 C 0.68401 0.90162 0.7667 0.0
C1662 C 0.69744 0.8859 0.76829 0.0
H1663 H 0.76659 0.82335 0.8058 0.0
H1664 H 0.74385 0.84839 0.80233 0.0
H1665 H 0.69971 0.83747 0.75583 0.0
H1666 H 0.65289 0.91961 0.73597 0.0
H1667 H 0.67435 0.89333 0.73865 0.0
C1668 C 0.60602 0.53839 0.96866 0.0
C1669 C 0.60966 0.51866 0.96597 0.0
C1670 C 0.6215 0.55278 0.97406 0.0
C1671 C 0.67362 0.55975 0.99345 0.0
H1672 H 0.67352 0.60931 0.97226 0.0
C1673 C 0.7422 0.61601 0.99542 0.0
C1674 C 0.73922 0.63574 -0.00029 0.0
C1675 C 0.72613 0.60175 0.99265 0.0
C1676 C 0.67363 0.59561 0.97842 0.0
H1677 H 0.63222 0.49843 0.96673 0.0
H1678 H 0.65938 0.52356 0.97568 0.0
H1679 H 0.64595 0.58434 0.96475 0.0
H1680 H 0.71709 0.65595 0.00466 0.0
H1681 H 0.68903 0.63104 -0.0004 0.0
H1682 H 0.70168 0.57097 0.00667 0.0
C1683 C 0.64454 0.52794 0.9741 0.0
C1684 C 0.65781 0.58131 0.97418 0.0
C1685 C 0.62902 0.51354 0.9689 0.0
C1686 C 0.71987 0.64088 0.00137 0.0
C1687 C 0.70381 0.62666 -0.00161 0.0
C1688 C 0.68955 0.574 0.99753 0.0
C1689 C 0.641 0.54776 0.97667 0.0
C1690 C 0.65762 0.56317 0.9816 0.0
C1691 C 0.70678 0.60698 0.99392 0.0
C1692 C 0.68971 0.59204 0.99002 0.0
H1693 H 0.59117 0.54268 0.96671 0.0
H1694 H 0.61816 0.56784 0.97625 0.0
H1695 H 0.67382 0.5461 -0.00034 0.0
H1696 H 0.75693 0.61158 0.99409 0.0
H1697 H 0.72881 0.5867 0.98908 0.0
C1698 C 0.23189 0.66762 0.22016 0.0
C1699 C 0.2524 0.66645 0.22191 0.0
C1700 C 0.21878 0.65121 0.22187 0.0
C1701 C 0.21556 0.59724 0.2197 0.0
H1702 H 0.16921 0.60306 0.24646 0.0
C1703 C 0.1662 0.53097 0.23921 0.0
C1704 C 0.14565 0.53188 0.23722 0.0
C1705 C 0.17915 0.54744 0.23728 0.0
C1706 C 0.18197 0.60124 0.23878 0.0
H1707 H 0.27523 0.64704 0.22661 0.0
H1708 H 0.25236 0.6185 0.22996 0.0
H1709 H 0.19197 0.63171 0.24312 0.0
H1710 H 0.12259 0.55082 0.23171 0.0
H1711 H 0.14521 0.57953 0.22826 0.0
H1712 H 0.20558 0.56676 0.21543 0.0
C1713 C 0.24641 0.63207 0.22708 0.0
C1714 C 0.19501 0.61764 0.23686 0.0
C1715 C 0.25951 0.64848 0.22537 0.0
C1716 C 0.13834 0.54964 0.23336 0.0
C1717 C 0.15129 0.56612 0.23147 0.0
C1718 C 0.20254 0.58083 0.22165 0.0
C1719 C 0.22589 0.63325 0.22537 0.0
C1720 C 0.21196 0.61583 0.22731 0.0
C1721 C 0.17184 0.56519 0.23336 0.0
C1722 C 0.18562 0.58265 0.23123 0.0
H1723 H 0.22594 0.68131 0.21767 0.0
H1724 H 0.20306 0.65256 0.22029 0.0
H1725 H 0.22831 0.5954 0.21202 0.0
H1726 H 0.17232 0.51753 0.24223 0.0
H1727 H 0.1949 0.54633 0.23905 0.0
C1728 C 0.95726 0.53209 0.00621 0.0
C1729 C 0.9558 0.52191 0.02172 0.0
C1730 C 0.9451 0.54694 0.00307 0.0
C1731 C 0.91462 0.58147 0.02597 0.0
H1732 H 0.88871 0.58271 0.97833 0.0
C1733 C 0.85021 0.6284 0.01217 0.0
C1734 C 0.8489 0.63703 0.99578 0.0
C1735 C 0.86449 0.61555 0.0155 0.0
C1736 C 0.89607 0.58279 0.99164 0.0
H1737 H 0.94024 0.51924 0.04597 0.0
H1738 H 0.91916 0.54528 0.04054 0.0
H1739 H 0.9112 0.55788 0.98375 0.0
H1740 H 0.86202 0.63947 0.97026 0.0
H1741 H 0.88718 0.6173 0.9762 0.0
H1742 H 0.89948 0.60635 0.03389 0.0
C1743 C 0.92988 0.5419 0.03093 0.0
C1744 C 0.90893 0.56852 0.99474 0.0
C1745 C 0.94196 0.52699 0.03404 0.0
C1746 C 0.86255 0.63296 0.98298 0.0
C1747 C 0.87689 0.62016 0.98634 0.0
C1748 C 0.90183 0.5958 0.02285 0.0
C1749 C 0.93129 0.55201 0.0154 0.0
C1750 C 0.91821 0.56761 0.01197 0.0
C1751 C 0.87787 0.6111 0.00254 0.0
C1752 C 0.89227 0.59653 0.00568 0.0
H1753 H 0.96799 0.52877 0.99661 0.0
H1754 H 0.9467 0.55464 0.99109 0.0
H1755 H 0.9218 0.58131 0.03932 0.0
H1756 H 0.83989 0.63118 0.02231 0.0
H1757 H 0.86466 0.60866 0.02803 0.0
C1758 C 0.10371 0.03197 0.03674 0.0
C1759 C 0.0858 0.02537 0.04354 0.0
C1760 C 0.11764 0.0189 0.03261 0.0
C1761 C 0.13261 0.97026 0.0419 0.0
H1762 H 0.16095 0.9752 -0.00113 0.0
C1763 C 0.19939 0.92712 0.02775 0.0
C1764 C 0.20101 0.91941 0.00994 0.0
C1765 C 0.18516 0.93989 0.03169 0.0
C1766 C 0.15304 0.97351 0.01085 0.0
H1767 H 0.06834 -0.0001 0.05119 0.0
H1768 H 0.0926 0.97704 0.04388 0.0
H1769 H 0.13618 0.99754 0.00592 0.0
H1770 H 0.18889 0.91902 0.98231 0.0
H1771 H 0.16384 0.94114 0.98923 0.0
H1772 H 0.14916 0.94598 0.04662 0.0
C1773 C 0.09604 0.99237 0.04202 0.0
C1774 C 0.13902 0.98647 0.01501 0.0
C1775 C 0.08213 0.00545 0.04619 0.0
C1776 C 0.18807 0.92476 0.99616 0.0
C1777 C 0.17378 0.93751 0.00011 0.0
C1778 C 0.14661 0.95729 0.03772 0.0
C1779 C 0.11393 -0.00106 0.03514 0.0
C1780 C 0.12869 0.98503 0.03062 0.0
C1781 C 0.17216 0.94521 0.01793 0.0
C1782 C 0.15704 0.9588 0.02218 0.0
H1783 H 0.10707 0.04729 0.0348 0.0
H1784 H 0.13142 0.0245 0.02764 0.0
H1785 H 0.12505 0.96887 0.05411 0.0
H1786 H 0.20919 0.92338 0.03868 0.0
H1787 H 0.18451 0.9458 0.04551 0.0
loop_
_geom_bond_atom_site_label_1
_geom_bond_atom_site_label_2
_geom_bond_distance
_geom_bond_site_symmetry_2
_ccdc_geom_bond_type
H0 C5 0.930 . S
H1 C8 0.930 . S
H2 C10 0.930 . S
H3 C4 1.016 . S
C4 H3 1.016 . S
C4 N11 1.286 . S
C5 H0 0.930 . S
C5 C6 1.397 . S
C5 C7 1.361 . S
C6 C5 1.397 . S
C6 C10 1.390 . S
C7 C5 1.361 . S
C7 C8 1.393 . S
C7 N11 1.413 . S
C8 H1 0.930 . S
C8 C7 1.393 . S
C8 C9 1.399 . S
C9 C8 1.399 . S
C9 C10 1.381 . S
C10 H2 0.930 . S
C10 C6 1.390 . S
C10 C9 1.381 . S
N11 C4 1.286 . S
N11 C7 1.413 . S
H12 C17 0.930 . S
H13 C20 0.930 . S
H14 C22 0.930 . S
H15 C16 1.016 . S
C16 H15 1.016 . S
C16 N23 1.286 . S
C17 H12 0.930 . S
C17 C18 1.397 . S
C17 C19 1.361 . S
C18 C17 1.397 . S
C18 C22 1.390 . S
C19 C17 1.361 . S
C19 C20 1.393 . S
C19 N23 1.413 . S
C20 H13 0.930 . S
C20 C19 1.393 . S
C20 C21 1.399 . S
C21 C20 1.399 . S
C21 C22 1.381 . S
C22 H14 0.930 . S
C22 C18 1.390 . S
C22 C21 1.381 . S
N23 C16 1.286 . S
N23 C19 1.413 . S
H24 C29 0.930 . S
H25 C32 0.930 . S
H26 C34 0.930 . S
H27 C28 1.016 . S
C28 H27 1.016 . S
C28 N35 1.286 . S
C29 H24 0.930 . S
C29 C30 1.397 . S
C29 C31 1.361 . S
C30 C29 1.397 . S
C30 C34 1.390 . S
C31 C29 1.361 . S
C31 C32 1.393 . S
C31 N35 1.413 . S
C32 H25 0.930 . S
C32 C31 1.393 . S
C32 C33 1.399 . S
C33 C32 1.399 . S
C33 C34 1.381 . S
C34 H26 0.930 . S
C34 C30 1.390 . S
C34 C33 1.381 . S
N35 C28 1.286 . S
N35 C31 1.413 . S
H36 C41 0.930 . S
H37 C44 0.930 . S
H38 C46 0.930 . S
H39 C40 1.016 . S
C40 H39 1.016 . S
C40 N47 1.286 . S
C41 H36 0.930 . S
C41 C42 1.397 . S
C41 C43 1.361 . S
C42 C41 1.397 . S
C42 C46 1.390 . S
C43 C41 1.361 . S
C43 C44 1.393 . S
C43 N47 1.413 . S
C44 H37 0.930 . S
C44 C43 1.393 . S
C44 C45 1.399 . S
C45 C44 1.399 . S
C45 C46 1.381 . S
C46 H38 0.930 . S
C46 C42 1.390 . S
C46 C45 1.381 . S
N47 C40 1.286 . S
N47 C43 1.413 . S
H48 C53 0.930 . S
H49 C56 0.930 . S
H50 C58 0.930 . S
H51 C52 1.016 . S
C52 H51 1.016 . S
C52 N59 1.286 . S
C53 H48 0.930 . S
C53 C54 1.397 . S
C53 C55 1.361 . S
C54 C53 1.397 . S
C54 C58 1.390 1_565 S
C55 C53 1.361 . S
C55 C56 1.393 . S
C55 N59 1.413 . S
C56 H49 0.930 . S
C56 C55 1.393 . S
C56 C57 1.417 . S
C57 C56 1.417 . S
C57 C58 1.375 1_565 S
C58 H50 0.930 . S
C58 C54 1.390 1_545 S
C58 C57 1.375 1_545 S
N59 C52 1.286 . S
N59 C55 1.413 . S
H60 C65 0.930 . S
H61 C68 0.930 . S
H62 C70 0.930 . S
H63 C64 1.016 . S
C64 H63 1.016 . S
C64 N71 1.286 . S
C65 H60 0.930 . S
C65 C66 1.397 . S
C65 C67 1.361 . S
C66 C65 1.397 . S
C66 C70 1.390 . S
C67 C65 1.361 . S
C67 C68 1.393 . S
C67 N71 1.413 . S
C68 H61 0.930 . S
C68 C67 1.393 . S
C68 C69 1.399 . S
C69 C68 1.399 . S
C69 C70 1.381 . S
C70 H62 0.930 . S
C70 C66 1.390 . S
C70 C69 1.381 . S
N71 C64 1.286 . S
N71 C67 1.413 . S
H72 C77 0.930 1_455 S
H73 C80 0.930 . S
H74 C82 0.930 . S
H75 C76 1.008 1_655 S
C76 H75 1.008 1_455 S
C76 N83 1.290 . S
C77 H72 0.930 1_655 S
C77 C78 1.397 . S
C77 C79 1.361 . S
C78 C77 1.397 . S
C78 C82 1.390 . S
C79 C77 1.361 . S
C79 C80 1.393 . S
C79 N83 1.406 1_655 S
C80 H73 0.930 . S
C80 C79 1.393 . S
C80 C81 1.399 . S
C81 C80 1.399 . S
C81 C82 1.381 . S
C82 H74 0.930 . S
C82 C78 1.390 . S
C82 C81 1.381 . S
N83 C76 1.290 . S
N83 C79 1.406 1_455 S
H84 C89 0.930 . S
H85 C92 0.930 . S
H86 C94 0.930 . S
H87 C88 1.016 . S
C88 H87 1.016 . S
C88 N95 1.286 . S
C89 H84 0.930 . S
C89 C90 1.397 . S
C89 C91 1.361 . S
C90 C89 1.397 . S
C90 C94 1.390 . S
C91 C89 1.361 . S
C91 C92 1.393 . S
C91 N95 1.413 . S
C92 H85 0.930 . S
C92 C91 1.393 . S
C92 C93 1.399 . S
C93 C92 1.399 . S
C93 C94 1.381 . S
C94 H86 0.930 . S
C94 C90 1.390 . S
C94 C93 1.381 . S
N95 C88 1.286 . S
N95 C91 1.413 . S
H96 C101 0.930 . S
H97 C104 0.930 . S
H98 C106 0.930 . S
H99 C100 1.016 . S
C100 H99 1.016 . S
C100 N107 1.286 . S
C101 H96 0.930 . S
C101 C102 1.397 . S
C101 C103 1.361 . S
C102 C101 1.397 . S
C102 C106 1.390 . S
C103 C101 1.361 . S
C103 C104 1.393 . S
C103 N107 1.413 . S
C104 H97 0.930 . S
C104 C103 1.393 . S
C104 C105 1.399 . S
C105 C104 1.399 . S
C105 C106 1.381 . S
C106 H98 0.930 . S
C106 C102 1.390 . S
C106 C105 1.381 . S
N107 C100 1.286 . S
N107 C103 1.413 . S
H108 C113 0.930 . S
H109 C116 0.930 . S
H110 C118 0.930 1_545 S
H111 C112 1.016 . S
C112 H111 1.016 . S
C112 N119 1.286 . S
C113 H108 0.930 . S
C113 C114 1.397 . S
C113 C115 1.361 . S
C114 C113 1.397 . S
C114 C118 1.390 . S
C115 C113 1.361 . S
C115 C116 1.393 . S
C115 N119 1.413 . S
C116 H109 0.930 . S
C116 C115 1.393 . S
C116 C117 1.399 . S
C117 C116 1.399 . S
C117 C118 1.381 . S
C118 H110 0.930 1_565 S
C118 C114 1.390 . S
C118 C117 1.381 . S
N119 C112 1.286 . S
N119 C115 1.413 . S
H120 C125 0.930 . S
H121 C128 0.930 . S
H122 C130 0.930 . S
H123 C124 1.016 . S
C124 H123 1.016 . S
C124 N131 1.286 . S
C125 H120 0.930 . S
C125 C126 1.397 . S
C125 C127 1.361 . S
C126 C125 1.397 . S
C126 C130 1.390 . S
C127 C125 1.361 . S
C127 C128 1.393 . S
C127 N131 1.413 . S
C128 H121 0.930 . S
C128 C127 1.393 . S
C128 C129 1.399 . S
C129 C128 1.399 . S
C129 C130 1.381 . S
C130 H122 0.930 . S
C130 C126 1.390 . S
C130 C129 1.381 . S
N131 C124 1.286 . S
N131 C127 1.413 . S
H132 C137 0.930 . S
H133 C140 0.930 . S
H134 C142 0.930 . S
H135 C136 1.016 . S
C136 H135 1.016 . S
C136 N143 1.286 . S
C137 H132 0.930 . S
C137 C138 1.397 . S
C137 C139 1.361 . S
C138 C137 1.397 . S
C138 C142 1.390 . S
C139 C137 1.361 . S
C139 C140 1.393 . S
C139 N143 1.413 . S
C140 H133 0.930 . S
C140 C139 1.393 . S
C140 C141 1.399 . S
C141 C140 1.399 . S
C141 C142 1.381 . S
C142 H134 0.930 . S
C142 C138 1.390 . S
C142 C141 1.381 . S
N143 C136 1.286 . S
N143 C139 1.413 . S
H144 C149 0.930 . S
H145 C152 0.930 . S
H146 C154 0.930 . S
H147 C148 1.016 . S
C148 H147 1.016 . S
C148 N155 1.286 . S
C149 H144 0.930 . S
C149 C150 1.397 . S
C149 C151 1.361 . S
C150 C149 1.397 . S
C150 C154 1.390 . S
C151 C149 1.361 . S
C151 C152 1.393 . S
C151 N155 1.413 . S
C152 H145 0.930 . S
C152 C151 1.393 . S
C152 C153 1.399 . S
C153 C152 1.399 . S
C153 C154 1.381 . S
C154 H146 0.930 . S
C154 C150 1.390 . S
C154 C153 1.381 . S
N155 C148 1.286 . S
N155 C151 1.413 . S
H156 C161 0.930 . S
H157 C164 0.930 . S
H158 C166 0.930 . S
H159 C160 1.016 . S
C160 H159 1.016 . S
C160 N167 1.286 . S
C161 H156 0.930 . S
C161 C162 1.397 . S
C161 C163 1.361 . S
C162 C161 1.397 . S
C162 C166 1.390 . S
C163 C161 1.361 . S
C163 C164 1.393 . S
C163 N167 1.413 . S
C164 H157 0.930 . S
C164 C163 1.393 . S
C164 C165 1.399 . S
C165 C164 1.399 . S
C165 C166 1.381 . S
C166 H158 0.930 . S
C166 C162 1.390 . S
C166 C165 1.381 . S
N167 C160 1.286 . S
N167 C163 1.413 . S
H168 C173 0.930 . S
H169 C176 0.930 . S
H170 C178 0.930 . S
H171 C172 1.016 . S
C172 H171 1.016 . S
C172 N179 1.286 . S
C173 H168 0.930 . S
C173 C174 1.397 . S
C173 C175 1.361 . S
C174 C173 1.397 . S
C174 C178 1.390 . S
C175 C173 1.361 . S
C175 C176 1.393 . S
C175 N179 1.413 . S
C176 H169 0.930 . S
C176 C175 1.393 . S
C176 C177 1.399 . S
C177 C176 1.399 . S
C177 C178 1.381 . S
C178 H170 0.930 . S
C178 C174 1.390 . S
C178 C177 1.381 . S
N179 C172 1.286 . S
N179 C175 1.413 . S
H180 C185 0.930 . S
H181 C188 0.930 . S
H182 C190 0.930 . S
H183 C184 1.016 . S
C184 H183 1.016 . S
C184 N191 1.286 . S
C185 H180 0.930 . S
C185 C186 1.397 . S
C185 C187 1.361 . S
C186 C185 1.397 . S
C186 C190 1.390 . S
C187 C185 1.361 . S
C187 C188 1.393 . S
C187 N191 1.413 . S
C188 H181 0.930 . S
C188 C187 1.393 . S
C188 C189 1.399 . S
C189 C188 1.399 . S
C189 C190 1.381 . S
C190 H182 0.930 . S
C190 C186 1.390 . S
C190 C189 1.381 . S
N191 C184 1.286 . S
N191 C187 1.413 . S
C192 O193 1.160 . S
C192 O199 1.185 . S
O193 C192 1.160 . S
O194 Zn195 1.899 . S
O194 C202 1.284 1_554 S
Zn195 O194 1.899 . S
Zn195 O196 2.032 . S
Zn195 O199 2.086 . S
Zn195 O204 1.977 . S
O196 Zn195 2.032 . S
O196 C200 1.278 . S
C197 O198 1.203 . S
C197 O204 1.267 . S
O198 C197 1.203 . S
O199 C192 1.185 . S
O199 Zn195 2.086 . S
C200 O196 1.278 . S
C200 O201 1.211 . S
O201 C200 1.211 . S
C202 O194 1.284 1_556 S
C202 O203 1.273 . S
O203 C202 1.273 . S
O204 Zn195 1.977 . S
O204 C197 1.267 . S
C205 O206 1.160 . S
C205 O212 1.185 . S
O206 C205 1.160 . S
O207 Zn208 1.899 . S
O207 C215 1.284 . S
Zn208 O207 1.899 . S
Zn208 O209 2.032 . S
Zn208 O212 2.086 . S
Zn208 O217 1.977 . S
O209 Zn208 2.032 . S
O209 C213 1.278 . S
C210 O211 1.203 . S
C210 O217 1.267 . S
O211 C210 1.203 . S
O212 C205 1.185 . S
O212 Zn208 2.086 . S
C213 O209 1.278 . S
C213 O214 1.211 . S
O214 C213 1.211 . S
C215 O207 1.284 . S
C215 O216 1.273 . S
O216 C215 1.273 . S
O217 Zn208 1.977 . S
O217 C210 1.267 . S
C218 O219 1.160 1_554 S
C218 O225 1.185 . S
O219 C218 1.160 1_556 S
O220 Zn221 1.899 1_556 S
O220 C228 1.284 . S
Zn221 O220 1.899 1_554 S
Zn221 O222 2.032 1_554 S
Zn221 O225 2.086 . S
Zn221 O230 1.977 . S
O222 Zn221 2.032 1_556 S
O222 C226 1.278 . S
C223 O224 1.203 . S
C223 O230 1.267 . S
O224 C223 1.203 . S
O225 C218 1.185 . S
O225 Zn221 2.086 . S
C226 O222 1.278 . S
C226 O227 1.211 1_556 S
O227 C226 1.211 1_554 S
C228 O220 1.284 . S
C228 O229 1.273 . S
O229 C228 1.273 . S
O230 Zn221 1.977 . S
O230 C223 1.267 . S
C231 O232 1.160 . S
C231 O238 1.185 . S
O232 C231 1.160 . S
O233 Zn234 1.899 . S
O233 C241 1.284 . S
Zn234 O233 1.899 . S
Zn234 O235 2.032 . S
Zn234 O238 2.086 . S
Zn234 O243 1.977 . S
O235 Zn234 2.032 . S
O235 C239 1.278 . S
C236 O237 1.203 . S
C236 O243 1.267 . S
O237 C236 1.203 . S
O238 C231 1.185 . S
O238 Zn234 2.086 . S
C239 O235 1.278 . S
C239 O240 1.211 1_545 S
O240 C239 1.211 1_565 S
C241 O233 1.284 . S
C241 O242 1.273 . S
O242 C241 1.273 . S
O243 Zn234 1.977 . S
O243 C236 1.267 . S
C244 O245 1.160 . S
C244 O251 1.185 . S
O245 C244 1.160 . S
O246 Zn247 1.899 . S
O246 C254 1.284 . S
Zn247 O246 1.899 . S
Zn247 O248 2.032 . S
Zn247 O251 2.086 . S
Zn247 O256 1.977 . S
O248 Zn247 2.032 . S
O248 C252 1.278 . S
C249 O250 1.203 . S
C249 O256 1.267 . S
O250 C249 1.203 . S
O251 C244 1.185 . S
O251 Zn247 2.086 . S
C252 O248 1.278 . S
C252 O253 1.211 . S
O253 C252 1.211 . S
C254 O246 1.284 . S
C254 O255 1.273 . S
O255 C254 1.273 . S
O256 Zn247 1.977 . S
O256 C249 1.267 . S
C257 O258 1.160 . S
C257 O264 1.185 . S
O258 C257 1.160 . S
O259 Zn260 1.899 . S
O259 C267 1.284 . S
Zn260 O259 1.899 . S
Zn260 O261 2.032 . S
Zn260 O264 2.086 . S
Zn260 O269 1.977 . S
O261 Zn260 2.032 . S
O261 C265 1.278 . S
C262 O263 1.203 . S
C262 O269 1.267 . S
O263 C262 1.203 . S
O264 C257 1.185 . S
O264 Zn260 2.086 . S
C265 O261 1.278 . S
C265 O266 1.211 . S
O266 C265 1.211 . S
C267 O259 1.284 . S
C267 O268 1.273 . S
O268 C267 1.273 . S
O269 Zn260 1.977 . S
O269 C262 1.267 . S
C270 O271 1.160 . S
C270 O277 1.185 . S
O271 C270 1.160 . S
O272 Zn273 1.899 . S
O272 C280 1.284 . S
Zn273 O272 1.899 . S
Zn273 O274 2.032 . S
Zn273 O277 2.086 . S
Zn273 O282 1.977 . S
O274 Zn273 2.032 . S
O274 C278 1.278 . S
C275 O276 1.203 . S
C275 O282 1.267 . S
O276 C275 1.203 . S
O277 C270 1.185 . S
O277 Zn273 2.086 . S
C278 O274 1.278 . S
C278 O279 1.211 . S
O279 C278 1.211 . S
C280 O272 1.284 . S
C280 O281 1.273 . S
O281 C280 1.273 . S
O282 Zn273 1.977 . S
O282 C275 1.267 . S
C283 O284 1.160 . S
C283 O290 1.185 . S
O284 C283 1.160 . S
O285 Zn286 1.899 . S
O285 C293 1.284 1_565 S
Zn286 O285 1.899 . S
Zn286 O287 2.032 1_565 S
Zn286 O290 2.086 . S
Zn286 O295 1.977 . S
O287 Zn286 2.032 1_545 S
O287 C291 1.278 . S
C288 O289 1.203 1_565 S
C288 O295 1.267 . S
O289 C288 1.203 1_545 S
O290 C283 1.185 . S
O290 Zn286 2.086 . S
C291 O287 1.278 . S
C291 O292 1.211 . S
O292 C291 1.211 . S
C293 O285 1.284 1_545 S
C293 O294 1.273 . S
O294 C293 1.273 . S
O295 Zn286 1.977 . S
O295 C288 1.267 . S
C296 O297 1.160 1_455 S
C296 O303 1.185 . S
O297 C296 1.160 1_655 S
O298 Zn299 1.899 1_655 S
O298 C306 1.284 . S
Zn299 O298 1.899 1_455 S
Zn299 O300 2.032 . S
Zn299 O303 2.086 . S
Zn299 O308 1.977 . S
O300 Zn299 2.032 . S
O300 C304 1.278 . S
C301 O302 1.203 . S
C301 O308 1.267 . S
O302 C301 1.203 . S
O303 C296 1.185 . S
O303 Zn299 2.086 . S
C304 O300 1.278 . S
C304 O305 1.211 . S
O305 C304 1.211 . S
C306 O298 1.284 . S
C306 O307 1.273 . S
O307 C306 1.273 . S
O308 Zn299 1.977 . S
O308 C301 1.267 . S
C309 O310 1.160 . S
C309 O316 1.185 . S
O310 C309 1.160 . S
O311 Zn312 1.899 . S
O311 C319 1.284 . S
Zn312 O311 1.899 . S
Zn312 O313 2.032 . S
Zn312 O316 2.086 . S
Zn312 O321 1.977 . S
O313 Zn312 2.032 . S
O313 C317 1.278 . S
C314 O315 1.203 . S
C314 O321 1.267 . S
O315 C314 1.203 . S
O316 C309 1.185 . S
O316 Zn312 2.086 . S
C317 O313 1.278 . S
C317 O318 1.211 . S
O318 C317 1.211 . S
C319 O311 1.284 . S
C319 O320 1.273 . S
O320 C319 1.273 . S
O321 Zn312 1.977 . S
O321 C314 1.267 . S
C322 O323 1.104 1_455 S
C322 O329 1.185 . S
O323 C322 1.104 1_655 S
O324 Zn325 1.899 1_655 S
O324 C332 1.284 . S
Zn325 O324 1.899 1_455 S
Zn325 O326 2.032 . S
Zn325 O329 2.086 . S
Zn325 O334 1.977 . S
O326 Zn325 2.032 . S
O326 C330 1.278 . S
C327 O328 1.203 . S
C327 O334 1.267 . S
O328 C327 1.203 . S
O329 C322 1.185 . S
O329 Zn325 2.086 . S
C330 O326 1.278 . S
C330 O331 1.211 . S
O331 C330 1.211 . S
C332 O324 1.284 . S
C332 O333 1.273 . S
O333 C332 1.273 . S
O334 Zn325 1.977 . S
O334 C327 1.267 . S
C335 O336 1.160 . S
C335 O342 1.185 . S
O336 C335 1.160 . S
O337 Zn338 1.899 . S
O337 C345 1.284 . S
Zn338 O337 1.899 . S
Zn338 O339 2.032 . S
Zn338 O342 2.086 . S
Zn338 O347 1.977 . S
O339 Zn338 2.032 . S
O339 C343 1.278 . S
C340 O341 1.203 . S
C340 O347 1.267 . S
O341 C340 1.203 . S
O342 C335 1.185 . S
O342 Zn338 2.086 . S
C343 O339 1.278 . S
C343 O344 1.211 . S
O344 C343 1.211 . S
C345 O337 1.284 . S
C345 O346 1.273 . S
O346 C345 1.273 . S
O347 Zn338 1.977 . S
O347 C340 1.267 . S
C348 C349 1.349 . S
C348 C350 1.327 . S
C348 H373 0.950 . S
C349 C348 1.349 . S
C349 C365 1.349 . S
C350 C348 1.327 . S
C350 C369 1.429 . S
C350 H374 0.950 . S
C351 C368 1.574 . S
C351 C370 1.368 . S
C351 H375 0.949 . S
H352 C356 0.949 . S
C353 C354 1.349 . S
C353 C355 1.327 . S
C353 H376 0.950 . S
C354 C353 1.349 . S
C354 C366 1.349 . S
C355 C353 1.327 . S
C355 C371 1.429 . S
C355 H377 0.950 . S
C356 H352 0.949 . S
C356 C364 1.574 . S
C356 C372 1.368 . S
H357 C365 0.950 . S
H358 C363 0.950 . S
H359 C364 0.949 . S
H360 C366 0.950 . S
H361 C367 0.950 . S
H362 C368 0.949 . S
C363 H358 0.950 . S
C363 C365 1.327 . S
C363 C369 1.429 . S
C364 C356 1.574 . S
C364 H359 0.949 . S
C364 C370 1.368 . S
C365 C349 1.349 . S
C365 H357 0.950 . S
C365 C363 1.327 . S
C366 C354 1.349 . S
C366 H360 0.950 . S
C366 C367 1.327 . S
C367 H361 0.950 . S
C367 C366 1.327 . S
C367 C371 1.429 . S
C368 C351 1.574 . S
C368 H362 0.949 . S
C368 C372 1.368 . S
C369 C350 1.429 . S
C369 C363 1.429 . S
C369 C370 1.523 . S
C370 C351 1.368 . S
C370 C364 1.368 . S
C370 C369 1.523 . S
C371 C355 1.429 . S
C371 C367 1.429 . S
C371 C372 1.523 . S
C372 C356 1.368 . S
C372 C368 1.368 . S
C372 C371 1.523 . S
H373 C348 0.950 . S
H374 C350 0.950 . S
H375 C351 0.949 . S
H376 C353 0.950 . S
H377 C355 0.950 . S
C378 C379 1.349 . S
C378 C380 1.327 . S
C378 H403 0.950 . S
C379 C378 1.349 . S
C379 C395 1.349 . S
C380 C378 1.327 . S
C380 C399 1.429 . S
C380 H404 0.950 . S
C381 C398 1.574 . S
C381 C400 1.368 . S
C381 H405 0.949 . S
H382 C386 0.949 . S
C383 C384 1.349 . S
C383 C385 1.327 . S
C383 H406 0.950 . S
C384 C383 1.349 . S
C384 C396 1.349 . S
C385 C383 1.327 . S
C385 C401 1.429 . S
C385 H407 0.950 . S
C386 H382 0.949 . S
C386 C394 1.574 . S
C386 C402 1.368 . S
H387 C395 0.950 . S
H388 C393 0.950 . S
H389 C394 0.949 . S
H390 C396 0.950 . S
H391 C397 0.950 . S
H392 C398 0.949 . S
C393 H388 0.950 . S
C393 C395 1.327 . S
C393 C399 1.429 . S
C394 C386 1.574 . S
C394 H389 0.949 . S
C394 C400 1.368 . S
C395 C379 1.349 . S
C395 H387 0.950 . S
C395 C393 1.327 . S
C396 C384 1.349 . S
C396 H390 0.950 . S
C396 C397 1.327 . S
C397 H391 0.950 . S
C397 C396 1.327 . S
C397 C401 1.429 . S
C398 C381 1.574 . S
C398 H392 0.949 . S
C398 C402 1.368 . S
C399 C380 1.429 . S
C399 C393 1.429 . S
C399 C400 1.523 . S
C400 C381 1.368 . S
C400 C394 1.368 . S
C400 C399 1.523 . S
C401 C385 1.429 . S
C401 C397 1.429 . S
C401 C402 1.523 . S
C402 C386 1.368 . S
C402 C398 1.368 . S
C402 C401 1.523 . S
H403 C378 0.950 . S
H404 C380 0.950 . S
H405 C381 0.949 . S
H406 C383 0.950 . S
H407 C385 0.950 . S
C408 C409 1.349 . S
C408 C410 1.327 . S
C408 H433 0.950 . S
C409 C408 1.349 . S
C409 C425 1.349 . S
C410 C408 1.327 . S
C410 C429 1.429 . S
C410 H434 0.950 . S
C411 C428 1.574 . S
C411 C430 1.368 . S
C411 H435 0.949 . S
H412 C416 0.949 . S
C413 C414 1.349 . S
C413 C415 1.327 . S
C413 H436 0.950 . S
C414 C413 1.349 . S
C414 C426 1.349 . S
C415 C413 1.327 . S
C415 C431 1.429 . S
C415 H437 0.950 . S
C416 H412 0.949 . S
C416 C424 1.574 . S
C416 C432 1.368 . S
H417 C425 0.950 . S
H418 C423 0.950 . S
H419 C424 0.949 . S
H420 C426 0.950 . S
H421 C427 0.950 . S
H422 C428 0.949 . S
C423 H418 0.950 . S
C423 C425 1.327 . S
C423 C429 1.429 . S
C424 C416 1.574 . S
C424 H419 0.949 . S
C424 C430 1.368 . S
C425 C409 1.349 . S
C425 H417 0.950 . S
C425 C423 1.327 . S
C426 C414 1.349 . S
C426 H420 0.950 . S
C426 C427 1.327 . S
C427 H421 0.950 . S
C427 C426 1.327 . S
C427 C431 1.429 . S
C428 C411 1.574 . S
C428 H422 0.949 . S
C428 C432 1.368 . S
C429 C410 1.429 . S
C429 C423 1.429 . S
C429 C430 1.523 . S
C430 C411 1.368 . S
C430 C424 1.368 . S
C430 C429 1.523 . S
C431 C415 1.429 . S
C431 C427 1.429 . S
C431 C432 1.523 . S
C432 C416 1.368 . S
C432 C428 1.368 . S
C432 C431 1.523 . S
H433 C408 0.950 . S
H434 C410 0.950 . S
H435 C411 0.949 . S
H436 C413 0.950 . S
H437 C415 0.950 . S
C438 C439 1.349 1_545 S
C438 C440 1.327 . S
C438 H463 0.950 . S
C439 C438 1.349 1_565 S
C439 C455 1.349 . S
C440 C438 1.327 . S
C440 C459 1.429 . S
C440 H464 0.950 . S
C441 C458 1.574 . S
C441 C460 1.368 1_665 S
C441 H465 0.949 . S
H442 C446 0.949 . S
C443 C444 1.349 . S
C443 C445 1.327 . S
C443 H466 0.950 . S
C444 C443 1.349 . S
C444 C456 1.349 . S
C445 C443 1.327 . S
C445 C461 1.429 . S
C445 H467 0.950 1_545 S
C446 H442 0.949 . S
C446 C454 1.574 . S
C446 C462 1.368 1_455 S
H447 C455 0.950 . S
H448 C453 0.950 . S
H449 C454 0.949 . S
H450 C456 0.950 . S
H451 C457 0.950 . S
H452 C458 0.949 . S
C453 H448 0.950 . S
C453 C455 1.327 . S
C453 C459 1.429 1_565 S
C454 C446 1.574 . S
C454 H449 0.949 . S
C454 C460 1.368 . S
C455 C439 1.349 . S
C455 H447 0.950 . S
C455 C453 1.327 . S
C456 C444 1.349 . S
C456 H450 0.950 . S
C456 C457 1.327 . S
C457 H451 0.950 . S
C457 C456 1.327 . S
C457 C461 1.429 . S
C458 C441 1.574 . S
C458 H452 0.949 . S
C458 C462 1.368 1_565 S
C459 C440 1.429 . S
C459 C453 1.429 1_545 S
C459 C460 1.523 . S
C460 C441 1.368 1_445 S
C460 C454 1.368 . S
C460 C459 1.523 . S
C461 C445 1.429 . S
C461 C457 1.429 . S
C461 C462 1.523 . S
C462 C446 1.368 1_655 S
C462 C458 1.368 1_545 S
C462 C461 1.523 . S
H463 C438 0.950 . S
H464 C440 0.950 . S
H465 C441 0.949 . S
H466 C443 0.950 . S
H467 C445 0.950 1_565 S
C468 C469 1.349 . S
C468 C470 1.327 . S
C468 H493 0.950 . S
C469 C468 1.349 . S
C469 C485 1.349 . S
C470 C468 1.327 . S
C470 C489 1.429 . S
C470 H494 0.950 . S
C471 C488 1.574 . S
C471 C490 1.368 . S
C471 H495 0.949 . S
H472 C476 0.949 . S
C473 C474 1.349 . S
C473 C475 1.327 . S
C473 H496 0.950 . S
C474 C473 1.349 . S
C474 C486 1.349 . S
C475 C473 1.327 . S
C475 C491 1.429 . S
C475 H497 0.950 . S
C476 H472 0.949 . S
C476 C484 1.574 . S
C476 C492 1.368 . S
H477 C485 0.950 . S
H478 C483 0.950 . S
H479 C484 0.949 . S
H480 C486 0.950 . S
H481 C487 0.950 . S
H482 C488 0.949 . S
C483 H478 0.950 . S
C483 C485 1.327 . S
C483 C489 1.429 . S
C484 C476 1.574 . S
C484 H479 0.949 . S
C484 C490 1.368 . S
C485 C469 1.349 . S
C485 H477 0.950 . S
C485 C483 1.327 . S
C486 C474 1.349 . S
C486 H480 0.950 . S
C486 C487 1.327 . S
C487 H481 0.950 . S
C487 C486 1.327 . S
C487 C491 1.429 . S
C488 C471 1.574 . S
C488 H482 0.949 . S
C488 C492 1.368 . S
C489 C470 1.429 . S
C489 C483 1.429 . S
C489 C490 1.523 . S
C490 C471 1.368 . S
C490 C484 1.368 . S
C490 C489 1.523 . S
C491 C475 1.429 . S
C491 C487 1.429 . S
C491 C492 1.523 . S
C492 C476 1.368 . S
C492 C488 1.368 . S
C492 C491 1.523 . S
H493 C468 0.950 . S
H494 C470 0.950 . S
H495 C471 0.949 . S
H496 C473 0.950 . S
H497 C475 0.950 . S
C498 C499 1.349 . S
C498 C500 1.327 . S
C498 H523 0.950 . S
C499 C498 1.349 . S
C499 C515 1.349 . S
C500 C498 1.327 . S
C500 C519 1.429 . S
C500 H524 0.950 . S
C501 C518 1.574 . S
C501 C520 1.368 . S
C501 H525 0.949 . S
H502 C506 0.949 . S
C503 C504 1.349 . S
C503 C505 1.327 . S
C503 H526 0.950 . S
C504 C503 1.349 . S
C504 C516 1.349 . S
C505 C503 1.327 . S
C505 C521 1.429 . S
C505 H527 0.950 . S
C506 H502 0.949 . S
C506 C514 1.574 . S
C506 C522 1.368 . S
H507 C515 0.950 . S
H508 C513 0.950 . S
H509 C514 0.949 . S
H510 C516 0.950 . S
H511 C517 0.950 . S
H512 C518 0.949 . S
C513 H508 0.950 . S
C513 C515 1.327 . S
C513 C519 1.429 . S
C514 C506 1.574 . S
C514 H509 0.949 . S
C514 C520 1.368 . S
C515 C499 1.349 . S
C515 H507 0.950 . S
C515 C513 1.327 . S
C516 C504 1.349 . S
C516 H510 0.950 . S
C516 C517 1.327 . S
C517 H511 0.950 . S
C517 C516 1.327 . S
C517 C521 1.429 . S
C518 C501 1.574 . S
C518 H512 0.949 . S
C518 C522 1.368 . S
C519 C500 1.429 . S
C519 C513 1.429 . S
C519 C520 1.523 . S
C520 C501 1.368 . S
C520 C514 1.368 . S
C520 C519 1.523 . S
C521 C505 1.429 . S
C521 C517 1.429 . S
C521 C522 1.523 . S
C522 C506 1.368 . S
C522 C518 1.368 . S
C522 C521 1.523 . S
H523 C498 0.950 . S
H524 C500 0.950 . S
H525 C501 0.949 . S
H526 C503 0.950 . S
H527 C505 0.950 . S
C528 C529 1.349 . S
C528 C530 1.327 . S
C528 H553 0.950 . S
C529 C528 1.349 . S
C529 C545 1.349 . S
C530 C528 1.327 . S
C530 C549 1.429 . S
C530 H554 0.950 . S
C531 C548 1.574 . S
C531 C550 1.368 . S
C531 H555 0.949 . S
H532 C536 0.949 . S
C533 C534 1.349 . S
C533 C535 1.327 . S
C533 H556 0.950 . S
C534 C533 1.349 . S
C534 C546 1.349 . S
C535 C533 1.327 . S
C535 C551 1.429 . S
C535 H557 0.950 . S
C536 H532 0.949 . S
C536 C544 1.574 . S
C536 C552 1.368 . S
H537 C545 0.950 . S
H538 C543 0.950 . S
H539 C544 0.949 . S
H540 C546 0.950 . S
H541 C547 0.950 . S
H542 C548 0.949 . S
C543 H538 0.950 . S
C543 C545 1.327 . S
C543 C549 1.429 . S
C544 C536 1.574 . S
C544 H539 0.949 . S
C544 C550 1.368 . S
C545 C529 1.349 . S
C545 H537 0.950 . S
C545 C543 1.327 . S
C546 C534 1.349 . S
C546 H540 0.950 . S
C546 C547 1.327 . S
C547 H541 0.950 . S
C547 C546 1.327 . S
C547 C551 1.429 . S
C548 C531 1.574 . S
C548 H542 0.949 . S
C548 C552 1.368 . S
C549 C530 1.429 . S
C549 C543 1.429 . S
C549 C550 1.523 . S
C550 C531 1.368 . S
C550 C544 1.368 . S
C550 C549 1.523 . S
C551 C535 1.429 . S
C551 C547 1.429 . S
C551 C552 1.523 . S
C552 C536 1.368 . S
C552 C548 1.368 . S
C552 C551 1.523 . S
H553 C528 0.950 . S
H554 C530 0.950 . S
H555 C531 0.949 . S
H556 C533 0.950 . S
H557 C535 0.950 . S
C558 C559 1.349 . S
C558 C560 1.327 . S
C558 H583 0.950 1_565 S
C559 C558 1.349 . S
C559 C575 1.349 . S
C560 C558 1.327 . S
C560 C579 1.429 . S
C560 H584 0.950 1_565 S
C561 C578 1.574 . S
C561 C580 1.368 . S
C561 H585 0.949 . S
H562 C566 0.949 . S
C563 C564 1.349 . S
C563 C565 1.327 . S
C563 H586 0.950 . S
C564 C563 1.349 . S
C564 C576 1.349 1_565 S
C565 C563 1.327 . S
C565 C581 1.429 . S
C565 H587 0.950 . S
C566 H562 0.949 . S
C566 C574 1.574 . S
C566 C582 1.368 1_545 S
H567 C575 0.950 . S
H568 C573 0.950 . S
H569 C574 0.949 . S
H570 C576 0.950 . S
H571 C577 0.950 . S
H572 C578 0.949 . S
C573 H568 0.950 . S
C573 C575 1.327 . S
C573 C579 1.429 . S
C574 C566 1.574 . S
C574 H569 0.949 . S
C574 C580 1.368 1_545 S
C575 C559 1.349 . S
C575 H567 0.950 . S
C575 C573 1.327 . S
C576 C564 1.349 1_545 S
C576 H570 0.950 . S
C576 C577 1.327 . S
C577 H571 0.950 . S
C577 C576 1.327 . S
C577 C581 1.429 1_545 S
C578 C561 1.574 . S
C578 H572 0.949 . S
C578 C582 1.368 . S
C579 C560 1.429 . S
C579 C573 1.429 . S
C579 C580 1.523 . S
C580 C561 1.368 . S
C580 C574 1.368 1_565 S
C580 C579 1.523 . S
C581 C565 1.429 . S
C581 C577 1.429 1_565 S
C581 C582 1.523 . S
C582 C566 1.368 1_565 S
C582 C578 1.368 . S
C582 C581 1.523 . S
H583 C558 0.950 1_545 S
H584 C560 0.950 1_545 S
H585 C561 0.949 . S
H586 C563 0.950 . S
H587 C565 0.950 . S
C588 C589 1.349 . S
C588 C590 1.327 . S
C588 H613 0.950 . S
C589 C588 1.349 . S
C589 C605 1.349 . S
C590 C588 1.327 . S
C590 C609 1.429 . S
C590 H614 0.950 . S
C591 C608 1.574 . S
C591 C610 1.368 . S
C591 H615 0.949 . S
H592 C596 0.949 . S
C593 C594 1.349 . S
C593 C595 1.327 . S
C593 H616 0.950 . S
C594 C593 1.349 . S
C594 C606 1.349 . S
C595 C593 1.327 . S
C595 C611 1.429 . S
C595 H617 0.950 . S
C596 H592 0.949 . S
C596 C604 1.574 . S
C596 C612 1.368 . S
H597 C605 0.950 . S
H598 C603 0.950 . S
H599 C604 0.949 . S
H600 C606 0.950 . S
H601 C607 0.950 . S
H602 C608 0.949 . S
C603 H598 0.950 . S
C603 C605 1.327 . S
C603 C609 1.429 . S
C604 C596 1.574 . S
C604 H599 0.949 . S
C604 C610 1.368 . S
C605 C589 1.349 . S
C605 H597 0.950 . S
C605 C603 1.327 . S
C606 C594 1.349 . S
C606 H600 0.950 . S
C606 C607 1.327 . S
C607 H601 0.950 . S
C607 C606 1.327 . S
C607 C611 1.429 . S
C608 C591 1.574 . S
C608 H602 0.949 . S
C608 C612 1.368 . S
C609 C590 1.429 . S
C609 C603 1.429 . S
C609 C610 1.523 . S
C610 C591 1.368 . S
C610 C604 1.368 . S
C610 C609 1.523 . S
C611 C595 1.429 . S
C611 C607 1.429 . S
C611 C612 1.523 . S
C612 C596 1.368 . S
C612 C608 1.368 . S
C612 C611 1.523 . S
H613 C588 0.950 . S
H614 C590 0.950 . S
H615 C591 0.949 . S
H616 C593 0.950 . S
H617 C595 0.950 . S
C618 C619 1.349 . S
C618 C620 1.327 . S
C618 H643 0.950 . S
C619 C618 1.349 . S
C619 C635 1.349 . S
C620 C618 1.327 . S
C620 C639 1.429 . S
C620 H644 0.950 . S
C621 C638 1.574 . S
C621 C640 1.368 . S
C621 H645 0.949 . S
H622 C626 0.949 . S
C623 C624 1.349 . S
C623 C625 1.327 . S
C623 H646 0.950 . S
C624 C623 1.349 . S
C624 C636 1.349 . S
C625 C623 1.327 . S
C625 C641 1.429 . S
C625 H647 0.950 . S
C626 H622 0.949 . S
C626 C634 1.574 . S
C626 C642 1.368 . S
H627 C635 0.950 . S
H628 C633 0.950 . S
H629 C634 0.949 . S
H630 C636 0.950 . S
H631 C637 0.950 . S
H632 C638 0.949 . S
C633 H628 0.950 . S
C633 C635 1.327 . S
C633 C639 1.429 . S
C634 C626 1.574 . S
C634 H629 0.949 . S
C634 C640 1.368 . S
C635 C619 1.349 . S
C635 H627 0.950 . S
C635 C633 1.327 . S
C636 C624 1.349 . S
C636 H630 0.950 . S
C636 C637 1.327 . S
C637 H631 0.950 . S
C637 C636 1.327 . S
C637 C641 1.429 . S
C638 C621 1.574 . S
C638 H632 0.949 . S
C638 C642 1.368 . S
C639 C620 1.429 . S
C639 C633 1.429 . S
C639 C640 1.523 . S
C640 C621 1.368 . S
C640 C634 1.368 . S
C640 C639 1.523 . S
C641 C625 1.429 . S
C641 C637 1.429 . S
C641 C642 1.523 . S
C642 C626 1.368 . S
C642 C638 1.368 . S
C642 C641 1.523 . S
H643 C618 0.950 . S
H644 C620 0.950 . S
H645 C621 0.949 . S
H646 C623 0.950 . S
H647 C625 0.950 . S
C648 C649 1.349 . S
C648 C650 1.327 . S
C648 H673 0.950 . S
C649 C648 1.349 . S
C649 C665 1.349 . S
C650 C648 1.327 . S
C650 C669 1.429 . S
C650 H674 0.950 . S
C651 C668 1.574 . S
C651 C670 1.368 . S
C651 H675 0.949 . S
H652 C656 0.949 . S
C653 C654 1.349 . S
C653 C655 1.327 . S
C653 H676 0.950 . S
C654 C653 1.349 . S
C654 C666 1.349 . S
C655 C653 1.327 . S
C655 C671 1.429 . S
C655 H677 0.950 . S
C656 H652 0.949 . S
C656 C664 1.574 . S
C656 C672 1.368 . S
H657 C665 0.950 . S
H658 C663 0.950 . S
H659 C664 0.949 . S
H660 C666 0.950 . S
H661 C667 0.950 . S
H662 C668 0.949 . S
C663 H658 0.950 . S
C663 C665 1.327 . S
C663 C669 1.429 . S
C664 C656 1.574 . S
C664 H659 0.949 . S
C664 C670 1.368 . S
C665 C649 1.349 . S
C665 H657 0.950 . S
C665 C663 1.327 . S
C666 C654 1.349 . S
C666 H660 0.950 . S
C666 C667 1.327 . S
C667 H661 0.950 . S
C667 C666 1.327 . S
C667 C671 1.429 . S
C668 C651 1.574 . S
C668 H662 0.949 . S
C668 C672 1.368 . S
C669 C650 1.429 . S
C669 C663 1.429 . S
C669 C670 1.523 . S
C670 C651 1.368 . S
C670 C664 1.368 . S
C670 C669 1.523 . S
C671 C655 1.429 . S
C671 C667 1.429 . S
C671 C672 1.523 . S
C672 C656 1.368 . S
C672 C668 1.368 . S
C672 C671 1.523 . S
H673 C648 0.950 . S
H674 C650 0.950 . S
H675 C651 0.949 . S
H676 C653 0.950 . S
H677 C655 0.950 . S
C678 C679 1.349 . S
C678 C680 1.327 . S
C678 H703 0.950 . S
C679 C678 1.349 . S
C679 C695 1.349 . S
C680 C678 1.327 . S
C680 C699 1.429 . S
C680 H704 0.950 . S
C681 C698 1.574 . S
C681 C700 1.368 . S
C681 H705 0.949 . S
H682 C686 0.949 . S
C683 C684 1.349 . S
C683 C685 1.327 . S
C683 H706 0.950 . S
C684 C683 1.349 . S
C684 C696 1.349 . S
C685 C683 1.327 . S
C685 C701 1.429 . S
C685 H707 0.950 . S
C686 H682 0.949 . S
C686 C694 1.574 . S
C686 C702 1.368 . S
H687 C695 0.950 . S
H688 C693 0.950 . S
H689 C694 0.949 . S
H690 C696 0.950 . S
H691 C697 0.950 . S
H692 C698 0.949 . S
C693 H688 0.950 . S
C693 C695 1.327 . S
C693 C699 1.429 . S
C694 C686 1.574 . S
C694 H689 0.949 . S
C694 C700 1.368 . S
C695 C679 1.349 . S
C695 H687 0.950 . S
C695 C693 1.327 . S
C696 C684 1.349 . S
C696 H690 0.950 . S
C696 C697 1.327 . S
C697 H691 0.950 . S
C697 C696 1.327 . S
C697 C701 1.429 . S
C698 C681 1.574 . S
C698 H692 0.949 . S
C698 C702 1.368 . S
C699 C680 1.429 . S
C699 C693 1.429 . S
C699 C700 1.523 . S
C700 C681 1.368 . S
C700 C694 1.368 . S
C700 C699 1.523 . S
C701 C685 1.429 . S
C701 C697 1.429 . S
C701 C702 1.523 . S
C702 C686 1.368 . S
C702 C698 1.368 . S
C702 C701 1.523 . S
H703 C678 0.950 . S
H704 C680 0.950 . S
H705 C681 0.949 . S
H706 C683 0.950 . S
H707 C685 0.950 . S
C708 C709 1.349 . S
C708 C710 1.327 . S
C708 H733 0.950 . S
C709 C708 1.349 . S
C709 C725 1.349 . S
C710 C708 1.327 . S
C710 C729 1.429 . S
C710 H734 0.950 . S
C711 C728 1.574 . S
C711 C730 1.368 . S
C711 H735 0.949 . S
H712 C716 0.949 . S
C713 C714 1.349 . S
C713 C715 1.327 . S
C713 H736 0.950 . S
C714 C713 1.349 . S
C714 C726 1.349 . S
C715 C713 1.327 . S
C715 C731 1.429 . S
C715 H737 0.950 . S
C716 H712 0.949 . S
C716 C724 1.574 . S
C716 C732 1.368 . S
H717 C725 0.950 . S
H718 C723 0.950 . S
H719 C724 0.949 . S
H720 C726 0.950 . S
H721 C727 0.950 . S
H722 C728 0.949 . S
C723 H718 0.950 . S
C723 C725 1.327 . S
C723 C729 1.429 . S
C724 C716 1.574 . S
C724 H719 0.949 . S
C724 C730 1.368 . S
C725 C709 1.349 . S
C725 H717 0.950 . S
C725 C723 1.327 . S
C726 C714 1.349 . S
C726 H720 0.950 . S
C726 C727 1.327 . S
C727 H721 0.950 . S
C727 C726 1.327 . S
C727 C731 1.429 . S
C728 C711 1.574 . S
C728 H722 0.949 . S
C728 C732 1.368 . S
C729 C710 1.429 . S
C729 C723 1.429 . S
C729 C730 1.523 . S
C730 C711 1.368 . S
C730 C724 1.368 . S
C730 C729 1.523 . S
C731 C715 1.429 . S
C731 C727 1.429 . S
C731 C732 1.523 . S
C732 C716 1.368 . S
C732 C728 1.368 . S
C732 C731 1.523 . S
H733 C708 0.950 . S
H734 C710 0.950 . S
H735 C711 0.949 . S
H736 C713 0.950 . S
H737 C715 0.950 . S
C738 C739 1.349 . S
C738 C740 1.327 . S
C738 H763 0.950 . S
C739 C738 1.349 . S
C739 C755 1.349 . S
C740 C738 1.327 . S
C740 C759 1.429 . S
C740 H764 0.950 . S
C741 C758 1.574 . S
C741 C760 1.368 . S
C741 H765 0.949 . S
H742 C746 0.949 . S
C743 C744 1.349 . S
C743 C745 1.327 . S
C743 H766 0.950 . S
C744 C743 1.349 . S
C744 C756 1.349 . S
C745 C743 1.327 . S
C745 C761 1.429 . S
C745 H767 0.950 . S
C746 H742 0.949 . S
C746 C754 1.574 . S
C746 C762 1.368 . S
H747 C755 0.950 . S
H748 C753 0.950 . S
H749 C754 0.949 . S
H750 C756 0.950 . S
H751 C757 0.950 . S
H752 C758 0.949 . S
C753 H748 0.950 . S
C753 C755 1.327 . S
C753 C759 1.429 . S
C754 C746 1.574 . S
C754 H749 0.949 . S
C754 C760 1.368 . S
C755 C739 1.349 . S
C755 H747 0.950 . S
C755 C753 1.327 . S
C756 C744 1.349 . S
C756 H750 0.950 . S
C756 C757 1.327 . S
C757 H751 0.950 . S
C757 C756 1.327 . S
C757 C761 1.429 . S
C758 C741 1.574 . S
C758 H752 0.949 . S
C758 C762 1.368 . S
C759 C740 1.429 . S
C759 C753 1.429 . S
C759 C760 1.523 . S
C760 C741 1.368 . S
C760 C754 1.368 . S
C760 C759 1.523 . S
C761 C745 1.429 . S
C761 C757 1.429 . S
C761 C762 1.523 . S
C762 C746 1.368 . S
C762 C758 1.368 . S
C762 C761 1.523 . S
H763 C738 0.950 . S
H764 C740 0.950 . S
H765 C741 0.949 . S
H766 C743 0.950 . S
H767 C745 0.950 . S
C768 C769 1.349 . S
C768 C770 1.327 . S
C768 H793 0.950 . S
C769 C768 1.349 . S
C769 C785 1.349 . S
C770 C768 1.327 . S
C770 C789 1.429 . S
C770 H794 0.950 . S
C771 C788 1.574 . S
C771 C790 1.368 . S
C771 H795 0.949 . S
H772 C776 0.949 . S
C773 C774 1.349 . S
C773 C775 1.327 . S
C773 H796 0.950 . S
C774 C773 1.349 . S
C774 C786 1.349 . S
C775 C773 1.327 . S
C775 C791 1.429 . S
C775 H797 0.950 . S
C776 H772 0.949 . S
C776 C784 1.574 . S
C776 C792 1.368 . S
H777 C785 0.950 . S
H778 C783 0.950 . S
H779 C784 0.949 . S
H780 C786 0.950 . S
H781 C787 0.950 . S
H782 C788 0.949 . S
C783 H778 0.950 . S
C783 C785 1.327 . S
C783 C789 1.429 . S
C784 C776 1.574 . S
C784 H779 0.949 . S
C784 C790 1.368 . S
C785 C769 1.349 . S
C785 H777 0.950 . S
C785 C783 1.327 . S
C786 C774 1.349 . S
C786 H780 0.950 . S
C786 C787 1.327 . S
C787 H781 0.950 . S
C787 C786 1.327 . S
C787 C791 1.429 . S
C788 C771 1.574 . S
C788 H782 0.949 . S
C788 C792 1.368 . S
C789 C770 1.429 . S
C789 C783 1.429 . S
C789 C790 1.523 . S
C790 C771 1.368 . S
C790 C784 1.368 . S
C790 C789 1.523 . S
C791 C775 1.429 . S
C791 C787 1.429 . S
C791 C792 1.523 . S
C792 C776 1.368 . S
C792 C788 1.368 . S
C792 C791 1.523 . S
H793 C768 0.950 . S
H794 C770 0.950 . S
H795 C771 0.949 . S
H796 C773 0.950 . S
H797 C775 0.950 . S
C798 C799 1.349 . S
C798 C800 1.327 . S
C798 H823 0.950 . S
C799 C798 1.349 . S
C799 C815 1.349 . S
C800 C798 1.327 . S
C800 C819 1.429 . S
C800 H824 0.950 . S
C801 C818 1.574 . S
C801 C820 1.368 . S
C801 H825 0.949 . S
H802 C806 0.949 . S
C803 C804 1.349 . S
C803 C805 1.328 1_455 S
C803 H826 0.950 . S
C804 C803 1.349 . S
C804 C816 1.349 . S
C805 C803 1.328 1_655 S
C805 C821 1.429 . S
C805 H827 0.952 . S
C806 H802 0.949 . S
C806 C814 1.574 . S
C806 C822 1.368 . S
H807 C815 0.950 . S
H808 C813 0.950 . S
H809 C814 0.949 . S
H810 C816 0.950 . S
H811 C817 0.950 . S
H812 C818 0.949 . S
C813 H808 0.950 . S
C813 C815 1.327 . S
C813 C819 1.429 . S
C814 C806 1.574 . S
C814 H809 0.949 . S
C814 C820 1.368 . S
C815 C799 1.349 . S
C815 H807 0.950 . S
C815 C813 1.327 . S
C816 C804 1.349 . S
C816 H810 0.950 . S
C816 C817 1.327 . S
C817 H811 0.950 . S
C817 C816 1.327 . S
C817 C821 1.427 1_455 S
C818 C801 1.574 . S
C818 H812 0.949 . S
C818 C822 1.368 . S
C819 C800 1.429 . S
C819 C813 1.429 . S
C819 C820 1.523 . S
C820 C801 1.368 . S
C820 C814 1.368 . S
C820 C819 1.523 . S
C821 C805 1.429 . S
C821 C817 1.427 1_655 S
C821 C822 1.523 . S
C822 C806 1.368 . S
C822 C818 1.368 . S
C822 C821 1.523 . S
H823 C798 0.950 . S
H824 C800 0.950 . S
H825 C801 0.949 . S
H826 C803 0.950 . S
H827 C805 0.952 . S
C828 C829 1.349 . S
C828 C830 1.327 . S
C828 H853 0.950 . S
C829 C828 1.349 . S
C829 C845 1.349 . S
C830 C828 1.327 . S
C830 C849 1.429 . S
C830 H854 0.950 . S
C831 C848 1.574 . S
C831 C850 1.368 . S
C831 H855 0.949 . S
H832 C836 0.949 . S
C833 C834 1.349 . S
C833 C835 1.327 . S
C833 H856 0.950 . S
C834 C833 1.349 . S
C834 C846 1.349 . S
C835 C833 1.327 . S
C835 C851 1.429 . S
C835 H857 0.950 . S
C836 H832 0.949 . S
C836 C844 1.574 . S
C836 C852 1.368 . S
H837 C845 0.950 . S
H838 C843 0.950 . S
H839 C844 0.949 . S
H840 C846 0.950 . S
H841 C847 0.950 . S
H842 C848 0.949 . S
C843 H838 0.950 . S
C843 C845 1.327 . S
C843 C849 1.429 . S
C844 C836 1.574 . S
C844 H839 0.949 . S
C844 C850 1.368 . S
C845 C829 1.349 . S
C845 H837 0.950 . S
C845 C843 1.327 . S
C846 C834 1.349 . S
C846 H840 0.950 . S
C846 C847 1.327 . S
C847 H841 0.950 . S
C847 C846 1.327 . S
C847 C851 1.429 . S
C848 C831 1.574 . S
C848 H842 0.949 . S
C848 C852 1.368 . S
C849 C830 1.429 . S
C849 C843 1.429 . S
C849 C850 1.523 . S
C850 C831 1.368 . S
C850 C844 1.368 . S
C850 C849 1.523 . S
C851 C835 1.429 . S
C851 C847 1.429 . S
C851 C852 1.523 . S
C852 C836 1.368 . S
C852 C848 1.368 . S
C852 C851 1.523 . S
H853 C828 0.950 . S
H854 C830 0.950 . S
H855 C831 0.949 . S
H856 C833 0.950 . S
H857 C835 0.950 . S
C858 C859 1.349 . S
C858 C860 1.327 . S
C858 H883 0.950 . S
C859 C858 1.349 . S
C859 C875 1.349 . S
C860 C858 1.327 . S
C860 C879 1.429 . S
C860 H884 0.950 . S
C861 C878 1.574 . S
C861 C880 1.368 . S
C861 H885 0.949 . S
H862 C866 0.949 . S
C863 C864 1.349 . S
C863 C865 1.327 . S
C863 H886 0.950 . S
C864 C863 1.349 . S
C864 C876 1.349 . S
C865 C863 1.327 . S
C865 C881 1.429 . S
C865 H887 0.950 . S
C866 H862 0.949 . S
C866 C874 1.574 . S
C866 C882 1.368 . S
H867 C875 0.950 . S
H868 C873 0.950 . S
H869 C874 0.949 . S
H870 C876 0.950 . S
H871 C877 0.950 . S
H872 C878 0.949 . S
C873 H868 0.950 . S
C873 C875 1.327 . S
C873 C879 1.429 . S
C874 C866 1.574 . S
C874 H869 0.949 . S
C874 C880 1.368 . S
C875 C859 1.349 . S
C875 H867 0.950 . S
C875 C873 1.327 . S
C876 C864 1.349 . S
C876 H870 0.950 . S
C876 C877 1.327 . S
C877 H871 0.950 . S
C877 C876 1.327 . S
C877 C881 1.429 . S
C878 C861 1.574 . S
C878 H872 0.949 . S
C878 C882 1.368 . S
C879 C860 1.429 . S
C879 C873 1.429 . S
C879 C880 1.523 . S
C880 C861 1.368 . S
C880 C874 1.368 . S
C880 C879 1.523 . S
C881 C865 1.429 . S
C881 C877 1.429 . S
C881 C882 1.523 . S
C882 C866 1.368 . S
C882 C878 1.368 . S
C882 C881 1.523 . S
H883 C858 0.950 . S
H884 C860 0.950 . S
H885 C861 0.949 . S
H886 C863 0.950 . S
H887 C865 0.950 . S
C888 C889 1.349 . S
C888 C890 1.327 1_545 S
C888 H913 0.950 . S
C889 C888 1.349 . S
C889 C905 1.349 . S
C890 C888 1.327 1_565 S
C890 C909 1.429 . S
C890 H914 0.950 . S
C891 C908 1.574 . S
C891 C910 1.368 1_554 S
C891 H915 0.949 . S
H892 C896 0.949 . S
C893 C894 1.349 . S
C893 C895 1.327 . S
C893 H916 0.950 . S
C894 C893 1.349 . S
C894 C906 1.349 1_554 S
C895 C893 1.327 . S
C895 C911 1.429 . S
C895 H917 0.950 . S
C896 H892 0.949 . S
C896 C904 1.574 . S
C896 C912 1.368 . S
H897 C905 0.978 . S
H898 C903 0.950 1_554 S
H899 C904 0.949 . S
H900 C906 0.950 . S
H901 C907 0.950 . S
H902 C908 0.949 . S
C903 H898 0.950 1_556 S
C903 C905 1.327 . S
C903 C909 1.429 1_545 S
C904 C896 1.574 . S
C904 H899 0.949 . S
C904 C910 1.368 . S
C905 C889 1.349 . S
C905 H897 0.978 . S
C905 C903 1.327 . S
C906 C894 1.349 1_556 S
C906 H900 0.950 . S
C906 C907 1.327 . S
C907 H901 0.950 . S
C907 C906 1.327 . S
C907 C911 1.429 1_556 S
C908 C891 1.574 . S
C908 H902 0.949 . S
C908 C912 1.368 1_554 S
C909 C890 1.429 . S
C909 C903 1.429 1_565 S
C909 C910 1.523 . S
C910 C891 1.368 1_556 S
C910 C904 1.368 . S
C910 C909 1.523 . S
C911 C895 1.429 . S
C911 C907 1.429 1_554 S
C911 C912 1.523 1_554 S
C912 C896 1.368 . S
C912 C908 1.368 1_556 S
C912 C911 1.523 1_556 S
H913 C888 0.950 . S
H914 C890 0.950 . S
H915 C891 0.949 . S
H916 C893 0.950 . S
H917 C895 0.950 . S
C918 C919 1.349 . S
C918 C920 1.327 . S
C918 H943 0.950 . S
C919 C918 1.349 . S
C919 C935 1.349 . S
C920 C918 1.327 . S
C920 C939 1.429 . S
C920 H944 0.950 . S
C921 C938 1.574 . S
C921 C940 1.368 . S
C921 H945 0.949 . S
H922 C926 0.949 . S
C923 C924 1.349 . S
C923 C925 1.327 . S
C923 H946 0.950 . S
C924 C923 1.349 . S
C924 C936 1.349 . S
C925 C923 1.327 . S
C925 C941 1.429 . S
C925 H947 0.950 . S
C926 H922 0.949 . S
C926 C934 1.574 . S
C926 C942 1.368 . S
H927 C935 0.950 . S
H928 C933 0.950 . S
H929 C934 0.949 . S
H930 C936 0.950 . S
H931 C937 0.950 . S
H932 C938 0.949 . S
C933 H928 0.950 . S
C933 C935 1.327 . S
C933 C939 1.429 . S
C934 C926 1.574 . S
C934 H929 0.949 . S
C934 C940 1.368 . S
C935 C919 1.349 . S
C935 H927 0.950 . S
C935 C933 1.327 . S
C936 C924 1.349 . S
C936 H930 0.950 . S
C936 C937 1.327 . S
C937 H931 0.950 . S
C937 C936 1.327 . S
C937 C941 1.429 . S
C938 C921 1.574 . S
C938 H932 0.949 . S
C938 C942 1.368 . S
C939 C920 1.429 . S
C939 C933 1.429 . S
C939 C940 1.523 . S
C940 C921 1.368 . S
C940 C934 1.368 . S
C940 C939 1.523 . S
C941 C925 1.429 . S
C941 C937 1.429 . S
C941 C942 1.523 . S
C942 C926 1.368 . S
C942 C938 1.368 . S
C942 C941 1.523 . S
H943 C918 0.950 . S
H944 C920 0.950 . S
H945 C921 0.949 . S
H946 C923 0.950 . S
H947 C925 0.950 . S
C948 C949 1.349 . S
C948 C950 1.327 . S
C948 H973 0.950 1_545 S
C949 C948 1.349 . S
C949 C965 1.349 . S
C950 C948 1.327 . S
C950 C969 1.429 . S
C950 H974 0.950 . S
C951 C968 1.574 . S
C951 C970 1.368 . S
C951 H975 0.949 . S
H952 C956 0.949 . S
C953 C954 1.349 . S
C953 C955 1.327 . S
C953 H976 0.950 . S
C954 C953 1.349 . S
C954 C966 1.349 . S
C955 C953 1.327 . S
C955 C971 1.429 . S
C955 H977 0.950 . S
C956 H952 0.949 . S
C956 C964 1.574 . S
C956 C972 1.368 . S
H957 C965 0.950 . S
H958 C963 0.950 . S
H959 C964 0.949 . S
H960 C966 0.950 . S
H961 C967 0.950 . S
H962 C968 0.949 . S
C963 H958 0.950 . S
C963 C965 1.327 . S
C963 C969 1.429 . S
C964 C956 1.574 . S
C964 H959 0.949 . S
C964 C970 1.368 . S
C965 C949 1.349 . S
C965 H957 0.950 . S
C965 C963 1.327 . S
C966 C954 1.349 . S
C966 H960 0.950 . S
C966 C967 1.327 . S
C967 H961 0.950 . S
C967 C966 1.327 . S
C967 C971 1.429 . S
C968 C951 1.574 . S
C968 H962 0.949 . S
C968 C972 1.368 . S
C969 C950 1.429 . S
C969 C963 1.429 . S
C969 C970 1.523 . S
C970 C951 1.368 . S
C970 C964 1.368 . S
C970 C969 1.523 . S
C971 C955 1.429 . S
C971 C967 1.429 . S
C971 C972 1.523 . S
C972 C956 1.368 . S
C972 C968 1.368 . S
C972 C971 1.523 . S
H973 C948 0.950 1_565 S
H974 C950 0.950 . S
H975 C951 0.949 . S
H976 C953 0.950 . S
H977 C955 0.950 . S
C978 C979 1.349 . S
C978 C980 1.327 . S
C978 H1003 0.950 . S
C979 C978 1.349 . S
C979 C995 1.349 . S
C980 C978 1.327 . S
C980 C999 1.429 . S
C980 H1004 0.950 . S
C981 C998 1.574 . S
C981 C1000 1.368 . S
C981 H1005 0.949 . S
H982 C986 0.949 . S
C983 C984 1.349 . S
C983 C985 1.327 . S
C983 H1006 0.950 . S
C984 C983 1.349 . S
C984 C996 1.349 . S
C985 C983 1.327 . S
C985 C1001 1.429 . S
C985 H1007 0.950 . S
C986 H982 0.949 . S
C986 C994 1.574 . S
C986 C1002 1.368 . S
H987 C995 0.950 . S
H988 C993 0.950 . S
H989 C994 0.949 . S
H990 C996 0.950 . S
H991 C997 0.950 . S
H992 C998 0.949 . S
C993 H988 0.950 . S
C993 C995 1.327 . S
C993 C999 1.429 . S
C994 C986 1.574 . S
C994 H989 0.949 . S
C994 C1000 1.368 . S
C995 C979 1.349 . S
C995 H987 0.950 . S
C995 C993 1.327 . S
C996 C984 1.349 . S
C996 H990 0.950 . S
C996 C997 1.327 . S
C997 H991 0.950 . S
C997 C996 1.327 . S
C997 C1001 1.429 . S
C998 C981 1.574 . S
C998 H992 0.949 . S
C998 C1002 1.368 . S
C999 C980 1.429 . S
C999 C993 1.429 . S
C999 C1000 1.523 . S
C1000 C981 1.368 . S
C1000 C994 1.368 . S
C1000 C999 1.523 . S
C1001 C985 1.429 . S
C1001 C997 1.429 . S
C1001 C1002 1.523 . S
C1002 C986 1.368 . S
C1002 C998 1.368 . S
C1002 C1001 1.523 . S
H1003 C978 0.950 . S
H1004 C980 0.950 . S
H1005 C981 0.949 . S
H1006 C983 0.950 . S
H1007 C985 0.950 . S
C1008 C1009 1.349 . S
C1008 C1010 1.327 . S
C1008 H1033 0.950 1_545 S
C1009 C1008 1.349 . S
C1009 C1025 1.349 . S
C1010 C1008 1.327 . S
C1010 C1029 1.429 . S
C1010 H1034 0.950 . S
C1011 C1028 1.574 . S
C1011 C1030 1.368 . S
C1011 H1035 0.949 . S
H1012 C1016 0.949 . S
C1013 C1014 1.349 . S
C1013 C1015 1.327 . S
C1013 H1036 0.950 . S
C1014 C1013 1.349 . S
C1014 C1026 1.349 . S
C1015 C1013 1.327 . S
C1015 C1031 1.429 . S
C1015 H1037 0.950 . S
C1016 H1012 0.949 . S
C1016 C1024 1.574 . S
C1016 C1032 1.368 . S
H1017 C1025 0.950 . S
H1018 C1023 0.950 . S
H1019 C1024 0.949 . S
H1020 C1026 0.950 . S
H1021 C1027 0.950 . S
H1022 C1028 0.949 . S
C1023 H1018 0.950 . S
C1023 C1025 1.327 . S
C1023 C1029 1.429 . S
C1024 C1016 1.574 . S
C1024 H1019 0.949 . S
C1024 C1030 1.368 . S
C1025 C1009 1.349 . S
C1025 H1017 0.950 . S
C1025 C1023 1.327 . S
C1026 C1014 1.349 . S
C1026 H1020 0.950 . S
C1026 C1027 1.327 . S
C1027 H1021 0.950 . S
C1027 C1026 1.327 . S
C1027 C1031 1.429 . S
C1028 C1011 1.574 . S
C1028 H1022 0.949 . S
C1028 C1032 1.368 . S
C1029 C1010 1.429 . S
C1029 C1023 1.429 . S
C1029 C1030 1.523 . S
C1030 C1011 1.368 . S
C1030 C1024 1.368 . S
C1030 C1029 1.523 . S
C1031 C1015 1.429 . S
C1031 C1027 1.429 . S
C1031 C1032 1.523 . S
C1032 C1016 1.368 . S
C1032 C1028 1.368 . S
C1032 C1031 1.523 . S
H1033 C1008 0.950 1_565 S
H1034 C1010 0.950 . S
H1035 C1011 0.949 . S
H1036 C1013 0.950 . S
H1037 C1015 0.950 . S
C1038 C1039 1.349 . S
C1038 C1040 1.327 . S
C1038 H1063 0.950 . S
C1039 C1038 1.349 . S
C1039 C1055 1.349 . S
C1040 C1038 1.327 . S
C1040 C1059 1.429 . S
C1040 H1064 0.950 . S
C1041 C1058 1.574 . S
C1041 C1060 1.368 . S
C1041 H1065 0.949 . S
H1042 C1046 0.949 . S
C1043 C1044 1.349 . S
C1043 C1045 1.327 . S
C1043 H1066 0.950 . S
C1044 C1043 1.349 . S
C1044 C1056 1.349 . S
C1045 C1043 1.327 . S
C1045 C1061 1.429 . S
C1045 H1067 0.950 . S
C1046 H1042 0.949 . S
C1046 C1054 1.574 . S
C1046 C1062 1.368 . S
H1047 C1055 0.950 . S
H1048 C1053 0.950 . S
H1049 C1054 0.949 . S
H1050 C1056 0.950 . S
H1051 C1057 0.950 . S
H1052 C1058 0.949 . S
C1053 H1048 0.950 . S
C1053 C1055 1.327 . S
C1053 C1059 1.429 . S
C1054 C1046 1.574 . S
C1054 H1049 0.949 . S
C1054 C1060 1.368 . S
C1055 C1039 1.349 . S
C1055 H1047 0.950 . S
C1055 C1053 1.327 . S
C1056 C1044 1.349 . S
C1056 H1050 0.950 . S
C1056 C1057 1.327 . S
C1057 H1051 0.950 . S
C1057 C1056 1.327 . S
C1057 C1061 1.429 . S
C1058 C1041 1.574 . S
C1058 H1052 0.949 . S
C1058 C1062 1.368 . S
C1059 C1040 1.429 . S
C1059 C1053 1.429 . S
C1059 C1060 1.523 . S
C1060 C1041 1.368 . S
C1060 C1054 1.368 . S
C1060 C1059 1.523 . S
C1061 C1045 1.429 . S
C1061 C1057 1.429 . S
C1061 C1062 1.523 . S
C1062 C1046 1.368 . S
C1062 C1058 1.368 . S
C1062 C1061 1.523 . S
H1063 C1038 0.950 . S
H1064 C1040 0.950 . S
H1065 C1041 0.949 . S
H1066 C1043 0.950 . S
H1067 C1045 0.950 . S
C1068 C1069 1.349 . S
C1068 C1070 1.327 . S
C1068 H1093 0.950 . S
C1069 C1068 1.349 . S
C1069 C1085 1.349 . S
C1070 C1068 1.327 . S
C1070 C1089 1.429 . S
C1070 H1094 0.950 . S
C1071 C1088 1.574 . S
C1071 C1090 1.368 . S
C1071 H1095 0.949 . S
H1072 C1076 0.949 . S
C1073 C1074 1.349 . S
C1073 C1075 1.327 . S
C1073 H1096 0.950 . S
C1074 C1073 1.349 . S
C1074 C1086 1.349 . S
C1075 C1073 1.327 . S
C1075 C1091 1.429 . S
C1075 H1097 0.950 . S
C1076 H1072 0.949 . S
C1076 C1084 1.574 . S
C1076 C1092 1.368 . S
H1077 C1085 0.950 . S
H1078 C1083 0.950 . S
H1079 C1084 0.949 . S
H1080 C1086 0.950 . S
H1081 C1087 0.950 . S
H1082 C1088 0.949 . S
C1083 H1078 0.950 . S
C1083 C1085 1.327 . S
C1083 C1089 1.429 . S
C1084 C1076 1.574 . S
C1084 H1079 0.949 . S
C1084 C1090 1.368 . S
C1085 C1069 1.349 . S
C1085 H1077 0.950 . S
C1085 C1083 1.327 . S
C1086 C1074 1.349 . S
C1086 H1080 0.950 . S
C1086 C1087 1.327 . S
C1087 H1081 0.950 . S
C1087 C1086 1.327 . S
C1087 C1091 1.429 . S
C1088 C1071 1.574 . S
C1088 H1082 0.949 . S
C1088 C1092 1.368 . S
C1089 C1070 1.429 . S
C1089 C1083 1.429 . S
C1089 C1090 1.523 . S
C1090 C1071 1.368 . S
C1090 C1084 1.368 . S
C1090 C1089 1.523 . S
C1091 C1075 1.429 . S
C1091 C1087 1.429 . S
C1091 C1092 1.523 . S
C1092 C1076 1.368 . S
C1092 C1088 1.368 . S
C1092 C1091 1.523 . S
H1093 C1068 0.950 . S
H1094 C1070 0.950 . S
H1095 C1071 0.949 . S
H1096 C1073 0.950 . S
H1097 C1075 0.950 . S
C1098 C1099 1.349 . S
C1098 C1100 1.327 . S
C1098 H1123 0.910 1_545 S
C1099 C1098 1.349 . S
C1099 C1115 1.349 . S
C1100 C1098 1.327 . S
C1100 C1119 1.429 . S
C1100 H1124 0.950 1_545 S
C1101 C1118 1.574 . S
C1101 C1120 1.368 . S
C1101 H1125 0.949 . S
H1102 C1106 0.949 . S
C1103 C1104 1.349 . S
C1103 C1105 1.327 . S
C1103 H1126 0.950 . S
C1104 C1103 1.349 . S
C1104 C1116 1.349 1_545 S
C1105 C1103 1.327 . S
C1105 C1121 1.429 . S
C1105 H1127 0.950 . S
C1106 H1102 0.949 . S
C1106 C1114 1.574 1_565 S
C1106 C1122 1.368 1_565 S
H1107 C1115 0.950 . S
H1108 C1113 0.950 . S
H1109 C1114 0.949 1_565 S
H1110 C1116 0.950 . S
H1111 C1117 0.950 . S
H1112 C1118 0.949 . S
C1113 H1108 0.950 . S
C1113 C1115 1.327 . S
C1113 C1119 1.429 . S
C1114 C1106 1.574 1_545 S
C1114 H1109 0.949 1_545 S
C1114 C1120 1.368 . S
C1115 C1099 1.349 . S
C1115 H1107 0.950 . S
C1115 C1113 1.327 . S
C1116 C1104 1.349 1_565 S
C1116 H1110 0.950 . S
C1116 C1117 1.327 . S
C1117 H1111 0.950 . S
C1117 C1116 1.327 . S
C1117 C1121 1.429 1_565 S
C1118 C1101 1.574 . S
C1118 H1112 0.949 . S
C1118 C1122 1.368 . S
C1119 C1100 1.429 . S
C1119 C1113 1.429 . S
C1119 C1120 1.523 . S
C1120 C1101 1.368 . S
C1120 C1114 1.368 . S
C1120 C1119 1.523 . S
C1121 C1105 1.429 . S
C1121 C1117 1.429 1_545 S
C1121 C1122 1.523 . S
C1122 C1106 1.368 1_545 S
C1122 C1118 1.368 . S
C1122 C1121 1.523 . S
H1123 C1098 0.910 1_565 S
H1124 C1100 0.950 1_565 S
H1125 C1101 0.949 . S
H1126 C1103 0.950 . S
H1127 C1105 0.950 . S
C1128 C1129 1.349 . S
C1128 C1130 1.327 . S
C1128 H1153 0.950 . S
C1129 C1128 1.349 . S
C1129 C1145 1.349 . S
C1130 C1128 1.327 . S
C1130 C1149 1.429 . S
C1130 H1154 0.950 . S
C1131 C1148 1.574 . S
C1131 C1150 1.368 . S
C1131 H1155 0.949 . S
H1132 C1136 0.949 . S
C1133 C1134 1.349 . S
C1133 C1135 1.327 . S
C1133 H1156 0.950 . S
C1134 C1133 1.349 . S
C1134 C1146 1.349 . S
C1135 C1133 1.327 . S
C1135 C1151 1.429 . S
C1135 H1157 0.950 . S
C1136 H1132 0.949 . S
C1136 C1144 1.574 . S
C1136 C1152 1.368 . S
H1137 C1145 0.950 . S
H1138 C1143 0.950 . S
H1139 C1144 0.949 . S
H1140 C1146 0.950 . S
H1141 C1147 0.950 . S
H1142 C1148 0.949 . S
C1143 H1138 0.950 . S
C1143 C1145 1.327 . S
C1143 C1149 1.429 . S
C1144 C1136 1.574 . S
C1144 H1139 0.949 . S
C1144 C1150 1.368 . S
C1145 C1129 1.349 . S
C1145 H1137 0.950 . S
C1145 C1143 1.327 . S
C1146 C1134 1.349 . S
C1146 H1140 0.950 . S
C1146 C1147 1.327 . S
C1147 H1141 0.950 . S
C1147 C1146 1.327 . S
C1147 C1151 1.429 . S
C1148 C1131 1.574 . S
C1148 H1142 0.949 . S
C1148 C1152 1.368 . S
C1149 C1130 1.429 . S
C1149 C1143 1.429 . S
C1149 C1150 1.523 . S
C1150 C1131 1.368 . S
C1150 C1144 1.368 . S
C1150 C1149 1.523 . S
C1151 C1135 1.429 . S
C1151 C1147 1.429 . S
C1151 C1152 1.523 . S
C1152 C1136 1.368 . S
C1152 C1148 1.368 . S
C1152 C1151 1.523 . S
H1153 C1128 0.950 . S
H1154 C1130 0.950 . S
H1155 C1131 0.949 . S
H1156 C1133 0.950 . S
H1157 C1135 0.950 . S
C1158 C1159 1.349 . S
C1158 C1160 1.327 . S
C1158 H1183 0.950 . S
C1159 C1158 1.349 . S
C1159 C1175 1.349 . S
C1160 C1158 1.327 . S
C1160 C1179 1.429 . S
C1160 H1184 0.950 . S
C1161 C1178 1.574 . S
C1161 C1180 1.368 . S
C1161 H1185 0.949 . S
H1162 C1166 0.949 . S
C1163 C1164 1.349 . S
C1163 C1165 1.327 . S
C1163 H1186 0.950 . S
C1164 C1163 1.349 . S
C1164 C1176 1.349 . S
C1165 C1163 1.327 . S
C1165 C1181 1.429 . S
C1165 H1187 0.950 . S
C1166 H1162 0.949 . S
C1166 C1174 1.574 . S
C1166 C1182 1.368 . S
H1167 C1175 0.950 . S
H1168 C1173 0.950 . S
H1169 C1174 0.949 . S
H1170 C1176 0.950 . S
H1171 C1177 0.950 . S
H1172 C1178 0.949 . S
C1173 H1168 0.950 . S
C1173 C1175 1.327 . S
C1173 C1179 1.429 . S
C1174 C1166 1.574 . S
C1174 H1169 0.949 . S
C1174 C1180 1.368 . S
C1175 C1159 1.349 . S
C1175 H1167 0.950 . S
C1175 C1173 1.327 . S
C1176 C1164 1.349 . S
C1176 H1170 0.950 . S
C1176 C1177 1.327 . S
C1177 H1171 0.950 . S
C1177 C1176 1.327 . S
C1177 C1181 1.429 . S
C1178 C1161 1.574 . S
C1178 H1172 0.949 . S
C1178 C1182 1.368 . S
C1179 C1160 1.429 . S
C1179 C1173 1.429 . S
C1179 C1180 1.523 . S
C1180 C1161 1.368 . S
C1180 C1174 1.368 . S
C1180 C1179 1.523 . S
C1181 C1165 1.429 . S
C1181 C1177 1.429 . S
C1181 C1182 1.523 . S
C1182 C1166 1.368 . S
C1182 C1178 1.368 . S
C1182 C1181 1.523 . S
H1183 C1158 0.950 . S
H1184 C1160 0.950 . S
H1185 C1161 0.949 . S
H1186 C1163 0.950 . S
H1187 C1165 0.950 . S
C1188 C1189 1.349 . S
C1188 C1190 1.327 . S
C1188 H1213 0.950 . S
C1189 C1188 1.349 . S
C1189 C1205 1.349 . S
C1190 C1188 1.327 . S
C1190 C1209 1.429 . S
C1190 H1214 0.950 . S
C1191 C1208 1.574 . S
C1191 C1210 1.368 . S
C1191 H1215 0.949 . S
H1192 C1196 0.949 . S
C1193 C1194 1.349 . S
C1193 C1195 1.327 . S
C1193 H1216 0.950 . S
C1194 C1193 1.349 . S
C1194 C1206 1.349 . S
C1195 C1193 1.327 . S
C1195 C1211 1.429 . S
C1195 H1217 0.950 . S
C1196 H1192 0.949 . S
C1196 C1204 1.574 . S
C1196 C1212 1.368 . S
H1197 C1205 0.950 . S
H1198 C1203 0.950 . S
H1199 C1204 0.949 . S
H1200 C1206 0.950 . S
H1201 C1207 0.950 . S
H1202 C1208 0.949 . S
C1203 H1198 0.950 . S
C1203 C1205 1.327 . S
C1203 C1209 1.429 . S
C1204 C1196 1.574 . S
C1204 H1199 0.949 . S
C1204 C1210 1.368 . S
C1205 C1189 1.349 . S
C1205 H1197 0.950 . S
C1205 C1203 1.327 . S
C1206 C1194 1.349 . S
C1206 H1200 0.950 . S
C1206 C1207 1.327 . S
C1207 H1201 0.950 . S
C1207 C1206 1.327 . S
C1207 C1211 1.429 . S
C1208 C1191 1.574 . S
C1208 H1202 0.949 . S
C1208 C1212 1.368 . S
C1209 C1190 1.429 . S
C1209 C1203 1.429 . S
C1209 C1210 1.523 . S
C1210 C1191 1.368 . S
C1210 C1204 1.368 . S
C1210 C1209 1.523 . S
C1211 C1195 1.429 . S
C1211 C1207 1.429 . S
C1211 C1212 1.523 . S
C1212 C1196 1.368 . S
C1212 C1208 1.368 . S
C1212 C1211 1.523 . S
H1213 C1188 0.950 . S
H1214 C1190 0.950 . S
H1215 C1191 0.949 . S
H1216 C1193 0.950 . S
H1217 C1195 0.950 . S
C1218 C1219 1.349 . S
C1218 C1220 1.327 . S
C1218 H1243 0.950 . S
C1219 C1218 1.349 . S
C1219 C1235 1.349 . S
C1220 C1218 1.327 . S
C1220 C1239 1.429 . S
C1220 H1244 0.931 1_455 S
C1221 C1238 1.598 . S
C1221 C1240 1.368 . S
C1221 H1245 0.949 . S
H1222 C1226 0.949 . S
C1223 C1224 1.349 . S
C1223 C1225 1.327 . S
C1223 H1246 0.950 . S
C1224 C1223 1.349 . S
C1224 C1236 1.349 . S
C1225 C1223 1.327 . S
C1225 C1241 1.429 . S
C1225 H1247 0.950 . S
C1226 H1222 0.949 . S
C1226 C1234 1.574 . S
C1226 C1242 1.368 . S
H1227 C1235 0.950 . S
H1228 C1233 0.950 . S
H1229 C1234 0.949 . S
H1230 C1236 0.950 . S
H1231 C1237 0.950 . S
H1232 C1238 0.961 . S
C1233 H1228 0.950 . S
C1233 C1235 1.327 . S
C1233 C1239 1.429 . S
C1234 C1226 1.574 . S
C1234 H1229 0.949 . S
C1234 C1240 1.368 1_655 S
C1235 C1219 1.349 . S
C1235 H1227 0.950 . S
C1235 C1233 1.327 . S
C1236 C1224 1.349 . S
C1236 H1230 0.950 . S
C1236 C1237 1.327 . S
C1237 H1231 0.950 . S
C1237 C1236 1.327 . S
C1237 C1241 1.429 . S
C1238 C1221 1.598 . S
C1238 H1232 0.961 . S
C1238 C1242 1.333 1_455 S
C1239 C1220 1.429 . S
C1239 C1233 1.429 . S
C1239 C1240 1.523 . S
C1240 C1221 1.368 . S
C1240 C1234 1.368 1_455 S
C1240 C1239 1.523 . S
C1241 C1225 1.429 . S
C1241 C1237 1.429 . S
C1241 C1242 1.523 . S
C1242 C1226 1.368 . S
C1242 C1238 1.333 1_655 S
C1242 C1241 1.523 . S
H1243 C1218 0.950 . S
H1244 C1220 0.931 1_655 S
H1245 C1221 0.949 . S
H1246 C1223 0.950 . S
H1247 C1225 0.950 . S
C1248 C1249 1.349 . S
C1248 C1250 1.327 . S
C1248 H1273 0.950 . S
C1249 C1248 1.349 . S
C1249 C1265 1.349 . S
C1250 C1248 1.327 . S
C1250 C1269 1.429 . S
C1250 H1274 0.950 . S
C1251 C1268 1.574 . S
C1251 C1270 1.368 . S
C1251 H1275 0.949 . S
H1252 C1256 0.949 . S
C1253 C1254 1.349 . S
C1253 C1255 1.327 . S
C1253 H1276 0.950 . S
C1254 C1253 1.349 . S
C1254 C1266 1.349 . S
C1255 C1253 1.327 . S
C1255 C1271 1.429 . S
C1255 H1277 0.950 . S
C1256 H1252 0.949 . S
C1256 C1264 1.574 . S
C1256 C1272 1.368 . S
H1257 C1265 0.950 . S
H1258 C1263 0.950 . S
H1259 C1264 0.949 . S
H1260 C1266 0.950 . S
H1261 C1267 0.950 . S
H1262 C1268 0.949 . S
C1263 H1258 0.950 . S
C1263 C1265 1.327 . S
C1263 C1269 1.429 . S
C1264 C1256 1.574 . S
C1264 H1259 0.949 . S
C1264 C1270 1.368 . S
C1265 C1249 1.349 . S
C1265 H1257 0.950 . S
C1265 C1263 1.327 . S
C1266 C1254 1.349 . S
C1266 H1260 0.950 . S
C1266 C1267 1.327 . S
C1267 H1261 0.950 . S
C1267 C1266 1.327 . S
C1267 C1271 1.429 . S
C1268 C1251 1.574 . S
C1268 H1262 0.949 . S
C1268 C1272 1.368 . S
C1269 C1250 1.429 . S
C1269 C1263 1.429 . S
C1269 C1270 1.523 . S
C1270 C1251 1.368 . S
C1270 C1264 1.368 . S
C1270 C1269 1.523 . S
C1271 C1255 1.429 . S
C1271 C1267 1.429 . S
C1271 C1272 1.523 . S
C1272 C1256 1.368 . S
C1272 C1268 1.368 . S
C1272 C1271 1.523 . S
H1273 C1248 0.950 . S
H1274 C1250 0.950 . S
H1275 C1251 0.949 . S
H1276 C1253 0.950 . S
H1277 C1255 0.950 . S
C1278 C1279 1.390 . S
C1278 C1280 1.327 . S
C1278 H1303 0.950 . S
C1279 C1278 1.390 . S
C1279 C1295 1.337 1_455 S
C1280 C1278 1.327 . S
C1280 C1299 1.429 . S
C1280 H1304 0.950 . S
C1281 C1298 1.574 . S
C1281 C1300 1.368 . S
C1281 H1305 0.949 . S
H1282 C1286 0.949 . S
C1283 C1284 1.349 . S
C1283 C1285 1.327 . S
C1283 H1306 0.950 . S
C1284 C1283 1.349 . S
C1284 C1296 1.349 . S
C1285 C1283 1.327 . S
C1285 C1301 1.429 . S
C1285 H1307 0.950 . S
C1286 H1282 0.949 . S
C1286 C1294 1.574 . S
C1286 C1302 1.368 . S
H1287 C1295 0.950 . S
H1288 C1293 0.950 . S
H1289 C1294 0.949 . S
H1290 C1296 0.950 . S
H1291 C1297 0.950 . S
H1292 C1298 0.949 . S
C1293 H1288 0.950 . S
C1293 C1295 1.327 1_455 S
C1293 C1299 1.429 . S
C1294 C1286 1.574 . S
C1294 H1289 0.949 . S
C1294 C1300 1.368 . S
C1295 C1279 1.337 1_655 S
C1295 H1287 0.950 . S
C1295 C1293 1.327 1_655 S
C1296 C1284 1.349 . S
C1296 H1290 0.950 . S
C1296 C1297 1.327 . S
C1297 H1291 0.950 . S
C1297 C1296 1.327 . S
C1297 C1301 1.429 . S
C1298 C1281 1.574 . S
C1298 H1292 0.949 . S
C1298 C1302 1.368 . S
C1299 C1280 1.429 . S
C1299 C1293 1.429 . S
C1299 C1300 1.523 . S
C1300 C1281 1.368 . S
C1300 C1294 1.368 . S
C1300 C1299 1.523 . S
C1301 C1285 1.429 . S
C1301 C1297 1.429 . S
C1301 C1302 1.523 . S
C1302 C1286 1.368 . S
C1302 C1298 1.368 . S
C1302 C1301 1.523 . S
H1303 C1278 0.950 . S
H1304 C1280 0.950 . S
H1305 C1281 0.949 . S
H1306 C1283 0.950 . S
H1307 C1285 0.950 . S
C1308 C1309 1.349 . S
C1308 C1310 1.327 . S
C1308 H1333 0.950 . S
C1309 C1308 1.349 . S
C1309 C1325 1.349 . S
C1310 C1308 1.327 . S
C1310 C1329 1.429 . S
C1310 H1334 0.950 . S
C1311 C1328 1.574 . S
C1311 C1330 1.368 . S
C1311 H1335 0.949 . S
H1312 C1316 0.949 . S
C1313 C1314 1.349 . S
C1313 C1315 1.327 . S
C1313 H1336 0.950 . S
C1314 C1313 1.349 . S
C1314 C1326 1.349 . S
C1315 C1313 1.327 . S
C1315 C1331 1.429 . S
C1315 H1337 0.950 . S
C1316 H1312 0.949 . S
C1316 C1324 1.574 . S
C1316 C1332 1.368 . S
H1317 C1325 0.950 . S
H1318 C1323 0.950 . S
H1319 C1324 0.949 . S
H1320 C1326 0.950 . S
H1321 C1327 0.950 . S
H1322 C1328 0.949 . S
C1323 H1318 0.950 . S
C1323 C1325 1.327 . S
C1323 C1329 1.429 . S
C1324 C1316 1.574 . S
C1324 H1319 0.949 . S
C1324 C1330 1.368 . S
C1325 C1309 1.349 . S
C1325 H1317 0.950 . S
C1325 C1323 1.327 . S
C1326 C1314 1.349 . S
C1326 H1320 0.950 . S
C1326 C1327 1.327 . S
C1327 H1321 0.950 . S
C1327 C1326 1.327 . S
C1327 C1331 1.429 . S
C1328 C1311 1.574 . S
C1328 H1322 0.949 . S
C1328 C1332 1.368 . S
C1329 C1310 1.429 . S
C1329 C1323 1.429 . S
C1329 C1330 1.523 . S
C1330 C1311 1.368 . S
C1330 C1324 1.368 . S
C1330 C1329 1.523 . S
C1331 C1315 1.429 . S
C1331 C1327 1.429 . S
C1331 C1332 1.523 . S
C1332 C1316 1.368 . S
C1332 C1328 1.368 . S
C1332 C1331 1.523 . S
H1333 C1308 0.950 . S
H1334 C1310 0.950 . S
H1335 C1311 0.949 . S
H1336 C1313 0.950 . S
H1337 C1315 0.950 . S
C1338 C1339 1.349 . S
C1338 C1340 1.325 1_655 S
C1338 H1363 0.950 1_655 S
C1339 C1338 1.349 . S
C1339 C1355 1.349 . S
C1340 C1338 1.325 1_455 S
C1340 C1359 1.423 1_455 S
C1340 H1364 0.958 . S
C1341 C1358 1.574 . S
C1341 C1360 1.368 . S
C1341 H1365 0.949 . S
H1342 C1346 0.949 . S
C1343 C1344 1.349 1_655 S
C1343 C1345 1.327 . S
C1343 H1366 0.950 . S
C1344 C1343 1.349 1_455 S
C1344 C1356 1.349 . S
C1345 C1343 1.327 . S
C1345 C1361 1.429 . S
C1345 H1367 0.950 . S
C1346 H1342 0.949 . S
C1346 C1354 1.574 . S
C1346 C1362 1.368 1_455 S
H1347 C1355 0.950 1_554 S
H1348 C1353 0.950 . S
H1349 C1354 0.949 . S
H1350 C1356 0.950 . S
H1351 C1357 0.950 . S
H1352 C1358 0.949 . S
C1353 H1348 0.950 . S
C1353 C1355 1.327 . S
C1353 C1359 1.429 . S
C1354 C1346 1.574 . S
C1354 H1349 0.949 . S
C1354 C1360 1.368 1_455 S
C1355 C1339 1.349 . S
C1355 H1347 0.950 1_556 S
C1355 C1353 1.327 . S
C1356 C1344 1.349 . S
C1356 H1350 0.950 . S
C1356 C1357 1.327 . S
C1357 H1351 0.950 . S
C1357 C1356 1.327 . S
C1357 C1361 1.429 1_455 S
C1358 C1341 1.574 . S
C1358 H1352 0.949 . S
C1358 C1362 1.368 . S
C1359 C1340 1.423 1_655 S
C1359 C1353 1.429 . S
C1359 C1360 1.523 . S
C1360 C1341 1.368 . S
C1360 C1354 1.368 1_655 S
C1360 C1359 1.523 . S
C1361 C1345 1.429 . S
C1361 C1357 1.429 1_655 S
C1361 C1362 1.523 . S
C1362 C1346 1.368 1_655 S
C1362 C1358 1.368 . S
C1362 C1361 1.523 . S
H1363 C1338 0.950 1_455 S
H1364 C1340 0.958 . S
H1365 C1341 0.949 . S
H1366 C1343 0.950 . S
H1367 C1345 0.950 . S
C1368 C1369 1.349 . S
C1368 C1370 1.327 . S
C1368 H1393 0.950 . S
C1369 C1368 1.349 . S
C1369 C1385 1.349 . S
C1370 C1368 1.327 . S
C1370 C1389 1.429 . S
C1370 H1394 0.950 . S
C1371 C1388 1.574 . S
C1371 C1390 1.368 . S
C1371 H1395 0.949 . S
H1372 C1376 0.949 . S
C1373 C1374 1.349 . S
C1373 C1375 1.327 . S
C1373 H1396 0.950 . S
C1374 C1373 1.349 . S
C1374 C1386 1.349 . S
C1375 C1373 1.327 . S
C1375 C1391 1.429 . S
C1375 H1397 0.950 . S
C1376 H1372 0.949 . S
C1376 C1384 1.574 . S
C1376 C1392 1.368 . S
H1377 C1385 0.950 . S
H1378 C1383 0.950 . S
H1379 C1384 0.949 . S
H1380 C1386 0.950 . S
H1381 C1387 0.950 . S
H1382 C1388 0.949 . S
C1383 H1378 0.950 . S
C1383 C1385 1.327 . S
C1383 C1389 1.429 . S
C1384 C1376 1.574 . S
C1384 H1379 0.949 . S
C1384 C1390 1.368 . S
C1385 C1369 1.349 . S
C1385 H1377 0.950 . S
C1385 C1383 1.327 . S
C1386 C1374 1.349 . S
C1386 H1380 0.950 . S
C1386 C1387 1.327 . S
C1387 H1381 0.950 . S
C1387 C1386 1.327 . S
C1387 C1391 1.429 . S
C1388 C1371 1.574 . S
C1388 H1382 0.949 . S
C1388 C1392 1.368 . S
C1389 C1370 1.429 . S
C1389 C1383 1.429 . S
C1389 C1390 1.523 . S
C1390 C1371 1.368 . S
C1390 C1384 1.368 . S
C1390 C1389 1.523 . S
C1391 C1375 1.429 . S
C1391 C1387 1.429 . S
C1391 C1392 1.523 . S
C1392 C1376 1.368 . S
C1392 C1388 1.368 . S
C1392 C1391 1.523 . S
H1393 C1368 0.950 . S
H1394 C1370 0.950 . S
H1395 C1371 0.949 . S
H1396 C1373 0.950 . S
H1397 C1375 0.950 . S
C1398 C1399 1.349 . S
C1398 C1400 1.327 1_554 S
C1398 H1423 0.950 . S
C1399 C1398 1.349 . S
C1399 C1415 1.353 1_554 S
C1400 C1398 1.327 1_556 S
C1400 C1419 1.429 . S
C1400 H1424 0.950 . S
C1401 C1418 1.574 . S
C1401 C1420 1.368 . S
C1401 H1425 0.949 . S
H1402 C1406 0.949 . S
C1403 C1404 1.349 . S
C1403 C1405 1.327 . S
C1403 H1426 0.950 1_455 S
C1404 C1403 1.349 . S
C1404 C1416 1.349 . S
C1405 C1403 1.327 . S
C1405 C1421 1.429 . S
C1405 H1427 0.935 1_455 S
C1406 H1402 0.949 . S
C1406 C1414 1.574 . S
C1406 C1422 1.368 . S
H1407 C1415 0.950 . S
H1408 C1413 0.950 . S
H1409 C1414 0.949 . S
H1410 C1416 0.950 . S
H1411 C1417 0.950 . S
H1412 C1418 0.949 . S
C1413 H1408 0.950 . S
C1413 C1415 1.327 . S
C1413 C1419 1.429 . S
C1414 C1406 1.574 . S
C1414 H1409 0.949 . S
C1414 C1420 1.368 . S
C1415 C1399 1.353 1_556 S
C1415 H1407 0.950 . S
C1415 C1413 1.327 . S
C1416 C1404 1.349 . S
C1416 H1410 0.950 . S
C1416 C1417 1.327 . S
C1417 H1411 0.950 . S
C1417 C1416 1.327 . S
C1417 C1421 1.429 . S
C1418 C1401 1.574 . S
C1418 H1412 0.949 . S
C1418 C1422 1.368 . S
C1419 C1400 1.429 . S
C1419 C1413 1.429 . S
C1419 C1420 1.523 . S
C1420 C1401 1.368 . S
C1420 C1414 1.368 . S
C1420 C1419 1.523 . S
C1421 C1405 1.429 . S
C1421 C1417 1.429 . S
C1421 C1422 1.523 . S
C1422 C1406 1.368 . S
C1422 C1418 1.368 . S
C1422 C1421 1.523 . S
H1423 C1398 0.950 . S
H1424 C1400 0.950 . S
H1425 C1401 0.949 . S
H1426 C1403 0.950 1_655 S
H1427 C1405 0.935 1_655 S
C1428 C1429 1.349 . S
C1428 C1430 1.327 . S
C1428 H1453 0.950 . S
C1429 C1428 1.349 . S
C1429 C1445 1.349 . S
C1430 C1428 1.327 . S
C1430 C1449 1.429 . S
C1430 H1454 0.950 . S
C1431 C1448 1.574 . S
C1431 C1450 1.368 . S
C1431 H1455 0.949 . S
H1432 C1436 0.949 . S
C1433 C1434 1.349 . S
C1433 C1435 1.327 . S
C1433 H1456 0.950 . S
C1434 C1433 1.349 . S
C1434 C1446 1.349 . S
C1435 C1433 1.327 . S
C1435 C1451 1.429 . S
C1435 H1457 0.950 . S
C1436 H1432 0.949 . S
C1436 C1444 1.574 . S
C1436 C1452 1.368 . S
H1437 C1445 0.950 . S
H1438 C1443 0.950 . S
H1439 C1444 0.949 . S
H1440 C1446 0.950 . S
H1441 C1447 0.950 . S
H1442 C1448 0.949 . S
C1443 H1438 0.950 . S
C1443 C1445 1.327 . S
C1443 C1449 1.429 . S
C1444 C1436 1.574 . S
C1444 H1439 0.949 . S
C1444 C1450 1.368 . S
C1445 C1429 1.349 . S
C1445 H1437 0.950 . S
C1445 C1443 1.327 . S
C1446 C1434 1.349 . S
C1446 H1440 0.950 . S
C1446 C1447 1.327 . S
C1447 H1441 0.950 . S
C1447 C1446 1.327 . S
C1447 C1451 1.429 . S
C1448 C1431 1.574 . S
C1448 H1442 0.949 . S
C1448 C1452 1.368 . S
C1449 C1430 1.429 . S
C1449 C1443 1.429 . S
C1449 C1450 1.523 . S
C1450 C1431 1.368 . S
C1450 C1444 1.368 . S
C1450 C1449 1.523 . S
C1451 C1435 1.429 . S
C1451 C1447 1.429 . S
C1451 C1452 1.523 . S
C1452 C1436 1.368 . S
C1452 C1448 1.368 . S
C1452 C1451 1.523 . S
H1453 C1428 0.950 . S
H1454 C1430 0.950 . S
H1455 C1431 0.949 . S
H1456 C1433 0.950 . S
H1457 C1435 0.950 . S
C1458 C1459 1.349 . S
C1458 C1460 1.327 . S
C1458 H1483 0.950 . S
C1459 C1458 1.349 . S
C1459 C1475 1.349 1_554 S
C1460 C1458 1.327 . S
C1460 C1479 1.429 . S
C1460 H1484 0.950 . S
C1461 C1478 1.574 . S
C1461 C1480 1.368 . S
C1461 H1485 0.949 . S
H1462 C1466 0.949 . S
C1463 C1464 1.349 . S
C1463 C1465 1.327 . S
C1463 H1486 0.950 . S
C1464 C1463 1.349 . S
C1464 C1476 1.349 . S
C1465 C1463 1.327 . S
C1465 C1481 1.429 . S
C1465 H1487 0.950 . S
C1466 H1462 0.949 . S
C1466 C1474 1.574 . S
C1466 C1482 1.368 . S
H1467 C1475 0.950 . S
H1468 C1473 0.950 . S
H1469 C1474 0.949 . S
H1470 C1476 0.950 . S
H1471 C1477 0.950 . S
H1472 C1478 0.949 . S
C1473 H1468 0.950 . S
C1473 C1475 1.327 1_554 S
C1473 C1479 1.429 . S
C1474 C1466 1.574 . S
C1474 H1469 0.949 . S
C1474 C1480 1.368 . S
C1475 C1459 1.349 1_556 S
C1475 H1467 0.950 . S
C1475 C1473 1.327 1_556 S
C1476 C1464 1.349 . S
C1476 H1470 0.950 . S
C1476 C1477 1.327 . S
C1477 H1471 0.950 . S
C1477 C1476 1.327 . S
C1477 C1481 1.429 . S
C1478 C1461 1.574 . S
C1478 H1472 0.949 . S
C1478 C1482 1.368 . S
C1479 C1460 1.429 . S
C1479 C1473 1.429 . S
C1479 C1480 1.523 . S
C1480 C1461 1.368 . S
C1480 C1474 1.368 . S
C1480 C1479 1.523 . S
C1481 C1465 1.429 . S
C1481 C1477 1.429 . S
C1481 C1482 1.523 . S
C1482 C1466 1.368 . S
C1482 C1478 1.368 . S
C1482 C1481 1.523 . S
H1483 C1458 0.950 . S
H1484 C1460 0.950 . S
H1485 C1461 0.949 . S
H1486 C1463 0.950 . S
H1487 C1465 0.950 . S
C1488 C1489 1.349 . S
C1488 C1490 1.327 . S
C1488 H1513 0.950 . S
C1489 C1488 1.349 . S
C1489 C1505 1.349 . S
C1490 C1488 1.327 . S
C1490 C1509 1.429 . S
C1490 H1514 0.950 . S
C1491 C1508 1.574 . S
C1491 C1510 1.368 . S
C1491 H1515 0.949 . S
H1492 C1496 0.949 . S
C1493 C1494 1.349 . S
C1493 C1495 1.327 . S
C1493 H1516 0.950 . S
C1494 C1493 1.349 . S
C1494 C1506 1.349 . S
C1495 C1493 1.327 . S
C1495 C1511 1.429 . S
C1495 H1517 0.950 . S
C1496 H1492 0.949 . S
C1496 C1504 1.574 . S
C1496 C1512 1.368 . S
H1497 C1505 0.950 . S
H1498 C1503 0.950 . S
H1499 C1504 0.949 . S
H1500 C1506 0.950 . S
H1501 C1507 0.950 . S
H1502 C1508 0.949 . S
C1503 H1498 0.950 . S
C1503 C1505 1.327 . S
C1503 C1509 1.429 . S
C1504 C1496 1.574 . S
C1504 H1499 0.949 . S
C1504 C1510 1.368 . S
C1505 C1489 1.349 . S
C1505 H1497 0.950 . S
C1505 C1503 1.327 . S
C1506 C1494 1.349 . S
C1506 H1500 0.950 . S
C1506 C1507 1.327 . S
C1507 H1501 0.950 . S
C1507 C1506 1.327 . S
C1507 C1511 1.429 . S
C1508 C1491 1.574 . S
C1508 H1502 0.949 . S
C1508 C1512 1.368 . S
C1509 C1490 1.429 . S
C1509 C1503 1.429 . S
C1509 C1510 1.523 . S
C1510 C1491 1.368 . S
C1510 C1504 1.368 . S
C1510 C1509 1.523 . S
C1511 C1495 1.429 . S
C1511 C1507 1.429 . S
C1511 C1512 1.523 . S
C1512 C1496 1.368 . S
C1512 C1508 1.368 . S
C1512 C1511 1.523 . S
H1513 C1488 0.950 . S
H1514 C1490 0.950 . S
H1515 C1491 0.949 . S
H1516 C1493 0.950 . S
H1517 C1495 0.950 . S
C1518 C1519 1.349 1_554 S
C1518 C1520 1.327 . S
C1518 H1543 0.950 . S
C1519 C1518 1.349 1_556 S
C1519 C1535 1.349 . S
C1520 C1518 1.327 . S
C1520 C1539 1.429 . S
C1520 H1544 0.950 . S
C1521 C1538 1.574 . S
C1521 C1540 1.368 . S
C1521 H1545 0.949 . S
H1522 C1526 0.949 . S
C1523 C1524 1.349 . S
C1523 C1525 1.327 . S
C1523 H1546 0.950 . S
C1524 C1523 1.349 . S
C1524 C1536 1.349 . S
C1525 C1523 1.327 . S
C1525 C1541 1.429 . S
C1525 H1547 0.950 . S
C1526 H1522 0.949 . S
C1526 C1534 1.574 . S
C1526 C1542 1.368 . S
H1527 C1535 0.950 . S
H1528 C1533 0.950 . S
H1529 C1534 0.949 . S
H1530 C1536 0.950 . S
H1531 C1537 0.950 . S
H1532 C1538 0.949 . S
C1533 H1528 0.950 . S
C1533 C1535 1.327 . S
C1533 C1539 1.429 1_556 S
C1534 C1526 1.574 . S
C1534 H1529 0.949 . S
C1534 C1540 1.368 . S
C1535 C1519 1.349 . S
C1535 H1527 0.950 . S
C1535 C1533 1.327 . S
C1536 C1524 1.349 . S
C1536 H1530 0.950 . S
C1536 C1537 1.327 . S
C1537 H1531 0.950 . S
C1537 C1536 1.327 . S
C1537 C1541 1.429 . S
C1538 C1521 1.574 . S
C1538 H1532 0.949 . S
C1538 C1542 1.368 . S
C1539 C1520 1.429 . S
C1539 C1533 1.429 1_554 S
C1539 C1540 1.523 . S
C1540 C1521 1.368 . S
C1540 C1534 1.368 . S
C1540 C1539 1.523 . S
C1541 C1525 1.429 . S
C1541 C1537 1.429 . S
C1541 C1542 1.523 . S
C1542 C1526 1.368 . S
C1542 C1538 1.368 . S
C1542 C1541 1.523 . S
H1543 C1518 0.950 . S
H1544 C1520 0.950 . S
H1545 C1521 0.949 . S
H1546 C1523 0.950 . S
H1547 C1525 0.950 . S
C1548 C1549 1.349 . S
C1548 C1550 1.327 . S
C1548 H1573 0.950 . S
C1549 C1548 1.349 . S
C1549 C1565 1.349 . S
C1550 C1548 1.327 . S
C1550 C1569 1.429 . S
C1550 H1574 0.950 . S
C1551 C1568 1.574 . S
C1551 C1570 1.368 . S
C1551 H1575 0.949 . S
H1552 C1556 0.949 . S
C1553 C1554 1.349 . S
C1553 C1555 1.327 . S
C1553 H1576 0.950 . S
C1554 C1553 1.349 . S
C1554 C1566 1.349 . S
C1555 C1553 1.327 . S
C1555 C1571 1.429 . S
C1555 H1577 0.950 . S
C1556 H1552 0.949 . S
C1556 C1564 1.574 . S
C1556 C1572 1.368 . S
H1557 C1565 0.950 . S
H1558 C1563 0.950 . S
H1559 C1564 0.949 . S
H1560 C1566 0.950 . S
H1561 C1567 0.950 . S
H1562 C1568 0.949 . S
C1563 H1558 0.950 . S
C1563 C1565 1.327 . S
C1563 C1569 1.429 . S
C1564 C1556 1.574 . S
C1564 H1559 0.949 . S
C1564 C1570 1.368 . S
C1565 C1549 1.349 . S
C1565 H1557 0.950 . S
C1565 C1563 1.327 . S
C1566 C1554 1.349 . S
C1566 H1560 0.950 . S
C1566 C1567 1.327 . S
C1567 H1561 0.950 . S
C1567 C1566 1.327 . S
C1567 C1571 1.429 . S
C1568 C1551 1.574 . S
C1568 H1562 0.949 . S
C1568 C1572 1.368 . S
C1569 C1550 1.429 . S
C1569 C1563 1.429 . S
C1569 C1570 1.523 . S
C1570 C1551 1.368 . S
C1570 C1564 1.368 . S
C1570 C1569 1.523 . S
C1571 C1555 1.429 . S
C1571 C1567 1.429 . S
C1571 C1572 1.523 . S
C1572 C1556 1.368 . S
C1572 C1568 1.368 . S
C1572 C1571 1.523 . S
H1573 C1548 0.950 . S
H1574 C1550 0.950 . S
H1575 C1551 0.949 . S
H1576 C1553 0.950 . S
H1577 C1555 0.950 . S
C1578 C1579 1.349 . S
C1578 C1580 1.327 . S
C1578 H1603 0.950 . S
C1579 C1578 1.349 . S
C1579 C1595 1.349 . S
C1580 C1578 1.327 . S
C1580 C1599 1.429 . S
C1580 H1604 0.950 . S
C1581 C1598 1.574 . S
C1581 C1600 1.368 . S
C1581 H1605 0.949 . S
H1582 C1586 0.949 . S
C1583 C1584 1.349 . S
C1583 C1585 1.327 . S
C1583 H1606 0.950 . S
C1584 C1583 1.349 . S
C1584 C1596 1.349 . S
C1585 C1583 1.327 . S
C1585 C1601 1.429 . S
C1585 H1607 0.950 . S
C1586 H1582 0.949 . S
C1586 C1594 1.574 . S
C1586 C1602 1.368 . S
H1587 C1595 0.950 . S
H1588 C1593 0.950 . S
H1589 C1594 0.949 . S
H1590 C1596 0.950 . S
H1591 C1597 0.950 . S
H1592 C1598 0.949 . S
C1593 H1588 0.950 . S
C1593 C1595 1.327 . S
C1593 C1599 1.429 . S
C1594 C1586 1.574 . S
C1594 H1589 0.949 . S
C1594 C1600 1.368 . S
C1595 C1579 1.349 . S
C1595 H1587 0.950 . S
C1595 C1593 1.327 . S
C1596 C1584 1.349 . S
C1596 H1590 0.950 . S
C1596 C1597 1.327 . S
C1597 H1591 0.950 . S
C1597 C1596 1.327 . S
C1597 C1601 1.429 . S
C1598 C1581 1.574 . S
C1598 H1592 0.949 . S
C1598 C1602 1.368 . S
C1599 C1580 1.429 . S
C1599 C1593 1.429 . S
C1599 C1600 1.523 . S
C1600 C1581 1.368 . S
C1600 C1594 1.368 . S
C1600 C1599 1.523 . S
C1601 C1585 1.429 . S
C1601 C1597 1.429 . S
C1601 C1602 1.523 . S
C1602 C1586 1.368 . S
C1602 C1598 1.368 . S
C1602 C1601 1.523 . S
H1603 C1578 0.950 . S
H1604 C1580 0.950 . S
H1605 C1581 0.949 . S
H1606 C1583 0.950 . S
H1607 C1585 0.950 . S
C1608 C1609 1.349 . S
C1608 C1610 1.327 . S
C1608 H1633 0.950 . S
C1609 C1608 1.349 . S
C1609 C1625 1.349 . S
C1610 C1608 1.327 . S
C1610 C1629 1.429 . S
C1610 H1634 0.950 . S
C1611 C1628 1.574 . S
C1611 C1630 1.368 . S
C1611 H1635 0.949 . S
H1612 C1616 0.949 . S
C1613 C1614 1.349 . S
C1613 C1615 1.327 . S
C1613 H1636 0.950 . S
C1614 C1613 1.349 . S
C1614 C1626 1.349 . S
C1615 C1613 1.327 . S
C1615 C1631 1.429 . S
C1615 H1637 0.950 . S
C1616 H1612 0.949 . S
C1616 C1624 1.574 . S
C1616 C1632 1.368 . S
H1617 C1625 0.950 . S
H1618 C1623 0.950 . S
H1619 C1624 0.949 . S
H1620 C1626 0.950 . S
H1621 C1627 0.950 . S
H1622 C1628 0.949 . S
C1623 H1618 0.950 . S
C1623 C1625 1.327 . S
C1623 C1629 1.429 . S
C1624 C1616 1.574 . S
C1624 H1619 0.949 . S
C1624 C1630 1.368 . S
C1625 C1609 1.349 . S
C1625 H1617 0.950 . S
C1625 C1623 1.327 . S
C1626 C1614 1.349 . S
C1626 H1620 0.950 . S
C1626 C1627 1.327 . S
C1627 H1621 0.950 . S
C1627 C1626 1.327 . S
C1627 C1631 1.429 . S
C1628 C1611 1.574 . S
C1628 H1622 0.949 . S
C1628 C1632 1.368 . S
C1629 C1610 1.429 . S
C1629 C1623 1.429 . S
C1629 C1630 1.523 . S
C1630 C1611 1.368 . S
C1630 C1624 1.368 . S
C1630 C1629 1.523 . S
C1631 C1615 1.429 . S
C1631 C1627 1.429 . S
C1631 C1632 1.523 . S
C1632 C1616 1.368 . S
C1632 C1628 1.368 . S
C1632 C1631 1.523 . S
H1633 C1608 0.950 . S
H1634 C1610 0.950 . S
H1635 C1611 0.949 . S
H1636 C1613 0.950 . S
H1637 C1615 0.950 . S
C1638 C1639 1.349 . S
C1638 C1640 1.327 . S
C1638 H1663 0.950 . S
C1639 C1638 1.349 . S
C1639 C1655 1.349 . S
C1640 C1638 1.327 . S
C1640 C1659 1.429 . S
C1640 H1664 0.950 . S
C1641 C1658 1.574 . S
C1641 C1660 1.368 . S
C1641 H1665 0.949 . S
H1642 C1646 0.949 . S
C1643 C1644 1.349 . S
C1643 C1645 1.327 . S
C1643 H1666 0.950 . S
C1644 C1643 1.349 . S
C1644 C1656 1.349 . S
C1645 C1643 1.327 . S
C1645 C1661 1.429 . S
C1645 H1667 0.950 . S
C1646 H1642 0.949 . S
C1646 C1654 1.574 . S
C1646 C1662 1.368 . S
H1647 C1655 0.950 . S
H1648 C1653 0.950 . S
H1649 C1654 0.949 . S
H1650 C1656 0.950 . S
H1651 C1657 0.950 . S
H1652 C1658 0.949 . S
C1653 H1648 0.950 . S
C1653 C1655 1.327 . S
C1653 C1659 1.429 . S
C1654 C1646 1.574 . S
C1654 H1649 0.949 . S
C1654 C1660 1.368 . S
C1655 C1639 1.349 . S
C1655 H1647 0.950 . S
C1655 C1653 1.327 . S
C1656 C1644 1.349 . S
C1656 H1650 0.950 . S
C1656 C1657 1.327 . S
C1657 H1651 0.950 . S
C1657 C1656 1.327 . S
C1657 C1661 1.429 . S
C1658 C1641 1.574 . S
C1658 H1652 0.949 . S
C1658 C1662 1.368 . S
C1659 C1640 1.429 . S
C1659 C1653 1.429 . S
C1659 C1660 1.523 . S
C1660 C1641 1.368 . S
C1660 C1654 1.368 . S
C1660 C1659 1.523 . S
C1661 C1645 1.429 . S
C1661 C1657 1.429 . S
C1661 C1662 1.523 . S
C1662 C1646 1.368 . S
C1662 C1658 1.368 . S
C1662 C1661 1.523 . S
H1663 C1638 0.950 . S
H1664 C1640 0.950 . S
H1665 C1641 0.949 . S
H1666 C1643 0.950 . S
H1667 C1645 0.950 . S
C1668 C1669 1.349 . S
C1668 C1670 1.327 . S
C1668 H1693 0.950 . S
C1669 C1668 1.349 . S
C1669 C1685 1.349 . S
C1670 C1668 1.327 . S
C1670 C1689 1.429 . S
C1670 H1694 0.950 . S
C1671 C1688 1.574 . S
C1671 C1690 1.368 . S
C1671 H1695 0.949 1_556 S
H1672 C1676 0.949 . S
C1673 C1674 1.349 1_554 S
C1673 C1675 1.327 . S
C1673 H1696 0.950 . S
C1674 C1673 1.349 1_556 S
C1674 C1686 1.349 . S
C1675 C1673 1.327 . S
C1675 C1691 1.429 1_554 S
C1675 H1697 0.950 . S
C1676 H1672 0.949 . S
C1676 C1684 1.574 . S
C1676 C1692 1.368 . S
H1677 C1685 0.950 . S
H1678 C1683 0.950 . S
H1679 C1684 0.949 . S
H1680 C1686 0.950 . S
H1681 C1687 0.950 . S
H1682 C1688 0.949 1_554 S
C1683 H1678 0.950 . S
C1683 C1685 1.327 . S
C1683 C1689 1.429 . S
C1684 C1676 1.574 . S
C1684 H1679 0.949 . S
C1684 C1690 1.368 . S
C1685 C1669 1.349 . S
C1685 H1677 0.950 . S
C1685 C1683 1.327 . S
C1686 C1674 1.349 . S
C1686 H1680 0.950 . S
C1686 C1687 1.327 . S
C1687 H1681 0.950 . S
C1687 C1686 1.327 . S
C1687 C1691 1.429 . S
C1688 C1671 1.574 . S
C1688 H1682 0.949 1_556 S
C1688 C1692 1.368 . S
C1689 C1670 1.429 . S
C1689 C1683 1.429 . S
C1689 C1690 1.523 . S
C1690 C1671 1.368 . S
C1690 C1684 1.368 . S
C1690 C1689 1.523 . S
C1691 C1675 1.429 1_556 S
C1691 C1687 1.429 . S
C1691 C1692 1.523 . S
C1692 C1676 1.368 . S
C1692 C1688 1.368 . S
C1692 C1691 1.523 . S
H1693 C1668 0.950 . S
H1694 C1670 0.950 . S
H1695 C1671 0.949 1_554 S
H1696 C1673 0.950 . S
H1697 C1675 0.950 . S
C1698 C1699 1.349 . S
C1698 C1700 1.327 . S
C1698 H1723 0.950 . S
C1699 C1698 1.349 . S
C1699 C1715 1.349 . S
C1700 C1698 1.327 . S
C1700 C1719 1.429 . S
C1700 H1724 0.950 . S
C1701 C1718 1.574 . S
C1701 C1720 1.368 . S
C1701 H1725 0.949 . S
H1702 C1706 0.949 . S
C1703 C1704 1.349 . S
C1703 C1705 1.327 . S
C1703 H1726 0.950 . S
C1704 C1703 1.349 . S
C1704 C1716 1.349 . S
C1705 C1703 1.327 . S
C1705 C1721 1.429 . S
C1705 H1727 0.950 . S
C1706 H1702 0.949 . S
C1706 C1714 1.574 . S
C1706 C1722 1.368 . S
H1707 C1715 0.950 . S
H1708 C1713 0.950 . S
H1709 C1714 0.949 . S
H1710 C1716 0.950 . S
H1711 C1717 0.950 . S
H1712 C1718 0.949 . S
C1713 H1708 0.950 . S
C1713 C1715 1.327 . S
C1713 C1719 1.429 . S
C1714 C1706 1.574 . S
C1714 H1709 0.949 . S
C1714 C1720 1.368 . S
C1715 C1699 1.349 . S
C1715 H1707 0.950 . S
C1715 C1713 1.327 . S
C1716 C1704 1.349 . S
C1716 H1710 0.950 . S
C1716 C1717 1.327 . S
C1717 H1711 0.950 . S
C1717 C1716 1.327 . S
C1717 C1721 1.429 . S
C1718 C1701 1.574 . S
C1718 H1712 0.949 . S
C1718 C1722 1.368 . S
C1719 C1700 1.429 . S
C1719 C1713 1.429 . S
C1719 C1720 1.523 . S
C1720 C1701 1.368 . S
C1720 C1714 1.368 . S
C1720 C1719 1.523 . S
C1721 C1705 1.429 . S
C1721 C1717 1.429 . S
C1721 C1722 1.523 . S
C1722 C1706 1.368 . S
C1722 C1718 1.368 . S
C1722 C1721 1.523 . S
H1723 C1698 0.950 . S
H1724 C1700 0.950 . S
H1725 C1701 0.949 . S
H1726 C1703 0.950 . S
H1727 C1705 0.950 . S
C1728 C1729 1.349 . S
C1728 C1730 1.327 . S
C1728 H1753 0.950 . S
C1729 C1728 1.349 . S
C1729 C1745 1.349 . S
C1730 C1728 1.327 . S
C1730 C1749 1.429 . S
C1730 H1754 0.950 . S
C1731 C1748 1.574 . S
C1731 C1750 1.368 . S
C1731 H1755 0.949 . S
H1732 C1736 0.949 1_556 S
C1733 C1734 1.349 . S
C1733 C1735 1.327 . S
C1733 H1756 0.950 . S
C1734 C1733 1.349 . S
C1734 C1746 1.349 1_554 S
C1735 C1733 1.327 . S
C1735 C1751 1.429 . S
C1735 H1757 0.950 . S
C1736 H1732 0.949 1_554 S
C1736 C1744 1.574 . S
C1736 C1752 1.368 . S
H1737 C1745 0.950 . S
H1738 C1743 0.950 . S
H1739 C1744 0.923 1_556 S
H1740 C1746 0.950 . S
H1741 C1747 0.960 . S
H1742 C1748 0.949 . S
C1743 H1738 0.950 . S
C1743 C1745 1.327 . S
C1743 C1749 1.429 . S
C1744 C1736 1.574 . S
C1744 H1739 0.923 1_554 S
C1744 C1750 1.368 . S
C1745 C1729 1.349 . S
C1745 H1737 0.950 . S
C1745 C1743 1.327 . S
C1746 C1734 1.349 1_556 S
C1746 H1740 0.950 . S
C1746 C1747 1.330 . S
C1747 H1741 0.960 . S
C1747 C1746 1.330 . S
C1747 C1751 1.416 1_556 S
C1748 C1731 1.574 . S
C1748 H1742 0.949 . S
C1748 C1752 1.368 . S
C1749 C1730 1.429 . S
C1749 C1743 1.429 . S
C1749 C1750 1.523 . S
C1750 C1731 1.368 . S
C1750 C1744 1.368 . S
C1750 C1749 1.523 . S
C1751 C1735 1.429 . S
C1751 C1747 1.416 1_554 S
C1751 C1752 1.523 . S
C1752 C1736 1.368 . S
C1752 C1748 1.368 . S
C1752 C1751 1.523 . S
H1753 C1728 0.950 . S
H1754 C1730 0.950 . S
H1755 C1731 0.949 . S
H1756 C1733 0.950 . S
H1757 C1735 0.950 . S
C1758 C1759 1.349 . S
C1758 C1760 1.327 . S
C1758 H1783 0.950 . S
C1759 C1758 1.349 . S
C1759 C1775 1.349 . S
C1760 C1758 1.327 . S
C1760 C1779 1.429 . S
C1760 H1784 0.950 . S
C1761 C1778 1.574 . S
C1761 C1780 1.368 . S
C1761 H1785 0.949 . S
H1762 C1766 0.949 . S
C1763 C1764 1.349 . S
C1763 C1765 1.327 . S
C1763 H1786 0.950 . S
C1764 C1763 1.349 . S
C1764 C1776 1.349 . S
C1765 C1763 1.327 . S
C1765 C1781 1.429 . S
C1765 H1787 0.950 . S
C1766 H1762 0.949 . S
C1766 C1774 1.574 . S
C1766 C1782 1.368 . S
H1767 C1775 0.950 . S
H1768 C1773 0.950 . S
H1769 C1774 0.949 1_545 S
H1770 C1776 0.950 . S
H1771 C1777 0.950 . S
H1772 C1778 0.949 . S
C1773 H1768 0.950 . S
C1773 C1775 1.327 1_565 S
C1773 C1779 1.429 1_565 S
C1774 C1766 1.574 . S
C1774 H1769 0.949 1_565 S
C1774 C1780 1.368 . S
C1775 C1759 1.349 . S
C1775 H1767 0.950 . S
C1775 C1773 1.327 1_545 S
C1776 C1764 1.349 . S
C1776 H1770 0.950 . S
C1776 C1777 1.327 . S
C1777 H1771 0.950 . S
C1777 C1776 1.327 . S
C1777 C1781 1.429 . S
C1778 C1761 1.574 . S
C1778 H1772 0.949 . S
C1778 C1782 1.368 . S
C1779 C1760 1.429 . S
C1779 C1773 1.429 1_545 S
C1779 C1780 1.523 1_545 S
C1780 C1761 1.368 . S
C1780 C1774 1.368 . S
C1780 C1779 1.523 1_565 S
C1781 C1765 1.429 . S
C1781 C1777 1.429 . S
C1781 C1782 1.523 . S
C1782 C1766 1.368 . S
C1782 C1778 1.368 . S
C1782 C1781 1.523 . S
H1783 C1758 0.950 . S
H1784 C1760 0.950 . S
H1785 C1761 0.949 . S
H1786 C1763 0.950 . S
H1787 C1765 0.950 . S
C354 C202 1.672 . S
C349 C66 1.696 . S
C384 C215 1.166 . S
C379 C76 1.172 . S
C409 C93 1.838 . S
C414 C228 1.807 . S
C444 C241 1.467 . S
C439 C54 1.494 . S
C474 C249 1.465 . S
C469 C126 1.483 . S
C504 C262 1.777 . S
C499 C150 1.796 . S
C529 C136 1.113 . S
C534 C275 1.101 . S
C564 C288 1.788 . S
C559 C117 1.809 . S
C589 C141 1.171 . S
C594 C306 1.159 . S
C624 C317 1.314 . S
C619 C112 1.328 . S
C649 C124 1.510 . S
C654 C301 1.487 . S
C684 C309 1.218 . S
C679 C148 1.223 . S
C709 C88 1.238 . S
C714 C332 1.236 . S
C739 C52 1.616 . S
C744 C322 1.597 . S
C769 C64 1.226 . S
C774 C327 1.209 . S
C799 C78 1.219 . S
C804 C330 1.196 . S
C829 C45 1.703 . S
C834 C239 1.689 1_565 S
C859 C177 1.844 . S
C864 C231 1.826 . S
C894 C200 1.441 . S
C889 C189 1.448 . S
C924 C205 1.610 . S
C919 C102 1.635 . S
C949 C57 1.777 1_545 S
C954 C252 1.774 . S
C984 C291 1.440 . S
C979 C138 1.478 . S
C1014 C244 1.812 . S
C1009 C114 1.828 1_545 S
C1044 C270 1.676 . S
C1039 C153 1.712 . S
C1074 C280 1.671 . S
C1069 C174 1.696 . S
C1099 C184 1.172 . S
C1104 C293 1.166 . S
C1129 C105 1.838 . S
C1134 C254 1.807 . S
C1164 C267 1.467 . S
C1159 C162 1.494 . S
C1189 C42 1.483 . S
C1194 C223 1.465 . S
C1224 C236 1.777 . S
C1219 C6 1.796 . S
C1254 C197 1.101 . S
C1249 C16 1.113 . S
C1284 C210 1.788 . S
C1279 C33 1.780 1_455 S
C1309 C21 1.171 . S
C1314 C319 1.159 . S
C1339 C28 1.328 1_556 S
C1344 C304 1.314 . S
C1369 C40 1.510 . S
C1374 C314 1.487 . S
C1399 C4 1.220 . S
C1404 C296 1.218 . S
C1434 C345 1.236 . S
C1429 C100 1.238 . S
C1464 C335 1.597 . S
C1459 C160 1.616 1_554 S
C1494 C340 1.209 . S
C1489 C172 1.226 . S
C1519 C186 1.219 . S
C1524 C343 1.196 . S
C1549 C129 1.703 . S
C1554 C265 1.689 . S
C1584 C257 1.826 . S
C1579 C69 1.844 . S
C1614 C278 1.441 . S
C1609 C81 1.448 . S
C1644 C283 1.610 . S
C1639 C90 1.635 . S
C1669 C165 1.792 . S
C1674 C226 1.774 . S
C1704 C213 1.440 . S
C1699 C18 1.478 . S
C1729 C30 1.828 . S
C1734 C218 1.812 . S
C1764 C192 1.676 . S
C1759 C9 1.712 . S
