# Generated by pormake.
# Topology tbo, (3,4)-cn, num edge types: 1
# Building blocks:
#     Node 0, Type 0, BuildingBlock: WUSLED_clean_sbu_0, # of connection points: 3
#     Node 1, Type 0, BuildingBlock: WUSLED_clean_sbu_0, # of connection points: 3
#     Node 2, Type 0, BuildingBlock: WUSLED_clean_sbu_0, # of connection points: 3
#     Node 3, Type 0, BuildingBlock: WUSLED_clean_sbu_0, # of connection points: 3
#     Node 4, Type 0, BuildingBlock: WUSLED_clean_sbu_0, # of connection points: 3
#     Node 5, Type 0, BuildingBlock: WUSLED_clean_sbu_0, # of connection points: 3
#     Node 6, Type 0, BuildingBlock: WUSLED_clean_sbu_0, # of connection points: 3
#     Node 7, Type 0, BuildingBlock: WUSLED_clean_sbu_0, # of connection points: 3
#     Node 8, Type 0, BuildingBlock: WUSLED_clean_sbu_0, # of connection points: 3
#     Node 9, Type 0, BuildingBlock: WUSLED_clean_sbu_0, # of connection points: 3
#     Node 10, Type 0, BuildingBlock: WUSLED_clean_sbu_0, # of connection points: 3
#     Node 11, Type 0, BuildingBlock: WUSLED_clean_sbu_0, # of connection points: 3
#     Node 12, Type 0, BuildingBlock: WUSLED_clean_sbu_0, # of connection points: 3
#     Node 13, Type 0, BuildingBlock: WUSLED_clean_sbu_0, # of connection points: 3
#     Node 14, Type 0, BuildingBlock: WUSLED_clean_sbu_0, # of connection points: 3
#     Node 15, Type 0, BuildingBlock: WUSLED_clean_sbu_0, # of connection points: 3
#     Node 16, Type 0, BuildingBlock: WUSLED_clean_sbu_0, # of connection points: 3
#     Node 17, Type 0, BuildingBlock: WUSLED_clean_sbu_0, # of connection points: 3
#     Node 18, Type 0, BuildingBlock: WUSLED_clean_sbu_0, # of connection points: 3
#     Node 19, Type 0, BuildingBlock: WUSLED_clean_sbu_0, # of connection points: 3
#     Node 20, Type 0, BuildingBlock: WUSLED_clean_sbu_0, # of connection points: 3
#     Node 21, Type 0, BuildingBlock: WUSLED_clean_sbu_0, # of connection points: 3
#     Node 22, Type 0, BuildingBlock: WUSLED_clean_sbu_0, # of connection points: 3
#     Node 23, Type 0, BuildingBlock: WUSLED_clean_sbu_0, # of connection points: 3
#     Node 24, Type 0, BuildingBlock: WUSLED_clean_sbu_0, # of connection points: 3
#     Node 25, Type 0, BuildingBlock: WUSLED_clean_sbu_0, # of connection points: 3
#     Node 26, Type 0, BuildingBlock: WUSLED_clean_sbu_0, # of connection points: 3
#     Node 27, Type 0, BuildingBlock: WUSLED_clean_sbu_0, # of connection points: 3
#     Node 28, Type 0, BuildingBlock: WUSLED_clean_sbu_0, # of connection points: 3
#     Node 29, Type 0, BuildingBlock: WUSLED_clean_sbu_0, # of connection points: 3
#     Node 30, Type 0, BuildingBlock: WUSLED_clean_sbu_0, # of connection points: 3
#     Node 31, Type 0, BuildingBlock: WUSLED_clean_sbu_0, # of connection points: 3
#     Node 32, Type 1, BuildingBlock: GIZVER_clean_linker_0, # of connection points: 4
#     Node 33, Type 1, BuildingBlock: GIZVER_clean_linker_0, # of connection points: 4
#     Node 34, Type 1, BuildingBlock: GIZVER_clean_linker_0, # of connection points: 4
#     Node 35, Type 1, BuildingBlock: GIZVER_clean_linker_0, # of connection points: 4
#     Node 36, Type 1, BuildingBlock: GIZVER_clean_linker_0, # of connection points: 4
#     Node 37, Type 1, BuildingBlock: GIZVER_clean_linker_0, # of connection points: 4
#     Node 38, Type 1, BuildingBlock: GIZVER_clean_linker_0, # of connection points: 4
#     Node 39, Type 1, BuildingBlock: GIZVER_clean_linker_0, # of connection points: 4
#     Node 40, Type 1, BuildingBlock: GIZVER_clean_linker_0, # of connection points: 4
#     Node 41, Type 1, BuildingBlock: GIZVER_clean_linker_0, # of connection points: 4
#     Node 42, Type 1, BuildingBlock: GIZVER_clean_linker_0, # of connection points: 4
#     Node 43, Type 1, BuildingBlock: GIZVER_clean_linker_0, # of connection points: 4
#     Node 44, Type 1, BuildingBlock: GIZVER_clean_linker_0, # of connection points: 4
#     Node 45, Type 1, BuildingBlock: GIZVER_clean_linker_0, # of connection points: 4
#     Node 46, Type 1, BuildingBlock: GIZVER_clean_linker_0, # of connection points: 4
#     Node 47, Type 1, BuildingBlock: GIZVER_clean_linker_0, # of connection points: 4
#     Node 48, Type 1, BuildingBlock: GIZVER_clean_linker_0, # of connection points: 4
#     Node 49, Type 1, BuildingBlock: GIZVER_clean_linker_0, # of connection points: 4
#     Node 50, Type 1, BuildingBlock: GIZVER_clean_linker_0, # of connection points: 4
#     Node 51, Type 1, BuildingBlock: GIZVER_clean_linker_0, # of connection points: 4
#     Node 52, Type 1, BuildingBlock: GIZVER_clean_linker_0, # of connection points: 4
#     Node 53, Type 1, BuildingBlock: GIZVER_clean_linker_0, # of connection points: 4
#     Node 54, Type 1, BuildingBlock: GIZVER_clean_linker_0, # of connection points: 4
#     Node 55, Type 1, BuildingBlock: GIZVER_clean_linker_0, # of connection points: 4
#     Edge 56, Type (0, 1), BuildingBlock: UVAHIK_clean_linker_0, # of connection points: 2
#     Edge 57, Type (0, 1), BuildingBlock: UVAHIK_clean_linker_0, # of connection points: 2
#     Edge 58, Type (0, 1), BuildingBlock: UVAHIK_clean_linker_0, # of connection points: 2
#     Edge 59, Type (0, 1), BuildingBlock: UVAHIK_clean_linker_0, # of connection points: 2
#     Edge 60, Type (0, 1), BuildingBlock: UVAHIK_clean_linker_0, # of connection points: 2
#     Edge 61, Type (0, 1), BuildingBlock: UVAHIK_clean_linker_0, # of connection points: 2
#     Edge 62, Type (0, 1), BuildingBlock: UVAHIK_clean_linker_0, # of connection points: 2
#     Edge 63, Type (0, 1), BuildingBlock: UVAHIK_clean_linker_0, # of connection points: 2
#     Edge 64, Type (0, 1), BuildingBlock: UVAHIK_clean_linker_0, # of connection points: 2
#     Edge 65, Type (0, 1), BuildingBlock: UVAHIK_clean_linker_0, # of connection points: 2
#     Edge 66, Type (0, 1), BuildingBlock: UVAHIK_clean_linker_0, # of connection points: 2
#     Edge 67, Type (0, 1), BuildingBlock: UVAHIK_clean_linker_0, # of connection points: 2
#     Edge 68, Type (0, 1), BuildingBlock: UVAHIK_clean_linker_0, # of connection points: 2
#     Edge 69, Type (0, 1), BuildingBlock: UVAHIK_clean_linker_0, # of connection points: 2
#     Edge 70, Type (0, 1), BuildingBlock: UVAHIK_clean_linker_0, # of connection points: 2
#     Edge 71, Type (0, 1), BuildingBlock: UVAHIK_clean_linker_0, # of connection points: 2
#     Edge 72, Type (0, 1), BuildingBlock: UVAHIK_clean_linker_0, # of connection points: 2
#     Edge 73, Type (0, 1), BuildingBlock: UVAHIK_clean_linker_0, # of connection points: 2
#     Edge 74, Type (0, 1), BuildingBlock: UVAHIK_clean_linker_0, # of connection points: 2
#     Edge 75, Type (0, 1), BuildingBlock: UVAHIK_clean_linker_0, # of connection points: 2
#     Edge 76, Type (0, 1), BuildingBlock: UVAHIK_clean_linker_0, # of connection points: 2
#     Edge 77, Type (0, 1), BuildingBlock: UVAHIK_clean_linker_0, # of connection points: 2
#     Edge 78, Type (0, 1), BuildingBlock: UVAHIK_clean_linker_0, # of connection points: 2
#     Edge 79, Type (0, 1), BuildingBlock: UVAHIK_clean_linker_0, # of connection points: 2
#     Edge 80, Type (0, 1), BuildingBlock: UVAHIK_clean_linker_0, # of connection points: 2
#     Edge 81, Type (0, 1), BuildingBlock: UVAHIK_clean_linker_0, # of connection points: 2
#     Edge 82, Type (0, 1), BuildingBlock: UVAHIK_clean_linker_0, # of connection points: 2
#     Edge 83, Type (0, 1), BuildingBlock: UVAHIK_clean_linker_0, # of connection points: 2
#     Edge 84, Type (0, 1), BuildingBlock: UVAHIK_clean_linker_0, # of connection points: 2
#     Edge 85, Type (0, 1), BuildingBlock: UVAHIK_clean_linker_0, # of connection points: 2
#     Edge 86, Type (0, 1), BuildingBlock: UVAHIK_clean_linker_0, # of connection points: 2
#     Edge 87, Type (0, 1), BuildingBlock: UVAHIK_clean_linker_0, # of connection points: 2
#     Edge 88, Type (0, 1), BuildingBlock: UVAHIK_clean_linker_0, # of connection points: 2
#     Edge 89, Type (0, 1), BuildingBlock: UVAHIK_clean_linker_0, # of connection points: 2
#     Edge 90, Type (0, 1), BuildingBlock: UVAHIK_clean_linker_0, # of connection points: 2
#     Edge 91, Type (0, 1), BuildingBlock: UVAHIK_clean_linker_0, # of connection points: 2
#     Edge 92, Type (0, 1), BuildingBlock: UVAHIK_clean_linker_0, # of connection points: 2
#     Edge 93, Type (0, 1), BuildingBlock: UVAHIK_clean_linker_0, # of connection points: 2
#     Edge 94, Type (0, 1), BuildingBlock: UVAHIK_clean_linker_0, # of connection points: 2
#     Edge 95, Type (0, 1), BuildingBlock: UVAHIK_clean_linker_0, # of connection points: 2
#     Edge 96, Type (0, 1), BuildingBlock: UVAHIK_clean_linker_0, # of connection points: 2
#     Edge 97, Type (0, 1), BuildingBlock: UVAHIK_clean_linker_0, # of connection points: 2
#     Edge 98, Type (0, 1), BuildingBlock: UVAHIK_clean_linker_0, # of connection points: 2
#     Edge 99, Type (0, 1), BuildingBlock: UVAHIK_clean_linker_0, # of connection points: 2
#     Edge 100, Type (0, 1), BuildingBlock: UVAHIK_clean_linker_0, # of connection points: 2
#     Edge 101, Type (0, 1), BuildingBlock: UVAHIK_clean_linker_0, # of connection points: 2
#     Edge 102, Type (0, 1), BuildingBlock: UVAHIK_clean_linker_0, # of connection points: 2
#     Edge 103, Type (0, 1), BuildingBlock: UVAHIK_clean_linker_0, # of connection points: 2
#     Edge 104, Type (0, 1), BuildingBlock: UVAHIK_clean_linker_0, # of connection points: 2
#     Edge 105, Type (0, 1), BuildingBlock: UVAHIK_clean_linker_0, # of connection points: 2
#     Edge 106, Type (0, 1), BuildingBlock: UVAHIK_clean_linker_0, # of connection points: 2
#     Edge 107, Type (0, 1), BuildingBlock: UVAHIK_clean_linker_0, # of connection points: 2
#     Edge 108, Type (0, 1), BuildingBlock: UVAHIK_clean_linker_0, # of connection points: 2
#     Edge 109, Type (0, 1), BuildingBlock: UVAHIK_clean_linker_0, # of connection points: 2
#     Edge 110, Type (0, 1), BuildingBlock: UVAHIK_clean_linker_0, # of connection points: 2
#     Edge 111, Type (0, 1), BuildingBlock: UVAHIK_clean_linker_0, # of connection points: 2
#     Edge 112, Type (0, 1), BuildingBlock: UVAHIK_clean_linker_0, # of connection points: 2
#     Edge 113, Type (0, 1), BuildingBlock: UVAHIK_clean_linker_0, # of connection points: 2
#     Edge 114, Type (0, 1), BuildingBlock: UVAHIK_clean_linker_0, # of connection points: 2
#     Edge 115, Type (0, 1), BuildingBlock: UVAHIK_clean_linker_0, # of connection points: 2
#     Edge 116, Type (0, 1), BuildingBlock: UVAHIK_clean_linker_0, # of connection points: 2
#     Edge 117, Type (0, 1), BuildingBlock: UVAHIK_clean_linker_0, # of connection points: 2
#     Edge 118, Type (0, 1), BuildingBlock: UVAHIK_clean_linker_0, # of connection points: 2
#     Edge 119, Type (0, 1), BuildingBlock: UVAHIK_clean_linker_0, # of connection points: 2
#     Edge 120, Type (0, 1), BuildingBlock: UVAHIK_clean_linker_0, # of connection points: 2
#     Edge 121, Type (0, 1), BuildingBlock: UVAHIK_clean_linker_0, # of connection points: 2
#     Edge 122, Type (0, 1), BuildingBlock: UVAHIK_clean_linker_0, # of connection points: 2
#     Edge 123, Type (0, 1), BuildingBlock: UVAHIK_clean_linker_0, # of connection points: 2
#     Edge 124, Type (0, 1), BuildingBlock: UVAHIK_clean_linker_0, # of connection points: 2
#     Edge 125, Type (0, 1), BuildingBlock: UVAHIK_clean_linker_0, # of connection points: 2
#     Edge 126, Type (0, 1), BuildingBlock: UVAHIK_clean_linker_0, # of connection points: 2
#     Edge 127, Type (0, 1), BuildingBlock: UVAHIK_clean_linker_0, # of connection points: 2
#     Edge 128, Type (0, 1), BuildingBlock: UVAHIK_clean_linker_0, # of connection points: 2
#     Edge 129, Type (0, 1), BuildingBlock: UVAHIK_clean_linker_0, # of connection points: 2
#     Edge 130, Type (0, 1), BuildingBlock: UVAHIK_clean_linker_0, # of connection points: 2
#     Edge 131, Type (0, 1), BuildingBlock: UVAHIK_clean_linker_0, # of connection points: 2
#     Edge 132, Type (0, 1), BuildingBlock: UVAHIK_clean_linker_0, # of connection points: 2
#     Edge 133, Type (0, 1), BuildingBlock: UVAHIK_clean_linker_0, # of connection points: 2
#     Edge 134, Type (0, 1), BuildingBlock: UVAHIK_clean_linker_0, # of connection points: 2
#     Edge 135, Type (0, 1), BuildingBlock: UVAHIK_clean_linker_0, # of connection points: 2
#     Edge 136, Type (0, 1), BuildingBlock: UVAHIK_clean_linker_0, # of connection points: 2
#     Edge 137, Type (0, 1), BuildingBlock: UVAHIK_clean_linker_0, # of connection points: 2
#     Edge 138, Type (0, 1), BuildingBlock: UVAHIK_clean_linker_0, # of connection points: 2
#     Edge 139, Type (0, 1), BuildingBlock: UVAHIK_clean_linker_0, # of connection points: 2
#     Edge 140, Type (0, 1), BuildingBlock: UVAHIK_clean_linker_0, # of connection points: 2
#     Edge 141, Type (0, 1), BuildingBlock: UVAHIK_clean_linker_0, # of connection points: 2
#     Edge 142, Type (0, 1), BuildingBlock: UVAHIK_clean_linker_0, # of connection points: 2
#     Edge 143, Type (0, 1), BuildingBlock: UVAHIK_clean_linker_0, # of connection points: 2
#     Edge 144, Type (0, 1), BuildingBlock: UVAHIK_clean_linker_0, # of connection points: 2
#     Edge 145, Type (0, 1), BuildingBlock: UVAHIK_clean_linker_0, # of connection points: 2
#     Edge 146, Type (0, 1), BuildingBlock: UVAHIK_clean_linker_0, # of connection points: 2
#     Edge 147, Type (0, 1), BuildingBlock: UVAHIK_clean_linker_0, # of connection points: 2
#     Edge 148, Type (0, 1), BuildingBlock: UVAHIK_clean_linker_0, # of connection points: 2
#     Edge 149, Type (0, 1), BuildingBlock: UVAHIK_clean_linker_0, # of connection points: 2
#     Edge 150, Type (0, 1), BuildingBlock: UVAHIK_clean_linker_0, # of connection points: 2
#     Edge 151, Type (0, 1), BuildingBlock: UVAHIK_clean_linker_0, # of connection points: 2
# Relax obj value: 0.000
# Max RMSD: 0.035
# Mean RMSD: 0.017
data_MOF--net-tbo--node1-WUSLED_clean_sbu_0--node2-GIZVER_clean_linker_0--edge1-UVAHIK_clean_linker_0
_symmetry_space_group_name_H-M    P1
_symmetry_Int_Tables_number       1
_symmetry_cell_setting            triclinic
loop_
_symmetry_equiv_pos_as_xyz
'x, y, z'
_cell_length_a     116.83025
_cell_length_b     117.35303
_cell_length_c     117.08178
_cell_angle_alpha  89.627814
_cell_angle_beta   90.419954
_cell_angle_gamma 90.90935
loop_
_atom_site_label
_atom_site_type_symbol
_atom_site_fract_x
_atom_site_fract_y
_atom_site_fract_z
_atom_type_partial_charge
C0 C 0.17341 0.14142 0.19207 0.0
C1 C 0.18229 0.13702 0.1855 0.0
C2 C 0.18517 0.12183 0.19956 0.0
C3 C 0.18814 0.12731 0.18922 0.0
C4 C 0.17629 0.12637 0.2061 0.0
C5 C 0.17047 0.13604 0.20238 0.0
U6 U 0.1681 0.16706 0.17211 0.0
O7 O 0.1518 0.17389 0.16577 0.0
O8 O 0.16303 0.18447 0.17661 0.0
C9 C 0.15298 0.18341 0.17157 0.0
C10 C 0.16707 0.15158 0.18842 0.0
C11 C 0.143 0.18708 0.17828 0.0
C12 C 0.12407 0.18369 0.18637 0.0
C13 C 0.13364 0.17974 0.18052 0.0
C14 C 0.13315 0.20229 0.18805 0.0
C15 C 0.12366 0.19505 0.19014 0.0
C16 C 0.14267 0.19836 0.18216 0.0
C17 C 0.18797 0.17306 0.14643 0.0
C18 C 0.18509 0.17987 0.12691 0.0
C19 C 0.20311 0.18363 0.13659 0.0
C20 C 0.19904 0.1779 0.14629 0.0
C21 C 0.19625 0.1846 0.12671 0.0
C22 C 0.181 0.17418 0.13665 0.0
C23 C 0.18421 0.16641 0.15658 0.0
O24 O 0.17257 0.16137 0.18951 0.0
O25 O 0.16138 0.15071 0.17873 0.0
O26 O 0.17445 0.16072 0.15573 0.0
O27 O 0.18562 0.17139 0.16653 0.0
H28 H 0.18468 0.14107 0.17751 0.0
H29 H 0.19486 0.124 0.18392 0.0
H30 H 0.17391 0.12254 0.21419 0.0
H31 H 0.16368 0.13936 0.2076 0.0
H32 H 0.1169 0.17789 0.1877 0.0
H33 H 0.13363 0.17099 0.17764 0.0
H34 H 0.13326 0.21101 0.191 0.0
H35 H 0.14977 0.20419 0.18056 0.0
H36 H 0.1796 0.18033 0.11944 0.0
H37 H 0.21166 0.18732 0.13686 0.0
H38 H 0.20462 0.17714 0.15369 0.0
H39 H 0.17244 0.17051 0.13643 0.0
C40 C 0.82584 0.17244 0.14473 0.0
C41 C 0.83257 0.18132 0.14011 0.0
C42 C 0.81801 0.18478 0.1255 0.0
C43 C 0.82868 0.18744 0.13056 0.0
C44 C 0.81127 0.17594 0.1303 0.0
C45 C 0.81517 0.16984 0.13981 0.0
U46 U 0.84682 0.16706 0.16936 0.0
O47 O 0.84363 0.1609 0.18683 0.0
O48 O 0.85422 0.15089 0.17531 0.0
C49 C 0.84886 0.15122 0.18514 0.0
C50 C 0.82986 0.16571 0.15456 0.0
C51 C 0.84264 0.14066 0.18856 0.0
C52 C 0.82557 0.13078 0.1956 0.0
C53 C 0.83109 0.14078 0.19186 0.0
C54 C 0.84295 0.12028 0.19258 0.0
C55 C 0.83145 0.1204 0.19608 0.0
C56 C 0.84848 0.1303 0.18892 0.0
C57 C 0.87182 0.18813 0.17475 0.0
C58 C 0.8909 0.18514 0.18259 0.0
C59 C 0.88208 0.20356 0.18433 0.0
C60 C 0.87238 0.19943 0.17856 0.0
C61 C 0.89152 0.1965 0.18636 0.0
C62 C 0.88115 0.18098 0.17688 0.0
C63 C 0.86155 0.18415 0.16837 0.0
O64 O 0.83968 0.16061 0.15318 0.0
O65 O 0.82895 0.17059 0.16458 0.0
O66 O 0.85181 0.18465 0.17388 0.0
O67 O 0.86255 0.17479 0.16236 0.0
H68 H 0.84085 0.18345 0.14382 0.0
H69 H 0.83413 0.19412 0.12704 0.0
H70 H 0.80293 0.1738 0.12677 0.0
H71 H 0.80985 0.16304 0.14331 0.0
H72 H 0.81678 0.13125 0.19837 0.0
H73 H 0.82632 0.14863 0.19171 0.0
H74 H 0.84771 0.11244 0.19265 0.0
H75 H 0.85738 0.12998 0.18643 0.0
H76 H 0.89804 0.17948 0.18387 0.0
H77 H 0.88213 0.21229 0.18728 0.0
H78 H 0.86528 0.20509 0.17704 0.0
H79 H 0.88097 0.17221 0.17405 0.0
C80 C 0.82829 0.84366 0.1447 0.0
C81 C 0.83556 0.83564 0.13985 0.0
C82 C 0.8214 0.8316 0.1249 0.0
C83 C 0.83215 0.82967 0.13003 0.0
C84 C 0.81416 0.83965 0.12987 0.0
C85 C 0.81759 0.84561 0.13965 0.0
U86 U 0.84791 0.84861 0.17061 0.0
O87 O 0.85449 0.86463 0.17801 0.0
O88 O 0.84356 0.8532 0.18825 0.0
C89 C 0.84891 0.86311 0.18763 0.0
C90 C 0.83167 0.85 0.15504 0.0
C91 C 0.84249 0.87295 0.19176 0.0
C92 C 0.82865 0.88803 0.18899 0.0
C93 C 0.83456 0.87864 0.18479 0.0
C94 C 0.83847 0.88604 0.20717 0.0
C95 C 0.83051 0.89182 0.20026 0.0
C96 C 0.84439 0.87672 0.20296 0.0
C97 C 0.87315 0.82858 0.1759 0.0
C98 C 0.88777 0.83155 0.19053 0.0
C99 C 0.88719 0.81398 0.17978 0.0
C100 C 0.87768 0.81786 0.17366 0.0
C101 C 0.8924 0.82079 0.18828 0.0
C102 C 0.87822 0.83541 0.1844 0.0
C103 C 0.86314 0.83243 0.16928 0.0
O104 O 0.8304 0.84445 0.16474 0.0
O105 O 0.8414 0.85575 0.15445 0.0
O106 O 0.86426 0.84236 0.16411 0.0
O107 O 0.85318 0.83102 0.17428 0.0
H108 H 0.84387 0.83401 0.14364 0.0
H109 H 0.838 0.82364 0.1264 0.0
H110 H 0.80575 0.84122 0.12631 0.0
H111 H 0.81184 0.85173 0.14332 0.0
H112 H 0.8225 0.89221 0.18348 0.0
H113 H 0.83295 0.87582 0.17612 0.0
H114 H 0.84026 0.88881 0.21581 0.0
H115 H 0.85049 0.87245 0.20845 0.0
H116 H 0.8916 0.83706 0.19693 0.0
H117 H 0.89036 0.80557 0.17795 0.0
H118 H 0.87384 0.81244 0.16718 0.0
H119 H 0.87481 0.84373 0.18626 0.0
C120 C 0.14228 0.82726 0.17521 0.0
C121 C 0.14311 0.82407 0.18679 0.0
C122 C 0.12273 0.81914 0.18715 0.0
C123 C 0.13345 0.82004 0.19267 0.0
C124 C 0.12191 0.82255 0.17562 0.0
C125 C 0.13157 0.82651 0.16973 0.0
U126 U 0.16798 0.84735 0.16931 0.0
O127 O 0.18544 0.84343 0.1638 0.0
O128 O 0.17448 0.85404 0.15294 0.0
C129 C 0.18422 0.84867 0.15392 0.0
C130 C 0.15246 0.83093 0.16857 0.0
C131 C 0.18775 0.84226 0.14381 0.0
C132 C 0.18662 0.82551 0.13171 0.0
C133 C 0.18301 0.83148 0.14133 0.0
C134 C 0.19963 0.84107 0.12694 0.0
C135 C 0.19498 0.83024 0.12439 0.0
C136 C 0.19604 0.84701 0.13655 0.0
C137 C 0.17369 0.87305 0.18901 0.0
C138 C 0.1913 0.88258 0.19527 0.0
C139 C 0.1736 0.89302 0.19451 0.0
C140 C 0.16782 0.88326 0.19059 0.0
C141 C 0.18539 0.89278 0.19704 0.0
C142 C 0.18552 0.87283 0.19127 0.0
C143 C 0.16717 0.86274 0.18546 0.0
O144 O 0.15152 0.84052 0.1628 0.0
O145 O 0.16251 0.82982 0.17356 0.0
O146 O 0.17228 0.85289 0.18675 0.0
O147 O 0.16142 0.86355 0.17581 0.0
H148 H 0.15124 0.82451 0.19128 0.0
H149 H 0.13447 0.81736 0.20148 0.0
H150 H 0.11378 0.82217 0.17113 0.0
H151 H 0.13069 0.8289 0.16082 0.0
H152 H 0.18278 0.81724 0.12994 0.0
H153 H 0.17655 0.82771 0.14683 0.0
H154 H 0.2062 0.8449 0.1216 0.0
H155 H 0.19981 0.85531 0.13836 0.0
H156 H 0.20034 0.88203 0.19724 0.0
H157 H 0.16879 0.90075 0.19557 0.0
H158 H 0.15871 0.88365 0.18889 0.0
H159 H 0.19029 0.86509 0.19014 0.0
C160 C 0.14313 0.82834 0.84669 0.0
C161 C 0.13698 0.83551 0.83931 0.0
C162 C 0.12433 0.81965 0.83403 0.0
C163 C 0.1276 0.83121 0.83307 0.0
C164 C 0.13049 0.81256 0.84151 0.0
C165 C 0.13979 0.81687 0.84778 0.0
U166 U 0.16822 0.84929 0.85084 0.0
O167 O 0.17549 0.8568 0.86651 0.0
O168 O 0.18606 0.84589 0.85583 0.0
C169 C 0.18521 0.85139 0.86552 0.0
C170 C 0.15324 0.83253 0.85307 0.0
C171 C 0.18946 0.84531 0.87576 0.0
C172 C 0.18655 0.83654 0.89444 0.0
C173 C 0.18217 0.84207 0.88475 0.0
C174 C 0.2055 0.83723 0.8862 0.0
C175 C 0.19829 0.83408 0.89531 0.0
C176 C 0.20113 0.84281 0.87657 0.0
C177 C 0.1731 0.87361 0.8292 0.0
C178 C 0.18194 0.89238 0.83162 0.0
C179 C 0.18237 0.88318 0.81318 0.0
C180 C 0.17634 0.87382 0.81768 0.0
C181 C 0.18521 0.89258 0.82008 0.0
C182 C 0.17599 0.88296 0.83616 0.0
C183 C 0.1666 0.86363 0.83362 0.0
O184 O 0.16306 0.83144 0.84783 0.0
O185 O 0.15222 0.84243 0.85813 0.0
O186 O 0.16118 0.86493 0.84333 0.0
O187 O 0.17176 0.85379 0.8329 0.0
H188 H 0.13949 0.84438 0.83829 0.0
H189 H 0.1231 0.83685 0.8273 0.0
H190 H 0.12811 0.80365 0.84252 0.0
H191 H 0.14445 0.81122 0.85343 0.0
H192 H 0.18076 0.83436 0.90132 0.0
H193 H 0.17311 0.84386 0.88434 0.0
H194 H 0.21453 0.83528 0.88643 0.0
H195 H 0.2069 0.84519 0.86972 0.0
H196 H 0.18411 0.89945 0.83718 0.0
H197 H 0.18466 0.88313 0.80423 0.0
H198 H 0.17417 0.86674 0.81214 0.0
H199 H 0.17365 0.88302 0.84509 0.0
C200 C 0.14283 0.17422 0.82905 0.0
C201 C 0.13412 0.17747 0.83652 0.0
C202 C 0.1236 0.18621 0.82071 0.0
C203 C 0.1246 0.18339 0.83239 0.0
C204 C 0.13248 0.18312 0.81334 0.0
C205 C 0.14195 0.17717 0.81746 0.0
U206 U 0.16785 0.16777 0.84968 0.0
O207 O 0.17401 0.15118 0.85597 0.0
O208 O 0.18534 0.16238 0.84589 0.0
C209 C 0.18382 0.15226 0.8506 0.0
C210 C 0.15272 0.16745 0.83297 0.0
C211 C 0.18746 0.14231 0.84387 0.0
C212 C 0.1949 0.13406 0.82643 0.0
C213 C 0.19057 0.14338 0.83232 0.0
C214 C 0.19273 0.12231 0.84337 0.0
C215 C 0.19617 0.12344 0.83193 0.0
C216 C 0.18848 0.13166 0.84928 0.0
C217 C 0.17355 0.18762 0.8753 0.0
C218 C 0.1884 0.18488 0.8897 0.0
C219 C 0.17733 0.20216 0.88955 0.0
C220 C 0.17114 0.19821 0.88008 0.0
C221 C 0.18609 0.1956 0.89446 0.0
C222 C 0.1822 0.18094 0.88016 0.0
C223 C 0.16705 0.1839 0.86512 0.0
O224 O 0.16282 0.17246 0.8321 0.0
O225 O 0.15146 0.16161 0.84251 0.0
O226 O 0.16139 0.17417 0.86601 0.0
O227 O 0.17239 0.18512 0.85534 0.0
H228 H 0.13458 0.17533 0.84552 0.0
H229 H 0.1179 0.18553 0.83831 0.0
H230 H 0.13217 0.18534 0.80435 0.0
H231 H 0.14857 0.17479 0.81154 0.0
H232 H 0.19734 0.13518 0.81758 0.0
H233 H 0.18984 0.15145 0.82786 0.0
H234 H 0.1937 0.11429 0.84789 0.0
H235 H 0.18621 0.13062 0.85819 0.0
H236 H 0.19514 0.17966 0.8932 0.0
H237 H 0.17519 0.21036 0.89309 0.0
H238 H 0.16448 0.20347 0.87645 0.0
H239 H 0.18421 0.17275 0.87653 0.0
C240 C 0.82741 0.14282 0.84648 0.0
C241 C 0.82652 0.14345 0.83451 0.0
C242 C 0.81988 0.12366 0.83377 0.0
C243 C 0.82273 0.13398 0.82823 0.0
C244 C 0.82103 0.12298 0.84572 0.0
C245 C 0.82471 0.13248 0.852 0.0
U246 U 0.84715 0.16847 0.85288 0.0
O247 O 0.8429 0.18591 0.858 0.0
O248 O 0.85339 0.17527 0.8693 0.0
C249 C 0.84769 0.18479 0.86814 0.0
C250 C 0.83081 0.15286 0.85337 0.0
C251 C 0.84072 0.18843 0.87799 0.0
C252 C 0.83414 0.18606 0.8976 0.0
C253 C 0.84048 0.18221 0.88831 0.0
C254 C 0.82817 0.20238 0.88646 0.0
C255 C 0.82789 0.19618 0.89678 0.0
C256 C 0.83454 0.19858 0.87721 0.0
C257 C 0.87288 0.17394 0.83293 0.0
C258 C 0.88452 0.19129 0.8319 0.0
C259 C 0.88999 0.17462 0.82127 0.0
C260 C 0.8805 0.16864 0.82555 0.0
C261 C 0.89207 0.18606 0.82427 0.0
C262 C 0.875 0.18528 0.83619 0.0
C263 C 0.86268 0.16753 0.83679 0.0
O264 O 0.84038 0.15198 0.85926 0.0
O265 O 0.82966 0.16288 0.84844 0.0
O266 O 0.85283 0.17266 0.83547 0.0
O267 O 0.86363 0.16219 0.84664 0.0
H268 H 0.82863 0.15127 0.82999 0.0
H269 H 0.82207 0.13473 0.81903 0.0
H270 H 0.8188 0.11519 0.85025 0.0
H271 H 0.82531 0.1318 0.86122 0.0
H272 H 0.83404 0.18104 0.9054 0.0
H273 H 0.84519 0.17439 0.88925 0.0
H274 H 0.8236 0.21031 0.88559 0.0
H275 H 0.8347 0.20365 0.86944 0.0
H276 H 0.88581 0.20011 0.83432 0.0
H277 H 0.89572 0.17025 0.8156 0.0
H278 H 0.87903 0.15988 0.82299 0.0
H279 H 0.86921 0.18951 0.84191 0.0
C280 C 0.84341 0.87245 0.82796 0.0
C281 C 0.8324 0.8748 0.83196 0.0
C282 C 0.83149 0.89161 0.81959 0.0
C283 C 0.82649 0.8843 0.82781 0.0
C284 C 0.84262 0.88929 0.8158 0.0
C285 C 0.84849 0.87981 0.81993 0.0
U286 U 0.84816 0.84709 0.84834 0.0
O287 O 0.85304 0.82951 0.84435 0.0
O288 O 0.86429 0.84019 0.85505 0.0
C289 C 0.86296 0.83047 0.84963 0.0
C290 C 0.84966 0.8623 0.83181 0.0
C291 C 0.87295 0.82652 0.84323 0.0
C292 C 0.88804 0.8295 0.82925 0.0
C293 C 0.87854 0.83352 0.83518 0.0
C294 C 0.88637 0.81146 0.83931 0.0
C295 C 0.89205 0.8184 0.83122 0.0
C296 C 0.87693 0.81549 0.84524 0.0
C297 C 0.8279 0.842 0.87369 0.0
C298 C 0.83062 0.82742 0.88828 0.0
C299 C 0.81358 0.83892 0.88838 0.0
C300 C 0.81744 0.84475 0.87866 0.0
C301 C 0.82014 0.83021 0.89337 0.0
C302 C 0.83447 0.83327 0.87852 0.0
C303 C 0.83177 0.84841 0.86353 0.0
O304 O 0.85522 0.86327 0.84156 0.0
O305 O 0.84415 0.8525 0.83077 0.0
O306 O 0.8305 0.84315 0.85371 0.0
O307 O 0.84168 0.85379 0.86452 0.0
H308 H 0.82834 0.86921 0.83817 0.0
H309 H 0.81791 0.88575 0.83085 0.0
H310 H 0.84683 0.89482 0.80964 0.0
H311 H 0.85701 0.87817 0.81679 0.0
H312 H 0.89214 0.83503 0.82301 0.0
H313 H 0.87555 0.84206 0.83348 0.0
H314 H 0.88931 0.80294 0.84117 0.0
H315 H 0.87274 0.80997 0.85144 0.0
H316 H 0.83593 0.82083 0.89194 0.0
H317 H 0.80539 0.84116 0.89191 0.0
H318 H 0.81223 0.85142 0.875 0.0
H319 H 0.84258 0.83103 0.87479 0.0
C320 C 0.17348 0.64291 0.69173 0.0
C321 C 0.17686 0.63418 0.68437 0.0
C322 C 0.18521 0.62372 0.70042 0.0
C323 C 0.18265 0.62468 0.68868 0.0
C324 C 0.18199 0.63262 0.70769 0.0
C325 C 0.17617 0.64206 0.70339 0.0
U326 U 0.16745 0.66776 0.67086 0.0
O327 O 0.15103 0.67408 0.66427 0.0
O328 O 0.16209 0.68524 0.67471 0.0
C329 C 0.15209 0.68385 0.66965 0.0
C330 C 0.16684 0.65279 0.68764 0.0
C331 C 0.14203 0.68776 0.67609 0.0
C332 C 0.12329 0.68449 0.68465 0.0
C333 C 0.13299 0.68033 0.67916 0.0
C334 C 0.13165 0.70349 0.68432 0.0
C335 C 0.12244 0.69616 0.6872 0.0
C336 C 0.14129 0.69934 0.6788 0.0
C337 C 0.18727 0.67333 0.64527 0.0
C338 C 0.18376 0.68752 0.63047 0.0
C339 C 0.20168 0.67743 0.6309 0.0
C340 C 0.19805 0.67137 0.64058 0.0
C341 C 0.19459 0.68557 0.62568 0.0
C342 C 0.18014 0.68146 0.64019 0.0
C343 C 0.18372 0.66684 0.6555 0.0
O344 O 0.17197 0.6628 0.68849 0.0
O345 O 0.16106 0.65152 0.67803 0.0
O346 O 0.17398 0.66113 0.65466 0.0
O347 O 0.18492 0.67221 0.66526 0.0
H348 H 0.17492 0.63462 0.67532 0.0
H349 H 0.1849 0.61798 0.68283 0.0
H350 H 0.18401 0.63232 0.71673 0.0
H351 H 0.17369 0.6487 0.70923 0.0
H352 H 0.11636 0.6786 0.68665 0.0
H353 H 0.13332 0.67134 0.67718 0.0
H354 H 0.13144 0.71247 0.68635 0.0
H355 H 0.14815 0.70524 0.67655 0.0
H356 H 0.17803 0.69364 0.62664 0.0
H357 H 0.21014 0.67583 0.62761 0.0
H358 H 0.20369 0.66518 0.64443 0.0
H359 H 0.17178 0.6831 0.64372 0.0
C360 C 0.82597 0.67558 0.64484 0.0
C361 C 0.8333 0.67834 0.63573 0.0
C362 C 0.81762 0.68737 0.6254 0.0
C363 C 0.82916 0.68414 0.62611 0.0
C364 C 0.81037 0.68473 0.63463 0.0
C365 C 0.81449 0.67887 0.64421 0.0
U366 U 0.84665 0.67039 0.66998 0.0
O367 O 0.84307 0.66468 0.68752 0.0
O368 O 0.85375 0.65427 0.67645 0.0
C369 C 0.84825 0.65491 0.68617 0.0
C370 C 0.82995 0.66902 0.6549 0.0
C371 C 0.84187 0.64451 0.68975 0.0
C372 C 0.82442 0.63485 0.69611 0.0
C373 C 0.8301 0.64469 0.69219 0.0
C374 C 0.84207 0.6244 0.69495 0.0
C375 C 0.83035 0.62459 0.69763 0.0
C376 C 0.84776 0.63426 0.69111 0.0
C377 C 0.8717 0.69139 0.67546 0.0
C378 C 0.89052 0.6885 0.684 0.0
C379 C 0.88173 0.70701 0.685 0.0
C380 C 0.8722 0.70279 0.67899 0.0
C381 C 0.89102 0.69993 0.68754 0.0
C382 C 0.88093 0.68425 0.67806 0.0
C383 C 0.86158 0.68732 0.66893 0.0
O384 O 0.83968 0.66364 0.65386 0.0
O385 O 0.82888 0.67402 0.66484 0.0
O386 O 0.85171 0.68803 0.67417 0.0
O387 O 0.86264 0.6778 0.66318 0.0
H388 H 0.84221 0.67593 0.63596 0.0
H389 H 0.83497 0.68589 0.61913 0.0
H390 H 0.80149 0.68726 0.63451 0.0
H391 H 0.80868 0.67685 0.65113 0.0
H392 H 0.81544 0.63537 0.69822 0.0
H393 H 0.8253 0.65246 0.69122 0.0
H394 H 0.84688 0.61663 0.69581 0.0
H395 H 0.85682 0.6339 0.68927 0.0
H396 H 0.89749 0.68281 0.68593 0.0
H397 H 0.8819 0.71589 0.68748 0.0
H398 H 0.86523 0.70848 0.67704 0.0
H399 H 0.88076 0.6754 0.67549 0.0
C400 C 0.82588 0.34252 0.64714 0.0
C401 C 0.83328 0.33951 0.63828 0.0
C402 C 0.81734 0.33078 0.62771 0.0
C403 C 0.82905 0.33371 0.62866 0.0
C404 C 0.81004 0.33364 0.63673 0.0
C405 C 0.81426 0.33947 0.64629 0.0
U406 U 0.84655 0.34835 0.67237 0.0
O407 O 0.85325 0.36466 0.67902 0.0
O408 O 0.84262 0.35358 0.68992 0.0
C409 C 0.84789 0.36349 0.6888 0.0
C410 C 0.82991 0.34911 0.65718 0.0
C411 C 0.8415 0.37343 0.69271 0.0
C412 C 0.82718 0.38805 0.68983 0.0
C413 C 0.83316 0.37862 0.68581 0.0
C414 C 0.8378 0.38713 0.70765 0.0
C415 C 0.8294 0.39239 0.70084 0.0
C416 C 0.84377 0.37776 0.70363 0.0
C417 C 0.87184 0.3282 0.67796 0.0
C418 C 0.89041 0.33164 0.68704 0.0
C419 C 0.88245 0.31249 0.68629 0.0
C420 C 0.8728 0.31658 0.68056 0.0
C421 C 0.89146 0.31993 0.68951 0.0
C422 C 0.88069 0.33574 0.68134 0.0
C423 C 0.86171 0.33208 0.67145 0.0
O424 O 0.82887 0.34398 0.66714 0.0
O425 O 0.83961 0.35485 0.65612 0.0
O426 O 0.86274 0.34177 0.6658 0.0
O427 O 0.85181 0.33086 0.67661 0.0
H428 H 0.84231 0.34173 0.6387 0.0
H429 H 0.83492 0.33175 0.62186 0.0
H430 H 0.80103 0.33133 0.63645 0.0
H431 H 0.80839 0.34167 0.65303 0.0
H432 H 0.82071 0.39182 0.6844 0.0
H433 H 0.83125 0.37535 0.67736 0.0
H434 H 0.83985 0.39034 0.71609 0.0
H435 H 0.85019 0.37389 0.70906 0.0
H436 H 0.8972 0.33762 0.6893 0.0
H437 H 0.88281 0.30347 0.68825 0.0
H438 H 0.86607 0.31061 0.67808 0.0
H439 H 0.88018 0.34477 0.67947 0.0
C440 C 0.14109 0.32898 0.67486 0.0
C441 C 0.13899 0.33339 0.68574 0.0
C442 C 0.12164 0.32162 0.68724 0.0
C443 C 0.12936 0.32972 0.6919 0.0
C444 C 0.12379 0.31732 0.67629 0.0
C445 C 0.13342 0.32097 0.67017 0.0
U446 U 0.16703 0.34871 0.66932 0.0
O447 O 0.18441 0.34449 0.66388 0.0
O448 O 0.1737 0.35529 0.65294 0.0
C449 C 0.18325 0.34959 0.65391 0.0
C450 C 0.15125 0.33253 0.66829 0.0
C451 C 0.1867 0.34309 0.64375 0.0
C452 C 0.19175 0.32535 0.63449 0.0
C453 C 0.18782 0.33118 0.64406 0.0
C454 C 0.19318 0.34318 0.62404 0.0
C455 C 0.19458 0.33129 0.62437 0.0
C456 C 0.18933 0.349 0.63363 0.0
C457 C 0.17374 0.374 0.68931 0.0
C458 C 0.17803 0.39442 0.68866 0.0
C459 C 0.18843 0.38229 0.70176 0.0
C460 C 0.18213 0.37283 0.6979 0.0
C461 C 0.18646 0.39321 0.69721 0.0
C462 C 0.17173 0.38493 0.68478 0.0
C463 C 0.16674 0.36398 0.68564 0.0
O464 O 0.15044 0.34228 0.66277 0.0
O465 O 0.16116 0.33128 0.67349 0.0
O466 O 0.17147 0.35394 0.68683 0.0
O467 O 0.16094 0.365 0.67602 0.0
H468 H 0.1448 0.33964 0.68948 0.0
H469 H 0.1279 0.33329 0.70026 0.0
H470 H 0.11814 0.31096 0.6725 0.0
H471 H 0.13493 0.31746 0.66179 0.0
H472 H 0.19283 0.31623 0.63513 0.0
H473 H 0.18584 0.32638 0.65175 0.0
H474 H 0.19506 0.34802 0.61636 0.0
H475 H 0.18851 0.35818 0.63317 0.0
H476 H 0.17634 0.40268 0.68491 0.0
H477 H 0.19471 0.38108 0.70849 0.0
H478 H 0.18375 0.36459 0.70175 0.0
H479 H 0.16524 0.3862 0.67826 0.0
C480 C 0.143 0.32598 0.34581 0.0
C481 C 0.13837 0.33247 0.33685 0.0
C482 C 0.12329 0.31814 0.33398 0.0
C483 C 0.12859 0.32859 0.33098 0.0
C484 C 0.12805 0.31166 0.34294 0.0
C485 C 0.1378 0.31556 0.3488 0.0
U486 U 0.16832 0.34659 0.35002 0.0
O487 O 0.17537 0.35405 0.36581 0.0
O488 O 0.18604 0.34309 0.35532 0.0
C489 C 0.18507 0.3486 0.36499 0.0
C490 C 0.15321 0.32992 0.35213 0.0
C491 C 0.18867 0.3423 0.37526 0.0
C492 C 0.18532 0.32766 0.38969 0.0
C493 C 0.1817 0.33366 0.37997 0.0
C494 C 0.20292 0.33887 0.39004 0.0
C495 C 0.19599 0.33018 0.39484 0.0
C496 C 0.19928 0.34486 0.38034 0.0
C497 C 0.17317 0.37117 0.32858 0.0
C498 C 0.18145 0.39018 0.33108 0.0
C499 C 0.18204 0.38113 0.31258 0.0
C500 C 0.17637 0.37155 0.31706 0.0
C501 C 0.18457 0.39063 0.31949 0.0
C502 C 0.17583 0.38054 0.33559 0.0
C503 C 0.16679 0.36108 0.33292 0.0
O504 O 0.16299 0.32882 0.34679 0.0
O505 O 0.1523 0.33978 0.35728 0.0
O506 O 0.16129 0.36226 0.34259 0.0
O507 O 0.17206 0.3513 0.33217 0.0
H508 H 0.14229 0.34055 0.33443 0.0
H509 H 0.12509 0.33384 0.3242 0.0
H510 H 0.12434 0.30349 0.34535 0.0
H511 H 0.14131 0.31041 0.35565 0.0
H512 H 0.17972 0.32112 0.39322 0.0
H513 H 0.17348 0.33156 0.37613 0.0
H514 H 0.21125 0.34091 0.39365 0.0
H515 H 0.2048 0.35146 0.37677 0.0
H516 H 0.18314 0.39735 0.33664 0.0
H517 H 0.1845 0.38106 0.30368 0.0
H518 H 0.17443 0.36442 0.3115 0.0
H519 H 0.17348 0.3805 0.34452 0.0
C520 C 0.14195 0.67158 0.33008 0.0
C521 C 0.14255 0.68327 0.32737 0.0
C522 C 0.12229 0.68314 0.32208 0.0
C523 C 0.13284 0.68897 0.3234 0.0
C524 C 0.12169 0.67149 0.32501 0.0
C525 C 0.13141 0.66579 0.32892 0.0
U526 U 0.16782 0.66637 0.3499 0.0
O527 O 0.1747 0.65026 0.35652 0.0
O528 O 0.18537 0.66136 0.34569 0.0
C529 C 0.18438 0.65148 0.35096 0.0
C530 C 0.15221 0.66517 0.33366 0.0
C531 C 0.18806 0.64151 0.34444 0.0
C532 C 0.18475 0.62703 0.32995 0.0
C533 C 0.18105 0.63657 0.33598 0.0
C534 C 0.20252 0.62736 0.34074 0.0
C535 C 0.19554 0.62229 0.33228 0.0
C536 C 0.19881 0.63686 0.34675 0.0
C537 C 0.17304 0.68673 0.37523 0.0
C538 C 0.19028 0.68772 0.387 0.0
C539 C 0.17372 0.69872 0.39207 0.0
C540 C 0.16778 0.69436 0.38262 0.0
C541 C 0.18509 0.69557 0.39433 0.0
C542 C 0.1843 0.68334 0.37752 0.0
C543 C 0.16666 0.68269 0.36511 0.0
O544 O 0.16219 0.67035 0.33239 0.0
O545 O 0.1514 0.65946 0.34333 0.0
O546 O 0.16131 0.67281 0.36621 0.0
O547 O 0.17188 0.68391 0.35525 0.0
H548 H 0.15055 0.68801 0.32816 0.0
H549 H 0.1337 0.69789 0.32109 0.0
H550 H 0.11369 0.66674 0.32431 0.0
H551 H 0.13071 0.65678 0.33094 0.0
H552 H 0.17911 0.6233 0.32357 0.0
H553 H 0.17272 0.64005 0.33407 0.0
H554 H 0.21095 0.6241 0.34263 0.0
H555 H 0.20436 0.6406 0.35321 0.0
H556 H 0.19905 0.68518 0.38843 0.0
H557 H 0.16937 0.70456 0.39763 0.0
H558 H 0.15907 0.69702 0.38102 0.0
H559 H 0.1885 0.67744 0.37191 0.0
C560 C 0.82479 0.64158 0.34705 0.0
C561 C 0.82897 0.63924 0.33612 0.0
C562 C 0.81688 0.6221 0.3351 0.0
C563 C 0.82505 0.62959 0.33019 0.0
C564 C 0.81285 0.62447 0.34613 0.0
C565 C 0.81677 0.63412 0.35202 0.0
U566 U 0.845 0.66726 0.35157 0.0
O567 O 0.84118 0.68475 0.35676 0.0
O568 O 0.85221 0.67417 0.3676 0.0
C569 C 0.84655 0.68373 0.36662 0.0
C570 C 0.82862 0.65177 0.35338 0.0
C571 C 0.84035 0.68743 0.37691 0.0
C572 C 0.8231 0.69394 0.38627 0.0
C573 C 0.82858 0.68979 0.37658 0.0
C574 C 0.84094 0.69316 0.39685 0.0
C575 C 0.82922 0.69578 0.39651 0.0
C576 C 0.84643 0.68908 0.38715 0.0
C577 C 0.86965 0.67277 0.33056 0.0
C578 C 0.88443 0.68741 0.33301 0.0
C579 C 0.88334 0.67661 0.31546 0.0
C580 C 0.87391 0.67048 0.31968 0.0
C581 C 0.88872 0.68517 0.32205 0.0
C582 C 0.87494 0.68128 0.33722 0.0
C583 C 0.85968 0.66618 0.33472 0.0
O584 O 0.83854 0.65098 0.35864 0.0
O585 O 0.82731 0.66157 0.34805 0.0
O586 O 0.84977 0.67127 0.33382 0.0
O587 O 0.86105 0.66084 0.34452 0.0
H588 H 0.8352 0.64492 0.33215 0.0
H589 H 0.82825 0.62811 0.32168 0.0
H590 H 0.80673 0.61882 0.35026 0.0
H591 H 0.8135 0.63576 0.36048 0.0
H592 H 0.81411 0.69599 0.38561 0.0
H593 H 0.82364 0.68861 0.36881 0.0
H594 H 0.84591 0.69427 0.40462 0.0
H595 H 0.8555 0.68732 0.38763 0.0
H596 H 0.88829 0.69401 0.33826 0.0
H597 H 0.88652 0.67454 0.30707 0.0
H598 H 0.86995 0.66393 0.31444 0.0
H599 H 0.87172 0.68319 0.34564 0.0
C600 C 0.84318 0.37278 0.33077 0.0
C601 C 0.83133 0.37235 0.32854 0.0
C602 C 0.83166 0.39238 0.32271 0.0
C603 C 0.82565 0.38203 0.32454 0.0
C604 C 0.84347 0.39281 0.3252 0.0
C605 C 0.84915 0.38313 0.32914 0.0
U606 U 0.84906 0.34696 0.35049 0.0
O607 O 0.85421 0.32959 0.34616 0.0
O608 O 0.86564 0.34041 0.35656 0.0
C609 C 0.86438 0.33081 0.35093 0.0
C610 C 0.84962 0.36253 0.33426 0.0
C611 C 0.8743 0.32729 0.34407 0.0
C612 C 0.88306 0.32272 0.32589 0.0
C613 C 0.87373 0.32668 0.33209 0.0
C614 C 0.89377 0.32024 0.34348 0.0
C615 C 0.89317 0.31938 0.33151 0.0
C616 C 0.88442 0.32411 0.34968 0.0
C617 C 0.82975 0.34133 0.37654 0.0
C618 C 0.83032 0.32436 0.38857 0.0
C619 C 0.81831 0.34011 0.39376 0.0
C620 C 0.82194 0.34613 0.38407 0.0
C621 C 0.82242 0.32914 0.39614 0.0
C622 C 0.83397 0.33042 0.37886 0.0
C623 C 0.83323 0.34783 0.36629 0.0
O624 O 0.85562 0.36338 0.34376 0.0
O625 O 0.84435 0.3526 0.33316 0.0
O626 O 0.83171 0.34264 0.35647 0.0
O627 O 0.84308 0.35335 0.36703 0.0
H628 H 0.82648 0.36449 0.3297 0.0
H629 H 0.81659 0.38131 0.3226 0.0
H630 H 0.84836 0.40065 0.3241 0.0
H631 H 0.85828 0.38369 0.33079 0.0
H632 H 0.88237 0.32229 0.31667 0.0
H633 H 0.86606 0.32915 0.32752 0.0
H634 H 0.90138 0.31764 0.34809 0.0
H635 H 0.88505 0.32448 0.35891 0.0
H636 H 0.83375 0.31598 0.39019 0.0
H637 H 0.8121 0.34399 0.39929 0.0
H638 H 0.81856 0.35453 0.38239 0.0
H639 H 0.84006 0.32659 0.37315 0.0
C640 C 0.67309 0.14286 0.69343 0.0
C641 C 0.68164 0.13797 0.68677 0.0
C642 C 0.68531 0.12389 0.70176 0.0
C643 C 0.68768 0.12854 0.69089 0.0
C644 C 0.67671 0.12886 0.70835 0.0
C645 C 0.67068 0.13824 0.70422 0.0
U646 U 0.6677 0.16762 0.67249 0.0
O647 O 0.65138 0.17383 0.66547 0.0
O648 O 0.6622 0.18508 0.67603 0.0
C649 C 0.65236 0.1837 0.67066 0.0
C650 C 0.66655 0.15273 0.68934 0.0
C651 C 0.64217 0.18748 0.67683 0.0
C652 C 0.62998 0.18737 0.6936 0.0
C653 C 0.63954 0.18333 0.68779 0.0
C654 C 0.62551 0.19959 0.67748 0.0
C655 C 0.62289 0.19563 0.68854 0.0
C656 C 0.63505 0.19556 0.6717 0.0
C657 C 0.68795 0.173 0.64727 0.0
C658 C 0.68442 0.1868 0.6321 0.0
C659 C 0.70261 0.17722 0.63317 0.0
C660 C 0.6989 0.17126 0.64288 0.0
C661 C 0.69541 0.18505 0.62761 0.0
C662 C 0.68073 0.18084 0.64185 0.0
C663 C 0.68428 0.16657 0.65749 0.0
O664 O 0.67177 0.16269 0.69023 0.0
O665 O 0.6611 0.15141 0.67956 0.0
O666 O 0.67458 0.16081 0.65653 0.0
O667 O 0.68529 0.17202 0.66722 0.0
H668 H 0.68365 0.14146 0.67842 0.0
H669 H 0.69432 0.125 0.68563 0.0
H670 H 0.67453 0.12541 0.71667 0.0
H671 H 0.66408 0.14187 0.70947 0.0
H672 H 0.62828 0.1842 0.70214 0.0
H673 H 0.64495 0.17708 0.69189 0.0
H674 H 0.62015 0.20579 0.67323 0.0
H675 H 0.63692 0.19882 0.66323 0.0
H676 H 0.67861 0.19267 0.62799 0.0
H677 H 0.71119 0.17579 0.63012 0.0
H678 H 0.70462 0.1653 0.647 0.0
H679 H 0.67223 0.18231 0.64513 0.0
C680 C 0.32642 0.17291 0.6431 0.0
C681 C 0.33127 0.18362 0.64052 0.0
C682 C 0.31868 0.18533 0.6239 0.0
C683 C 0.32741 0.1898 0.63101 0.0
C684 C 0.31391 0.17455 0.62654 0.0
C685 C 0.31775 0.16841 0.63606 0.0
U686 U 0.34713 0.1677 0.66802 0.0
O687 O 0.3437 0.16197 0.68557 0.0
O688 O 0.35413 0.15147 0.67435 0.0
C689 C 0.3487 0.15212 0.68411 0.0
C690 C 0.33032 0.16628 0.65305 0.0
C691 C 0.34202 0.14187 0.68752 0.0
C692 C 0.32388 0.13232 0.69174 0.0
C693 C 0.33 0.14198 0.68804 0.0
C694 C 0.34164 0.12215 0.69406 0.0
C695 C 0.32963 0.12232 0.69485 0.0
C696 C 0.34776 0.13186 0.69048 0.0
C697 C 0.37229 0.18862 0.6734 0.0
C698 C 0.3913 0.18569 0.68148 0.0
C699 C 0.38248 0.20414 0.68293 0.0
C700 C 0.37283 0.19996 0.6771 0.0
C701 C 0.39189 0.1971 0.68512 0.0
C702 C 0.38159 0.18148 0.67571 0.0
C703 C 0.36209 0.1846 0.66694 0.0
O704 O 0.34012 0.16111 0.65182 0.0
O705 O 0.32937 0.1713 0.663 0.0
O706 O 0.35226 0.18532 0.67226 0.0
O707 O 0.36308 0.1751 0.66115 0.0
H708 H 0.33802 0.1872 0.64585 0.0
H709 H 0.33134 0.19802 0.62915 0.0
H710 H 0.30708 0.17092 0.62135 0.0
H711 H 0.31392 0.16015 0.63794 0.0
H712 H 0.31463 0.13266 0.69212 0.0
H713 H 0.32533 0.14955 0.68569 0.0
H714 H 0.34631 0.1146 0.69649 0.0
H715 H 0.35702 0.13158 0.69013 0.0
H716 H 0.39841 0.18004 0.6829 0.0
H717 H 0.38251 0.2129 0.68578 0.0
H718 H 0.36576 0.20562 0.67544 0.0
H719 H 0.38143 0.17268 0.67297 0.0
C720 C 0.32751 0.8424 0.64572 0.0
C721 C 0.33237 0.84447 0.63492 0.0
C722 C 0.31958 0.83032 0.6262 0.0
C723 C 0.32847 0.8385 0.6253 0.0
C724 C 0.31474 0.82823 0.637 0.0
C725 C 0.31861 0.83423 0.64661 0.0
U726 U 0.34722 0.84835 0.67168 0.0
O727 O 0.35407 0.86459 0.67833 0.0
O728 O 0.34283 0.8539 0.68901 0.0
C729 C 0.34841 0.86365 0.68796 0.0
C730 C 0.33115 0.84915 0.65586 0.0
C731 C 0.34224 0.87384 0.69161 0.0
C732 C 0.32846 0.88886 0.68828 0.0
C733 C 0.33408 0.87909 0.68456 0.0
C734 C 0.33904 0.88812 0.70612 0.0
C735 C 0.33092 0.89354 0.6991 0.0
C736 C 0.34463 0.8784 0.70241 0.0
C737 C 0.37207 0.82782 0.67807 0.0
C738 C 0.39068 0.83096 0.68715 0.0
C739 C 0.38229 0.81198 0.68663 0.0
C740 C 0.37274 0.81621 0.68083 0.0
C741 C 0.39147 0.81926 0.68975 0.0
C742 C 0.38108 0.83521 0.68138 0.0
C743 C 0.36213 0.83182 0.67133 0.0
O744 O 0.32966 0.84428 0.6659 0.0
O745 O 0.34093 0.85481 0.65513 0.0
O746 O 0.36345 0.84143 0.66561 0.0
O747 O 0.3521 0.83083 0.67629 0.0
H748 H 0.33914 0.85079 0.63386 0.0
H749 H 0.33246 0.84025 0.61714 0.0
H750 H 0.30775 0.82214 0.63799 0.0
H751 H 0.31452 0.83255 0.65474 0.0
H752 H 0.32232 0.89284 0.68261 0.0
H753 H 0.3321 0.87567 0.67619 0.0
H754 H 0.341 0.89132 0.71458 0.0
H755 H 0.35085 0.87442 0.708 0.0
H756 H 0.39761 0.83681 0.68933 0.0
H757 H 0.38246 0.80297 0.68868 0.0
H758 H 0.3659 0.81036 0.6784 0.0
H759 H 0.38078 0.84422 0.67937 0.0
C760 C 0.6408 0.82672 0.67402 0.0
C761 C 0.63874 0.83019 0.68526 0.0
C762 C 0.62145 0.81825 0.68591 0.0
C763 C 0.62915 0.82599 0.69116 0.0
C764 C 0.62346 0.81503 0.67455 0.0
C765 C 0.63304 0.81921 0.66869 0.0
U766 U 0.66644 0.84709 0.66928 0.0
O767 O 0.68412 0.84312 0.66447 0.0
O768 O 0.6736 0.85378 0.65322 0.0
C769 C 0.68327 0.84834 0.65454 0.0
C770 C 0.65108 0.83055 0.66779 0.0
C771 C 0.68708 0.84182 0.6446 0.0
C772 C 0.68367 0.82772 0.62977 0.0
C773 C 0.6799 0.83368 0.63934 0.0
C774 C 0.70185 0.8379 0.63074 0.0
C775 C 0.69469 0.82979 0.62532 0.0
C776 C 0.69807 0.84385 0.64026 0.0
C777 C 0.67153 0.87273 0.68915 0.0
C778 C 0.68917 0.88227 0.69529 0.0
C779 C 0.67138 0.89255 0.6951 0.0
C780 C 0.66561 0.88283 0.69107 0.0
C781 C 0.68322 0.89238 0.6974 0.0
C782 C 0.6834 0.87256 0.69118 0.0
C783 C 0.66505 0.86246 0.6854 0.0
O784 O 0.65023 0.84024 0.66219 0.0
O785 O 0.66085 0.82956 0.67332 0.0
O786 O 0.67006 0.85259 0.68687 0.0
O787 O 0.65966 0.86331 0.67555 0.0
H788 H 0.64464 0.83601 0.68952 0.0
H789 H 0.62794 0.82858 0.69992 0.0
H790 H 0.61761 0.80926 0.67016 0.0
H791 H 0.63445 0.81648 0.65999 0.0
H792 H 0.67789 0.82162 0.62577 0.0
H793 H 0.67138 0.83199 0.64259 0.0
H794 H 0.71045 0.83957 0.6277 0.0
H795 H 0.70375 0.85006 0.64426 0.0
H796 H 0.69826 0.88174 0.69707 0.0
H797 H 0.66653 0.90022 0.69641 0.0
H798 H 0.65646 0.88319 0.68954 0.0
H799 H 0.68821 0.86489 0.68976 0.0
C800 C 0.64064 0.82855 0.34678 0.0
C801 C 0.63573 0.83551 0.33834 0.0
C802 C 0.62114 0.8209 0.33447 0.0
C803 C 0.62605 0.83173 0.33226 0.0
C804 C 0.62612 0.81401 0.34299 0.0
C805 C 0.63577 0.81781 0.34908 0.0
U806 U 0.66621 0.8488 0.35087 0.0
O807 O 0.67378 0.8559 0.36658 0.0
O808 O 0.68403 0.84504 0.35557 0.0
C809 C 0.6834 0.85038 0.36537 0.0
C810 C 0.65098 0.83224 0.35306 0.0
C811 C 0.68721 0.84385 0.37543 0.0
C812 C 0.68405 0.829 0.38969 0.0
C813 C 0.68029 0.83516 0.38013 0.0
C814 C 0.70171 0.84011 0.38987 0.0
C815 C 0.69482 0.8314 0.39468 0.0
C816 C 0.69793 0.84627 0.38034 0.0
C817 C 0.67049 0.87359 0.32971 0.0
C818 C 0.68751 0.88578 0.32921 0.0
C819 C 0.67139 0.88983 0.31678 0.0
C820 C 0.66545 0.88042 0.32128 0.0
C821 C 0.68254 0.89259 0.32061 0.0
C822 C 0.68153 0.87635 0.33372 0.0
C823 C 0.66416 0.86355 0.33403 0.0
O824 O 0.66065 0.83112 0.34754 0.0
O825 O 0.65028 0.84202 0.3584 0.0
O826 O 0.65921 0.86476 0.34398 0.0
O827 O 0.66935 0.85376 0.33301 0.0
H828 H 0.63941 0.84383 0.33644 0.0
H829 H 0.62238 0.83731 0.32585 0.0
H830 H 0.62272 0.80556 0.34479 0.0
H831 H 0.63951 0.8123 0.35552 0.0
H832 H 0.67848 0.82244 0.39323 0.0
H833 H 0.67197 0.83318 0.37643 0.0
H834 H 0.71012 0.84206 0.39336 0.0
H835 H 0.7034 0.8529 0.37677 0.0
H836 H 0.69611 0.88758 0.33229 0.0
H837 H 0.66722 0.89499 0.31032 0.0
H838 H 0.65691 0.87844 0.31812 0.0
H839 H 0.68555 0.87116 0.34025 0.0
C840 C 0.64242 0.17293 0.33068 0.0
C841 C 0.63373 0.17598 0.33827 0.0
C842 C 0.62307 0.18499 0.32272 0.0
C843 C 0.62416 0.18192 0.33433 0.0
C844 C 0.63192 0.1821 0.31522 0.0
C845 C 0.64144 0.17611 0.31915 0.0
U846 U 0.66733 0.16619 0.35128 0.0
O847 O 0.67358 0.14953 0.35724 0.0
O848 O 0.68491 0.16104 0.34751 0.0
C849 C 0.68343 0.15081 0.35198 0.0
C850 C 0.65237 0.16617 0.33442 0.0
C851 C 0.68723 0.14101 0.34509 0.0
C852 C 0.69564 0.13322 0.32789 0.0
C853 C 0.69122 0.14245 0.33386 0.0
C854 C 0.69186 0.12086 0.34409 0.0
C855 C 0.69614 0.12234 0.33298 0.0
C856 C 0.68751 0.1301 0.35009 0.0
C857 C 0.67235 0.18534 0.37761 0.0
C858 C 0.68965 0.18625 0.38931 0.0
C859 C 0.6729 0.19669 0.3949 0.0
C860 C 0.66697 0.19254 0.38534 0.0
C861 C 0.68437 0.19375 0.39694 0.0
C862 C 0.68369 0.18209 0.37972 0.0
C863 C 0.66611 0.18182 0.36721 0.0
O864 O 0.66241 0.17134 0.3338 0.0
O865 O 0.65111 0.16001 0.34376 0.0
O866 O 0.66054 0.17201 0.36774 0.0
O867 O 0.67157 0.18337 0.35753 0.0
H868 H 0.63427 0.17367 0.34723 0.0
H869 H 0.61749 0.18389 0.34035 0.0
H870 H 0.63153 0.1845 0.30628 0.0
H871 H 0.64804 0.17389 0.31314 0.0
H872 H 0.69875 0.13462 0.31929 0.0
H873 H 0.69112 0.15072 0.32972 0.0
H874 H 0.69223 0.11263 0.34831 0.0
H875 H 0.68458 0.12877 0.35876 0.0
H876 H 0.69849 0.18387 0.39056 0.0
H877 H 0.66849 0.20226 0.40068 0.0
H878 H 0.65821 0.19511 0.38388 0.0
H879 H 0.688 0.17653 0.37384 0.0
C880 C 0.32744 0.14402 0.34691 0.0
C881 C 0.33396 0.13957 0.33802 0.0
C882 C 0.31965 0.12448 0.33502 0.0
C883 C 0.3301 0.12988 0.33212 0.0
C884 C 0.31314 0.12908 0.3439 0.0
C885 C 0.31701 0.13874 0.34978 0.0
U886 U 0.34842 0.16891 0.35197 0.0
O887 O 0.34515 0.18657 0.35702 0.0
O888 O 0.35547 0.17559 0.36816 0.0
C889 C 0.35021 0.18535 0.36702 0.0
C890 C 0.33137 0.15411 0.35332 0.0
C891 C 0.34387 0.18924 0.37713 0.0
C892 C 0.3264 0.19552 0.38625 0.0
C893 C 0.33205 0.19133 0.37668 0.0
C894 C 0.3442 0.19536 0.39696 0.0
C895 C 0.33242 0.19768 0.3965 0.0
C896 C 0.34985 0.19123 0.38737 0.0
C897 C 0.37391 0.17317 0.33168 0.0
C898 C 0.38606 0.19018 0.33072 0.0
C899 C 0.39093 0.17345 0.31988 0.0
C900 C 0.38129 0.16771 0.32418 0.0
C901 C 0.39338 0.1848 0.32298 0.0
C902 C 0.3764 0.18441 0.33503 0.0
C903 C 0.36355 0.16707 0.33561 0.0
O904 O 0.34107 0.15299 0.35895 0.0
O905 O 0.33063 0.1639 0.34788 0.0
O906 O 0.35389 0.17255 0.33438 0.0
O907 O 0.36442 0.16175 0.34549 0.0
H908 H 0.34205 0.14355 0.3357 0.0
H909 H 0.33538 0.12652 0.3254 0.0
H910 H 0.30497 0.12529 0.34623 0.0
H911 H 0.31184 0.14211 0.35659 0.0
H912 H 0.31737 0.19733 0.38551 0.0
H913 H 0.32719 0.18986 0.36891 0.0
H914 H 0.34909 0.1967 0.40474 0.0
H915 H 0.35895 0.18967 0.38794 0.0
H916 H 0.38762 0.19894 0.33321 0.0
H917 H 0.39647 0.16896 0.31412 0.0
H918 H 0.37954 0.15902 0.32154 0.0
H919 H 0.3708 0.18876 0.34084 0.0
C920 C 0.344 0.87257 0.32883 0.0
C921 C 0.33294 0.87484 0.33274 0.0
C922 C 0.33203 0.89161 0.32031 0.0
C923 C 0.327 0.88429 0.32851 0.0
C924 C 0.3432 0.88936 0.31662 0.0
C925 C 0.3491 0.87993 0.32083 0.0
U926 U 0.34937 0.84751 0.34955 0.0
O927 O 0.35449 0.82999 0.34579 0.0
O928 O 0.36584 0.84105 0.356 0.0
C929 C 0.36462 0.83131 0.35062 0.0
C930 C 0.35034 0.86251 0.33279 0.0
C931 C 0.37457 0.82764 0.34391 0.0
C932 C 0.38356 0.82311 0.32583 0.0
C933 C 0.37419 0.82713 0.33192 0.0
C934 C 0.39396 0.82036 0.34357 0.0
C935 C 0.39354 0.81961 0.33158 0.0
C936 C 0.38456 0.8243 0.34965 0.0
C937 C 0.32977 0.84248 0.37542 0.0
C938 C 0.33023 0.82565 0.38765 0.0
C939 C 0.31819 0.84147 0.39256 0.0
C940 C 0.32191 0.84737 0.38283 0.0
C941 C 0.32227 0.83051 0.3951 0.0
C942 C 0.33397 0.83159 0.37791 0.0
C943 C 0.33333 0.84881 0.3651 0.0
O944 O 0.35606 0.86369 0.34243 0.0
O945 O 0.34489 0.85266 0.332 0.0
O946 O 0.33191 0.84343 0.35537 0.0
O947 O 0.34318 0.85434 0.36582 0.0
H948 H 0.32887 0.86925 0.33894 0.0
H949 H 0.31838 0.8857 0.33147 0.0
H950 H 0.34743 0.8949 0.31048 0.0
H951 H 0.35766 0.87835 0.31777 0.0
H952 H 0.38301 0.82277 0.3166 0.0
H953 H 0.36662 0.82975 0.32725 0.0
H954 H 0.40147 0.81764 0.34827 0.0
H955 H 0.38505 0.8246 0.35889 0.0
H956 H 0.33364 0.81728 0.3894 0.0
H957 H 0.31194 0.84541 0.39799 0.0
H958 H 0.31855 0.85575 0.38102 0.0
H959 H 0.3401 0.82769 0.3723 0.0
C960 C 0.67049 0.6393 0.18904 0.0
C961 C 0.68189 0.63763 0.18584 0.0
C962 C 0.6826 0.62029 0.19746 0.0
C963 C 0.6879 0.6282 0.19 0.0
C964 C 0.67107 0.62189 0.20037 0.0
C965 C 0.6651 0.6313 0.19622 0.0
U966 U 0.66553 0.66545 0.16962 0.0
O967 O 0.64935 0.67258 0.1633 0.0
O968 O 0.66057 0.68279 0.17451 0.0
C969 C 0.65061 0.68199 0.16926 0.0
C970 C 0.66417 0.6495 0.18544 0.0
C971 C 0.6406 0.68578 0.17582 0.0
C972 C 0.62202 0.68233 0.18464 0.0
C973 C 0.63166 0.67827 0.17897 0.0
C974 C 0.63026 0.70138 0.18433 0.0
C975 C 0.62114 0.69398 0.18729 0.0
C976 C 0.63984 0.69733 0.17864 0.0
C977 C 0.68588 0.67252 0.14461 0.0
C978 C 0.68484 0.67821 0.12454 0.0
C979 C 0.69962 0.68626 0.13676 0.0
C980 C 0.69545 0.67981 0.14596 0.0
C981 C 0.69439 0.68554 0.12592 0.0
C982 C 0.68064 0.67177 0.13377 0.0
C983 C 0.68193 0.66533 0.15436 0.0
O984 O 0.66952 0.65931 0.18694 0.0
O985 O 0.65872 0.64884 0.1756 0.0
O986 O 0.67215 0.65975 0.15309 0.0
O987 O 0.6832 0.66975 0.1646 0.0
H988 H 0.6862 0.64372 0.18029 0.0
H989 H 0.69678 0.6273 0.18765 0.0
H990 H 0.66665 0.61588 0.20591 0.0
H991 H 0.65629 0.63242 0.19875 0.0
H992 H 0.61515 0.67639 0.1867 0.0
H993 H 0.63203 0.66929 0.17692 0.0
H994 H 0.63003 0.71035 0.18644 0.0
H995 H 0.64664 0.70328 0.17634 0.0
H996 H 0.68056 0.6775 0.11633 0.0
H997 H 0.70711 0.69165 0.1381 0.0
H998 H 0.69983 0.68043 0.15413 0.0
H999 H 0.67333 0.66615 0.13236 0.0
C1000 C 0.32634 0.67387 0.14407 0.0
C1001 C 0.32526 0.68577 0.14447 0.0
C1002 C 0.31859 0.6861 0.12467 0.0
C1003 C 0.32139 0.69181 0.13489 0.0
C1004 C 0.31987 0.6742 0.12428 0.0
C1005 C 0.32366 0.66817 0.13388 0.0
U1006 U 0.34651 0.66847 0.16948 0.0
O1007 O 0.34281 0.66253 0.18692 0.0
O1008 O 0.35359 0.65228 0.1758 0.0
C1009 C 0.34803 0.6528 0.1855 0.0
C1010 C 0.33007 0.66719 0.15413 0.0
C1011 C 0.34168 0.64234 0.18898 0.0
C1012 C 0.32429 0.63262 0.1954 0.0
C1013 C 0.32992 0.64248 0.19145 0.0
C1014 C 0.34197 0.62224 0.19416 0.0
C1015 C 0.33026 0.62238 0.19691 0.0
C1016 C 0.34761 0.63211 0.19029 0.0
C1017 C 0.3716 0.6893 0.17535 0.0
C1018 C 0.39053 0.68614 0.18351 0.0
C1019 C 0.38187 0.70467 0.18503 0.0
C1020 C 0.37221 0.70061 0.17912 0.0
C1021 C 0.39121 0.69753 0.18723 0.0
C1022 C 0.38082 0.68206 0.17767 0.0
C1023 C 0.36145 0.68541 0.16875 0.0
O1024 O 0.33986 0.66195 0.15308 0.0
O1025 O 0.32881 0.67195 0.16417 0.0
O1026 O 0.35156 0.68606 0.17399 0.0
O1027 O 0.36249 0.67599 0.16284 0.0
H1028 H 0.32731 0.6904 0.15221 0.0
H1029 H 0.32038 0.70094 0.13557 0.0
H1030 H 0.318 0.66953 0.11653 0.0
H1031 H 0.32447 0.659 0.13336 0.0
H1032 H 0.31531 0.63312 0.19755 0.0
H1033 H 0.32509 0.65024 0.19052 0.0
H1034 H 0.34681 0.61448 0.19502 0.0
H1035 H 0.35667 0.63178 0.18843 0.0
H1036 H 0.39759 0.68042 0.18492 0.0
H1037 H 0.38197 0.71342 0.18794 0.0
H1038 H 0.36521 0.70635 0.17746 0.0
H1039 H 0.3806 0.67328 0.17487 0.0
C1040 C 0.32735 0.34465 0.1472 0.0
C1041 C 0.33401 0.33648 0.14174 0.0
C1042 C 0.31844 0.33259 0.12821 0.0
C1043 C 0.3296 0.33053 0.13228 0.0
C1044 C 0.31189 0.34086 0.13371 0.0
C1045 C 0.3163 0.34681 0.1431 0.0
U1046 U 0.34873 0.34962 0.1719 0.0
O1047 O 0.35559 0.36574 0.17881 0.0
O1048 O 0.34528 0.35435 0.1897 0.0
C1049 C 0.35044 0.36433 0.18868 0.0
C1050 C 0.33162 0.35093 0.15726 0.0
C1051 C 0.34397 0.37414 0.19282 0.0
C1052 C 0.32972 0.38884 0.19011 0.0
C1053 C 0.33573 0.37951 0.18595 0.0
C1054 C 0.34005 0.38744 0.20807 0.0
C1055 C 0.33179 0.3929 0.20125 0.0
C1056 C 0.34607 0.37817 0.20388 0.0
C1057 C 0.37424 0.32961 0.17599 0.0
C1058 C 0.38618 0.32858 0.19307 0.0
C1059 C 0.39132 0.31807 0.17619 0.0
C1060 C 0.38173 0.3223 0.17046 0.0
C1061 C 0.39361 0.32103 0.18762 0.0
C1062 C 0.37658 0.33283 0.18731 0.0
C1063 C 0.36391 0.33348 0.16989 0.0
O1064 O 0.33092 0.34543 0.16704 0.0
O1065 O 0.34137 0.35654 0.15599 0.0
O1066 O 0.3648 0.34338 0.16464 0.0
O1067 O 0.3542 0.33209 0.17535 0.0
H1068 H 0.34255 0.33467 0.14483 0.0
H1069 H 0.33484 0.32415 0.12831 0.0
H1070 H 0.30334 0.34279 0.13071 0.0
H1071 H 0.31105 0.35311 0.14719 0.0
H1072 H 0.32333 0.39276 0.18468 0.0
H1073 H 0.33394 0.37647 0.17739 0.0
H1074 H 0.34198 0.39043 0.21661 0.0
H1075 H 0.35241 0.37414 0.2093 0.0
H1076 H 0.38762 0.33097 0.20189 0.0
H1077 H 0.39695 0.31245 0.17164 0.0
H1078 H 0.3801 0.31976 0.1617 0.0
H1079 H 0.37089 0.33849 0.19173 0.0
C1080 C 0.64307 0.32632 0.17396 0.0
C1081 C 0.64064 0.33014 0.18501 0.0
C1082 C 0.62386 0.3175 0.18582 0.0
C1083 C 0.63112 0.32577 0.19089 0.0
C1084 C 0.62628 0.31388 0.17467 0.0
C1085 C 0.63579 0.31824 0.16882 0.0
U1086 U 0.66821 0.34732 0.16973 0.0
O1087 O 0.68594 0.34401 0.16468 0.0
O1088 O 0.6751 0.35472 0.15381 0.0
C1089 C 0.68489 0.34945 0.15489 0.0
C1090 C 0.65322 0.33051 0.16774 0.0
C1091 C 0.68865 0.34322 0.14475 0.0
C1092 C 0.68762 0.3267 0.13232 0.0
C1093 C 0.68381 0.33258 0.14191 0.0
C1094 C 0.70106 0.3421 0.12824 0.0
C1095 C 0.69631 0.33139 0.12536 0.0
C1096 C 0.69726 0.34794 0.13784 0.0
C1097 C 0.67263 0.37205 0.19079 0.0
C1098 C 0.68945 0.38453 0.19128 0.0
C1099 C 0.67335 0.38829 0.20354 0.0
C1100 C 0.66753 0.37879 0.1991 0.0
C1101 C 0.68443 0.39124 0.19978 0.0
C1102 C 0.6836 0.37501 0.18683 0.0
C1103 C 0.66643 0.3619 0.18655 0.0
O1104 O 0.65213 0.34036 0.16248 0.0
O1105 O 0.66306 0.32954 0.17315 0.0
O1106 O 0.67186 0.35221 0.1875 0.0
O1107 O 0.66113 0.3631 0.17668 0.0
H1108 H 0.64617 0.33641 0.18911 0.0
H1109 H 0.6296 0.32867 0.1995 0.0
H1110 H 0.62079 0.30768 0.17041 0.0
H1111 H 0.63751 0.31524 0.16027 0.0
H1112 H 0.68369 0.31854 0.13028 0.0
H1113 H 0.6771 0.32882 0.14713 0.0
H1114 H 0.70786 0.3459 0.12318 0.0
H1115 H 0.70112 0.35614 0.13992 0.0
H1116 H 0.698 0.38648 0.18826 0.0
H1117 H 0.66913 0.39335 0.20991 0.0
H1118 H 0.65905 0.37666 0.20221 0.0
H1119 H 0.68767 0.3699 0.18039 0.0
C1120 C 0.64321 0.32715 0.84603 0.0
C1121 C 0.63845 0.3336 0.83711 0.0
C1122 C 0.62424 0.31857 0.83353 0.0
C1123 C 0.62901 0.32936 0.83092 0.0
C1124 C 0.62908 0.31217 0.8425 0.0
C1125 C 0.63847 0.31643 0.84869 0.0
U1126 U 0.66795 0.34837 0.85076 0.0
O1127 O 0.67453 0.35611 0.86661 0.0
O1128 O 0.68565 0.34526 0.85645 0.0
C1129 C 0.68433 0.35077 0.86607 0.0
C1130 C 0.65316 0.33139 0.85259 0.0
C1131 C 0.68822 0.34479 0.87654 0.0
C1132 C 0.68511 0.33789 0.89596 0.0
C1133 C 0.68105 0.34327 0.88605 0.0
C1134 C 0.70348 0.33534 0.88699 0.0
C1135 C 0.69639 0.33388 0.89658 0.0
C1136 C 0.69945 0.34077 0.87713 0.0
C1137 C 0.67292 0.37295 0.82943 0.0
C1138 C 0.68077 0.39208 0.83226 0.0
C1139 C 0.68248 0.38298 0.81386 0.0
C1140 C 0.6767 0.37334 0.8181 0.0
C1141 C 0.68453 0.39252 0.82086 0.0
C1142 C 0.67507 0.38239 0.83651 0.0
C1143 C 0.66657 0.36274 0.83355 0.0
O1144 O 0.6631 0.33048 0.84753 0.0
O1145 O 0.65188 0.34125 0.85764 0.0
O1146 O 0.66075 0.36382 0.84304 0.0
O1147 O 0.67204 0.35306 0.83298 0.0
H1148 H 0.64205 0.34189 0.8349 0.0
H1149 H 0.62557 0.33445 0.82399 0.0
H1150 H 0.62553 0.30391 0.84484 0.0
H1151 H 0.64204 0.31135 0.85556 0.0
H1152 H 0.67944 0.33706 0.90321 0.0
H1153 H 0.67234 0.34629 0.88589 0.0
H1154 H 0.71215 0.33219 0.88705 0.0
H1155 H 0.70515 0.34184 0.86992 0.0
H1156 H 0.68206 0.39929 0.83786 0.0
H1157 H 0.68542 0.3829 0.80511 0.0
H1158 H 0.67517 0.36616 0.81248 0.0
H1159 H 0.67226 0.38234 0.84531 0.0
C1160 C 0.64153 0.67105 0.82976 0.0
C1161 C 0.63963 0.68231 0.83315 0.0
C1162 C 0.62213 0.68282 0.82162 0.0
C1163 C 0.63002 0.68815 0.82911 0.0
C1164 C 0.624 0.67144 0.81848 0.0
C1165 C 0.6336 0.66564 0.8225 0.0
U1166 U 0.66764 0.66676 0.84942 0.0
O1167 O 0.6748 0.65087 0.85629 0.0
O1168 O 0.68514 0.6618 0.84498 0.0
C1169 C 0.68435 0.65204 0.8505 0.0
C1170 C 0.65182 0.66487 0.83343 0.0
C1171 C 0.68795 0.64196 0.8441 0.0
C1172 C 0.68454 0.6274 0.82972 0.0
C1173 C 0.68088 0.63697 0.83571 0.0
C1174 C 0.70236 0.62776 0.84042 0.0
C1175 C 0.69533 0.62266 0.83201 0.0
C1176 C 0.69869 0.6373 0.8464 0.0
C1177 C 0.67355 0.68763 0.87405 0.0
C1178 C 0.68859 0.68532 0.88833 0.0
C1179 C 0.67736 0.7025 0.88796 0.0
C1180 C 0.67112 0.69831 0.87863 0.0
C1181 C 0.6862 0.69608 0.89294 0.0
C1182 C 0.68233 0.68114 0.87894 0.0
C1183 C 0.66679 0.68347 0.86422 0.0
O1184 O 0.66164 0.67029 0.83193 0.0
O1185 O 0.65116 0.65958 0.84334 0.0
O1186 O 0.66145 0.67362 0.86565 0.0
O1187 O 0.67173 0.68448 0.85421 0.0
H1188 H 0.64566 0.68663 0.83878 0.0
H1189 H 0.62893 0.69693 0.83163 0.0
H1190 H 0.61802 0.66699 0.8129 0.0
H1191 H 0.63488 0.65693 0.81984 0.0
H1192 H 0.67885 0.62364 0.82338 0.0
H1193 H 0.67255 0.64047 0.83382 0.0
H1194 H 0.71079 0.6245 0.84228 0.0
H1195 H 0.70429 0.64108 0.8528 0.0
H1196 H 0.6954 0.68021 0.89188 0.0
H1197 H 0.67516 0.71073 0.89138 0.0
H1198 H 0.66434 0.70342 0.87498 0.0
H1199 H 0.68435 0.67288 0.87549 0.0
C1200 C 0.32567 0.64273 0.84787 0.0
C1201 C 0.3298 0.64021 0.83697 0.0
C1202 C 0.31767 0.62309 0.83625 0.0
C1203 C 0.32583 0.63048 0.8312 0.0
C1204 C 0.31372 0.62561 0.84726 0.0
C1205 C 0.31767 0.63533 0.853 0.0
U1206 U 0.34588 0.66849 0.85204 0.0
O1207 O 0.34175 0.68616 0.85655 0.0
O1208 O 0.35275 0.67603 0.86785 0.0
C1209 C 0.34701 0.6855 0.86649 0.0
C1210 C 0.3294 0.6531 0.85396 0.0
C1211 C 0.34048 0.68945 0.87644 0.0
C1212 C 0.33112 0.68601 0.8947 0.0
C1213 C 0.33695 0.68194 0.88518 0.0
C1214 C 0.33201 0.7051 0.88678 0.0
C1215 C 0.32862 0.69767 0.89566 0.0
C1216 C 0.3379 0.70104 0.87731 0.0
C1217 C 0.37117 0.67304 0.83152 0.0
C1218 C 0.38319 0.69013 0.83062 0.0
C1219 C 0.38801 0.67359 0.81947 0.0
C1220 C 0.37846 0.66774 0.82381 0.0
C1221 C 0.39046 0.6849 0.82273 0.0
C1222 C 0.37363 0.68425 0.83498 0.0
C1223 C 0.36101 0.66673 0.83567 0.0
O1224 O 0.33919 0.65245 0.8595 0.0
O1225 O 0.32827 0.66271 0.84827 0.0
O1226 O 0.35115 0.67185 0.83433 0.0
O1227 O 0.3621 0.66174 0.84568 0.0
H1228 H 0.33599 0.64583 0.83287 0.0
H1229 H 0.32897 0.62888 0.82269 0.0
H1230 H 0.30759 0.62003 0.8515 0.0
H1231 H 0.31443 0.63712 0.86144 0.0
H1232 H 0.32877 0.68004 0.9014 0.0
H1233 H 0.33879 0.67293 0.88472 0.0
H1234 H 0.33005 0.71408 0.88707 0.0
H1235 H 0.34049 0.70698 0.87066 0.0
H1236 H 0.38476 0.69886 0.83324 0.0
H1237 H 0.3935 0.66922 0.81358 0.0
H1238 H 0.37673 0.65907 0.8211 0.0
H1239 H 0.36809 0.68847 0.84095 0.0
C1240 C 0.34376 0.374 0.83119 0.0
C1241 C 0.3321 0.37357 0.82809 0.0
C1242 C 0.33245 0.39394 0.82369 0.0
C1243 C 0.32653 0.38342 0.82438 0.0
C1244 C 0.34405 0.39437 0.82704 0.0
C1245 C 0.34963 0.38452 0.83069 0.0
U1246 U 0.34944 0.34748 0.85001 0.0
O1247 O 0.35425 0.33016 0.84494 0.0
O1248 O 0.36581 0.34037 0.85579 0.0
C1249 C 0.36433 0.33091 0.84997 0.0
C1250 C 0.35013 0.36358 0.83431 0.0
C1251 C 0.37415 0.32725 0.84316 0.0
C1252 C 0.38903 0.3309 0.8291 0.0
C1253 C 0.37952 0.33457 0.83525 0.0
C1254 C 0.38778 0.31255 0.83862 0.0
C1255 C 0.39332 0.31985 0.83076 0.0
C1256 C 0.37831 0.31622 0.84475 0.0
C1257 C 0.33033 0.34105 0.87611 0.0
C1258 C 0.3244 0.3231 0.88502 0.0
C1259 C 0.32477 0.34044 0.89611 0.0
C1260 C 0.3286 0.34655 0.88654 0.0
C1261 C 0.32249 0.32864 0.89546 0.0
C1262 C 0.32829 0.32923 0.87546 0.0
C1263 C 0.33378 0.34791 0.86601 0.0
O1264 O 0.3562 0.36402 0.84381 0.0
O1265 O 0.34477 0.35374 0.83289 0.0
O1266 O 0.33204 0.34329 0.85592 0.0
O1267 O 0.34366 0.35338 0.86683 0.0
H1268 H 0.32732 0.36559 0.82833 0.0
H1269 H 0.31764 0.38269 0.82174 0.0
H1270 H 0.34885 0.40234 0.82681 0.0
H1271 H 0.35862 0.3851 0.83299 0.0
H1272 H 0.39313 0.33678 0.82319 0.0
H1273 H 0.37642 0.34313 0.8339 0.0
H1274 H 0.39067 0.30392 0.83998 0.0
H1275 H 0.37424 0.31043 0.85078 0.0
H1276 H 0.32261 0.31407 0.88413 0.0
H1277 H 0.32362 0.34498 0.90403 0.0
H1278 H 0.33013 0.35565 0.88726 0.0
H1279 H 0.32955 0.32473 0.86753 0.0
H1280 H 0.26492 0.2769 0.99889 0.0
H1281 H 0.23866 0.25078 0.99928 0.0
H1282 H 0.26091 0.25438 0.97033 0.0
H1283 H 0.248 0.27868 0.01091 0.0
H1284 H 0.23703 0.26804 0.01095 0.0
H1285 H 0.26266 0.27869 0.02534 0.0
H1286 H 0.25877 0.25504 0.05323 0.0
H1287 H 0.23957 0.24985 0.02219 0.0
C1288 C 0.26083 0.26953 0.99499 0.0
C1289 C 0.26434 0.26596 0.98413 0.0
C1290 C 0.25161 0.26403 1.00056 0.0
C1291 C 0.24599 0.25478 0.99519 0.0
C1292 C 0.24934 0.25115 0.98429 0.0
C1293 C 0.25865 0.25669 0.97897 0.0
C1294 C 0.24649 0.26929 0.0111 0.0
C1295 C 0.25109 0.26445 0.02222 0.0
C1296 C 0.25915 0.27076 0.02872 0.0
C1297 C 0.26182 0.26748 0.03999 0.0
C1298 C 0.25689 0.25745 0.04446 0.0
C1299 C 0.24891 0.25099 0.03814 0.0
C1300 C 0.24606 0.25452 0.02698 0.0
H1301 H 0.76221 0.23906 0.02258 0.0
H1302 H 0.73714 0.2655 0.02281 0.0
H1303 H 0.75949 0.26092 0.05174 0.0
H1304 H 0.74516 0.23775 0.01044 0.0
H1305 H 0.73466 0.24855 0.01059 0.0
H1306 H 0.76061 0.23851 0.99684 0.0
H1307 H 0.75818 0.26324 0.96972 0.0
H1308 H 0.73767 0.26669 0.99978 0.0
C1309 C 0.75845 0.24631 0.02674 0.0
C1310 C 0.76223 0.24951 0.03771 0.0
C1311 C 0.74939 0.25202 0.02132 0.0
C1312 C 0.74429 0.26125 0.02685 0.0
C1313 C 0.74805 0.26467 0.03777 0.0
C1314 C 0.75705 0.25878 0.04305 0.0
C1315 C 0.74406 0.24715 0.01056 0.0
C1316 C 0.749 0.25233 0.99977 0.0
C1317 C 0.75729 0.24645 0.99352 0.0
C1318 C 0.76053 0.25026 0.98258 0.0
C1319 C 0.75585 0.26036 0.97822 0.0
C1320 C 0.7476 0.26634 0.98432 0.0
C1321 C 0.74428 0.26232 0.99515 0.0
H1322 H 0.7382 0.75246 0.02423 0.0
H1323 H 0.76561 0.77728 0.0211 0.0
H1324 H 0.76223 0.75724 0.05176 0.0
H1325 H 0.73695 0.7677 0.01029 0.0
H1326 H 0.74737 0.77886 0.00999 0.0
H1327 H 0.73863 0.75111 0.99802 0.0
H1328 H 0.76018 0.75594 0.96874 0.0
H1329 H 0.76456 0.77756 0.99799 0.0
C1330 C 0.746 0.75636 0.02755 0.0
C1331 C 0.74966 0.75371 0.0387 0.0
C1332 C 0.75176 0.76484 0.02107 0.0
C1333 C 0.76144 0.77043 0.02581 0.0
C1334 C 0.76535 0.76764 0.03686 0.0
C1335 C 0.75951 0.75915 0.0431 0.0
C1336 C 0.74635 0.76941 0.01022 0.0
C1337 C 0.75132 0.7646 0.99939 0.0
C1338 C 0.7458 0.75537 0.99389 0.0
C1339 C 0.74903 0.7521 0.98284 0.0
C1340 C 0.75812 0.75797 0.9775 0.0
C1341 C 0.76383 0.76714 0.98283 0.0
C1342 C 0.76045 0.77031 0.99388 0.0
H1343 H 0.26094 0.73804 0.02188 0.0
H1344 H 0.23577 0.76444 0.02172 0.0
H1345 H 0.25847 0.76054 0.05052 0.0
H1346 H 0.24392 0.73683 0.00936 0.0
H1347 H 0.23371 0.74794 0.00905 0.0
H1348 H 0.26124 0.73802 0.99769 0.0
H1349 H 0.26103 0.76238 0.97009 0.0
H1350 H 0.23693 0.76522 0.99744 0.0
C1351 C 0.25716 0.74538 0.02588 0.0
C1352 C 0.26104 0.74888 0.03671 0.0
C1353 C 0.2481 0.75101 0.02037 0.0
C1354 C 0.24294 0.76027 0.02581 0.0
C1355 C 0.24672 0.76386 0.03667 0.0
C1356 C 0.25587 0.7582 0.04193 0.0
C1357 C 0.24305 0.74626 0.00944 0.0
C1358 C 0.2487 0.75128 0.99893 0.0
C1359 C 0.2579 0.74569 0.99379 0.0
C1360 C 0.26247 0.74971 0.98341 0.0
C1361 C 0.2579 0.75954 0.97835 0.0
C1362 C 0.24866 0.76515 0.98329 0.0
C1363 C 0.24418 0.76105 0.99366 0.0
H1364 H 0.01974 0.23511 0.25502 0.0
H1365 H 0.0195 0.26103 0.28084 0.0
H1366 H 0.04875 0.25769 0.25907 0.0
H1367 H 0.00686 0.23345 0.2714 0.0
H1368 H 0.00727 0.24377 0.28246 0.0
H1369 H 0.99531 0.23648 0.254 0.0
H1370 H 0.9672 0.25936 0.25756 0.0
H1371 H 0.99521 0.2606 0.28155 0.0
C1372 C 0.02379 0.24241 0.25912 0.0
C1373 C 0.03474 0.2461 0.25564 0.0
C1374 C 0.01821 0.24782 0.26818 0.0
C1375 C 0.02368 0.25704 0.27371 0.0
C1376 C 0.03471 0.26072 0.27046 0.0
C1377 C 0.04005 0.25529 0.2613 0.0
C1378 C 0.00727 0.24279 0.27302 0.0
C1379 C 0.99666 0.24822 0.26807 0.0
C1380 C 0.99137 0.24356 0.25829 0.0
C1381 C 0.98075 0.24757 0.25441 0.0
C1382 C 0.97563 0.25659 0.2602 0.0
C1383 C 0.98073 0.26134 0.27 0.0
C1384 C 0.99132 0.25717 0.27384 0.0
H1385 H 0.7786 0.01741 0.2557 0.0
H1386 H 0.75521 0.02127 0.28359 0.0
H1387 H 0.7599 0.04841 0.25917 0.0
H1388 H 0.78059 0.00677 0.27459 0.0
H1389 H 0.76895 0.00638 0.28427 0.0
H1390 H 0.78033 0.99513 0.25727 0.0
H1391 H 0.75675 0.96664 0.25752 0.0
H1392 H 0.75179 0.99464 0.28032 0.0
C1393 C 0.77214 0.0223 0.25998 0.0
C1394 C 0.76964 0.03335 0.25606 0.0
C1395 C 0.7668 0.01778 0.26979 0.0
C1396 C 0.75886 0.02446 0.27569 0.0
C1397 C 0.75644 0.0356 0.27199 0.0
C1398 C 0.76161 0.03978 0.26198 0.0
C1399 C 0.77107 0.00681 0.27503 0.0
C1400 C 0.76636 0.99625 0.26917 0.0
C1401 C 0.77256 0.99107 0.26038 0.0
C1402 C 0.76906 0.98041 0.256 0.0
C1403 C 0.75914 0.97512 0.26038 0.0
C1404 C 0.75285 0.98014 0.26914 0.0
C1405 C 0.75644 0.9908 0.27339 0.0
H1406 H 0.99403 0.73593 0.26575 0.0
H1407 H 0.99433 0.76237 0.24013 0.0
H1408 H 0.96556 0.75852 0.26256 0.0
H1409 H 1.00578 0.73431 0.24859 0.0
H1410 H 0.0059 0.7452 0.23799 0.0
H1411 H 0.01854 0.73539 0.26528 0.0
H1412 H 0.04826 0.75705 0.26118 0.0
H1413 H 0.01873 0.76183 0.23965 0.0
C1414 C 0.99009 0.74331 0.26186 0.0
C1415 C 0.97927 0.7468 0.26557 0.0
C1416 C 0.99559 0.7489 0.2527 0.0
C1417 C 0.99027 0.75825 0.24739 0.0
C1418 C 0.97948 0.7619 0.25102 0.0
C1419 C 0.97415 0.75619 0.26018 0.0
C1420 C 0.00605 0.74372 0.24739 0.0
C1421 C 0.01722 0.74838 0.25223 0.0
C1422 C 0.02276 0.74264 0.26125 0.0
C1423 C 0.03394 0.7458 0.26462 0.0
C1424 C 0.03942 0.755 0.25905 0.0
C1425 C 0.03406 0.76082 0.25001 0.0
C1426 C 0.02287 0.75757 0.24677 0.0
H1427 H 0.23815 0.99553 0.25596 0.0
H1428 H 0.26574 0.99468 0.28049 0.0
H1429 H 0.26077 0.96702 0.25701 0.0
H1430 H 0.23745 0.00676 0.27354 0.0
H1431 H 0.24891 0.00653 0.2836 0.0
H1432 H 0.23858 0.01905 0.25618 0.0
H1433 H 0.25958 0.04914 0.26059 0.0
H1434 H 0.2649 0.01983 0.28206 0.0
C1435 C 0.2457 0.99145 0.25937 0.0
C1436 C 0.24896 0.98082 0.25511 0.0
C1437 C 0.25177 0.99657 0.26848 0.0
C1438 C 0.26128 0.99097 0.27323 0.0
C1439 C 0.2647 0.98036 0.26901 0.0
C1440 C 0.25857 0.97548 0.25986 0.0
C1441 C 0.24696 0.00691 0.27428 0.0
C1442 C 0.25147 0.01808 0.26943 0.0
C1443 C 0.2457 0.02344 0.26031 0.0
C1444 C 0.24869 0.03463 0.25693 0.0
C1445 C 0.25771 0.0403 0.26267 0.0
C1446 C 0.26363 0.03509 0.27174 0.0
C1447 C 0.26056 0.02388 0.27494 0.0
H1448 H 0.99678 0.76349 0.78095 0.0
H1449 H 0.99615 0.73962 0.75318 0.0
H1450 H 0.96824 0.7625 0.75753 0.0
H1451 H 0.00889 0.74685 0.78153 0.0
H1452 H 0.00776 0.73627 0.77076 0.0
H1453 H 0.02309 0.76204 0.78028 0.0
H1454 H 0.04959 0.75849 0.75533 0.0
H1455 H 0.01892 0.738 0.75281 0.0
C1456 C 0.99271 0.76017 0.77329 0.0
C1457 C 0.98199 0.76436 0.76979 0.0
C1458 C 0.99794 0.75132 0.76727 0.0
C1459 C 0.99239 0.74671 0.7576 0.0
C1460 C 0.98175 0.75087 0.75394 0.0
C1461 C 0.97673 0.75976 0.75999 0.0
C1462 C 0.00846 0.74563 0.77212 0.0
C1463 C 0.01946 0.74999 0.76679 0.0
C1464 C 0.02614 0.75839 0.7724 0.0
C1465 C 0.03714 0.76131 0.76845 0.0
C1466 C 0.04109 0.75631 0.7584 0.0
C1467 C 0.03463 0.7479 0.75271 0.0
C1468 C 0.02379 0.74476 0.75694 0.0
H1469 H 0.25231 0.99608 0.77951 0.0
H1470 H 0.2803 0.99649 0.7558 0.0
H1471 H 0.25661 0.96805 0.75665 0.0
H1472 H 0.26948 0.00797 0.78294 0.0
H1473 H 0.28092 0.0084 0.77299 0.0
H1474 H 0.25557 0.02262 0.78252 0.0
H1475 H 0.25862 0.04923 0.75724 0.0
H1476 H 0.27838 0.0189 0.75409 0.0
C1477 C 0.25677 0.99225 0.77246 0.0
C1478 C 0.25307 0.9816 0.76829 0.0
C1479 C 0.26654 0.99772 0.76793 0.0
C1480 C 0.27258 0.99244 0.75908 0.0
C1481 C 0.269 0.98175 0.75484 0.0
C1482 C 0.25913 0.97653 0.75942 0.0
C1483 C 0.27142 0.00827 0.77365 0.0
C1484 C 0.26694 0.0192 0.7685 0.0
C1485 C 0.25892 0.02574 0.77446 0.0
C1486 C 0.25603 0.03671 0.77057 0.0
C1487 C 0.26073 0.04076 0.76028 0.0
C1488 C 0.26882 0.03446 0.75433 0.0
C1489 C 0.27185 0.02365 0.75844 0.0
H1490 H 0.99568 0.27969 0.75607 0.0
H1491 H 0.99523 0.25327 0.78181 0.0
H1492 H 0.96715 0.25624 0.7581 0.0
H1493 H 0.00797 0.28107 0.77329 0.0
H1494 H 0.00788 0.27004 0.78381 0.0
H1495 H 0.0196 0.2795 0.7559 0.0
H1496 H 0.04783 0.25648 0.75811 0.0
H1497 H 0.02016 0.25341 0.78194 0.0
C1498 C 0.99163 0.27223 0.75988 0.0
C1499 C 0.98094 0.26837 0.75574 0.0
C1500 C 0.99695 0.2667 0.76919 0.0
C1501 C 0.99137 0.25732 0.77442 0.0
C1502 C 0.98063 0.25343 0.7704 0.0
C1503 C 0.97563 0.25889 0.76095 0.0
C1504 C 0.0078 0.27164 0.77443 0.0
C1505 C 0.0185 0.26679 0.76927 0.0
C1506 C 0.02366 0.27219 0.7598 0.0
C1507 C 0.03424 0.26849 0.75566 0.0
C1508 C 0.03945 0.25909 0.76092 0.0
C1509 C 0.03447 0.2536 0.77038 0.0
C1510 C 0.02395 0.25745 0.7745 0.0
H1511 H 0.73629 0.99504 0.75634 0.0
H1512 H 0.76424 0.99439 0.7805 0.0
H1513 H 0.75899 0.96658 0.75724 0.0
H1514 H 0.7359 0.00658 0.77369 0.0
H1515 H 0.74738 0.00628 0.78373 0.0
H1516 H 0.737 0.0189 0.75641 0.0
H1517 H 0.75917 0.04832 0.75999 0.0
H1518 H 0.76359 0.01935 0.78207 0.0
C1519 C 0.7439 0.99098 0.75969 0.0
C1520 C 0.74712 0.98033 0.75544 0.0
C1521 C 0.75009 0.99617 0.76867 0.0
C1522 C 0.75967 0.99062 0.77334 0.0
C1523 C 0.76305 0.97999 0.76912 0.0
C1524 C 0.7568 0.97504 0.76009 0.0
C1525 C 0.74541 0.00661 0.77442 0.0
C1526 C 0.75006 0.01769 0.76948 0.0
C1527 C 0.74432 0.02311 0.76037 0.0
C1528 C 0.7476 0.03417 0.7568 0.0
C1529 C 0.75694 0.03959 0.76225 0.0
C1530 C 0.76274 0.03435 0.77136 0.0
C1531 C 0.75934 0.02334 0.77485 0.0
H1532 H 0.25137 0.73878 0.49762 0.0
H1533 H 0.27802 0.76456 0.49826 0.0
H1534 H 0.25549 0.76178 0.46919 0.0
H1535 H 0.2682 0.73683 0.5102 0.0
H1536 H 0.27919 0.74748 0.51047 0.0
H1537 H 0.25147 0.73815 0.52247 0.0
H1538 H 0.25481 0.76088 0.55099 0.0
H1539 H 0.27735 0.7647 0.52232 0.0
C1540 C 0.25559 0.74611 0.49374 0.0
C1541 C 0.25204 0.74992 0.48288 0.0
C1542 C 0.26489 0.75143 0.49941 0.0
C1543 C 0.27064 0.76066 0.49409 0.0
C1544 C 0.26721 0.76455 0.48321 0.0
C1545 C 0.25782 0.7592 0.4778 0.0
C1546 C 0.26973 0.74622 0.51024 0.0
C1547 C 0.26472 0.75112 0.52101 0.0
C1548 C 0.25548 0.74553 0.52646 0.0
C1549 C 0.25176 0.74907 0.53726 0.0
C1550 C 0.25723 0.75848 0.54243 0.0
C1551 C 0.26645 0.76419 0.53716 0.0
C1552 C 0.27008 0.76052 0.52637 0.0
H1553 H 0.75163 0.78047 0.52239 0.0
H1554 H 0.77714 0.75442 0.5221 0.0
H1555 H 0.7541 0.75671 0.55039 0.0
H1556 H 0.7684 0.78244 0.51021 0.0
H1557 H 0.77942 0.77215 0.51069 0.0
H1558 H 0.75159 0.7798 0.49768 0.0
H1559 H 0.75644 0.75768 0.46904 0.0
H1560 H 0.77871 0.75541 0.49832 0.0
C1561 C 0.75543 0.77301 0.52627 0.0
C1562 C 0.75147 0.76901 0.53691 0.0
C1563 C 0.76464 0.76772 0.52083 0.0
C1564 C 0.76982 0.75829 0.52608 0.0
C1565 C 0.76595 0.75417 0.53669 0.0
C1566 C 0.75669 0.75949 0.54193 0.0
C1567 C 0.76996 0.77311 0.51033 0.0
C1568 C 0.76543 0.76795 0.49935 0.0
C1569 C 0.756 0.77281 0.49372 0.0
C1570 C 0.75263 0.7691 0.48278 0.0
C1571 C 0.75861 0.76019 0.47769 0.0
C1572 C 0.76802 0.75518 0.48318 0.0
C1573 C 0.77131 0.75904 0.49409 0.0
H1574 H 0.77759 0.26373 0.52381 0.0
H1575 H 0.75214 0.23676 0.52379 0.0
H1576 H 0.75424 0.26023 0.55182 0.0
H1577 H 0.77989 0.24648 0.51207 0.0
H1578 H 0.76913 0.23559 0.51179 0.0
H1579 H 0.77875 0.2631 0.49943 0.0
H1580 H 0.75609 0.25991 0.4705 0.0
H1581 H 0.75214 0.23727 0.49924 0.0
C1582 C 0.77024 0.25954 0.52769 0.0
C1583 C 0.76622 0.26337 0.53826 0.0
C1584 C 0.76509 0.25003 0.52232 0.0
C1585 C 0.75588 0.24431 0.5277 0.0
C1586 C 0.75183 0.24799 0.53834 0.0
C1587 C 0.75694 0.25764 0.5434 0.0
C1588 C 0.77046 0.245 0.51179 0.0
C1589 C 0.76574 0.24988 0.50075 0.0
C1590 C 0.7714 0.25911 0.49532 0.0
C1591 C 0.76791 0.26285 0.48441 0.0
C1592 C 0.7585 0.25742 0.47911 0.0
C1593 C 0.75275 0.24821 0.48434 0.0
C1594 C 0.75637 0.24452 0.49522 0.0
H1595 H 0.25405 0.28179 0.52276 0.0
H1596 H 0.27834 0.25462 0.52229 0.0
H1597 H 0.25556 0.25797 0.55073 0.0
H1598 H 0.27057 0.28298 0.5103 0.0
H1599 H 0.2814 0.27251 0.51107 0.0
H1600 H 0.25333 0.27994 0.49815 0.0
H1601 H 0.25831 0.25793 0.46945 0.0
H1602 H 0.28096 0.25612 0.49847 0.0
C1603 C 0.25754 0.27415 0.5266 0.0
C1604 C 0.25344 0.27029 0.53722 0.0
C1605 C 0.26648 0.26848 0.52112 0.0
C1606 C 0.27126 0.25882 0.52635 0.0
C1607 C 0.26731 0.25489 0.53701 0.0
C1608 C 0.25829 0.2606 0.54226 0.0
C1609 C 0.27197 0.27362 0.51059 0.0
C1610 C 0.26743 0.26838 0.49966 0.0
C1611 C 0.25784 0.27305 0.49414 0.0
C1612 C 0.25442 0.26926 0.48325 0.0
C1613 C 0.26052 0.26048 0.47808 0.0
C1614 C 0.27011 0.25567 0.48346 0.0
C1615 C 0.27344 0.2596 0.49433 0.0
H1616 H 0.7784 0.5208 0.75551 0.0
H1617 H 0.75195 0.52066 0.78088 0.0
H1618 H 0.75629 0.54953 0.75845 0.0
H1619 H 0.77976 0.50871 0.77268 0.0
H1620 H 0.76862 0.50834 0.78294 0.0
H1621 H 0.7789 0.49653 0.75579 0.0
H1622 H 0.75567 0.46779 0.75784 0.0
H1623 H 0.75139 0.49638 0.78003 0.0
C1624 C 0.77108 0.52481 0.75934 0.0
C1625 C 0.76778 0.53569 0.75561 0.0
C1626 C 0.76538 0.5193 0.76842 0.0
C1627 C 0.75615 0.52473 0.77367 0.0
C1628 C 0.75268 0.5356 0.77001 0.0
C1629 C 0.75847 0.5409 0.76089 0.0
C1630 C 0.77029 0.50858 0.77359 0.0
C1631 C 0.76546 0.49782 0.76824 0.0
C1632 C 0.77132 0.49246 0.75934 0.0
C1633 C 0.76779 0.48162 0.75542 0.0
C1634 C 0.7581 0.47638 0.76033 0.0
C1635 C 0.75213 0.4816 0.7692 0.0
C1636 C 0.75578 0.49239 0.77302 0.0
H1637 H 0.25184 0.52101 0.74107 0.0
H1638 H 0.27746 0.5206 0.76769 0.0
H1639 H 0.25371 0.54816 0.76545 0.0
H1640 H 0.26881 0.50942 0.73919 0.0
H1641 H 0.27995 0.51002 0.74959 0.0
H1642 H 0.25352 0.49516 0.74046 0.0
H1643 H 0.25974 0.46662 0.76268 0.0
H1644 H 0.27942 0.49761 0.76676 0.0
C1645 C 0.25557 0.52469 0.74873 0.0
C1646 C 0.25138 0.53502 0.7529 0.0
C1647 C 0.2649 0.51934 0.75412 0.0
C1648 C 0.27004 0.52448 0.76376 0.0
C1649 C 0.26599 0.53485 0.76798 0.0
C1650 C 0.25655 0.53991 0.7626 0.0
C1651 C 0.27049 0.50926 0.74856 0.0
C1652 C 0.26654 0.49788 0.75342 0.0
C1653 C 0.25785 0.49154 0.74782 0.0
C1654 C 0.25548 0.48019 0.75103 0.0
C1655 C 0.26142 0.47544 0.76033 0.0
C1656 C 0.27004 0.48161 0.7661 0.0
C1657 C 0.27253 0.49288 0.76262 0.0
H1658 H 0.27831 0.51948 0.25646 0.0
H1659 H 0.25183 0.51981 0.2818 0.0
H1660 H 0.25647 0.54845 0.25911 0.0
H1661 H 0.27953 0.50767 0.27406 0.0
H1662 H 0.26799 0.50707 0.28388 0.0
H1663 H 0.27939 0.49581 0.25693 0.0
H1664 H 0.25615 0.46699 0.25741 0.0
H1665 H 0.25102 0.49493 0.2802 0.0
C1666 C 0.27103 0.52359 0.26025 0.0
C1667 C 0.26782 0.53447 0.25641 0.0
C1668 C 0.26527 0.51822 0.26937 0.0
C1669 C 0.25609 0.52379 0.27457 0.0
C1670 C 0.25274 0.53467 0.27081 0.0
C1671 C 0.25858 0.53983 0.26164 0.0
C1672 C 0.27002 0.50746 0.27461 0.0
C1673 C 0.26549 0.49675 0.26892 0.0
C1674 C 0.27171 0.49162 0.26011 0.0
C1675 C 0.26836 0.48088 0.25581 0.0
C1676 C 0.25849 0.47551 0.26022 0.0
C1677 C 0.2522 0.48048 0.26899 0.0
C1678 C 0.25568 0.49116 0.27323 0.0
H1679 H 0.75124 0.51974 0.23995 0.0
H1680 H 0.77705 0.5194 0.2664 0.0
H1681 H 0.75385 0.54738 0.26375 0.0
H1682 H 0.76781 0.50755 0.23828 0.0
H1683 H 0.77912 0.50824 0.24852 0.0
H1684 H 0.75095 0.4949 0.24138 0.0
H1685 H 0.75674 0.46634 0.26373 0.0
H1686 H 0.77928 0.4956 0.26513 0.0
C1687 C 0.75513 0.52355 0.24747 0.0
C1688 C 0.75117 0.53405 0.25145 0.0
C1689 C 0.7644 0.51814 0.2529 0.0
C1690 C 0.7697 0.52336 0.2624 0.0
C1691 C 0.76586 0.53388 0.26647 0.0
C1692 C 0.75651 0.53903 0.26101 0.0
C1693 C 0.76963 0.50771 0.24762 0.0
C1694 C 0.76536 0.49666 0.25294 0.0
C1695 C 0.75569 0.49098 0.24832 0.0
C1696 C 0.75245 0.48006 0.25227 0.0
C1697 C 0.75885 0.47498 0.26107 0.0
C1698 C 0.76855 0.48045 0.26577 0.0
C1699 C 0.77168 0.49138 0.26173 0.0
H1700 H 0.51979 0.23735 0.75354 0.0
H1701 H 0.51974 0.26289 0.77973 0.0
H1702 H 0.54911 0.25945 0.75817 0.0
H1703 H 0.50701 0.23551 0.77006 0.0
H1704 H 0.50724 0.24591 0.78105 0.0
H1705 H 0.49535 0.2381 0.75276 0.0
H1706 H 0.46714 0.26087 0.75597 0.0
H1707 H 0.49544 0.26299 0.77961 0.0
C1708 C 0.52392 0.24452 0.75776 0.0
C1709 C 0.53496 0.24809 0.75443 0.0
C1710 C 0.51835 0.24988 0.76686 0.0
C1711 C 0.5239 0.25895 0.77256 0.0
C1712 C 0.535 0.26253 0.76943 0.0
C1713 C 0.54035 0.25714 0.76027 0.0
C1714 C 0.50735 0.24486 0.77161 0.0
C1715 C 0.49676 0.2502 0.76652 0.0
C1716 C 0.49142 0.24527 0.7569 0.0
C1717 C 0.48076 0.24915 0.75299 0.0
C1718 C 0.47562 0.25826 0.75861 0.0
C1719 C 0.48079 0.26332 0.76824 0.0
C1720 C 0.49146 0.25932 0.77206 0.0
H1721 H 0.49558 0.77753 0.75556 0.0
H1722 H 0.4949 0.75094 0.78113 0.0
H1723 H 0.46681 0.75437 0.75748 0.0
H1724 H 0.50799 0.77866 0.77265 0.0
H1725 H 0.50769 0.76767 0.78321 0.0
H1726 H 0.51961 0.7768 0.75523 0.0
H1727 H 0.54739 0.75331 0.75755 0.0
H1728 H 0.51974 0.75089 0.78149 0.0
C1729 C 0.49146 0.77008 0.75933 0.0
C1730 C 0.48073 0.76636 0.75519 0.0
C1731 C 0.49674 0.76443 0.76859 0.0
C1732 C 0.49106 0.75508 0.77377 0.0
C1733 C 0.48028 0.75132 0.76974 0.0
C1734 C 0.47533 0.75691 0.76034 0.0
C1735 C 0.50765 0.76924 0.77383 0.0
C1736 C 0.51829 0.7642 0.76872 0.0
C1737 C 0.52353 0.76944 0.75919 0.0
C1738 C 0.53399 0.76547 0.75503 0.0
C1739 C 0.53907 0.75606 0.76039 0.0
C1740 C 0.53406 0.75075 0.76994 0.0
C1741 C 0.5236 0.75482 0.77402 0.0
H1742 H 0.51851 0.73503 0.25446 0.0
H1743 H 0.52196 0.75972 0.2814 0.0
H1744 H 0.5486 0.75644 0.25654 0.0
H1745 H 0.50716 0.73342 0.27231 0.0
H1746 H 0.50813 0.74416 0.28296 0.0
H1747 H 0.49562 0.73639 0.2547 0.0
H1748 H 0.46774 0.75954 0.25824 0.0
H1749 H 0.49587 0.7607 0.28209 0.0
C1750 C 0.5232 0.742 0.25845 0.0
C1751 C 0.53396 0.74535 0.25417 0.0
C1752 C 0.51867 0.74737 0.26813 0.0
C1753 C 0.52514 0.756 0.27361 0.0
C1754 C 0.53606 0.75916 0.26961 0.0
C1755 C 0.54017 0.75405 0.25967 0.0
C1756 C 0.50781 0.7428 0.27356 0.0
C1757 C 0.49716 0.74823 0.26868 0.0
C1758 C 0.49177 0.74353 0.25897 0.0
C1759 C 0.48117 0.74762 0.2551 0.0
C1760 C 0.47615 0.75671 0.26087 0.0
C1761 C 0.48133 0.76146 0.27062 0.0
C1762 C 0.49191 0.75725 0.27443 0.0
H1763 H 0.49647 0.27847 0.25439 0.0
H1764 H 0.49646 0.25214 0.28022 0.0
H1765 H 0.46798 0.25501 0.257 0.0
H1766 H 0.50925 0.27992 0.27097 0.0
H1767 H 0.5087 0.26952 0.2821 0.0
H1768 H 0.52125 0.27713 0.25402 0.0
H1769 H 0.54876 0.25351 0.25815 0.0
H1770 H 0.52047 0.25244 0.2814 0.0
C1771 C 0.49248 0.27103 0.2583 0.0
C1772 C 0.48171 0.26717 0.25434 0.0
C1773 C 0.49794 0.26555 0.26755 0.0
C1774 C 0.49247 0.25617 0.27288 0.0
C1775 C 0.4817 0.25222 0.26901 0.0
C1776 C 0.47651 0.25769 0.25967 0.0
C1777 C 0.50882 0.27058 0.27264 0.0
C1778 C 0.51948 0.26516 0.26801 0.0
C1779 C 0.525 0.26992 0.2584 0.0
C1780 C 0.53555 0.26569 0.25472 0.0
C1781 C 0.54039 0.25647 0.26062 0.0
C1782 C 0.53507 0.25163 0.27024 0.0
C1783 C 0.52455 0.25597 0.27385 0.0
C1784 C 0.19375 0.1972 0.10932 0.0
C1785 C 0.2008 0.19034 0.11622 0.0
C1786 C 0.19809 0.20265 0.09955 0.0
C1787 C 0.22263 0.20238 0.07931 0.0
H1788 H 0.2136 0.23343 0.07295 0.0
C1789 C 0.24853 0.23362 0.05073 0.0
C1790 C 0.24259 0.24155 0.04399 0.0
C1791 C 0.24263 0.22614 0.05803 0.0
C1792 C 0.21608 0.2247 0.07447 0.0
H1793 H 0.21794 0.18368 0.11799 0.0
H1794 H 0.22558 0.19344 0.10126 0.0
H1795 H 0.20492 0.22304 0.08882 0.0
H1796 H 0.22575 0.2475 0.03922 0.0
H1797 H 0.21539 0.23436 0.05192 0.0
H1798 H 0.23406 0.20422 0.06515 0.0
C1799 C 0.21663 0.19449 0.10328 0.0
C1800 C 0.21109 0.21872 0.0836 0.0
C1801 C 0.21228 0.18902 0.11301 0.0
C1802 C 0.23056 0.24141 0.04423 0.0
C1803 C 0.22464 0.23399 0.05161 0.0
C1804 C 0.22767 0.20839 0.07022 0.0
C1805 C 0.20961 0.20141 0.09642 0.0
C1806 C 0.2144 0.20752 0.08624 0.0
C1807 C 0.23063 0.22647 0.05882 0.0
C1808 C 0.22455 0.21967 0.06777 0.0
H1809 H 0.18489 0.19851 0.11155 0.0
H1810 H 0.19238 0.2078 0.09443 0.0
H1811 H 0.22524 0.1937 0.08092 0.0
H1812 H 0.2578 0.23353 0.05071 0.0
H1813 H 0.24752 0.22052 0.0635 0.0
C1814 C 0.80802 0.18535 0.10641 0.0
C1815 C 0.81386 0.19113 0.11525 0.0
C1816 C 0.80368 0.19132 0.09701 0.0
C1817 C 0.80584 0.21861 0.08108 0.0
H1818 H 0.77487 0.21086 0.07146 0.0
C1819 C 0.77856 0.24758 0.05172 0.0
C1820 C 0.77051 0.24245 0.04429 0.0
C1821 C 0.78504 0.24097 0.05926 0.0
C1822 C 0.78361 0.21302 0.07386 0.0
H1823 H 0.81982 0.20774 0.12101 0.0
H1824 H 0.81228 0.21815 0.10455 0.0
H1825 H 0.78382 0.20009 0.08681 0.0
H1826 H 0.76346 0.22622 0.03859 0.0
H1827 H 0.77505 0.21469 0.05141 0.0
H1828 H 0.80557 0.23163 0.06816 0.0
C1829 C 0.81116 0.20897 0.10487 0.0
C1830 C 0.78873 0.20684 0.08271 0.0
C1831 C 0.81548 0.203 0.1143 0.0
C1832 C 0.76962 0.23048 0.04412 0.0
C1833 C 0.77615 0.22387 0.05161 0.0
C1834 C 0.80072 0.22478 0.07217 0.0
C1835 C 0.80509 0.20321 0.09617 0.0
C1836 C 0.79987 0.2096 0.08648 0.0
C1837 C 0.7837 0.22904 0.05952 0.0
C1838 C 0.7895 0.2221 0.0685 0.0
H1839 H 0.80683 0.17619 0.10673 0.0
H1840 H 0.79923 0.1866 0.09037 0.0
H1841 H 0.81449 0.22086 0.08369 0.0
H1842 H 0.77957 0.25677 0.05197 0.0
H1843 H 0.79073 0.24527 0.06524 0.0
C1844 C 0.82005 0.81352 0.11341 0.0
C1845 C 0.81763 0.82516 0.11454 0.0
C1846 C 0.81608 0.80737 0.10393 0.0
C1847 C 0.80412 0.81069 0.07448 0.0
H1848 H 0.7917 0.78039 0.0802 0.0
C1849 C 0.77385 0.78641 0.04307 0.0
C1850 C 0.77444 0.77447 0.04275 0.0
C1851 C 0.7808 0.79269 0.05064 0.0
C1852 C 0.79531 0.78876 0.07837 0.0
H1853 H 0.80942 0.83952 0.10629 0.0
H1854 H 0.80225 0.82876 0.08996 0.0
H1855 H 0.80042 0.79107 0.09579 0.0
H1856 H 0.78344 0.75982 0.04941 0.0
H1857 H 0.79567 0.77075 0.06246 0.0
H1858 H 0.79873 0.80842 0.05707 0.0
C1859 C 0.80733 0.82438 0.09634 0.0
C1860 C 0.80032 0.7949 0.08735 0.0
C1861 C 0.81132 0.83053 0.10581 0.0
C1862 C 0.7827 0.76901 0.04956 0.0
C1863 C 0.78965 0.77527 0.05709 0.0
C1864 C 0.79907 0.80454 0.06548 0.0
C1865 C 0.80956 0.81269 0.09532 0.0
C1866 C 0.80473 0.80599 0.08556 0.0
C1867 C 0.78849 0.78714 0.05804 0.0
C1868 C 0.79454 0.79351 0.06734 0.0
H1869 H 0.8248 0.80906 0.11999 0.0
H1870 H 0.8181 0.79842 0.10337 0.0
H1871 H 0.80757 0.81914 0.07273 0.0
H1872 H 0.76749 0.79085 0.03804 0.0
H1873 H 0.77963 0.8018 0.05117 0.0
C1874 C 0.20114 0.82958 0.10384 0.0
C1875 C 0.19901 0.82388 0.11423 0.0
C1876 C 0.20538 0.82372 0.09444 0.0
C1877 C 0.20897 0.79466 0.08271 0.0
H1878 H 0.23295 0.80921 0.06482 0.0
C1879 C 0.22846 0.77231 0.04377 0.0
C1880 C 0.24048 0.77265 0.04319 0.0
C1881 C 0.22269 0.77942 0.05129 0.0
C1882 C 0.22628 0.80501 0.06974 0.0
H1883 H 0.19966 0.80748 0.12284 0.0
H1884 H 0.20708 0.79727 0.10648 0.0
H1885 H 0.22429 0.81953 0.08047 0.0
H1886 H 0.2558 0.78121 0.04954 0.0
H1887 H 0.24579 0.79349 0.06272 0.0
H1888 H 0.21124 0.78 0.07224 0.0
C1889 C 0.20531 0.80625 0.10553 0.0
C1890 C 0.22122 0.81098 0.07864 0.0
C1891 C 0.20105 0.81212 0.11493 0.0
C1892 C 0.24654 0.78067 0.04986 0.0
C1893 C 0.24078 0.78778 0.05736 0.0
C1894 C 0.21403 0.7887 0.0738 0.0
C1895 C 0.20761 0.812 0.09519 0.0
C1896 C 0.21258 0.80584 0.08533 0.0
C1897 C 0.2288 0.78706 0.05838 0.0
C1898 C 0.22283 0.79375 0.06727 0.0
H1899 H 0.19948 0.8386 0.10295 0.0
H1900 H 0.20686 0.82839 0.08657 0.0
H1901 H 0.20225 0.79048 0.08758 0.0
H1902 H 0.22353 0.76618 0.03882 0.0
H1903 H 0.21345 0.77877 0.05173 0.0
C1904 C 0.21396 0.83127 0.90989 0.0
C1905 C 0.20304 0.82825 0.90563 0.0
C1906 C 0.21864 0.82553 0.91928 0.0
C1907 C 0.21139 0.80745 0.94416 0.0
H1908 H 0.24263 0.79722 0.94143 0.0
C1909 C 0.23118 0.7739 0.97462 0.0
C1910 C 0.24301 0.77444 0.97681 0.0
C1911 C 0.22611 0.78156 0.96698 0.0
C1912 C 0.23397 0.80019 0.94248 0.0
H1913 H 0.18846 0.81682 0.90807 0.0
H1914 H 0.19658 0.80694 0.92457 0.0
H1915 H 0.23415 0.80843 0.92612 0.0
H1916 H 0.25869 0.78385 0.97332 0.0
H1917 H 0.24984 0.79748 0.96029 0.0
H1918 H 0.21121 0.79924 0.96055 0.0
C1919 C 0.20148 0.81381 0.92065 0.0
C1920 C 0.2291 0.80659 0.93365 0.0
C1921 C 0.19682 0.8195 0.91119 0.0
C1922 C 0.24957 0.78318 0.9717 0.0
C1923 C 0.24449 0.79092 0.96416 0.0
C1924 C 0.2163 0.80113 0.95306 0.0
C1925 C 0.21249 0.81668 0.92471 0.0
C1926 C 0.21773 0.81022 0.93434 0.0
C1927 C 0.23275 0.79001 0.96142 0.0
C1928 C 0.22765 0.79734 0.95231 0.0
H1929 H 0.21891 0.83813 0.90601 0.0
H1930 H 0.22708 0.82805 0.92232 0.0
H1931 H 0.20264 0.81025 0.94499 0.0
H1932 H 0.22594 0.76715 0.97833 0.0
H1933 H 0.21709 0.78049 0.96502 0.0
C1934 C 0.1962 0.21159 0.90476 0.0
C1935 C 0.19278 0.20005 0.90441 0.0
C1936 C 0.20204 0.21598 0.91425 0.0
C1937 C 0.21918 0.20787 0.93972 0.0
H1938 H 0.21136 0.23822 0.94959 0.0
C1939 C 0.24761 0.23491 0.97037 0.0
C1940 C 0.24233 0.2427 0.97766 0.0
C1941 C 0.2411 0.22841 0.96264 0.0
C1942 C 0.21357 0.22967 0.94709 0.0
H1943 H 0.19302 0.18405 0.91375 0.0
H1944 H 0.20323 0.19174 0.93038 0.0
H1945 H 0.201 0.22958 0.93373 0.0
H1946 H 0.22595 0.24924 0.98294 0.0
H1947 H 0.2146 0.23765 0.96976 0.0
H1948 H 0.23171 0.20797 0.9532 0.0
C1949 C 0.20145 0.19736 0.92324 0.0
C1950 C 0.20772 0.22477 0.93785 0.0
C1951 C 0.1956 0.19295 0.91371 0.0
C1952 C 0.23032 0.24329 0.97752 0.0
C1953 C 0.22381 0.23676 0.96982 0.0
C1954 C 0.22504 0.21278 0.949 0.0
C1955 C 0.20464 0.20897 0.92369 0.0
C1956 C 0.21054 0.21387 0.93393 0.0
C1957 C 0.22914 0.2295 0.96203 0.0
C1958 C 0.22238 0.2238 0.95274 0.0
H1959 H 0.1944 0.21725 0.89765 0.0
H1960 H 0.2046 0.22489 0.91415 0.0
H1961 H 0.22162 0.19948 0.93691 0.0
H1962 H 0.25683 0.23414 0.97034 0.0
H1963 H 0.24553 0.22295 0.95676 0.0
C1964 C 0.82561 0.20004 0.9178 0.0
C1965 C 0.82112 0.20032 0.90662 0.0
C1966 C 0.81932 0.20424 0.92696 0.0
C1967 C 0.78979 0.21129 0.93548 0.0
H1968 H 0.80462 0.23124 0.95755 0.0
C1969 C 0.76425 0.24131 0.96366 0.0
C1970 C 0.7677 0.24316 0.97504 0.0
C1971 C 0.77093 0.23496 0.95631 0.0
C1972 C 0.80038 0.22553 0.95158 0.0
H1973 H 0.80637 0.20499 0.89637 0.0
H1974 H 0.79546 0.21238 0.91227 0.0
H1975 H 0.81601 0.22224 0.94278 0.0
H1976 H 0.78078 0.23954 0.98769 0.0
H1977 H 0.79256 0.22831 0.97475 0.0
H1978 H 0.77415 0.21468 0.94412 0.0
C1979 C 0.80383 0.20887 0.914 0.0
C1980 C 0.80691 0.22039 0.9431 0.0
C1981 C 0.81013 0.20475 0.90485 0.0
C1982 C 0.77792 0.23827 0.97896 0.0
C1983 C 0.78469 0.23192 0.97153 0.0
C1984 C 0.78328 0.21641 0.94394 0.0
C1985 C 0.80834 0.20871 0.92517 0.0
C1986 C 0.80164 0.21339 0.9348 0.0
C1987 C 0.78126 0.23021 0.9601 0.0
C1988 C 0.78845 0.22379 0.95195 0.0
H1989 H 0.83408 0.19677 0.91944 0.0
H1990 H 0.82301 0.20392 0.93547 0.0
H1991 H 0.7855 0.20576 0.92939 0.0
H1992 H 0.75632 0.24479 0.96041 0.0
H1993 H 0.76808 0.23396 0.94754 0.0
C1994 C 0.81726 0.81225 0.90507 0.0
C1995 C 0.81597 0.82409 0.90381 0.0
C1996 C 0.81287 0.80649 0.91465 0.0
C1997 C 0.79087 0.80915 0.93692 0.0
H1998 H 0.80706 0.78448 0.95174 0.0
C1999 C 0.77173 0.78611 0.97613 0.0
C2000 C 0.77223 0.77414 0.97614 0.0
C2001 C 0.77828 0.79261 0.96844 0.0
C2002 C 0.80238 0.7913 0.94766 0.0
H2003 H 0.80944 0.8392 0.91195 0.0
H2004 H 0.80176 0.82917 0.92855 0.0
H2005 H 0.81603 0.79491 0.93595 0.0
H2006 H 0.78062 0.75971 0.96857 0.0
H2007 H 0.79184 0.77099 0.95504 0.0
H2008 H 0.77713 0.80544 0.94839 0.0
C2009 C 0.80599 0.82429 0.92204 0.0
C2010 C 0.80753 0.79727 0.9386 0.0
C2011 C 0.81039 0.83005 0.9125 0.0
C2012 C 0.77992 0.7689 0.96871 0.0
C2013 C 0.78645 0.77539 0.961 0.0
C2014 C 0.78571 0.80316 0.94594 0.0
C2015 C 0.80706 0.81242 0.92319 0.0
C2016 C 0.80181 0.80624 0.93308 0.0
C2017 C 0.78549 0.78732 0.96054 0.0
C2018 C 0.79136 0.79411 0.9514 0.0
H2019 H 0.82139 0.80736 0.89851 0.0
H2020 H 0.81374 0.79732 0.91519 0.0
H2021 H 0.78612 0.81588 0.93276 0.0
H2022 H 0.76585 0.79045 0.98166 0.0
H2023 H 0.77748 0.80179 0.9685 0.0
C2024 C 0.10954 0.21056 0.19401 0.0
C2025 C 0.11334 0.19941 0.19608 0.0
C2026 C 0.09999 0.21475 0.19967 0.0
C2027 C 0.08207 0.20977 0.22534 0.0
H2028 H 0.06168 0.23073 0.20994 0.0
C2029 C 0.04241 0.22786 0.2478 0.0
C2030 C 0.04132 0.23975 0.24697 0.0
C2031 C 0.05004 0.22213 0.24076 0.0
C2032 C 0.06731 0.22491 0.21437 0.0
H2033 H 0.10993 0.18393 0.20579 0.0
H2034 H 0.0931 0.19112 0.2154 0.0
H2035 H 0.07726 0.22221 0.19938 0.0
H2036 H 0.04692 0.25486 0.23771 0.0
H2037 H 0.06016 0.24487 0.22539 0.0
H2038 H 0.07211 0.21252 0.24033 0.0
C2039 C 0.09763 0.1967 0.20952 0.0
C2040 C 0.07629 0.22005 0.20833 0.0
C2041 C 0.10722 0.19252 0.20389 0.0
C2042 C 0.0476 0.2457 0.23857 0.0
C2043 C 0.05514 0.23996 0.23147 0.0
C2044 C 0.07304 0.21457 0.23135 0.0
C2045 C 0.09391 0.2079 0.20752 0.0
C2046 C 0.0839 0.21253 0.21377 0.0
C2047 C 0.05667 0.22815 0.23267 0.0
C2048 C 0.06564 0.22232 0.22598 0.0
H2049 H 0.1139 0.21607 0.18794 0.0
H2050 H 0.09751 0.22346 0.198 0.0
H2051 H 0.08782 0.20416 0.22988 0.0
H2052 H 0.03777 0.22307 0.25426 0.0
H2053 H 0.05093 0.21301 0.24181 0.0
C2054 C 0.81409 0.10751 0.19821 0.0
C2055 C 0.82572 0.10984 0.20055 0.0
C2056 C 0.80862 0.09787 0.20285 0.0
C2057 C 0.81131 0.07724 0.22675 0.0
H2058 H 0.78748 0.06064 0.21032 0.0
C2059 C 0.78852 0.03864 0.24729 0.0
C2060 C 0.77651 0.03898 0.24692 0.0
C2061 C 0.79509 0.04579 0.24022 0.0
C2062 C 0.79411 0.06521 0.21502 0.0
H2063 H 0.84071 0.10367 0.20958 0.0
H2064 H 0.8313 0.08672 0.21732 0.0
H2065 H 0.79792 0.07616 0.2008 0.0
H2066 H 0.76197 0.04643 0.23823 0.0
H2067 H 0.77342 0.05893 0.2259 0.0
H2068 H 0.80743 0.0664 0.241 0.0
C2069 C 0.82634 0.09245 0.21205 0.0
C2070 C 0.80007 0.07413 0.20958 0.0
C2071 C 0.83179 0.10212 0.20747 0.0
C2072 C 0.77122 0.04604 0.23876 0.0
C2073 C 0.77778 0.05315 0.23166 0.0
C2074 C 0.8054 0.06829 0.23215 0.0
C2075 C 0.81464 0.09026 0.20992 0.0
C2076 C 0.80867 0.08035 0.21542 0.0
C2077 C 0.78979 0.05339 0.23258 0.0
C2078 C 0.79666 0.06224 0.2264 0.0
H2079 H 0.80917 0.11316 0.19279 0.0
H2080 H 0.79958 0.09654 0.2011 0.0
H2081 H 0.8177 0.08194 0.23161 0.0
H2082 H 0.79287 0.03337 0.25354 0.0
H2083 H 0.80433 0.04564 0.24102 0.0
C2084 C 0.90367 0.81851 0.2066 0.0
C2085 C 0.90253 0.81656 0.1948 0.0
C2086 C 0.91293 0.81411 0.21277 0.0
C2087 C 0.94191 0.80173 0.2094 0.0
H2088 H 0.93558 0.78832 0.23907 0.0
C2089 C 0.97233 0.77035 0.23255 0.0
C2090 C 0.97299 0.77069 0.24454 0.0
C2091 C 0.96475 0.77738 0.22656 0.0
C2092 C 0.93757 0.79219 0.23088 0.0
H2093 H 0.91054 0.80875 0.1802 0.0
H2094 H 0.92647 0.80084 0.19098 0.0
H2095 H 0.92036 0.79775 0.22856 0.0
H2096 H 0.96677 0.77926 0.25957 0.0
H2097 H 0.95362 0.79156 0.24914 0.0
H2098 H 0.95909 0.79591 0.21166 0.0
C2099 C 0.92027 0.80587 0.19547 0.0
C2100 C 0.92881 0.79761 0.22484 0.0
C2101 C 0.91103 0.81029 0.1893 0.0
C2102 C 0.96635 0.77867 0.25034 0.0
C2103 C 0.95878 0.78569 0.24437 0.0
C2104 C 0.95067 0.79627 0.21544 0.0
C2105 C 0.9213 0.80763 0.20731 0.0
C2106 C 0.93083 0.80238 0.21397 0.0
C2107 C 0.95765 0.78492 0.23243 0.0
C2108 C 0.94859 0.79136 0.22623 0.0
H2109 H 0.89726 0.82323 0.21114 0.0
H2110 H 0.91351 0.81576 0.22184 0.0
H2111 H 0.94384 0.80546 0.20114 0.0
H2112 H 0.9772 0.76421 0.22781 0.0
H2113 H 0.96405 0.77649 0.21738 0.0
C2114 C 0.20269 0.90585 0.19867 0.0
C2115 C 0.19139 0.90303 0.20183 0.0
C2116 C 0.20839 0.91528 0.20346 0.0
C2117 C 0.20762 0.93421 0.22867 0.0
H2118 H 0.22854 0.9531 0.21096 0.0
C2119 C 0.22972 0.97358 0.24844 0.0
C2120 C 0.24162 0.97444 0.24681 0.0
C2121 C 0.22304 0.96603 0.24192 0.0
C2122 C 0.22276 0.94788 0.21602 0.0
H2123 H 0.17728 0.90801 0.21256 0.0
H2124 H 0.18705 0.92458 0.2206 0.0
H2125 H 0.218 0.93752 0.20169 0.0
H2126 H 0.25569 0.96859 0.23653 0.0
H2127 H 0.24404 0.95536 0.22518 0.0
H2128 H 0.2124 0.94448 0.243 0.0
C2129 C 0.19159 0.91942 0.21454 0.0
C2130 C 0.21674 0.93892 0.21073 0.0
C2131 C 0.18591 0.90998 0.2098 0.0
C2132 C 0.24656 0.96805 0.23805 0.0
C2133 C 0.23987 0.96053 0.2315 0.0
C2134 C 0.21358 0.94318 0.23394 0.0
C2135 C 0.20294 0.92215 0.21152 0.0
C2136 C 0.20913 0.93192 0.217 0.0
C2137 C 0.22808 0.95918 0.23359 0.0
C2138 C 0.22127 0.95009 0.22771 0.0
H2139 H 0.20715 0.90079 0.19247 0.0
H2140 H 0.21717 0.91704 0.20101 0.0
H2141 H 0.20202 0.92888 0.23384 0.0
H2142 H 0.22566 0.9783 0.25518 0.0
H2143 H 0.21396 0.96532 0.24363 0.0
C2144 C 0.10438 0.82071 0.82576 0.0
C2145 C 0.11475 0.81487 0.82702 0.0
C2146 C 0.09539 0.81606 0.81921 0.0
C2147 C 0.08968 0.79554 0.79606 0.0
H2148 H 0.05872 0.79394 0.80776 0.0
C2149 C 0.05647 0.76482 0.77709 0.0
C2150 C 0.04517 0.76845 0.77539 0.0
C2151 C 0.06434 0.77148 0.78319 0.0
C2152 C 0.06728 0.79448 0.80429 0.0
H2153 H 0.12386 0.7997 0.82223 0.0
H2154 H 0.10823 0.7916 0.81088 0.0
H2155 H 0.07373 0.80391 0.81869 0.0
H2156 H 0.03316 0.78176 0.77915 0.0
H2157 H 0.04704 0.79354 0.7899 0.0
H2158 H 0.08336 0.78609 0.78175 0.0
C2159 C 0.10703 0.79977 0.81492 0.0
C2160 C 0.07588 0.80017 0.81056 0.0
C2161 C 0.11595 0.80435 0.82152 0.0
C2162 C 0.04182 0.77877 0.78029 0.0
C2163 C 0.04976 0.78549 0.78644 0.0
C2164 C 0.08112 0.78991 0.78981 0.0
C2165 C 0.09664 0.80556 0.81367 0.0
C2166 C 0.08723 0.80052 0.80662 0.0
C2167 C 0.06116 0.78197 0.7878 0.0
C2168 C 0.06987 0.78906 0.79397 0.0
H2169 H 0.10318 0.8288 0.82995 0.0
H2170 H 0.08751 0.82073 0.81836 0.0
H2171 H 0.09829 0.79588 0.79267 0.0
H2172 H 0.05925 0.75675 0.77373 0.0
H2173 H 0.07293 0.76832 0.78436 0.0
C2174 C 0.19714 0.10259 0.82694 0.0
C2175 C 0.20157 0.11377 0.82592 0.0
C2176 C 0.20253 0.0935 0.82156 0.0
C2177 C 0.23059 0.08518 0.81044 0.0
H2178 H 0.21358 0.0626 0.79288 0.0
C2179 C 0.25303 0.05598 0.77901 0.0
C2180 C 0.24932 0.04459 0.77779 0.0
C2181 C 0.24691 0.06359 0.78561 0.0
C2182 C 0.21844 0.06872 0.79791 0.0
H2183 H 0.21518 0.12412 0.8185 0.0
H2184 H 0.22452 0.10832 0.80914 0.0
H2185 H 0.20332 0.07752 0.80292 0.0
H2186 H 0.23629 0.03223 0.78279 0.0
H2187 H 0.22557 0.04559 0.79454 0.0
H2188 H 0.24568 0.07648 0.8055 0.0
C2189 C 0.2169 0.10657 0.81411 0.0
C2190 C 0.21256 0.07728 0.80363 0.0
C2191 C 0.21147 0.11565 0.81937 0.0
C2192 C 0.23937 0.04095 0.78355 0.0
C2193 C 0.23319 0.04863 0.79019 0.0
C2194 C 0.23644 0.07661 0.8048 0.0
C2195 C 0.21255 0.09537 0.81519 0.0
C2196 C 0.2186 0.08575 0.80977 0.0
C2197 C 0.23691 0.06005 0.79131 0.0
C2198 C 0.23048 0.06841 0.79824 0.0
H2199 H 0.18949 0.10088 0.83186 0.0
H2200 H 0.19899 0.08497 0.82259 0.0
H2201 H 0.23548 0.09141 0.81531 0.0
H2202 H 0.26078 0.05905 0.77491 0.0
H2203 H 0.24997 0.07233 0.78611 0.0
C2204 C 0.90858 0.20013 0.82576 0.0
C2205 C 0.90188 0.19253 0.81918 0.0
C2206 C 0.9178 0.20614 0.82088 0.0
C2207 C 0.92889 0.21586 0.79286 0.0
H2208 H 0.95765 0.21999 0.80918 0.0
C2209 C 0.9678 0.2361 0.77056 0.0
C2210 C 0.97391 0.24453 0.77663 0.0
C2211 C 0.9599 0.22895 0.77611 0.0
C2212 C 0.94965 0.21898 0.80454 0.0
H2213 H 0.89957 0.18547 0.80222 0.0
H2214 H 0.91568 0.19575 0.7938 0.0
H2215 H 0.94188 0.20944 0.81821 0.0
H2216 H 0.97692 0.25171 0.79341 0.0
H2217 H 0.96311 0.23924 0.80313 0.0
H2218 H 0.93653 0.22544 0.77926 0.0
C2219 C 0.91379 0.19714 0.80272 0.0
C2220 C 0.9406 0.21296 0.80973 0.0
C2221 C 0.90462 0.19113 0.8076 0.0
C2222 C 0.97243 0.24522 0.78851 0.0
C2223 C 0.96448 0.23809 0.79408 0.0
C2224 C 0.9379 0.22187 0.7877 0.0
C2225 C 0.92049 0.20475 0.80928 0.0
C2226 C 0.93012 0.21129 0.80392 0.0
C2227 C 0.95788 0.23009 0.78787 0.0
C2228 C 0.94842 0.22348 0.79344 0.0
H2229 H 0.90677 0.20135 0.83473 0.0
H2230 H 0.92271 0.21201 0.82615 0.0
H2231 H 0.92087 0.21495 0.78823 0.0
H2232 H 0.96886 0.23527 0.76142 0.0
H2233 H 0.95518 0.2227 0.77111 0.0
C2234 C 0.8182 0.90823 0.82173 0.0
C2235 C 0.82509 0.90147 0.81476 0.0
C2236 C 0.81218 0.91744 0.8171 0.0
C2237 C 0.80092 0.92848 0.78957 0.0
H2238 H 0.79855 0.95702 0.80583 0.0
C2239 C 0.78005 0.96722 0.76825 0.0
C2240 C 0.7722 0.97327 0.77482 0.0
C2241 C 0.78737 0.95935 0.77338 0.0
C2242 C 0.79906 0.94908 0.80122 0.0
H2243 H 0.83089 0.89908 0.79739 0.0
H2244 H 0.82063 0.91518 0.78941 0.0
H2245 H 0.80932 0.94136 0.81432 0.0
H2246 H 0.76625 0.97615 0.79203 0.0
H2247 H 0.77902 0.9624 0.80102 0.0
H2248 H 0.79061 0.93609 0.77653 0.0
C2249 C 0.81979 0.91333 0.79844 0.0
C2250 C 0.80522 0.94009 0.80609 0.0
C2251 C 0.8258 0.90416 0.80306 0.0
C2252 C 0.77228 0.97172 0.78674 0.0
C2253 C 0.77959 0.96381 0.79189 0.0
C2254 C 0.79478 0.93744 0.78471 0.0
C2255 C 0.81286 0.92008 0.80537 0.0
C2256 C 0.80625 0.92968 0.80031 0.0
C2257 C 0.787 0.95728 0.78523 0.0
C2258 C 0.79378 0.94788 0.79044 0.0
H2259 H 0.81753 0.90648 0.83079 0.0
H2260 H 0.80685 0.92237 0.82268 0.0
H2261 H 0.80132 0.92053 0.78496 0.0
H2262 H 0.78029 0.96832 0.75906 0.0
H2263 H 0.79315 0.95469 0.76801 0.0
C2264 C 0.18532 0.10251 0.20903 0.0
C2265 C 0.19133 0.1115 0.20364 0.0
C2266 C 0.19111 0.09311 0.21347 0.0
C2267 C 0.21854 0.07764 0.21247 0.0
H2268 H 0.20976 0.06731 0.24273 0.0
C2269 C 0.24698 0.04873 0.24073 0.0
C2270 C 0.2417 0.04105 0.24841 0.0
C2271 C 0.24044 0.05614 0.23404 0.0
C2272 C 0.21221 0.06991 0.23419 0.0
H2273 H 0.2082 0.11749 0.19853 0.0
H2274 H 0.2183 0.10106 0.20624 0.0
H2275 H 0.19921 0.08253 0.23347 0.0
H2276 H 0.2253 0.03478 0.25458 0.0
H2277 H 0.21389 0.04743 0.24266 0.0
H2278 H 0.23162 0.06505 0.21325 0.0
C2279 C 0.20907 0.10125 0.20695 0.0
C2280 C 0.20616 0.07869 0.22888 0.0
C2281 C 0.20327 0.11068 0.20252 0.0
C2282 C 0.22967 0.04052 0.24873 0.0
C2283 C 0.22312 0.04791 0.242 0.0
C2284 C 0.22458 0.06881 0.21777 0.0
C2285 C 0.20308 0.09242 0.21262 0.0
C2286 C 0.20929 0.08273 0.21799 0.0
C2287 C 0.22843 0.05605 0.23481 0.0
C2288 C 0.22155 0.06488 0.22875 0.0
H2289 H 0.1761 0.10272 0.20984 0.0
H2290 H 0.1862 0.08637 0.21759 0.0
H2291 H 0.22109 0.08044 0.20402 0.0
H2292 H 0.25622 0.04928 0.24017 0.0
H2293 H 0.24486 0.0623 0.22866 0.0
C2294 C 0.18814 0.91373 0.81756 0.0
C2295 C 0.19154 0.90255 0.81521 0.0
C2296 C 0.19389 0.92308 0.81264 0.0
C2297 C 0.21323 0.93065 0.78859 0.0
H2298 H 0.21858 0.95841 0.80572 0.0
C2299 C 0.23533 0.96932 0.76747 0.0
C2300 C 0.24377 0.97499 0.77399 0.0
C2301 C 0.22772 0.96159 0.77263 0.0
C2302 C 0.21721 0.9507 0.80082 0.0
H2303 H 0.20385 0.89244 0.80615 0.0
H2304 H 0.214 0.90869 0.79776 0.0
H2305 H 0.20836 0.94243 0.8146 0.0
H2306 H 0.25059 0.97734 0.79108 0.0
H2307 H 0.23746 0.96371 0.80008 0.0
H2308 H 0.22248 0.93865 0.775 0.0
C2309 C 0.2067 0.91028 0.80314 0.0
C2310 C 0.21122 0.94157 0.80588 0.0
C2311 C 0.20091 0.90094 0.80798 0.0
C2312 C 0.24408 0.97319 0.78586 0.0
C2313 C 0.23654 0.96536 0.79101 0.0
C2314 C 0.21926 0.93972 0.78357 0.0
C2315 C 0.20321 0.92148 0.80531 0.0
C2316 C 0.20924 0.93138 0.79986 0.0
C2317 C 0.22845 0.95923 0.78441 0.0
C2318 C 0.2214 0.94986 0.78962 0.0
H2319 H 0.18087 0.91524 0.823 0.0
H2320 H 0.19086 0.93156 0.8144 0.0
H2321 H 0.21171 0.92302 0.7836 0.0
H2322 H 0.23485 0.97063 0.75831 0.0
H2323 H 0.22142 0.95726 0.7673 0.0
C2324 C 0.10874 0.18942 0.80537 0.0
C2325 C 0.11333 0.19222 0.81616 0.0
C2326 C 0.09935 0.19524 0.8009 0.0
C2327 C 0.07494 0.21323 0.80862 0.0
H2328 H 0.07671 0.22307 0.77701 0.0
C2329 C 0.04351 0.2456 0.78817 0.0
C2330 C 0.04103 0.24462 0.77645 0.0
C2331 C 0.05139 0.23832 0.79343 0.0
C2332 C 0.07593 0.22022 0.78579 0.0
H2333 H 0.11143 0.20334 0.83074 0.0
H2334 H 0.09494 0.2134 0.82296 0.0
H2335 H 0.09225 0.21223 0.78536 0.0
H2336 H 0.04421 0.23481 0.76124 0.0
H2337 H 0.0576 0.22187 0.77045 0.0
H2338 H 0.05857 0.22121 0.80903 0.0
C2339 C 0.09862 0.20664 0.818 0.0
C2340 C 0.0849 0.21403 0.79059 0.0
C2341 C 0.10808 0.20085 0.82246 0.0
C2342 C 0.04605 0.23581 0.77027 0.0
C2343 C 0.05381 0.22847 0.77554 0.0
C2344 C 0.0659 0.21937 0.80378 0.0
C2345 C 0.09422 0.20397 0.80711 0.0
C2346 C 0.08454 0.21047 0.80207 0.0
C2347 C 0.05689 0.22985 0.7871 0.0
C2348 C 0.06627 0.22297 0.79229 0.0
H2349 H 0.11236 0.18265 0.80037 0.0
H2350 H 0.09606 0.19284 0.79257 0.0
H2351 H 0.07435 0.21051 0.81746 0.0
H2352 H 0.03987 0.2524 0.79311 0.0
H2353 H 0.05358 0.23973 0.80232 0.0
C2354 C 0.80707 0.11527 0.8186 0.0
C2355 C 0.81542 0.11374 0.82714 0.0
C2356 C 0.80264 0.10596 0.81252 0.0
C2357 C 0.79967 0.07436 0.81377 0.0
H2358 H 0.79094 0.07832 0.78202 0.0
C2359 C 0.77013 0.04228 0.78987 0.0
C2360 C 0.7713 0.04112 0.77801 0.0
C2361 C 0.77689 0.0502 0.79589 0.0
C2362 C 0.79349 0.07695 0.79083 0.0
H2363 H 0.82584 0.10124 0.83586 0.0
H2364 H 0.81831 0.08498 0.8251 0.0
H2365 H 0.8002 0.09394 0.79214 0.0
H2366 H 0.78096 0.04677 0.76325 0.0
H2367 H 0.79306 0.06028 0.77377 0.0
H2368 H 0.7932 0.05725 0.81235 0.0
C2369 C 0.81496 0.09335 0.82325 0.0
C2370 C 0.79864 0.08602 0.79671 0.0
C2371 C 0.81932 0.10268 0.82941 0.0
C2372 C 0.77982 0.04756 0.77239 0.0
C2373 C 0.78667 0.05538 0.77842 0.0
C2374 C 0.7946 0.06524 0.80785 0.0
C2375 C 0.80653 0.09486 0.81475 0.0
C2376 C 0.80165 0.08493 0.80832 0.0
C2377 C 0.78507 0.05707 0.79019 0.0
C2378 C 0.79129 0.06645 0.79633 0.0
H2379 H 0.80376 0.12366 0.81677 0.0
H2380 H 0.79599 0.10746 0.80623 0.0
H2381 H 0.80178 0.07319 0.82272 0.0
H2382 H 0.76352 0.03755 0.7944 0.0
H2383 H 0.77527 0.05131 0.8049 0.0
C2384 C 0.90205 0.80269 0.82096 0.0
C2385 C 0.90209 0.81397 0.82492 0.0
C2386 C 0.91159 0.79833 0.81544 0.0
C2387 C 0.93816 0.80672 0.80018 0.0
H2388 H 0.9463 0.77542 0.80663 0.0
C2389 C 0.96874 0.78092 0.77186 0.0
C2390 C 0.97548 0.77245 0.77698 0.0
C2391 C 0.96103 0.78715 0.77834 0.0
C2392 C 0.94428 0.78423 0.80483 0.0
H2393 H 0.91224 0.82956 0.82605 0.0
H2394 H 0.92893 0.82193 0.81643 0.0
H2395 H 0.93038 0.78384 0.81662 0.0
H2396 H 0.97984 0.76436 0.7931 0.0
H2397 H 0.96666 0.77544 0.80446 0.0
H2398 H 0.95217 0.80711 0.78845 0.0
C2399 C 0.92145 0.81648 0.8175 0.0
C2400 C 0.93501 0.78902 0.81045 0.0
C2401 C 0.91187 0.82086 0.82302 0.0
C2402 C 0.97484 0.77086 0.78887 0.0
C2403 C 0.96714 0.7771 0.79536 0.0
C2404 C 0.94746 0.80193 0.79456 0.0
C2405 C 0.92147 0.80512 0.81373 0.0
C2406 C 0.93172 0.80027 0.8081 0.0
C2407 C 0.95988 0.78508 0.79013 0.0
C2408 C 0.95058 0.79057 0.79672 0.0
H2409 H 0.89459 0.79721 0.82206 0.0
H2410 H 0.91117 0.78962 0.81242 0.0
H2411 H 0.93585 0.8154 0.79811 0.0
H2412 H 0.96911 0.78246 0.76274 0.0
H2413 H 0.95557 0.79317 0.77398 0.0
C2414 C 0.82013 0.9015 0.21614 0.0
C2415 C 0.82424 0.90174 0.20488 0.0
C2416 C 0.81465 0.91093 0.2207 0.0
C2417 C 0.79973 0.93753 0.21283 0.0
H2418 H 0.80591 0.94507 0.24449 0.0
C2419 C 0.77125 0.96741 0.23917 0.0
C2420 C 0.77632 0.97401 0.24788 0.0
C2421 C 0.77777 0.95985 0.23282 0.0
C2422 C 0.80419 0.94322 0.23559 0.0
H2423 H 0.82568 0.91212 0.18955 0.0
H2424 H 0.81612 0.92862 0.19753 0.0
H2425 H 0.81588 0.92938 0.23574 0.0
H2426 H 0.79241 0.97827 0.25629 0.0
H2427 H 0.80385 0.96535 0.24501 0.0
H2428 H 0.78809 0.95147 0.21269 0.0
C2429 C 0.81705 0.92106 0.2028 0.0
C2430 C 0.8098 0.93408 0.23061 0.0
C2431 C 0.82253 0.9116 0.19822 0.0
C2432 C 0.78822 0.97338 0.24961 0.0
C2433 C 0.79475 0.96583 0.24324 0.0
C2434 C 0.79411 0.94669 0.21782 0.0
C2435 C 0.81313 0.92089 0.21414 0.0
C2436 C 0.80754 0.93101 0.21921 0.0
C2437 C 0.78956 0.95872 0.23499 0.0
C2438 C 0.79617 0.94958 0.22931 0.0
H2439 H 0.82108 0.89397 0.22144 0.0
H2440 H 0.81152 0.91037 0.22937 0.0
H2441 H 0.79773 0.93539 0.20405 0.0
H2442 H 0.76213 0.96778 0.23753 0.0
H2443 H 0.77344 0.9545 0.22659 0.0
C2444 C 0.10464 0.80718 0.18757 0.0
C2445 C 0.11254 0.81437 0.19326 0.0
C2446 C 0.09525 0.80243 0.19333 0.0
C2447 C 0.07776 0.8051 0.21963 0.0
H2448 H 0.06948 0.77369 0.21306 0.0
C2449 C 0.04833 0.77705 0.24845 0.0
C2450 C 0.04086 0.76918 0.24311 0.0
C2451 C 0.05604 0.78365 0.24201 0.0
C2452 C 0.07155 0.78253 0.21488 0.0
H2453 H 0.11651 0.82236 0.2095 0.0
H2454 H 0.10035 0.8138 0.21963 0.0
H2455 H 0.08506 0.78288 0.20268 0.0
H2456 H 0.03535 0.76242 0.22674 0.0
H2457 H 0.04866 0.77404 0.2155 0.0
H2458 H 0.06436 0.80459 0.23206 0.0
C2459 C 0.10133 0.81196 0.21065 0.0
C2460 C 0.08051 0.78782 0.20892 0.0
C2461 C 0.11071 0.81676 0.20486 0.0
C2462 C 0.0409 0.76847 0.23113 0.0
C2463 C 0.04864 0.77502 0.22469 0.0
C2464 C 0.06882 0.79978 0.22565 0.0
C2465 C 0.09351 0.80467 0.20497 0.0
C2466 C 0.08377 0.79917 0.21122 0.0
C2467 C 0.0565 0.78248 0.23007 0.0
C2468 C 0.06562 0.78841 0.22336 0.0
H2469 H 0.10582 0.80501 0.17868 0.0
H2470 H 0.08935 0.79699 0.18862 0.0
H2471 H 0.07991 0.8139 0.22152 0.0
H2472 H 0.04845 0.77785 0.25766 0.0
H2473 H 0.06199 0.78927 0.24643 0.0
C2474 C 0.90802 0.19418 0.20014 0.0
C2475 C 0.90195 0.20102 0.19234 0.0
C2476 C 0.91767 0.19851 0.2059 0.0
C2477 C 0.93918 0.22235 0.20538 0.0
H2478 H 0.94304 0.21441 0.23736 0.0
C2479 C 0.96813 0.24769 0.23694 0.0
C2480 C 0.9742 0.24153 0.24528 0.0
C2481 C 0.96056 0.2421 0.22946 0.0
C2482 C 0.94219 0.21658 0.22839 0.0
H2483 H 0.90153 0.21772 0.18431 0.0
H2484 H 0.91803 0.22538 0.19463 0.0
H2485 H 0.92727 0.20597 0.22648 0.0
H2486 H 0.9774 0.22462 0.25204 0.0
H2487 H 0.96425 0.21485 0.23892 0.0
H2488 H 0.95394 0.23325 0.20746 0.0
C2489 C 0.91546 0.2166 0.19618 0.0
C2490 C 0.93314 0.21173 0.22213 0.0
C2491 C 0.90586 0.21225 0.19037 0.0
C2492 C 0.97293 0.2296 0.24564 0.0
C2493 C 0.9653 0.22402 0.23822 0.0
C2494 C 0.94819 0.22727 0.21167 0.0
C2495 C 0.92147 0.20981 0.20406 0.0
C2496 C 0.93145 0.2146 0.21056 0.0
C2497 C 0.95883 0.23023 0.23022 0.0
C2498 C 0.94975 0.2245 0.22327 0.0
H2499 H 0.90522 0.18553 0.20197 0.0
H2500 H 0.92215 0.19297 0.21179 0.0
H2501 H 0.93829 0.22461 0.19644 0.0
H2502 H 0.96897 0.25689 0.23643 0.0
H2503 H 0.95567 0.24714 0.22343 0.0
C2504 C 0.19632 0.70373 0.61412 0.0
C2505 C 0.19859 0.69205 0.6154 0.0
C2506 C 0.20055 0.7099 0.60474 0.0
C2507 C 0.213 0.70656 0.57571 0.0
H2508 H 0.22568 0.73672 0.58148 0.0
C2509 C 0.24378 0.73041 0.54466 0.0
C2510 C 0.24311 0.74235 0.54388 0.0
C2511 C 0.23691 0.72427 0.55238 0.0
C2512 C 0.22201 0.72838 0.57965 0.0
H2513 H 0.20677 0.67765 0.6075 0.0
H2514 H 0.21437 0.68844 0.59136 0.0
H2515 H 0.21653 0.72611 0.59691 0.0
H2516 H 0.2341 0.75708 0.55002 0.0
H2517 H 0.22208 0.74639 0.56341 0.0
H2518 H 0.21876 0.70879 0.55847 0.0
C2519 C 0.20923 0.69283 0.59754 0.0
C2520 C 0.21675 0.72229 0.58852 0.0
C2521 C 0.20499 0.68667 0.60691 0.0
C2522 C 0.23495 0.74791 0.55054 0.0
C2523 C 0.2281 0.74179 0.55825 0.0
C2524 C 0.21831 0.71266 0.56683 0.0
C2525 C 0.20717 0.70456 0.59637 0.0
C2526 C 0.21225 0.71125 0.58671 0.0
C2527 C 0.22921 0.72993 0.5595 0.0
C2528 C 0.22295 0.72362 0.5687 0.0
H2529 H 0.1915 0.7082 0.62052 0.0
H2530 H 0.19865 0.71888 0.60406 0.0
H2531 H 0.20948 0.69816 0.57394 0.0
H2532 H 0.25006 0.72587 0.53977 0.0
H2533 H 0.23806 0.71516 0.55317 0.0
C2534 C 0.80203 0.69096 0.6109 0.0
C2535 C 0.81312 0.69338 0.61507 0.0
C2536 C 0.79772 0.69671 0.60134 0.0
C2537 C 0.80215 0.72306 0.58416 0.0
H2538 H 0.78174 0.70769 0.56277 0.0
C2539 C 0.78422 0.7462 0.54449 0.0
C2540 C 0.77228 0.74527 0.5431 0.0
C2541 C 0.78998 0.73896 0.55206 0.0
C2542 C 0.78742 0.71209 0.56868 0.0
H2543 H 0.82839 0.70378 0.61232 0.0
H2544 H 0.82103 0.71352 0.59545 0.0
H2545 H 0.79039 0.69691 0.57841 0.0
H2546 H 0.75712 0.73561 0.54801 0.0
H2547 H 0.76718 0.72293 0.56116 0.0
H2548 H 0.79914 0.73823 0.57443 0.0
C2549 C 0.81557 0.70731 0.5997 0.0
C2550 C 0.79234 0.70594 0.57769 0.0
C2551 C 0.81985 0.7016 0.60931 0.0
C2552 C 0.76632 0.73655 0.54895 0.0
C2553 C 0.77209 0.72925 0.55643 0.0
C2554 C 0.7973 0.72918 0.57511 0.0
C2555 C 0.80442 0.70499 0.59562 0.0
C2556 C 0.79967 0.71137 0.58564 0.0
C2557 C 0.78394 0.73058 0.55831 0.0
C2558 C 0.78977 0.7238 0.56734 0.0
H2559 H 0.79665 0.68457 0.61499 0.0
H2560 H 0.78905 0.69479 0.59856 0.0
H2561 H 0.80758 0.72759 0.59019 0.0
H2562 H 0.78903 0.7529 0.54019 0.0
H2563 H 0.79913 0.74011 0.55323 0.0
C2564 C 0.80182 0.32758 0.61297 0.0
C2565 C 0.81269 0.32486 0.61736 0.0
C2566 C 0.79724 0.32182 0.60353 0.0
C2567 C 0.80475 0.30422 0.57868 0.0
H2568 H 0.77314 0.29389 0.58065 0.0
C2569 C 0.7841 0.27173 0.54706 0.0
C2570 C 0.77231 0.27249 0.54476 0.0
C2571 C 0.78941 0.27907 0.55495 0.0
C2572 C 0.78192 0.29688 0.57982 0.0
H2573 H 0.82731 0.31395 0.61504 0.0
H2574 H 0.81936 0.30401 0.59845 0.0
H2575 H 0.78164 0.30471 0.59626 0.0
H2576 H 0.75702 0.28199 0.54829 0.0
H2577 H 0.76632 0.29506 0.56169 0.0
H2578 H 0.805 0.2964 0.56219 0.0
C2579 C 0.81441 0.31066 0.60233 0.0
C2580 C 0.78681 0.30306 0.58882 0.0
C2581 C 0.81897 0.31638 0.61185 0.0
C2582 C 0.7661 0.28116 0.54997 0.0
C2583 C 0.77143 0.28857 0.55774 0.0
C2584 C 0.79982 0.29809 0.5696 0.0
C2585 C 0.80344 0.31323 0.59814 0.0
C2586 C 0.79828 0.30679 0.5884 0.0
C2587 C 0.78307 0.2874 0.56064 0.0
C2588 C 0.78833 0.29431 0.57005 0.0
H2589 H 0.79682 0.33423 0.6168 0.0
H2590 H 0.78885 0.32415 0.60039 0.0
H2591 H 0.81358 0.30706 0.57804 0.0
H2592 H 0.78906 0.26503 0.54328 0.0
H2593 H 0.79836 0.27782 0.55699 0.0
C2594 C 0.20796 0.33017 0.60765 0.0
C2595 C 0.19923 0.32516 0.61432 0.0
C2596 C 0.21253 0.32436 0.59838 0.0
C2597 C 0.21657 0.29547 0.58733 0.0
H2598 H 0.22356 0.31115 0.55891 0.0
C2599 C 0.23607 0.27141 0.54964 0.0
C2600 C 0.24504 0.27696 0.54381 0.0
C2601 C 0.2292 0.2774 0.5572 0.0
C2602 C 0.22176 0.30666 0.56682 0.0
H2603 H 0.18833 0.31013 0.61622 0.0
H2604 H 0.19644 0.29994 0.60016 0.0
H2605 H 0.21419 0.32136 0.57426 0.0
H2606 H 0.25363 0.29324 0.54107 0.0
H2607 H 0.24178 0.30367 0.55434 0.0
H2608 H 0.2244 0.28088 0.5801 0.0
C2609 C 0.19979 0.30835 0.60218 0.0
C2610 C 0.21637 0.31251 0.57561 0.0
C2611 C 0.19516 0.31419 0.61141 0.0
C2612 C 0.24669 0.28875 0.54532 0.0
C2613 C 0.23988 0.29473 0.55295 0.0
C2614 C 0.22202 0.28964 0.57858 0.0
C2615 C 0.20856 0.31336 0.59557 0.0
C2616 C 0.21379 0.30701 0.586 0.0
C2617 C 0.23121 0.28908 0.5592 0.0
C2618 C 0.22477 0.29517 0.56822 0.0
H2619 H 0.21148 0.33849 0.60973 0.0
H2620 H 0.2194 0.32838 0.59358 0.0
H2621 H 0.21485 0.29103 0.59529 0.0
H2622 H 0.23453 0.26235 0.54856 0.0
H2623 H 0.22244 0.2728 0.56164 0.0
C2624 C 0.19811 0.31187 0.40594 0.0
C2625 C 0.19998 0.32371 0.40508 0.0
C2626 C 0.20229 0.30574 0.41533 0.0
C2627 C 0.21372 0.30905 0.44491 0.0
H2628 H 0.22814 0.28024 0.43874 0.0
C2629 C 0.24535 0.28724 0.47608 0.0
C2630 C 0.24543 0.27527 0.47656 0.0
C2631 C 0.23817 0.2929 0.46839 0.0
C2632 C 0.22397 0.28817 0.44067 0.0
H2633 H 0.20742 0.33842 0.41367 0.0
H2634 H 0.21496 0.3277 0.42985 0.0
H2635 H 0.21883 0.29055 0.42327 0.0
H2636 H 0.23744 0.25988 0.46987 0.0
H2637 H 0.22486 0.26975 0.45648 0.0
H2638 H 0.21914 0.30676 0.4623 0.0
C2639 C 0.21015 0.32316 0.42333 0.0
C2640 C 0.21863 0.2941 0.43178 0.0
C2641 C 0.20595 0.32929 0.41396 0.0
C2642 C 0.2377 0.26911 0.4696 0.0
C2643 C 0.23053 0.27476 0.4619 0.0
C2644 C 0.2191 0.30313 0.45382 0.0
C2645 C 0.20847 0.31128 0.42409 0.0
C2646 C 0.21353 0.30468 0.43375 0.0
C2647 C 0.23089 0.28672 0.46098 0.0
C2648 C 0.22439 0.29266 0.45178 0.0
H2649 H 0.19363 0.30727 0.39923 0.0
H2650 H 0.20072 0.29662 0.41569 0.0
H2651 H 0.20972 0.31709 0.44678 0.0
H2652 H 0.2513 0.29225 0.48121 0.0
H2653 H 0.23875 0.30211 0.46784 0.0
C2654 C 0.19035 0.71231 0.4067 0.0
C2655 C 0.19153 0.7007 0.40413 0.0
C2656 C 0.19632 0.71722 0.41586 0.0
C2657 C 0.2116 0.71038 0.44285 0.0
H2658 H 0.22478 0.74062 0.43858 0.0
C2659 C 0.24371 0.73175 0.4748 0.0
C2660 C 0.24317 0.74364 0.47612 0.0
C2661 C 0.23664 0.72614 0.46684 0.0
C2662 C 0.22101 0.73225 0.44 0.0
H2663 H 0.19993 0.68513 0.40932 0.0
H2664 H 0.21055 0.69377 0.42521 0.0
H2665 H 0.21436 0.73158 0.42296 0.0
H2666 H 0.23423 0.7588 0.47073 0.0
H2667 H 0.22178 0.74902 0.45702 0.0
H2668 H 0.21838 0.71108 0.45992 0.0
C2669 C 0.20487 0.69904 0.42018 0.0
C2670 C 0.21504 0.72704 0.43101 0.0
C2671 C 0.19888 0.69412 0.41099 0.0
C2672 C 0.23494 0.74966 0.4698 0.0
C2673 C 0.22787 0.74406 0.46189 0.0
C2674 C 0.2176 0.71561 0.45188 0.0
C2675 C 0.20369 0.71067 0.42271 0.0
C2676 C 0.21021 0.71606 0.43232 0.0
C2677 C 0.22886 0.73228 0.46004 0.0
C2678 C 0.22233 0.72664 0.45058 0.0
H2679 H 0.18488 0.71769 0.40154 0.0
H2680 H 0.1951 0.72617 0.41761 0.0
H2681 H 0.2079 0.70197 0.4442 0.0
H2682 H 0.25005 0.72689 0.47945 0.0
H2683 H 0.23769 0.71708 0.46561 0.0
C2684 C 0.82934 0.70866 0.41365 0.0
C2685 C 0.82351 0.70072 0.40668 0.0
C2686 C 0.82392 0.71357 0.42298 0.0
C2687 C 0.79865 0.71036 0.44207 0.0
H2688 H 0.80432 0.74251 0.44752 0.0
C2689 C 0.7698 0.73834 0.47019 0.0
C2690 C 0.77507 0.74692 0.47681 0.0
C2691 C 0.77626 0.7317 0.46281 0.0
C2692 C 0.80277 0.73349 0.44624 0.0
H2693 H 0.8074 0.69156 0.40431 0.0
H2694 H 0.79783 0.70039 0.42033 0.0
H2695 H 0.81437 0.73306 0.43223 0.0
H2696 H 0.79133 0.75495 0.48121 0.0
H2697 H 0.80263 0.74328 0.46844 0.0
H2698 H 0.78679 0.71094 0.45595 0.0
C2699 C 0.80668 0.7027 0.41869 0.0
C2700 C 0.80854 0.72804 0.43745 0.0
C2701 C 0.81213 0.69774 0.40938 0.0
C2702 C 0.78702 0.74835 0.4763 0.0
C2703 C 0.79348 0.74176 0.46887 0.0
C2704 C 0.79282 0.71583 0.45083 0.0
C2705 C 0.81247 0.71075 0.42557 0.0
C2706 C 0.80653 0.71641 0.4352 0.0
C2707 C 0.78814 0.73354 0.46184 0.0
C2708 C 0.79477 0.72748 0.45299 0.0
H2709 H 0.83806 0.71128 0.41179 0.0
H2710 H 0.82872 0.71961 0.42816 0.0
H2711 H 0.79701 0.70136 0.44072 0.0
H2712 H 0.76061 0.73699 0.47045 0.0
H2713 H 0.77186 0.72549 0.45749 0.0
C2714 C 0.81665 0.32827 0.41682 0.0
C2715 C 0.81829 0.32268 0.40638 0.0
C2716 C 0.81223 0.32236 0.42628 0.0
C2717 C 0.80708 0.29323 0.43803 0.0
H2718 H 0.78416 0.30816 0.45619 0.0
C2719 C 0.78661 0.27091 0.47721 0.0
C2720 C 0.77463 0.27157 0.47788 0.0
C2721 C 0.79274 0.27794 0.46962 0.0
C2722 C 0.79054 0.30386 0.4512 0.0
H2723 H 0.81661 0.30644 0.39776 0.0
H2724 H 0.80889 0.29615 0.41422 0.0
H2725 H 0.79326 0.31846 0.44046 0.0
H2726 H 0.75979 0.28059 0.47162 0.0
H2727 H 0.77042 0.29276 0.45836 0.0
H2728 H 0.80405 0.27849 0.44852 0.0
C2729 C 0.81118 0.30507 0.41516 0.0
C2730 C 0.79585 0.30981 0.44225 0.0
C2731 C 0.81561 0.31098 0.4057 0.0
C2732 C 0.769 0.27982 0.47124 0.0
C2733 C 0.77512 0.28685 0.46369 0.0
C2734 C 0.80177 0.28728 0.447 0.0
C2735 C 0.80933 0.31071 0.42555 0.0
C2736 C 0.80411 0.30454 0.43546 0.0
C2737 C 0.78704 0.28582 0.46257 0.0
C2738 C 0.79333 0.29247 0.45363 0.0
H2739 H 0.81881 0.33723 0.41772 0.0
H2740 H 0.81113 0.32694 0.43419 0.0
H2741 H 0.81349 0.28894 0.43308 0.0
H2742 H 0.7912 0.26459 0.48213 0.0
H2743 H 0.80194 0.27703 0.46911 0.0
C2744 C 0.1062 0.6946 0.70131 0.0
C2745 C 0.11199 0.70076 0.6927 0.0
C2746 C 0.09661 0.69915 0.70666 0.0
C2747 C 0.08347 0.7267 0.71293 0.0
H2748 H 0.05641 0.70859 0.72017 0.0
C2749 C 0.04524 0.74762 0.73425 0.0
C2750 C 0.04012 0.74161 0.74332 0.0
C2751 C 0.05264 0.74216 0.7268 0.0
C2752 C 0.06393 0.71376 0.7183 0.0
H2753 H 0.11184 0.71637 0.68266 0.0
H2754 H 0.09531 0.72434 0.69209 0.0
H2755 H 0.07222 0.69992 0.70996 0.0
H2756 H 0.03827 0.72506 0.75141 0.0
H2757 H 0.05134 0.7155 0.73854 0.0
H2758 H 0.07548 0.74043 0.72148 0.0
C2759 C 0.09827 0.71605 0.69482 0.0
C2760 C 0.07299 0.70877 0.71244 0.0
C2761 C 0.1078 0.71149 0.68944 0.0
C2762 C 0.042 0.72986 0.74439 0.0
C2763 C 0.04952 0.7244 0.73701 0.0
C2764 C 0.07448 0.73165 0.71883 0.0
C2765 C 0.09262 0.71 0.70357 0.0
C2766 C 0.08287 0.7152 0.70968 0.0
C2767 C 0.05525 0.73057 0.72835 0.0
C2768 C 0.06457 0.72527 0.7216 0.0
H2769 H 0.10923 0.68637 0.70414 0.0
H2770 H 0.09252 0.69432 0.71345 0.0
H2771 H 0.09103 0.73185 0.71114 0.0
H2772 H 0.04391 0.75669 0.73323 0.0
H2773 H 0.05662 0.74714 0.72005 0.0
C2774 C 0.83008 0.60699 0.71005 0.0
C2775 C 0.82442 0.61423 0.7023 0.0
C2776 C 0.82446 0.59748 0.71474 0.0
C2777 C 0.79885 0.57847 0.7112 0.0
H2778 H 0.80428 0.572 0.74328 0.0
C2779 C 0.76959 0.54919 0.73893 0.0
C2780 C 0.77483 0.54235 0.74732 0.0
C2781 C 0.77612 0.55682 0.73234 0.0
C2782 C 0.80279 0.57357 0.73427 0.0
H2783 H 0.80841 0.61687 0.69323 0.0
H2784 H 0.79848 0.60052 0.70171 0.0
H2785 H 0.8146 0.58765 0.73409 0.0
H2786 H 0.79109 0.53786 0.75503 0.0
H2787 H 0.80248 0.55106 0.74343 0.0
H2788 H 0.78678 0.56451 0.71153 0.0
C2789 C 0.80735 0.60211 0.70403 0.0
C2790 C 0.80872 0.58256 0.72898 0.0
C2791 C 0.81301 0.6116 0.69928 0.0
C2792 C 0.7868 0.54292 0.74857 0.0
C2793 C 0.79331 0.55059 0.74203 0.0
C2794 C 0.79286 0.5695 0.71652 0.0
C2795 C 0.81298 0.59497 0.71189 0.0
C2796 C 0.80682 0.58516 0.71738 0.0
C2797 C 0.78802 0.55784 0.73404 0.0
C2798 C 0.79474 0.56696 0.72813 0.0
H2799 H 0.83882 0.60879 0.7127 0.0
H2800 H 0.82913 0.5921 0.72064 0.0
H2801 H 0.79728 0.58011 0.70222 0.0
H2802 H 0.76039 0.54889 0.73771 0.0
H2803 H 0.77177 0.56231 0.72629 0.0
C2804 C 0.90743 0.32149 0.70414 0.0
C2805 C 0.9019 0.31541 0.6953 0.0
C2806 C 0.91699 0.317 0.70977 0.0
C2807 C 0.93051 0.28957 0.71629 0.0
H2808 H 0.95723 0.30794 0.72426 0.0
C2809 C 0.96934 0.26885 0.73768 0.0
C2810 C 0.97455 0.27473 0.7468 0.0
C2811 C 0.96161 0.27432 0.73041 0.0
C2812 C 0.94979 0.3027 0.72219 0.0
H2813 H 0.90252 0.30002 0.68516 0.0
H2814 H 0.91901 0.29214 0.69508 0.0
H2815 H 0.94136 0.31657 0.71376 0.0
H2816 H 0.9761 0.29107 0.75518 0.0
H2817 H 0.96244 0.30063 0.74262 0.0
H2818 H 0.93866 0.27579 0.72491 0.0
C2819 C 0.91584 0.30032 0.69777 0.0
C2820 C 0.9407 0.30766 0.71616 0.0
C2821 C 0.90635 0.30483 0.6921 0.0
C2822 C 0.97231 0.28637 0.74814 0.0
C2823 C 0.96446 0.29183 0.74093 0.0
C2824 C 0.93952 0.28464 0.72237 0.0
C2825 C 0.92122 0.30628 0.70674 0.0
C2826 C 0.93096 0.30113 0.71312 0.0
C2827 C 0.95875 0.28579 0.73216 0.0
C2828 C 0.94932 0.29111 0.72539 0.0
H2829 H 0.9042 0.32961 0.70692 0.0
H2830 H 0.92087 0.32176 0.71673 0.0
H2831 H 0.92304 0.28434 0.71428 0.0
H2832 H 0.97099 0.25988 0.73641 0.0
H2833 H 0.95765 0.26946 0.72357 0.0
C2834 C 0.20491 0.40246 0.70375 0.0
C2835 C 0.19313 0.40329 0.70144 0.0
C2836 C 0.21116 0.41181 0.70795 0.0
C2837 C 0.2079 0.43898 0.7233 0.0
H2838 H 0.23907 0.44433 0.71321 0.0
C2839 C 0.23681 0.47603 0.74073 0.0
C2840 C 0.24788 0.47272 0.74398 0.0
C2841 C 0.22965 0.46857 0.73451 0.0
C2842 C 0.23038 0.44294 0.71615 0.0
H2843 H 0.17868 0.41466 0.70178 0.0
H2844 H 0.18963 0.43104 0.70898 0.0
H2845 H 0.22746 0.42937 0.70431 0.0
H2846 H 0.2603 0.45925 0.74284 0.0
H2847 H 0.2479 0.44632 0.73212 0.0
H2848 H 0.21093 0.45248 0.73527 0.0
C2849 C 0.19402 0.42311 0.70761 0.0
C2850 C 0.22373 0.43433 0.71107 0.0
C2851 C 0.18776 0.41375 0.70336 0.0
C2852 C 0.25175 0.46199 0.74061 0.0
C2853 C 0.24468 0.45462 0.73434 0.0
C2854 C 0.21456 0.44762 0.72838 0.0
C2855 C 0.20579 0.42225 0.70997 0.0
C2856 C 0.21249 0.43208 0.71473 0.0
C2857 C 0.23352 0.45776 0.73128 0.0
C2858 C 0.22596 0.44953 0.72503 0.0
H2859 H 0.20935 0.39458 0.70226 0.0
H2860 H 0.22017 0.41078 0.70981 0.0
H2861 H 0.1993 0.43743 0.7264 0.0
H2862 H 0.23362 0.48427 0.74321 0.0
H2863 H 0.22111 0.47127 0.73221 0.0
C2864 C 0.10396 0.30839 0.33375 0.0
C2865 C 0.11288 0.31392 0.32779 0.0
C2866 C 0.09444 0.30393 0.32792 0.0
C2867 C 0.0784 0.30519 0.30055 0.0
H2868 H 0.06845 0.27465 0.30906 0.0
C2869 C 0.04885 0.27707 0.27208 0.0
C2870 C 0.04133 0.26922 0.27737 0.0
C2871 C 0.05643 0.28375 0.27859 0.0
C2872 C 0.07094 0.28327 0.30669 0.0
H2873 H 0.11865 0.31922 0.31098 0.0
H2874 H 0.10199 0.31148 0.30081 0.0
H2875 H 0.0839 0.2839 0.31967 0.0
H2876 H 0.0355 0.26273 0.29376 0.0
H2877 H 0.04838 0.27467 0.3051 0.0
H2878 H 0.06547 0.3045 0.28749 0.0
C2879 C 0.10233 0.31069 0.31003 0.0
C2880 C 0.07985 0.28856 0.31277 0.0
C2881 C 0.11189 0.31513 0.31586 0.0
C2882 C 0.0411 0.26873 0.28937 0.0
C2883 C 0.04863 0.27546 0.29588 0.0
C2884 C 0.06943 0.2999 0.29449 0.0
C2885 C 0.09356 0.30492 0.31598 0.0
C2886 C 0.08375 0.29955 0.30974 0.0
C2887 C 0.05663 0.28281 0.29057 0.0
C2888 C 0.06564 0.28883 0.29743 0.0
H2889 H 0.10432 0.30751 0.34296 0.0
H2890 H 0.08774 0.29971 0.33278 0.0
H2891 H 0.08112 0.31372 0.29809 0.0
H2892 H 0.04915 0.27778 0.26285 0.0
H2893 H 0.06248 0.28928 0.27418 0.0
C2894 C 0.20582 0.60359 0.3315 0.0
C2895 C 0.19959 0.61216 0.32588 0.0
C2896 C 0.21007 0.59435 0.32545 0.0
C2897 C 0.21805 0.58582 0.29623 0.0
H2898 H 0.2193 0.55558 0.30969 0.0
C2899 C 0.23628 0.54822 0.27121 0.0
C2900 C 0.24412 0.54136 0.27715 0.0
C2901 C 0.22944 0.5559 0.27705 0.0
C2902 C 0.21907 0.56399 0.30583 0.0
H2903 H 0.19284 0.61756 0.30945 0.0
H2904 H 0.20004 0.60133 0.29895 0.0
H2905 H 0.21004 0.57088 0.32 0.0
H2906 H 0.25054 0.53688 0.29398 0.0
H2907 H 0.23858 0.55023 0.30418 0.0
H2908 H 0.22719 0.579 0.28214 0.0
C2909 C 0.20178 0.60184 0.30803 0.0
C2910 C 0.21377 0.57278 0.31175 0.0
C2911 C 0.19752 0.6111 0.31408 0.0
C2912 C 0.2445 0.54193 0.28914 0.0
C2913 C 0.23765 0.54962 0.29499 0.0
C2914 C 0.22332 0.57704 0.29031 0.0
C2915 C 0.2082 0.59339 0.31361 0.0
C2916 C 0.21328 0.58385 0.30707 0.0
C2917 C 0.23025 0.55692 0.28899 0.0
C2918 C 0.22399 0.56603 0.29506 0.0
H2919 H 0.20744 0.60402 0.3406 0.0
H2920 H 0.21507 0.58809 0.33003 0.0
H2921 H 0.21802 0.59426 0.29243 0.0
H2922 H 0.23565 0.54787 0.26198 0.0
H2923 H 0.22366 0.56121 0.27217 0.0
C2924 C 0.90834 0.6942 0.32434 0.0
C2925 C 0.89873 0.69168 0.31743 0.0
C2926 C 0.91792 0.69989 0.31978 0.0
C2927 C 0.93198 0.70616 0.29209 0.0
H2928 H 0.94844 0.72956 0.30905 0.0
C2929 C 0.97205 0.72796 0.27322 0.0
C2930 C 0.97252 0.73991 0.27399 0.0
C2931 C 0.96425 0.72159 0.27978 0.0
C2932 C 0.94393 0.72306 0.30419 0.0
H2933 H 0.89152 0.69361 0.30042 0.0
H2934 H 0.90813 0.70354 0.29251 0.0
H2935 H 0.93203 0.71977 0.31772 0.0
H2936 H 0.96572 0.75445 0.28287 0.0
H2937 H 0.95198 0.74339 0.29412 0.0
H2938 H 0.94354 0.70967 0.27842 0.0
C2939 C 0.9084 0.70088 0.30138 0.0
C2940 C 0.93458 0.71736 0.30921 0.0
C2941 C 0.89886 0.6952 0.30593 0.0
C2942 C 0.96548 0.74526 0.28197 0.0
C2943 C 0.95766 0.7389 0.2885 0.0
C2944 C 0.94129 0.71183 0.28709 0.0
C2945 C 0.91812 0.7032 0.3082 0.0
C2946 C 0.9284 0.70894 0.30316 0.0
C2947 C 0.95671 0.72701 0.28725 0.0
C2948 C 0.94734 0.72044 0.29302 0.0
H2949 H 0.90857 0.69152 0.3332 0.0
H2950 H 0.92528 0.70145 0.32525 0.0
H2951 H 0.92754 0.69959 0.28724 0.0
H2952 H 0.97727 0.72354 0.26712 0.0
H2953 H 0.96391 0.71243 0.27875 0.0
C2954 C 0.81449 0.40513 0.32112 0.0
C2955 C 0.82575 0.40257 0.31792 0.0
C2956 C 0.80889 0.41453 0.31638 0.0
C2957 C 0.80984 0.43406 0.29131 0.0
H2958 H 0.78919 0.45211 0.30929 0.0
C2959 C 0.78784 0.47345 0.27204 0.0
C2960 C 0.77599 0.47402 0.27386 0.0
C2961 C 0.79454 0.46585 0.27837 0.0
C2962 C 0.7949 0.44713 0.30415 0.0
H2963 H 0.83988 0.408 0.30715 0.0
H2964 H 0.83029 0.42451 0.2992 0.0
H2965 H 0.79958 0.43653 0.31835 0.0
H2966 H 0.76201 0.46761 0.28426 0.0
H2967 H 0.77366 0.45436 0.29529 0.0
H2968 H 0.80511 0.44459 0.27711 0.0
C2969 C 0.82571 0.41916 0.30525 0.0
C2970 C 0.80083 0.43816 0.30933 0.0
C2971 C 0.83128 0.40975 0.30995 0.0
C2972 C 0.77111 0.46731 0.28261 0.0
C2973 C 0.77781 0.45976 0.28898 0.0
C2974 C 0.80396 0.44304 0.28616 0.0
C2975 C 0.81441 0.42165 0.30833 0.0
C2976 C 0.80833 0.43145 0.30296 0.0
C2977 C 0.78955 0.4587 0.28672 0.0
C2978 C 0.79635 0.44965 0.29248 0.0
H2979 H 0.80999 0.39989 0.32732 0.0
H2980 H 0.80015 0.41609 0.31888 0.0
H2981 H 0.81536 0.42898 0.28606 0.0
H2982 H 0.79185 0.47843 0.26531 0.0
H2983 H 0.80359 0.46538 0.27653 0.0
C2984 C 0.19989 0.60818 0.69912 0.0
C2985 C 0.19108 0.61348 0.70516 0.0
C2986 C 0.20555 0.59877 0.70377 0.0
C2987 C 0.21219 0.58521 0.73146 0.0
H2988 H 0.21994 0.55895 0.71331 0.0
C2989 C 0.23349 0.54654 0.75249 0.0
C2990 C 0.24253 0.54155 0.74657 0.0
C2991 C 0.22627 0.55427 0.747 0.0
C2992 C 0.21794 0.56626 0.71848 0.0
H2993 H 0.18106 0.61262 0.72069 0.0
H2994 H 0.19103 0.5964 0.72884 0.0
H2995 H 0.20945 0.57464 0.70453 0.0
H2996 H 0.25084 0.54043 0.73016 0.0
H2997 H 0.23837 0.55405 0.72058 0.0
H2998 H 0.22086 0.57708 0.74533 0.0
C2999 C 0.19367 0.59963 0.72056 0.0
C3000 C 0.21192 0.57525 0.71344 0.0
C3001 C 0.18797 0.60897 0.71589 0.0
C3002 C 0.24386 0.54404 0.7349 0.0
C3003 C 0.2367 0.55187 0.72942 0.0
C3004 C 0.21826 0.57629 0.73647 0.0
C3005 C 0.20259 0.59446 0.71461 0.0
C3006 C 0.20896 0.58483 0.71988 0.0
C3007 C 0.22799 0.55733 0.73548 0.0
C3008 C 0.22122 0.56666 0.73008 0.0
H3009 H 0.20261 0.61147 0.6909 0.0
H3010 H 0.21247 0.59506 0.69902 0.0
H3011 H 0.21024 0.59254 0.73662 0.0
H3012 H 0.23221 0.54471 0.76147 0.0
H3013 H 0.21949 0.55804 0.75188 0.0
C3014 C 0.1986 0.40714 0.32093 0.0
C3015 C 0.19036 0.40095 0.31458 0.0
C3016 C 0.20416 0.41669 0.3162 0.0
C3017 C 0.21217 0.42926 0.28856 0.0
H3018 H 0.21736 0.45696 0.30583 0.0
C3019 C 0.23464 0.46797 0.26786 0.0
C3020 C 0.2429 0.47373 0.27453 0.0
C3021 C 0.22701 0.46016 0.27288 0.0
C3022 C 0.21608 0.44926 0.30091 0.0
H3023 H 0.18126 0.40029 0.29835 0.0
H3024 H 0.19112 0.41677 0.29006 0.0
H3025 H 0.20669 0.44106 0.31442 0.0
H3026 H 0.24941 0.47612 0.29172 0.0
H3027 H 0.23626 0.46235 0.30049 0.0
H3028 H 0.2218 0.43719 0.27519 0.0
C3029 C 0.19335 0.41415 0.29867 0.0
C3030 C 0.20995 0.44016 0.30584 0.0
C3031 C 0.18774 0.40466 0.30342 0.0
C3032 C 0.24303 0.47191 0.2864 0.0
C3033 C 0.23548 0.464 0.29141 0.0
C3034 C 0.21837 0.4383 0.28367 0.0
C3035 C 0.20167 0.42024 0.30497 0.0
C3036 C 0.20795 0.43004 0.29972 0.0
C3037 C 0.22756 0.4578 0.28468 0.0
C3038 C 0.22045 0.44842 0.28978 0.0
H3039 H 0.20097 0.40446 0.32948 0.0
H3040 H 0.21063 0.42112 0.32122 0.0
H3041 H 0.21093 0.42151 0.28368 0.0
H3042 H 0.23429 0.46929 0.2587 0.0
H3043 H 0.22085 0.45578 0.26745 0.0
C3044 C 0.10444 0.68345 0.30986 0.0
C3045 C 0.11205 0.68909 0.31737 0.0
C3046 C 0.09502 0.68908 0.30517 0.0
C3047 C 0.07696 0.71476 0.30852 0.0
H3048 H 0.06939 0.70904 0.27675 0.0
C3049 C 0.0479 0.7439 0.28097 0.0
C3050 C 0.04061 0.73873 0.27285 0.0
C3051 C 0.05552 0.73737 0.28745 0.0
C3052 C 0.07126 0.71062 0.28568 0.0
H3053 H 0.11547 0.7051 0.32602 0.0
H3054 H 0.0993 0.71502 0.31757 0.0
H3055 H 0.08493 0.69873 0.28581 0.0
H3056 H 0.0353 0.72256 0.2655 0.0
H3057 H 0.04848 0.71116 0.27691 0.0
H3058 H 0.06342 0.7269 0.30822 0.0
C3059 C 0.10051 0.70616 0.31542 0.0
C3060 C 0.0802 0.70469 0.2909 0.0
C3061 C 0.1099 0.7005 0.32015 0.0
C3062 C 0.04072 0.72681 0.27175 0.0
C3063 C 0.04839 0.72029 0.27819 0.0
C3064 C 0.06805 0.72075 0.30326 0.0
C3065 C 0.09297 0.70055 0.3078 0.0
C3066 C 0.08321 0.7067 0.30238 0.0
C3067 C 0.05607 0.72552 0.28592 0.0
C3068 C 0.06512 0.71878 0.29177 0.0
H3069 H 0.10586 0.67471 0.30738 0.0
H3070 H 0.08934 0.68442 0.29947 0.0
H3071 H 0.0789 0.71641 0.31741 0.0
H3072 H 0.04797 0.75306 0.28205 0.0
H3073 H 0.06135 0.74169 0.29328 0.0
C3074 C 0.81979 0.60536 0.32207 0.0
C3075 C 0.81246 0.61195 0.32875 0.0
C3076 C 0.81559 0.59582 0.31615 0.0
C3077 C 0.79117 0.57519 0.3153 0.0
H3078 H 0.80065 0.57044 0.28405 0.0
C3079 C 0.76613 0.54618 0.28394 0.0
C3080 C 0.77216 0.54023 0.27558 0.0
C3081 C 0.77186 0.55365 0.29137 0.0
C3082 C 0.79806 0.5715 0.29284 0.0
H3083 H 0.79488 0.61372 0.33421 0.0
H3084 H 0.78758 0.59713 0.32395 0.0
H3085 H 0.80906 0.58611 0.29498 0.0
H3086 H 0.78904 0.53706 0.26885 0.0
H3087 H 0.79909 0.54992 0.28199 0.0
H3088 H 0.78004 0.56068 0.31311 0.0
C3089 C 0.79663 0.59921 0.32345 0.0
C3090 C 0.80287 0.58052 0.2991 0.0
C3091 C 0.80082 0.60874 0.32933 0.0
C3092 C 0.78415 0.54146 0.27523 0.0
C3093 C 0.78989 0.54895 0.28267 0.0
C3094 C 0.78637 0.56617 0.30904 0.0
C3095 C 0.80395 0.59261 0.31678 0.0
C3096 C 0.79937 0.58258 0.31036 0.0
C3097 C 0.78378 0.55535 0.29065 0.0
C3098 C 0.78963 0.56429 0.29768 0.0
H3099 H 0.82883 0.60747 0.32154 0.0
H3100 H 0.82149 0.59087 0.3112 0.0
H3101 H 0.78843 0.5764 0.32402 0.0
H3102 H 0.7569 0.54536 0.28448 0.0
H3103 H 0.76685 0.55847 0.29734 0.0
C3104 C 0.90097 0.30681 0.3162 0.0
C3105 C 0.90293 0.31473 0.32498 0.0
C3106 C 0.91012 0.30213 0.31029 0.0
C3107 C 0.94149 0.29739 0.31247 0.0
H3108 H 0.93801 0.29034 0.28033 0.0
C3109 C 0.97239 0.2678 0.28853 0.0
C3110 C 0.97419 0.26966 0.27681 0.0
C3111 C 0.96466 0.27447 0.29454 0.0
C3112 C 0.93924 0.29239 0.28927 0.0
H3113 H 0.91609 0.32413 0.33425 0.0
H3114 H 0.93207 0.31613 0.32383 0.0
H3115 H 0.92269 0.29983 0.29022 0.0
H3116 H 0.96985 0.28041 0.26237 0.0
H3117 H 0.95665 0.29228 0.27289 0.0
H3118 H 0.95816 0.29015 0.31143 0.0
C3119 C 0.92345 0.31333 0.32166 0.0
C3120 C 0.93034 0.29769 0.295 0.0
C3121 C 0.91429 0.31795 0.32763 0.0
C3122 C 0.96856 0.27872 0.27138 0.0
C3123 C 0.96092 0.28545 0.2774 0.0
C3124 C 0.95044 0.29214 0.30671 0.0
C3125 C 0.92151 0.30531 0.31294 0.0
C3126 C 0.93126 0.30015 0.30672 0.0
C3127 C 0.95859 0.28321 0.28899 0.0
C3128 C 0.9494 0.28946 0.29504 0.0
H3129 H 0.89234 0.30401 0.31406 0.0
H3130 H 0.90826 0.29583 0.3038 0.0
H3131 H 0.94251 0.29904 0.32151 0.0
H3132 H 0.97648 0.26079 0.29292 0.0
H3133 H 0.96304 0.27238 0.30341 0.0
C3134 C 0.81935 0.40242 0.7167 0.0
C3135 C 0.82301 0.40231 0.70529 0.0
C3136 C 0.81377 0.41186 0.7211 0.0
C3137 C 0.79777 0.4377 0.71278 0.0
H3138 H 0.80498 0.44666 0.74386 0.0
C3139 C 0.7696 0.46798 0.73904 0.0
C3140 C 0.77486 0.47504 0.74728 0.0
C3141 C 0.77604 0.46031 0.73274 0.0
C3142 C 0.80296 0.44441 0.73511 0.0
H3143 H 0.82354 0.41208 0.68952 0.0
H3144 H 0.8138 0.42861 0.6972 0.0
H3145 H 0.81504 0.43091 0.73533 0.0
H3146 H 0.79117 0.47996 0.75487 0.0
H3147 H 0.80244 0.46686 0.74365 0.0
H3148 H 0.78575 0.45131 0.71256 0.0
C3149 C 0.81516 0.42131 0.70273 0.0
C3150 C 0.80862 0.43524 0.73027 0.0
C3151 C 0.82075 0.41183 0.69832 0.0
C3152 C 0.78683 0.47472 0.74856 0.0
C3153 C 0.79328 0.46707 0.74223 0.0
C3154 C 0.7921 0.44691 0.71763 0.0
C3155 C 0.81169 0.42149 0.71421 0.0
C3156 C 0.80601 0.43165 0.71909 0.0
C3157 C 0.78793 0.45952 0.73449 0.0
C3158 C 0.79454 0.45031 0.72891 0.0
H3159 H 0.82074 0.39514 0.72226 0.0
H3160 H 0.81099 0.41156 0.7299 0.0
H3161 H 0.79549 0.43515 0.70418 0.0
H3162 H 0.76041 0.46809 0.73774 0.0
H3163 H 0.77159 0.45462 0.7269 0.0
C3164 C 0.11242 0.31504 0.70556 0.0
C3165 C 0.1115 0.31749 0.69382 0.0
C3166 C 0.10302 0.3107 0.71162 0.0
C3167 C 0.0754 0.29534 0.70739 0.0
H3168 H 0.07027 0.30418 0.73877 0.0
C3169 C 0.04674 0.26924 0.73828 0.0
C3170 C 0.04058 0.275 0.74668 0.0
C3171 C 0.05416 0.27519 0.73097 0.0
C3172 C 0.07146 0.30172 0.72996 0.0
H3173 H 0.0998 0.31764 0.67934 0.0
H3174 H 0.0834 0.31012 0.68991 0.0
H3175 H 0.0856 0.31336 0.72794 0.0
H3176 H 0.03701 0.29164 0.75362 0.0
H3177 H 0.04975 0.30208 0.74069 0.0
H3178 H 0.06122 0.28374 0.7094 0.0
C3179 C 0.09146 0.31135 0.6944 0.0
C3180 C 0.08038 0.30688 0.7238 0.0
C3181 C 0.10087 0.31567 0.68834 0.0
C3182 C 0.04156 0.28694 0.7472 0.0
C3183 C 0.04899 0.29291 0.73989 0.0
C3184 C 0.06649 0.29018 0.71356 0.0
C3185 C 0.09243 0.30872 0.7061 0.0
C3186 C 0.08255 0.30367 0.71247 0.0
C3187 C 0.0556 0.28708 0.73187 0.0
C3188 C 0.06448 0.2932 0.72497 0.0
H3189 H 0.12051 0.31619 0.71001 0.0
H3190 H 0.10414 0.30861 0.72057 0.0
H3191 H 0.07687 0.29258 0.69873 0.0
H3192 H 0.0461 0.26005 0.73759 0.0
H3193 H 0.05914 0.27039 0.72497 0.0
C3194 C 0.89979 0.71165 0.70328 0.0
C3195 C 0.90118 0.70453 0.69381 0.0
C3196 C 0.9093 0.71633 0.70895 0.0
C3197 C 0.94072 0.71339 0.7129 0.0
H3198 H 0.93841 0.74424 0.72416 0.0
C3199 C 0.96942 0.75162 0.73635 0.0
C3200 C 0.97505 0.74514 0.74474 0.0
C3201 C 0.96154 0.74648 0.72889 0.0
C3202 C 0.93931 0.73568 0.72093 0.0
H3203 H 0.91369 0.69673 0.68287 0.0
H3204 H 0.93032 0.70503 0.69267 0.0
H3205 H 0.92247 0.73574 0.71371 0.0
H3206 H 0.97717 0.72812 0.75161 0.0
H3207 H 0.96329 0.71913 0.73873 0.0
H3208 H 0.9577 0.71345 0.71994 0.0
C3209 C 0.92187 0.70684 0.69585 0.0
C3210 C 0.93006 0.73072 0.71509 0.0
C3211 C 0.91234 0.70209 0.69022 0.0
C3212 C 0.97306 0.73331 0.74514 0.0
C3213 C 0.96508 0.72816 0.73774 0.0
C3214 C 0.95003 0.71838 0.7187 0.0
C3215 C 0.92048 0.71411 0.70525 0.0
C3216 C 0.93057 0.71946 0.7111 0.0
C3217 C 0.95898 0.73474 0.72972 0.0
C3218 C 0.94942 0.72957 0.72288 0.0
H3219 H 0.89132 0.71354 0.70638 0.0
H3220 H 0.90788 0.72166 0.71631 0.0
H3221 H 0.94141 0.70468 0.71002 0.0
H3222 H 0.97087 0.76075 0.7358 0.0
H3223 H 0.95724 0.75177 0.72264 0.0
C3224 C 0.70618 0.18599 0.60904 0.0
C3225 C 0.69945 0.19139 0.61726 0.0
C3226 C 0.71038 0.19204 0.59957 0.0
C3227 C 0.71705 0.22145 0.5898 0.0
H3228 H 0.71985 0.20721 0.56018 0.0
C3229 C 0.73482 0.24662 0.55133 0.0
C3230 C 0.74326 0.24116 0.54495 0.0
C3231 C 0.72806 0.24048 0.55911 0.0
C3232 C 0.71917 0.21129 0.56841 0.0
H3233 H 0.69178 0.20744 0.62181 0.0
H3234 H 0.69886 0.2179 0.60519 0.0
H3235 H 0.71076 0.19671 0.57584 0.0
H3236 H 0.75081 0.22482 0.54138 0.0
H3237 H 0.73898 0.21409 0.5549 0.0
H3238 H 0.72556 0.23597 0.58244 0.0
C3239 C 0.70104 0.209 0.60615 0.0
C3240 C 0.71398 0.20527 0.57741 0.0
C3241 C 0.69685 0.20296 0.61563 0.0
C3242 C 0.74431 0.22928 0.54605 0.0
C3243 C 0.73754 0.22312 0.55384 0.0
C3244 C 0.7222 0.22748 0.58081 0.0
C3245 C 0.70795 0.20365 0.59804 0.0
C3246 C 0.71294 0.21023 0.58826 0.0
C3247 C 0.72956 0.22871 0.56071 0.0
C3248 C 0.72341 0.22245 0.57002 0.0
H3249 H 0.70823 0.17706 0.60991 0.0
H3250 H 0.71576 0.18765 0.5936 0.0
H3251 H 0.7166 0.2255 0.59807 0.0
H3252 H 0.73368 0.25574 0.55056 0.0
H3253 H 0.72183 0.24501 0.56407 0.0
C3254 C 0.31193 0.1864 0.60347 0.0
C3255 C 0.31444 0.1919 0.61385 0.0
C3256 C 0.30762 0.19251 0.59413 0.0
C3257 C 0.30467 0.22186 0.58258 0.0
H3258 H 0.28002 0.20835 0.56462 0.0
C3259 C 0.28535 0.24567 0.544 0.0
C3260 C 0.27333 0.24572 0.5434 0.0
C3261 C 0.29099 0.23816 0.55138 0.0
C3262 C 0.28688 0.21226 0.56955 0.0
H3263 H 0.31432 0.20815 0.62254 0.0
H3264 H 0.30676 0.2188 0.60629 0.0
H3265 H 0.2886 0.19747 0.58019 0.0
H3266 H 0.25784 0.23742 0.54958 0.0
H3267 H 0.26763 0.22447 0.56258 0.0
H3268 H 0.30267 0.23679 0.57224 0.0
C3269 C 0.30831 0.20979 0.60529 0.0
C3270 C 0.29189 0.20597 0.57842 0.0
C3271 C 0.31264 0.20368 0.61462 0.0
C3272 C 0.26711 0.23768 0.54992 0.0
C3273 C 0.27274 0.23018 0.55731 0.0
C3274 C 0.29966 0.22814 0.57373 0.0
C3275 C 0.3057 0.20427 0.59494 0.0
C3276 C 0.30076 0.21074 0.58513 0.0
C3277 C 0.28474 0.23052 0.55835 0.0
C3278 C 0.29062 0.22347 0.56717 0.0
H3279 H 0.31339 0.17736 0.60253 0.0
H3280 H 0.30588 0.18802 0.58624 0.0
H3281 H 0.31158 0.22574 0.58746 0.0
H3282 H 0.29042 0.2518 0.53918 0.0
H3283 H 0.30025 0.23852 0.55183 0.0
C3284 C 0.31235 0.81245 0.61656 0.0
C3285 C 0.31522 0.82412 0.61593 0.0
C3286 C 0.30799 0.80669 0.60701 0.0
C3287 C 0.29314 0.81158 0.57946 0.0
H3288 H 0.30191 0.78046 0.57351 0.0
C3289 C 0.26708 0.78119 0.5501 0.0
C3290 C 0.27293 0.77309 0.54366 0.0
C3291 C 0.273 0.78837 0.55768 0.0
C3292 C 0.29947 0.7892 0.57494 0.0
H3293 H 0.31573 0.83887 0.60467 0.0
H3294 H 0.30827 0.82878 0.58796 0.0
H3295 H 0.31098 0.79089 0.58917 0.0
H3296 H 0.2897 0.76655 0.53978 0.0
H3297 H 0.30008 0.77923 0.55285 0.0
H3298 H 0.28162 0.80987 0.56522 0.0
C3299 C 0.30931 0.8241 0.59589 0.0
C3300 C 0.30456 0.79513 0.58402 0.0
C3301 C 0.31371 0.82986 0.60544 0.0
C3302 C 0.28493 0.77275 0.54454 0.0
C3303 C 0.29086 0.77991 0.55215 0.0
C3304 C 0.28802 0.80563 0.57038 0.0
C3305 C 0.30636 0.81245 0.59655 0.0
C3306 C 0.30137 0.80635 0.58649 0.0
C3307 C 0.28494 0.78763 0.55902 0.0
C3308 C 0.29102 0.79431 0.56808 0.0
H3309 H 0.3135 0.80773 0.62445 0.0
H3310 H 0.30569 0.79775 0.60788 0.0
H3311 H 0.29041 0.82018 0.58115 0.0
H3312 H 0.25784 0.78173 0.54956 0.0
H3313 H 0.26813 0.79414 0.56286 0.0
C3314 C 0.69622 0.81185 0.61371 0.0
C3315 C 0.69877 0.82352 0.61511 0.0
C3316 C 0.70042 0.80591 0.60434 0.0
C3317 C 0.71317 0.81 0.57548 0.0
H3318 H 0.72516 0.77985 0.58102 0.0
C3319 C 0.74379 0.78734 0.54453 0.0
C3320 C 0.74289 0.77542 0.54356 0.0
C3321 C 0.73694 0.79318 0.55225 0.0
C3322 C 0.72168 0.78818 0.57926 0.0
H3323 H 0.70744 0.83814 0.60747 0.0
H3324 H 0.71499 0.82774 0.59134 0.0
H3325 H 0.71612 0.79 0.5965 0.0
H3326 H 0.73352 0.7604 0.54936 0.0
H3327 H 0.72155 0.77058 0.56277 0.0
H3328 H 0.71899 0.80824 0.55827 0.0
C3329 C 0.70965 0.82319 0.59742 0.0
C3330 C 0.71649 0.79402 0.58816 0.0
C3331 C 0.70545 0.82912 0.60678 0.0
C3332 C 0.73454 0.76956 0.55003 0.0
C3333 C 0.72771 0.77539 0.55774 0.0
C3334 C 0.7184 0.80417 0.56657 0.0
C3335 C 0.70727 0.81148 0.59611 0.0
C3336 C 0.71225 0.80505 0.58643 0.0
C3337 C 0.72904 0.78723 0.55918 0.0
C3338 C 0.7228 0.79321 0.56838 0.0
H3339 H 0.69119 0.80723 0.61999 0.0
H3340 H 0.69829 0.79694 0.60354 0.0
H3341 H 0.70983 0.81841 0.57378 0.0
H3342 H 0.75022 0.7921 0.5398 0.0
H3343 H 0.73826 0.80228 0.55319 0.0
C3344 C 0.69699 0.81296 0.40557 0.0
C3345 C 0.69894 0.8248 0.40479 0.0
C3346 C 0.70121 0.80672 0.41486 0.0
C3347 C 0.71279 0.80974 0.44441 0.0
H3348 H 0.72683 0.78078 0.43806 0.0
C3349 C 0.74398 0.78727 0.47557 0.0
C3350 C 0.74384 0.77529 0.476 0.0
C3351 C 0.73695 0.79309 0.46784 0.0
C3352 C 0.72277 0.78876 0.44004 0.0
H3353 H 0.70658 0.83938 0.41342 0.0
H3354 H 0.71419 0.82847 0.42945 0.0
H3355 H 0.71764 0.7913 0.42265 0.0
H3356 H 0.73565 0.76007 0.46917 0.0
H3357 H 0.72336 0.77022 0.45571 0.0
H3358 H 0.71818 0.80727 0.46178 0.0
C3359 C 0.70928 0.82401 0.42293 0.0
C3360 C 0.7175 0.79481 0.43118 0.0
C3361 C 0.70505 0.83025 0.41365 0.0
C3362 C 0.73608 0.7693 0.46893 0.0
C3363 C 0.72906 0.77511 0.4612 0.0
C3364 C 0.7181 0.80369 0.45328 0.0
C3365 C 0.7075 0.81215 0.42362 0.0
C3366 C 0.71254 0.80544 0.43322 0.0
C3367 C 0.72963 0.78707 0.46035 0.0
C3368 C 0.72324 0.79317 0.45117 0.0
H3369 H 0.6924 0.80845 0.39887 0.0
H3370 H 0.69956 0.79761 0.41517 0.0
H3371 H 0.70889 0.81781 0.44634 0.0
H3372 H 0.74996 0.79216 0.48077 0.0
H3373 H 0.73769 0.80229 0.46735 0.0
C3374 C 0.68949 0.21037 0.40951 0.0
C3375 C 0.69085 0.19883 0.40673 0.0
C3376 C 0.6956 0.21527 0.41859 0.0
C3377 C 0.71171 0.20849 0.44508 0.0
H3378 H 0.72446 0.23887 0.44061 0.0
C3379 C 0.74431 0.23002 0.47643 0.0
C3380 C 0.74377 0.2419 0.47774 0.0
C3381 C 0.73711 0.22438 0.4686 0.0
C3382 C 0.72081 0.23046 0.4421 0.0
H3383 H 0.69968 0.18337 0.41148 0.0
H3384 H 0.7105 0.192 0.42726 0.0
H3385 H 0.71371 0.2298 0.42524 0.0
H3386 H 0.73472 0.25704 0.47249 0.0
H3387 H 0.72202 0.24722 0.45905 0.0
H3388 H 0.71891 0.20917 0.46198 0.0
C3389 C 0.7046 0.19722 0.42245 0.0
C3390 C 0.71466 0.22523 0.43325 0.0
C3391 C 0.69849 0.1923 0.41332 0.0
C3392 C 0.73543 0.2479 0.47156 0.0
C3393 C 0.72821 0.24227 0.4638 0.0
C3394 C 0.71788 0.21374 0.45398 0.0
C3395 C 0.70327 0.20879 0.42515 0.0
C3396 C 0.70998 0.2142 0.43462 0.0
C3397 C 0.72919 0.23049 0.46194 0.0
C3398 C 0.72247 0.22482 0.45262 0.0
H3399 H 0.6838 0.2157 0.40456 0.0
H3400 H 0.69426 0.22417 0.42049 0.0
H3401 H 0.70813 0.20002 0.44647 0.0
H3402 H 0.75074 0.22518 0.48099 0.0
H3403 H 0.73816 0.21532 0.46737 0.0
C3404 C 0.31521 0.19934 0.40928 0.0
C3405 C 0.32652 0.20259 0.40658 0.0
C3406 C 0.30961 0.20421 0.41855 0.0
C3407 C 0.31082 0.22963 0.43725 0.0
H3408 H 0.28966 0.21197 0.45591 0.0
C3409 C 0.28919 0.2493 0.47635 0.0
C3410 C 0.27727 0.24759 0.47699 0.0
C3411 C 0.29572 0.24289 0.46884 0.0
C3412 C 0.29551 0.21702 0.45075 0.0
H3413 H 0.34077 0.21359 0.41162 0.0
H3414 H 0.33119 0.22175 0.42793 0.0
H3415 H 0.30002 0.20266 0.4406 0.0
H3416 H 0.26298 0.23735 0.47075 0.0
H3417 H 0.27437 0.22616 0.45763 0.0
H3418 H 0.3063 0.24398 0.44736 0.0
C3419 C 0.32655 0.21556 0.42278 0.0
C3420 C 0.30143 0.2117 0.44194 0.0
C3421 C 0.33212 0.21074 0.41349 0.0
C3422 C 0.27214 0.23891 0.47039 0.0
C3423 C 0.27868 0.23246 0.46293 0.0
C3424 C 0.30497 0.23492 0.44609 0.0
C3425 C 0.31519 0.21244 0.42539 0.0
C3426 C 0.30911 0.21796 0.43502 0.0
C3427 C 0.2905 0.23458 0.46184 0.0
C3428 C 0.29719 0.2287 0.4529 0.0
H3429 H 0.31066 0.19299 0.40426 0.0
H3430 H 0.30083 0.20166 0.42021 0.0
H3431 H 0.31648 0.23479 0.43199 0.0
H3432 H 0.2934 0.25599 0.48124 0.0
H3433 H 0.30483 0.24463 0.46831 0.0
C3434 C 0.31632 0.82981 0.41574 0.0
C3435 C 0.31803 0.82415 0.40535 0.0
C3436 C 0.31185 0.82397 0.42521 0.0
C3437 C 0.30668 0.79489 0.43711 0.0
H3438 H 0.28374 0.80991 0.45516 0.0
C3439 C 0.28599 0.77259 0.47617 0.0
C3440 C 0.27401 0.7733 0.4768 0.0
C3441 C 0.29218 0.77963 0.46864 0.0
C3442 C 0.29012 0.80558 0.45021 0.0
H3443 H 0.3164 0.80784 0.39684 0.0
H3444 H 0.30859 0.79767 0.41332 0.0
H3445 H 0.29289 0.82015 0.43942 0.0
H3446 H 0.25923 0.78242 0.47053 0.0
H3447 H 0.26996 0.7946 0.45736 0.0
H3448 H 0.3036 0.78019 0.44763 0.0
C3449 C 0.31087 0.80661 0.41422 0.0
C3450 C 0.29547 0.8115 0.44124 0.0
C3451 C 0.31535 0.81244 0.40474 0.0
C3452 C 0.26844 0.78161 0.47018 0.0
C3453 C 0.27462 0.78865 0.46268 0.0
C3454 C 0.30133 0.78898 0.44608 0.0
C3455 C 0.30897 0.81231 0.42455 0.0
C3456 C 0.30373 0.80619 0.43449 0.0
C3457 C 0.28654 0.78757 0.4616 0.0
C3458 C 0.29288 0.7942 0.45267 0.0
H3459 H 0.31847 0.83878 0.41657 0.0
H3460 H 0.31071 0.82861 0.43308 0.0
H3461 H 0.3131 0.79057 0.4322 0.0
H3462 H 0.29053 0.76622 0.48107 0.0
H3463 H 0.30137 0.77869 0.46816 0.0
C3464 C 0.60581 0.19313 0.70148 0.0
C3465 C 0.6129 0.20026 0.69479 0.0
C3466 C 0.59638 0.19754 0.70722 0.0
C3467 C 0.57704 0.2224 0.70738 0.0
H3468 H 0.57077 0.21277 0.73847 0.0
C3469 C 0.54831 0.24773 0.73771 0.0
C3470 C 0.54154 0.24177 0.74571 0.0
C3471 C 0.55583 0.24195 0.73064 0.0
C3472 C 0.57227 0.21543 0.72973 0.0
H3473 H 0.61573 0.21773 0.68916 0.0
H3474 H 0.59937 0.22537 0.69911 0.0
H3475 H 0.58634 0.20409 0.72804 0.0
H3476 H 0.53707 0.22497 0.75223 0.0
H3477 H 0.55007 0.21482 0.73973 0.0
H3478 H 0.56309 0.23387 0.70913 0.0
C3479 C 0.60093 0.21632 0.69975 0.0
C3480 C 0.58122 0.21045 0.72374 0.0
C3481 C 0.61034 0.21192 0.69404 0.0
C3482 C 0.54209 0.22981 0.7461 0.0
C3483 C 0.54966 0.22401 0.73904 0.0
C3484 C 0.5681 0.22738 0.71336 0.0
C3485 C 0.5938 0.20919 0.7064 0.0
C3486 C 0.58383 0.21398 0.71255 0.0
C3487 C 0.5568 0.23003 0.73138 0.0
C3488 C 0.56568 0.22407 0.72467 0.0
H3489 H 0.60743 0.18409 0.70214 0.0
H3490 H 0.59101 0.19177 0.71216 0.0
H3491 H 0.57865 0.22518 0.69869 0.0
H3492 H 0.54803 0.25694 0.73716 0.0
H3493 H 0.56123 0.24689 0.72492 0.0
C3494 C 0.31453 0.11354 0.70737 0.0
C3495 C 0.32315 0.11221 0.69921 0.0
C3496 C 0.30856 0.10406 0.71169 0.0
C3497 C 0.31023 0.07259 0.71483 0.0
H3498 H 0.27844 0.07573 0.72326 0.0
C3499 C 0.28714 0.04141 0.74568 0.0
C3500 C 0.2752 0.0401 0.7449 0.0
C3501 C 0.29298 0.04886 0.73829 0.0
C3502 C 0.28725 0.07457 0.72078 0.0
H3503 H 0.33213 0.09992 0.68902 0.0
H3504 H 0.32153 0.08336 0.69637 0.0
H3505 H 0.28831 0.0914 0.71378 0.0
H3506 H 0.26009 0.04483 0.7353 0.0
H3507 H 0.2703 0.05744 0.72205 0.0
H3508 H 0.30907 0.05563 0.72161 0.0
C3509 C 0.31955 0.0917 0.69964 0.0
C3510 C 0.29299 0.08369 0.7155 0.0
C3511 C 0.32561 0.10119 0.69539 0.0
C3512 C 0.26931 0.04574 0.7361 0.0
C3513 C 0.27516 0.05306 0.7286 0.0
C3514 C 0.30444 0.06341 0.72001 0.0
C3515 C 0.31096 0.093 0.70788 0.0
C3516 C 0.30463 0.08292 0.71266 0.0
C3517 C 0.28701 0.05508 0.72988 0.0
C3518 C 0.29292 0.06434 0.72325 0.0
H3519 H 0.31257 0.1219 0.71061 0.0
H3520 H 0.30221 0.10542 0.71821 0.0
H3521 H 0.31921 0.07168 0.71284 0.0
H3522 H 0.29187 0.03729 0.75249 0.0
H3523 H 0.30207 0.05024 0.73966 0.0
C3524 C 0.40607 0.80388 0.69234 0.0
C3525 C 0.40185 0.81456 0.69551 0.0
C3526 C 0.41554 0.79924 0.69794 0.0
C3527 C 0.44069 0.80629 0.71607 0.0
H3528 H 0.43833 0.77443 0.72481 0.0
C3529 C 0.47229 0.78451 0.74773 0.0
C3530 C 0.47438 0.77285 0.7463 0.0
C3531 C 0.46445 0.79011 0.7406 0.0
C3532 C 0.43927 0.78328 0.72226 0.0
H3533 H 0.40449 0.82878 0.70704 0.0
H3534 H 0.42111 0.8207 0.71674 0.0
H3535 H 0.42271 0.78319 0.71436 0.0
H3536 H 0.47059 0.75811 0.73585 0.0
H3537 H 0.45727 0.7679 0.72316 0.0
H3538 H 0.45729 0.80635 0.724 0.0
C3539 C 0.41708 0.81596 0.70985 0.0
C3540 C 0.43026 0.78832 0.71629 0.0
C3541 C 0.40755 0.8206 0.70428 0.0
C3542 C 0.46906 0.76708 0.73718 0.0
C3543 C 0.46134 0.77268 0.73 0.0
C3544 C 0.44977 0.80121 0.722 0.0
C3545 C 0.4211 0.80516 0.70683 0.0
C3546 C 0.43083 0.79988 0.71312 0.0
C3547 C 0.45861 0.78417 0.73184 0.0
C3548 C 0.44918 0.78963 0.72518 0.0
H3549 H 0.4021 0.7991 0.68545 0.0
H3550 H 0.41854 0.791 0.69525 0.0
H3551 H 0.44144 0.81519 0.71366 0.0
H3552 H 0.47617 0.78913 0.75477 0.0
H3553 H 0.46254 0.79892 0.74235 0.0
C3554 C 0.70047 0.90553 0.69895 0.0
C3555 C 0.68925 0.90258 0.70226 0.0
C3556 C 0.7062 0.91493 0.70378 0.0
C3557 C 0.70568 0.93358 0.72924 0.0
H3558 H 0.72628 0.95274 0.71143 0.0
C3559 C 0.72784 0.97298 0.74901 0.0
C3560 C 0.7397 0.97392 0.74723 0.0
C3561 C 0.72111 0.96541 0.74254 0.0
C3562 C 0.72059 0.94744 0.71652 0.0
H3563 H 0.67529 0.90732 0.71331 0.0
H3564 H 0.68508 0.92383 0.72141 0.0
H3565 H 0.71569 0.9372 0.70216 0.0
H3566 H 0.75368 0.96816 0.73677 0.0
H3567 H 0.74196 0.95492 0.7255 0.0
H3568 H 0.7106 0.94376 0.7436 0.0
C3569 C 0.68956 0.91879 0.71521 0.0
C3570 C 0.71454 0.9385 0.71122 0.0
C3571 C 0.68386 0.90938 0.71043 0.0
C3572 C 0.74457 0.96758 0.7384 0.0
C3573 C 0.73784 0.96004 0.73189 0.0
C3574 C 0.71167 0.94254 0.73451 0.0
C3575 C 0.70084 0.92165 0.71203 0.0
C3576 C 0.70706 0.9314 0.71753 0.0
C3577 C 0.72609 0.95862 0.73411 0.0
C3578 C 0.71925 0.94955 0.72824 0.0
H3579 H 0.70486 0.9006 0.69259 0.0
H3580 H 0.71491 0.91678 0.7012 0.0
H3581 H 0.70018 0.92819 0.73444 0.0
H3582 H 0.72383 0.97766 0.75581 0.0
H3583 H 0.71206 0.96464 0.74435 0.0
C3584 C 0.61036 0.8187 0.31591 0.0
C3585 C 0.6111 0.81663 0.32773 0.0
C3586 C 0.60133 0.81406 0.30945 0.0
C3587 C 0.57252 0.80008 0.31158 0.0
H3588 H 0.58103 0.78666 0.28276 0.0
C3589 C 0.53989 0.77693 0.28124 0.0
C3590 C 0.54379 0.7668 0.27635 0.0
C3591 C 0.54746 0.78407 0.28735 0.0
C3592 C 0.5785 0.79034 0.2908 0.0
H3593 H 0.60259 0.80847 0.3421 0.0
H3594 H 0.58705 0.80012 0.3308 0.0
H3595 H 0.59527 0.79726 0.29378 0.0
H3596 H 0.55853 0.75593 0.27463 0.0
H3597 H 0.5716 0.76828 0.28516 0.0
H3598 H 0.55583 0.79272 0.30874 0.0
C3599 C 0.59338 0.80543 0.32652 0.0
C3600 C 0.58664 0.79656 0.29706 0.0
C3601 C 0.6024 0.81009 0.33298 0.0
C3602 C 0.55531 0.76384 0.27797 0.0
C3603 C 0.56282 0.77093 0.28402 0.0
C3604 C 0.56435 0.79384 0.3053 0.0
C3605 C 0.59282 0.80721 0.31464 0.0
C3606 C 0.58382 0.80138 0.30762 0.0
C3607 C 0.55906 0.7812 0.28869 0.0
C3608 C 0.56732 0.78872 0.29493 0.0
H3609 H 0.61694 0.82362 0.31155 0.0
H3610 H 0.60109 0.81574 0.30035 0.0
H3611 H 0.57001 0.8038 0.31961 0.0
H3612 H 0.53107 0.77943 0.28015 0.0
H3613 H 0.5443 0.79194 0.29083 0.0
C3614 C 0.71194 0.11448 0.32108 0.0
C3615 C 0.7016 0.11271 0.32694 0.0
C3616 C 0.71739 0.10541 0.3158 0.0
C3617 C 0.71271 0.07663 0.30405 0.0
H3618 H 0.74563 0.0747 0.30762 0.0
C3619 C 0.73936 0.04001 0.28434 0.0
C3620 C 0.74969 0.04347 0.27917 0.0
C3621 C 0.73311 0.04769 0.2909 0.0
C3622 C 0.73645 0.07515 0.30644 0.0
H3623 H 0.68874 0.10003 0.33161 0.0
H3624 H 0.69827 0.08416 0.32234 0.0
H3625 H 0.73538 0.08964 0.31735 0.0
H3626 H 0.76173 0.05762 0.27726 0.0
H3627 H 0.75081 0.07094 0.28833 0.0
H3628 H 0.71384 0.06224 0.29292 0.0
C3629 C 0.70215 0.09259 0.32186 0.0
C3630 C 0.73057 0.08373 0.31204 0.0
C3631 C 0.69674 0.10166 0.32723 0.0
C3632 C 0.7537 0.0547 0.28091 0.0
C3633 C 0.74751 0.06232 0.28742 0.0
C3634 C 0.71862 0.06805 0.29838 0.0
C3635 C 0.71261 0.09434 0.31618 0.0
C3636 C 0.71866 0.08471 0.31076 0.0
C3637 C 0.73713 0.05896 0.29252 0.0
C3638 C 0.7306 0.06733 0.29934 0.0
H3639 H 0.71598 0.12285 0.32078 0.0
H3640 H 0.72535 0.10709 0.31138 0.0
H3641 H 0.70353 0.07718 0.30285 0.0
H3642 H 0.73605 0.03142 0.28318 0.0
H3643 H 0.72518 0.04479 0.29477 0.0
C3644 C 0.4102 0.1985 0.32449 0.0
C3645 C 0.40334 0.19105 0.31789 0.0
C3646 C 0.41947 0.20442 0.31958 0.0
C3647 C 0.43041 0.21422 0.29154 0.0
H3648 H 0.45923 0.21831 0.30775 0.0
C3649 C 0.4691 0.23473 0.26918 0.0
C3650 C 0.47516 0.2432 0.27526 0.0
C3651 C 0.46131 0.22749 0.27473 0.0
C3652 C 0.45121 0.21731 0.30314 0.0
H3653 H 0.40083 0.18411 0.30091 0.0
H3654 H 0.41705 0.1942 0.29246 0.0
H3655 H 0.44353 0.20767 0.31679 0.0
H3656 H 0.47819 0.25034 0.29205 0.0
H3657 H 0.46455 0.23769 0.30179 0.0
H3658 H 0.43797 0.22389 0.27796 0.0
C3659 C 0.41524 0.19556 0.3014 0.0
C3660 C 0.4422 0.21123 0.30833 0.0
C3661 C 0.406 0.18966 0.30629 0.0
C3662 C 0.47374 0.24383 0.28715 0.0
C3663 C 0.46589 0.23659 0.29272 0.0
C3664 C 0.43938 0.22027 0.28637 0.0
C3665 C 0.42207 0.20306 0.30796 0.0
C3666 C 0.43169 0.20958 0.30257 0.0
C3667 C 0.45932 0.22856 0.28651 0.0
C3668 C 0.44992 0.22187 0.29207 0.0
H3669 H 0.40846 0.19971 0.33347 0.0
H3670 H 0.42448 0.2102 0.32486 0.0
H3671 H 0.42237 0.21334 0.28694 0.0
H3672 H 0.47013 0.23396 0.26003 0.0
H3673 H 0.45662 0.22122 0.26973 0.0
C3674 C 0.31868 0.9082 0.3223 0.0
C3675 C 0.32562 0.90143 0.3154 0.0
C3676 C 0.31272 0.91741 0.31761 0.0
C3677 C 0.30181 0.92854 0.28996 0.0
H3678 H 0.2995 0.9571 0.30619 0.0
C3679 C 0.28163 0.96748 0.26838 0.0
C3680 C 0.27371 0.97358 0.27484 0.0
C3681 C 0.2888 0.95955 0.27361 0.0
C3682 C 0.29999 0.94915 0.30158 0.0
H3683 H 0.33157 0.899 0.29809 0.0
H3684 H 0.32142 0.91511 0.29 0.0
H3685 H 0.31004 0.94135 0.31481 0.0
H3686 H 0.2675 0.97647 0.29195 0.0
H3687 H 0.28004 0.96261 0.30112 0.0
H3688 H 0.29173 0.93623 0.2768 0.0
C3689 C 0.32048 0.91328 0.29902 0.0
C3690 C 0.30602 0.94011 0.30653 0.0
C3691 C 0.32643 0.9041 0.3037 0.0
C3692 C 0.27359 0.972 0.28675 0.0
C3693 C 0.28076 0.96403 0.292 0.0
C3694 C 0.29581 0.93755 0.28503 0.0
C3695 C 0.31352 0.92005 0.30589 0.0
C3696 C 0.30703 0.92969 0.30076 0.0
C3697 C 0.28822 0.95746 0.28544 0.0
C3698 C 0.29485 0.948 0.29074 0.0
H3699 H 0.31793 0.90646 0.33136 0.0
H3700 H 0.30736 0.92237 0.32314 0.0
H3701 H 0.30219 0.92058 0.28537 0.0
H3702 H 0.28202 0.9686 0.2592 0.0
H3703 H 0.29463 0.95485 0.26833 0.0
C3704 C 0.69432 0.10466 0.69921 0.0
C3705 C 0.69173 0.11391 0.70628 0.0
C3706 C 0.69998 0.09513 0.70363 0.0
C3707 C 0.70623 0.08039 0.73109 0.0
H3708 H 0.72984 0.06545 0.71387 0.0
C3709 C 0.72855 0.04076 0.7493 0.0
C3710 C 0.74056 0.04079 0.74848 0.0
C3711 C 0.72205 0.04847 0.7429 0.0
C3712 C 0.72328 0.06953 0.71881 0.0
H3713 H 0.69348 0.12053 0.72346 0.0
H3714 H 0.70335 0.10402 0.73113 0.0
H3715 H 0.71992 0.08168 0.7055 0.0
H3716 H 0.75504 0.04842 0.73964 0.0
H3717 H 0.74377 0.06197 0.72866 0.0
H3718 H 0.70984 0.06856 0.74455 0.0
C3719 C 0.70078 0.10398 0.72223 0.0
C3720 C 0.71751 0.07878 0.71396 0.0
C3721 C 0.69512 0.11347 0.71782 0.0
C3722 C 0.74582 0.04825 0.74058 0.0
C3723 C 0.73933 0.05597 0.7342 0.0
C3724 C 0.71199 0.07116 0.73593 0.0
C3725 C 0.7032 0.09463 0.71523 0.0
C3726 C 0.709 0.08442 0.7201 0.0
C3727 C 0.72739 0.05642 0.73552 0.0
C3728 C 0.72068 0.06567 0.72991 0.0
H3729 H 0.69174 0.10466 0.69031 0.0
H3730 H 0.70161 0.08806 0.69801 0.0
H3731 H 0.69962 0.08439 0.73602 0.0
H3732 H 0.7242 0.0352 0.75534 0.0
H3733 H 0.71285 0.04842 0.74398 0.0
C3734 C 0.69582 0.90965 0.3223 0.0
C3735 C 0.68898 0.90239 0.31549 0.0
C3736 C 0.70189 0.91881 0.31741 0.0
C3737 C 0.71348 0.92894 0.28976 0.0
H3738 H 0.71581 0.95818 0.30491 0.0
C3739 C 0.73557 0.9672 0.26791 0.0
C3740 C 0.74342 0.97348 0.27462 0.0
C3741 C 0.72792 0.95945 0.27297 0.0
C3742 C 0.7153 0.95005 0.30061 0.0
H3743 H 0.68329 0.89905 0.29813 0.0
H3744 H 0.69365 0.9151 0.28966 0.0
H3745 H 0.70469 0.94265 0.31365 0.0
H3746 H 0.74903 0.97688 0.29197 0.0
H3747 H 0.73567 0.96336 0.30082 0.0
H3748 H 0.72415 0.93623 0.27679 0.0
C3749 C 0.69442 0.91368 0.29878 0.0
C3750 C 0.70895 0.94114 0.30563 0.0
C3751 C 0.68835 0.90454 0.30367 0.0
C3752 C 0.74301 0.97227 0.28657 0.0
C3753 C 0.73536 0.96449 0.29164 0.0
C3754 C 0.71981 0.93782 0.28476 0.0
C3755 C 0.7013 0.92091 0.30557 0.0
C3756 C 0.70797 0.93047 0.30027 0.0
C3757 C 0.72794 0.95776 0.28488 0.0
C3758 C 0.72081 0.94849 0.29011 0.0
H3759 H 0.69642 0.90831 0.33145 0.0
H3760 H 0.7072 0.92415 0.32288 0.0
H3761 H 0.7131 0.92078 0.28549 0.0
H3762 H 0.73559 0.96805 0.25869 0.0
H3763 H 0.72215 0.95459 0.26752 0.0
C3764 C 0.60806 0.1885 0.30759 0.0
C3765 C 0.61274 0.19106 0.31839 0.0
C3766 C 0.59852 0.1943 0.3034 0.0
C3767 C 0.58233 0.22096 0.30724 0.0
H3768 H 0.55981 0.20541 0.28818 0.0
C3769 C 0.54302 0.2443 0.28883 0.0
C3770 C 0.54127 0.24289 0.27703 0.0
C3771 C 0.55049 0.23718 0.29486 0.0
C3772 C 0.56604 0.20988 0.29347 0.0
H3773 H 0.61091 0.20178 0.33328 0.0
H3774 H 0.59409 0.21165 0.32613 0.0
H3775 H 0.57533 0.19464 0.29689 0.0
H3776 H 0.54543 0.23252 0.26244 0.0
H3777 H 0.55836 0.22005 0.27295 0.0
H3778 H 0.57304 0.23619 0.30376 0.0
C3779 C 0.59792 0.20526 0.32079 0.0
C3780 C 0.57498 0.20372 0.29843 0.0
C3781 C 0.6075 0.19949 0.32496 0.0
C3782 C 0.54664 0.23383 0.27153 0.0
C3783 C 0.55401 0.22665 0.27756 0.0
C3784 C 0.57334 0.22709 0.30234 0.0
C3785 C 0.59332 0.20279 0.30992 0.0
C3786 C 0.58336 0.2092 0.30525 0.0
C3787 C 0.55626 0.22843 0.28924 0.0
C3788 C 0.56518 0.22166 0.29527 0.0
H3789 H 0.61172 0.18195 0.30234 0.0
H3790 H 0.59536 0.19224 0.29493 0.0
H3791 H 0.58868 0.22553 0.31228 0.0
H3792 H 0.53909 0.25127 0.29329 0.0
H3793 H 0.55195 0.23869 0.30388 0.0
C3794 C 0.31005 0.10514 0.33478 0.0
C3795 C 0.31548 0.11414 0.32882 0.0
C3796 C 0.30568 0.09564 0.32895 0.0
C3797 C 0.30712 0.07994 0.30162 0.0
H3798 H 0.27686 0.06903 0.31016 0.0
C3799 C 0.27944 0.04984 0.27329 0.0
C3800 C 0.27197 0.04198 0.27862 0.0
C3801 C 0.28595 0.05759 0.27975 0.0
C3802 C 0.2854 0.0718 0.30778 0.0
H3803 H 0.32067 0.12008 0.31203 0.0
H3804 H 0.31307 0.10348 0.30188 0.0
H3805 H 0.28582 0.08461 0.3207 0.0
H3806 H 0.26594 0.03578 0.29504 0.0
H3807 H 0.27754 0.04902 0.30631 0.0
H3808 H 0.30664 0.06718 0.28862 0.0
C3809 C 0.3123 0.10373 0.31108 0.0
C3810 C 0.29054 0.08078 0.31382 0.0
C3811 C 0.31665 0.11326 0.31691 0.0
C3812 C 0.27165 0.04164 0.29063 0.0
C3813 C 0.27819 0.04937 0.2971 0.0
C3814 C 0.30199 0.07092 0.29559 0.0
C3815 C 0.30664 0.09486 0.31702 0.0
C3816 C 0.30142 0.08502 0.31078 0.0
C3817 C 0.28518 0.05766 0.29174 0.0
C3818 C 0.29103 0.06678 0.29854 0.0
H3819 H 0.30919 0.10541 0.34397 0.0
H3820 H 0.30156 0.08887 0.33382 0.0
H3821 H 0.31558 0.08291 0.29915 0.0
H3822 H 0.28 0.05025 0.26406 0.0
H3823 H 0.29119 0.06387 0.27531 0.0
C3824 C 0.41469 0.81807 0.32798 0.0
C3825 C 0.40336 0.81494 0.32516 0.0
C3826 C 0.42391 0.81345 0.32209 0.0
C3827 C 0.43102 0.798 0.29537 0.0
H3828 H 0.45865 0.79025 0.31203 0.0
C3829 C 0.46934 0.77895 0.27199 0.0
C3830 C 0.47486 0.76984 0.27743 0.0
C3831 C 0.4617 0.78572 0.27798 0.0
C3832 C 0.45098 0.7923 0.30724 0.0
H3833 H 0.39285 0.80436 0.31402 0.0
H3834 H 0.40885 0.79618 0.3039 0.0
H3835 H 0.44292 0.79912 0.32201 0.0
H3836 H 0.47701 0.7609 0.29352 0.0
H3837 H 0.46357 0.77254 0.30396 0.0
H3838 H 0.43881 0.79072 0.28073 0.0
C3839 C 0.41066 0.80242 0.31046 0.0
C3840 C 0.44199 0.79754 0.31295 0.0
C3841 C 0.40146 0.8071 0.31629 0.0
C3842 C 0.47299 0.76796 0.28913 0.0
C3843 C 0.46526 0.77465 0.29512 0.0
C3844 C 0.43996 0.79271 0.28969 0.0
C3845 C 0.42203 0.80552 0.31327 0.0
C3846 C 0.43184 0.80037 0.30712 0.0
C3847 C 0.45928 0.78345 0.28955 0.0
C3848 C 0.45005 0.7897 0.29555 0.0
H3849 H 0.41644 0.82419 0.33467 0.0
H3850 H 0.43251 0.8162 0.32438 0.0
H3851 H 0.42344 0.80021 0.29053 0.0
H3852 H 0.47069 0.78066 0.26299 0.0
H3853 H 0.45751 0.79258 0.27346 0.0
C3854 C 0.33115 0.91226 0.70948 0.0
C3855 C 0.32506 0.90397 0.70315 0.0
C3856 C 0.32559 0.92173 0.71386 0.0
C3857 C 0.29936 0.93898 0.71124 0.0
H3858 H 0.30641 0.94699 0.74261 0.0
C3859 C 0.27094 0.96844 0.73819 0.0
C3860 C 0.27613 0.97527 0.74666 0.0
C3861 C 0.27742 0.9609 0.73177 0.0
C3862 C 0.30447 0.94504 0.73377 0.0
H3863 H 0.30834 0.89933 0.69632 0.0
H3864 H 0.29865 0.9159 0.70394 0.0
H3865 H 0.31661 0.93159 0.7336 0.0
H3866 H 0.29239 0.97992 0.75455 0.0
H3867 H 0.30373 0.96709 0.7431 0.0
H3868 H 0.28714 0.9524 0.71146 0.0
C3869 C 0.30776 0.9151 0.70542 0.0
C3870 C 0.31031 0.93616 0.72861 0.0
C3871 C 0.31332 0.90558 0.70105 0.0
C3872 C 0.28809 0.97486 0.74807 0.0
C3873 C 0.29458 0.96735 0.74161 0.0
C3874 C 0.29353 0.94791 0.7164 0.0
C3875 C 0.3138 0.92321 0.71202 0.0
C3876 C 0.30779 0.93296 0.7173 0.0
C3877 C 0.28929 0.96003 0.73361 0.0
C3878 C 0.29595 0.95102 0.72778 0.0
H3879 H 0.34024 0.91145 0.71106 0.0
H3880 H 0.33055 0.92792 0.71871 0.0
H3881 H 0.2973 0.93683 0.70248 0.0
H3882 H 0.26177 0.96864 0.73678 0.0
H3883 H 0.27301 0.95539 0.72574 0.0
C3884 C 0.60514 0.81997 0.69981 0.0
C3885 C 0.61154 0.81329 0.69231 0.0
C3886 C 0.59594 0.81519 0.70589 0.0
C3887 C 0.58448 0.78734 0.71603 0.0
H3888 H 0.55639 0.80383 0.72057 0.0
C3889 C 0.54586 0.76549 0.73728 0.0
C3890 C 0.54037 0.77163 0.74587 0.0
C3891 C 0.55355 0.77094 0.72988 0.0
C3892 C 0.56421 0.79914 0.71944 0.0
H3893 H 0.61326 0.79628 0.68545 0.0
H3894 H 0.59714 0.78805 0.69581 0.0
H3895 H 0.57195 0.81264 0.7096 0.0
H3896 H 0.53822 0.78842 0.75306 0.0
H3897 H 0.55167 0.79797 0.74012 0.0
H3898 H 0.57686 0.7739 0.7259 0.0
C3899 C 0.59928 0.79697 0.69709 0.0
C3900 C 0.57314 0.8042 0.71317 0.0
C3901 C 0.60846 0.80173 0.69103 0.0
C3902 C 0.54223 0.78348 0.74646 0.0
C3903 C 0.54997 0.78894 0.73906 0.0
C3904 C 0.57558 0.7823 0.72226 0.0
C3905 C 0.59293 0.8036 0.70466 0.0
C3906 C 0.58339 0.79835 0.71136 0.0
C3907 C 0.55599 0.78267 0.73091 0.0
C3908 C 0.56531 0.7881 0.72403 0.0
H3909 H 0.60719 0.82893 0.70094 0.0
H3910 H 0.5913 0.82054 0.71172 0.0
H3911 H 0.59233 0.78266 0.71503 0.0
H3912 H 0.54449 0.75637 0.73653 0.0
H3913 H 0.55781 0.76589 0.72352 0.0
C3914 C 0.40827 0.19493 0.69909 0.0
C3915 C 0.40227 0.20167 0.69115 0.0
C3916 C 0.41788 0.19932 0.70487 0.0
C3917 C 0.43944 0.22311 0.70419 0.0
H3918 H 0.44307 0.21563 0.7363 0.0
C3919 C 0.46817 0.24894 0.7355 0.0
C3920 C 0.47421 0.24293 0.74398 0.0
C3921 C 0.46064 0.24322 0.72809 0.0
C3922 C 0.44229 0.21767 0.72729 0.0
H3923 H 0.40194 0.21828 0.6829 0.0
H3924 H 0.41836 0.22604 0.69326 0.0
H3925 H 0.42737 0.20704 0.72543 0.0
H3926 H 0.47737 0.22615 0.75106 0.0
H3927 H 0.46427 0.21615 0.73806 0.0
H3928 H 0.45419 0.23404 0.70622 0.0
C3929 C 0.41578 0.21728 0.6949 0.0
C3930 C 0.43328 0.21273 0.72104 0.0
C3931 C 0.40622 0.21288 0.68908 0.0
C3932 C 0.47293 0.23101 0.74455 0.0
C3933 C 0.46532 0.2253 0.7372 0.0
C3934 C 0.4484 0.22812 0.71048 0.0
C3935 C 0.42172 0.21059 0.70292 0.0
C3936 C 0.43166 0.21545 0.70942 0.0
C3937 C 0.45891 0.23137 0.72905 0.0
C3938 C 0.44988 0.22552 0.72212 0.0
H3939 H 0.40544 0.1863 0.701 0.0
H3940 H 0.42231 0.19384 0.71087 0.0
H3941 H 0.43861 0.22525 0.69522 0.0
H3942 H 0.46903 0.25813 0.73483 0.0
H3943 H 0.45578 0.24816 0.72195 0.0
C3944 C 0.69994 0.68751 0.10519 0.0
C3945 C 0.69902 0.69233 0.11613 0.0
C3946 C 0.70485 0.69376 0.09617 0.0
C3947 C 0.72451 0.71822 0.09097 0.0
H3948 H 0.71236 0.71755 0.06005 0.0
C3949 C 0.74018 0.75032 0.05749 0.0
C3950 C 0.74261 0.74641 0.04646 0.0
C3951 C 0.73439 0.74337 0.06531 0.0
C3952 C 0.71592 0.71772 0.06861 0.0
H3953 H 0.70206 0.70769 0.12596 0.0
H3954 H 0.71055 0.71854 0.1103 0.0
H3955 H 0.70308 0.70612 0.07504 0.0
H3956 H 0.74036 0.7323 0.0348 0.0
H3957 H 0.7302 0.71998 0.0486 0.0
H3958 H 0.73731 0.72978 0.08465 0.0
C3959 C 0.70773 0.70985 0.10873 0.0
C3960 C 0.71061 0.71118 0.07721 0.0
C3961 C 0.70285 0.70362 0.11773 0.0
C3962 C 0.73863 0.73551 0.04325 0.0
C3963 C 0.73282 0.72849 0.05115 0.0
C3964 C 0.72979 0.72472 0.08242 0.0
C3965 C 0.70894 0.70496 0.09788 0.0
C3966 C 0.71475 0.71149 0.08853 0.0
C3967 C 0.73086 0.73227 0.06236 0.0
C3968 C 0.72548 0.72471 0.07117 0.0
H3969 H 0.69718 0.6788 0.10368 0.0
H3970 H 0.70573 0.68969 0.08795 0.0
H3971 H 0.72812 0.71845 0.09951 0.0
H3972 H 0.74285 0.75879 0.06013 0.0
H3973 H 0.73274 0.7467 0.07373 0.0
C3974 C 0.31845 0.70344 0.11182 0.0
C3975 C 0.31417 0.69248 0.11454 0.0
C3976 C 0.31408 0.70951 0.10247 0.0
C3977 C 0.29813 0.70606 0.07531 0.0
H3978 H 0.28984 0.73753 0.07992 0.0
C3979 C 0.26808 0.73031 0.04452 0.0
C3980 C 0.26954 0.74215 0.04328 0.0
C3981 C 0.27491 0.7242 0.05219 0.0
C3982 C 0.2923 0.72883 0.07837 0.0
H3983 H 0.30184 0.67939 0.10948 0.0
H3984 H 0.29439 0.68989 0.09311 0.0
H3985 H 0.29911 0.72704 0.09531 0.0
H3986 H 0.27976 0.75678 0.04852 0.0
H3987 H 0.29193 0.74611 0.06166 0.0
H3988 H 0.29131 0.70782 0.05838 0.0
C3989 C 0.30121 0.69373 0.09816 0.0
C3990 C 0.29759 0.7228 0.08724 0.0
C3991 C 0.30551 0.68771 0.10756 0.0
C3992 C 0.27838 0.74767 0.0494 0.0
C3993 C 0.28529 0.74156 0.05699 0.0
C3994 C 0.29292 0.71212 0.06641 0.0
C3995 C 0.3054 0.70473 0.09555 0.0
C3996 C 0.30043 0.7113 0.08586 0.0
C3997 C 0.28344 0.72979 0.05874 0.0
C3998 C 0.2898 0.72355 0.06786 0.0
H3999 H 0.32525 0.70732 0.11686 0.0
H4000 H 0.31757 0.71792 0.1006 0.0
H4001 H 0.30037 0.69725 0.07395 0.0
H4002 H 0.26123 0.72585 0.04003 0.0
H4003 H 0.27312 0.7152 0.05338 0.0
C4004 C 0.30207 0.32223 0.11865 0.0
C4005 C 0.31351 0.32611 0.11838 0.0
C4006 C 0.29721 0.31653 0.10933 0.0
C4007 C 0.3041 0.30059 0.08308 0.0
H4008 H 0.27244 0.30695 0.0756 0.0
C4009 C 0.2792 0.27971 0.04478 0.0
C4010 C 0.2684 0.27519 0.04774 0.0
C4011 C 0.28535 0.28665 0.05249 0.0
C4012 C 0.28128 0.30506 0.07759 0.0
H4013 H 0.32885 0.32688 0.10808 0.0
H4014 H 0.32032 0.31693 0.09172 0.0
H4015 H 0.28203 0.31751 0.09082 0.0
H4016 H 0.2554 0.27473 0.06086 0.0
H4017 H 0.266 0.28676 0.07418 0.0
H4018 H 0.30322 0.28805 0.06981 0.0
C4019 C 0.31514 0.31823 0.09922 0.0
C4020 C 0.28678 0.31108 0.08636 0.0
C4021 C 0.32004 0.32393 0.1086 0.0
C4022 C 0.26376 0.27797 0.05839 0.0
C4023 C 0.2698 0.28496 0.06598 0.0
C4024 C 0.29858 0.29458 0.07424 0.0
C4025 C 0.30362 0.31456 0.09942 0.0
C4026 C 0.29817 0.30875 0.08941 0.0
C4027 C 0.28068 0.28936 0.06318 0.0
C4028 C 0.28703 0.29658 0.07158 0.0
H4029 H 0.29687 0.32353 0.12613 0.0
H4030 H 0.2884 0.31357 0.10993 0.0
H4031 H 0.31286 0.29853 0.08523 0.0
H4032 H 0.28295 0.27771 0.03662 0.0
H4033 H 0.29369 0.28997 0.05008 0.0
C4034 C 0.70229 0.31327 0.11584 0.0
C4035 C 0.70055 0.32509 0.11525 0.0
C4036 C 0.70662 0.30742 0.10647 0.0
C4037 C 0.72314 0.312 0.07991 0.0
H4038 H 0.71243 0.28135 0.07306 0.0
C4039 C 0.74807 0.28133 0.05116 0.0
C4040 C 0.74191 0.2735 0.04434 0.0
C4041 C 0.74239 0.28851 0.05865 0.0
C4042 C 0.71542 0.28996 0.07473 0.0
H4043 H 0.70171 0.33996 0.10419 0.0
H4044 H 0.70922 0.32976 0.08785 0.0
H4045 H 0.70348 0.29194 0.08834 0.0
H4046 H 0.72488 0.26743 0.03975 0.0
H4047 H 0.71494 0.28015 0.05263 0.0
H4048 H 0.73503 0.31005 0.06625 0.0
C4049 C 0.70743 0.32503 0.09563 0.0
C4050 C 0.71039 0.29598 0.08362 0.0
C4051 C 0.70312 0.33089 0.10501 0.0
C4052 C 0.72989 0.27342 0.0448 0.0
C4053 C 0.72419 0.2806 0.05231 0.0
C4054 C 0.72817 0.30598 0.07102 0.0
C4055 C 0.7093 0.31323 0.09626 0.0
C4056 C 0.71427 0.30704 0.08641 0.0
C4057 C 0.73039 0.28805 0.05952 0.0
C4058 C 0.72447 0.29483 0.06839 0.0
H4059 H 0.70057 0.30857 0.12364 0.0
H4060 H 0.70812 0.29838 0.10734 0.0
H4061 H 0.72642 0.32045 0.08186 0.0
H4062 H 0.75734 0.28167 0.05094 0.0
H4063 H 0.74746 0.29406 0.06411 0.0
C4064 C 0.71215 0.33003 0.91082 0.0
C4065 C 0.70078 0.32821 0.90715 0.0
C4066 C 0.71639 0.32446 0.92053 0.0
C4067 C 0.71082 0.29922 0.93896 0.0
H4068 H 0.73335 0.3138 0.95875 0.0
C4069 C 0.72948 0.27571 0.97798 0.0
C4070 C 0.7415 0.27581 0.97854 0.0
C4071 C 0.72374 0.28329 0.97075 0.0
C4072 C 0.72707 0.30962 0.95329 0.0
H4073 H 0.68493 0.31912 0.91097 0.0
H4074 H 0.6922 0.30973 0.92808 0.0
H4075 H 0.72468 0.32466 0.94317 0.0
H4076 H 0.75689 0.28441 0.97258 0.0
H4077 H 0.74689 0.29769 0.96001 0.0
H4078 H 0.71327 0.28417 0.94904 0.0
C4079 C 0.69792 0.31531 0.92333 0.0
C4080 C 0.72213 0.31582 0.94432 0.0
C4081 C 0.6937 0.32083 0.91358 0.0
C4082 C 0.74762 0.28412 0.97228 0.0
C4083 C 0.74189 0.29175 0.96512 0.0
C4084 C 0.71569 0.29306 0.94797 0.0
C4085 C 0.70936 0.31698 0.92689 0.0
C4086 C 0.71406 0.31065 0.93693 0.0
C4087 C 0.7299 0.29119 0.96401 0.0
C4088 C 0.72399 0.29813 0.95515 0.0
H4089 H 0.71782 0.33578 0.90621 0.0
H4090 H 0.72528 0.32587 0.92289 0.0
H4091 H 0.70479 0.29488 0.93335 0.0
H4092 H 0.72452 0.26934 0.98262 0.0
H4093 H 0.71449 0.28274 0.97018 0.0
C4094 C 0.69607 0.71226 0.90322 0.0
C4095 C 0.69282 0.70067 0.90288 0.0
C4096 C 0.70187 0.71674 0.9127 0.0
C4097 C 0.71926 0.70882 0.93805 0.0
H4098 H 0.71107 0.73901 0.94812 0.0
C4099 C 0.74746 0.73607 0.96869 0.0
C4100 C 0.74211 0.74365 0.97614 0.0
C4101 C 0.74101 0.72956 0.96093 0.0
C4102 C 0.71338 0.7305 0.94556 0.0
H4103 H 0.69328 0.6847 0.91226 0.0
H4104 H 0.70343 0.69253 0.92885 0.0
H4105 H 0.70075 0.7303 0.93225 0.0
H4106 H 0.72566 0.74984 0.98164 0.0
H4107 H 0.7144 0.73826 0.96835 0.0
H4108 H 0.73185 0.70902 0.95147 0.0
C4109 C 0.70156 0.69813 0.92171 0.0
C4110 C 0.70756 0.72557 0.93631 0.0
C4111 C 0.69575 0.69363 0.91219 0.0
C4112 C 0.73008 0.74404 0.9761 0.0
C4113 C 0.72363 0.73751 0.96835 0.0
C4114 C 0.7251 0.71377 0.94732 0.0
C4115 C 0.7046 0.70977 0.92212 0.0
C4116 C 0.71051 0.71473 0.93234 0.0
C4117 C 0.72903 0.73044 0.96042 0.0
C4118 C 0.72231 0.72473 0.95113 0.0
H4119 H 0.69417 0.71788 0.89611 0.0
H4120 H 0.70431 0.72568 0.91259 0.0
H4121 H 0.7218 0.70048 0.9352 0.0
H4122 H 0.75671 0.73546 0.96858 0.0
H4123 H 0.74549 0.72426 0.95495 0.0
C4124 C 0.32552 0.7128 0.91046 0.0
C4125 C 0.32256 0.70209 0.90587 0.0
C4126 C 0.31973 0.71706 0.91989 0.0
C4127 C 0.29256 0.7136 0.93592 0.0
H4128 H 0.30856 0.7322 0.95837 0.0
C4129 C 0.26942 0.73136 0.97523 0.0
C4130 C 0.27109 0.7431 0.97705 0.0
C4131 C 0.27645 0.7255 0.96772 0.0
C4132 C 0.30397 0.72704 0.95216 0.0
H4133 H 0.31112 0.68746 0.90777 0.0
H4134 H 0.30129 0.69471 0.92442 0.0
H4135 H 0.31926 0.72354 0.94294 0.0
H4136 H 0.28185 0.75774 0.97293 0.0
H4137 H 0.29418 0.7475 0.95988 0.0
H4138 H 0.27728 0.71713 0.94515 0.0
C4139 C 0.30798 0.69993 0.92059 0.0
C4140 C 0.31009 0.72211 0.94327 0.0
C4141 C 0.31373 0.69569 0.9111 0.0
C4142 C 0.28033 0.74871 0.97167 0.0
C4143 C 0.28743 0.74282 0.96424 0.0
C4144 C 0.28647 0.71846 0.94485 0.0
C4145 C 0.31085 0.71071 0.92508 0.0
C4146 C 0.30445 0.71544 0.93493 0.0
C4147 C 0.28539 0.73122 0.96194 0.0
C4148 C 0.29207 0.72534 0.953 0.0
H4149 H 0.33238 0.71791 0.9068 0.0
H4150 H 0.3221 0.72545 0.92298 0.0
H4151 H 0.28787 0.70869 0.92959 0.0
H4152 H 0.26231 0.72683 0.97918 0.0
H4153 H 0.27475 0.71653 0.96623 0.0
C4154 C 0.3099 0.32725 0.91283 0.0
C4155 C 0.31789 0.32223 0.90555 0.0
C4156 C 0.30542 0.32122 0.92218 0.0
C4157 C 0.30008 0.29202 0.93277 0.0
H4158 H 0.29558 0.30685 0.96186 0.0
C4159 C 0.28122 0.26712 0.97097 0.0
C4160 C 0.27288 0.27267 0.97739 0.0
C4161 C 0.28804 0.2732 0.96319 0.0
C4162 C 0.29668 0.30259 0.95377 0.0
H4163 H 0.32757 0.3069 0.90262 0.0
H4164 H 0.31962 0.29634 0.91883 0.0
H4165 H 0.30472 0.31734 0.94624 0.0
H4166 H 0.26543 0.28905 0.98093 0.0
H4167 H 0.27721 0.29966 0.96731 0.0
H4168 H 0.2918 0.27739 0.94012 0.0
C4169 C 0.31677 0.30494 0.91723 0.0
C4170 C 0.30194 0.30862 0.94482 0.0
C4171 C 0.3213 0.311 0.90791 0.0
C4172 C 0.27189 0.28455 0.97623 0.0
C4173 C 0.27865 0.29063 0.96839 0.0
C4174 C 0.29477 0.28602 0.94169 0.0
C4175 C 0.30875 0.30997 0.92446 0.0
C4176 C 0.30363 0.30343 0.93417 0.0
C4177 C 0.28663 0.28499 0.96155 0.0
C4178 C 0.29292 0.29124 0.9523 0.0
H4179 H 0.30688 0.33579 0.91119 0.0
H4180 H 0.29912 0.32529 0.92746 0.0
H4181 H 0.3011 0.28782 0.92464 0.0
H4182 H 0.28225 0.25799 0.97175 0.0
H4183 H 0.29426 0.2686 0.95829 0.0
C4184 C 0.60516 0.69226 0.20168 0.0
C4185 C 0.61076 0.69849 0.19299 0.0
C4186 C 0.59567 0.69676 0.20725 0.0
C4187 C 0.5826 0.72425 0.2139 0.0
H4188 H 0.55571 0.70608 0.22159 0.0
C4189 C 0.54459 0.74508 0.23571 0.0
C4190 C 0.53957 0.73906 0.24484 0.0
C4191 C 0.55195 0.73963 0.22822 0.0
C4192 C 0.56319 0.71126 0.21959 0.0
H4193 H 0.61034 0.71413 0.18302 0.0
H4194 H 0.59398 0.72199 0.19281 0.0
H4195 H 0.57134 0.69746 0.21107 0.0
H4196 H 0.53789 0.72254 0.25301 0.0
H4197 H 0.55092 0.71301 0.24006 0.0
H4198 H 0.57474 0.73795 0.22262 0.0
C4199 C 0.59703 0.71371 0.19544 0.0
C4200 C 0.57215 0.70631 0.21356 0.0
C4201 C 0.60646 0.7092 0.18985 0.0
C4202 C 0.54154 0.72733 0.24595 0.0
C4203 C 0.54903 0.72189 0.23852 0.0
C4204 C 0.57372 0.72917 0.21998 0.0
C4205 C 0.59159 0.70761 0.20429 0.0
C4206 C 0.58196 0.71276 0.21063 0.0
C4207 C 0.55464 0.72806 0.22978 0.0
C4208 C 0.56386 0.72277 0.22291 0.0
H4209 H 0.60829 0.68404 0.20441 0.0
H4210 H 0.59174 0.69189 0.2141 0.0
H4211 H 0.59012 0.72942 0.21198 0.0
H4212 H 0.54316 0.75412 0.23465 0.0
H4213 H 0.55583 0.7446 0.22141 0.0
C4214 C 0.33013 0.60487 0.20945 0.0
C4215 C 0.3244 0.61203 0.20168 0.0
C4216 C 0.32455 0.5954 0.21428 0.0
C4217 C 0.29889 0.57638 0.21119 0.0
H4218 H 0.30455 0.57033 0.24331 0.0
C4219 C 0.26965 0.5477 0.23952 0.0
C4220 C 0.27488 0.54096 0.24799 0.0
C4221 C 0.2762 0.55518 0.23278 0.0
C4222 C 0.303 0.57177 0.23429 0.0
H4223 H 0.30831 0.61458 0.19272 0.0
H4224 H 0.29847 0.59831 0.20144 0.0
H4225 H 0.31486 0.5858 0.23383 0.0
H4226 H 0.29114 0.53647 0.25569 0.0
H4227 H 0.30257 0.54941 0.24383 0.0
H4228 H 0.28676 0.56248 0.21181 0.0
C4229 C 0.30735 0.59992 0.20366 0.0
C4230 C 0.30892 0.58067 0.22883 0.0
C4231 C 0.31296 0.60936 0.19878 0.0
C4232 C 0.28686 0.54146 0.24918 0.0
C4233 C 0.29339 0.54899 0.24248 0.0
C4234 C 0.2929 0.5675 0.21668 0.0
C4235 C 0.31305 0.59286 0.21156 0.0
C4236 C 0.30693 0.58313 0.21722 0.0
C4237 C 0.28811 0.55614 0.23441 0.0
C4238 C 0.29486 0.56513 0.22831 0.0
H4239 H 0.33889 0.6067 0.21201 0.0
H4240 H 0.32927 0.59009 0.22019 0.0
H4241 H 0.29725 0.57791 0.2022 0.0
H4242 H 0.26045 0.54744 0.23835 0.0
H4243 H 0.27185 0.5606 0.22667 0.0
C4244 C 0.41025 0.32255 0.20147 0.0
C4245 C 0.40353 0.316 0.19386 0.0
C4246 C 0.41947 0.3177 0.20737 0.0
C4247 C 0.43049 0.28971 0.21676 0.0
H4248 H 0.45916 0.30624 0.22128 0.0
C4249 C 0.46916 0.26754 0.23688 0.0
C4250 C 0.47516 0.27351 0.24546 0.0
C4251 C 0.46137 0.27312 0.22977 0.0
C4252 C 0.45118 0.30154 0.22016 0.0
H4253 H 0.40123 0.29913 0.18663 0.0
H4254 H 0.41737 0.29079 0.19668 0.0
H4255 H 0.44351 0.31522 0.21075 0.0
H4256 H 0.47809 0.29015 0.25294 0.0
H4257 H 0.46444 0.29994 0.24052 0.0
H4258 H 0.43804 0.27609 0.22621 0.0
C4259 C 0.41548 0.29965 0.19818 0.0
C4260 C 0.4422 0.3067 0.21414 0.0
C4261 C 0.40629 0.30449 0.19229 0.0
C4262 C 0.47368 0.28534 0.24634 0.0
C4263 C 0.46583 0.29094 0.23923 0.0
C4264 C 0.43944 0.28457 0.22276 0.0
C4265 C 0.42217 0.30616 0.20584 0.0
C4266 C 0.43175 0.30082 0.21233 0.0
C4267 C 0.45932 0.28482 0.23109 0.0
C4268 C 0.44993 0.29038 0.2245 0.0
H4269 H 0.40844 0.33146 0.20281 0.0
H4270 H 0.42437 0.32294 0.21327 0.0
H4271 H 0.4225 0.28501 0.21576 0.0
H4272 H 0.47023 0.25844 0.23591 0.0
H4273 H 0.45673 0.2682 0.22341 0.0
C4274 C 0.69012 0.40323 0.21668 0.0
C4275 C 0.69075 0.40113 0.20489 0.0
C4276 C 0.69604 0.41245 0.22156 0.0
C4277 C 0.71008 0.4402 0.21469 0.0
H4278 H 0.72519 0.43548 0.24388 0.0
C4279 C 0.74301 0.47224 0.23456 0.0
C4280 C 0.74326 0.47326 0.24651 0.0
C4281 C 0.73567 0.46428 0.22927 0.0
C4282 C 0.72087 0.43702 0.23581 0.0
H4283 H 0.69807 0.40723 0.18897 0.0
H4284 H 0.70859 0.42322 0.19753 0.0
H4285 H 0.71458 0.41984 0.23506 0.0
H4286 H 0.73544 0.46733 0.26223 0.0
H4287 H 0.72252 0.4536 0.25304 0.0
H4288 H 0.71652 0.45741 0.21544 0.0
C4289 C 0.70339 0.41778 0.20298 0.0
C4290 C 0.71479 0.42802 0.23073 0.0
C4291 C 0.69747 0.40853 0.1981 0.0
C4292 C 0.73554 0.46663 0.25301 0.0
C4293 C 0.7282 0.45872 0.24774 0.0
C4294 C 0.71618 0.44923 0.21978 0.0
C4295 C 0.70279 0.41983 0.21479 0.0
C4296 C 0.7093 0.42948 0.22011 0.0
C4297 C 0.72841 0.45719 0.23584 0.0
C4298 C 0.72164 0.44776 0.23043 0.0
H4299 H 0.68515 0.39764 0.22221 0.0
H4300 H 0.69526 0.41383 0.23065 0.0
H4301 H 0.70584 0.44167 0.20657 0.0
H4302 H 0.74894 0.47713 0.22932 0.0
H4303 H 0.73611 0.4633 0.2201 0.0
C4304 C 0.61393 0.30238 0.82376 0.0
C4305 C 0.61431 0.31392 0.82692 0.0
C4306 C 0.60449 0.29787 0.81784 0.0
C4307 C 0.57948 0.30581 0.80006 0.0
H4308 H 0.56908 0.27526 0.80798 0.0
C4309 C 0.54924 0.27875 0.77129 0.0
C4310 C 0.54167 0.27087 0.77648 0.0
C4311 C 0.55692 0.28524 0.77789 0.0
C4312 C 0.57173 0.28386 0.80575 0.0
H4313 H 0.60503 0.32976 0.82629 0.0
H4314 H 0.58849 0.32186 0.81599 0.0
H4315 H 0.58481 0.28398 0.81861 0.0
H4316 H 0.53584 0.26415 0.79277 0.0
H4317 H 0.54893 0.27573 0.80427 0.0
H4318 H 0.56628 0.3057 0.78725 0.0
C4319 C 0.59558 0.31634 0.81797 0.0
C4320 C 0.5809 0.28881 0.81175 0.0
C4321 C 0.60506 0.32087 0.82388 0.0
C4322 C 0.54148 0.27017 0.78847 0.0
C4323 C 0.54912 0.2767 0.79507 0.0
C4324 C 0.57028 0.30086 0.79405 0.0
C4325 C 0.59514 0.30475 0.81496 0.0
C4326 C 0.585 0.29978 0.80889 0.0
C4327 C 0.55718 0.28406 0.78985 0.0
C4328 C 0.56636 0.28977 0.79675 0.0
H4329 H 0.621 0.29684 0.82576 0.0
H4330 H 0.60458 0.28897 0.81544 0.0
H4331 H 0.58245 0.31425 0.79759 0.0
H4332 H 0.54952 0.27961 0.76208 0.0
H4333 H 0.56301 0.29077 0.77356 0.0
C4334 C 0.69724 0.61149 0.8138 0.0
C4335 C 0.69936 0.61254 0.82559 0.0
C4336 C 0.70149 0.60225 0.80771 0.0
C4337 C 0.71365 0.57325 0.8113 0.0
H4338 H 0.72689 0.57963 0.78164 0.0
C4339 C 0.74445 0.54267 0.78842 0.0
C4340 C 0.74402 0.54216 0.77642 0.0
C4341 C 0.73756 0.55027 0.79434 0.0
C4342 C 0.72306 0.57763 0.78983 0.0
H4343 H 0.70732 0.60442 0.84027 0.0
H4344 H 0.71496 0.58852 0.82963 0.0
H4345 H 0.71771 0.59481 0.79203 0.0
H4346 H 0.73544 0.54868 0.76132 0.0
H4347 H 0.72338 0.56186 0.77163 0.0
H4348 H 0.71925 0.55609 0.80915 0.0
C4349 C 0.70991 0.59477 0.82508 0.0
C4350 C 0.71778 0.58636 0.7958 0.0
C4351 C 0.70565 0.60399 0.83117 0.0
C4352 C 0.7361 0.54898 0.77055 0.0
C4353 C 0.72922 0.55657 0.77646 0.0
C4354 C 0.71896 0.5645 0.80533 0.0
C4355 C 0.70798 0.59383 0.81325 0.0
C4356 C 0.71308 0.58433 0.80666 0.0
C4357 C 0.73009 0.55755 0.7884 0.0
C4358 C 0.72381 0.5666 0.79454 0.0
H4359 H 0.69251 0.61794 0.8092 0.0
H4360 H 0.69971 0.60175 0.79864 0.0
H4361 H 0.70996 0.57131 0.81956 0.0
H4362 H 0.75055 0.53764 0.7932 0.0
H4363 H 0.73853 0.55085 0.80352 0.0
C4364 C 0.40734 0.69851 0.8244 0.0
C4365 C 0.40041 0.69123 0.8177 0.0
C4366 C 0.41669 0.70439 0.81959 0.0
C4367 C 0.42795 0.71433 0.79169 0.0
H4368 H 0.45674 0.71771 0.8081 0.0
C4369 C 0.46727 0.73412 0.76971 0.0
C4370 C 0.47348 0.74242 0.77588 0.0
C4371 C 0.45925 0.72704 0.77517 0.0
C4372 C 0.44873 0.71691 0.80344 0.0
H4373 H 0.39784 0.68457 0.80061 0.0
H4374 H 0.41418 0.69459 0.79232 0.0
H4375 H 0.44077 0.70732 0.81696 0.0
H4376 H 0.47653 0.7494 0.79274 0.0
H4377 H 0.46252 0.73702 0.8023 0.0
H4378 H 0.4358 0.72395 0.77823 0.0
C4379 C 0.41237 0.69586 0.80128 0.0
C4380 C 0.43957 0.71097 0.80852 0.0
C4381 C 0.40306 0.68999 0.80607 0.0
C4382 C 0.47197 0.74301 0.78777 0.0
C4383 C 0.46391 0.73593 0.79324 0.0
C4384 C 0.43708 0.72024 0.78662 0.0
C4385 C 0.41929 0.70317 0.80795 0.0
C4386 C 0.42907 0.70958 0.80269 0.0
C4387 C 0.4572 0.72809 0.78694 0.0
C4388 C 0.44762 0.72158 0.7924 0.0
H4389 H 0.40562 0.69959 0.8334 0.0
H4390 H 0.42177 0.71003 0.82496 0.0
H4391 H 0.41993 0.71365 0.78703 0.0
H4392 H 0.46835 0.73336 0.76057 0.0
H4393 H 0.45445 0.7209 0.7701 0.0
C4394 C 0.31513 0.40644 0.82166 0.0
C4395 C 0.32667 0.40433 0.81917 0.0
C4396 C 0.30964 0.41598 0.81707 0.0
C4397 C 0.31187 0.43687 0.79321 0.0
H4398 H 0.28904 0.45307 0.81033 0.0
C4399 C 0.28923 0.47583 0.77382 0.0
C4400 C 0.27723 0.47558 0.7747 0.0
C4401 C 0.29589 0.46844 0.78044 0.0
C4402 C 0.29537 0.44861 0.80542 0.0
H4403 H 0.34145 0.41075 0.80986 0.0
H4404 H 0.33201 0.42748 0.80218 0.0
H4405 H 0.29941 0.43751 0.81943 0.0
H4406 H 0.2629 0.46796 0.78376 0.0
H4407 H 0.27449 0.4551 0.79529 0.0
H4408 H 0.30777 0.44788 0.77919 0.0
C4409 C 0.32713 0.42168 0.80755 0.0
C4410 C 0.3013 0.43966 0.81063 0.0
C4411 C 0.3326 0.41213 0.8121 0.0
C4412 C 0.27212 0.46831 0.78285 0.0
C4413 C 0.27878 0.46097 0.7895 0.0
C4414 C 0.30599 0.44584 0.78804 0.0
C4415 C 0.31554 0.42369 0.80988 0.0
C4416 C 0.30956 0.43358 0.80456 0.0
C4417 C 0.29072 0.46069 0.78813 0.0
C4418 C 0.29759 0.45176 0.79403 0.0
H4419 H 0.31031 0.40072 0.82717 0.0
H4420 H 0.30068 0.41715 0.81897 0.0
H4421 H 0.31801 0.43229 0.78818 0.0
H4422 H 0.29342 0.48126 0.76757 0.0
H4423 H 0.30508 0.46856 0.7793 0.0
C4424 C 0.6876 0.60751 0.21402 0.0
C4425 C 0.68912 0.61062 0.2025 0.0
C4426 C 0.69374 0.59856 0.21888 0.0
C4427 C 0.71037 0.5729 0.21186 0.0
H4428 H 0.72242 0.57694 0.24253 0.0
C4429 C 0.74309 0.54232 0.23328 0.0
C4430 C 0.74227 0.54055 0.24514 0.0
C4431 C 0.73589 0.55004 0.22768 0.0
C4432 C 0.71897 0.57557 0.23403 0.0
H4433 H 0.69825 0.60657 0.18703 0.0
H4434 H 0.70914 0.59102 0.19558 0.0
H4435 H 0.7116 0.59212 0.23356 0.0
H4436 H 0.73274 0.54487 0.26026 0.0
H4437 H 0.72006 0.55813 0.25051 0.0
H4438 H 0.71785 0.55632 0.21235 0.0
C4439 C 0.70308 0.59548 0.20082 0.0
C4440 C 0.71277 0.58431 0.22886 0.0
C4441 C 0.69694 0.60448 0.19595 0.0
C4442 C 0.73367 0.54616 0.25115 0.0
C4443 C 0.72646 0.55382 0.24556 0.0
C4444 C 0.71658 0.56412 0.21705 0.0
C4445 C 0.70161 0.59244 0.21237 0.0
C4446 C 0.70834 0.5831 0.21773 0.0
C4447 C 0.72769 0.55613 0.23382 0.0
C4448 C 0.72092 0.56532 0.22823 0.0
H4449 H 0.68177 0.61213 0.21938 0.0
H4450 H 0.69228 0.59639 0.22776 0.0
H4451 H 0.70698 0.57163 0.20332 0.0
H4452 H 0.74971 0.53822 0.22843 0.0
H4453 H 0.73713 0.55164 0.21865 0.0
C4454 C 0.69831 0.40913 0.82307 0.0
C4455 C 0.69051 0.40288 0.81626 0.0
C4456 C 0.70403 0.41874 0.81868 0.0
C4457 C 0.70335 0.4398 0.79469 0.0
H4458 H 0.73536 0.44431 0.80268 0.0
C4459 C 0.73478 0.46869 0.76915 0.0
C4460 C 0.74305 0.47502 0.7753 0.0
C4461 C 0.72734 0.46112 0.7748 0.0
C4462 C 0.72638 0.44328 0.80049 0.0
H4463 H 0.68246 0.40209 0.79951 0.0
H4464 H 0.69274 0.41853 0.79174 0.0
H4465 H 0.72459 0.42855 0.8112 0.0
H4466 H 0.74973 0.47867 0.79222 0.0
H4467 H 0.7367 0.4655 0.8021 0.0
H4468 H 0.70533 0.45437 0.78368 0.0
C4469 C 0.6943 0.41613 0.80056 0.0
C4470 C 0.72018 0.43423 0.80539 0.0
C4471 C 0.68853 0.40657 0.80497 0.0
C4472 C 0.74338 0.47399 0.78726 0.0
C4473 C 0.73601 0.46636 0.7929 0.0
C4474 C 0.70959 0.4488 0.78972 0.0
C4475 C 0.70217 0.42233 0.80734 0.0
C4476 C 0.7086 0.43231 0.80249 0.0
C4477 C 0.72809 0.45965 0.78671 0.0
C4478 C 0.72119 0.45059 0.79251 0.0
H4479 H 0.70015 0.4065 0.83176 0.0
H4480 H 0.70991 0.42337 0.82421 0.0
H4481 H 0.69441 0.43872 0.7924 0.0
H4482 H 0.7343 0.46933 0.75993 0.0
H4483 H 0.72138 0.45604 0.76978 0.0
C4484 C 0.60597 0.69672 0.82359 0.0
C4485 C 0.61219 0.68915 0.81683 0.0
C4486 C 0.59673 0.70272 0.81896 0.0
C4487 C 0.58483 0.71244 0.79121 0.0
H4488 H 0.55705 0.71712 0.80838 0.0
C4489 C 0.54594 0.73315 0.76994 0.0
C4490 C 0.54052 0.74174 0.7761 0.0
C4491 C 0.55371 0.7259 0.77533 0.0
C4492 C 0.56478 0.71595 0.80351 0.0
H4493 H 0.61354 0.68208 0.79982 0.0
H4494 H 0.59737 0.6923 0.79186 0.0
H4495 H 0.57272 0.70636 0.81698 0.0
H4496 H 0.53858 0.7491 0.79288 0.0
H4497 H 0.55218 0.73645 0.80233 0.0
H4498 H 0.57702 0.72207 0.77779 0.0
C4499 C 0.59968 0.6937 0.80072 0.0
C4500 C 0.57378 0.7098 0.80844 0.0
C4501 C 0.60889 0.68772 0.80534 0.0
C4502 C 0.54254 0.74249 0.78793 0.0
C4503 C 0.55036 0.73525 0.79333 0.0
C4504 C 0.57587 0.71856 0.78629 0.0
C4505 C 0.5935 0.70133 0.80744 0.0
C4506 C 0.5839 0.70794 0.80233 0.0
C4507 C 0.55631 0.72709 0.78701 0.0
C4508 C 0.5657 0.72037 0.79234 0.0
H4509 H 0.60819 0.69796 0.83249 0.0
H4510 H 0.59223 0.70859 0.82436 0.0
H4511 H 0.59258 0.7114 0.78633 0.0
H4512 H 0.54445 0.73227 0.76084 0.0
H4513 H 0.5579 0.71953 0.77025 0.0
C4514 C 0.30147 0.60979 0.8307 0.0
C4515 C 0.31313 0.6129 0.83002 0.0
C4516 C 0.29716 0.60027 0.82486 0.0
C4517 C 0.3031 0.58154 0.80047 0.0
H4518 H 0.2802 0.56185 0.81456 0.0
C4519 C 0.28426 0.54251 0.77671 0.0
C4520 C 0.27228 0.54124 0.7771 0.0
C4521 C 0.29 0.55002 0.78413 0.0
C4522 C 0.28654 0.56729 0.81047 0.0
H4523 H 0.32941 0.60826 0.82272 0.0
H4524 H 0.32186 0.59169 0.81248 0.0
H4525 H 0.28873 0.57752 0.82544 0.0
H4526 H 0.25703 0.54632 0.78604 0.0
H4527 H 0.26698 0.55949 0.79885 0.0
H4528 H 0.30076 0.57148 0.78543 0.0
C4529 C 0.31603 0.5967 0.81746 0.0
C4530 C 0.29142 0.5763 0.81671 0.0
C4531 C 0.32036 0.60622 0.82332 0.0
C4532 C 0.26626 0.54718 0.78547 0.0
C4533 C 0.27198 0.55468 0.79287 0.0
C4534 C 0.2982 0.57255 0.79423 0.0
C4535 C 0.30437 0.5936 0.81815 0.0
C4536 C 0.29966 0.58362 0.81174 0.0
C4537 C 0.2839 0.55642 0.79211 0.0
C4538 C 0.28976 0.56539 0.7991 0.0
H4539 H 0.2956 0.61484 0.83558 0.0
H4540 H 0.2881 0.59827 0.82542 0.0
H4541 H 0.30931 0.5871 0.79632 0.0
H4542 H 0.28916 0.53814 0.77031 0.0
H4543 H 0.2992 0.55101 0.78342 0.0
C4544 C 0.41173 0.30902 0.82978 0.0
C4545 C 0.40351 0.31587 0.82436 0.0
C4546 C 0.42102 0.30484 0.8237 0.0
C4547 C 0.43011 0.29841 0.79427 0.0
H4548 H 0.46 0.29519 0.80844 0.0
C4549 C 0.46786 0.28022 0.76923 0.0
C4550 C 0.47426 0.27182 0.77489 0.0
C4551 C 0.46026 0.287 0.77525 0.0
C4552 C 0.4517 0.29597 0.80438 0.0
H4553 H 0.39878 0.32381 0.80827 0.0
H4554 H 0.4151 0.31672 0.79773 0.0
H4555 H 0.4447 0.30437 0.81888 0.0
H4556 H 0.47802 0.26431 0.79143 0.0
H4557 H 0.46481 0.27616 0.80195 0.0
H4558 H 0.43703 0.2899 0.77983 0.0
C4559 C 0.41427 0.31444 0.80666 0.0
C4560 C 0.44291 0.30123 0.81037 0.0
C4561 C 0.40497 0.31863 0.81275 0.0
C4562 C 0.47333 0.27079 0.78682 0.0
C4563 C 0.46572 0.27758 0.79286 0.0
C4564 C 0.4389 0.29319 0.78828 0.0
C4565 C 0.42237 0.3074 0.81203 0.0
C4566 C 0.43196 0.30242 0.80544 0.0
C4567 C 0.45886 0.28556 0.7871 0.0
C4568 C 0.44978 0.2918 0.79328 0.0
H4569 H 0.411 0.30685 0.83875 0.0
H4570 H 0.427 0.29936 0.82811 0.0
H4571 H 0.42176 0.29899 0.79025 0.0
H4572 H 0.46849 0.28135 0.76006 0.0
H4573 H 0.4553 0.29323 0.77058 0.0
C4574 C 0.32149 0.40264 0.21715 0.0
C4575 C 0.32538 0.40276 0.20581 0.0
C4576 C 0.31579 0.41199 0.22161 0.0
C4577 C 0.29993 0.43795 0.21334 0.0
H4578 H 0.30609 0.44626 0.24481 0.0
C4579 C 0.27081 0.46764 0.2392 0.0
C4580 C 0.27574 0.47451 0.24778 0.0
C4581 C 0.27749 0.46012 0.23298 0.0
C4582 C 0.30436 0.4442 0.23596 0.0
H4583 H 0.32627 0.41285 0.19026 0.0
H4584 H 0.31636 0.42922 0.19806 0.0
H4585 H 0.31647 0.43072 0.23629 0.0
H4586 H 0.29176 0.47926 0.25609 0.0
H4587 H 0.30346 0.46642 0.24501 0.0
H4588 H 0.28789 0.45154 0.21301 0.0
C4589 C 0.3176 0.42182 0.20347 0.0
C4590 C 0.31021 0.43514 0.23111 0.0
C4591 C 0.32328 0.41243 0.19899 0.0
C4592 C 0.28766 0.47416 0.2495 0.0
C4593 C 0.29436 0.46666 0.24325 0.0
C4594 C 0.29408 0.44704 0.2182 0.0
C4595 C 0.31385 0.42175 0.21487 0.0
C4596 C 0.30798 0.43179 0.21979 0.0
C4597 C 0.28931 0.45928 0.23515 0.0
C4598 C 0.29613 0.45021 0.22961 0.0
H4599 H 0.32276 0.39525 0.22258 0.0
H4600 H 0.31281 0.4115 0.23033 0.0
H4601 H 0.29793 0.43559 0.20462 0.0
H4602 H 0.26167 0.46779 0.23755 0.0
H4603 H 0.27327 0.45456 0.22686 0.0
C4604 C 0.61131 0.30078 0.19136 0.0
C4605 C 0.61396 0.31248 0.19218 0.0
C4606 C 0.6021 0.29599 0.19736 0.0
C4607 C 0.57521 0.30315 0.21222 0.0
H4608 H 0.57936 0.2736 0.22651 0.0
C4609 C 0.54388 0.28338 0.24559 0.0
C4610 C 0.54225 0.27148 0.24554 0.0
C4611 C 0.55175 0.28862 0.23817 0.0
C4612 C 0.57797 0.28178 0.22243 0.0
H4613 H 0.60883 0.32833 0.19992 0.0
H4614 H 0.5929 0.31992 0.2106 0.0
H4615 H 0.59492 0.28227 0.21568 0.0
H4616 H 0.54696 0.25587 0.23713 0.0
H4617 H 0.56054 0.26499 0.22411 0.0
H4618 H 0.55826 0.30267 0.21913 0.0
C4619 C 0.59788 0.31447 0.20518 0.0
C4620 C 0.58692 0.28677 0.21622 0.0
C4621 C 0.60711 0.31927 0.19916 0.0
C4622 C 0.54815 0.26503 0.23748 0.0
C4623 C 0.55598 0.27026 0.23006 0.0
C4624 C 0.56623 0.29815 0.21846 0.0
C4625 C 0.59529 0.30275 0.20439 0.0
C4626 C 0.58567 0.29751 0.21101 0.0
C4627 C 0.55813 0.28208 0.23054 0.0
C4628 C 0.5675 0.28739 0.22363 0.0
H4629 H 0.61645 0.29525 0.18618 0.0
H4630 H 0.60028 0.28696 0.19643 0.0
H4631 H 0.5739 0.31138 0.20821 0.0
H4632 H 0.53957 0.28858 0.25178 0.0
H4633 H 0.55323 0.29773 0.23882 0.0
C4634 C 0.40569 0.71314 0.19129 0.0
C4635 C 0.40162 0.70196 0.19329 0.0
C4636 C 0.41533 0.71739 0.19711 0.0
C4637 C 0.43294 0.71239 0.22309 0.0
H4638 H 0.45409 0.73347 0.20826 0.0
C4639 C 0.47308 0.72972 0.24642 0.0
C4640 C 0.47454 0.74162 0.246 0.0
C4641 C 0.46535 0.72422 0.23905 0.0
C4642 C 0.44824 0.72761 0.21252 0.0
H4643 H 0.40463 0.68649 0.20303 0.0
H4644 H 0.42163 0.69376 0.21287 0.0
H4645 H 0.43826 0.72504 0.19732 0.0
H4646 H 0.46954 0.75702 0.23708 0.0
H4647 H 0.45607 0.74741 0.22415 0.0
H4648 H 0.44292 0.71498 0.23828 0.0
C4649 C 0.41724 0.69933 0.20694 0.0
C4650 C 0.43913 0.72281 0.20627 0.0
C4651 C 0.40756 0.6951 0.20117 0.0
C4652 C 0.46856 0.74783 0.23763 0.0
C4653 C 0.46089 0.74232 0.2302 0.0
C4654 C 0.44209 0.71712 0.2293 0.0
C4655 C 0.42122 0.71056 0.20504 0.0
C4656 C 0.43128 0.71523 0.21151 0.0
C4657 C 0.45897 0.73049 0.23103 0.0
C4658 C 0.44978 0.72487 0.22413 0.0
H4659 H 0.40146 0.71864 0.18516 0.0
H4660 H 0.41802 0.72612 0.19551 0.0
H4661 H 0.42698 0.70676 0.22748 0.0
H4662 H 0.47748 0.7247 0.25285 0.0
H4663 H 0.46415 0.71507 0.2398 0.0
loop_
_geom_bond_atom_site_label_1
_geom_bond_atom_site_label_2
_geom_bond_distance
_geom_bond_site_symmetry_2
_ccdc_geom_bond_type
C0 C1 1.264 . S
C0 C5 1.479 . S
C0 C10 1.465 . S
C1 C0 1.264 . S
C1 C3 1.339 . S
C1 H28 0.931 . S
C2 C3 1.395 . S
C2 C4 1.320 . S
C3 C1 1.339 . S
C3 C2 1.395 . S
C3 H29 0.929 . S
C4 C2 1.320 . S
C4 C5 1.405 . S
C4 H30 0.930 . S
C5 C0 1.479 . S
C5 C4 1.405 . S
C5 H31 0.931 . S
U6 O7 2.454 . S
U6 O8 2.458 . S
U6 C9 2.984 . S
U6 C10 2.847 . S
U6 C23 2.882 . S
U6 O24 2.441 . S
U6 O25 2.420 . S
U6 O26 2.455 . S
U6 O27 2.449 . S
O7 U6 2.454 . S
O7 C9 1.353 . S
O8 U6 2.458 . S
O8 C9 1.286 . S
C9 U6 2.984 . S
C9 O7 1.353 . S
C9 O8 1.286 . S
C9 C11 1.363 . S
C10 C0 1.465 . S
C10 U6 2.847 . S
C10 O24 1.249 . S
C10 O25 1.202 . S
C11 C9 1.363 . S
C11 C13 1.408 . S
C11 C16 1.342 . S
C12 C13 1.310 . S
C12 C15 1.461 . S
C12 H32 0.932 . S
C13 C11 1.408 . S
C13 C12 1.310 . S
C13 H33 0.930 . S
C14 C15 1.474 . S
C14 C16 1.285 . S
C14 H34 0.929 . S
C15 C12 1.461 . S
C15 C14 1.474 . S
C16 C11 1.342 . S
C16 C14 1.285 . S
C16 H35 0.930 . S
C17 C20 1.424 . S
C17 C22 1.245 . S
C17 C23 1.428 . S
C18 C21 1.260 . S
C18 C22 1.477 . S
C18 H36 0.932 . S
C19 C20 1.384 . S
C19 C21 1.479 . S
C19 H37 0.929 . S
C20 C17 1.424 . S
C20 C19 1.384 . S
C20 H38 0.928 . S
C21 C18 1.260 . S
C21 C19 1.479 . S
C22 C17 1.245 . S
C22 C18 1.477 . S
C22 H39 0.932 . S
C23 U6 2.882 . S
C23 C17 1.428 . S
C23 O26 1.301 . S
C23 O27 1.282 . S
O24 U6 2.441 . S
O24 C10 1.249 . S
O25 U6 2.420 . S
O25 C10 1.202 . S
O26 U6 2.455 . S
O26 C23 1.301 . S
O27 U6 2.449 . S
O27 C23 1.282 . S
H28 C1 0.931 . S
H29 C3 0.929 . S
H30 C4 0.930 . S
H31 C5 0.931 . S
H32 C12 0.932 . S
H33 C13 0.930 . S
H34 C14 0.929 . S
H35 C16 0.930 . S
H36 C18 0.932 . S
H37 C19 0.929 . S
H38 C20 0.928 . S
H39 C22 0.932 . S
C40 C41 1.264 . S
C40 C45 1.479 . S
C40 C50 1.465 . S
C41 C40 1.264 . S
C41 C43 1.339 . S
C41 H68 0.931 . S
C42 C43 1.395 . S
C42 C44 1.320 . S
C43 C41 1.339 . S
C43 C42 1.395 . S
C43 H69 0.929 . S
C44 C42 1.320 . S
C44 C45 1.405 . S
C44 H70 0.930 . S
C45 C40 1.479 . S
C45 C44 1.405 . S
C45 H71 0.931 . S
U46 O47 2.454 . S
U46 O48 2.458 . S
U46 C49 2.984 . S
U46 C50 2.847 . S
U46 C63 2.882 . S
U46 O64 2.441 . S
U46 O65 2.420 . S
U46 O66 2.455 . S
U46 O67 2.449 . S
O47 U46 2.454 . S
O47 C49 1.353 . S
O48 U46 2.458 . S
O48 C49 1.286 . S
C49 U46 2.984 . S
C49 O47 1.353 . S
C49 O48 1.286 . S
C49 C51 1.363 . S
C50 C40 1.465 . S
C50 U46 2.847 . S
C50 O64 1.249 . S
C50 O65 1.202 . S
C51 C49 1.363 . S
C51 C53 1.408 . S
C51 C56 1.342 . S
C52 C53 1.310 . S
C52 C55 1.461 . S
C52 H72 0.932 . S
C53 C51 1.408 . S
C53 C52 1.310 . S
C53 H73 0.930 . S
C54 C55 1.474 . S
C54 C56 1.285 . S
C54 H74 0.929 . S
C55 C52 1.461 . S
C55 C54 1.474 . S
C56 C51 1.342 . S
C56 C54 1.285 . S
C56 H75 0.930 . S
C57 C60 1.424 . S
C57 C62 1.245 . S
C57 C63 1.428 . S
C58 C61 1.260 . S
C58 C62 1.477 . S
C58 H76 0.932 . S
C59 C60 1.384 . S
C59 C61 1.479 . S
C59 H77 0.929 . S
C60 C57 1.424 . S
C60 C59 1.384 . S
C60 H78 0.928 . S
C61 C58 1.260 . S
C61 C59 1.479 . S
C62 C57 1.245 . S
C62 C58 1.477 . S
C62 H79 0.932 . S
C63 U46 2.882 . S
C63 C57 1.428 . S
C63 O66 1.301 . S
C63 O67 1.282 . S
O64 U46 2.441 . S
O64 C50 1.249 . S
O65 U46 2.420 . S
O65 C50 1.202 . S
O66 U46 2.455 . S
O66 C63 1.301 . S
O67 U46 2.449 . S
O67 C63 1.282 . S
H68 C41 0.931 . S
H69 C43 0.929 . S
H70 C44 0.930 . S
H71 C45 0.931 . S
H72 C52 0.932 . S
H73 C53 0.930 . S
H74 C54 0.929 . S
H75 C56 0.930 . S
H76 C58 0.932 . S
H77 C59 0.929 . S
H78 C60 0.928 . S
H79 C62 0.932 . S
C80 C81 1.264 . S
C80 C85 1.479 . S
C80 C90 1.465 . S
C81 C80 1.264 . S
C81 C83 1.339 . S
C81 H108 0.931 . S
C82 C83 1.395 . S
C82 C84 1.320 . S
C83 C81 1.339 . S
C83 C82 1.395 . S
C83 H109 0.929 . S
C84 C82 1.320 . S
C84 C85 1.405 . S
C84 H110 0.930 . S
C85 C80 1.479 . S
C85 C84 1.405 . S
C85 H111 0.931 . S
U86 O87 2.454 . S
U86 O88 2.458 . S
U86 C89 2.984 . S
U86 C90 2.847 . S
U86 C103 2.882 . S
U86 O104 2.441 . S
U86 O105 2.420 . S
U86 O106 2.455 . S
U86 O107 2.449 . S
O87 U86 2.454 . S
O87 C89 1.353 . S
O88 U86 2.458 . S
O88 C89 1.286 . S
C89 U86 2.984 . S
C89 O87 1.353 . S
C89 O88 1.286 . S
C89 C91 1.363 . S
C90 C80 1.465 . S
C90 U86 2.847 . S
C90 O104 1.249 . S
C90 O105 1.202 . S
C91 C89 1.363 . S
C91 C93 1.408 . S
C91 C96 1.342 . S
C92 C93 1.310 . S
C92 C95 1.461 . S
C92 H112 0.932 . S
C93 C91 1.408 . S
C93 C92 1.310 . S
C93 H113 0.930 . S
C94 C95 1.474 . S
C94 C96 1.285 . S
C94 H114 0.929 . S
C95 C92 1.461 . S
C95 C94 1.474 . S
C96 C91 1.342 . S
C96 C94 1.285 . S
C96 H115 0.930 . S
C97 C100 1.424 . S
C97 C102 1.245 . S
C97 C103 1.428 . S
C98 C101 1.260 . S
C98 C102 1.477 . S
C98 H116 0.932 . S
C99 C100 1.384 . S
C99 C101 1.479 . S
C99 H117 0.929 . S
C100 C97 1.424 . S
C100 C99 1.384 . S
C100 H118 0.928 . S
C101 C98 1.260 . S
C101 C99 1.479 . S
C102 C97 1.245 . S
C102 C98 1.477 . S
C102 H119 0.932 . S
C103 U86 2.882 . S
C103 C97 1.428 . S
C103 O106 1.301 . S
C103 O107 1.282 . S
O104 U86 2.441 . S
O104 C90 1.249 . S
O105 U86 2.420 . S
O105 C90 1.202 . S
O106 U86 2.455 . S
O106 C103 1.301 . S
O107 U86 2.449 . S
O107 C103 1.282 . S
H108 C81 0.931 . S
H109 C83 0.929 . S
H110 C84 0.930 . S
H111 C85 0.931 . S
H112 C92 0.932 . S
H113 C93 0.930 . S
H114 C94 0.929 . S
H115 C96 0.930 . S
H116 C98 0.932 . S
H117 C99 0.929 . S
H118 C100 0.928 . S
H119 C102 0.932 . S
C120 C121 1.264 . S
C120 C125 1.479 . S
C120 C130 1.465 . S
C121 C120 1.264 . S
C121 C123 1.339 . S
C121 H148 0.931 . S
C122 C123 1.395 . S
C122 C124 1.320 . S
C123 C121 1.339 . S
C123 C122 1.395 . S
C123 H149 0.929 . S
C124 C122 1.320 . S
C124 C125 1.405 . S
C124 H150 0.930 . S
C125 C120 1.479 . S
C125 C124 1.405 . S
C125 H151 0.931 . S
U126 O127 2.454 . S
U126 O128 2.458 . S
U126 C129 2.984 . S
U126 C130 2.847 . S
U126 C143 2.882 . S
U126 O144 2.441 . S
U126 O145 2.420 . S
U126 O146 2.455 . S
U126 O147 2.449 . S
O127 U126 2.454 . S
O127 C129 1.353 . S
O128 U126 2.458 . S
O128 C129 1.286 . S
C129 U126 2.984 . S
C129 O127 1.353 . S
C129 O128 1.286 . S
C129 C131 1.363 . S
C130 C120 1.465 . S
C130 U126 2.847 . S
C130 O144 1.249 . S
C130 O145 1.202 . S
C131 C129 1.363 . S
C131 C133 1.408 . S
C131 C136 1.342 . S
C132 C133 1.310 . S
C132 C135 1.461 . S
C132 H152 0.932 . S
C133 C131 1.408 . S
C133 C132 1.310 . S
C133 H153 0.930 . S
C134 C135 1.474 . S
C134 C136 1.285 . S
C134 H154 0.929 . S
C135 C132 1.461 . S
C135 C134 1.474 . S
C136 C131 1.342 . S
C136 C134 1.285 . S
C136 H155 0.930 . S
C137 C140 1.424 . S
C137 C142 1.245 . S
C137 C143 1.428 . S
C138 C141 1.260 . S
C138 C142 1.477 . S
C138 H156 0.932 . S
C139 C140 1.384 . S
C139 C141 1.479 . S
C139 H157 0.929 . S
C140 C137 1.424 . S
C140 C139 1.384 . S
C140 H158 0.928 . S
C141 C138 1.260 . S
C141 C139 1.479 . S
C142 C137 1.245 . S
C142 C138 1.477 . S
C142 H159 0.932 . S
C143 U126 2.882 . S
C143 C137 1.428 . S
C143 O146 1.301 . S
C143 O147 1.282 . S
O144 U126 2.441 . S
O144 C130 1.249 . S
O145 U126 2.420 . S
O145 C130 1.202 . S
O146 U126 2.455 . S
O146 C143 1.301 . S
O147 U126 2.449 . S
O147 C143 1.282 . S
H148 C121 0.931 . S
H149 C123 0.929 . S
H150 C124 0.930 . S
H151 C125 0.931 . S
H152 C132 0.932 . S
H153 C133 0.930 . S
H154 C134 0.929 . S
H155 C136 0.930 . S
H156 C138 0.932 . S
H157 C139 0.929 . S
H158 C140 0.928 . S
H159 C142 0.932 . S
C160 C161 1.264 . S
C160 C165 1.479 . S
C160 C170 1.465 . S
C161 C160 1.264 . S
C161 C163 1.339 . S
C161 H188 0.931 . S
C162 C163 1.395 . S
C162 C164 1.320 . S
C163 C161 1.339 . S
C163 C162 1.395 . S
C163 H189 0.929 . S
C164 C162 1.320 . S
C164 C165 1.405 . S
C164 H190 0.930 . S
C165 C160 1.479 . S
C165 C164 1.405 . S
C165 H191 0.931 . S
U166 O167 2.454 . S
U166 O168 2.458 . S
U166 C169 2.984 . S
U166 C170 2.847 . S
U166 C183 2.882 . S
U166 O184 2.441 . S
U166 O185 2.420 . S
U166 O186 2.455 . S
U166 O187 2.449 . S
O167 U166 2.454 . S
O167 C169 1.353 . S
O168 U166 2.458 . S
O168 C169 1.286 . S
C169 U166 2.984 . S
C169 O167 1.353 . S
C169 O168 1.286 . S
C169 C171 1.363 . S
C170 C160 1.465 . S
C170 U166 2.847 . S
C170 O184 1.249 . S
C170 O185 1.202 . S
C171 C169 1.363 . S
C171 C173 1.408 . S
C171 C176 1.342 . S
C172 C173 1.310 . S
C172 C175 1.461 . S
C172 H192 0.932 . S
C173 C171 1.408 . S
C173 C172 1.310 . S
C173 H193 0.930 . S
C174 C175 1.474 . S
C174 C176 1.285 . S
C174 H194 0.929 . S
C175 C172 1.461 . S
C175 C174 1.474 . S
C176 C171 1.342 . S
C176 C174 1.285 . S
C176 H195 0.930 . S
C177 C180 1.424 . S
C177 C182 1.245 . S
C177 C183 1.428 . S
C178 C181 1.260 . S
C178 C182 1.477 . S
C178 H196 0.932 . S
C179 C180 1.384 . S
C179 C181 1.479 . S
C179 H197 0.929 . S
C180 C177 1.424 . S
C180 C179 1.384 . S
C180 H198 0.928 . S
C181 C178 1.260 . S
C181 C179 1.479 . S
C182 C177 1.245 . S
C182 C178 1.477 . S
C182 H199 0.932 . S
C183 U166 2.882 . S
C183 C177 1.428 . S
C183 O186 1.301 . S
C183 O187 1.282 . S
O184 U166 2.441 . S
O184 C170 1.249 . S
O185 U166 2.420 . S
O185 C170 1.202 . S
O186 U166 2.455 . S
O186 C183 1.301 . S
O187 U166 2.449 . S
O187 C183 1.282 . S
H188 C161 0.931 . S
H189 C163 0.929 . S
H190 C164 0.930 . S
H191 C165 0.931 . S
H192 C172 0.932 . S
H193 C173 0.930 . S
H194 C174 0.929 . S
H195 C176 0.930 . S
H196 C178 0.932 . S
H197 C179 0.929 . S
H198 C180 0.928 . S
H199 C182 0.932 . S
C200 C201 1.264 . S
C200 C205 1.479 . S
C200 C210 1.465 . S
C201 C200 1.264 . S
C201 C203 1.339 . S
C201 H228 0.931 . S
C202 C203 1.395 . S
C202 C204 1.320 . S
C203 C201 1.339 . S
C203 C202 1.395 . S
C203 H229 0.929 . S
C204 C202 1.320 . S
C204 C205 1.405 . S
C204 H230 0.930 . S
C205 C200 1.479 . S
C205 C204 1.405 . S
C205 H231 0.931 . S
U206 O207 2.454 . S
U206 O208 2.458 . S
U206 C209 2.984 . S
U206 C210 2.847 . S
U206 C223 2.882 . S
U206 O224 2.441 . S
U206 O225 2.420 . S
U206 O226 2.455 . S
U206 O227 2.449 . S
O207 U206 2.454 . S
O207 C209 1.353 . S
O208 U206 2.458 . S
O208 C209 1.286 . S
C209 U206 2.984 . S
C209 O207 1.353 . S
C209 O208 1.286 . S
C209 C211 1.363 . S
C210 C200 1.465 . S
C210 U206 2.847 . S
C210 O224 1.249 . S
C210 O225 1.202 . S
C211 C209 1.363 . S
C211 C213 1.408 . S
C211 C216 1.342 . S
C212 C213 1.310 . S
C212 C215 1.461 . S
C212 H232 0.932 . S
C213 C211 1.408 . S
C213 C212 1.310 . S
C213 H233 0.930 . S
C214 C215 1.474 . S
C214 C216 1.285 . S
C214 H234 0.929 . S
C215 C212 1.461 . S
C215 C214 1.474 . S
C216 C211 1.342 . S
C216 C214 1.285 . S
C216 H235 0.930 . S
C217 C220 1.424 . S
C217 C222 1.245 . S
C217 C223 1.428 . S
C218 C221 1.260 . S
C218 C222 1.477 . S
C218 H236 0.932 . S
C219 C220 1.384 . S
C219 C221 1.479 . S
C219 H237 0.929 . S
C220 C217 1.424 . S
C220 C219 1.384 . S
C220 H238 0.928 . S
C221 C218 1.260 . S
C221 C219 1.479 . S
C222 C217 1.245 . S
C222 C218 1.477 . S
C222 H239 0.932 . S
C223 U206 2.882 . S
C223 C217 1.428 . S
C223 O226 1.301 . S
C223 O227 1.282 . S
O224 U206 2.441 . S
O224 C210 1.249 . S
O225 U206 2.420 . S
O225 C210 1.202 . S
O226 U206 2.455 . S
O226 C223 1.301 . S
O227 U206 2.449 . S
O227 C223 1.282 . S
H228 C201 0.931 . S
H229 C203 0.929 . S
H230 C204 0.930 . S
H231 C205 0.931 . S
H232 C212 0.932 . S
H233 C213 0.930 . S
H234 C214 0.929 . S
H235 C216 0.930 . S
H236 C218 0.932 . S
H237 C219 0.929 . S
H238 C220 0.928 . S
H239 C222 0.932 . S
C240 C241 1.264 . S
C240 C245 1.479 . S
C240 C250 1.465 . S
C241 C240 1.264 . S
C241 C243 1.339 . S
C241 H268 0.931 . S
C242 C243 1.395 . S
C242 C244 1.320 . S
C243 C241 1.339 . S
C243 C242 1.395 . S
C243 H269 0.929 . S
C244 C242 1.320 . S
C244 C245 1.405 . S
C244 H270 0.930 . S
C245 C240 1.479 . S
C245 C244 1.405 . S
C245 H271 0.931 . S
U246 O247 2.454 . S
U246 O248 2.458 . S
U246 C249 2.984 . S
U246 C250 2.847 . S
U246 C263 2.882 . S
U246 O264 2.441 . S
U246 O265 2.420 . S
U246 O266 2.455 . S
U246 O267 2.449 . S
O247 U246 2.454 . S
O247 C249 1.353 . S
O248 U246 2.458 . S
O248 C249 1.286 . S
C249 U246 2.984 . S
C249 O247 1.353 . S
C249 O248 1.286 . S
C249 C251 1.363 . S
C250 C240 1.465 . S
C250 U246 2.847 . S
C250 O264 1.249 . S
C250 O265 1.202 . S
C251 C249 1.363 . S
C251 C253 1.408 . S
C251 C256 1.342 . S
C252 C253 1.310 . S
C252 C255 1.461 . S
C252 H272 0.932 . S
C253 C251 1.408 . S
C253 C252 1.310 . S
C253 H273 0.930 . S
C254 C255 1.474 . S
C254 C256 1.285 . S
C254 H274 0.929 . S
C255 C252 1.461 . S
C255 C254 1.474 . S
C256 C251 1.342 . S
C256 C254 1.285 . S
C256 H275 0.930 . S
C257 C260 1.424 . S
C257 C262 1.245 . S
C257 C263 1.428 . S
C258 C261 1.260 . S
C258 C262 1.477 . S
C258 H276 0.932 . S
C259 C260 1.384 . S
C259 C261 1.479 . S
C259 H277 0.929 . S
C260 C257 1.424 . S
C260 C259 1.384 . S
C260 H278 0.928 . S
C261 C258 1.260 . S
C261 C259 1.479 . S
C262 C257 1.245 . S
C262 C258 1.477 . S
C262 H279 0.932 . S
C263 U246 2.882 . S
C263 C257 1.428 . S
C263 O266 1.301 . S
C263 O267 1.282 . S
O264 U246 2.441 . S
O264 C250 1.249 . S
O265 U246 2.420 . S
O265 C250 1.202 . S
O266 U246 2.455 . S
O266 C263 1.301 . S
O267 U246 2.449 . S
O267 C263 1.282 . S
H268 C241 0.931 . S
H269 C243 0.929 . S
H270 C244 0.930 . S
H271 C245 0.931 . S
H272 C252 0.932 . S
H273 C253 0.930 . S
H274 C254 0.929 . S
H275 C256 0.930 . S
H276 C258 0.932 . S
H277 C259 0.929 . S
H278 C260 0.928 . S
H279 C262 0.932 . S
C280 C281 1.264 . S
C280 C285 1.479 . S
C280 C290 1.465 . S
C281 C280 1.264 . S
C281 C283 1.339 . S
C281 H308 0.931 . S
C282 C283 1.395 . S
C282 C284 1.320 . S
C283 C281 1.339 . S
C283 C282 1.395 . S
C283 H309 0.929 . S
C284 C282 1.320 . S
C284 C285 1.405 . S
C284 H310 0.930 . S
C285 C280 1.479 . S
C285 C284 1.405 . S
C285 H311 0.931 . S
U286 O287 2.454 . S
U286 O288 2.458 . S
U286 C289 2.984 . S
U286 C290 2.847 . S
U286 C303 2.882 . S
U286 O304 2.441 . S
U286 O305 2.420 . S
U286 O306 2.455 . S
U286 O307 2.449 . S
O287 U286 2.454 . S
O287 C289 1.353 . S
O288 U286 2.458 . S
O288 C289 1.286 . S
C289 U286 2.984 . S
C289 O287 1.353 . S
C289 O288 1.286 . S
C289 C291 1.363 . S
C290 C280 1.465 . S
C290 U286 2.847 . S
C290 O304 1.249 . S
C290 O305 1.202 . S
C291 C289 1.363 . S
C291 C293 1.408 . S
C291 C296 1.342 . S
C292 C293 1.310 . S
C292 C295 1.461 . S
C292 H312 0.932 . S
C293 C291 1.408 . S
C293 C292 1.310 . S
C293 H313 0.930 . S
C294 C295 1.474 . S
C294 C296 1.285 . S
C294 H314 0.929 . S
C295 C292 1.461 . S
C295 C294 1.474 . S
C296 C291 1.342 . S
C296 C294 1.285 . S
C296 H315 0.930 . S
C297 C300 1.424 . S
C297 C302 1.245 . S
C297 C303 1.428 . S
C298 C301 1.260 . S
C298 C302 1.477 . S
C298 H316 0.932 . S
C299 C300 1.384 . S
C299 C301 1.479 . S
C299 H317 0.929 . S
C300 C297 1.424 . S
C300 C299 1.384 . S
C300 H318 0.928 . S
C301 C298 1.260 . S
C301 C299 1.479 . S
C302 C297 1.245 . S
C302 C298 1.477 . S
C302 H319 0.932 . S
C303 U286 2.882 . S
C303 C297 1.428 . S
C303 O306 1.301 . S
C303 O307 1.282 . S
O304 U286 2.441 . S
O304 C290 1.249 . S
O305 U286 2.420 . S
O305 C290 1.202 . S
O306 U286 2.455 . S
O306 C303 1.301 . S
O307 U286 2.449 . S
O307 C303 1.282 . S
H308 C281 0.931 . S
H309 C283 0.929 . S
H310 C284 0.930 . S
H311 C285 0.931 . S
H312 C292 0.932 . S
H313 C293 0.930 . S
H314 C294 0.929 . S
H315 C296 0.930 . S
H316 C298 0.932 . S
H317 C299 0.929 . S
H318 C300 0.928 . S
H319 C302 0.932 . S
C320 C321 1.264 . S
C320 C325 1.479 . S
C320 C330 1.465 . S
C321 C320 1.264 . S
C321 C323 1.339 . S
C321 H348 0.931 . S
C322 C323 1.395 . S
C322 C324 1.320 . S
C323 C321 1.339 . S
C323 C322 1.395 . S
C323 H349 0.929 . S
C324 C322 1.320 . S
C324 C325 1.405 . S
C324 H350 0.930 . S
C325 C320 1.479 . S
C325 C324 1.405 . S
C325 H351 0.931 . S
U326 O327 2.454 . S
U326 O328 2.458 . S
U326 C329 2.984 . S
U326 C330 2.847 . S
U326 C343 2.882 . S
U326 O344 2.441 . S
U326 O345 2.420 . S
U326 O346 2.455 . S
U326 O347 2.449 . S
O327 U326 2.454 . S
O327 C329 1.353 . S
O328 U326 2.458 . S
O328 C329 1.286 . S
C329 U326 2.984 . S
C329 O327 1.353 . S
C329 O328 1.286 . S
C329 C331 1.363 . S
C330 C320 1.465 . S
C330 U326 2.847 . S
C330 O344 1.249 . S
C330 O345 1.202 . S
C331 C329 1.363 . S
C331 C333 1.408 . S
C331 C336 1.342 . S
C332 C333 1.310 . S
C332 C335 1.461 . S
C332 H352 0.932 . S
C333 C331 1.408 . S
C333 C332 1.310 . S
C333 H353 0.930 . S
C334 C335 1.474 . S
C334 C336 1.285 . S
C334 H354 0.929 . S
C335 C332 1.461 . S
C335 C334 1.474 . S
C336 C331 1.342 . S
C336 C334 1.285 . S
C336 H355 0.930 . S
C337 C340 1.424 . S
C337 C342 1.245 . S
C337 C343 1.428 . S
C338 C341 1.260 . S
C338 C342 1.477 . S
C338 H356 0.932 . S
C339 C340 1.384 . S
C339 C341 1.479 . S
C339 H357 0.929 . S
C340 C337 1.424 . S
C340 C339 1.384 . S
C340 H358 0.928 . S
C341 C338 1.260 . S
C341 C339 1.479 . S
C342 C337 1.245 . S
C342 C338 1.477 . S
C342 H359 0.932 . S
C343 U326 2.882 . S
C343 C337 1.428 . S
C343 O346 1.301 . S
C343 O347 1.282 . S
O344 U326 2.441 . S
O344 C330 1.249 . S
O345 U326 2.420 . S
O345 C330 1.202 . S
O346 U326 2.455 . S
O346 C343 1.301 . S
O347 U326 2.449 . S
O347 C343 1.282 . S
H348 C321 0.931 . S
H349 C323 0.929 . S
H350 C324 0.930 . S
H351 C325 0.931 . S
H352 C332 0.932 . S
H353 C333 0.930 . S
H354 C334 0.929 . S
H355 C336 0.930 . S
H356 C338 0.932 . S
H357 C339 0.929 . S
H358 C340 0.928 . S
H359 C342 0.932 . S
C360 C361 1.264 . S
C360 C365 1.479 . S
C360 C370 1.465 . S
C361 C360 1.264 . S
C361 C363 1.339 . S
C361 H388 0.931 . S
C362 C363 1.395 . S
C362 C364 1.320 . S
C363 C361 1.339 . S
C363 C362 1.395 . S
C363 H389 0.929 . S
C364 C362 1.320 . S
C364 C365 1.405 . S
C364 H390 0.930 . S
C365 C360 1.479 . S
C365 C364 1.405 . S
C365 H391 0.931 . S
U366 O367 2.454 . S
U366 O368 2.458 . S
U366 C369 2.984 . S
U366 C370 2.847 . S
U366 C383 2.882 . S
U366 O384 2.441 . S
U366 O385 2.420 . S
U366 O386 2.455 . S
U366 O387 2.449 . S
O367 U366 2.454 . S
O367 C369 1.353 . S
O368 U366 2.458 . S
O368 C369 1.286 . S
C369 U366 2.984 . S
C369 O367 1.353 . S
C369 O368 1.286 . S
C369 C371 1.363 . S
C370 C360 1.465 . S
C370 U366 2.847 . S
C370 O384 1.249 . S
C370 O385 1.202 . S
C371 C369 1.363 . S
C371 C373 1.408 . S
C371 C376 1.342 . S
C372 C373 1.310 . S
C372 C375 1.461 . S
C372 H392 0.932 . S
C373 C371 1.408 . S
C373 C372 1.310 . S
C373 H393 0.930 . S
C374 C375 1.474 . S
C374 C376 1.285 . S
C374 H394 0.929 . S
C375 C372 1.461 . S
C375 C374 1.474 . S
C376 C371 1.342 . S
C376 C374 1.285 . S
C376 H395 0.930 . S
C377 C380 1.424 . S
C377 C382 1.245 . S
C377 C383 1.428 . S
C378 C381 1.260 . S
C378 C382 1.477 . S
C378 H396 0.932 . S
C379 C380 1.384 . S
C379 C381 1.479 . S
C379 H397 0.929 . S
C380 C377 1.424 . S
C380 C379 1.384 . S
C380 H398 0.928 . S
C381 C378 1.260 . S
C381 C379 1.479 . S
C382 C377 1.245 . S
C382 C378 1.477 . S
C382 H399 0.932 . S
C383 U366 2.882 . S
C383 C377 1.428 . S
C383 O386 1.301 . S
C383 O387 1.282 . S
O384 U366 2.441 . S
O384 C370 1.249 . S
O385 U366 2.420 . S
O385 C370 1.202 . S
O386 U366 2.455 . S
O386 C383 1.301 . S
O387 U366 2.449 . S
O387 C383 1.282 . S
H388 C361 0.931 . S
H389 C363 0.929 . S
H390 C364 0.930 . S
H391 C365 0.931 . S
H392 C372 0.932 . S
H393 C373 0.930 . S
H394 C374 0.929 . S
H395 C376 0.930 . S
H396 C378 0.932 . S
H397 C379 0.929 . S
H398 C380 0.928 . S
H399 C382 0.932 . S
C400 C401 1.264 . S
C400 C405 1.479 . S
C400 C410 1.465 . S
C401 C400 1.264 . S
C401 C403 1.339 . S
C401 H428 0.931 . S
C402 C403 1.395 . S
C402 C404 1.320 . S
C403 C401 1.339 . S
C403 C402 1.395 . S
C403 H429 0.929 . S
C404 C402 1.320 . S
C404 C405 1.405 . S
C404 H430 0.930 . S
C405 C400 1.479 . S
C405 C404 1.405 . S
C405 H431 0.931 . S
U406 O407 2.454 . S
U406 O408 2.458 . S
U406 C409 2.984 . S
U406 C410 2.847 . S
U406 C423 2.882 . S
U406 O424 2.441 . S
U406 O425 2.420 . S
U406 O426 2.455 . S
U406 O427 2.449 . S
O407 U406 2.454 . S
O407 C409 1.353 . S
O408 U406 2.458 . S
O408 C409 1.286 . S
C409 U406 2.984 . S
C409 O407 1.353 . S
C409 O408 1.286 . S
C409 C411 1.363 . S
C410 C400 1.465 . S
C410 U406 2.847 . S
C410 O424 1.249 . S
C410 O425 1.202 . S
C411 C409 1.363 . S
C411 C413 1.408 . S
C411 C416 1.342 . S
C412 C413 1.310 . S
C412 C415 1.461 . S
C412 H432 0.932 . S
C413 C411 1.408 . S
C413 C412 1.310 . S
C413 H433 0.930 . S
C414 C415 1.474 . S
C414 C416 1.285 . S
C414 H434 0.929 . S
C415 C412 1.461 . S
C415 C414 1.474 . S
C416 C411 1.342 . S
C416 C414 1.285 . S
C416 H435 0.930 . S
C417 C420 1.424 . S
C417 C422 1.245 . S
C417 C423 1.428 . S
C418 C421 1.260 . S
C418 C422 1.477 . S
C418 H436 0.932 . S
C419 C420 1.384 . S
C419 C421 1.479 . S
C419 H437 0.929 . S
C420 C417 1.424 . S
C420 C419 1.384 . S
C420 H438 0.928 . S
C421 C418 1.260 . S
C421 C419 1.479 . S
C422 C417 1.245 . S
C422 C418 1.477 . S
C422 H439 0.932 . S
C423 U406 2.882 . S
C423 C417 1.428 . S
C423 O426 1.301 . S
C423 O427 1.282 . S
O424 U406 2.441 . S
O424 C410 1.249 . S
O425 U406 2.420 . S
O425 C410 1.202 . S
O426 U406 2.455 . S
O426 C423 1.301 . S
O427 U406 2.449 . S
O427 C423 1.282 . S
H428 C401 0.931 . S
H429 C403 0.929 . S
H430 C404 0.930 . S
H431 C405 0.931 . S
H432 C412 0.932 . S
H433 C413 0.930 . S
H434 C414 0.929 . S
H435 C416 0.930 . S
H436 C418 0.932 . S
H437 C419 0.929 . S
H438 C420 0.928 . S
H439 C422 0.932 . S
C440 C441 1.264 . S
C440 C445 1.479 . S
C440 C450 1.465 . S
C441 C440 1.264 . S
C441 C443 1.339 . S
C441 H468 0.931 . S
C442 C443 1.395 . S
C442 C444 1.320 . S
C443 C441 1.339 . S
C443 C442 1.395 . S
C443 H469 0.929 . S
C444 C442 1.320 . S
C444 C445 1.405 . S
C444 H470 0.930 . S
C445 C440 1.479 . S
C445 C444 1.405 . S
C445 H471 0.931 . S
U446 O447 2.454 . S
U446 O448 2.458 . S
U446 C449 2.984 . S
U446 C450 2.847 . S
U446 C463 2.882 . S
U446 O464 2.441 . S
U446 O465 2.420 . S
U446 O466 2.455 . S
U446 O467 2.449 . S
O447 U446 2.454 . S
O447 C449 1.353 . S
O448 U446 2.458 . S
O448 C449 1.286 . S
C449 U446 2.984 . S
C449 O447 1.353 . S
C449 O448 1.286 . S
C449 C451 1.363 . S
C450 C440 1.465 . S
C450 U446 2.847 . S
C450 O464 1.249 . S
C450 O465 1.202 . S
C451 C449 1.363 . S
C451 C453 1.408 . S
C451 C456 1.342 . S
C452 C453 1.310 . S
C452 C455 1.461 . S
C452 H472 0.932 . S
C453 C451 1.408 . S
C453 C452 1.310 . S
C453 H473 0.930 . S
C454 C455 1.474 . S
C454 C456 1.285 . S
C454 H474 0.929 . S
C455 C452 1.461 . S
C455 C454 1.474 . S
C456 C451 1.342 . S
C456 C454 1.285 . S
C456 H475 0.930 . S
C457 C460 1.424 . S
C457 C462 1.245 . S
C457 C463 1.428 . S
C458 C461 1.260 . S
C458 C462 1.477 . S
C458 H476 0.932 . S
C459 C460 1.384 . S
C459 C461 1.479 . S
C459 H477 0.929 . S
C460 C457 1.424 . S
C460 C459 1.384 . S
C460 H478 0.928 . S
C461 C458 1.260 . S
C461 C459 1.479 . S
C462 C457 1.245 . S
C462 C458 1.477 . S
C462 H479 0.932 . S
C463 U446 2.882 . S
C463 C457 1.428 . S
C463 O466 1.301 . S
C463 O467 1.282 . S
O464 U446 2.441 . S
O464 C450 1.249 . S
O465 U446 2.420 . S
O465 C450 1.202 . S
O466 U446 2.455 . S
O466 C463 1.301 . S
O467 U446 2.449 . S
O467 C463 1.282 . S
H468 C441 0.931 . S
H469 C443 0.929 . S
H470 C444 0.930 . S
H471 C445 0.931 . S
H472 C452 0.932 . S
H473 C453 0.930 . S
H474 C454 0.929 . S
H475 C456 0.930 . S
H476 C458 0.932 . S
H477 C459 0.929 . S
H478 C460 0.928 . S
H479 C462 0.932 . S
C480 C481 1.264 . S
C480 C485 1.479 . S
C480 C490 1.465 . S
C481 C480 1.264 . S
C481 C483 1.339 . S
C481 H508 0.931 . S
C482 C483 1.395 . S
C482 C484 1.320 . S
C483 C481 1.339 . S
C483 C482 1.395 . S
C483 H509 0.929 . S
C484 C482 1.320 . S
C484 C485 1.405 . S
C484 H510 0.930 . S
C485 C480 1.479 . S
C485 C484 1.405 . S
C485 H511 0.931 . S
U486 O487 2.454 . S
U486 O488 2.458 . S
U486 C489 2.984 . S
U486 C490 2.847 . S
U486 C503 2.882 . S
U486 O504 2.441 . S
U486 O505 2.420 . S
U486 O506 2.455 . S
U486 O507 2.449 . S
O487 U486 2.454 . S
O487 C489 1.353 . S
O488 U486 2.458 . S
O488 C489 1.286 . S
C489 U486 2.984 . S
C489 O487 1.353 . S
C489 O488 1.286 . S
C489 C491 1.363 . S
C490 C480 1.465 . S
C490 U486 2.847 . S
C490 O504 1.249 . S
C490 O505 1.202 . S
C491 C489 1.363 . S
C491 C493 1.408 . S
C491 C496 1.342 . S
C492 C493 1.310 . S
C492 C495 1.461 . S
C492 H512 0.932 . S
C493 C491 1.408 . S
C493 C492 1.310 . S
C493 H513 0.930 . S
C494 C495 1.474 . S
C494 C496 1.285 . S
C494 H514 0.929 . S
C495 C492 1.461 . S
C495 C494 1.474 . S
C496 C491 1.342 . S
C496 C494 1.285 . S
C496 H515 0.930 . S
C497 C500 1.424 . S
C497 C502 1.245 . S
C497 C503 1.428 . S
C498 C501 1.260 . S
C498 C502 1.477 . S
C498 H516 0.932 . S
C499 C500 1.384 . S
C499 C501 1.479 . S
C499 H517 0.929 . S
C500 C497 1.424 . S
C500 C499 1.384 . S
C500 H518 0.928 . S
C501 C498 1.260 . S
C501 C499 1.479 . S
C502 C497 1.245 . S
C502 C498 1.477 . S
C502 H519 0.932 . S
C503 U486 2.882 . S
C503 C497 1.428 . S
C503 O506 1.301 . S
C503 O507 1.282 . S
O504 U486 2.441 . S
O504 C490 1.249 . S
O505 U486 2.420 . S
O505 C490 1.202 . S
O506 U486 2.455 . S
O506 C503 1.301 . S
O507 U486 2.449 . S
O507 C503 1.282 . S
H508 C481 0.931 . S
H509 C483 0.929 . S
H510 C484 0.930 . S
H511 C485 0.931 . S
H512 C492 0.932 . S
H513 C493 0.930 . S
H514 C494 0.929 . S
H515 C496 0.930 . S
H516 C498 0.932 . S
H517 C499 0.929 . S
H518 C500 0.928 . S
H519 C502 0.932 . S
C520 C521 1.264 . S
C520 C525 1.479 . S
C520 C530 1.465 . S
C521 C520 1.264 . S
C521 C523 1.339 . S
C521 H548 0.931 . S
C522 C523 1.395 . S
C522 C524 1.320 . S
C523 C521 1.339 . S
C523 C522 1.395 . S
C523 H549 0.929 . S
C524 C522 1.320 . S
C524 C525 1.405 . S
C524 H550 0.930 . S
C525 C520 1.479 . S
C525 C524 1.405 . S
C525 H551 0.931 . S
U526 O527 2.454 . S
U526 O528 2.458 . S
U526 C529 2.984 . S
U526 C530 2.847 . S
U526 C543 2.882 . S
U526 O544 2.441 . S
U526 O545 2.420 . S
U526 O546 2.455 . S
U526 O547 2.449 . S
O527 U526 2.454 . S
O527 C529 1.353 . S
O528 U526 2.458 . S
O528 C529 1.286 . S
C529 U526 2.984 . S
C529 O527 1.353 . S
C529 O528 1.286 . S
C529 C531 1.363 . S
C530 C520 1.465 . S
C530 U526 2.847 . S
C530 O544 1.249 . S
C530 O545 1.202 . S
C531 C529 1.363 . S
C531 C533 1.408 . S
C531 C536 1.342 . S
C532 C533 1.310 . S
C532 C535 1.461 . S
C532 H552 0.932 . S
C533 C531 1.408 . S
C533 C532 1.310 . S
C533 H553 0.930 . S
C534 C535 1.474 . S
C534 C536 1.285 . S
C534 H554 0.929 . S
C535 C532 1.461 . S
C535 C534 1.474 . S
C536 C531 1.342 . S
C536 C534 1.285 . S
C536 H555 0.930 . S
C537 C540 1.424 . S
C537 C542 1.245 . S
C537 C543 1.428 . S
C538 C541 1.260 . S
C538 C542 1.477 . S
C538 H556 0.932 . S
C539 C540 1.384 . S
C539 C541 1.479 . S
C539 H557 0.929 . S
C540 C537 1.424 . S
C540 C539 1.384 . S
C540 H558 0.928 . S
C541 C538 1.260 . S
C541 C539 1.479 . S
C542 C537 1.245 . S
C542 C538 1.477 . S
C542 H559 0.932 . S
C543 U526 2.882 . S
C543 C537 1.428 . S
C543 O546 1.301 . S
C543 O547 1.282 . S
O544 U526 2.441 . S
O544 C530 1.249 . S
O545 U526 2.420 . S
O545 C530 1.202 . S
O546 U526 2.455 . S
O546 C543 1.301 . S
O547 U526 2.449 . S
O547 C543 1.282 . S
H548 C521 0.931 . S
H549 C523 0.929 . S
H550 C524 0.930 . S
H551 C525 0.931 . S
H552 C532 0.932 . S
H553 C533 0.930 . S
H554 C534 0.929 . S
H555 C536 0.930 . S
H556 C538 0.932 . S
H557 C539 0.929 . S
H558 C540 0.928 . S
H559 C542 0.932 . S
C560 C561 1.264 . S
C560 C565 1.479 . S
C560 C570 1.465 . S
C561 C560 1.264 . S
C561 C563 1.339 . S
C561 H588 0.931 . S
C562 C563 1.395 . S
C562 C564 1.320 . S
C563 C561 1.339 . S
C563 C562 1.395 . S
C563 H589 0.929 . S
C564 C562 1.320 . S
C564 C565 1.405 . S
C564 H590 0.930 . S
C565 C560 1.479 . S
C565 C564 1.405 . S
C565 H591 0.931 . S
U566 O567 2.454 . S
U566 O568 2.458 . S
U566 C569 2.984 . S
U566 C570 2.847 . S
U566 C583 2.882 . S
U566 O584 2.441 . S
U566 O585 2.420 . S
U566 O586 2.455 . S
U566 O587 2.449 . S
O567 U566 2.454 . S
O567 C569 1.353 . S
O568 U566 2.458 . S
O568 C569 1.286 . S
C569 U566 2.984 . S
C569 O567 1.353 . S
C569 O568 1.286 . S
C569 C571 1.363 . S
C570 C560 1.465 . S
C570 U566 2.847 . S
C570 O584 1.249 . S
C570 O585 1.202 . S
C571 C569 1.363 . S
C571 C573 1.408 . S
C571 C576 1.342 . S
C572 C573 1.310 . S
C572 C575 1.461 . S
C572 H592 0.932 . S
C573 C571 1.408 . S
C573 C572 1.310 . S
C573 H593 0.930 . S
C574 C575 1.474 . S
C574 C576 1.285 . S
C574 H594 0.929 . S
C575 C572 1.461 . S
C575 C574 1.474 . S
C576 C571 1.342 . S
C576 C574 1.285 . S
C576 H595 0.930 . S
C577 C580 1.424 . S
C577 C582 1.245 . S
C577 C583 1.428 . S
C578 C581 1.260 . S
C578 C582 1.477 . S
C578 H596 0.932 . S
C579 C580 1.384 . S
C579 C581 1.479 . S
C579 H597 0.929 . S
C580 C577 1.424 . S
C580 C579 1.384 . S
C580 H598 0.928 . S
C581 C578 1.260 . S
C581 C579 1.479 . S
C582 C577 1.245 . S
C582 C578 1.477 . S
C582 H599 0.932 . S
C583 U566 2.882 . S
C583 C577 1.428 . S
C583 O586 1.301 . S
C583 O587 1.282 . S
O584 U566 2.441 . S
O584 C570 1.249 . S
O585 U566 2.420 . S
O585 C570 1.202 . S
O586 U566 2.455 . S
O586 C583 1.301 . S
O587 U566 2.449 . S
O587 C583 1.282 . S
H588 C561 0.931 . S
H589 C563 0.929 . S
H590 C564 0.930 . S
H591 C565 0.931 . S
H592 C572 0.932 . S
H593 C573 0.930 . S
H594 C574 0.929 . S
H595 C576 0.930 . S
H596 C578 0.932 . S
H597 C579 0.929 . S
H598 C580 0.928 . S
H599 C582 0.932 . S
C600 C601 1.264 . S
C600 C605 1.479 . S
C600 C610 1.465 . S
C601 C600 1.264 . S
C601 C603 1.339 . S
C601 H628 0.931 . S
C602 C603 1.395 . S
C602 C604 1.320 . S
C603 C601 1.339 . S
C603 C602 1.395 . S
C603 H629 0.929 . S
C604 C602 1.320 . S
C604 C605 1.405 . S
C604 H630 0.930 . S
C605 C600 1.479 . S
C605 C604 1.405 . S
C605 H631 0.931 . S
U606 O607 2.454 . S
U606 O608 2.458 . S
U606 C609 2.984 . S
U606 C610 2.847 . S
U606 C623 2.882 . S
U606 O624 2.441 . S
U606 O625 2.420 . S
U606 O626 2.455 . S
U606 O627 2.449 . S
O607 U606 2.454 . S
O607 C609 1.353 . S
O608 U606 2.458 . S
O608 C609 1.286 . S
C609 U606 2.984 . S
C609 O607 1.353 . S
C609 O608 1.286 . S
C609 C611 1.363 . S
C610 C600 1.465 . S
C610 U606 2.847 . S
C610 O624 1.249 . S
C610 O625 1.202 . S
C611 C609 1.363 . S
C611 C613 1.408 . S
C611 C616 1.342 . S
C612 C613 1.310 . S
C612 C615 1.461 . S
C612 H632 0.932 . S
C613 C611 1.408 . S
C613 C612 1.310 . S
C613 H633 0.930 . S
C614 C615 1.474 . S
C614 C616 1.285 . S
C614 H634 0.929 . S
C615 C612 1.461 . S
C615 C614 1.474 . S
C616 C611 1.342 . S
C616 C614 1.285 . S
C616 H635 0.930 . S
C617 C620 1.424 . S
C617 C622 1.245 . S
C617 C623 1.428 . S
C618 C621 1.260 . S
C618 C622 1.477 . S
C618 H636 0.932 . S
C619 C620 1.384 . S
C619 C621 1.479 . S
C619 H637 0.929 . S
C620 C617 1.424 . S
C620 C619 1.384 . S
C620 H638 0.928 . S
C621 C618 1.260 . S
C621 C619 1.479 . S
C622 C617 1.245 . S
C622 C618 1.477 . S
C622 H639 0.932 . S
C623 U606 2.882 . S
C623 C617 1.428 . S
C623 O626 1.301 . S
C623 O627 1.282 . S
O624 U606 2.441 . S
O624 C610 1.249 . S
O625 U606 2.420 . S
O625 C610 1.202 . S
O626 U606 2.455 . S
O626 C623 1.301 . S
O627 U606 2.449 . S
O627 C623 1.282 . S
H628 C601 0.931 . S
H629 C603 0.929 . S
H630 C604 0.930 . S
H631 C605 0.931 . S
H632 C612 0.932 . S
H633 C613 0.930 . S
H634 C614 0.929 . S
H635 C616 0.930 . S
H636 C618 0.932 . S
H637 C619 0.929 . S
H638 C620 0.928 . S
H639 C622 0.932 . S
C640 C641 1.264 . S
C640 C645 1.479 . S
C640 C650 1.465 . S
C641 C640 1.264 . S
C641 C643 1.339 . S
C641 H668 0.931 . S
C642 C643 1.395 . S
C642 C644 1.320 . S
C643 C641 1.339 . S
C643 C642 1.395 . S
C643 H669 0.929 . S
C644 C642 1.320 . S
C644 C645 1.405 . S
C644 H670 0.930 . S
C645 C640 1.479 . S
C645 C644 1.405 . S
C645 H671 0.931 . S
U646 O647 2.454 . S
U646 O648 2.458 . S
U646 C649 2.984 . S
U646 C650 2.847 . S
U646 C663 2.882 . S
U646 O664 2.441 . S
U646 O665 2.420 . S
U646 O666 2.455 . S
U646 O667 2.449 . S
O647 U646 2.454 . S
O647 C649 1.353 . S
O648 U646 2.458 . S
O648 C649 1.286 . S
C649 U646 2.984 . S
C649 O647 1.353 . S
C649 O648 1.286 . S
C649 C651 1.363 . S
C650 C640 1.465 . S
C650 U646 2.847 . S
C650 O664 1.249 . S
C650 O665 1.202 . S
C651 C649 1.363 . S
C651 C653 1.408 . S
C651 C656 1.342 . S
C652 C653 1.310 . S
C652 C655 1.461 . S
C652 H672 0.932 . S
C653 C651 1.408 . S
C653 C652 1.310 . S
C653 H673 0.930 . S
C654 C655 1.474 . S
C654 C656 1.285 . S
C654 H674 0.929 . S
C655 C652 1.461 . S
C655 C654 1.474 . S
C656 C651 1.342 . S
C656 C654 1.285 . S
C656 H675 0.930 . S
C657 C660 1.424 . S
C657 C662 1.245 . S
C657 C663 1.428 . S
C658 C661 1.260 . S
C658 C662 1.477 . S
C658 H676 0.932 . S
C659 C660 1.384 . S
C659 C661 1.479 . S
C659 H677 0.929 . S
C660 C657 1.424 . S
C660 C659 1.384 . S
C660 H678 0.928 . S
C661 C658 1.260 . S
C661 C659 1.479 . S
C662 C657 1.245 . S
C662 C658 1.477 . S
C662 H679 0.932 . S
C663 U646 2.882 . S
C663 C657 1.428 . S
C663 O666 1.301 . S
C663 O667 1.282 . S
O664 U646 2.441 . S
O664 C650 1.249 . S
O665 U646 2.420 . S
O665 C650 1.202 . S
O666 U646 2.455 . S
O666 C663 1.301 . S
O667 U646 2.449 . S
O667 C663 1.282 . S
H668 C641 0.931 . S
H669 C643 0.929 . S
H670 C644 0.930 . S
H671 C645 0.931 . S
H672 C652 0.932 . S
H673 C653 0.930 . S
H674 C654 0.929 . S
H675 C656 0.930 . S
H676 C658 0.932 . S
H677 C659 0.929 . S
H678 C660 0.928 . S
H679 C662 0.932 . S
C680 C681 1.264 . S
C680 C685 1.479 . S
C680 C690 1.465 . S
C681 C680 1.264 . S
C681 C683 1.339 . S
C681 H708 0.931 . S
C682 C683 1.395 . S
C682 C684 1.320 . S
C683 C681 1.339 . S
C683 C682 1.395 . S
C683 H709 0.929 . S
C684 C682 1.320 . S
C684 C685 1.405 . S
C684 H710 0.930 . S
C685 C680 1.479 . S
C685 C684 1.405 . S
C685 H711 0.931 . S
U686 O687 2.454 . S
U686 O688 2.458 . S
U686 C689 2.984 . S
U686 C690 2.847 . S
U686 C703 2.882 . S
U686 O704 2.441 . S
U686 O705 2.420 . S
U686 O706 2.455 . S
U686 O707 2.449 . S
O687 U686 2.454 . S
O687 C689 1.353 . S
O688 U686 2.458 . S
O688 C689 1.286 . S
C689 U686 2.984 . S
C689 O687 1.353 . S
C689 O688 1.286 . S
C689 C691 1.363 . S
C690 C680 1.465 . S
C690 U686 2.847 . S
C690 O704 1.249 . S
C690 O705 1.202 . S
C691 C689 1.363 . S
C691 C693 1.408 . S
C691 C696 1.342 . S
C692 C693 1.310 . S
C692 C695 1.461 . S
C692 H712 0.932 . S
C693 C691 1.408 . S
C693 C692 1.310 . S
C693 H713 0.930 . S
C694 C695 1.474 . S
C694 C696 1.285 . S
C694 H714 0.929 . S
C695 C692 1.461 . S
C695 C694 1.474 . S
C696 C691 1.342 . S
C696 C694 1.285 . S
C696 H715 0.930 . S
C697 C700 1.424 . S
C697 C702 1.245 . S
C697 C703 1.428 . S
C698 C701 1.260 . S
C698 C702 1.477 . S
C698 H716 0.932 . S
C699 C700 1.384 . S
C699 C701 1.479 . S
C699 H717 0.929 . S
C700 C697 1.424 . S
C700 C699 1.384 . S
C700 H718 0.928 . S
C701 C698 1.260 . S
C701 C699 1.479 . S
C702 C697 1.245 . S
C702 C698 1.477 . S
C702 H719 0.932 . S
C703 U686 2.882 . S
C703 C697 1.428 . S
C703 O706 1.301 . S
C703 O707 1.282 . S
O704 U686 2.441 . S
O704 C690 1.249 . S
O705 U686 2.420 . S
O705 C690 1.202 . S
O706 U686 2.455 . S
O706 C703 1.301 . S
O707 U686 2.449 . S
O707 C703 1.282 . S
H708 C681 0.931 . S
H709 C683 0.929 . S
H710 C684 0.930 . S
H711 C685 0.931 . S
H712 C692 0.932 . S
H713 C693 0.930 . S
H714 C694 0.929 . S
H715 C696 0.930 . S
H716 C698 0.932 . S
H717 C699 0.929 . S
H718 C700 0.928 . S
H719 C702 0.932 . S
C720 C721 1.264 . S
C720 C725 1.479 . S
C720 C730 1.465 . S
C721 C720 1.264 . S
C721 C723 1.339 . S
C721 H748 0.931 . S
C722 C723 1.395 . S
C722 C724 1.320 . S
C723 C721 1.339 . S
C723 C722 1.395 . S
C723 H749 0.929 . S
C724 C722 1.320 . S
C724 C725 1.405 . S
C724 H750 0.930 . S
C725 C720 1.479 . S
C725 C724 1.405 . S
C725 H751 0.931 . S
U726 O727 2.454 . S
U726 O728 2.458 . S
U726 C729 2.984 . S
U726 C730 2.847 . S
U726 C743 2.882 . S
U726 O744 2.441 . S
U726 O745 2.420 . S
U726 O746 2.455 . S
U726 O747 2.449 . S
O727 U726 2.454 . S
O727 C729 1.353 . S
O728 U726 2.458 . S
O728 C729 1.286 . S
C729 U726 2.984 . S
C729 O727 1.353 . S
C729 O728 1.286 . S
C729 C731 1.363 . S
C730 C720 1.465 . S
C730 U726 2.847 . S
C730 O744 1.249 . S
C730 O745 1.202 . S
C731 C729 1.363 . S
C731 C733 1.408 . S
C731 C736 1.342 . S
C732 C733 1.310 . S
C732 C735 1.461 . S
C732 H752 0.932 . S
C733 C731 1.408 . S
C733 C732 1.310 . S
C733 H753 0.930 . S
C734 C735 1.474 . S
C734 C736 1.285 . S
C734 H754 0.929 . S
C735 C732 1.461 . S
C735 C734 1.474 . S
C736 C731 1.342 . S
C736 C734 1.285 . S
C736 H755 0.930 . S
C737 C740 1.424 . S
C737 C742 1.245 . S
C737 C743 1.428 . S
C738 C741 1.260 . S
C738 C742 1.477 . S
C738 H756 0.932 . S
C739 C740 1.384 . S
C739 C741 1.479 . S
C739 H757 0.929 . S
C740 C737 1.424 . S
C740 C739 1.384 . S
C740 H758 0.928 . S
C741 C738 1.260 . S
C741 C739 1.479 . S
C742 C737 1.245 . S
C742 C738 1.477 . S
C742 H759 0.932 . S
C743 U726 2.882 . S
C743 C737 1.428 . S
C743 O746 1.301 . S
C743 O747 1.282 . S
O744 U726 2.441 . S
O744 C730 1.249 . S
O745 U726 2.420 . S
O745 C730 1.202 . S
O746 U726 2.455 . S
O746 C743 1.301 . S
O747 U726 2.449 . S
O747 C743 1.282 . S
H748 C721 0.931 . S
H749 C723 0.929 . S
H750 C724 0.930 . S
H751 C725 0.931 . S
H752 C732 0.932 . S
H753 C733 0.930 . S
H754 C734 0.929 . S
H755 C736 0.930 . S
H756 C738 0.932 . S
H757 C739 0.929 . S
H758 C740 0.928 . S
H759 C742 0.932 . S
C760 C761 1.264 . S
C760 C765 1.479 . S
C760 C770 1.465 . S
C761 C760 1.264 . S
C761 C763 1.339 . S
C761 H788 0.931 . S
C762 C763 1.395 . S
C762 C764 1.320 . S
C763 C761 1.339 . S
C763 C762 1.395 . S
C763 H789 0.929 . S
C764 C762 1.320 . S
C764 C765 1.405 . S
C764 H790 0.930 . S
C765 C760 1.479 . S
C765 C764 1.405 . S
C765 H791 0.931 . S
U766 O767 2.454 . S
U766 O768 2.458 . S
U766 C769 2.984 . S
U766 C770 2.847 . S
U766 C783 2.882 . S
U766 O784 2.441 . S
U766 O785 2.420 . S
U766 O786 2.455 . S
U766 O787 2.449 . S
O767 U766 2.454 . S
O767 C769 1.353 . S
O768 U766 2.458 . S
O768 C769 1.286 . S
C769 U766 2.984 . S
C769 O767 1.353 . S
C769 O768 1.286 . S
C769 C771 1.363 . S
C770 C760 1.465 . S
C770 U766 2.847 . S
C770 O784 1.249 . S
C770 O785 1.202 . S
C771 C769 1.363 . S
C771 C773 1.408 . S
C771 C776 1.342 . S
C772 C773 1.310 . S
C772 C775 1.461 . S
C772 H792 0.932 . S
C773 C771 1.408 . S
C773 C772 1.310 . S
C773 H793 0.930 . S
C774 C775 1.474 . S
C774 C776 1.285 . S
C774 H794 0.929 . S
C775 C772 1.461 . S
C775 C774 1.474 . S
C776 C771 1.342 . S
C776 C774 1.285 . S
C776 H795 0.930 . S
C777 C780 1.424 . S
C777 C782 1.245 . S
C777 C783 1.428 . S
C778 C781 1.260 . S
C778 C782 1.477 . S
C778 H796 0.932 . S
C779 C780 1.384 . S
C779 C781 1.479 . S
C779 H797 0.929 . S
C780 C777 1.424 . S
C780 C779 1.384 . S
C780 H798 0.928 . S
C781 C778 1.260 . S
C781 C779 1.479 . S
C782 C777 1.245 . S
C782 C778 1.477 . S
C782 H799 0.932 . S
C783 U766 2.882 . S
C783 C777 1.428 . S
C783 O786 1.301 . S
C783 O787 1.282 . S
O784 U766 2.441 . S
O784 C770 1.249 . S
O785 U766 2.420 . S
O785 C770 1.202 . S
O786 U766 2.455 . S
O786 C783 1.301 . S
O787 U766 2.449 . S
O787 C783 1.282 . S
H788 C761 0.931 . S
H789 C763 0.929 . S
H790 C764 0.930 . S
H791 C765 0.931 . S
H792 C772 0.932 . S
H793 C773 0.930 . S
H794 C774 0.929 . S
H795 C776 0.930 . S
H796 C778 0.932 . S
H797 C779 0.929 . S
H798 C780 0.928 . S
H799 C782 0.932 . S
C800 C801 1.264 . S
C800 C805 1.479 . S
C800 C810 1.465 . S
C801 C800 1.264 . S
C801 C803 1.339 . S
C801 H828 0.931 . S
C802 C803 1.395 . S
C802 C804 1.320 . S
C803 C801 1.339 . S
C803 C802 1.395 . S
C803 H829 0.929 . S
C804 C802 1.320 . S
C804 C805 1.405 . S
C804 H830 0.930 . S
C805 C800 1.479 . S
C805 C804 1.405 . S
C805 H831 0.931 . S
U806 O807 2.454 . S
U806 O808 2.458 . S
U806 C809 2.984 . S
U806 C810 2.847 . S
U806 C823 2.882 . S
U806 O824 2.441 . S
U806 O825 2.420 . S
U806 O826 2.455 . S
U806 O827 2.449 . S
O807 U806 2.454 . S
O807 C809 1.353 . S
O808 U806 2.458 . S
O808 C809 1.286 . S
C809 U806 2.984 . S
C809 O807 1.353 . S
C809 O808 1.286 . S
C809 C811 1.363 . S
C810 C800 1.465 . S
C810 U806 2.847 . S
C810 O824 1.249 . S
C810 O825 1.202 . S
C811 C809 1.363 . S
C811 C813 1.408 . S
C811 C816 1.342 . S
C812 C813 1.310 . S
C812 C815 1.461 . S
C812 H832 0.932 . S
C813 C811 1.408 . S
C813 C812 1.310 . S
C813 H833 0.930 . S
C814 C815 1.474 . S
C814 C816 1.285 . S
C814 H834 0.929 . S
C815 C812 1.461 . S
C815 C814 1.474 . S
C816 C811 1.342 . S
C816 C814 1.285 . S
C816 H835 0.930 . S
C817 C820 1.424 . S
C817 C822 1.245 . S
C817 C823 1.428 . S
C818 C821 1.260 . S
C818 C822 1.477 . S
C818 H836 0.932 . S
C819 C820 1.384 . S
C819 C821 1.479 . S
C819 H837 0.929 . S
C820 C817 1.424 . S
C820 C819 1.384 . S
C820 H838 0.928 . S
C821 C818 1.260 . S
C821 C819 1.479 . S
C822 C817 1.245 . S
C822 C818 1.477 . S
C822 H839 0.932 . S
C823 U806 2.882 . S
C823 C817 1.428 . S
C823 O826 1.301 . S
C823 O827 1.282 . S
O824 U806 2.441 . S
O824 C810 1.249 . S
O825 U806 2.420 . S
O825 C810 1.202 . S
O826 U806 2.455 . S
O826 C823 1.301 . S
O827 U806 2.449 . S
O827 C823 1.282 . S
H828 C801 0.931 . S
H829 C803 0.929 . S
H830 C804 0.930 . S
H831 C805 0.931 . S
H832 C812 0.932 . S
H833 C813 0.930 . S
H834 C814 0.929 . S
H835 C816 0.930 . S
H836 C818 0.932 . S
H837 C819 0.929 . S
H838 C820 0.928 . S
H839 C822 0.932 . S
C840 C841 1.264 . S
C840 C845 1.479 . S
C840 C850 1.465 . S
C841 C840 1.264 . S
C841 C843 1.339 . S
C841 H868 0.931 . S
C842 C843 1.395 . S
C842 C844 1.320 . S
C843 C841 1.339 . S
C843 C842 1.395 . S
C843 H869 0.929 . S
C844 C842 1.320 . S
C844 C845 1.405 . S
C844 H870 0.930 . S
C845 C840 1.479 . S
C845 C844 1.405 . S
C845 H871 0.931 . S
U846 O847 2.454 . S
U846 O848 2.458 . S
U846 C849 2.984 . S
U846 C850 2.847 . S
U846 C863 2.882 . S
U846 O864 2.441 . S
U846 O865 2.420 . S
U846 O866 2.455 . S
U846 O867 2.449 . S
O847 U846 2.454 . S
O847 C849 1.353 . S
O848 U846 2.458 . S
O848 C849 1.286 . S
C849 U846 2.984 . S
C849 O847 1.353 . S
C849 O848 1.286 . S
C849 C851 1.363 . S
C850 C840 1.465 . S
C850 U846 2.847 . S
C850 O864 1.249 . S
C850 O865 1.202 . S
C851 C849 1.363 . S
C851 C853 1.408 . S
C851 C856 1.342 . S
C852 C853 1.310 . S
C852 C855 1.461 . S
C852 H872 0.932 . S
C853 C851 1.408 . S
C853 C852 1.310 . S
C853 H873 0.930 . S
C854 C855 1.474 . S
C854 C856 1.285 . S
C854 H874 0.929 . S
C855 C852 1.461 . S
C855 C854 1.474 . S
C856 C851 1.342 . S
C856 C854 1.285 . S
C856 H875 0.930 . S
C857 C860 1.424 . S
C857 C862 1.245 . S
C857 C863 1.428 . S
C858 C861 1.260 . S
C858 C862 1.477 . S
C858 H876 0.932 . S
C859 C860 1.384 . S
C859 C861 1.479 . S
C859 H877 0.929 . S
C860 C857 1.424 . S
C860 C859 1.384 . S
C860 H878 0.928 . S
C861 C858 1.260 . S
C861 C859 1.479 . S
C862 C857 1.245 . S
C862 C858 1.477 . S
C862 H879 0.932 . S
C863 U846 2.882 . S
C863 C857 1.428 . S
C863 O866 1.301 . S
C863 O867 1.282 . S
O864 U846 2.441 . S
O864 C850 1.249 . S
O865 U846 2.420 . S
O865 C850 1.202 . S
O866 U846 2.455 . S
O866 C863 1.301 . S
O867 U846 2.449 . S
O867 C863 1.282 . S
H868 C841 0.931 . S
H869 C843 0.929 . S
H870 C844 0.930 . S
H871 C845 0.931 . S
H872 C852 0.932 . S
H873 C853 0.930 . S
H874 C854 0.929 . S
H875 C856 0.930 . S
H876 C858 0.932 . S
H877 C859 0.929 . S
H878 C860 0.928 . S
H879 C862 0.932 . S
C880 C881 1.264 . S
C880 C885 1.479 . S
C880 C890 1.465 . S
C881 C880 1.264 . S
C881 C883 1.339 . S
C881 H908 0.931 . S
C882 C883 1.395 . S
C882 C884 1.320 . S
C883 C881 1.339 . S
C883 C882 1.395 . S
C883 H909 0.929 . S
C884 C882 1.320 . S
C884 C885 1.405 . S
C884 H910 0.930 . S
C885 C880 1.479 . S
C885 C884 1.405 . S
C885 H911 0.931 . S
U886 O887 2.454 . S
U886 O888 2.458 . S
U886 C889 2.984 . S
U886 C890 2.847 . S
U886 C903 2.882 . S
U886 O904 2.441 . S
U886 O905 2.420 . S
U886 O906 2.455 . S
U886 O907 2.449 . S
O887 U886 2.454 . S
O887 C889 1.353 . S
O888 U886 2.458 . S
O888 C889 1.286 . S
C889 U886 2.984 . S
C889 O887 1.353 . S
C889 O888 1.286 . S
C889 C891 1.363 . S
C890 C880 1.465 . S
C890 U886 2.847 . S
C890 O904 1.249 . S
C890 O905 1.202 . S
C891 C889 1.363 . S
C891 C893 1.408 . S
C891 C896 1.342 . S
C892 C893 1.310 . S
C892 C895 1.461 . S
C892 H912 0.932 . S
C893 C891 1.408 . S
C893 C892 1.310 . S
C893 H913 0.930 . S
C894 C895 1.474 . S
C894 C896 1.285 . S
C894 H914 0.929 . S
C895 C892 1.461 . S
C895 C894 1.474 . S
C896 C891 1.342 . S
C896 C894 1.285 . S
C896 H915 0.930 . S
C897 C900 1.424 . S
C897 C902 1.245 . S
C897 C903 1.428 . S
C898 C901 1.260 . S
C898 C902 1.477 . S
C898 H916 0.932 . S
C899 C900 1.384 . S
C899 C901 1.479 . S
C899 H917 0.929 . S
C900 C897 1.424 . S
C900 C899 1.384 . S
C900 H918 0.928 . S
C901 C898 1.260 . S
C901 C899 1.479 . S
C902 C897 1.245 . S
C902 C898 1.477 . S
C902 H919 0.932 . S
C903 U886 2.882 . S
C903 C897 1.428 . S
C903 O906 1.301 . S
C903 O907 1.282 . S
O904 U886 2.441 . S
O904 C890 1.249 . S
O905 U886 2.420 . S
O905 C890 1.202 . S
O906 U886 2.455 . S
O906 C903 1.301 . S
O907 U886 2.449 . S
O907 C903 1.282 . S
H908 C881 0.931 . S
H909 C883 0.929 . S
H910 C884 0.930 . S
H911 C885 0.931 . S
H912 C892 0.932 . S
H913 C893 0.930 . S
H914 C894 0.929 . S
H915 C896 0.930 . S
H916 C898 0.932 . S
H917 C899 0.929 . S
H918 C900 0.928 . S
H919 C902 0.932 . S
C920 C921 1.264 . S
C920 C925 1.479 . S
C920 C930 1.465 . S
C921 C920 1.264 . S
C921 C923 1.339 . S
C921 H948 0.931 . S
C922 C923 1.395 . S
C922 C924 1.320 . S
C923 C921 1.339 . S
C923 C922 1.395 . S
C923 H949 0.929 . S
C924 C922 1.320 . S
C924 C925 1.405 . S
C924 H950 0.930 . S
C925 C920 1.479 . S
C925 C924 1.405 . S
C925 H951 0.931 . S
U926 O927 2.454 . S
U926 O928 2.458 . S
U926 C929 2.984 . S
U926 C930 2.847 . S
U926 C943 2.882 . S
U926 O944 2.441 . S
U926 O945 2.420 . S
U926 O946 2.455 . S
U926 O947 2.449 . S
O927 U926 2.454 . S
O927 C929 1.353 . S
O928 U926 2.458 . S
O928 C929 1.286 . S
C929 U926 2.984 . S
C929 O927 1.353 . S
C929 O928 1.286 . S
C929 C931 1.363 . S
C930 C920 1.465 . S
C930 U926 2.847 . S
C930 O944 1.249 . S
C930 O945 1.202 . S
C931 C929 1.363 . S
C931 C933 1.408 . S
C931 C936 1.342 . S
C932 C933 1.310 . S
C932 C935 1.461 . S
C932 H952 0.932 . S
C933 C931 1.408 . S
C933 C932 1.310 . S
C933 H953 0.930 . S
C934 C935 1.474 . S
C934 C936 1.285 . S
C934 H954 0.929 . S
C935 C932 1.461 . S
C935 C934 1.474 . S
C936 C931 1.342 . S
C936 C934 1.285 . S
C936 H955 0.930 . S
C937 C940 1.424 . S
C937 C942 1.245 . S
C937 C943 1.428 . S
C938 C941 1.260 . S
C938 C942 1.477 . S
C938 H956 0.932 . S
C939 C940 1.384 . S
C939 C941 1.479 . S
C939 H957 0.929 . S
C940 C937 1.424 . S
C940 C939 1.384 . S
C940 H958 0.928 . S
C941 C938 1.260 . S
C941 C939 1.479 . S
C942 C937 1.245 . S
C942 C938 1.477 . S
C942 H959 0.932 . S
C943 U926 2.882 . S
C943 C937 1.428 . S
C943 O946 1.301 . S
C943 O947 1.282 . S
O944 U926 2.441 . S
O944 C930 1.249 . S
O945 U926 2.420 . S
O945 C930 1.202 . S
O946 U926 2.455 . S
O946 C943 1.301 . S
O947 U926 2.449 . S
O947 C943 1.282 . S
H948 C921 0.931 . S
H949 C923 0.929 . S
H950 C924 0.930 . S
H951 C925 0.931 . S
H952 C932 0.932 . S
H953 C933 0.930 . S
H954 C934 0.929 . S
H955 C936 0.930 . S
H956 C938 0.932 . S
H957 C939 0.929 . S
H958 C940 0.928 . S
H959 C942 0.932 . S
C960 C961 1.264 . S
C960 C965 1.479 . S
C960 C970 1.465 . S
C961 C960 1.264 . S
C961 C963 1.339 . S
C961 H988 0.931 . S
C962 C963 1.395 . S
C962 C964 1.320 . S
C963 C961 1.339 . S
C963 C962 1.395 . S
C963 H989 0.929 . S
C964 C962 1.320 . S
C964 C965 1.405 . S
C964 H990 0.930 . S
C965 C960 1.479 . S
C965 C964 1.405 . S
C965 H991 0.931 . S
U966 O967 2.454 . S
U966 O968 2.458 . S
U966 C969 2.984 . S
U966 C970 2.847 . S
U966 C983 2.882 . S
U966 O984 2.441 . S
U966 O985 2.420 . S
U966 O986 2.455 . S
U966 O987 2.449 . S
O967 U966 2.454 . S
O967 C969 1.353 . S
O968 U966 2.458 . S
O968 C969 1.286 . S
C969 U966 2.984 . S
C969 O967 1.353 . S
C969 O968 1.286 . S
C969 C971 1.363 . S
C970 C960 1.465 . S
C970 U966 2.847 . S
C970 O984 1.249 . S
C970 O985 1.202 . S
C971 C969 1.363 . S
C971 C973 1.408 . S
C971 C976 1.342 . S
C972 C973 1.310 . S
C972 C975 1.461 . S
C972 H992 0.932 . S
C973 C971 1.408 . S
C973 C972 1.310 . S
C973 H993 0.930 . S
C974 C975 1.474 . S
C974 C976 1.285 . S
C974 H994 0.929 . S
C975 C972 1.461 . S
C975 C974 1.474 . S
C976 C971 1.342 . S
C976 C974 1.285 . S
C976 H995 0.930 . S
C977 C980 1.424 . S
C977 C982 1.245 . S
C977 C983 1.428 . S
C978 C981 1.260 . S
C978 C982 1.477 . S
C978 H996 0.932 . S
C979 C980 1.384 . S
C979 C981 1.479 . S
C979 H997 0.929 . S
C980 C977 1.424 . S
C980 C979 1.384 . S
C980 H998 0.928 . S
C981 C978 1.260 . S
C981 C979 1.479 . S
C982 C977 1.245 . S
C982 C978 1.477 . S
C982 H999 0.932 . S
C983 U966 2.882 . S
C983 C977 1.428 . S
C983 O986 1.301 . S
C983 O987 1.282 . S
O984 U966 2.441 . S
O984 C970 1.249 . S
O985 U966 2.420 . S
O985 C970 1.202 . S
O986 U966 2.455 . S
O986 C983 1.301 . S
O987 U966 2.449 . S
O987 C983 1.282 . S
H988 C961 0.931 . S
H989 C963 0.929 . S
H990 C964 0.930 . S
H991 C965 0.931 . S
H992 C972 0.932 . S
H993 C973 0.930 . S
H994 C974 0.929 . S
H995 C976 0.930 . S
H996 C978 0.932 . S
H997 C979 0.929 . S
H998 C980 0.928 . S
H999 C982 0.932 . S
C1000 C1001 1.264 . S
C1000 C1005 1.479 . S
C1000 C1010 1.465 . S
C1001 C1000 1.264 . S
C1001 C1003 1.339 . S
C1001 H1028 0.931 . S
C1002 C1003 1.395 . S
C1002 C1004 1.320 . S
C1003 C1001 1.339 . S
C1003 C1002 1.395 . S
C1003 H1029 0.929 . S
C1004 C1002 1.320 . S
C1004 C1005 1.405 . S
C1004 H1030 0.930 . S
C1005 C1000 1.479 . S
C1005 C1004 1.405 . S
C1005 H1031 0.931 . S
U1006 O1007 2.454 . S
U1006 O1008 2.458 . S
U1006 C1009 2.984 . S
U1006 C1010 2.847 . S
U1006 C1023 2.882 . S
U1006 O1024 2.441 . S
U1006 O1025 2.420 . S
U1006 O1026 2.455 . S
U1006 O1027 2.449 . S
O1007 U1006 2.454 . S
O1007 C1009 1.353 . S
O1008 U1006 2.458 . S
O1008 C1009 1.286 . S
C1009 U1006 2.984 . S
C1009 O1007 1.353 . S
C1009 O1008 1.286 . S
C1009 C1011 1.363 . S
C1010 C1000 1.465 . S
C1010 U1006 2.847 . S
C1010 O1024 1.249 . S
C1010 O1025 1.202 . S
C1011 C1009 1.363 . S
C1011 C1013 1.408 . S
C1011 C1016 1.342 . S
C1012 C1013 1.310 . S
C1012 C1015 1.461 . S
C1012 H1032 0.932 . S
C1013 C1011 1.408 . S
C1013 C1012 1.310 . S
C1013 H1033 0.930 . S
C1014 C1015 1.474 . S
C1014 C1016 1.285 . S
C1014 H1034 0.929 . S
C1015 C1012 1.461 . S
C1015 C1014 1.474 . S
C1016 C1011 1.342 . S
C1016 C1014 1.285 . S
C1016 H1035 0.930 . S
C1017 C1020 1.424 . S
C1017 C1022 1.245 . S
C1017 C1023 1.428 . S
C1018 C1021 1.260 . S
C1018 C1022 1.477 . S
C1018 H1036 0.932 . S
C1019 C1020 1.384 . S
C1019 C1021 1.479 . S
C1019 H1037 0.929 . S
C1020 C1017 1.424 . S
C1020 C1019 1.384 . S
C1020 H1038 0.928 . S
C1021 C1018 1.260 . S
C1021 C1019 1.479 . S
C1022 C1017 1.245 . S
C1022 C1018 1.477 . S
C1022 H1039 0.932 . S
C1023 U1006 2.882 . S
C1023 C1017 1.428 . S
C1023 O1026 1.301 . S
C1023 O1027 1.282 . S
O1024 U1006 2.441 . S
O1024 C1010 1.249 . S
O1025 U1006 2.420 . S
O1025 C1010 1.202 . S
O1026 U1006 2.455 . S
O1026 C1023 1.301 . S
O1027 U1006 2.449 . S
O1027 C1023 1.282 . S
H1028 C1001 0.931 . S
H1029 C1003 0.929 . S
H1030 C1004 0.930 . S
H1031 C1005 0.931 . S
H1032 C1012 0.932 . S
H1033 C1013 0.930 . S
H1034 C1014 0.929 . S
H1035 C1016 0.930 . S
H1036 C1018 0.932 . S
H1037 C1019 0.929 . S
H1038 C1020 0.928 . S
H1039 C1022 0.932 . S
C1040 C1041 1.264 . S
C1040 C1045 1.479 . S
C1040 C1050 1.465 . S
C1041 C1040 1.264 . S
C1041 C1043 1.339 . S
C1041 H1068 0.931 . S
C1042 C1043 1.395 . S
C1042 C1044 1.320 . S
C1043 C1041 1.339 . S
C1043 C1042 1.395 . S
C1043 H1069 0.929 . S
C1044 C1042 1.320 . S
C1044 C1045 1.405 . S
C1044 H1070 0.930 . S
C1045 C1040 1.479 . S
C1045 C1044 1.405 . S
C1045 H1071 0.931 . S
U1046 O1047 2.454 . S
U1046 O1048 2.458 . S
U1046 C1049 2.984 . S
U1046 C1050 2.847 . S
U1046 C1063 2.882 . S
U1046 O1064 2.441 . S
U1046 O1065 2.420 . S
U1046 O1066 2.455 . S
U1046 O1067 2.449 . S
O1047 U1046 2.454 . S
O1047 C1049 1.353 . S
O1048 U1046 2.458 . S
O1048 C1049 1.286 . S
C1049 U1046 2.984 . S
C1049 O1047 1.353 . S
C1049 O1048 1.286 . S
C1049 C1051 1.363 . S
C1050 C1040 1.465 . S
C1050 U1046 2.847 . S
C1050 O1064 1.249 . S
C1050 O1065 1.202 . S
C1051 C1049 1.363 . S
C1051 C1053 1.408 . S
C1051 C1056 1.342 . S
C1052 C1053 1.310 . S
C1052 C1055 1.461 . S
C1052 H1072 0.932 . S
C1053 C1051 1.408 . S
C1053 C1052 1.310 . S
C1053 H1073 0.930 . S
C1054 C1055 1.474 . S
C1054 C1056 1.285 . S
C1054 H1074 0.929 . S
C1055 C1052 1.461 . S
C1055 C1054 1.474 . S
C1056 C1051 1.342 . S
C1056 C1054 1.285 . S
C1056 H1075 0.930 . S
C1057 C1060 1.424 . S
C1057 C1062 1.245 . S
C1057 C1063 1.428 . S
C1058 C1061 1.260 . S
C1058 C1062 1.477 . S
C1058 H1076 0.932 . S
C1059 C1060 1.384 . S
C1059 C1061 1.479 . S
C1059 H1077 0.929 . S
C1060 C1057 1.424 . S
C1060 C1059 1.384 . S
C1060 H1078 0.928 . S
C1061 C1058 1.260 . S
C1061 C1059 1.479 . S
C1062 C1057 1.245 . S
C1062 C1058 1.477 . S
C1062 H1079 0.932 . S
C1063 U1046 2.882 . S
C1063 C1057 1.428 . S
C1063 O1066 1.301 . S
C1063 O1067 1.282 . S
O1064 U1046 2.441 . S
O1064 C1050 1.249 . S
O1065 U1046 2.420 . S
O1065 C1050 1.202 . S
O1066 U1046 2.455 . S
O1066 C1063 1.301 . S
O1067 U1046 2.449 . S
O1067 C1063 1.282 . S
H1068 C1041 0.931 . S
H1069 C1043 0.929 . S
H1070 C1044 0.930 . S
H1071 C1045 0.931 . S
H1072 C1052 0.932 . S
H1073 C1053 0.930 . S
H1074 C1054 0.929 . S
H1075 C1056 0.930 . S
H1076 C1058 0.932 . S
H1077 C1059 0.929 . S
H1078 C1060 0.928 . S
H1079 C1062 0.932 . S
C1080 C1081 1.264 . S
C1080 C1085 1.479 . S
C1080 C1090 1.465 . S
C1081 C1080 1.264 . S
C1081 C1083 1.339 . S
C1081 H1108 0.931 . S
C1082 C1083 1.395 . S
C1082 C1084 1.320 . S
C1083 C1081 1.339 . S
C1083 C1082 1.395 . S
C1083 H1109 0.929 . S
C1084 C1082 1.320 . S
C1084 C1085 1.405 . S
C1084 H1110 0.930 . S
C1085 C1080 1.479 . S
C1085 C1084 1.405 . S
C1085 H1111 0.931 . S
U1086 O1087 2.454 . S
U1086 O1088 2.458 . S
U1086 C1089 2.984 . S
U1086 C1090 2.847 . S
U1086 C1103 2.882 . S
U1086 O1104 2.441 . S
U1086 O1105 2.420 . S
U1086 O1106 2.455 . S
U1086 O1107 2.449 . S
O1087 U1086 2.454 . S
O1087 C1089 1.353 . S
O1088 U1086 2.458 . S
O1088 C1089 1.286 . S
C1089 U1086 2.984 . S
C1089 O1087 1.353 . S
C1089 O1088 1.286 . S
C1089 C1091 1.363 . S
C1090 C1080 1.465 . S
C1090 U1086 2.847 . S
C1090 O1104 1.249 . S
C1090 O1105 1.202 . S
C1091 C1089 1.363 . S
C1091 C1093 1.408 . S
C1091 C1096 1.342 . S
C1092 C1093 1.310 . S
C1092 C1095 1.461 . S
C1092 H1112 0.932 . S
C1093 C1091 1.408 . S
C1093 C1092 1.310 . S
C1093 H1113 0.930 . S
C1094 C1095 1.474 . S
C1094 C1096 1.285 . S
C1094 H1114 0.929 . S
C1095 C1092 1.461 . S
C1095 C1094 1.474 . S
C1096 C1091 1.342 . S
C1096 C1094 1.285 . S
C1096 H1115 0.930 . S
C1097 C1100 1.424 . S
C1097 C1102 1.245 . S
C1097 C1103 1.428 . S
C1098 C1101 1.260 . S
C1098 C1102 1.477 . S
C1098 H1116 0.932 . S
C1099 C1100 1.384 . S
C1099 C1101 1.479 . S
C1099 H1117 0.929 . S
C1100 C1097 1.424 . S
C1100 C1099 1.384 . S
C1100 H1118 0.928 . S
C1101 C1098 1.260 . S
C1101 C1099 1.479 . S
C1102 C1097 1.245 . S
C1102 C1098 1.477 . S
C1102 H1119 0.932 . S
C1103 U1086 2.882 . S
C1103 C1097 1.428 . S
C1103 O1106 1.301 . S
C1103 O1107 1.282 . S
O1104 U1086 2.441 . S
O1104 C1090 1.249 . S
O1105 U1086 2.420 . S
O1105 C1090 1.202 . S
O1106 U1086 2.455 . S
O1106 C1103 1.301 . S
O1107 U1086 2.449 . S
O1107 C1103 1.282 . S
H1108 C1081 0.931 . S
H1109 C1083 0.929 . S
H1110 C1084 0.930 . S
H1111 C1085 0.931 . S
H1112 C1092 0.932 . S
H1113 C1093 0.930 . S
H1114 C1094 0.929 . S
H1115 C1096 0.930 . S
H1116 C1098 0.932 . S
H1117 C1099 0.929 . S
H1118 C1100 0.928 . S
H1119 C1102 0.932 . S
C1120 C1121 1.264 . S
C1120 C1125 1.479 . S
C1120 C1130 1.465 . S
C1121 C1120 1.264 . S
C1121 C1123 1.339 . S
C1121 H1148 0.931 . S
C1122 C1123 1.395 . S
C1122 C1124 1.320 . S
C1123 C1121 1.339 . S
C1123 C1122 1.395 . S
C1123 H1149 0.929 . S
C1124 C1122 1.320 . S
C1124 C1125 1.405 . S
C1124 H1150 0.930 . S
C1125 C1120 1.479 . S
C1125 C1124 1.405 . S
C1125 H1151 0.931 . S
U1126 O1127 2.454 . S
U1126 O1128 2.458 . S
U1126 C1129 2.984 . S
U1126 C1130 2.847 . S
U1126 C1143 2.882 . S
U1126 O1144 2.441 . S
U1126 O1145 2.420 . S
U1126 O1146 2.455 . S
U1126 O1147 2.449 . S
O1127 U1126 2.454 . S
O1127 C1129 1.353 . S
O1128 U1126 2.458 . S
O1128 C1129 1.286 . S
C1129 U1126 2.984 . S
C1129 O1127 1.353 . S
C1129 O1128 1.286 . S
C1129 C1131 1.363 . S
C1130 C1120 1.465 . S
C1130 U1126 2.847 . S
C1130 O1144 1.249 . S
C1130 O1145 1.202 . S
C1131 C1129 1.363 . S
C1131 C1133 1.408 . S
C1131 C1136 1.342 . S
C1132 C1133 1.310 . S
C1132 C1135 1.461 . S
C1132 H1152 0.932 . S
C1133 C1131 1.408 . S
C1133 C1132 1.310 . S
C1133 H1153 0.930 . S
C1134 C1135 1.474 . S
C1134 C1136 1.285 . S
C1134 H1154 0.929 . S
C1135 C1132 1.461 . S
C1135 C1134 1.474 . S
C1136 C1131 1.342 . S
C1136 C1134 1.285 . S
C1136 H1155 0.930 . S
C1137 C1140 1.424 . S
C1137 C1142 1.245 . S
C1137 C1143 1.428 . S
C1138 C1141 1.260 . S
C1138 C1142 1.477 . S
C1138 H1156 0.932 . S
C1139 C1140 1.384 . S
C1139 C1141 1.479 . S
C1139 H1157 0.929 . S
C1140 C1137 1.424 . S
C1140 C1139 1.384 . S
C1140 H1158 0.928 . S
C1141 C1138 1.260 . S
C1141 C1139 1.479 . S
C1142 C1137 1.245 . S
C1142 C1138 1.477 . S
C1142 H1159 0.932 . S
C1143 U1126 2.882 . S
C1143 C1137 1.428 . S
C1143 O1146 1.301 . S
C1143 O1147 1.282 . S
O1144 U1126 2.441 . S
O1144 C1130 1.249 . S
O1145 U1126 2.420 . S
O1145 C1130 1.202 . S
O1146 U1126 2.455 . S
O1146 C1143 1.301 . S
O1147 U1126 2.449 . S
O1147 C1143 1.282 . S
H1148 C1121 0.931 . S
H1149 C1123 0.929 . S
H1150 C1124 0.930 . S
H1151 C1125 0.931 . S
H1152 C1132 0.932 . S
H1153 C1133 0.930 . S
H1154 C1134 0.929 . S
H1155 C1136 0.930 . S
H1156 C1138 0.932 . S
H1157 C1139 0.929 . S
H1158 C1140 0.928 . S
H1159 C1142 0.932 . S
C1160 C1161 1.264 . S
C1160 C1165 1.479 . S
C1160 C1170 1.465 . S
C1161 C1160 1.264 . S
C1161 C1163 1.339 . S
C1161 H1188 0.931 . S
C1162 C1163 1.395 . S
C1162 C1164 1.320 . S
C1163 C1161 1.339 . S
C1163 C1162 1.395 . S
C1163 H1189 0.929 . S
C1164 C1162 1.320 . S
C1164 C1165 1.405 . S
C1164 H1190 0.930 . S
C1165 C1160 1.479 . S
C1165 C1164 1.405 . S
C1165 H1191 0.931 . S
U1166 O1167 2.454 . S
U1166 O1168 2.458 . S
U1166 C1169 2.984 . S
U1166 C1170 2.847 . S
U1166 C1183 2.882 . S
U1166 O1184 2.441 . S
U1166 O1185 2.420 . S
U1166 O1186 2.455 . S
U1166 O1187 2.449 . S
O1167 U1166 2.454 . S
O1167 C1169 1.353 . S
O1168 U1166 2.458 . S
O1168 C1169 1.286 . S
C1169 U1166 2.984 . S
C1169 O1167 1.353 . S
C1169 O1168 1.286 . S
C1169 C1171 1.363 . S
C1170 C1160 1.465 . S
C1170 U1166 2.847 . S
C1170 O1184 1.249 . S
C1170 O1185 1.202 . S
C1171 C1169 1.363 . S
C1171 C1173 1.408 . S
C1171 C1176 1.342 . S
C1172 C1173 1.310 . S
C1172 C1175 1.461 . S
C1172 H1192 0.932 . S
C1173 C1171 1.408 . S
C1173 C1172 1.310 . S
C1173 H1193 0.930 . S
C1174 C1175 1.474 . S
C1174 C1176 1.285 . S
C1174 H1194 0.929 . S
C1175 C1172 1.461 . S
C1175 C1174 1.474 . S
C1176 C1171 1.342 . S
C1176 C1174 1.285 . S
C1176 H1195 0.930 . S
C1177 C1180 1.424 . S
C1177 C1182 1.245 . S
C1177 C1183 1.428 . S
C1178 C1181 1.260 . S
C1178 C1182 1.477 . S
C1178 H1196 0.932 . S
C1179 C1180 1.384 . S
C1179 C1181 1.479 . S
C1179 H1197 0.929 . S
C1180 C1177 1.424 . S
C1180 C1179 1.384 . S
C1180 H1198 0.928 . S
C1181 C1178 1.260 . S
C1181 C1179 1.479 . S
C1182 C1177 1.245 . S
C1182 C1178 1.477 . S
C1182 H1199 0.932 . S
C1183 U1166 2.882 . S
C1183 C1177 1.428 . S
C1183 O1186 1.301 . S
C1183 O1187 1.282 . S
O1184 U1166 2.441 . S
O1184 C1170 1.249 . S
O1185 U1166 2.420 . S
O1185 C1170 1.202 . S
O1186 U1166 2.455 . S
O1186 C1183 1.301 . S
O1187 U1166 2.449 . S
O1187 C1183 1.282 . S
H1188 C1161 0.931 . S
H1189 C1163 0.929 . S
H1190 C1164 0.930 . S
H1191 C1165 0.931 . S
H1192 C1172 0.932 . S
H1193 C1173 0.930 . S
H1194 C1174 0.929 . S
H1195 C1176 0.930 . S
H1196 C1178 0.932 . S
H1197 C1179 0.929 . S
H1198 C1180 0.928 . S
H1199 C1182 0.932 . S
C1200 C1201 1.264 . S
C1200 C1205 1.479 . S
C1200 C1210 1.465 . S
C1201 C1200 1.264 . S
C1201 C1203 1.339 . S
C1201 H1228 0.931 . S
C1202 C1203 1.395 . S
C1202 C1204 1.320 . S
C1203 C1201 1.339 . S
C1203 C1202 1.395 . S
C1203 H1229 0.929 . S
C1204 C1202 1.320 . S
C1204 C1205 1.405 . S
C1204 H1230 0.930 . S
C1205 C1200 1.479 . S
C1205 C1204 1.405 . S
C1205 H1231 0.931 . S
U1206 O1207 2.454 . S
U1206 O1208 2.458 . S
U1206 C1209 2.984 . S
U1206 C1210 2.847 . S
U1206 C1223 2.882 . S
U1206 O1224 2.441 . S
U1206 O1225 2.420 . S
U1206 O1226 2.455 . S
U1206 O1227 2.449 . S
O1207 U1206 2.454 . S
O1207 C1209 1.353 . S
O1208 U1206 2.458 . S
O1208 C1209 1.286 . S
C1209 U1206 2.984 . S
C1209 O1207 1.353 . S
C1209 O1208 1.286 . S
C1209 C1211 1.363 . S
C1210 C1200 1.465 . S
C1210 U1206 2.847 . S
C1210 O1224 1.249 . S
C1210 O1225 1.202 . S
C1211 C1209 1.363 . S
C1211 C1213 1.408 . S
C1211 C1216 1.342 . S
C1212 C1213 1.310 . S
C1212 C1215 1.461 . S
C1212 H1232 0.932 . S
C1213 C1211 1.408 . S
C1213 C1212 1.310 . S
C1213 H1233 0.930 . S
C1214 C1215 1.474 . S
C1214 C1216 1.285 . S
C1214 H1234 0.929 . S
C1215 C1212 1.461 . S
C1215 C1214 1.474 . S
C1216 C1211 1.342 . S
C1216 C1214 1.285 . S
C1216 H1235 0.930 . S
C1217 C1220 1.424 . S
C1217 C1222 1.245 . S
C1217 C1223 1.428 . S
C1218 C1221 1.260 . S
C1218 C1222 1.477 . S
C1218 H1236 0.932 . S
C1219 C1220 1.384 . S
C1219 C1221 1.479 . S
C1219 H1237 0.929 . S
C1220 C1217 1.424 . S
C1220 C1219 1.384 . S
C1220 H1238 0.928 . S
C1221 C1218 1.260 . S
C1221 C1219 1.479 . S
C1222 C1217 1.245 . S
C1222 C1218 1.477 . S
C1222 H1239 0.932 . S
C1223 U1206 2.882 . S
C1223 C1217 1.428 . S
C1223 O1226 1.301 . S
C1223 O1227 1.282 . S
O1224 U1206 2.441 . S
O1224 C1210 1.249 . S
O1225 U1206 2.420 . S
O1225 C1210 1.202 . S
O1226 U1206 2.455 . S
O1226 C1223 1.301 . S
O1227 U1206 2.449 . S
O1227 C1223 1.282 . S
H1228 C1201 0.931 . S
H1229 C1203 0.929 . S
H1230 C1204 0.930 . S
H1231 C1205 0.931 . S
H1232 C1212 0.932 . S
H1233 C1213 0.930 . S
H1234 C1214 0.929 . S
H1235 C1216 0.930 . S
H1236 C1218 0.932 . S
H1237 C1219 0.929 . S
H1238 C1220 0.928 . S
H1239 C1222 0.932 . S
C1240 C1241 1.264 . S
C1240 C1245 1.479 . S
C1240 C1250 1.465 . S
C1241 C1240 1.264 . S
C1241 C1243 1.339 . S
C1241 H1268 0.931 . S
C1242 C1243 1.395 . S
C1242 C1244 1.320 . S
C1243 C1241 1.339 . S
C1243 C1242 1.395 . S
C1243 H1269 0.929 . S
C1244 C1242 1.320 . S
C1244 C1245 1.405 . S
C1244 H1270 0.930 . S
C1245 C1240 1.479 . S
C1245 C1244 1.405 . S
C1245 H1271 0.931 . S
U1246 O1247 2.454 . S
U1246 O1248 2.458 . S
U1246 C1249 2.984 . S
U1246 C1250 2.847 . S
U1246 C1263 2.882 . S
U1246 O1264 2.441 . S
U1246 O1265 2.420 . S
U1246 O1266 2.455 . S
U1246 O1267 2.449 . S
O1247 U1246 2.454 . S
O1247 C1249 1.353 . S
O1248 U1246 2.458 . S
O1248 C1249 1.286 . S
C1249 U1246 2.984 . S
C1249 O1247 1.353 . S
C1249 O1248 1.286 . S
C1249 C1251 1.363 . S
C1250 C1240 1.465 . S
C1250 U1246 2.847 . S
C1250 O1264 1.249 . S
C1250 O1265 1.202 . S
C1251 C1249 1.363 . S
C1251 C1253 1.408 . S
C1251 C1256 1.342 . S
C1252 C1253 1.310 . S
C1252 C1255 1.461 . S
C1252 H1272 0.932 . S
C1253 C1251 1.408 . S
C1253 C1252 1.310 . S
C1253 H1273 0.930 . S
C1254 C1255 1.474 . S
C1254 C1256 1.285 . S
C1254 H1274 0.929 . S
C1255 C1252 1.461 . S
C1255 C1254 1.474 . S
C1256 C1251 1.342 . S
C1256 C1254 1.285 . S
C1256 H1275 0.930 . S
C1257 C1260 1.424 . S
C1257 C1262 1.245 . S
C1257 C1263 1.428 . S
C1258 C1261 1.260 . S
C1258 C1262 1.477 . S
C1258 H1276 0.932 . S
C1259 C1260 1.384 . S
C1259 C1261 1.479 . S
C1259 H1277 0.929 . S
C1260 C1257 1.424 . S
C1260 C1259 1.384 . S
C1260 H1278 0.928 . S
C1261 C1258 1.260 . S
C1261 C1259 1.479 . S
C1262 C1257 1.245 . S
C1262 C1258 1.477 . S
C1262 H1279 0.932 . S
C1263 U1246 2.882 . S
C1263 C1257 1.428 . S
C1263 O1266 1.301 . S
C1263 O1267 1.282 . S
O1264 U1246 2.441 . S
O1264 C1250 1.249 . S
O1265 U1246 2.420 . S
O1265 C1250 1.202 . S
O1266 U1246 2.455 . S
O1266 C1263 1.301 . S
O1267 U1246 2.449 . S
O1267 C1263 1.282 . S
H1268 C1241 0.931 . S
H1269 C1243 0.929 . S
H1270 C1244 0.930 . S
H1271 C1245 0.931 . S
H1272 C1252 0.932 . S
H1273 C1253 0.930 . S
H1274 C1254 0.929 . S
H1275 C1256 0.930 . S
H1276 C1258 0.932 . S
H1277 C1259 0.929 . S
H1278 C1260 0.928 . S
H1279 C1262 0.932 . S
H1280 C1288 0.930 . S
H1281 C1291 0.930 . S
H1282 C1293 0.930 . S
H1283 C1294 0.970 . S
H1284 C1294 0.970 . S
H1285 C1296 0.930 . S
H1286 C1298 0.930 . S
H1287 C1300 0.930 . S
C1288 H1280 0.930 . S
C1288 C1289 1.382 . S
C1288 C1290 1.426 . S
C1289 C1288 1.382 . S
C1289 C1293 1.389 . S
C1290 C1288 1.426 . S
C1290 C1291 1.375 . S
C1290 C1294 1.532 1_556 S
C1291 H1281 0.930 . S
C1291 C1290 1.375 . S
C1291 C1292 1.416 . S
C1292 C1291 1.416 . S
C1292 C1293 1.371 . S
C1293 H1282 0.930 . S
C1293 C1289 1.389 . S
C1293 C1292 1.371 . S
C1294 H1283 0.970 . S
C1294 H1284 0.970 . S
C1294 C1290 1.532 1_554 S
C1294 C1295 1.499 . S
C1295 C1294 1.499 . S
C1295 C1296 1.370 . S
C1295 C1300 1.415 . S
C1296 H1285 0.930 . S
C1296 C1295 1.370 . S
C1296 C1297 1.407 . S
C1297 C1296 1.407 . S
C1297 C1298 1.365 . S
C1298 H1286 0.930 . S
C1298 C1297 1.365 . S
C1298 C1299 1.393 . S
C1299 C1298 1.393 . S
C1299 C1300 1.387 . S
C1300 H1287 0.930 . S
C1300 C1295 1.415 . S
C1300 C1299 1.387 . S
H1301 C1309 0.930 . S
H1302 C1312 0.930 . S
H1303 C1314 0.930 . S
H1304 C1315 0.970 . S
H1305 C1315 0.970 . S
H1306 C1317 0.930 . S
H1307 C1319 0.930 . S
H1308 C1321 0.930 . S
C1309 H1301 0.930 . S
C1309 C1310 1.382 . S
C1309 C1311 1.426 . S
C1310 C1309 1.382 . S
C1310 C1314 1.389 . S
C1311 C1309 1.426 . S
C1311 C1312 1.375 . S
C1311 C1315 1.532 . S
C1312 H1302 0.930 . S
C1312 C1311 1.375 . S
C1312 C1313 1.416 . S
C1313 C1312 1.416 . S
C1313 C1314 1.371 . S
C1314 H1303 0.930 . S
C1314 C1310 1.389 . S
C1314 C1313 1.371 . S
C1315 H1304 0.970 . S
C1315 H1305 0.970 . S
C1315 C1311 1.532 . S
C1315 C1316 1.499 1_554 S
C1316 C1315 1.499 1_556 S
C1316 C1317 1.370 . S
C1316 C1321 1.415 . S
C1317 H1306 0.930 . S
C1317 C1316 1.370 . S
C1317 C1318 1.407 . S
C1318 C1317 1.407 . S
C1318 C1319 1.365 . S
C1319 H1307 0.930 . S
C1319 C1318 1.365 . S
C1319 C1320 1.393 . S
C1320 C1319 1.393 . S
C1320 C1321 1.387 . S
C1321 H1308 0.930 . S
C1321 C1316 1.415 . S
C1321 C1320 1.387 . S
H1322 C1330 0.930 . S
H1323 C1333 0.930 . S
H1324 C1335 0.930 . S
H1325 C1336 0.970 . S
H1326 C1336 0.970 . S
H1327 C1338 0.930 . S
H1328 C1340 0.930 . S
H1329 C1342 0.930 . S
C1330 H1322 0.930 . S
C1330 C1331 1.382 . S
C1330 C1332 1.426 . S
C1331 C1330 1.382 . S
C1331 C1335 1.389 . S
C1332 C1330 1.426 . S
C1332 C1333 1.375 . S
C1332 C1336 1.532 . S
C1333 H1323 0.930 . S
C1333 C1332 1.375 . S
C1333 C1334 1.416 . S
C1334 C1333 1.416 . S
C1334 C1335 1.371 . S
C1335 H1324 0.930 . S
C1335 C1331 1.389 . S
C1335 C1334 1.371 . S
C1336 H1325 0.970 . S
C1336 H1326 0.970 . S
C1336 C1332 1.532 . S
C1336 C1337 1.499 1_554 S
C1337 C1336 1.499 1_556 S
C1337 C1338 1.370 . S
C1337 C1342 1.415 . S
C1338 H1327 0.930 . S
C1338 C1337 1.370 . S
C1338 C1339 1.407 . S
C1339 C1338 1.407 . S
C1339 C1340 1.365 . S
C1340 H1328 0.930 . S
C1340 C1339 1.365 . S
C1340 C1341 1.393 . S
C1341 C1340 1.393 . S
C1341 C1342 1.387 . S
C1342 H1329 0.930 . S
C1342 C1337 1.415 . S
C1342 C1341 1.387 . S
H1343 C1351 0.930 . S
H1344 C1354 0.930 . S
H1345 C1356 0.930 . S
H1346 C1357 0.970 . S
H1347 C1357 0.970 . S
H1348 C1359 0.930 . S
H1349 C1361 0.930 . S
H1350 C1363 0.930 . S
C1351 H1343 0.930 . S
C1351 C1352 1.382 . S
C1351 C1353 1.426 . S
C1352 C1351 1.382 . S
C1352 C1356 1.389 . S
C1353 C1351 1.426 . S
C1353 C1354 1.375 . S
C1353 C1357 1.532 . S
C1354 H1344 0.930 . S
C1354 C1353 1.375 . S
C1354 C1355 1.416 . S
C1355 C1354 1.416 . S
C1355 C1356 1.371 . S
C1356 H1345 0.930 . S
C1356 C1352 1.389 . S
C1356 C1355 1.371 . S
C1357 H1346 0.970 . S
C1357 H1347 0.970 . S
C1357 C1353 1.532 . S
C1357 C1358 1.499 1_554 S
C1358 C1357 1.499 1_556 S
C1358 C1359 1.370 . S
C1358 C1363 1.415 . S
C1359 H1348 0.930 . S
C1359 C1358 1.370 . S
C1359 C1360 1.407 . S
C1360 C1359 1.407 . S
C1360 C1361 1.365 . S
C1361 H1349 0.930 . S
C1361 C1360 1.365 . S
C1361 C1362 1.393 . S
C1362 C1361 1.393 . S
C1362 C1363 1.387 . S
C1363 H1350 0.930 . S
C1363 C1358 1.415 . S
C1363 C1362 1.387 . S
H1364 C1372 0.930 . S
H1365 C1375 0.930 . S
H1366 C1377 0.930 . S
H1367 C1378 0.970 . S
H1368 C1378 0.970 . S
H1369 C1380 0.930 . S
H1370 C1382 0.930 . S
H1371 C1384 0.930 . S
C1372 H1364 0.930 . S
C1372 C1373 1.382 . S
C1372 C1374 1.426 . S
C1373 C1372 1.382 . S
C1373 C1377 1.389 . S
C1374 C1372 1.426 . S
C1374 C1375 1.375 . S
C1374 C1378 1.532 . S
C1375 H1365 0.930 . S
C1375 C1374 1.375 . S
C1375 C1376 1.416 . S
C1376 C1375 1.416 . S
C1376 C1377 1.371 . S
C1377 H1366 0.930 . S
C1377 C1373 1.389 . S
C1377 C1376 1.371 . S
C1378 H1367 0.970 . S
C1378 H1368 0.970 . S
C1378 C1374 1.532 . S
C1378 C1379 1.499 1_455 S
C1379 C1378 1.499 1_655 S
C1379 C1380 1.370 . S
C1379 C1384 1.415 . S
C1380 H1369 0.930 . S
C1380 C1379 1.370 . S
C1380 C1381 1.407 . S
C1381 C1380 1.407 . S
C1381 C1382 1.365 . S
C1382 H1370 0.930 . S
C1382 C1381 1.365 . S
C1382 C1383 1.393 . S
C1383 C1382 1.393 . S
C1383 C1384 1.387 . S
C1384 H1371 0.930 . S
C1384 C1379 1.415 . S
C1384 C1383 1.387 . S
H1385 C1393 0.930 . S
H1386 C1396 0.930 . S
H1387 C1398 0.930 . S
H1388 C1399 0.970 . S
H1389 C1399 0.970 . S
H1390 C1401 0.930 . S
H1391 C1403 0.930 . S
H1392 C1405 0.930 . S
C1393 H1385 0.930 . S
C1393 C1394 1.382 . S
C1393 C1395 1.426 . S
C1394 C1393 1.382 . S
C1394 C1398 1.389 . S
C1395 C1393 1.426 . S
C1395 C1396 1.375 . S
C1395 C1399 1.565 . S
C1396 H1386 0.930 . S
C1396 C1395 1.375 . S
C1396 C1397 1.416 . S
C1397 C1396 1.416 . S
C1397 C1398 1.371 . S
C1398 H1387 0.930 . S
C1398 C1394 1.389 . S
C1398 C1397 1.371 . S
C1399 H1388 0.970 . S
C1399 H1389 0.970 . S
C1399 C1395 1.565 . S
C1399 C1400 1.467 1_545 S
C1400 C1399 1.467 1_565 S
C1400 C1401 1.370 . S
C1400 C1405 1.415 . S
C1401 H1390 0.930 . S
C1401 C1400 1.370 . S
C1401 C1402 1.407 . S
C1402 C1401 1.407 . S
C1402 C1403 1.365 . S
C1403 H1391 0.930 . S
C1403 C1402 1.365 . S
C1403 C1404 1.393 . S
C1404 C1403 1.393 . S
C1404 C1405 1.387 . S
C1405 H1392 0.930 . S
C1405 C1400 1.415 . S
C1405 C1404 1.387 . S
H1406 C1414 0.930 . S
H1407 C1417 0.930 . S
H1408 C1419 0.930 . S
H1409 C1420 0.970 . S
H1410 C1420 0.970 . S
H1411 C1422 0.930 . S
H1412 C1424 0.930 . S
H1413 C1426 0.930 . S
C1414 H1406 0.930 . S
C1414 C1415 1.382 . S
C1414 C1416 1.426 . S
C1415 C1414 1.382 . S
C1415 C1419 1.389 . S
C1416 C1414 1.426 . S
C1416 C1417 1.375 . S
C1416 C1420 1.493 1_655 S
C1417 H1407 0.930 . S
C1417 C1416 1.375 . S
C1417 C1418 1.416 . S
C1418 C1417 1.416 . S
C1418 C1419 1.371 . S
C1419 H1408 0.930 . S
C1419 C1415 1.389 . S
C1419 C1418 1.371 . S
C1420 H1409 0.970 . S
C1420 H1410 0.970 . S
C1420 C1416 1.493 1_455 S
C1420 C1421 1.538 . S
C1421 C1420 1.538 . S
C1421 C1422 1.370 . S
C1421 C1426 1.415 . S
C1422 H1411 0.930 . S
C1422 C1421 1.370 . S
C1422 C1423 1.407 . S
C1423 C1422 1.407 . S
C1423 C1424 1.365 . S
C1424 H1412 0.930 . S
C1424 C1423 1.365 . S
C1424 C1425 1.393 . S
C1425 C1424 1.393 . S
C1425 C1426 1.387 . S
C1426 H1413 0.930 . S
C1426 C1421 1.415 . S
C1426 C1425 1.387 . S
H1427 C1435 0.930 . S
H1428 C1438 0.930 . S
H1429 C1440 0.930 . S
H1430 C1441 0.970 . S
H1431 C1441 0.970 . S
H1432 C1443 0.930 . S
H1433 C1445 0.930 . S
H1434 C1447 0.930 . S
C1435 H1427 0.930 . S
C1435 C1436 1.382 . S
C1435 C1437 1.426 . S
C1436 C1435 1.382 . S
C1436 C1440 1.389 . S
C1437 C1435 1.426 . S
C1437 C1438 1.375 . S
C1437 C1441 1.532 1_565 S
C1438 H1428 0.930 . S
C1438 C1437 1.375 . S
C1438 C1439 1.416 . S
C1439 C1438 1.416 . S
C1439 C1440 1.371 . S
C1440 H1429 0.930 . S
C1440 C1436 1.389 . S
C1440 C1439 1.371 . S
C1441 H1430 0.970 . S
C1441 H1431 0.970 . S
C1441 C1437 1.532 1_545 S
C1441 C1442 1.499 . S
C1442 C1441 1.499 . S
C1442 C1443 1.370 . S
C1442 C1447 1.415 . S
C1443 H1432 0.930 . S
C1443 C1442 1.370 . S
C1443 C1444 1.407 . S
C1444 C1443 1.407 . S
C1444 C1445 1.365 . S
C1445 H1433 0.930 . S
C1445 C1444 1.365 . S
C1445 C1446 1.393 . S
C1446 C1445 1.393 . S
C1446 C1447 1.387 . S
C1447 H1434 0.930 . S
C1447 C1442 1.415 . S
C1447 C1446 1.387 . S
H1448 C1456 0.930 . S
H1449 C1459 0.930 . S
H1450 C1461 0.930 . S
H1451 C1462 0.970 . S
H1452 C1462 0.970 . S
H1453 C1464 0.930 . S
H1454 C1466 0.930 . S
H1455 C1468 0.930 . S
C1456 H1448 0.930 . S
C1456 C1457 1.382 . S
C1456 C1458 1.426 . S
C1457 C1456 1.382 . S
C1457 C1461 1.389 . S
C1458 C1456 1.426 . S
C1458 C1459 1.375 . S
C1458 C1462 1.532 1_655 S
C1459 H1449 0.930 . S
C1459 C1458 1.375 . S
C1459 C1460 1.416 . S
C1460 C1459 1.416 . S
C1460 C1461 1.371 . S
C1461 H1450 0.930 . S
C1461 C1457 1.389 . S
C1461 C1460 1.371 . S
C1462 H1451 0.970 . S
C1462 H1452 0.970 . S
C1462 C1458 1.532 1_455 S
C1462 C1463 1.499 . S
C1463 C1462 1.499 . S
C1463 C1464 1.370 . S
C1463 C1468 1.415 . S
C1464 H1453 0.930 . S
C1464 C1463 1.370 . S
C1464 C1465 1.407 . S
C1465 C1464 1.407 . S
C1465 C1466 1.365 . S
C1466 H1454 0.930 . S
C1466 C1465 1.365 . S
C1466 C1467 1.393 . S
C1467 C1466 1.393 . S
C1467 C1468 1.387 . S
C1468 H1455 0.930 . S
C1468 C1463 1.415 . S
C1468 C1467 1.387 . S
H1469 C1477 0.930 . S
H1470 C1480 0.930 . S
H1471 C1482 0.930 . S
H1472 C1483 0.970 . S
H1473 C1483 0.970 . S
H1474 C1485 0.930 . S
H1475 C1487 0.930 . S
H1476 C1489 0.930 . S
C1477 H1469 0.930 . S
C1477 C1478 1.382 . S
C1477 C1479 1.426 . S
C1478 C1477 1.382 . S
C1478 C1482 1.389 . S
C1479 C1477 1.426 . S
C1479 C1480 1.375 . S
C1479 C1483 1.532 1_565 S
C1480 H1470 0.930 . S
C1480 C1479 1.375 . S
C1480 C1481 1.416 . S
C1481 C1480 1.416 . S
C1481 C1482 1.371 . S
C1482 H1471 0.930 . S
C1482 C1478 1.389 . S
C1482 C1481 1.371 . S
C1483 H1472 0.970 . S
C1483 H1473 0.970 . S
C1483 C1479 1.532 1_545 S
C1483 C1484 1.499 . S
C1484 C1483 1.499 . S
C1484 C1485 1.370 . S
C1484 C1489 1.415 . S
C1485 H1474 0.930 . S
C1485 C1484 1.370 . S
C1485 C1486 1.407 . S
C1486 C1485 1.407 . S
C1486 C1487 1.365 . S
C1487 H1475 0.930 . S
C1487 C1486 1.365 . S
C1487 C1488 1.393 . S
C1488 C1487 1.393 . S
C1488 C1489 1.387 . S
C1489 H1476 0.930 . S
C1489 C1484 1.415 . S
C1489 C1488 1.387 . S
H1490 C1498 0.930 . S
H1491 C1501 0.930 . S
H1492 C1503 0.930 . S
H1493 C1504 0.970 . S
H1494 C1504 0.970 . S
H1495 C1506 0.930 . S
H1496 C1508 0.930 . S
H1497 C1510 0.930 . S
C1498 H1490 0.930 . S
C1498 C1499 1.382 . S
C1498 C1500 1.426 . S
C1499 C1498 1.382 . S
C1499 C1503 1.389 . S
C1500 C1498 1.426 . S
C1500 C1501 1.375 . S
C1500 C1504 1.532 1_655 S
C1501 H1491 0.930 . S
C1501 C1500 1.375 . S
C1501 C1502 1.416 . S
C1502 C1501 1.416 . S
C1502 C1503 1.371 . S
C1503 H1492 0.930 . S
C1503 C1499 1.389 . S
C1503 C1502 1.371 . S
C1504 H1493 0.970 . S
C1504 H1494 0.970 . S
C1504 C1500 1.532 1_455 S
C1504 C1505 1.499 . S
C1505 C1504 1.499 . S
C1505 C1506 1.370 . S
C1505 C1510 1.415 . S
C1506 H1495 0.930 . S
C1506 C1505 1.370 . S
C1506 C1507 1.407 . S
C1507 C1506 1.407 . S
C1507 C1508 1.365 . S
C1508 H1496 0.930 . S
C1508 C1507 1.365 . S
C1508 C1509 1.393 . S
C1509 C1508 1.393 . S
C1509 C1510 1.387 . S
C1510 H1497 0.930 . S
C1510 C1505 1.415 . S
C1510 C1509 1.387 . S
H1511 C1519 0.930 . S
H1512 C1522 0.930 . S
H1513 C1524 0.930 . S
H1514 C1525 0.970 . S
H1515 C1525 0.970 . S
H1516 C1527 0.930 . S
H1517 C1529 0.930 . S
H1518 C1531 0.930 . S
C1519 H1511 0.930 . S
C1519 C1520 1.382 . S
C1519 C1521 1.426 . S
C1520 C1519 1.382 . S
C1520 C1524 1.389 . S
C1521 C1519 1.426 . S
C1521 C1522 1.375 . S
C1521 C1525 1.532 1_565 S
C1522 H1512 0.930 . S
C1522 C1521 1.375 . S
C1522 C1523 1.416 . S
C1523 C1522 1.416 . S
C1523 C1524 1.371 . S
C1524 H1513 0.930 . S
C1524 C1520 1.389 . S
C1524 C1523 1.371 . S
C1525 H1514 0.970 . S
C1525 H1515 0.970 . S
C1525 C1521 1.532 1_545 S
C1525 C1526 1.499 . S
C1526 C1525 1.499 . S
C1526 C1527 1.370 . S
C1526 C1531 1.415 . S
C1527 H1516 0.930 . S
C1527 C1526 1.370 . S
C1527 C1528 1.407 . S
C1528 C1527 1.407 . S
C1528 C1529 1.365 . S
C1529 H1517 0.930 . S
C1529 C1528 1.365 . S
C1529 C1530 1.393 . S
C1530 C1529 1.393 . S
C1530 C1531 1.387 . S
C1531 H1518 0.930 . S
C1531 C1526 1.415 . S
C1531 C1530 1.387 . S
H1532 C1540 0.930 . S
H1533 C1543 0.930 . S
H1534 C1545 0.930 . S
H1535 C1546 0.970 . S
H1536 C1546 0.970 . S
H1537 C1548 0.930 . S
H1538 C1550 0.930 . S
H1539 C1552 0.930 . S
C1540 H1532 0.930 . S
C1540 C1541 1.382 . S
C1540 C1542 1.426 . S
C1541 C1540 1.382 . S
C1541 C1545 1.389 . S
C1542 C1540 1.426 . S
C1542 C1543 1.375 . S
C1542 C1546 1.532 . S
C1543 H1533 0.930 . S
C1543 C1542 1.375 . S
C1543 C1544 1.416 . S
C1544 C1543 1.416 . S
C1544 C1545 1.371 . S
C1545 H1534 0.930 . S
C1545 C1541 1.389 . S
C1545 C1544 1.371 . S
C1546 H1535 0.970 . S
C1546 H1536 0.970 . S
C1546 C1542 1.532 . S
C1546 C1547 1.499 . S
C1547 C1546 1.499 . S
C1547 C1548 1.370 . S
C1547 C1552 1.415 . S
C1548 H1537 0.930 . S
C1548 C1547 1.370 . S
C1548 C1549 1.407 . S
C1549 C1548 1.407 . S
C1549 C1550 1.365 . S
C1550 H1538 0.930 . S
C1550 C1549 1.365 . S
C1550 C1551 1.393 . S
C1551 C1550 1.393 . S
C1551 C1552 1.387 . S
C1552 H1539 0.930 . S
C1552 C1547 1.415 . S
C1552 C1551 1.387 . S
H1553 C1561 0.930 . S
H1554 C1564 0.930 . S
H1555 C1566 0.930 . S
H1556 C1567 0.970 . S
H1557 C1567 0.970 . S
H1558 C1569 0.930 . S
H1559 C1571 0.930 . S
H1560 C1573 0.930 . S
C1561 H1553 0.930 . S
C1561 C1562 1.382 . S
C1561 C1563 1.426 . S
C1562 C1561 1.382 . S
C1562 C1566 1.389 . S
C1563 C1561 1.426 . S
C1563 C1564 1.375 . S
C1563 C1567 1.532 . S
C1564 H1554 0.930 . S
C1564 C1563 1.375 . S
C1564 C1565 1.416 . S
C1565 C1564 1.416 . S
C1565 C1566 1.371 . S
C1566 H1555 0.930 . S
C1566 C1562 1.389 . S
C1566 C1565 1.371 . S
C1567 H1556 0.970 . S
C1567 H1557 0.970 . S
C1567 C1563 1.532 . S
C1567 C1568 1.499 . S
C1568 C1567 1.499 . S
C1568 C1569 1.370 . S
C1568 C1573 1.415 . S
C1569 H1558 0.930 . S
C1569 C1568 1.370 . S
C1569 C1570 1.407 . S
C1570 C1569 1.407 . S
C1570 C1571 1.365 . S
C1571 H1559 0.930 . S
C1571 C1570 1.365 . S
C1571 C1572 1.393 . S
C1572 C1571 1.393 . S
C1572 C1573 1.387 . S
C1573 H1560 0.930 . S
C1573 C1568 1.415 . S
C1573 C1572 1.387 . S
H1574 C1582 0.930 . S
H1575 C1585 0.930 . S
H1576 C1587 0.930 . S
H1577 C1588 0.970 . S
H1578 C1588 0.970 . S
H1579 C1590 0.930 . S
H1580 C1592 0.930 . S
H1581 C1594 0.930 . S
C1582 H1574 0.930 . S
C1582 C1583 1.382 . S
C1582 C1584 1.426 . S
C1583 C1582 1.382 . S
C1583 C1587 1.389 . S
C1584 C1582 1.426 . S
C1584 C1585 1.375 . S
C1584 C1588 1.532 . S
C1585 H1575 0.930 . S
C1585 C1584 1.375 . S
C1585 C1586 1.416 . S
C1586 C1585 1.416 . S
C1586 C1587 1.371 . S
C1587 H1576 0.930 . S
C1587 C1583 1.389 . S
C1587 C1586 1.371 . S
C1588 H1577 0.970 . S
C1588 H1578 0.970 . S
C1588 C1584 1.532 . S
C1588 C1589 1.499 . S
C1589 C1588 1.499 . S
C1589 C1590 1.370 . S
C1589 C1594 1.415 . S
C1590 H1579 0.930 . S
C1590 C1589 1.370 . S
C1590 C1591 1.407 . S
C1591 C1590 1.407 . S
C1591 C1592 1.365 . S
C1592 H1580 0.930 . S
C1592 C1591 1.365 . S
C1592 C1593 1.393 . S
C1593 C1592 1.393 . S
C1593 C1594 1.387 . S
C1594 H1581 0.930 . S
C1594 C1589 1.415 . S
C1594 C1593 1.387 . S
H1595 C1603 0.930 . S
H1596 C1606 0.930 . S
H1597 C1608 0.930 . S
H1598 C1609 0.970 . S
H1599 C1609 0.970 . S
H1600 C1611 0.930 . S
H1601 C1613 0.930 . S
H1602 C1615 0.930 . S
C1603 H1595 0.930 . S
C1603 C1604 1.382 . S
C1603 C1605 1.426 . S
C1604 C1603 1.382 . S
C1604 C1608 1.389 . S
C1605 C1603 1.426 . S
C1605 C1606 1.375 . S
C1605 C1609 1.532 . S
C1606 H1596 0.930 . S
C1606 C1605 1.375 . S
C1606 C1607 1.416 . S
C1607 C1606 1.416 . S
C1607 C1608 1.371 . S
C1608 H1597 0.930 . S
C1608 C1604 1.389 . S
C1608 C1607 1.371 . S
C1609 H1598 0.970 . S
C1609 H1599 0.970 . S
C1609 C1605 1.532 . S
C1609 C1610 1.499 . S
C1610 C1609 1.499 . S
C1610 C1611 1.370 . S
C1610 C1615 1.415 . S
C1611 H1600 0.930 . S
C1611 C1610 1.370 . S
C1611 C1612 1.407 . S
C1612 C1611 1.407 . S
C1612 C1613 1.365 . S
C1613 H1601 0.930 . S
C1613 C1612 1.365 . S
C1613 C1614 1.393 . S
C1614 C1613 1.393 . S
C1614 C1615 1.387 . S
C1615 H1602 0.930 . S
C1615 C1610 1.415 . S
C1615 C1614 1.387 . S
H1616 C1624 0.930 . S
H1617 C1627 0.930 . S
H1618 C1629 0.930 . S
H1619 C1630 0.970 . S
H1620 C1630 0.970 . S
H1621 C1632 0.930 . S
H1622 C1634 0.930 . S
H1623 C1636 0.930 . S
C1624 H1616 0.930 . S
C1624 C1625 1.382 . S
C1624 C1626 1.426 . S
C1625 C1624 1.382 . S
C1625 C1629 1.389 . S
C1626 C1624 1.426 . S
C1626 C1627 1.375 . S
C1626 C1630 1.532 . S
C1627 H1617 0.930 . S
C1627 C1626 1.375 . S
C1627 C1628 1.416 . S
C1628 C1627 1.416 . S
C1628 C1629 1.371 . S
C1629 H1618 0.930 . S
C1629 C1625 1.389 . S
C1629 C1628 1.371 . S
C1630 H1619 0.970 . S
C1630 H1620 0.970 . S
C1630 C1626 1.532 . S
C1630 C1631 1.499 . S
C1631 C1630 1.499 . S
C1631 C1632 1.370 . S
C1631 C1636 1.415 . S
C1632 H1621 0.930 . S
C1632 C1631 1.370 . S
C1632 C1633 1.407 . S
C1633 C1632 1.407 . S
C1633 C1634 1.365 . S
C1634 H1622 0.930 . S
C1634 C1633 1.365 . S
C1634 C1635 1.393 . S
C1635 C1634 1.393 . S
C1635 C1636 1.387 . S
C1636 H1623 0.930 . S
C1636 C1631 1.415 . S
C1636 C1635 1.387 . S
H1637 C1645 0.930 . S
H1638 C1648 0.930 . S
H1639 C1650 0.930 . S
H1640 C1651 0.970 . S
H1641 C1651 0.970 . S
H1642 C1653 0.930 . S
H1643 C1655 0.930 . S
H1644 C1657 0.930 . S
C1645 H1637 0.930 . S
C1645 C1646 1.382 . S
C1645 C1647 1.426 . S
C1646 C1645 1.382 . S
C1646 C1650 1.389 . S
C1647 C1645 1.426 . S
C1647 C1648 1.375 . S
C1647 C1651 1.532 . S
C1648 H1638 0.930 . S
C1648 C1647 1.375 . S
C1648 C1649 1.416 . S
C1649 C1648 1.416 . S
C1649 C1650 1.371 . S
C1650 H1639 0.930 . S
C1650 C1646 1.389 . S
C1650 C1649 1.371 . S
C1651 H1640 0.970 . S
C1651 H1641 0.970 . S
C1651 C1647 1.532 . S
C1651 C1652 1.499 . S
C1652 C1651 1.499 . S
C1652 C1653 1.370 . S
C1652 C1657 1.415 . S
C1653 H1642 0.930 . S
C1653 C1652 1.370 . S
C1653 C1654 1.407 . S
C1654 C1653 1.407 . S
C1654 C1655 1.365 . S
C1655 H1643 0.930 . S
C1655 C1654 1.365 . S
C1655 C1656 1.393 . S
C1656 C1655 1.393 . S
C1656 C1657 1.387 . S
C1657 H1644 0.930 . S
C1657 C1652 1.415 . S
C1657 C1656 1.387 . S
H1658 C1666 0.930 . S
H1659 C1669 0.930 . S
H1660 C1671 0.930 . S
H1661 C1672 0.970 . S
H1662 C1672 0.970 . S
H1663 C1674 0.930 . S
H1664 C1676 0.930 . S
H1665 C1678 0.930 . S
C1666 H1658 0.930 . S
C1666 C1667 1.382 . S
C1666 C1668 1.426 . S
C1667 C1666 1.382 . S
C1667 C1671 1.389 . S
C1668 C1666 1.426 . S
C1668 C1669 1.375 . S
C1668 C1672 1.532 . S
C1669 H1659 0.930 . S
C1669 C1668 1.375 . S
C1669 C1670 1.416 . S
C1670 C1669 1.416 . S
C1670 C1671 1.371 . S
C1671 H1660 0.930 . S
C1671 C1667 1.389 . S
C1671 C1670 1.371 . S
C1672 H1661 0.970 . S
C1672 H1662 0.970 . S
C1672 C1668 1.532 . S
C1672 C1673 1.499 . S
C1673 C1672 1.499 . S
C1673 C1674 1.370 . S
C1673 C1678 1.415 . S
C1674 H1663 0.930 . S
C1674 C1673 1.370 . S
C1674 C1675 1.407 . S
C1675 C1674 1.407 . S
C1675 C1676 1.365 . S
C1676 H1664 0.930 . S
C1676 C1675 1.365 . S
C1676 C1677 1.393 . S
C1677 C1676 1.393 . S
C1677 C1678 1.387 . S
C1678 H1665 0.930 . S
C1678 C1673 1.415 . S
C1678 C1677 1.387 . S
H1679 C1687 0.930 . S
H1680 C1690 0.930 . S
H1681 C1692 0.930 . S
H1682 C1693 0.970 . S
H1683 C1693 0.970 . S
H1684 C1695 0.930 . S
H1685 C1697 0.930 . S
H1686 C1699 0.930 . S
C1687 H1679 0.930 . S
C1687 C1688 1.382 . S
C1687 C1689 1.426 . S
C1688 C1687 1.382 . S
C1688 C1692 1.389 . S
C1689 C1687 1.426 . S
C1689 C1690 1.375 . S
C1689 C1693 1.532 . S
C1690 H1680 0.930 . S
C1690 C1689 1.375 . S
C1690 C1691 1.416 . S
C1691 C1690 1.416 . S
C1691 C1692 1.371 . S
C1692 H1681 0.930 . S
C1692 C1688 1.389 . S
C1692 C1691 1.371 . S
C1693 H1682 0.970 . S
C1693 H1683 0.970 . S
C1693 C1689 1.532 . S
C1693 C1694 1.499 . S
C1694 C1693 1.499 . S
C1694 C1695 1.370 . S
C1694 C1699 1.415 . S
C1695 H1684 0.930 . S
C1695 C1694 1.370 . S
C1695 C1696 1.407 . S
C1696 C1695 1.407 . S
C1696 C1697 1.365 . S
C1697 H1685 0.930 . S
C1697 C1696 1.365 . S
C1697 C1698 1.393 . S
C1698 C1697 1.393 . S
C1698 C1699 1.387 . S
C1699 H1686 0.930 . S
C1699 C1694 1.415 . S
C1699 C1698 1.387 . S
H1700 C1708 0.930 . S
H1701 C1711 0.930 . S
H1702 C1713 0.930 . S
H1703 C1714 0.970 . S
H1704 C1714 0.970 . S
H1705 C1716 0.930 . S
H1706 C1718 0.930 . S
H1707 C1720 0.930 . S
C1708 H1700 0.930 . S
C1708 C1709 1.382 . S
C1708 C1710 1.426 . S
C1709 C1708 1.382 . S
C1709 C1713 1.389 . S
C1710 C1708 1.426 . S
C1710 C1711 1.375 . S
C1710 C1714 1.532 . S
C1711 H1701 0.930 . S
C1711 C1710 1.375 . S
C1711 C1712 1.416 . S
C1712 C1711 1.416 . S
C1712 C1713 1.371 . S
C1713 H1702 0.930 . S
C1713 C1709 1.389 . S
C1713 C1712 1.371 . S
C1714 H1703 0.970 . S
C1714 H1704 0.970 . S
C1714 C1710 1.532 . S
C1714 C1715 1.499 . S
C1715 C1714 1.499 . S
C1715 C1716 1.370 . S
C1715 C1720 1.415 . S
C1716 H1705 0.930 . S
C1716 C1715 1.370 . S
C1716 C1717 1.407 . S
C1717 C1716 1.407 . S
C1717 C1718 1.365 . S
C1718 H1706 0.930 . S
C1718 C1717 1.365 . S
C1718 C1719 1.393 . S
C1719 C1718 1.393 . S
C1719 C1720 1.387 . S
C1720 H1707 0.930 . S
C1720 C1715 1.415 . S
C1720 C1719 1.387 . S
H1721 C1729 0.930 . S
H1722 C1732 0.930 . S
H1723 C1734 0.930 . S
H1724 C1735 0.970 . S
H1725 C1735 0.970 . S
H1726 C1737 0.930 . S
H1727 C1739 0.930 . S
H1728 C1741 0.930 . S
C1729 H1721 0.930 . S
C1729 C1730 1.382 . S
C1729 C1731 1.426 . S
C1730 C1729 1.382 . S
C1730 C1734 1.389 . S
C1731 C1729 1.426 . S
C1731 C1732 1.375 . S
C1731 C1735 1.532 . S
C1732 H1722 0.930 . S
C1732 C1731 1.375 . S
C1732 C1733 1.416 . S
C1733 C1732 1.416 . S
C1733 C1734 1.371 . S
C1734 H1723 0.930 . S
C1734 C1730 1.389 . S
C1734 C1733 1.371 . S
C1735 H1724 0.970 . S
C1735 H1725 0.970 . S
C1735 C1731 1.532 . S
C1735 C1736 1.499 . S
C1736 C1735 1.499 . S
C1736 C1737 1.370 . S
C1736 C1741 1.415 . S
C1737 H1726 0.930 . S
C1737 C1736 1.370 . S
C1737 C1738 1.407 . S
C1738 C1737 1.407 . S
C1738 C1739 1.365 . S
C1739 H1727 0.930 . S
C1739 C1738 1.365 . S
C1739 C1740 1.393 . S
C1740 C1739 1.393 . S
C1740 C1741 1.387 . S
C1741 H1728 0.930 . S
C1741 C1736 1.415 . S
C1741 C1740 1.387 . S
H1742 C1750 0.930 . S
H1743 C1753 0.930 . S
H1744 C1755 0.930 . S
H1745 C1756 0.970 . S
H1746 C1756 0.970 . S
H1747 C1758 0.930 . S
H1748 C1760 0.930 . S
H1749 C1762 0.930 . S
C1750 H1742 0.930 . S
C1750 C1751 1.382 . S
C1750 C1752 1.426 . S
C1751 C1750 1.382 . S
C1751 C1755 1.389 . S
C1752 C1750 1.426 . S
C1752 C1753 1.375 . S
C1752 C1756 1.532 . S
C1753 H1743 0.930 . S
C1753 C1752 1.375 . S
C1753 C1754 1.416 . S
C1754 C1753 1.416 . S
C1754 C1755 1.371 . S
C1755 H1744 0.930 . S
C1755 C1751 1.389 . S
C1755 C1754 1.371 . S
C1756 H1745 0.970 . S
C1756 H1746 0.970 . S
C1756 C1752 1.532 . S
C1756 C1757 1.499 . S
C1757 C1756 1.499 . S
C1757 C1758 1.370 . S
C1757 C1762 1.415 . S
C1758 H1747 0.930 . S
C1758 C1757 1.370 . S
C1758 C1759 1.407 . S
C1759 C1758 1.407 . S
C1759 C1760 1.365 . S
C1760 H1748 0.930 . S
C1760 C1759 1.365 . S
C1760 C1761 1.393 . S
C1761 C1760 1.393 . S
C1761 C1762 1.387 . S
C1762 H1749 0.930 . S
C1762 C1757 1.415 . S
C1762 C1761 1.387 . S
H1763 C1771 0.930 . S
H1764 C1774 0.930 . S
H1765 C1776 0.930 . S
H1766 C1777 0.970 . S
H1767 C1777 0.970 . S
H1768 C1779 0.930 . S
H1769 C1781 0.930 . S
H1770 C1783 0.930 . S
C1771 H1763 0.930 . S
C1771 C1772 1.382 . S
C1771 C1773 1.426 . S
C1772 C1771 1.382 . S
C1772 C1776 1.389 . S
C1773 C1771 1.426 . S
C1773 C1774 1.375 . S
C1773 C1777 1.532 . S
C1774 H1764 0.930 . S
C1774 C1773 1.375 . S
C1774 C1775 1.416 . S
C1775 C1774 1.416 . S
C1775 C1776 1.371 . S
C1776 H1765 0.930 . S
C1776 C1772 1.389 . S
C1776 C1775 1.371 . S
C1777 H1766 0.970 . S
C1777 H1767 0.970 . S
C1777 C1773 1.532 . S
C1777 C1778 1.499 . S
C1778 C1777 1.499 . S
C1778 C1779 1.370 . S
C1778 C1783 1.415 . S
C1779 H1768 0.930 . S
C1779 C1778 1.370 . S
C1779 C1780 1.407 . S
C1780 C1779 1.407 . S
C1780 C1781 1.365 . S
C1781 H1769 0.930 . S
C1781 C1780 1.365 . S
C1781 C1782 1.393 . S
C1782 C1781 1.393 . S
C1782 C1783 1.387 . S
C1783 H1770 0.930 . S
C1783 C1778 1.415 . S
C1783 C1782 1.387 . S
C1784 C1785 1.349 . S
C1784 C1786 1.327 . S
C1784 H1809 0.950 . S
C1785 C1784 1.349 . S
C1785 C1801 1.349 . S
C1786 C1784 1.327 . S
C1786 C1805 1.429 . S
C1786 H1810 0.950 . S
C1787 C1804 1.574 . S
C1787 C1806 1.368 . S
C1787 H1811 0.949 . S
H1788 C1792 0.949 . S
C1789 C1790 1.349 . S
C1789 C1791 1.327 . S
C1789 H1812 0.950 . S
C1790 C1789 1.349 . S
C1790 C1802 1.349 . S
C1791 C1789 1.327 . S
C1791 C1807 1.429 . S
C1791 H1813 0.950 . S
C1792 H1788 0.949 . S
C1792 C1800 1.574 . S
C1792 C1808 1.368 . S
H1793 C1801 0.950 . S
H1794 C1799 0.950 . S
H1795 C1800 0.949 . S
H1796 C1802 0.950 . S
H1797 C1803 0.950 . S
H1798 C1804 0.949 . S
C1799 H1794 0.950 . S
C1799 C1801 1.327 . S
C1799 C1805 1.429 . S
C1800 C1792 1.574 . S
C1800 H1795 0.949 . S
C1800 C1806 1.368 . S
C1801 C1785 1.349 . S
C1801 H1793 0.950 . S
C1801 C1799 1.327 . S
C1802 C1790 1.349 . S
C1802 H1796 0.950 . S
C1802 C1803 1.327 . S
C1803 H1797 0.950 . S
C1803 C1802 1.327 . S
C1803 C1807 1.429 . S
C1804 C1787 1.574 . S
C1804 H1798 0.949 . S
C1804 C1808 1.368 . S
C1805 C1786 1.429 . S
C1805 C1799 1.429 . S
C1805 C1806 1.523 . S
C1806 C1787 1.368 . S
C1806 C1800 1.368 . S
C1806 C1805 1.523 . S
C1807 C1791 1.429 . S
C1807 C1803 1.429 . S
C1807 C1808 1.523 . S
C1808 C1792 1.368 . S
C1808 C1804 1.368 . S
C1808 C1807 1.523 . S
H1809 C1784 0.950 . S
H1810 C1786 0.950 . S
H1811 C1787 0.949 . S
H1812 C1789 0.950 . S
H1813 C1791 0.950 . S
C1814 C1815 1.349 . S
C1814 C1816 1.327 . S
C1814 H1839 0.950 . S
C1815 C1814 1.349 . S
C1815 C1831 1.349 . S
C1816 C1814 1.327 . S
C1816 C1835 1.429 . S
C1816 H1840 0.950 . S
C1817 C1834 1.574 . S
C1817 C1836 1.368 . S
C1817 H1841 0.949 . S
H1818 C1822 0.949 . S
C1819 C1820 1.349 . S
C1819 C1821 1.327 . S
C1819 H1842 0.950 . S
C1820 C1819 1.349 . S
C1820 C1832 1.349 . S
C1821 C1819 1.327 . S
C1821 C1837 1.429 . S
C1821 H1843 0.950 . S
C1822 H1818 0.949 . S
C1822 C1830 1.574 . S
C1822 C1838 1.368 . S
H1823 C1831 0.950 . S
H1824 C1829 0.950 . S
H1825 C1830 0.949 . S
H1826 C1832 0.950 . S
H1827 C1833 0.950 . S
H1828 C1834 0.949 . S
C1829 H1824 0.950 . S
C1829 C1831 1.327 . S
C1829 C1835 1.429 . S
C1830 C1822 1.574 . S
C1830 H1825 0.949 . S
C1830 C1836 1.368 . S
C1831 C1815 1.349 . S
C1831 H1823 0.950 . S
C1831 C1829 1.327 . S
C1832 C1820 1.349 . S
C1832 H1826 0.950 . S
C1832 C1833 1.327 . S
C1833 H1827 0.950 . S
C1833 C1832 1.327 . S
C1833 C1837 1.429 . S
C1834 C1817 1.574 . S
C1834 H1828 0.949 . S
C1834 C1838 1.368 . S
C1835 C1816 1.429 . S
C1835 C1829 1.429 . S
C1835 C1836 1.523 . S
C1836 C1817 1.368 . S
C1836 C1830 1.368 . S
C1836 C1835 1.523 . S
C1837 C1821 1.429 . S
C1837 C1833 1.429 . S
C1837 C1838 1.523 . S
C1838 C1822 1.368 . S
C1838 C1834 1.368 . S
C1838 C1837 1.523 . S
H1839 C1814 0.950 . S
H1840 C1816 0.950 . S
H1841 C1817 0.949 . S
H1842 C1819 0.950 . S
H1843 C1821 0.950 . S
C1844 C1845 1.349 . S
C1844 C1846 1.327 . S
C1844 H1869 0.950 . S
C1845 C1844 1.349 . S
C1845 C1861 1.349 . S
C1846 C1844 1.327 . S
C1846 C1865 1.429 . S
C1846 H1870 0.950 . S
C1847 C1864 1.574 . S
C1847 C1866 1.368 . S
C1847 H1871 0.949 . S
H1848 C1852 0.949 . S
C1849 C1850 1.349 . S
C1849 C1851 1.327 . S
C1849 H1872 0.950 . S
C1850 C1849 1.349 . S
C1850 C1862 1.349 . S
C1851 C1849 1.327 . S
C1851 C1867 1.429 . S
C1851 H1873 0.950 . S
C1852 H1848 0.949 . S
C1852 C1860 1.574 . S
C1852 C1868 1.368 . S
H1853 C1861 0.950 . S
H1854 C1859 0.950 . S
H1855 C1860 0.949 . S
H1856 C1862 0.950 . S
H1857 C1863 0.950 . S
H1858 C1864 0.949 . S
C1859 H1854 0.950 . S
C1859 C1861 1.327 . S
C1859 C1865 1.429 . S
C1860 C1852 1.574 . S
C1860 H1855 0.949 . S
C1860 C1866 1.368 . S
C1861 C1845 1.349 . S
C1861 H1853 0.950 . S
C1861 C1859 1.327 . S
C1862 C1850 1.349 . S
C1862 H1856 0.950 . S
C1862 C1863 1.327 . S
C1863 H1857 0.950 . S
C1863 C1862 1.327 . S
C1863 C1867 1.429 . S
C1864 C1847 1.574 . S
C1864 H1858 0.949 . S
C1864 C1868 1.368 . S
C1865 C1846 1.429 . S
C1865 C1859 1.429 . S
C1865 C1866 1.523 . S
C1866 C1847 1.368 . S
C1866 C1860 1.368 . S
C1866 C1865 1.523 . S
C1867 C1851 1.429 . S
C1867 C1863 1.429 . S
C1867 C1868 1.523 . S
C1868 C1852 1.368 . S
C1868 C1864 1.368 . S
C1868 C1867 1.523 . S
H1869 C1844 0.950 . S
H1870 C1846 0.950 . S
H1871 C1847 0.949 . S
H1872 C1849 0.950 . S
H1873 C1851 0.950 . S
C1874 C1875 1.349 . S
C1874 C1876 1.327 . S
C1874 H1899 0.950 . S
C1875 C1874 1.349 . S
C1875 C1891 1.349 . S
C1876 C1874 1.327 . S
C1876 C1895 1.429 . S
C1876 H1900 0.950 . S
C1877 C1894 1.574 . S
C1877 C1896 1.368 . S
C1877 H1901 0.949 . S
H1878 C1882 0.949 . S
C1879 C1880 1.349 . S
C1879 C1881 1.327 . S
C1879 H1902 0.950 . S
C1880 C1879 1.349 . S
C1880 C1892 1.349 . S
C1881 C1879 1.327 . S
C1881 C1897 1.429 . S
C1881 H1903 0.950 . S
C1882 H1878 0.949 . S
C1882 C1890 1.574 . S
C1882 C1898 1.368 . S
H1883 C1891 0.950 . S
H1884 C1889 0.950 . S
H1885 C1890 0.949 . S
H1886 C1892 0.950 . S
H1887 C1893 0.950 . S
H1888 C1894 0.949 . S
C1889 H1884 0.950 . S
C1889 C1891 1.327 . S
C1889 C1895 1.429 . S
C1890 C1882 1.574 . S
C1890 H1885 0.949 . S
C1890 C1896 1.368 . S
C1891 C1875 1.349 . S
C1891 H1883 0.950 . S
C1891 C1889 1.327 . S
C1892 C1880 1.349 . S
C1892 H1886 0.950 . S
C1892 C1893 1.327 . S
C1893 H1887 0.950 . S
C1893 C1892 1.327 . S
C1893 C1897 1.429 . S
C1894 C1877 1.574 . S
C1894 H1888 0.949 . S
C1894 C1898 1.368 . S
C1895 C1876 1.429 . S
C1895 C1889 1.429 . S
C1895 C1896 1.523 . S
C1896 C1877 1.368 . S
C1896 C1890 1.368 . S
C1896 C1895 1.523 . S
C1897 C1881 1.429 . S
C1897 C1893 1.429 . S
C1897 C1898 1.523 . S
C1898 C1882 1.368 . S
C1898 C1894 1.368 . S
C1898 C1897 1.523 . S
H1899 C1874 0.950 . S
H1900 C1876 0.950 . S
H1901 C1877 0.949 . S
H1902 C1879 0.950 . S
H1903 C1881 0.950 . S
C1904 C1905 1.349 . S
C1904 C1906 1.327 . S
C1904 H1929 0.950 . S
C1905 C1904 1.349 . S
C1905 C1921 1.349 . S
C1906 C1904 1.327 . S
C1906 C1925 1.429 . S
C1906 H1930 0.950 . S
C1907 C1924 1.574 . S
C1907 C1926 1.368 . S
C1907 H1931 0.949 . S
H1908 C1912 0.949 . S
C1909 C1910 1.349 . S
C1909 C1911 1.327 . S
C1909 H1932 0.950 . S
C1910 C1909 1.349 . S
C1910 C1922 1.349 . S
C1911 C1909 1.327 . S
C1911 C1927 1.429 . S
C1911 H1933 0.950 . S
C1912 H1908 0.949 . S
C1912 C1920 1.574 . S
C1912 C1928 1.368 . S
H1913 C1921 0.950 . S
H1914 C1919 0.950 . S
H1915 C1920 0.949 . S
H1916 C1922 0.950 . S
H1917 C1923 0.950 . S
H1918 C1924 0.949 . S
C1919 H1914 0.950 . S
C1919 C1921 1.327 . S
C1919 C1925 1.429 . S
C1920 C1912 1.574 . S
C1920 H1915 0.949 . S
C1920 C1926 1.368 . S
C1921 C1905 1.349 . S
C1921 H1913 0.950 . S
C1921 C1919 1.327 . S
C1922 C1910 1.349 . S
C1922 H1916 0.950 . S
C1922 C1923 1.327 . S
C1923 H1917 0.950 . S
C1923 C1922 1.327 . S
C1923 C1927 1.429 . S
C1924 C1907 1.574 . S
C1924 H1918 0.949 . S
C1924 C1928 1.368 . S
C1925 C1906 1.429 . S
C1925 C1919 1.429 . S
C1925 C1926 1.523 . S
C1926 C1907 1.368 . S
C1926 C1920 1.368 . S
C1926 C1925 1.523 . S
C1927 C1911 1.429 . S
C1927 C1923 1.429 . S
C1927 C1928 1.523 . S
C1928 C1912 1.368 . S
C1928 C1924 1.368 . S
C1928 C1927 1.523 . S
H1929 C1904 0.950 . S
H1930 C1906 0.950 . S
H1931 C1907 0.949 . S
H1932 C1909 0.950 . S
H1933 C1911 0.950 . S
C1934 C1935 1.349 . S
C1934 C1936 1.327 . S
C1934 H1959 0.950 . S
C1935 C1934 1.349 . S
C1935 C1951 1.349 . S
C1936 C1934 1.327 . S
C1936 C1955 1.429 . S
C1936 H1960 0.950 . S
C1937 C1954 1.574 . S
C1937 C1956 1.368 . S
C1937 H1961 0.949 . S
H1938 C1942 0.949 . S
C1939 C1940 1.349 . S
C1939 C1941 1.327 . S
C1939 H1962 0.950 . S
C1940 C1939 1.349 . S
C1940 C1952 1.349 . S
C1941 C1939 1.327 . S
C1941 C1957 1.429 . S
C1941 H1963 0.950 . S
C1942 H1938 0.949 . S
C1942 C1950 1.574 . S
C1942 C1958 1.368 . S
H1943 C1951 0.950 . S
H1944 C1949 0.950 . S
H1945 C1950 0.949 . S
H1946 C1952 0.950 . S
H1947 C1953 0.950 . S
H1948 C1954 0.949 . S
C1949 H1944 0.950 . S
C1949 C1951 1.327 . S
C1949 C1955 1.429 . S
C1950 C1942 1.574 . S
C1950 H1945 0.949 . S
C1950 C1956 1.368 . S
C1951 C1935 1.349 . S
C1951 H1943 0.950 . S
C1951 C1949 1.327 . S
C1952 C1940 1.349 . S
C1952 H1946 0.950 . S
C1952 C1953 1.327 . S
C1953 H1947 0.950 . S
C1953 C1952 1.327 . S
C1953 C1957 1.429 . S
C1954 C1937 1.574 . S
C1954 H1948 0.949 . S
C1954 C1958 1.368 . S
C1955 C1936 1.429 . S
C1955 C1949 1.429 . S
C1955 C1956 1.523 . S
C1956 C1937 1.368 . S
C1956 C1950 1.368 . S
C1956 C1955 1.523 . S
C1957 C1941 1.429 . S
C1957 C1953 1.429 . S
C1957 C1958 1.523 . S
C1958 C1942 1.368 . S
C1958 C1954 1.368 . S
C1958 C1957 1.523 . S
H1959 C1934 0.950 . S
H1960 C1936 0.950 . S
H1961 C1937 0.949 . S
H1962 C1939 0.950 . S
H1963 C1941 0.950 . S
C1964 C1965 1.349 . S
C1964 C1966 1.327 . S
C1964 H1989 0.950 . S
C1965 C1964 1.349 . S
C1965 C1981 1.349 . S
C1966 C1964 1.327 . S
C1966 C1985 1.429 . S
C1966 H1990 0.950 . S
C1967 C1984 1.574 . S
C1967 C1986 1.368 . S
C1967 H1991 0.949 . S
H1968 C1972 0.949 . S
C1969 C1970 1.349 . S
C1969 C1971 1.327 . S
C1969 H1992 0.950 . S
C1970 C1969 1.349 . S
C1970 C1982 1.349 . S
C1971 C1969 1.327 . S
C1971 C1987 1.429 . S
C1971 H1993 0.950 . S
C1972 H1968 0.949 . S
C1972 C1980 1.574 . S
C1972 C1988 1.368 . S
H1973 C1981 0.950 . S
H1974 C1979 0.950 . S
H1975 C1980 0.949 . S
H1976 C1982 0.950 . S
H1977 C1983 0.950 . S
H1978 C1984 0.949 . S
C1979 H1974 0.950 . S
C1979 C1981 1.327 . S
C1979 C1985 1.429 . S
C1980 C1972 1.574 . S
C1980 H1975 0.949 . S
C1980 C1986 1.368 . S
C1981 C1965 1.349 . S
C1981 H1973 0.950 . S
C1981 C1979 1.327 . S
C1982 C1970 1.349 . S
C1982 H1976 0.950 . S
C1982 C1983 1.327 . S
C1983 H1977 0.950 . S
C1983 C1982 1.327 . S
C1983 C1987 1.429 . S
C1984 C1967 1.574 . S
C1984 H1978 0.949 . S
C1984 C1988 1.368 . S
C1985 C1966 1.429 . S
C1985 C1979 1.429 . S
C1985 C1986 1.523 . S
C1986 C1967 1.368 . S
C1986 C1980 1.368 . S
C1986 C1985 1.523 . S
C1987 C1971 1.429 . S
C1987 C1983 1.429 . S
C1987 C1988 1.523 . S
C1988 C1972 1.368 . S
C1988 C1984 1.368 . S
C1988 C1987 1.523 . S
H1989 C1964 0.950 . S
H1990 C1966 0.950 . S
H1991 C1967 0.949 . S
H1992 C1969 0.950 . S
H1993 C1971 0.950 . S
C1994 C1995 1.349 . S
C1994 C1996 1.327 . S
C1994 H2019 0.950 . S
C1995 C1994 1.349 . S
C1995 C2011 1.349 . S
C1996 C1994 1.327 . S
C1996 C2015 1.429 . S
C1996 H2020 0.950 . S
C1997 C2014 1.574 . S
C1997 C2016 1.368 . S
C1997 H2021 0.949 . S
H1998 C2002 0.949 . S
C1999 C2000 1.349 . S
C1999 C2001 1.327 . S
C1999 H2022 0.950 . S
C2000 C1999 1.349 . S
C2000 C2012 1.349 . S
C2001 C1999 1.327 . S
C2001 C2017 1.429 . S
C2001 H2023 0.950 . S
C2002 H1998 0.949 . S
C2002 C2010 1.574 . S
C2002 C2018 1.368 . S
H2003 C2011 0.950 . S
H2004 C2009 0.950 . S
H2005 C2010 0.949 . S
H2006 C2012 0.950 . S
H2007 C2013 0.950 . S
H2008 C2014 0.949 . S
C2009 H2004 0.950 . S
C2009 C2011 1.327 . S
C2009 C2015 1.429 . S
C2010 C2002 1.574 . S
C2010 H2005 0.949 . S
C2010 C2016 1.368 . S
C2011 C1995 1.349 . S
C2011 H2003 0.950 . S
C2011 C2009 1.327 . S
C2012 C2000 1.349 . S
C2012 H2006 0.950 . S
C2012 C2013 1.327 . S
C2013 H2007 0.950 . S
C2013 C2012 1.327 . S
C2013 C2017 1.429 . S
C2014 C1997 1.574 . S
C2014 H2008 0.949 . S
C2014 C2018 1.368 . S
C2015 C1996 1.429 . S
C2015 C2009 1.429 . S
C2015 C2016 1.523 . S
C2016 C1997 1.368 . S
C2016 C2010 1.368 . S
C2016 C2015 1.523 . S
C2017 C2001 1.429 . S
C2017 C2013 1.429 . S
C2017 C2018 1.523 . S
C2018 C2002 1.368 . S
C2018 C2014 1.368 . S
C2018 C2017 1.523 . S
H2019 C1994 0.950 . S
H2020 C1996 0.950 . S
H2021 C1997 0.949 . S
H2022 C1999 0.950 . S
H2023 C2001 0.950 . S
C2024 C2025 1.349 . S
C2024 C2026 1.327 . S
C2024 H2049 0.950 . S
C2025 C2024 1.349 . S
C2025 C2041 1.349 . S
C2026 C2024 1.327 . S
C2026 C2045 1.429 . S
C2026 H2050 0.950 . S
C2027 C2044 1.574 . S
C2027 C2046 1.368 . S
C2027 H2051 0.949 . S
H2028 C2032 0.949 . S
C2029 C2030 1.349 . S
C2029 C2031 1.327 . S
C2029 H2052 0.950 . S
C2030 C2029 1.349 . S
C2030 C2042 1.349 . S
C2031 C2029 1.327 . S
C2031 C2047 1.429 . S
C2031 H2053 0.950 . S
C2032 H2028 0.949 . S
C2032 C2040 1.574 . S
C2032 C2048 1.368 . S
H2033 C2041 0.950 . S
H2034 C2039 0.950 . S
H2035 C2040 0.949 . S
H2036 C2042 0.950 . S
H2037 C2043 0.950 . S
H2038 C2044 0.949 . S
C2039 H2034 0.950 . S
C2039 C2041 1.327 . S
C2039 C2045 1.429 . S
C2040 C2032 1.574 . S
C2040 H2035 0.949 . S
C2040 C2046 1.368 . S
C2041 C2025 1.349 . S
C2041 H2033 0.950 . S
C2041 C2039 1.327 . S
C2042 C2030 1.349 . S
C2042 H2036 0.950 . S
C2042 C2043 1.327 . S
C2043 H2037 0.950 . S
C2043 C2042 1.327 . S
C2043 C2047 1.429 . S
C2044 C2027 1.574 . S
C2044 H2038 0.949 . S
C2044 C2048 1.368 . S
C2045 C2026 1.429 . S
C2045 C2039 1.429 . S
C2045 C2046 1.523 . S
C2046 C2027 1.368 . S
C2046 C2040 1.368 . S
C2046 C2045 1.523 . S
C2047 C2031 1.429 . S
C2047 C2043 1.429 . S
C2047 C2048 1.523 . S
C2048 C2032 1.368 . S
C2048 C2044 1.368 . S
C2048 C2047 1.523 . S
H2049 C2024 0.950 . S
H2050 C2026 0.950 . S
H2051 C2027 0.949 . S
H2052 C2029 0.950 . S
H2053 C2031 0.950 . S
C2054 C2055 1.349 . S
C2054 C2056 1.327 . S
C2054 H2079 0.950 . S
C2055 C2054 1.349 . S
C2055 C2071 1.349 . S
C2056 C2054 1.327 . S
C2056 C2075 1.429 . S
C2056 H2080 0.950 . S
C2057 C2074 1.574 . S
C2057 C2076 1.368 . S
C2057 H2081 0.949 . S
H2058 C2062 0.949 . S
C2059 C2060 1.349 . S
C2059 C2061 1.327 . S
C2059 H2082 0.950 . S
C2060 C2059 1.349 . S
C2060 C2072 1.349 . S
C2061 C2059 1.327 . S
C2061 C2077 1.429 . S
C2061 H2083 0.950 . S
C2062 H2058 0.949 . S
C2062 C2070 1.574 . S
C2062 C2078 1.368 . S
H2063 C2071 0.950 . S
H2064 C2069 0.950 . S
H2065 C2070 0.949 . S
H2066 C2072 0.950 . S
H2067 C2073 0.950 . S
H2068 C2074 0.949 . S
C2069 H2064 0.950 . S
C2069 C2071 1.327 . S
C2069 C2075 1.429 . S
C2070 C2062 1.574 . S
C2070 H2065 0.949 . S
C2070 C2076 1.368 . S
C2071 C2055 1.349 . S
C2071 H2063 0.950 . S
C2071 C2069 1.327 . S
C2072 C2060 1.349 . S
C2072 H2066 0.950 . S
C2072 C2073 1.327 . S
C2073 H2067 0.950 . S
C2073 C2072 1.327 . S
C2073 C2077 1.429 . S
C2074 C2057 1.574 . S
C2074 H2068 0.949 . S
C2074 C2078 1.368 . S
C2075 C2056 1.429 . S
C2075 C2069 1.429 . S
C2075 C2076 1.523 . S
C2076 C2057 1.368 . S
C2076 C2070 1.368 . S
C2076 C2075 1.523 . S
C2077 C2061 1.429 . S
C2077 C2073 1.429 . S
C2077 C2078 1.523 . S
C2078 C2062 1.368 . S
C2078 C2074 1.368 . S
C2078 C2077 1.523 . S
H2079 C2054 0.950 . S
H2080 C2056 0.950 . S
H2081 C2057 0.949 . S
H2082 C2059 0.950 . S
H2083 C2061 0.950 . S
C2084 C2085 1.349 . S
C2084 C2086 1.327 . S
C2084 H2109 0.950 . S
C2085 C2084 1.349 . S
C2085 C2101 1.349 . S
C2086 C2084 1.327 . S
C2086 C2105 1.429 . S
C2086 H2110 0.950 . S
C2087 C2104 1.574 . S
C2087 C2106 1.368 . S
C2087 H2111 0.949 . S
H2088 C2092 0.949 . S
C2089 C2090 1.349 . S
C2089 C2091 1.327 . S
C2089 H2112 0.950 . S
C2090 C2089 1.349 . S
C2090 C2102 1.349 . S
C2091 C2089 1.327 . S
C2091 C2107 1.429 . S
C2091 H2113 0.950 . S
C2092 H2088 0.949 . S
C2092 C2100 1.574 . S
C2092 C2108 1.368 . S
H2093 C2101 0.950 . S
H2094 C2099 0.950 . S
H2095 C2100 0.949 . S
H2096 C2102 0.950 . S
H2097 C2103 0.950 . S
H2098 C2104 0.949 . S
C2099 H2094 0.950 . S
C2099 C2101 1.327 . S
C2099 C2105 1.429 . S
C2100 C2092 1.574 . S
C2100 H2095 0.949 . S
C2100 C2106 1.368 . S
C2101 C2085 1.349 . S
C2101 H2093 0.950 . S
C2101 C2099 1.327 . S
C2102 C2090 1.349 . S
C2102 H2096 0.950 . S
C2102 C2103 1.327 . S
C2103 H2097 0.950 . S
C2103 C2102 1.327 . S
C2103 C2107 1.429 . S
C2104 C2087 1.574 . S
C2104 H2098 0.949 . S
C2104 C2108 1.368 . S
C2105 C2086 1.429 . S
C2105 C2099 1.429 . S
C2105 C2106 1.523 . S
C2106 C2087 1.368 . S
C2106 C2100 1.368 . S
C2106 C2105 1.523 . S
C2107 C2091 1.429 . S
C2107 C2103 1.429 . S
C2107 C2108 1.523 . S
C2108 C2092 1.368 . S
C2108 C2104 1.368 . S
C2108 C2107 1.523 . S
H2109 C2084 0.950 . S
H2110 C2086 0.950 . S
H2111 C2087 0.949 . S
H2112 C2089 0.950 . S
H2113 C2091 0.950 . S
C2114 C2115 1.349 . S
C2114 C2116 1.327 . S
C2114 H2139 0.950 . S
C2115 C2114 1.349 . S
C2115 C2131 1.349 . S
C2116 C2114 1.327 . S
C2116 C2135 1.429 . S
C2116 H2140 0.950 . S
C2117 C2134 1.574 . S
C2117 C2136 1.368 . S
C2117 H2141 0.949 . S
H2118 C2122 0.949 . S
C2119 C2120 1.349 . S
C2119 C2121 1.327 . S
C2119 H2142 0.950 . S
C2120 C2119 1.349 . S
C2120 C2132 1.349 . S
C2121 C2119 1.327 . S
C2121 C2137 1.429 . S
C2121 H2143 0.950 . S
C2122 H2118 0.949 . S
C2122 C2130 1.574 . S
C2122 C2138 1.368 . S
H2123 C2131 0.950 . S
H2124 C2129 0.950 . S
H2125 C2130 0.949 . S
H2126 C2132 0.950 . S
H2127 C2133 0.950 . S
H2128 C2134 0.949 . S
C2129 H2124 0.950 . S
C2129 C2131 1.327 . S
C2129 C2135 1.429 . S
C2130 C2122 1.574 . S
C2130 H2125 0.949 . S
C2130 C2136 1.368 . S
C2131 C2115 1.349 . S
C2131 H2123 0.950 . S
C2131 C2129 1.327 . S
C2132 C2120 1.349 . S
C2132 H2126 0.950 . S
C2132 C2133 1.327 . S
C2133 H2127 0.950 . S
C2133 C2132 1.327 . S
C2133 C2137 1.429 . S
C2134 C2117 1.574 . S
C2134 H2128 0.949 . S
C2134 C2138 1.368 . S
C2135 C2116 1.429 . S
C2135 C2129 1.429 . S
C2135 C2136 1.523 . S
C2136 C2117 1.368 . S
C2136 C2130 1.368 . S
C2136 C2135 1.523 . S
C2137 C2121 1.429 . S
C2137 C2133 1.429 . S
C2137 C2138 1.523 . S
C2138 C2122 1.368 . S
C2138 C2134 1.368 . S
C2138 C2137 1.523 . S
H2139 C2114 0.950 . S
H2140 C2116 0.950 . S
H2141 C2117 0.949 . S
H2142 C2119 0.950 . S
H2143 C2121 0.950 . S
C2144 C2145 1.349 . S
C2144 C2146 1.327 . S
C2144 H2169 0.950 . S
C2145 C2144 1.349 . S
C2145 C2161 1.349 . S
C2146 C2144 1.327 . S
C2146 C2165 1.429 . S
C2146 H2170 0.950 . S
C2147 C2164 1.574 . S
C2147 C2166 1.368 . S
C2147 H2171 0.949 . S
H2148 C2152 0.949 . S
C2149 C2150 1.349 . S
C2149 C2151 1.327 . S
C2149 H2172 0.950 . S
C2150 C2149 1.349 . S
C2150 C2162 1.349 . S
C2151 C2149 1.327 . S
C2151 C2167 1.429 . S
C2151 H2173 0.950 . S
C2152 H2148 0.949 . S
C2152 C2160 1.574 . S
C2152 C2168 1.368 . S
H2153 C2161 0.950 . S
H2154 C2159 0.950 . S
H2155 C2160 0.949 . S
H2156 C2162 0.950 . S
H2157 C2163 0.950 . S
H2158 C2164 0.949 . S
C2159 H2154 0.950 . S
C2159 C2161 1.327 . S
C2159 C2165 1.429 . S
C2160 C2152 1.574 . S
C2160 H2155 0.949 . S
C2160 C2166 1.368 . S
C2161 C2145 1.349 . S
C2161 H2153 0.950 . S
C2161 C2159 1.327 . S
C2162 C2150 1.349 . S
C2162 H2156 0.950 . S
C2162 C2163 1.327 . S
C2163 H2157 0.950 . S
C2163 C2162 1.327 . S
C2163 C2167 1.429 . S
C2164 C2147 1.574 . S
C2164 H2158 0.949 . S
C2164 C2168 1.368 . S
C2165 C2146 1.429 . S
C2165 C2159 1.429 . S
C2165 C2166 1.523 . S
C2166 C2147 1.368 . S
C2166 C2160 1.368 . S
C2166 C2165 1.523 . S
C2167 C2151 1.429 . S
C2167 C2163 1.429 . S
C2167 C2168 1.523 . S
C2168 C2152 1.368 . S
C2168 C2164 1.368 . S
C2168 C2167 1.523 . S
H2169 C2144 0.950 . S
H2170 C2146 0.950 . S
H2171 C2147 0.949 . S
H2172 C2149 0.950 . S
H2173 C2151 0.950 . S
C2174 C2175 1.349 . S
C2174 C2176 1.327 . S
C2174 H2199 0.950 . S
C2175 C2174 1.349 . S
C2175 C2191 1.349 . S
C2176 C2174 1.327 . S
C2176 C2195 1.429 . S
C2176 H2200 0.950 . S
C2177 C2194 1.574 . S
C2177 C2196 1.368 . S
C2177 H2201 0.949 . S
H2178 C2182 0.949 . S
C2179 C2180 1.349 . S
C2179 C2181 1.327 . S
C2179 H2202 0.950 . S
C2180 C2179 1.349 . S
C2180 C2192 1.349 . S
C2181 C2179 1.327 . S
C2181 C2197 1.429 . S
C2181 H2203 0.950 . S
C2182 H2178 0.949 . S
C2182 C2190 1.574 . S
C2182 C2198 1.368 . S
H2183 C2191 0.950 . S
H2184 C2189 0.950 . S
H2185 C2190 0.949 . S
H2186 C2192 0.950 . S
H2187 C2193 0.950 . S
H2188 C2194 0.949 . S
C2189 H2184 0.950 . S
C2189 C2191 1.327 . S
C2189 C2195 1.429 . S
C2190 C2182 1.574 . S
C2190 H2185 0.949 . S
C2190 C2196 1.368 . S
C2191 C2175 1.349 . S
C2191 H2183 0.950 . S
C2191 C2189 1.327 . S
C2192 C2180 1.349 . S
C2192 H2186 0.950 . S
C2192 C2193 1.327 . S
C2193 H2187 0.950 . S
C2193 C2192 1.327 . S
C2193 C2197 1.429 . S
C2194 C2177 1.574 . S
C2194 H2188 0.949 . S
C2194 C2198 1.368 . S
C2195 C2176 1.429 . S
C2195 C2189 1.429 . S
C2195 C2196 1.523 . S
C2196 C2177 1.368 . S
C2196 C2190 1.368 . S
C2196 C2195 1.523 . S
C2197 C2181 1.429 . S
C2197 C2193 1.429 . S
C2197 C2198 1.523 . S
C2198 C2182 1.368 . S
C2198 C2194 1.368 . S
C2198 C2197 1.523 . S
H2199 C2174 0.950 . S
H2200 C2176 0.950 . S
H2201 C2177 0.949 . S
H2202 C2179 0.950 . S
H2203 C2181 0.950 . S
C2204 C2205 1.349 . S
C2204 C2206 1.327 . S
C2204 H2229 0.950 . S
C2205 C2204 1.349 . S
C2205 C2221 1.349 . S
C2206 C2204 1.327 . S
C2206 C2225 1.429 . S
C2206 H2230 0.950 . S
C2207 C2224 1.574 . S
C2207 C2226 1.368 . S
C2207 H2231 0.949 . S
H2208 C2212 0.949 . S
C2209 C2210 1.349 . S
C2209 C2211 1.327 . S
C2209 H2232 0.950 . S
C2210 C2209 1.349 . S
C2210 C2222 1.349 . S
C2211 C2209 1.327 . S
C2211 C2227 1.429 . S
C2211 H2233 0.950 . S
C2212 H2208 0.949 . S
C2212 C2220 1.574 . S
C2212 C2228 1.368 . S
H2213 C2221 0.950 . S
H2214 C2219 0.950 . S
H2215 C2220 0.949 . S
H2216 C2222 0.950 . S
H2217 C2223 0.950 . S
H2218 C2224 0.949 . S
C2219 H2214 0.950 . S
C2219 C2221 1.327 . S
C2219 C2225 1.429 . S
C2220 C2212 1.574 . S
C2220 H2215 0.949 . S
C2220 C2226 1.368 . S
C2221 C2205 1.349 . S
C2221 H2213 0.950 . S
C2221 C2219 1.327 . S
C2222 C2210 1.349 . S
C2222 H2216 0.950 . S
C2222 C2223 1.327 . S
C2223 H2217 0.950 . S
C2223 C2222 1.327 . S
C2223 C2227 1.429 . S
C2224 C2207 1.574 . S
C2224 H2218 0.949 . S
C2224 C2228 1.368 . S
C2225 C2206 1.429 . S
C2225 C2219 1.429 . S
C2225 C2226 1.523 . S
C2226 C2207 1.368 . S
C2226 C2220 1.368 . S
C2226 C2225 1.523 . S
C2227 C2211 1.429 . S
C2227 C2223 1.429 . S
C2227 C2228 1.523 . S
C2228 C2212 1.368 . S
C2228 C2224 1.368 . S
C2228 C2227 1.523 . S
H2229 C2204 0.950 . S
H2230 C2206 0.950 . S
H2231 C2207 0.949 . S
H2232 C2209 0.950 . S
H2233 C2211 0.950 . S
C2234 C2235 1.349 . S
C2234 C2236 1.327 . S
C2234 H2259 0.950 . S
C2235 C2234 1.349 . S
C2235 C2251 1.349 . S
C2236 C2234 1.327 . S
C2236 C2255 1.429 . S
C2236 H2260 0.950 . S
C2237 C2254 1.574 . S
C2237 C2256 1.368 . S
C2237 H2261 0.949 . S
H2238 C2242 0.949 . S
C2239 C2240 1.349 . S
C2239 C2241 1.327 . S
C2239 H2262 0.950 . S
C2240 C2239 1.349 . S
C2240 C2252 1.349 . S
C2241 C2239 1.327 . S
C2241 C2257 1.429 . S
C2241 H2263 0.950 . S
C2242 H2238 0.949 . S
C2242 C2250 1.574 . S
C2242 C2258 1.368 . S
H2243 C2251 0.950 . S
H2244 C2249 0.950 . S
H2245 C2250 0.949 . S
H2246 C2252 0.950 . S
H2247 C2253 0.950 . S
H2248 C2254 0.949 . S
C2249 H2244 0.950 . S
C2249 C2251 1.327 . S
C2249 C2255 1.429 . S
C2250 C2242 1.574 . S
C2250 H2245 0.949 . S
C2250 C2256 1.368 . S
C2251 C2235 1.349 . S
C2251 H2243 0.950 . S
C2251 C2249 1.327 . S
C2252 C2240 1.349 . S
C2252 H2246 0.950 . S
C2252 C2253 1.327 . S
C2253 H2247 0.950 . S
C2253 C2252 1.327 . S
C2253 C2257 1.429 . S
C2254 C2237 1.574 . S
C2254 H2248 0.949 . S
C2254 C2258 1.368 . S
C2255 C2236 1.429 . S
C2255 C2249 1.429 . S
C2255 C2256 1.523 . S
C2256 C2237 1.368 . S
C2256 C2250 1.368 . S
C2256 C2255 1.523 . S
C2257 C2241 1.429 . S
C2257 C2253 1.429 . S
C2257 C2258 1.523 . S
C2258 C2242 1.368 . S
C2258 C2254 1.368 . S
C2258 C2257 1.523 . S
H2259 C2234 0.950 . S
H2260 C2236 0.950 . S
H2261 C2237 0.949 . S
H2262 C2239 0.950 . S
H2263 C2241 0.950 . S
C2264 C2265 1.349 . S
C2264 C2266 1.327 . S
C2264 H2289 0.950 . S
C2265 C2264 1.349 . S
C2265 C2281 1.349 . S
C2266 C2264 1.327 . S
C2266 C2285 1.429 . S
C2266 H2290 0.950 . S
C2267 C2284 1.574 . S
C2267 C2286 1.368 . S
C2267 H2291 0.949 . S
H2268 C2272 0.949 . S
C2269 C2270 1.349 . S
C2269 C2271 1.327 . S
C2269 H2292 0.950 . S
C2270 C2269 1.349 . S
C2270 C2282 1.349 . S
C2271 C2269 1.327 . S
C2271 C2287 1.429 . S
C2271 H2293 0.950 . S
C2272 H2268 0.949 . S
C2272 C2280 1.574 . S
C2272 C2288 1.368 . S
H2273 C2281 0.950 . S
H2274 C2279 0.950 . S
H2275 C2280 0.949 . S
H2276 C2282 0.950 . S
H2277 C2283 0.950 . S
H2278 C2284 0.949 . S
C2279 H2274 0.950 . S
C2279 C2281 1.327 . S
C2279 C2285 1.429 . S
C2280 C2272 1.574 . S
C2280 H2275 0.949 . S
C2280 C2286 1.368 . S
C2281 C2265 1.349 . S
C2281 H2273 0.950 . S
C2281 C2279 1.327 . S
C2282 C2270 1.349 . S
C2282 H2276 0.950 . S
C2282 C2283 1.327 . S
C2283 H2277 0.950 . S
C2283 C2282 1.327 . S
C2283 C2287 1.429 . S
C2284 C2267 1.574 . S
C2284 H2278 0.949 . S
C2284 C2288 1.368 . S
C2285 C2266 1.429 . S
C2285 C2279 1.429 . S
C2285 C2286 1.523 . S
C2286 C2267 1.368 . S
C2286 C2280 1.368 . S
C2286 C2285 1.523 . S
C2287 C2271 1.429 . S
C2287 C2283 1.429 . S
C2287 C2288 1.523 . S
C2288 C2272 1.368 . S
C2288 C2284 1.368 . S
C2288 C2287 1.523 . S
H2289 C2264 0.950 . S
H2290 C2266 0.950 . S
H2291 C2267 0.949 . S
H2292 C2269 0.950 . S
H2293 C2271 0.950 . S
C2294 C2295 1.349 . S
C2294 C2296 1.327 . S
C2294 H2319 0.950 . S
C2295 C2294 1.349 . S
C2295 C2311 1.349 . S
C2296 C2294 1.327 . S
C2296 C2315 1.429 . S
C2296 H2320 0.950 . S
C2297 C2314 1.574 . S
C2297 C2316 1.368 . S
C2297 H2321 0.949 . S
H2298 C2302 0.949 . S
C2299 C2300 1.349 . S
C2299 C2301 1.327 . S
C2299 H2322 0.950 . S
C2300 C2299 1.349 . S
C2300 C2312 1.349 . S
C2301 C2299 1.327 . S
C2301 C2317 1.429 . S
C2301 H2323 0.950 . S
C2302 H2298 0.949 . S
C2302 C2310 1.574 . S
C2302 C2318 1.368 . S
H2303 C2311 0.950 . S
H2304 C2309 0.950 . S
H2305 C2310 0.949 . S
H2306 C2312 0.950 . S
H2307 C2313 0.950 . S
H2308 C2314 0.949 . S
C2309 H2304 0.950 . S
C2309 C2311 1.327 . S
C2309 C2315 1.429 . S
C2310 C2302 1.574 . S
C2310 H2305 0.949 . S
C2310 C2316 1.368 . S
C2311 C2295 1.349 . S
C2311 H2303 0.950 . S
C2311 C2309 1.327 . S
C2312 C2300 1.349 . S
C2312 H2306 0.950 . S
C2312 C2313 1.327 . S
C2313 H2307 0.950 . S
C2313 C2312 1.327 . S
C2313 C2317 1.429 . S
C2314 C2297 1.574 . S
C2314 H2308 0.949 . S
C2314 C2318 1.368 . S
C2315 C2296 1.429 . S
C2315 C2309 1.429 . S
C2315 C2316 1.523 . S
C2316 C2297 1.368 . S
C2316 C2310 1.368 . S
C2316 C2315 1.523 . S
C2317 C2301 1.429 . S
C2317 C2313 1.429 . S
C2317 C2318 1.523 . S
C2318 C2302 1.368 . S
C2318 C2314 1.368 . S
C2318 C2317 1.523 . S
H2319 C2294 0.950 . S
H2320 C2296 0.950 . S
H2321 C2297 0.949 . S
H2322 C2299 0.950 . S
H2323 C2301 0.950 . S
C2324 C2325 1.349 . S
C2324 C2326 1.327 . S
C2324 H2349 0.950 . S
C2325 C2324 1.349 . S
C2325 C2341 1.349 . S
C2326 C2324 1.327 . S
C2326 C2345 1.429 . S
C2326 H2350 0.950 . S
C2327 C2344 1.574 . S
C2327 C2346 1.368 . S
C2327 H2351 0.949 . S
H2328 C2332 0.949 . S
C2329 C2330 1.349 . S
C2329 C2331 1.327 . S
C2329 H2352 0.950 . S
C2330 C2329 1.349 . S
C2330 C2342 1.349 . S
C2331 C2329 1.327 . S
C2331 C2347 1.429 . S
C2331 H2353 0.950 . S
C2332 H2328 0.949 . S
C2332 C2340 1.574 . S
C2332 C2348 1.368 . S
H2333 C2341 0.950 . S
H2334 C2339 0.950 . S
H2335 C2340 0.949 . S
H2336 C2342 0.950 . S
H2337 C2343 0.950 . S
H2338 C2344 0.949 . S
C2339 H2334 0.950 . S
C2339 C2341 1.327 . S
C2339 C2345 1.429 . S
C2340 C2332 1.574 . S
C2340 H2335 0.949 . S
C2340 C2346 1.368 . S
C2341 C2325 1.349 . S
C2341 H2333 0.950 . S
C2341 C2339 1.327 . S
C2342 C2330 1.349 . S
C2342 H2336 0.950 . S
C2342 C2343 1.327 . S
C2343 H2337 0.950 . S
C2343 C2342 1.327 . S
C2343 C2347 1.429 . S
C2344 C2327 1.574 . S
C2344 H2338 0.949 . S
C2344 C2348 1.368 . S
C2345 C2326 1.429 . S
C2345 C2339 1.429 . S
C2345 C2346 1.523 . S
C2346 C2327 1.368 . S
C2346 C2340 1.368 . S
C2346 C2345 1.523 . S
C2347 C2331 1.429 . S
C2347 C2343 1.429 . S
C2347 C2348 1.523 . S
C2348 C2332 1.368 . S
C2348 C2344 1.368 . S
C2348 C2347 1.523 . S
H2349 C2324 0.950 . S
H2350 C2326 0.950 . S
H2351 C2327 0.949 . S
H2352 C2329 0.950 . S
H2353 C2331 0.950 . S
C2354 C2355 1.349 . S
C2354 C2356 1.327 . S
C2354 H2379 0.950 . S
C2355 C2354 1.349 . S
C2355 C2371 1.349 . S
C2356 C2354 1.327 . S
C2356 C2375 1.429 . S
C2356 H2380 0.950 . S
C2357 C2374 1.574 . S
C2357 C2376 1.368 . S
C2357 H2381 0.949 . S
H2358 C2362 0.949 . S
C2359 C2360 1.349 . S
C2359 C2361 1.327 . S
C2359 H2382 0.950 . S
C2360 C2359 1.349 . S
C2360 C2372 1.349 . S
C2361 C2359 1.327 . S
C2361 C2377 1.429 . S
C2361 H2383 0.950 . S
C2362 H2358 0.949 . S
C2362 C2370 1.574 . S
C2362 C2378 1.368 . S
H2363 C2371 0.950 . S
H2364 C2369 0.950 . S
H2365 C2370 0.949 . S
H2366 C2372 0.950 . S
H2367 C2373 0.950 . S
H2368 C2374 0.949 . S
C2369 H2364 0.950 . S
C2369 C2371 1.327 . S
C2369 C2375 1.429 . S
C2370 C2362 1.574 . S
C2370 H2365 0.949 . S
C2370 C2376 1.368 . S
C2371 C2355 1.349 . S
C2371 H2363 0.950 . S
C2371 C2369 1.327 . S
C2372 C2360 1.349 . S
C2372 H2366 0.950 . S
C2372 C2373 1.327 . S
C2373 H2367 0.950 . S
C2373 C2372 1.327 . S
C2373 C2377 1.429 . S
C2374 C2357 1.574 . S
C2374 H2368 0.949 . S
C2374 C2378 1.368 . S
C2375 C2356 1.429 . S
C2375 C2369 1.429 . S
C2375 C2376 1.523 . S
C2376 C2357 1.368 . S
C2376 C2370 1.368 . S
C2376 C2375 1.523 . S
C2377 C2361 1.429 . S
C2377 C2373 1.429 . S
C2377 C2378 1.523 . S
C2378 C2362 1.368 . S
C2378 C2374 1.368 . S
C2378 C2377 1.523 . S
H2379 C2354 0.950 . S
H2380 C2356 0.950 . S
H2381 C2357 0.949 . S
H2382 C2359 0.950 . S
H2383 C2361 0.950 . S
C2384 C2385 1.349 . S
C2384 C2386 1.327 . S
C2384 H2409 0.950 . S
C2385 C2384 1.349 . S
C2385 C2401 1.349 . S
C2386 C2384 1.327 . S
C2386 C2405 1.429 . S
C2386 H2410 0.950 . S
C2387 C2404 1.574 . S
C2387 C2406 1.368 . S
C2387 H2411 0.949 . S
H2388 C2392 0.949 . S
C2389 C2390 1.349 . S
C2389 C2391 1.327 . S
C2389 H2412 0.950 . S
C2390 C2389 1.349 . S
C2390 C2402 1.349 . S
C2391 C2389 1.327 . S
C2391 C2407 1.429 . S
C2391 H2413 0.950 . S
C2392 H2388 0.949 . S
C2392 C2400 1.574 . S
C2392 C2408 1.368 . S
H2393 C2401 0.950 . S
H2394 C2399 0.950 . S
H2395 C2400 0.949 . S
H2396 C2402 0.950 . S
H2397 C2403 0.950 . S
H2398 C2404 0.949 . S
C2399 H2394 0.950 . S
C2399 C2401 1.327 . S
C2399 C2405 1.429 . S
C2400 C2392 1.574 . S
C2400 H2395 0.949 . S
C2400 C2406 1.368 . S
C2401 C2385 1.349 . S
C2401 H2393 0.950 . S
C2401 C2399 1.327 . S
C2402 C2390 1.349 . S
C2402 H2396 0.950 . S
C2402 C2403 1.327 . S
C2403 H2397 0.950 . S
C2403 C2402 1.327 . S
C2403 C2407 1.429 . S
C2404 C2387 1.574 . S
C2404 H2398 0.949 . S
C2404 C2408 1.368 . S
C2405 C2386 1.429 . S
C2405 C2399 1.429 . S
C2405 C2406 1.523 . S
C2406 C2387 1.368 . S
C2406 C2400 1.368 . S
C2406 C2405 1.523 . S
C2407 C2391 1.429 . S
C2407 C2403 1.429 . S
C2407 C2408 1.523 . S
C2408 C2392 1.368 . S
C2408 C2404 1.368 . S
C2408 C2407 1.523 . S
H2409 C2384 0.950 . S
H2410 C2386 0.950 . S
H2411 C2387 0.949 . S
H2412 C2389 0.950 . S
H2413 C2391 0.950 . S
C2414 C2415 1.349 . S
C2414 C2416 1.327 . S
C2414 H2439 0.950 . S
C2415 C2414 1.349 . S
C2415 C2431 1.349 . S
C2416 C2414 1.327 . S
C2416 C2435 1.429 . S
C2416 H2440 0.950 . S
C2417 C2434 1.574 . S
C2417 C2436 1.368 . S
C2417 H2441 0.949 . S
H2418 C2422 0.949 . S
C2419 C2420 1.349 . S
C2419 C2421 1.327 . S
C2419 H2442 0.950 . S
C2420 C2419 1.349 . S
C2420 C2432 1.349 . S
C2421 C2419 1.327 . S
C2421 C2437 1.429 . S
C2421 H2443 0.950 . S
C2422 H2418 0.949 . S
C2422 C2430 1.574 . S
C2422 C2438 1.368 . S
H2423 C2431 0.950 . S
H2424 C2429 0.950 . S
H2425 C2430 0.949 . S
H2426 C2432 0.950 . S
H2427 C2433 0.950 . S
H2428 C2434 0.949 . S
C2429 H2424 0.950 . S
C2429 C2431 1.327 . S
C2429 C2435 1.429 . S
C2430 C2422 1.574 . S
C2430 H2425 0.949 . S
C2430 C2436 1.368 . S
C2431 C2415 1.349 . S
C2431 H2423 0.950 . S
C2431 C2429 1.327 . S
C2432 C2420 1.349 . S
C2432 H2426 0.950 . S
C2432 C2433 1.327 . S
C2433 H2427 0.950 . S
C2433 C2432 1.327 . S
C2433 C2437 1.429 . S
C2434 C2417 1.574 . S
C2434 H2428 0.949 . S
C2434 C2438 1.368 . S
C2435 C2416 1.429 . S
C2435 C2429 1.429 . S
C2435 C2436 1.523 . S
C2436 C2417 1.368 . S
C2436 C2430 1.368 . S
C2436 C2435 1.523 . S
C2437 C2421 1.429 . S
C2437 C2433 1.429 . S
C2437 C2438 1.523 . S
C2438 C2422 1.368 . S
C2438 C2434 1.368 . S
C2438 C2437 1.523 . S
H2439 C2414 0.950 . S
H2440 C2416 0.950 . S
H2441 C2417 0.949 . S
H2442 C2419 0.950 . S
H2443 C2421 0.950 . S
C2444 C2445 1.349 . S
C2444 C2446 1.327 . S
C2444 H2469 0.950 . S
C2445 C2444 1.349 . S
C2445 C2461 1.349 . S
C2446 C2444 1.327 . S
C2446 C2465 1.429 . S
C2446 H2470 0.950 . S
C2447 C2464 1.574 . S
C2447 C2466 1.368 . S
C2447 H2471 0.949 . S
H2448 C2452 0.949 . S
C2449 C2450 1.349 . S
C2449 C2451 1.327 . S
C2449 H2472 0.950 . S
C2450 C2449 1.349 . S
C2450 C2462 1.349 . S
C2451 C2449 1.327 . S
C2451 C2467 1.429 . S
C2451 H2473 0.950 . S
C2452 H2448 0.949 . S
C2452 C2460 1.574 . S
C2452 C2468 1.368 . S
H2453 C2461 0.950 . S
H2454 C2459 0.950 . S
H2455 C2460 0.949 . S
H2456 C2462 0.950 . S
H2457 C2463 0.950 . S
H2458 C2464 0.949 . S
C2459 H2454 0.950 . S
C2459 C2461 1.327 . S
C2459 C2465 1.429 . S
C2460 C2452 1.574 . S
C2460 H2455 0.949 . S
C2460 C2466 1.368 . S
C2461 C2445 1.349 . S
C2461 H2453 0.950 . S
C2461 C2459 1.327 . S
C2462 C2450 1.349 . S
C2462 H2456 0.950 . S
C2462 C2463 1.327 . S
C2463 H2457 0.950 . S
C2463 C2462 1.327 . S
C2463 C2467 1.429 . S
C2464 C2447 1.574 . S
C2464 H2458 0.949 . S
C2464 C2468 1.368 . S
C2465 C2446 1.429 . S
C2465 C2459 1.429 . S
C2465 C2466 1.523 . S
C2466 C2447 1.368 . S
C2466 C2460 1.368 . S
C2466 C2465 1.523 . S
C2467 C2451 1.429 . S
C2467 C2463 1.429 . S
C2467 C2468 1.523 . S
C2468 C2452 1.368 . S
C2468 C2464 1.368 . S
C2468 C2467 1.523 . S
H2469 C2444 0.950 . S
H2470 C2446 0.950 . S
H2471 C2447 0.949 . S
H2472 C2449 0.950 . S
H2473 C2451 0.950 . S
C2474 C2475 1.349 . S
C2474 C2476 1.327 . S
C2474 H2499 0.950 . S
C2475 C2474 1.349 . S
C2475 C2491 1.349 . S
C2476 C2474 1.327 . S
C2476 C2495 1.429 . S
C2476 H2500 0.950 . S
C2477 C2494 1.574 . S
C2477 C2496 1.368 . S
C2477 H2501 0.949 . S
H2478 C2482 0.949 . S
C2479 C2480 1.349 . S
C2479 C2481 1.327 . S
C2479 H2502 0.950 . S
C2480 C2479 1.349 . S
C2480 C2492 1.349 . S
C2481 C2479 1.327 . S
C2481 C2497 1.429 . S
C2481 H2503 0.950 . S
C2482 H2478 0.949 . S
C2482 C2490 1.574 . S
C2482 C2498 1.368 . S
H2483 C2491 0.950 . S
H2484 C2489 0.950 . S
H2485 C2490 0.949 . S
H2486 C2492 0.950 . S
H2487 C2493 0.950 . S
H2488 C2494 0.949 . S
C2489 H2484 0.950 . S
C2489 C2491 1.327 . S
C2489 C2495 1.429 . S
C2490 C2482 1.574 . S
C2490 H2485 0.949 . S
C2490 C2496 1.368 . S
C2491 C2475 1.349 . S
C2491 H2483 0.950 . S
C2491 C2489 1.327 . S
C2492 C2480 1.349 . S
C2492 H2486 0.950 . S
C2492 C2493 1.327 . S
C2493 H2487 0.950 . S
C2493 C2492 1.327 . S
C2493 C2497 1.429 . S
C2494 C2477 1.574 . S
C2494 H2488 0.949 . S
C2494 C2498 1.368 . S
C2495 C2476 1.429 . S
C2495 C2489 1.429 . S
C2495 C2496 1.523 . S
C2496 C2477 1.368 . S
C2496 C2490 1.368 . S
C2496 C2495 1.523 . S
C2497 C2481 1.429 . S
C2497 C2493 1.429 . S
C2497 C2498 1.523 . S
C2498 C2482 1.368 . S
C2498 C2494 1.368 . S
C2498 C2497 1.523 . S
H2499 C2474 0.950 . S
H2500 C2476 0.950 . S
H2501 C2477 0.949 . S
H2502 C2479 0.950 . S
H2503 C2481 0.950 . S
C2504 C2505 1.349 . S
C2504 C2506 1.327 . S
C2504 H2529 0.950 . S
C2505 C2504 1.349 . S
C2505 C2521 1.349 . S
C2506 C2504 1.327 . S
C2506 C2525 1.429 . S
C2506 H2530 0.950 . S
C2507 C2524 1.574 . S
C2507 C2526 1.368 . S
C2507 H2531 0.949 . S
H2508 C2512 0.949 . S
C2509 C2510 1.349 . S
C2509 C2511 1.327 . S
C2509 H2532 0.950 . S
C2510 C2509 1.349 . S
C2510 C2522 1.349 . S
C2511 C2509 1.327 . S
C2511 C2527 1.429 . S
C2511 H2533 0.950 . S
C2512 H2508 0.949 . S
C2512 C2520 1.574 . S
C2512 C2528 1.368 . S
H2513 C2521 0.950 . S
H2514 C2519 0.950 . S
H2515 C2520 0.949 . S
H2516 C2522 0.950 . S
H2517 C2523 0.950 . S
H2518 C2524 0.949 . S
C2519 H2514 0.950 . S
C2519 C2521 1.327 . S
C2519 C2525 1.429 . S
C2520 C2512 1.574 . S
C2520 H2515 0.949 . S
C2520 C2526 1.368 . S
C2521 C2505 1.349 . S
C2521 H2513 0.950 . S
C2521 C2519 1.327 . S
C2522 C2510 1.349 . S
C2522 H2516 0.950 . S
C2522 C2523 1.327 . S
C2523 H2517 0.950 . S
C2523 C2522 1.327 . S
C2523 C2527 1.429 . S
C2524 C2507 1.574 . S
C2524 H2518 0.949 . S
C2524 C2528 1.368 . S
C2525 C2506 1.429 . S
C2525 C2519 1.429 . S
C2525 C2526 1.523 . S
C2526 C2507 1.368 . S
C2526 C2520 1.368 . S
C2526 C2525 1.523 . S
C2527 C2511 1.429 . S
C2527 C2523 1.429 . S
C2527 C2528 1.523 . S
C2528 C2512 1.368 . S
C2528 C2524 1.368 . S
C2528 C2527 1.523 . S
H2529 C2504 0.950 . S
H2530 C2506 0.950 . S
H2531 C2507 0.949 . S
H2532 C2509 0.950 . S
H2533 C2511 0.950 . S
C2534 C2535 1.349 . S
C2534 C2536 1.327 . S
C2534 H2559 0.950 . S
C2535 C2534 1.349 . S
C2535 C2551 1.349 . S
C2536 C2534 1.327 . S
C2536 C2555 1.429 . S
C2536 H2560 0.950 . S
C2537 C2554 1.574 . S
C2537 C2556 1.368 . S
C2537 H2561 0.949 . S
H2538 C2542 0.949 . S
C2539 C2540 1.349 . S
C2539 C2541 1.327 . S
C2539 H2562 0.950 . S
C2540 C2539 1.349 . S
C2540 C2552 1.349 . S
C2541 C2539 1.327 . S
C2541 C2557 1.429 . S
C2541 H2563 0.950 . S
C2542 H2538 0.949 . S
C2542 C2550 1.574 . S
C2542 C2558 1.368 . S
H2543 C2551 0.950 . S
H2544 C2549 0.950 . S
H2545 C2550 0.949 . S
H2546 C2552 0.950 . S
H2547 C2553 0.950 . S
H2548 C2554 0.949 . S
C2549 H2544 0.950 . S
C2549 C2551 1.327 . S
C2549 C2555 1.429 . S
C2550 C2542 1.574 . S
C2550 H2545 0.949 . S
C2550 C2556 1.368 . S
C2551 C2535 1.349 . S
C2551 H2543 0.950 . S
C2551 C2549 1.327 . S
C2552 C2540 1.349 . S
C2552 H2546 0.950 . S
C2552 C2553 1.327 . S
C2553 H2547 0.950 . S
C2553 C2552 1.327 . S
C2553 C2557 1.429 . S
C2554 C2537 1.574 . S
C2554 H2548 0.949 . S
C2554 C2558 1.368 . S
C2555 C2536 1.429 . S
C2555 C2549 1.429 . S
C2555 C2556 1.523 . S
C2556 C2537 1.368 . S
C2556 C2550 1.368 . S
C2556 C2555 1.523 . S
C2557 C2541 1.429 . S
C2557 C2553 1.429 . S
C2557 C2558 1.523 . S
C2558 C2542 1.368 . S
C2558 C2554 1.368 . S
C2558 C2557 1.523 . S
H2559 C2534 0.950 . S
H2560 C2536 0.950 . S
H2561 C2537 0.949 . S
H2562 C2539 0.950 . S
H2563 C2541 0.950 . S
C2564 C2565 1.349 . S
C2564 C2566 1.327 . S
C2564 H2589 0.950 . S
C2565 C2564 1.349 . S
C2565 C2581 1.349 . S
C2566 C2564 1.327 . S
C2566 C2585 1.429 . S
C2566 H2590 0.950 . S
C2567 C2584 1.574 . S
C2567 C2586 1.368 . S
C2567 H2591 0.949 . S
H2568 C2572 0.949 . S
C2569 C2570 1.349 . S
C2569 C2571 1.327 . S
C2569 H2592 0.950 . S
C2570 C2569 1.349 . S
C2570 C2582 1.349 . S
C2571 C2569 1.327 . S
C2571 C2587 1.429 . S
C2571 H2593 0.950 . S
C2572 H2568 0.949 . S
C2572 C2580 1.574 . S
C2572 C2588 1.368 . S
H2573 C2581 0.950 . S
H2574 C2579 0.950 . S
H2575 C2580 0.949 . S
H2576 C2582 0.950 . S
H2577 C2583 0.950 . S
H2578 C2584 0.949 . S
C2579 H2574 0.950 . S
C2579 C2581 1.327 . S
C2579 C2585 1.429 . S
C2580 C2572 1.574 . S
C2580 H2575 0.949 . S
C2580 C2586 1.368 . S
C2581 C2565 1.349 . S
C2581 H2573 0.950 . S
C2581 C2579 1.327 . S
C2582 C2570 1.349 . S
C2582 H2576 0.950 . S
C2582 C2583 1.327 . S
C2583 H2577 0.950 . S
C2583 C2582 1.327 . S
C2583 C2587 1.429 . S
C2584 C2567 1.574 . S
C2584 H2578 0.949 . S
C2584 C2588 1.368 . S
C2585 C2566 1.429 . S
C2585 C2579 1.429 . S
C2585 C2586 1.523 . S
C2586 C2567 1.368 . S
C2586 C2580 1.368 . S
C2586 C2585 1.523 . S
C2587 C2571 1.429 . S
C2587 C2583 1.429 . S
C2587 C2588 1.523 . S
C2588 C2572 1.368 . S
C2588 C2584 1.368 . S
C2588 C2587 1.523 . S
H2589 C2564 0.950 . S
H2590 C2566 0.950 . S
H2591 C2567 0.949 . S
H2592 C2569 0.950 . S
H2593 C2571 0.950 . S
C2594 C2595 1.349 . S
C2594 C2596 1.327 . S
C2594 H2619 0.950 . S
C2595 C2594 1.349 . S
C2595 C2611 1.349 . S
C2596 C2594 1.327 . S
C2596 C2615 1.429 . S
C2596 H2620 0.950 . S
C2597 C2614 1.574 . S
C2597 C2616 1.368 . S
C2597 H2621 0.949 . S
H2598 C2602 0.949 . S
C2599 C2600 1.349 . S
C2599 C2601 1.327 . S
C2599 H2622 0.950 . S
C2600 C2599 1.349 . S
C2600 C2612 1.349 . S
C2601 C2599 1.327 . S
C2601 C2617 1.429 . S
C2601 H2623 0.950 . S
C2602 H2598 0.949 . S
C2602 C2610 1.574 . S
C2602 C2618 1.368 . S
H2603 C2611 0.950 . S
H2604 C2609 0.950 . S
H2605 C2610 0.949 . S
H2606 C2612 0.950 . S
H2607 C2613 0.950 . S
H2608 C2614 0.949 . S
C2609 H2604 0.950 . S
C2609 C2611 1.327 . S
C2609 C2615 1.429 . S
C2610 C2602 1.574 . S
C2610 H2605 0.949 . S
C2610 C2616 1.368 . S
C2611 C2595 1.349 . S
C2611 H2603 0.950 . S
C2611 C2609 1.327 . S
C2612 C2600 1.349 . S
C2612 H2606 0.950 . S
C2612 C2613 1.327 . S
C2613 H2607 0.950 . S
C2613 C2612 1.327 . S
C2613 C2617 1.429 . S
C2614 C2597 1.574 . S
C2614 H2608 0.949 . S
C2614 C2618 1.368 . S
C2615 C2596 1.429 . S
C2615 C2609 1.429 . S
C2615 C2616 1.523 . S
C2616 C2597 1.368 . S
C2616 C2610 1.368 . S
C2616 C2615 1.523 . S
C2617 C2601 1.429 . S
C2617 C2613 1.429 . S
C2617 C2618 1.523 . S
C2618 C2602 1.368 . S
C2618 C2614 1.368 . S
C2618 C2617 1.523 . S
H2619 C2594 0.950 . S
H2620 C2596 0.950 . S
H2621 C2597 0.949 . S
H2622 C2599 0.950 . S
H2623 C2601 0.950 . S
C2624 C2625 1.349 . S
C2624 C2626 1.327 . S
C2624 H2649 0.950 . S
C2625 C2624 1.349 . S
C2625 C2641 1.349 . S
C2626 C2624 1.327 . S
C2626 C2645 1.429 . S
C2626 H2650 0.950 . S
C2627 C2644 1.574 . S
C2627 C2646 1.368 . S
C2627 H2651 0.949 . S
H2628 C2632 0.949 . S
C2629 C2630 1.349 . S
C2629 C2631 1.327 . S
C2629 H2652 0.950 . S
C2630 C2629 1.349 . S
C2630 C2642 1.349 . S
C2631 C2629 1.327 . S
C2631 C2647 1.429 . S
C2631 H2653 0.950 . S
C2632 H2628 0.949 . S
C2632 C2640 1.574 . S
C2632 C2648 1.368 . S
H2633 C2641 0.950 . S
H2634 C2639 0.950 . S
H2635 C2640 0.949 . S
H2636 C2642 0.950 . S
H2637 C2643 0.950 . S
H2638 C2644 0.949 . S
C2639 H2634 0.950 . S
C2639 C2641 1.327 . S
C2639 C2645 1.429 . S
C2640 C2632 1.574 . S
C2640 H2635 0.949 . S
C2640 C2646 1.368 . S
C2641 C2625 1.349 . S
C2641 H2633 0.950 . S
C2641 C2639 1.327 . S
C2642 C2630 1.349 . S
C2642 H2636 0.950 . S
C2642 C2643 1.327 . S
C2643 H2637 0.950 . S
C2643 C2642 1.327 . S
C2643 C2647 1.429 . S
C2644 C2627 1.574 . S
C2644 H2638 0.949 . S
C2644 C2648 1.368 . S
C2645 C2626 1.429 . S
C2645 C2639 1.429 . S
C2645 C2646 1.523 . S
C2646 C2627 1.368 . S
C2646 C2640 1.368 . S
C2646 C2645 1.523 . S
C2647 C2631 1.429 . S
C2647 C2643 1.429 . S
C2647 C2648 1.523 . S
C2648 C2632 1.368 . S
C2648 C2644 1.368 . S
C2648 C2647 1.523 . S
H2649 C2624 0.950 . S
H2650 C2626 0.950 . S
H2651 C2627 0.949 . S
H2652 C2629 0.950 . S
H2653 C2631 0.950 . S
C2654 C2655 1.349 . S
C2654 C2656 1.327 . S
C2654 H2679 0.950 . S
C2655 C2654 1.349 . S
C2655 C2671 1.349 . S
C2656 C2654 1.327 . S
C2656 C2675 1.429 . S
C2656 H2680 0.950 . S
C2657 C2674 1.574 . S
C2657 C2676 1.368 . S
C2657 H2681 0.949 . S
H2658 C2662 0.949 . S
C2659 C2660 1.349 . S
C2659 C2661 1.327 . S
C2659 H2682 0.950 . S
C2660 C2659 1.349 . S
C2660 C2672 1.349 . S
C2661 C2659 1.327 . S
C2661 C2677 1.429 . S
C2661 H2683 0.950 . S
C2662 H2658 0.949 . S
C2662 C2670 1.574 . S
C2662 C2678 1.368 . S
H2663 C2671 0.950 . S
H2664 C2669 0.950 . S
H2665 C2670 0.949 . S
H2666 C2672 0.950 . S
H2667 C2673 0.950 . S
H2668 C2674 0.949 . S
C2669 H2664 0.950 . S
C2669 C2671 1.327 . S
C2669 C2675 1.429 . S
C2670 C2662 1.574 . S
C2670 H2665 0.949 . S
C2670 C2676 1.368 . S
C2671 C2655 1.349 . S
C2671 H2663 0.950 . S
C2671 C2669 1.327 . S
C2672 C2660 1.349 . S
C2672 H2666 0.950 . S
C2672 C2673 1.327 . S
C2673 H2667 0.950 . S
C2673 C2672 1.327 . S
C2673 C2677 1.429 . S
C2674 C2657 1.574 . S
C2674 H2668 0.949 . S
C2674 C2678 1.368 . S
C2675 C2656 1.429 . S
C2675 C2669 1.429 . S
C2675 C2676 1.523 . S
C2676 C2657 1.368 . S
C2676 C2670 1.368 . S
C2676 C2675 1.523 . S
C2677 C2661 1.429 . S
C2677 C2673 1.429 . S
C2677 C2678 1.523 . S
C2678 C2662 1.368 . S
C2678 C2674 1.368 . S
C2678 C2677 1.523 . S
H2679 C2654 0.950 . S
H2680 C2656 0.950 . S
H2681 C2657 0.949 . S
H2682 C2659 0.950 . S
H2683 C2661 0.950 . S
C2684 C2685 1.349 . S
C2684 C2686 1.327 . S
C2684 H2709 0.950 . S
C2685 C2684 1.349 . S
C2685 C2701 1.349 . S
C2686 C2684 1.327 . S
C2686 C2705 1.429 . S
C2686 H2710 0.950 . S
C2687 C2704 1.574 . S
C2687 C2706 1.368 . S
C2687 H2711 0.949 . S
H2688 C2692 0.949 . S
C2689 C2690 1.349 . S
C2689 C2691 1.327 . S
C2689 H2712 0.950 . S
C2690 C2689 1.349 . S
C2690 C2702 1.349 . S
C2691 C2689 1.327 . S
C2691 C2707 1.429 . S
C2691 H2713 0.950 . S
C2692 H2688 0.949 . S
C2692 C2700 1.574 . S
C2692 C2708 1.368 . S
H2693 C2701 0.950 . S
H2694 C2699 0.950 . S
H2695 C2700 0.949 . S
H2696 C2702 0.950 . S
H2697 C2703 0.950 . S
H2698 C2704 0.949 . S
C2699 H2694 0.950 . S
C2699 C2701 1.327 . S
C2699 C2705 1.429 . S
C2700 C2692 1.574 . S
C2700 H2695 0.949 . S
C2700 C2706 1.368 . S
C2701 C2685 1.349 . S
C2701 H2693 0.950 . S
C2701 C2699 1.327 . S
C2702 C2690 1.349 . S
C2702 H2696 0.950 . S
C2702 C2703 1.327 . S
C2703 H2697 0.950 . S
C2703 C2702 1.327 . S
C2703 C2707 1.429 . S
C2704 C2687 1.574 . S
C2704 H2698 0.949 . S
C2704 C2708 1.368 . S
C2705 C2686 1.429 . S
C2705 C2699 1.429 . S
C2705 C2706 1.523 . S
C2706 C2687 1.368 . S
C2706 C2700 1.368 . S
C2706 C2705 1.523 . S
C2707 C2691 1.429 . S
C2707 C2703 1.429 . S
C2707 C2708 1.523 . S
C2708 C2692 1.368 . S
C2708 C2704 1.368 . S
C2708 C2707 1.523 . S
H2709 C2684 0.950 . S
H2710 C2686 0.950 . S
H2711 C2687 0.949 . S
H2712 C2689 0.950 . S
H2713 C2691 0.950 . S
C2714 C2715 1.349 . S
C2714 C2716 1.327 . S
C2714 H2739 0.950 . S
C2715 C2714 1.349 . S
C2715 C2731 1.349 . S
C2716 C2714 1.327 . S
C2716 C2735 1.429 . S
C2716 H2740 0.950 . S
C2717 C2734 1.574 . S
C2717 C2736 1.368 . S
C2717 H2741 0.949 . S
H2718 C2722 0.949 . S
C2719 C2720 1.349 . S
C2719 C2721 1.327 . S
C2719 H2742 0.950 . S
C2720 C2719 1.349 . S
C2720 C2732 1.349 . S
C2721 C2719 1.327 . S
C2721 C2737 1.429 . S
C2721 H2743 0.950 . S
C2722 H2718 0.949 . S
C2722 C2730 1.574 . S
C2722 C2738 1.368 . S
H2723 C2731 0.950 . S
H2724 C2729 0.950 . S
H2725 C2730 0.949 . S
H2726 C2732 0.950 . S
H2727 C2733 0.950 . S
H2728 C2734 0.949 . S
C2729 H2724 0.950 . S
C2729 C2731 1.327 . S
C2729 C2735 1.429 . S
C2730 C2722 1.574 . S
C2730 H2725 0.949 . S
C2730 C2736 1.368 . S
C2731 C2715 1.349 . S
C2731 H2723 0.950 . S
C2731 C2729 1.327 . S
C2732 C2720 1.349 . S
C2732 H2726 0.950 . S
C2732 C2733 1.327 . S
C2733 H2727 0.950 . S
C2733 C2732 1.327 . S
C2733 C2737 1.429 . S
C2734 C2717 1.574 . S
C2734 H2728 0.949 . S
C2734 C2738 1.368 . S
C2735 C2716 1.429 . S
C2735 C2729 1.429 . S
C2735 C2736 1.523 . S
C2736 C2717 1.368 . S
C2736 C2730 1.368 . S
C2736 C2735 1.523 . S
C2737 C2721 1.429 . S
C2737 C2733 1.429 . S
C2737 C2738 1.523 . S
C2738 C2722 1.368 . S
C2738 C2734 1.368 . S
C2738 C2737 1.523 . S
H2739 C2714 0.950 . S
H2740 C2716 0.950 . S
H2741 C2717 0.949 . S
H2742 C2719 0.950 . S
H2743 C2721 0.950 . S
C2744 C2745 1.349 . S
C2744 C2746 1.327 . S
C2744 H2769 0.950 . S
C2745 C2744 1.349 . S
C2745 C2761 1.349 . S
C2746 C2744 1.327 . S
C2746 C2765 1.429 . S
C2746 H2770 0.950 . S
C2747 C2764 1.574 . S
C2747 C2766 1.368 . S
C2747 H2771 0.949 . S
H2748 C2752 0.949 . S
C2749 C2750 1.349 . S
C2749 C2751 1.327 . S
C2749 H2772 0.950 . S
C2750 C2749 1.349 . S
C2750 C2762 1.349 . S
C2751 C2749 1.327 . S
C2751 C2767 1.429 . S
C2751 H2773 0.950 . S
C2752 H2748 0.949 . S
C2752 C2760 1.574 . S
C2752 C2768 1.368 . S
H2753 C2761 0.950 . S
H2754 C2759 0.950 . S
H2755 C2760 0.949 . S
H2756 C2762 0.950 . S
H2757 C2763 0.950 . S
H2758 C2764 0.949 . S
C2759 H2754 0.950 . S
C2759 C2761 1.327 . S
C2759 C2765 1.429 . S
C2760 C2752 1.574 . S
C2760 H2755 0.949 . S
C2760 C2766 1.368 . S
C2761 C2745 1.349 . S
C2761 H2753 0.950 . S
C2761 C2759 1.327 . S
C2762 C2750 1.349 . S
C2762 H2756 0.950 . S
C2762 C2763 1.327 . S
C2763 H2757 0.950 . S
C2763 C2762 1.327 . S
C2763 C2767 1.429 . S
C2764 C2747 1.574 . S
C2764 H2758 0.949 . S
C2764 C2768 1.368 . S
C2765 C2746 1.429 . S
C2765 C2759 1.429 . S
C2765 C2766 1.523 . S
C2766 C2747 1.368 . S
C2766 C2760 1.368 . S
C2766 C2765 1.523 . S
C2767 C2751 1.429 . S
C2767 C2763 1.429 . S
C2767 C2768 1.523 . S
C2768 C2752 1.368 . S
C2768 C2764 1.368 . S
C2768 C2767 1.523 . S
H2769 C2744 0.950 . S
H2770 C2746 0.950 . S
H2771 C2747 0.949 . S
H2772 C2749 0.950 . S
H2773 C2751 0.950 . S
C2774 C2775 1.349 . S
C2774 C2776 1.327 . S
C2774 H2799 0.950 . S
C2775 C2774 1.349 . S
C2775 C2791 1.349 . S
C2776 C2774 1.327 . S
C2776 C2795 1.429 . S
C2776 H2800 0.950 . S
C2777 C2794 1.574 . S
C2777 C2796 1.368 . S
C2777 H2801 0.949 . S
H2778 C2782 0.949 . S
C2779 C2780 1.349 . S
C2779 C2781 1.327 . S
C2779 H2802 0.950 . S
C2780 C2779 1.349 . S
C2780 C2792 1.349 . S
C2781 C2779 1.327 . S
C2781 C2797 1.429 . S
C2781 H2803 0.950 . S
C2782 H2778 0.949 . S
C2782 C2790 1.574 . S
C2782 C2798 1.368 . S
H2783 C2791 0.950 . S
H2784 C2789 0.950 . S
H2785 C2790 0.949 . S
H2786 C2792 0.950 . S
H2787 C2793 0.950 . S
H2788 C2794 0.949 . S
C2789 H2784 0.950 . S
C2789 C2791 1.327 . S
C2789 C2795 1.429 . S
C2790 C2782 1.574 . S
C2790 H2785 0.949 . S
C2790 C2796 1.368 . S
C2791 C2775 1.349 . S
C2791 H2783 0.950 . S
C2791 C2789 1.327 . S
C2792 C2780 1.349 . S
C2792 H2786 0.950 . S
C2792 C2793 1.327 . S
C2793 H2787 0.950 . S
C2793 C2792 1.327 . S
C2793 C2797 1.429 . S
C2794 C2777 1.574 . S
C2794 H2788 0.949 . S
C2794 C2798 1.368 . S
C2795 C2776 1.429 . S
C2795 C2789 1.429 . S
C2795 C2796 1.523 . S
C2796 C2777 1.368 . S
C2796 C2790 1.368 . S
C2796 C2795 1.523 . S
C2797 C2781 1.429 . S
C2797 C2793 1.429 . S
C2797 C2798 1.523 . S
C2798 C2782 1.368 . S
C2798 C2794 1.368 . S
C2798 C2797 1.523 . S
H2799 C2774 0.950 . S
H2800 C2776 0.950 . S
H2801 C2777 0.949 . S
H2802 C2779 0.950 . S
H2803 C2781 0.950 . S
C2804 C2805 1.349 . S
C2804 C2806 1.327 . S
C2804 H2829 0.950 . S
C2805 C2804 1.349 . S
C2805 C2821 1.349 . S
C2806 C2804 1.327 . S
C2806 C2825 1.429 . S
C2806 H2830 0.950 . S
C2807 C2824 1.574 . S
C2807 C2826 1.368 . S
C2807 H2831 0.949 . S
H2808 C2812 0.949 . S
C2809 C2810 1.349 . S
C2809 C2811 1.327 . S
C2809 H2832 0.950 . S
C2810 C2809 1.349 . S
C2810 C2822 1.349 . S
C2811 C2809 1.327 . S
C2811 C2827 1.429 . S
C2811 H2833 0.950 . S
C2812 H2808 0.949 . S
C2812 C2820 1.574 . S
C2812 C2828 1.368 . S
H2813 C2821 0.950 . S
H2814 C2819 0.950 . S
H2815 C2820 0.949 . S
H2816 C2822 0.950 . S
H2817 C2823 0.950 . S
H2818 C2824 0.949 . S
C2819 H2814 0.950 . S
C2819 C2821 1.327 . S
C2819 C2825 1.429 . S
C2820 C2812 1.574 . S
C2820 H2815 0.949 . S
C2820 C2826 1.368 . S
C2821 C2805 1.349 . S
C2821 H2813 0.950 . S
C2821 C2819 1.327 . S
C2822 C2810 1.349 . S
C2822 H2816 0.950 . S
C2822 C2823 1.327 . S
C2823 H2817 0.950 . S
C2823 C2822 1.327 . S
C2823 C2827 1.429 . S
C2824 C2807 1.574 . S
C2824 H2818 0.949 . S
C2824 C2828 1.368 . S
C2825 C2806 1.429 . S
C2825 C2819 1.429 . S
C2825 C2826 1.523 . S
C2826 C2807 1.368 . S
C2826 C2820 1.368 . S
C2826 C2825 1.523 . S
C2827 C2811 1.429 . S
C2827 C2823 1.429 . S
C2827 C2828 1.523 . S
C2828 C2812 1.368 . S
C2828 C2824 1.368 . S
C2828 C2827 1.523 . S
H2829 C2804 0.950 . S
H2830 C2806 0.950 . S
H2831 C2807 0.949 . S
H2832 C2809 0.950 . S
H2833 C2811 0.950 . S
C2834 C2835 1.349 . S
C2834 C2836 1.327 . S
C2834 H2859 0.950 . S
C2835 C2834 1.349 . S
C2835 C2851 1.349 . S
C2836 C2834 1.327 . S
C2836 C2855 1.429 . S
C2836 H2860 0.950 . S
C2837 C2854 1.574 . S
C2837 C2856 1.368 . S
C2837 H2861 0.949 . S
H2838 C2842 0.949 . S
C2839 C2840 1.349 . S
C2839 C2841 1.327 . S
C2839 H2862 0.950 . S
C2840 C2839 1.349 . S
C2840 C2852 1.349 . S
C2841 C2839 1.327 . S
C2841 C2857 1.429 . S
C2841 H2863 0.950 . S
C2842 H2838 0.949 . S
C2842 C2850 1.574 . S
C2842 C2858 1.368 . S
H2843 C2851 0.950 . S
H2844 C2849 0.950 . S
H2845 C2850 0.949 . S
H2846 C2852 0.950 . S
H2847 C2853 0.950 . S
H2848 C2854 0.949 . S
C2849 H2844 0.950 . S
C2849 C2851 1.327 . S
C2849 C2855 1.429 . S
C2850 C2842 1.574 . S
C2850 H2845 0.949 . S
C2850 C2856 1.368 . S
C2851 C2835 1.349 . S
C2851 H2843 0.950 . S
C2851 C2849 1.327 . S
C2852 C2840 1.349 . S
C2852 H2846 0.950 . S
C2852 C2853 1.327 . S
C2853 H2847 0.950 . S
C2853 C2852 1.327 . S
C2853 C2857 1.429 . S
C2854 C2837 1.574 . S
C2854 H2848 0.949 . S
C2854 C2858 1.368 . S
C2855 C2836 1.429 . S
C2855 C2849 1.429 . S
C2855 C2856 1.523 . S
C2856 C2837 1.368 . S
C2856 C2850 1.368 . S
C2856 C2855 1.523 . S
C2857 C2841 1.429 . S
C2857 C2853 1.429 . S
C2857 C2858 1.523 . S
C2858 C2842 1.368 . S
C2858 C2854 1.368 . S
C2858 C2857 1.523 . S
H2859 C2834 0.950 . S
H2860 C2836 0.950 . S
H2861 C2837 0.949 . S
H2862 C2839 0.950 . S
H2863 C2841 0.950 . S
C2864 C2865 1.349 . S
C2864 C2866 1.327 . S
C2864 H2889 0.950 . S
C2865 C2864 1.349 . S
C2865 C2881 1.349 . S
C2866 C2864 1.327 . S
C2866 C2885 1.429 . S
C2866 H2890 0.950 . S
C2867 C2884 1.574 . S
C2867 C2886 1.368 . S
C2867 H2891 0.949 . S
H2868 C2872 0.949 . S
C2869 C2870 1.349 . S
C2869 C2871 1.327 . S
C2869 H2892 0.950 . S
C2870 C2869 1.349 . S
C2870 C2882 1.349 . S
C2871 C2869 1.327 . S
C2871 C2887 1.429 . S
C2871 H2893 0.950 . S
C2872 H2868 0.949 . S
C2872 C2880 1.574 . S
C2872 C2888 1.368 . S
H2873 C2881 0.950 . S
H2874 C2879 0.950 . S
H2875 C2880 0.949 . S
H2876 C2882 0.950 . S
H2877 C2883 0.950 . S
H2878 C2884 0.949 . S
C2879 H2874 0.950 . S
C2879 C2881 1.327 . S
C2879 C2885 1.429 . S
C2880 C2872 1.574 . S
C2880 H2875 0.949 . S
C2880 C2886 1.368 . S
C2881 C2865 1.349 . S
C2881 H2873 0.950 . S
C2881 C2879 1.327 . S
C2882 C2870 1.349 . S
C2882 H2876 0.950 . S
C2882 C2883 1.327 . S
C2883 H2877 0.950 . S
C2883 C2882 1.327 . S
C2883 C2887 1.429 . S
C2884 C2867 1.574 . S
C2884 H2878 0.949 . S
C2884 C2888 1.368 . S
C2885 C2866 1.429 . S
C2885 C2879 1.429 . S
C2885 C2886 1.523 . S
C2886 C2867 1.368 . S
C2886 C2880 1.368 . S
C2886 C2885 1.523 . S
C2887 C2871 1.429 . S
C2887 C2883 1.429 . S
C2887 C2888 1.523 . S
C2888 C2872 1.368 . S
C2888 C2884 1.368 . S
C2888 C2887 1.523 . S
H2889 C2864 0.950 . S
H2890 C2866 0.950 . S
H2891 C2867 0.949 . S
H2892 C2869 0.950 . S
H2893 C2871 0.950 . S
C2894 C2895 1.349 . S
C2894 C2896 1.327 . S
C2894 H2919 0.950 . S
C2895 C2894 1.349 . S
C2895 C2911 1.349 . S
C2896 C2894 1.327 . S
C2896 C2915 1.429 . S
C2896 H2920 0.950 . S
C2897 C2914 1.574 . S
C2897 C2916 1.368 . S
C2897 H2921 0.949 . S
H2898 C2902 0.949 . S
C2899 C2900 1.349 . S
C2899 C2901 1.327 . S
C2899 H2922 0.950 . S
C2900 C2899 1.349 . S
C2900 C2912 1.349 . S
C2901 C2899 1.327 . S
C2901 C2917 1.429 . S
C2901 H2923 0.950 . S
C2902 H2898 0.949 . S
C2902 C2910 1.574 . S
C2902 C2918 1.368 . S
H2903 C2911 0.950 . S
H2904 C2909 0.950 . S
H2905 C2910 0.949 . S
H2906 C2912 0.950 . S
H2907 C2913 0.950 . S
H2908 C2914 0.949 . S
C2909 H2904 0.950 . S
C2909 C2911 1.327 . S
C2909 C2915 1.429 . S
C2910 C2902 1.574 . S
C2910 H2905 0.949 . S
C2910 C2916 1.368 . S
C2911 C2895 1.349 . S
C2911 H2903 0.950 . S
C2911 C2909 1.327 . S
C2912 C2900 1.349 . S
C2912 H2906 0.950 . S
C2912 C2913 1.327 . S
C2913 H2907 0.950 . S
C2913 C2912 1.327 . S
C2913 C2917 1.429 . S
C2914 C2897 1.574 . S
C2914 H2908 0.949 . S
C2914 C2918 1.368 . S
C2915 C2896 1.429 . S
C2915 C2909 1.429 . S
C2915 C2916 1.523 . S
C2916 C2897 1.368 . S
C2916 C2910 1.368 . S
C2916 C2915 1.523 . S
C2917 C2901 1.429 . S
C2917 C2913 1.429 . S
C2917 C2918 1.523 . S
C2918 C2902 1.368 . S
C2918 C2914 1.368 . S
C2918 C2917 1.523 . S
H2919 C2894 0.950 . S
H2920 C2896 0.950 . S
H2921 C2897 0.949 . S
H2922 C2899 0.950 . S
H2923 C2901 0.950 . S
C2924 C2925 1.349 . S
C2924 C2926 1.327 . S
C2924 H2949 0.950 . S
C2925 C2924 1.349 . S
C2925 C2941 1.349 . S
C2926 C2924 1.327 . S
C2926 C2945 1.429 . S
C2926 H2950 0.950 . S
C2927 C2944 1.574 . S
C2927 C2946 1.368 . S
C2927 H2951 0.949 . S
H2928 C2932 0.949 . S
C2929 C2930 1.349 . S
C2929 C2931 1.327 . S
C2929 H2952 0.950 . S
C2930 C2929 1.349 . S
C2930 C2942 1.349 . S
C2931 C2929 1.327 . S
C2931 C2947 1.429 . S
C2931 H2953 0.950 . S
C2932 H2928 0.949 . S
C2932 C2940 1.574 . S
C2932 C2948 1.368 . S
H2933 C2941 0.950 . S
H2934 C2939 0.950 . S
H2935 C2940 0.949 . S
H2936 C2942 0.950 . S
H2937 C2943 0.950 . S
H2938 C2944 0.949 . S
C2939 H2934 0.950 . S
C2939 C2941 1.327 . S
C2939 C2945 1.429 . S
C2940 C2932 1.574 . S
C2940 H2935 0.949 . S
C2940 C2946 1.368 . S
C2941 C2925 1.349 . S
C2941 H2933 0.950 . S
C2941 C2939 1.327 . S
C2942 C2930 1.349 . S
C2942 H2936 0.950 . S
C2942 C2943 1.327 . S
C2943 H2937 0.950 . S
C2943 C2942 1.327 . S
C2943 C2947 1.429 . S
C2944 C2927 1.574 . S
C2944 H2938 0.949 . S
C2944 C2948 1.368 . S
C2945 C2926 1.429 . S
C2945 C2939 1.429 . S
C2945 C2946 1.523 . S
C2946 C2927 1.368 . S
C2946 C2940 1.368 . S
C2946 C2945 1.523 . S
C2947 C2931 1.429 . S
C2947 C2943 1.429 . S
C2947 C2948 1.523 . S
C2948 C2932 1.368 . S
C2948 C2944 1.368 . S
C2948 C2947 1.523 . S
H2949 C2924 0.950 . S
H2950 C2926 0.950 . S
H2951 C2927 0.949 . S
H2952 C2929 0.950 . S
H2953 C2931 0.950 . S
C2954 C2955 1.349 . S
C2954 C2956 1.327 . S
C2954 H2979 0.950 . S
C2955 C2954 1.349 . S
C2955 C2971 1.349 . S
C2956 C2954 1.327 . S
C2956 C2975 1.429 . S
C2956 H2980 0.950 . S
C2957 C2974 1.574 . S
C2957 C2976 1.368 . S
C2957 H2981 0.949 . S
H2958 C2962 0.949 . S
C2959 C2960 1.349 . S
C2959 C2961 1.327 . S
C2959 H2982 0.950 . S
C2960 C2959 1.349 . S
C2960 C2972 1.349 . S
C2961 C2959 1.327 . S
C2961 C2977 1.429 . S
C2961 H2983 0.950 . S
C2962 H2958 0.949 . S
C2962 C2970 1.574 . S
C2962 C2978 1.368 . S
H2963 C2971 0.950 . S
H2964 C2969 0.950 . S
H2965 C2970 0.949 . S
H2966 C2972 0.950 . S
H2967 C2973 0.950 . S
H2968 C2974 0.949 . S
C2969 H2964 0.950 . S
C2969 C2971 1.327 . S
C2969 C2975 1.429 . S
C2970 C2962 1.574 . S
C2970 H2965 0.949 . S
C2970 C2976 1.368 . S
C2971 C2955 1.349 . S
C2971 H2963 0.950 . S
C2971 C2969 1.327 . S
C2972 C2960 1.349 . S
C2972 H2966 0.950 . S
C2972 C2973 1.327 . S
C2973 H2967 0.950 . S
C2973 C2972 1.327 . S
C2973 C2977 1.429 . S
C2974 C2957 1.574 . S
C2974 H2968 0.949 . S
C2974 C2978 1.368 . S
C2975 C2956 1.429 . S
C2975 C2969 1.429 . S
C2975 C2976 1.523 . S
C2976 C2957 1.368 . S
C2976 C2970 1.368 . S
C2976 C2975 1.523 . S
C2977 C2961 1.429 . S
C2977 C2973 1.429 . S
C2977 C2978 1.523 . S
C2978 C2962 1.368 . S
C2978 C2974 1.368 . S
C2978 C2977 1.523 . S
H2979 C2954 0.950 . S
H2980 C2956 0.950 . S
H2981 C2957 0.949 . S
H2982 C2959 0.950 . S
H2983 C2961 0.950 . S
C2984 C2985 1.349 . S
C2984 C2986 1.327 . S
C2984 H3009 0.950 . S
C2985 C2984 1.349 . S
C2985 C3001 1.349 . S
C2986 C2984 1.327 . S
C2986 C3005 1.429 . S
C2986 H3010 0.950 . S
C2987 C3004 1.574 . S
C2987 C3006 1.368 . S
C2987 H3011 0.949 . S
H2988 C2992 0.949 . S
C2989 C2990 1.349 . S
C2989 C2991 1.327 . S
C2989 H3012 0.950 . S
C2990 C2989 1.349 . S
C2990 C3002 1.349 . S
C2991 C2989 1.327 . S
C2991 C3007 1.429 . S
C2991 H3013 0.950 . S
C2992 H2988 0.949 . S
C2992 C3000 1.574 . S
C2992 C3008 1.368 . S
H2993 C3001 0.950 . S
H2994 C2999 0.950 . S
H2995 C3000 0.949 . S
H2996 C3002 0.950 . S
H2997 C3003 0.950 . S
H2998 C3004 0.949 . S
C2999 H2994 0.950 . S
C2999 C3001 1.327 . S
C2999 C3005 1.429 . S
C3000 C2992 1.574 . S
C3000 H2995 0.949 . S
C3000 C3006 1.368 . S
C3001 C2985 1.349 . S
C3001 H2993 0.950 . S
C3001 C2999 1.327 . S
C3002 C2990 1.349 . S
C3002 H2996 0.950 . S
C3002 C3003 1.327 . S
C3003 H2997 0.950 . S
C3003 C3002 1.327 . S
C3003 C3007 1.429 . S
C3004 C2987 1.574 . S
C3004 H2998 0.949 . S
C3004 C3008 1.368 . S
C3005 C2986 1.429 . S
C3005 C2999 1.429 . S
C3005 C3006 1.523 . S
C3006 C2987 1.368 . S
C3006 C3000 1.368 . S
C3006 C3005 1.523 . S
C3007 C2991 1.429 . S
C3007 C3003 1.429 . S
C3007 C3008 1.523 . S
C3008 C2992 1.368 . S
C3008 C3004 1.368 . S
C3008 C3007 1.523 . S
H3009 C2984 0.950 . S
H3010 C2986 0.950 . S
H3011 C2987 0.949 . S
H3012 C2989 0.950 . S
H3013 C2991 0.950 . S
C3014 C3015 1.349 . S
C3014 C3016 1.327 . S
C3014 H3039 0.950 . S
C3015 C3014 1.349 . S
C3015 C3031 1.349 . S
C3016 C3014 1.327 . S
C3016 C3035 1.429 . S
C3016 H3040 0.950 . S
C3017 C3034 1.574 . S
C3017 C3036 1.368 . S
C3017 H3041 0.949 . S
H3018 C3022 0.949 . S
C3019 C3020 1.349 . S
C3019 C3021 1.327 . S
C3019 H3042 0.950 . S
C3020 C3019 1.349 . S
C3020 C3032 1.349 . S
C3021 C3019 1.327 . S
C3021 C3037 1.429 . S
C3021 H3043 0.950 . S
C3022 H3018 0.949 . S
C3022 C3030 1.574 . S
C3022 C3038 1.368 . S
H3023 C3031 0.950 . S
H3024 C3029 0.950 . S
H3025 C3030 0.949 . S
H3026 C3032 0.950 . S
H3027 C3033 0.950 . S
H3028 C3034 0.949 . S
C3029 H3024 0.950 . S
C3029 C3031 1.327 . S
C3029 C3035 1.429 . S
C3030 C3022 1.574 . S
C3030 H3025 0.949 . S
C3030 C3036 1.368 . S
C3031 C3015 1.349 . S
C3031 H3023 0.950 . S
C3031 C3029 1.327 . S
C3032 C3020 1.349 . S
C3032 H3026 0.950 . S
C3032 C3033 1.327 . S
C3033 H3027 0.950 . S
C3033 C3032 1.327 . S
C3033 C3037 1.429 . S
C3034 C3017 1.574 . S
C3034 H3028 0.949 . S
C3034 C3038 1.368 . S
C3035 C3016 1.429 . S
C3035 C3029 1.429 . S
C3035 C3036 1.523 . S
C3036 C3017 1.368 . S
C3036 C3030 1.368 . S
C3036 C3035 1.523 . S
C3037 C3021 1.429 . S
C3037 C3033 1.429 . S
C3037 C3038 1.523 . S
C3038 C3022 1.368 . S
C3038 C3034 1.368 . S
C3038 C3037 1.523 . S
H3039 C3014 0.950 . S
H3040 C3016 0.950 . S
H3041 C3017 0.949 . S
H3042 C3019 0.950 . S
H3043 C3021 0.950 . S
C3044 C3045 1.349 . S
C3044 C3046 1.327 . S
C3044 H3069 0.950 . S
C3045 C3044 1.349 . S
C3045 C3061 1.349 . S
C3046 C3044 1.327 . S
C3046 C3065 1.429 . S
C3046 H3070 0.950 . S
C3047 C3064 1.574 . S
C3047 C3066 1.368 . S
C3047 H3071 0.949 . S
H3048 C3052 0.949 . S
C3049 C3050 1.349 . S
C3049 C3051 1.327 . S
C3049 H3072 0.950 . S
C3050 C3049 1.349 . S
C3050 C3062 1.349 . S
C3051 C3049 1.327 . S
C3051 C3067 1.429 . S
C3051 H3073 0.950 . S
C3052 H3048 0.949 . S
C3052 C3060 1.574 . S
C3052 C3068 1.368 . S
H3053 C3061 0.950 . S
H3054 C3059 0.950 . S
H3055 C3060 0.949 . S
H3056 C3062 0.950 . S
H3057 C3063 0.950 . S
H3058 C3064 0.949 . S
C3059 H3054 0.950 . S
C3059 C3061 1.327 . S
C3059 C3065 1.429 . S
C3060 C3052 1.574 . S
C3060 H3055 0.949 . S
C3060 C3066 1.368 . S
C3061 C3045 1.349 . S
C3061 H3053 0.950 . S
C3061 C3059 1.327 . S
C3062 C3050 1.349 . S
C3062 H3056 0.950 . S
C3062 C3063 1.327 . S
C3063 H3057 0.950 . S
C3063 C3062 1.327 . S
C3063 C3067 1.429 . S
C3064 C3047 1.574 . S
C3064 H3058 0.949 . S
C3064 C3068 1.368 . S
C3065 C3046 1.429 . S
C3065 C3059 1.429 . S
C3065 C3066 1.523 . S
C3066 C3047 1.368 . S
C3066 C3060 1.368 . S
C3066 C3065 1.523 . S
C3067 C3051 1.429 . S
C3067 C3063 1.429 . S
C3067 C3068 1.523 . S
C3068 C3052 1.368 . S
C3068 C3064 1.368 . S
C3068 C3067 1.523 . S
H3069 C3044 0.950 . S
H3070 C3046 0.950 . S
H3071 C3047 0.949 . S
H3072 C3049 0.950 . S
H3073 C3051 0.950 . S
C3074 C3075 1.349 . S
C3074 C3076 1.327 . S
C3074 H3099 0.950 . S
C3075 C3074 1.349 . S
C3075 C3091 1.349 . S
C3076 C3074 1.327 . S
C3076 C3095 1.429 . S
C3076 H3100 0.950 . S
C3077 C3094 1.574 . S
C3077 C3096 1.368 . S
C3077 H3101 0.949 . S
H3078 C3082 0.949 . S
C3079 C3080 1.349 . S
C3079 C3081 1.327 . S
C3079 H3102 0.950 . S
C3080 C3079 1.349 . S
C3080 C3092 1.349 . S
C3081 C3079 1.327 . S
C3081 C3097 1.429 . S
C3081 H3103 0.950 . S
C3082 H3078 0.949 . S
C3082 C3090 1.574 . S
C3082 C3098 1.368 . S
H3083 C3091 0.950 . S
H3084 C3089 0.950 . S
H3085 C3090 0.949 . S
H3086 C3092 0.950 . S
H3087 C3093 0.950 . S
H3088 C3094 0.949 . S
C3089 H3084 0.950 . S
C3089 C3091 1.327 . S
C3089 C3095 1.429 . S
C3090 C3082 1.574 . S
C3090 H3085 0.949 . S
C3090 C3096 1.368 . S
C3091 C3075 1.349 . S
C3091 H3083 0.950 . S
C3091 C3089 1.327 . S
C3092 C3080 1.349 . S
C3092 H3086 0.950 . S
C3092 C3093 1.327 . S
C3093 H3087 0.950 . S
C3093 C3092 1.327 . S
C3093 C3097 1.429 . S
C3094 C3077 1.574 . S
C3094 H3088 0.949 . S
C3094 C3098 1.368 . S
C3095 C3076 1.429 . S
C3095 C3089 1.429 . S
C3095 C3096 1.523 . S
C3096 C3077 1.368 . S
C3096 C3090 1.368 . S
C3096 C3095 1.523 . S
C3097 C3081 1.429 . S
C3097 C3093 1.429 . S
C3097 C3098 1.523 . S
C3098 C3082 1.368 . S
C3098 C3094 1.368 . S
C3098 C3097 1.523 . S
H3099 C3074 0.950 . S
H3100 C3076 0.950 . S
H3101 C3077 0.949 . S
H3102 C3079 0.950 . S
H3103 C3081 0.950 . S
C3104 C3105 1.349 . S
C3104 C3106 1.327 . S
C3104 H3129 0.950 . S
C3105 C3104 1.349 . S
C3105 C3121 1.349 . S
C3106 C3104 1.327 . S
C3106 C3125 1.429 . S
C3106 H3130 0.950 . S
C3107 C3124 1.574 . S
C3107 C3126 1.368 . S
C3107 H3131 0.949 . S
H3108 C3112 0.949 . S
C3109 C3110 1.349 . S
C3109 C3111 1.327 . S
C3109 H3132 0.950 . S
C3110 C3109 1.349 . S
C3110 C3122 1.349 . S
C3111 C3109 1.327 . S
C3111 C3127 1.429 . S
C3111 H3133 0.950 . S
C3112 H3108 0.949 . S
C3112 C3120 1.574 . S
C3112 C3128 1.368 . S
H3113 C3121 0.950 . S
H3114 C3119 0.950 . S
H3115 C3120 0.949 . S
H3116 C3122 0.950 . S
H3117 C3123 0.950 . S
H3118 C3124 0.949 . S
C3119 H3114 0.950 . S
C3119 C3121 1.327 . S
C3119 C3125 1.429 . S
C3120 C3112 1.574 . S
C3120 H3115 0.949 . S
C3120 C3126 1.368 . S
C3121 C3105 1.349 . S
C3121 H3113 0.950 . S
C3121 C3119 1.327 . S
C3122 C3110 1.349 . S
C3122 H3116 0.950 . S
C3122 C3123 1.327 . S
C3123 H3117 0.950 . S
C3123 C3122 1.327 . S
C3123 C3127 1.429 . S
C3124 C3107 1.574 . S
C3124 H3118 0.949 . S
C3124 C3128 1.368 . S
C3125 C3106 1.429 . S
C3125 C3119 1.429 . S
C3125 C3126 1.523 . S
C3126 C3107 1.368 . S
C3126 C3120 1.368 . S
C3126 C3125 1.523 . S
C3127 C3111 1.429 . S
C3127 C3123 1.429 . S
C3127 C3128 1.523 . S
C3128 C3112 1.368 . S
C3128 C3124 1.368 . S
C3128 C3127 1.523 . S
H3129 C3104 0.950 . S
H3130 C3106 0.950 . S
H3131 C3107 0.949 . S
H3132 C3109 0.950 . S
H3133 C3111 0.950 . S
C3134 C3135 1.349 . S
C3134 C3136 1.327 . S
C3134 H3159 0.950 . S
C3135 C3134 1.349 . S
C3135 C3151 1.349 . S
C3136 C3134 1.327 . S
C3136 C3155 1.429 . S
C3136 H3160 0.950 . S
C3137 C3154 1.574 . S
C3137 C3156 1.368 . S
C3137 H3161 0.949 . S
H3138 C3142 0.949 . S
C3139 C3140 1.349 . S
C3139 C3141 1.327 . S
C3139 H3162 0.950 . S
C3140 C3139 1.349 . S
C3140 C3152 1.349 . S
C3141 C3139 1.327 . S
C3141 C3157 1.429 . S
C3141 H3163 0.950 . S
C3142 H3138 0.949 . S
C3142 C3150 1.574 . S
C3142 C3158 1.368 . S
H3143 C3151 0.950 . S
H3144 C3149 0.950 . S
H3145 C3150 0.949 . S
H3146 C3152 0.950 . S
H3147 C3153 0.950 . S
H3148 C3154 0.949 . S
C3149 H3144 0.950 . S
C3149 C3151 1.327 . S
C3149 C3155 1.429 . S
C3150 C3142 1.574 . S
C3150 H3145 0.949 . S
C3150 C3156 1.368 . S
C3151 C3135 1.349 . S
C3151 H3143 0.950 . S
C3151 C3149 1.327 . S
C3152 C3140 1.349 . S
C3152 H3146 0.950 . S
C3152 C3153 1.327 . S
C3153 H3147 0.950 . S
C3153 C3152 1.327 . S
C3153 C3157 1.429 . S
C3154 C3137 1.574 . S
C3154 H3148 0.949 . S
C3154 C3158 1.368 . S
C3155 C3136 1.429 . S
C3155 C3149 1.429 . S
C3155 C3156 1.523 . S
C3156 C3137 1.368 . S
C3156 C3150 1.368 . S
C3156 C3155 1.523 . S
C3157 C3141 1.429 . S
C3157 C3153 1.429 . S
C3157 C3158 1.523 . S
C3158 C3142 1.368 . S
C3158 C3154 1.368 . S
C3158 C3157 1.523 . S
H3159 C3134 0.950 . S
H3160 C3136 0.950 . S
H3161 C3137 0.949 . S
H3162 C3139 0.950 . S
H3163 C3141 0.950 . S
C3164 C3165 1.349 . S
C3164 C3166 1.327 . S
C3164 H3189 0.950 . S
C3165 C3164 1.349 . S
C3165 C3181 1.349 . S
C3166 C3164 1.327 . S
C3166 C3185 1.429 . S
C3166 H3190 0.950 . S
C3167 C3184 1.574 . S
C3167 C3186 1.368 . S
C3167 H3191 0.949 . S
H3168 C3172 0.949 . S
C3169 C3170 1.349 . S
C3169 C3171 1.327 . S
C3169 H3192 0.950 . S
C3170 C3169 1.349 . S
C3170 C3182 1.349 . S
C3171 C3169 1.327 . S
C3171 C3187 1.429 . S
C3171 H3193 0.950 . S
C3172 H3168 0.949 . S
C3172 C3180 1.574 . S
C3172 C3188 1.368 . S
H3173 C3181 0.950 . S
H3174 C3179 0.950 . S
H3175 C3180 0.949 . S
H3176 C3182 0.950 . S
H3177 C3183 0.950 . S
H3178 C3184 0.949 . S
C3179 H3174 0.950 . S
C3179 C3181 1.327 . S
C3179 C3185 1.429 . S
C3180 C3172 1.574 . S
C3180 H3175 0.949 . S
C3180 C3186 1.368 . S
C3181 C3165 1.349 . S
C3181 H3173 0.950 . S
C3181 C3179 1.327 . S
C3182 C3170 1.349 . S
C3182 H3176 0.950 . S
C3182 C3183 1.327 . S
C3183 H3177 0.950 . S
C3183 C3182 1.327 . S
C3183 C3187 1.429 . S
C3184 C3167 1.574 . S
C3184 H3178 0.949 . S
C3184 C3188 1.368 . S
C3185 C3166 1.429 . S
C3185 C3179 1.429 . S
C3185 C3186 1.523 . S
C3186 C3167 1.368 . S
C3186 C3180 1.368 . S
C3186 C3185 1.523 . S
C3187 C3171 1.429 . S
C3187 C3183 1.429 . S
C3187 C3188 1.523 . S
C3188 C3172 1.368 . S
C3188 C3184 1.368 . S
C3188 C3187 1.523 . S
H3189 C3164 0.950 . S
H3190 C3166 0.950 . S
H3191 C3167 0.949 . S
H3192 C3169 0.950 . S
H3193 C3171 0.950 . S
C3194 C3195 1.349 . S
C3194 C3196 1.327 . S
C3194 H3219 0.950 . S
C3195 C3194 1.349 . S
C3195 C3211 1.349 . S
C3196 C3194 1.327 . S
C3196 C3215 1.429 . S
C3196 H3220 0.950 . S
C3197 C3214 1.574 . S
C3197 C3216 1.368 . S
C3197 H3221 0.949 . S
H3198 C3202 0.949 . S
C3199 C3200 1.349 . S
C3199 C3201 1.327 . S
C3199 H3222 0.950 . S
C3200 C3199 1.349 . S
C3200 C3212 1.349 . S
C3201 C3199 1.327 . S
C3201 C3217 1.429 . S
C3201 H3223 0.950 . S
C3202 H3198 0.949 . S
C3202 C3210 1.574 . S
C3202 C3218 1.368 . S
H3203 C3211 0.950 . S
H3204 C3209 0.950 . S
H3205 C3210 0.949 . S
H3206 C3212 0.950 . S
H3207 C3213 0.950 . S
H3208 C3214 0.949 . S
C3209 H3204 0.950 . S
C3209 C3211 1.327 . S
C3209 C3215 1.429 . S
C3210 C3202 1.574 . S
C3210 H3205 0.949 . S
C3210 C3216 1.368 . S
C3211 C3195 1.349 . S
C3211 H3203 0.950 . S
C3211 C3209 1.327 . S
C3212 C3200 1.349 . S
C3212 H3206 0.950 . S
C3212 C3213 1.327 . S
C3213 H3207 0.950 . S
C3213 C3212 1.327 . S
C3213 C3217 1.429 . S
C3214 C3197 1.574 . S
C3214 H3208 0.949 . S
C3214 C3218 1.368 . S
C3215 C3196 1.429 . S
C3215 C3209 1.429 . S
C3215 C3216 1.523 . S
C3216 C3197 1.368 . S
C3216 C3210 1.368 . S
C3216 C3215 1.523 . S
C3217 C3201 1.429 . S
C3217 C3213 1.429 . S
C3217 C3218 1.523 . S
C3218 C3202 1.368 . S
C3218 C3214 1.368 . S
C3218 C3217 1.523 . S
H3219 C3194 0.950 . S
H3220 C3196 0.950 . S
H3221 C3197 0.949 . S
H3222 C3199 0.950 . S
H3223 C3201 0.950 . S
C3224 C3225 1.349 . S
C3224 C3226 1.327 . S
C3224 H3249 0.950 . S
C3225 C3224 1.349 . S
C3225 C3241 1.349 . S
C3226 C3224 1.327 . S
C3226 C3245 1.429 . S
C3226 H3250 0.950 . S
C3227 C3244 1.574 . S
C3227 C3246 1.368 . S
C3227 H3251 0.949 . S
H3228 C3232 0.949 . S
C3229 C3230 1.349 . S
C3229 C3231 1.327 . S
C3229 H3252 0.950 . S
C3230 C3229 1.349 . S
C3230 C3242 1.349 . S
C3231 C3229 1.327 . S
C3231 C3247 1.429 . S
C3231 H3253 0.950 . S
C3232 H3228 0.949 . S
C3232 C3240 1.574 . S
C3232 C3248 1.368 . S
H3233 C3241 0.950 . S
H3234 C3239 0.950 . S
H3235 C3240 0.949 . S
H3236 C3242 0.950 . S
H3237 C3243 0.950 . S
H3238 C3244 0.949 . S
C3239 H3234 0.950 . S
C3239 C3241 1.327 . S
C3239 C3245 1.429 . S
C3240 C3232 1.574 . S
C3240 H3235 0.949 . S
C3240 C3246 1.368 . S
C3241 C3225 1.349 . S
C3241 H3233 0.950 . S
C3241 C3239 1.327 . S
C3242 C3230 1.349 . S
C3242 H3236 0.950 . S
C3242 C3243 1.327 . S
C3243 H3237 0.950 . S
C3243 C3242 1.327 . S
C3243 C3247 1.429 . S
C3244 C3227 1.574 . S
C3244 H3238 0.949 . S
C3244 C3248 1.368 . S
C3245 C3226 1.429 . S
C3245 C3239 1.429 . S
C3245 C3246 1.523 . S
C3246 C3227 1.368 . S
C3246 C3240 1.368 . S
C3246 C3245 1.523 . S
C3247 C3231 1.429 . S
C3247 C3243 1.429 . S
C3247 C3248 1.523 . S
C3248 C3232 1.368 . S
C3248 C3244 1.368 . S
C3248 C3247 1.523 . S
H3249 C3224 0.950 . S
H3250 C3226 0.950 . S
H3251 C3227 0.949 . S
H3252 C3229 0.950 . S
H3253 C3231 0.950 . S
C3254 C3255 1.349 . S
C3254 C3256 1.327 . S
C3254 H3279 0.950 . S
C3255 C3254 1.349 . S
C3255 C3271 1.349 . S
C3256 C3254 1.327 . S
C3256 C3275 1.429 . S
C3256 H3280 0.950 . S
C3257 C3274 1.574 . S
C3257 C3276 1.368 . S
C3257 H3281 0.949 . S
H3258 C3262 0.949 . S
C3259 C3260 1.349 . S
C3259 C3261 1.327 . S
C3259 H3282 0.950 . S
C3260 C3259 1.349 . S
C3260 C3272 1.349 . S
C3261 C3259 1.327 . S
C3261 C3277 1.429 . S
C3261 H3283 0.950 . S
C3262 H3258 0.949 . S
C3262 C3270 1.574 . S
C3262 C3278 1.368 . S
H3263 C3271 0.950 . S
H3264 C3269 0.950 . S
H3265 C3270 0.949 . S
H3266 C3272 0.950 . S
H3267 C3273 0.950 . S
H3268 C3274 0.949 . S
C3269 H3264 0.950 . S
C3269 C3271 1.327 . S
C3269 C3275 1.429 . S
C3270 C3262 1.574 . S
C3270 H3265 0.949 . S
C3270 C3276 1.368 . S
C3271 C3255 1.349 . S
C3271 H3263 0.950 . S
C3271 C3269 1.327 . S
C3272 C3260 1.349 . S
C3272 H3266 0.950 . S
C3272 C3273 1.327 . S
C3273 H3267 0.950 . S
C3273 C3272 1.327 . S
C3273 C3277 1.429 . S
C3274 C3257 1.574 . S
C3274 H3268 0.949 . S
C3274 C3278 1.368 . S
C3275 C3256 1.429 . S
C3275 C3269 1.429 . S
C3275 C3276 1.523 . S
C3276 C3257 1.368 . S
C3276 C3270 1.368 . S
C3276 C3275 1.523 . S
C3277 C3261 1.429 . S
C3277 C3273 1.429 . S
C3277 C3278 1.523 . S
C3278 C3262 1.368 . S
C3278 C3274 1.368 . S
C3278 C3277 1.523 . S
H3279 C3254 0.950 . S
H3280 C3256 0.950 . S
H3281 C3257 0.949 . S
H3282 C3259 0.950 . S
H3283 C3261 0.950 . S
C3284 C3285 1.349 . S
C3284 C3286 1.327 . S
C3284 H3309 0.950 . S
C3285 C3284 1.349 . S
C3285 C3301 1.349 . S
C3286 C3284 1.327 . S
C3286 C3305 1.429 . S
C3286 H3310 0.950 . S
C3287 C3304 1.574 . S
C3287 C3306 1.368 . S
C3287 H3311 0.949 . S
H3288 C3292 0.949 . S
C3289 C3290 1.349 . S
C3289 C3291 1.327 . S
C3289 H3312 0.950 . S
C3290 C3289 1.349 . S
C3290 C3302 1.349 . S
C3291 C3289 1.327 . S
C3291 C3307 1.429 . S
C3291 H3313 0.950 . S
C3292 H3288 0.949 . S
C3292 C3300 1.574 . S
C3292 C3308 1.368 . S
H3293 C3301 0.950 . S
H3294 C3299 0.950 . S
H3295 C3300 0.949 . S
H3296 C3302 0.950 . S
H3297 C3303 0.950 . S
H3298 C3304 0.949 . S
C3299 H3294 0.950 . S
C3299 C3301 1.327 . S
C3299 C3305 1.429 . S
C3300 C3292 1.574 . S
C3300 H3295 0.949 . S
C3300 C3306 1.368 . S
C3301 C3285 1.349 . S
C3301 H3293 0.950 . S
C3301 C3299 1.327 . S
C3302 C3290 1.349 . S
C3302 H3296 0.950 . S
C3302 C3303 1.327 . S
C3303 H3297 0.950 . S
C3303 C3302 1.327 . S
C3303 C3307 1.429 . S
C3304 C3287 1.574 . S
C3304 H3298 0.949 . S
C3304 C3308 1.368 . S
C3305 C3286 1.429 . S
C3305 C3299 1.429 . S
C3305 C3306 1.523 . S
C3306 C3287 1.368 . S
C3306 C3300 1.368 . S
C3306 C3305 1.523 . S
C3307 C3291 1.429 . S
C3307 C3303 1.429 . S
C3307 C3308 1.523 . S
C3308 C3292 1.368 . S
C3308 C3304 1.368 . S
C3308 C3307 1.523 . S
H3309 C3284 0.950 . S
H3310 C3286 0.950 . S
H3311 C3287 0.949 . S
H3312 C3289 0.950 . S
H3313 C3291 0.950 . S
C3314 C3315 1.349 . S
C3314 C3316 1.327 . S
C3314 H3339 0.950 . S
C3315 C3314 1.349 . S
C3315 C3331 1.349 . S
C3316 C3314 1.327 . S
C3316 C3335 1.429 . S
C3316 H3340 0.950 . S
C3317 C3334 1.574 . S
C3317 C3336 1.368 . S
C3317 H3341 0.949 . S
H3318 C3322 0.949 . S
C3319 C3320 1.349 . S
C3319 C3321 1.327 . S
C3319 H3342 0.950 . S
C3320 C3319 1.349 . S
C3320 C3332 1.349 . S
C3321 C3319 1.327 . S
C3321 C3337 1.429 . S
C3321 H3343 0.950 . S
C3322 H3318 0.949 . S
C3322 C3330 1.574 . S
C3322 C3338 1.368 . S
H3323 C3331 0.950 . S
H3324 C3329 0.950 . S
H3325 C3330 0.949 . S
H3326 C3332 0.950 . S
H3327 C3333 0.950 . S
H3328 C3334 0.949 . S
C3329 H3324 0.950 . S
C3329 C3331 1.327 . S
C3329 C3335 1.429 . S
C3330 C3322 1.574 . S
C3330 H3325 0.949 . S
C3330 C3336 1.368 . S
C3331 C3315 1.349 . S
C3331 H3323 0.950 . S
C3331 C3329 1.327 . S
C3332 C3320 1.349 . S
C3332 H3326 0.950 . S
C3332 C3333 1.327 . S
C3333 H3327 0.950 . S
C3333 C3332 1.327 . S
C3333 C3337 1.429 . S
C3334 C3317 1.574 . S
C3334 H3328 0.949 . S
C3334 C3338 1.368 . S
C3335 C3316 1.429 . S
C3335 C3329 1.429 . S
C3335 C3336 1.523 . S
C3336 C3317 1.368 . S
C3336 C3330 1.368 . S
C3336 C3335 1.523 . S
C3337 C3321 1.429 . S
C3337 C3333 1.429 . S
C3337 C3338 1.523 . S
C3338 C3322 1.368 . S
C3338 C3334 1.368 . S
C3338 C3337 1.523 . S
H3339 C3314 0.950 . S
H3340 C3316 0.950 . S
H3341 C3317 0.949 . S
H3342 C3319 0.950 . S
H3343 C3321 0.950 . S
C3344 C3345 1.349 . S
C3344 C3346 1.327 . S
C3344 H3369 0.950 . S
C3345 C3344 1.349 . S
C3345 C3361 1.349 . S
C3346 C3344 1.327 . S
C3346 C3365 1.429 . S
C3346 H3370 0.950 . S
C3347 C3364 1.574 . S
C3347 C3366 1.368 . S
C3347 H3371 0.949 . S
H3348 C3352 0.949 . S
C3349 C3350 1.349 . S
C3349 C3351 1.327 . S
C3349 H3372 0.950 . S
C3350 C3349 1.349 . S
C3350 C3362 1.349 . S
C3351 C3349 1.327 . S
C3351 C3367 1.429 . S
C3351 H3373 0.950 . S
C3352 H3348 0.949 . S
C3352 C3360 1.574 . S
C3352 C3368 1.368 . S
H3353 C3361 0.950 . S
H3354 C3359 0.950 . S
H3355 C3360 0.949 . S
H3356 C3362 0.950 . S
H3357 C3363 0.950 . S
H3358 C3364 0.949 . S
C3359 H3354 0.950 . S
C3359 C3361 1.327 . S
C3359 C3365 1.429 . S
C3360 C3352 1.574 . S
C3360 H3355 0.949 . S
C3360 C3366 1.368 . S
C3361 C3345 1.349 . S
C3361 H3353 0.950 . S
C3361 C3359 1.327 . S
C3362 C3350 1.349 . S
C3362 H3356 0.950 . S
C3362 C3363 1.327 . S
C3363 H3357 0.950 . S
C3363 C3362 1.327 . S
C3363 C3367 1.429 . S
C3364 C3347 1.574 . S
C3364 H3358 0.949 . S
C3364 C3368 1.368 . S
C3365 C3346 1.429 . S
C3365 C3359 1.429 . S
C3365 C3366 1.523 . S
C3366 C3347 1.368 . S
C3366 C3360 1.368 . S
C3366 C3365 1.523 . S
C3367 C3351 1.429 . S
C3367 C3363 1.429 . S
C3367 C3368 1.523 . S
C3368 C3352 1.368 . S
C3368 C3364 1.368 . S
C3368 C3367 1.523 . S
H3369 C3344 0.950 . S
H3370 C3346 0.950 . S
H3371 C3347 0.949 . S
H3372 C3349 0.950 . S
H3373 C3351 0.950 . S
C3374 C3375 1.349 . S
C3374 C3376 1.327 . S
C3374 H3399 0.950 . S
C3375 C3374 1.349 . S
C3375 C3391 1.349 . S
C3376 C3374 1.327 . S
C3376 C3395 1.429 . S
C3376 H3400 0.950 . S
C3377 C3394 1.574 . S
C3377 C3396 1.368 . S
C3377 H3401 0.949 . S
H3378 C3382 0.949 . S
C3379 C3380 1.349 . S
C3379 C3381 1.327 . S
C3379 H3402 0.950 . S
C3380 C3379 1.349 . S
C3380 C3392 1.349 . S
C3381 C3379 1.327 . S
C3381 C3397 1.429 . S
C3381 H3403 0.950 . S
C3382 H3378 0.949 . S
C3382 C3390 1.574 . S
C3382 C3398 1.368 . S
H3383 C3391 0.950 . S
H3384 C3389 0.950 . S
H3385 C3390 0.949 . S
H3386 C3392 0.950 . S
H3387 C3393 0.950 . S
H3388 C3394 0.949 . S
C3389 H3384 0.950 . S
C3389 C3391 1.327 . S
C3389 C3395 1.429 . S
C3390 C3382 1.574 . S
C3390 H3385 0.949 . S
C3390 C3396 1.368 . S
C3391 C3375 1.349 . S
C3391 H3383 0.950 . S
C3391 C3389 1.327 . S
C3392 C3380 1.349 . S
C3392 H3386 0.950 . S
C3392 C3393 1.327 . S
C3393 H3387 0.950 . S
C3393 C3392 1.327 . S
C3393 C3397 1.429 . S
C3394 C3377 1.574 . S
C3394 H3388 0.949 . S
C3394 C3398 1.368 . S
C3395 C3376 1.429 . S
C3395 C3389 1.429 . S
C3395 C3396 1.523 . S
C3396 C3377 1.368 . S
C3396 C3390 1.368 . S
C3396 C3395 1.523 . S
C3397 C3381 1.429 . S
C3397 C3393 1.429 . S
C3397 C3398 1.523 . S
C3398 C3382 1.368 . S
C3398 C3394 1.368 . S
C3398 C3397 1.523 . S
H3399 C3374 0.950 . S
H3400 C3376 0.950 . S
H3401 C3377 0.949 . S
H3402 C3379 0.950 . S
H3403 C3381 0.950 . S
C3404 C3405 1.349 . S
C3404 C3406 1.327 . S
C3404 H3429 0.950 . S
C3405 C3404 1.349 . S
C3405 C3421 1.349 . S
C3406 C3404 1.327 . S
C3406 C3425 1.429 . S
C3406 H3430 0.950 . S
C3407 C3424 1.574 . S
C3407 C3426 1.368 . S
C3407 H3431 0.949 . S
H3408 C3412 0.949 . S
C3409 C3410 1.349 . S
C3409 C3411 1.327 . S
C3409 H3432 0.950 . S
C3410 C3409 1.349 . S
C3410 C3422 1.349 . S
C3411 C3409 1.327 . S
C3411 C3427 1.429 . S
C3411 H3433 0.950 . S
C3412 H3408 0.949 . S
C3412 C3420 1.574 . S
C3412 C3428 1.368 . S
H3413 C3421 0.950 . S
H3414 C3419 0.950 . S
H3415 C3420 0.949 . S
H3416 C3422 0.950 . S
H3417 C3423 0.950 . S
H3418 C3424 0.949 . S
C3419 H3414 0.950 . S
C3419 C3421 1.327 . S
C3419 C3425 1.429 . S
C3420 C3412 1.574 . S
C3420 H3415 0.949 . S
C3420 C3426 1.368 . S
C3421 C3405 1.349 . S
C3421 H3413 0.950 . S
C3421 C3419 1.327 . S
C3422 C3410 1.349 . S
C3422 H3416 0.950 . S
C3422 C3423 1.327 . S
C3423 H3417 0.950 . S
C3423 C3422 1.327 . S
C3423 C3427 1.429 . S
C3424 C3407 1.574 . S
C3424 H3418 0.949 . S
C3424 C3428 1.368 . S
C3425 C3406 1.429 . S
C3425 C3419 1.429 . S
C3425 C3426 1.523 . S
C3426 C3407 1.368 . S
C3426 C3420 1.368 . S
C3426 C3425 1.523 . S
C3427 C3411 1.429 . S
C3427 C3423 1.429 . S
C3427 C3428 1.523 . S
C3428 C3412 1.368 . S
C3428 C3424 1.368 . S
C3428 C3427 1.523 . S
H3429 C3404 0.950 . S
H3430 C3406 0.950 . S
H3431 C3407 0.949 . S
H3432 C3409 0.950 . S
H3433 C3411 0.950 . S
C3434 C3435 1.349 . S
C3434 C3436 1.327 . S
C3434 H3459 0.950 . S
C3435 C3434 1.349 . S
C3435 C3451 1.349 . S
C3436 C3434 1.327 . S
C3436 C3455 1.429 . S
C3436 H3460 0.950 . S
C3437 C3454 1.574 . S
C3437 C3456 1.368 . S
C3437 H3461 0.949 . S
H3438 C3442 0.949 . S
C3439 C3440 1.349 . S
C3439 C3441 1.327 . S
C3439 H3462 0.950 . S
C3440 C3439 1.349 . S
C3440 C3452 1.349 . S
C3441 C3439 1.327 . S
C3441 C3457 1.429 . S
C3441 H3463 0.950 . S
C3442 H3438 0.949 . S
C3442 C3450 1.574 . S
C3442 C3458 1.368 . S
H3443 C3451 0.950 . S
H3444 C3449 0.950 . S
H3445 C3450 0.949 . S
H3446 C3452 0.950 . S
H3447 C3453 0.950 . S
H3448 C3454 0.949 . S
C3449 H3444 0.950 . S
C3449 C3451 1.327 . S
C3449 C3455 1.429 . S
C3450 C3442 1.574 . S
C3450 H3445 0.949 . S
C3450 C3456 1.368 . S
C3451 C3435 1.349 . S
C3451 H3443 0.950 . S
C3451 C3449 1.327 . S
C3452 C3440 1.349 . S
C3452 H3446 0.950 . S
C3452 C3453 1.327 . S
C3453 H3447 0.950 . S
C3453 C3452 1.327 . S
C3453 C3457 1.429 . S
C3454 C3437 1.574 . S
C3454 H3448 0.949 . S
C3454 C3458 1.368 . S
C3455 C3436 1.429 . S
C3455 C3449 1.429 . S
C3455 C3456 1.523 . S
C3456 C3437 1.368 . S
C3456 C3450 1.368 . S
C3456 C3455 1.523 . S
C3457 C3441 1.429 . S
C3457 C3453 1.429 . S
C3457 C3458 1.523 . S
C3458 C3442 1.368 . S
C3458 C3454 1.368 . S
C3458 C3457 1.523 . S
H3459 C3434 0.950 . S
H3460 C3436 0.950 . S
H3461 C3437 0.949 . S
H3462 C3439 0.950 . S
H3463 C3441 0.950 . S
C3464 C3465 1.349 . S
C3464 C3466 1.327 . S
C3464 H3489 0.950 . S
C3465 C3464 1.349 . S
C3465 C3481 1.349 . S
C3466 C3464 1.327 . S
C3466 C3485 1.429 . S
C3466 H3490 0.950 . S
C3467 C3484 1.574 . S
C3467 C3486 1.368 . S
C3467 H3491 0.949 . S
H3468 C3472 0.949 . S
C3469 C3470 1.349 . S
C3469 C3471 1.327 . S
C3469 H3492 0.950 . S
C3470 C3469 1.349 . S
C3470 C3482 1.349 . S
C3471 C3469 1.327 . S
C3471 C3487 1.429 . S
C3471 H3493 0.950 . S
C3472 H3468 0.949 . S
C3472 C3480 1.574 . S
C3472 C3488 1.368 . S
H3473 C3481 0.950 . S
H3474 C3479 0.950 . S
H3475 C3480 0.949 . S
H3476 C3482 0.950 . S
H3477 C3483 0.950 . S
H3478 C3484 0.949 . S
C3479 H3474 0.950 . S
C3479 C3481 1.327 . S
C3479 C3485 1.429 . S
C3480 C3472 1.574 . S
C3480 H3475 0.949 . S
C3480 C3486 1.368 . S
C3481 C3465 1.349 . S
C3481 H3473 0.950 . S
C3481 C3479 1.327 . S
C3482 C3470 1.349 . S
C3482 H3476 0.950 . S
C3482 C3483 1.327 . S
C3483 H3477 0.950 . S
C3483 C3482 1.327 . S
C3483 C3487 1.429 . S
C3484 C3467 1.574 . S
C3484 H3478 0.949 . S
C3484 C3488 1.368 . S
C3485 C3466 1.429 . S
C3485 C3479 1.429 . S
C3485 C3486 1.523 . S
C3486 C3467 1.368 . S
C3486 C3480 1.368 . S
C3486 C3485 1.523 . S
C3487 C3471 1.429 . S
C3487 C3483 1.429 . S
C3487 C3488 1.523 . S
C3488 C3472 1.368 . S
C3488 C3484 1.368 . S
C3488 C3487 1.523 . S
H3489 C3464 0.950 . S
H3490 C3466 0.950 . S
H3491 C3467 0.949 . S
H3492 C3469 0.950 . S
H3493 C3471 0.950 . S
C3494 C3495 1.349 . S
C3494 C3496 1.327 . S
C3494 H3519 0.950 . S
C3495 C3494 1.349 . S
C3495 C3511 1.349 . S
C3496 C3494 1.327 . S
C3496 C3515 1.429 . S
C3496 H3520 0.950 . S
C3497 C3514 1.574 . S
C3497 C3516 1.368 . S
C3497 H3521 0.949 . S
H3498 C3502 0.949 . S
C3499 C3500 1.349 . S
C3499 C3501 1.327 . S
C3499 H3522 0.950 . S
C3500 C3499 1.349 . S
C3500 C3512 1.349 . S
C3501 C3499 1.327 . S
C3501 C3517 1.429 . S
C3501 H3523 0.950 . S
C3502 H3498 0.949 . S
C3502 C3510 1.574 . S
C3502 C3518 1.368 . S
H3503 C3511 0.950 . S
H3504 C3509 0.950 . S
H3505 C3510 0.949 . S
H3506 C3512 0.950 . S
H3507 C3513 0.950 . S
H3508 C3514 0.949 . S
C3509 H3504 0.950 . S
C3509 C3511 1.327 . S
C3509 C3515 1.429 . S
C3510 C3502 1.574 . S
C3510 H3505 0.949 . S
C3510 C3516 1.368 . S
C3511 C3495 1.349 . S
C3511 H3503 0.950 . S
C3511 C3509 1.327 . S
C3512 C3500 1.349 . S
C3512 H3506 0.950 . S
C3512 C3513 1.327 . S
C3513 H3507 0.950 . S
C3513 C3512 1.327 . S
C3513 C3517 1.429 . S
C3514 C3497 1.574 . S
C3514 H3508 0.949 . S
C3514 C3518 1.368 . S
C3515 C3496 1.429 . S
C3515 C3509 1.429 . S
C3515 C3516 1.523 . S
C3516 C3497 1.368 . S
C3516 C3510 1.368 . S
C3516 C3515 1.523 . S
C3517 C3501 1.429 . S
C3517 C3513 1.429 . S
C3517 C3518 1.523 . S
C3518 C3502 1.368 . S
C3518 C3514 1.368 . S
C3518 C3517 1.523 . S
H3519 C3494 0.950 . S
H3520 C3496 0.950 . S
H3521 C3497 0.949 . S
H3522 C3499 0.950 . S
H3523 C3501 0.950 . S
C3524 C3525 1.349 . S
C3524 C3526 1.327 . S
C3524 H3549 0.950 . S
C3525 C3524 1.349 . S
C3525 C3541 1.349 . S
C3526 C3524 1.327 . S
C3526 C3545 1.429 . S
C3526 H3550 0.950 . S
C3527 C3544 1.574 . S
C3527 C3546 1.368 . S
C3527 H3551 0.949 . S
H3528 C3532 0.949 . S
C3529 C3530 1.349 . S
C3529 C3531 1.327 . S
C3529 H3552 0.950 . S
C3530 C3529 1.349 . S
C3530 C3542 1.349 . S
C3531 C3529 1.327 . S
C3531 C3547 1.429 . S
C3531 H3553 0.950 . S
C3532 H3528 0.949 . S
C3532 C3540 1.574 . S
C3532 C3548 1.368 . S
H3533 C3541 0.950 . S
H3534 C3539 0.950 . S
H3535 C3540 0.949 . S
H3536 C3542 0.950 . S
H3537 C3543 0.950 . S
H3538 C3544 0.949 . S
C3539 H3534 0.950 . S
C3539 C3541 1.327 . S
C3539 C3545 1.429 . S
C3540 C3532 1.574 . S
C3540 H3535 0.949 . S
C3540 C3546 1.368 . S
C3541 C3525 1.349 . S
C3541 H3533 0.950 . S
C3541 C3539 1.327 . S
C3542 C3530 1.349 . S
C3542 H3536 0.950 . S
C3542 C3543 1.327 . S
C3543 H3537 0.950 . S
C3543 C3542 1.327 . S
C3543 C3547 1.429 . S
C3544 C3527 1.574 . S
C3544 H3538 0.949 . S
C3544 C3548 1.368 . S
C3545 C3526 1.429 . S
C3545 C3539 1.429 . S
C3545 C3546 1.523 . S
C3546 C3527 1.368 . S
C3546 C3540 1.368 . S
C3546 C3545 1.523 . S
C3547 C3531 1.429 . S
C3547 C3543 1.429 . S
C3547 C3548 1.523 . S
C3548 C3532 1.368 . S
C3548 C3544 1.368 . S
C3548 C3547 1.523 . S
H3549 C3524 0.950 . S
H3550 C3526 0.950 . S
H3551 C3527 0.949 . S
H3552 C3529 0.950 . S
H3553 C3531 0.950 . S
C3554 C3555 1.349 . S
C3554 C3556 1.327 . S
C3554 H3579 0.950 . S
C3555 C3554 1.349 . S
C3555 C3571 1.349 . S
C3556 C3554 1.327 . S
C3556 C3575 1.429 . S
C3556 H3580 0.950 . S
C3557 C3574 1.574 . S
C3557 C3576 1.368 . S
C3557 H3581 0.949 . S
H3558 C3562 0.949 . S
C3559 C3560 1.349 . S
C3559 C3561 1.327 . S
C3559 H3582 0.950 . S
C3560 C3559 1.349 . S
C3560 C3572 1.349 . S
C3561 C3559 1.327 . S
C3561 C3577 1.429 . S
C3561 H3583 0.950 . S
C3562 H3558 0.949 . S
C3562 C3570 1.574 . S
C3562 C3578 1.368 . S
H3563 C3571 0.950 . S
H3564 C3569 0.950 . S
H3565 C3570 0.949 . S
H3566 C3572 0.950 . S
H3567 C3573 0.950 . S
H3568 C3574 0.949 . S
C3569 H3564 0.950 . S
C3569 C3571 1.327 . S
C3569 C3575 1.429 . S
C3570 C3562 1.574 . S
C3570 H3565 0.949 . S
C3570 C3576 1.368 . S
C3571 C3555 1.349 . S
C3571 H3563 0.950 . S
C3571 C3569 1.327 . S
C3572 C3560 1.349 . S
C3572 H3566 0.950 . S
C3572 C3573 1.327 . S
C3573 H3567 0.950 . S
C3573 C3572 1.327 . S
C3573 C3577 1.429 . S
C3574 C3557 1.574 . S
C3574 H3568 0.949 . S
C3574 C3578 1.368 . S
C3575 C3556 1.429 . S
C3575 C3569 1.429 . S
C3575 C3576 1.523 . S
C3576 C3557 1.368 . S
C3576 C3570 1.368 . S
C3576 C3575 1.523 . S
C3577 C3561 1.429 . S
C3577 C3573 1.429 . S
C3577 C3578 1.523 . S
C3578 C3562 1.368 . S
C3578 C3574 1.368 . S
C3578 C3577 1.523 . S
H3579 C3554 0.950 . S
H3580 C3556 0.950 . S
H3581 C3557 0.949 . S
H3582 C3559 0.950 . S
H3583 C3561 0.950 . S
C3584 C3585 1.349 . S
C3584 C3586 1.327 . S
C3584 H3609 0.950 . S
C3585 C3584 1.349 . S
C3585 C3601 1.349 . S
C3586 C3584 1.327 . S
C3586 C3605 1.429 . S
C3586 H3610 0.950 . S
C3587 C3604 1.574 . S
C3587 C3606 1.368 . S
C3587 H3611 0.949 . S
H3588 C3592 0.949 . S
C3589 C3590 1.349 . S
C3589 C3591 1.327 . S
C3589 H3612 0.950 . S
C3590 C3589 1.349 . S
C3590 C3602 1.349 . S
C3591 C3589 1.327 . S
C3591 C3607 1.429 . S
C3591 H3613 0.950 . S
C3592 H3588 0.949 . S
C3592 C3600 1.574 . S
C3592 C3608 1.368 . S
H3593 C3601 0.950 . S
H3594 C3599 0.950 . S
H3595 C3600 0.949 . S
H3596 C3602 0.950 . S
H3597 C3603 0.950 . S
H3598 C3604 0.949 . S
C3599 H3594 0.950 . S
C3599 C3601 1.327 . S
C3599 C3605 1.429 . S
C3600 C3592 1.574 . S
C3600 H3595 0.949 . S
C3600 C3606 1.368 . S
C3601 C3585 1.349 . S
C3601 H3593 0.950 . S
C3601 C3599 1.327 . S
C3602 C3590 1.349 . S
C3602 H3596 0.950 . S
C3602 C3603 1.327 . S
C3603 H3597 0.950 . S
C3603 C3602 1.327 . S
C3603 C3607 1.429 . S
C3604 C3587 1.574 . S
C3604 H3598 0.949 . S
C3604 C3608 1.368 . S
C3605 C3586 1.429 . S
C3605 C3599 1.429 . S
C3605 C3606 1.523 . S
C3606 C3587 1.368 . S
C3606 C3600 1.368 . S
C3606 C3605 1.523 . S
C3607 C3591 1.429 . S
C3607 C3603 1.429 . S
C3607 C3608 1.523 . S
C3608 C3592 1.368 . S
C3608 C3604 1.368 . S
C3608 C3607 1.523 . S
H3609 C3584 0.950 . S
H3610 C3586 0.950 . S
H3611 C3587 0.949 . S
H3612 C3589 0.950 . S
H3613 C3591 0.950 . S
C3614 C3615 1.349 . S
C3614 C3616 1.327 . S
C3614 H3639 0.950 . S
C3615 C3614 1.349 . S
C3615 C3631 1.349 . S
C3616 C3614 1.327 . S
C3616 C3635 1.429 . S
C3616 H3640 0.950 . S
C3617 C3634 1.574 . S
C3617 C3636 1.368 . S
C3617 H3641 0.949 . S
H3618 C3622 0.949 . S
C3619 C3620 1.349 . S
C3619 C3621 1.327 . S
C3619 H3642 0.950 . S
C3620 C3619 1.349 . S
C3620 C3632 1.349 . S
C3621 C3619 1.327 . S
C3621 C3637 1.429 . S
C3621 H3643 0.950 . S
C3622 H3618 0.949 . S
C3622 C3630 1.574 . S
C3622 C3638 1.368 . S
H3623 C3631 0.950 . S
H3624 C3629 0.950 . S
H3625 C3630 0.949 . S
H3626 C3632 0.950 . S
H3627 C3633 0.950 . S
H3628 C3634 0.949 . S
C3629 H3624 0.950 . S
C3629 C3631 1.327 . S
C3629 C3635 1.429 . S
C3630 C3622 1.574 . S
C3630 H3625 0.949 . S
C3630 C3636 1.368 . S
C3631 C3615 1.349 . S
C3631 H3623 0.950 . S
C3631 C3629 1.327 . S
C3632 C3620 1.349 . S
C3632 H3626 0.950 . S
C3632 C3633 1.327 . S
C3633 H3627 0.950 . S
C3633 C3632 1.327 . S
C3633 C3637 1.429 . S
C3634 C3617 1.574 . S
C3634 H3628 0.949 . S
C3634 C3638 1.368 . S
C3635 C3616 1.429 . S
C3635 C3629 1.429 . S
C3635 C3636 1.523 . S
C3636 C3617 1.368 . S
C3636 C3630 1.368 . S
C3636 C3635 1.523 . S
C3637 C3621 1.429 . S
C3637 C3633 1.429 . S
C3637 C3638 1.523 . S
C3638 C3622 1.368 . S
C3638 C3634 1.368 . S
C3638 C3637 1.523 . S
H3639 C3614 0.950 . S
H3640 C3616 0.950 . S
H3641 C3617 0.949 . S
H3642 C3619 0.950 . S
H3643 C3621 0.950 . S
C3644 C3645 1.349 . S
C3644 C3646 1.327 . S
C3644 H3669 0.950 . S
C3645 C3644 1.349 . S
C3645 C3661 1.349 . S
C3646 C3644 1.327 . S
C3646 C3665 1.429 . S
C3646 H3670 0.950 . S
C3647 C3664 1.574 . S
C3647 C3666 1.368 . S
C3647 H3671 0.949 . S
H3648 C3652 0.949 . S
C3649 C3650 1.349 . S
C3649 C3651 1.327 . S
C3649 H3672 0.950 . S
C3650 C3649 1.349 . S
C3650 C3662 1.349 . S
C3651 C3649 1.327 . S
C3651 C3667 1.429 . S
C3651 H3673 0.950 . S
C3652 H3648 0.949 . S
C3652 C3660 1.574 . S
C3652 C3668 1.368 . S
H3653 C3661 0.950 . S
H3654 C3659 0.950 . S
H3655 C3660 0.949 . S
H3656 C3662 0.950 . S
H3657 C3663 0.950 . S
H3658 C3664 0.949 . S
C3659 H3654 0.950 . S
C3659 C3661 1.327 . S
C3659 C3665 1.429 . S
C3660 C3652 1.574 . S
C3660 H3655 0.949 . S
C3660 C3666 1.368 . S
C3661 C3645 1.349 . S
C3661 H3653 0.950 . S
C3661 C3659 1.327 . S
C3662 C3650 1.349 . S
C3662 H3656 0.950 . S
C3662 C3663 1.327 . S
C3663 H3657 0.950 . S
C3663 C3662 1.327 . S
C3663 C3667 1.429 . S
C3664 C3647 1.574 . S
C3664 H3658 0.949 . S
C3664 C3668 1.368 . S
C3665 C3646 1.429 . S
C3665 C3659 1.429 . S
C3665 C3666 1.523 . S
C3666 C3647 1.368 . S
C3666 C3660 1.368 . S
C3666 C3665 1.523 . S
C3667 C3651 1.429 . S
C3667 C3663 1.429 . S
C3667 C3668 1.523 . S
C3668 C3652 1.368 . S
C3668 C3664 1.368 . S
C3668 C3667 1.523 . S
H3669 C3644 0.950 . S
H3670 C3646 0.950 . S
H3671 C3647 0.949 . S
H3672 C3649 0.950 . S
H3673 C3651 0.950 . S
C3674 C3675 1.349 . S
C3674 C3676 1.327 . S
C3674 H3699 0.950 . S
C3675 C3674 1.349 . S
C3675 C3691 1.349 . S
C3676 C3674 1.327 . S
C3676 C3695 1.429 . S
C3676 H3700 0.950 . S
C3677 C3694 1.574 . S
C3677 C3696 1.368 . S
C3677 H3701 0.949 . S
H3678 C3682 0.949 . S
C3679 C3680 1.349 . S
C3679 C3681 1.327 . S
C3679 H3702 0.950 . S
C3680 C3679 1.349 . S
C3680 C3692 1.349 . S
C3681 C3679 1.327 . S
C3681 C3697 1.429 . S
C3681 H3703 0.950 . S
C3682 H3678 0.949 . S
C3682 C3690 1.574 . S
C3682 C3698 1.368 . S
H3683 C3691 0.950 . S
H3684 C3689 0.950 . S
H3685 C3690 0.949 . S
H3686 C3692 0.950 . S
H3687 C3693 0.950 . S
H3688 C3694 0.949 . S
C3689 H3684 0.950 . S
C3689 C3691 1.327 . S
C3689 C3695 1.429 . S
C3690 C3682 1.574 . S
C3690 H3685 0.949 . S
C3690 C3696 1.368 . S
C3691 C3675 1.349 . S
C3691 H3683 0.950 . S
C3691 C3689 1.327 . S
C3692 C3680 1.349 . S
C3692 H3686 0.950 . S
C3692 C3693 1.327 . S
C3693 H3687 0.950 . S
C3693 C3692 1.327 . S
C3693 C3697 1.429 . S
C3694 C3677 1.574 . S
C3694 H3688 0.949 . S
C3694 C3698 1.368 . S
C3695 C3676 1.429 . S
C3695 C3689 1.429 . S
C3695 C3696 1.523 . S
C3696 C3677 1.368 . S
C3696 C3690 1.368 . S
C3696 C3695 1.523 . S
C3697 C3681 1.429 . S
C3697 C3693 1.429 . S
C3697 C3698 1.523 . S
C3698 C3682 1.368 . S
C3698 C3694 1.368 . S
C3698 C3697 1.523 . S
H3699 C3674 0.950 . S
H3700 C3676 0.950 . S
H3701 C3677 0.949 . S
H3702 C3679 0.950 . S
H3703 C3681 0.950 . S
C3704 C3705 1.349 . S
C3704 C3706 1.327 . S
C3704 H3729 0.950 . S
C3705 C3704 1.349 . S
C3705 C3721 1.349 . S
C3706 C3704 1.327 . S
C3706 C3725 1.429 . S
C3706 H3730 0.950 . S
C3707 C3724 1.574 . S
C3707 C3726 1.368 . S
C3707 H3731 0.949 . S
H3708 C3712 0.949 . S
C3709 C3710 1.349 . S
C3709 C3711 1.327 . S
C3709 H3732 0.950 . S
C3710 C3709 1.349 . S
C3710 C3722 1.349 . S
C3711 C3709 1.327 . S
C3711 C3727 1.429 . S
C3711 H3733 0.950 . S
C3712 H3708 0.949 . S
C3712 C3720 1.574 . S
C3712 C3728 1.368 . S
H3713 C3721 0.950 . S
H3714 C3719 0.950 . S
H3715 C3720 0.949 . S
H3716 C3722 0.950 . S
H3717 C3723 0.950 . S
H3718 C3724 0.949 . S
C3719 H3714 0.950 . S
C3719 C3721 1.327 . S
C3719 C3725 1.429 . S
C3720 C3712 1.574 . S
C3720 H3715 0.949 . S
C3720 C3726 1.368 . S
C3721 C3705 1.349 . S
C3721 H3713 0.950 . S
C3721 C3719 1.327 . S
C3722 C3710 1.349 . S
C3722 H3716 0.950 . S
C3722 C3723 1.327 . S
C3723 H3717 0.950 . S
C3723 C3722 1.327 . S
C3723 C3727 1.429 . S
C3724 C3707 1.574 . S
C3724 H3718 0.949 . S
C3724 C3728 1.368 . S
C3725 C3706 1.429 . S
C3725 C3719 1.429 . S
C3725 C3726 1.523 . S
C3726 C3707 1.368 . S
C3726 C3720 1.368 . S
C3726 C3725 1.523 . S
C3727 C3711 1.429 . S
C3727 C3723 1.429 . S
C3727 C3728 1.523 . S
C3728 C3712 1.368 . S
C3728 C3724 1.368 . S
C3728 C3727 1.523 . S
H3729 C3704 0.950 . S
H3730 C3706 0.950 . S
H3731 C3707 0.949 . S
H3732 C3709 0.950 . S
H3733 C3711 0.950 . S
C3734 C3735 1.349 . S
C3734 C3736 1.327 . S
C3734 H3759 0.950 . S
C3735 C3734 1.349 . S
C3735 C3751 1.349 . S
C3736 C3734 1.327 . S
C3736 C3755 1.429 . S
C3736 H3760 0.950 . S
C3737 C3754 1.574 . S
C3737 C3756 1.368 . S
C3737 H3761 0.949 . S
H3738 C3742 0.949 . S
C3739 C3740 1.349 . S
C3739 C3741 1.327 . S
C3739 H3762 0.950 . S
C3740 C3739 1.349 . S
C3740 C3752 1.349 . S
C3741 C3739 1.327 . S
C3741 C3757 1.429 . S
C3741 H3763 0.950 . S
C3742 H3738 0.949 . S
C3742 C3750 1.574 . S
C3742 C3758 1.368 . S
H3743 C3751 0.950 . S
H3744 C3749 0.950 . S
H3745 C3750 0.949 . S
H3746 C3752 0.950 . S
H3747 C3753 0.950 . S
H3748 C3754 0.949 . S
C3749 H3744 0.950 . S
C3749 C3751 1.327 . S
C3749 C3755 1.429 . S
C3750 C3742 1.574 . S
C3750 H3745 0.949 . S
C3750 C3756 1.368 . S
C3751 C3735 1.349 . S
C3751 H3743 0.950 . S
C3751 C3749 1.327 . S
C3752 C3740 1.349 . S
C3752 H3746 0.950 . S
C3752 C3753 1.327 . S
C3753 H3747 0.950 . S
C3753 C3752 1.327 . S
C3753 C3757 1.429 . S
C3754 C3737 1.574 . S
C3754 H3748 0.949 . S
C3754 C3758 1.368 . S
C3755 C3736 1.429 . S
C3755 C3749 1.429 . S
C3755 C3756 1.523 . S
C3756 C3737 1.368 . S
C3756 C3750 1.368 . S
C3756 C3755 1.523 . S
C3757 C3741 1.429 . S
C3757 C3753 1.429 . S
C3757 C3758 1.523 . S
C3758 C3742 1.368 . S
C3758 C3754 1.368 . S
C3758 C3757 1.523 . S
H3759 C3734 0.950 . S
H3760 C3736 0.950 . S
H3761 C3737 0.949 . S
H3762 C3739 0.950 . S
H3763 C3741 0.950 . S
C3764 C3765 1.349 . S
C3764 C3766 1.327 . S
C3764 H3789 0.950 . S
C3765 C3764 1.349 . S
C3765 C3781 1.349 . S
C3766 C3764 1.327 . S
C3766 C3785 1.429 . S
C3766 H3790 0.950 . S
C3767 C3784 1.574 . S
C3767 C3786 1.368 . S
C3767 H3791 0.949 . S
H3768 C3772 0.949 . S
C3769 C3770 1.349 . S
C3769 C3771 1.327 . S
C3769 H3792 0.950 . S
C3770 C3769 1.349 . S
C3770 C3782 1.349 . S
C3771 C3769 1.327 . S
C3771 C3787 1.429 . S
C3771 H3793 0.950 . S
C3772 H3768 0.949 . S
C3772 C3780 1.574 . S
C3772 C3788 1.368 . S
H3773 C3781 0.950 . S
H3774 C3779 0.950 . S
H3775 C3780 0.949 . S
H3776 C3782 0.950 . S
H3777 C3783 0.950 . S
H3778 C3784 0.949 . S
C3779 H3774 0.950 . S
C3779 C3781 1.327 . S
C3779 C3785 1.429 . S
C3780 C3772 1.574 . S
C3780 H3775 0.949 . S
C3780 C3786 1.368 . S
C3781 C3765 1.349 . S
C3781 H3773 0.950 . S
C3781 C3779 1.327 . S
C3782 C3770 1.349 . S
C3782 H3776 0.950 . S
C3782 C3783 1.327 . S
C3783 H3777 0.950 . S
C3783 C3782 1.327 . S
C3783 C3787 1.429 . S
C3784 C3767 1.574 . S
C3784 H3778 0.949 . S
C3784 C3788 1.368 . S
C3785 C3766 1.429 . S
C3785 C3779 1.429 . S
C3785 C3786 1.523 . S
C3786 C3767 1.368 . S
C3786 C3780 1.368 . S
C3786 C3785 1.523 . S
C3787 C3771 1.429 . S
C3787 C3783 1.429 . S
C3787 C3788 1.523 . S
C3788 C3772 1.368 . S
C3788 C3784 1.368 . S
C3788 C3787 1.523 . S
H3789 C3764 0.950 . S
H3790 C3766 0.950 . S
H3791 C3767 0.949 . S
H3792 C3769 0.950 . S
H3793 C3771 0.950 . S
C3794 C3795 1.349 . S
C3794 C3796 1.327 . S
C3794 H3819 0.950 . S
C3795 C3794 1.349 . S
C3795 C3811 1.349 . S
C3796 C3794 1.327 . S
C3796 C3815 1.429 . S
C3796 H3820 0.950 . S
C3797 C3814 1.574 . S
C3797 C3816 1.368 . S
C3797 H3821 0.949 . S
H3798 C3802 0.949 . S
C3799 C3800 1.349 . S
C3799 C3801 1.327 . S
C3799 H3822 0.950 . S
C3800 C3799 1.349 . S
C3800 C3812 1.349 . S
C3801 C3799 1.327 . S
C3801 C3817 1.429 . S
C3801 H3823 0.950 . S
C3802 H3798 0.949 . S
C3802 C3810 1.574 . S
C3802 C3818 1.368 . S
H3803 C3811 0.950 . S
H3804 C3809 0.950 . S
H3805 C3810 0.949 . S
H3806 C3812 0.950 . S
H3807 C3813 0.950 . S
H3808 C3814 0.949 . S
C3809 H3804 0.950 . S
C3809 C3811 1.327 . S
C3809 C3815 1.429 . S
C3810 C3802 1.574 . S
C3810 H3805 0.949 . S
C3810 C3816 1.368 . S
C3811 C3795 1.349 . S
C3811 H3803 0.950 . S
C3811 C3809 1.327 . S
C3812 C3800 1.349 . S
C3812 H3806 0.950 . S
C3812 C3813 1.327 . S
C3813 H3807 0.950 . S
C3813 C3812 1.327 . S
C3813 C3817 1.429 . S
C3814 C3797 1.574 . S
C3814 H3808 0.949 . S
C3814 C3818 1.368 . S
C3815 C3796 1.429 . S
C3815 C3809 1.429 . S
C3815 C3816 1.523 . S
C3816 C3797 1.368 . S
C3816 C3810 1.368 . S
C3816 C3815 1.523 . S
C3817 C3801 1.429 . S
C3817 C3813 1.429 . S
C3817 C3818 1.523 . S
C3818 C3802 1.368 . S
C3818 C3814 1.368 . S
C3818 C3817 1.523 . S
H3819 C3794 0.950 . S
H3820 C3796 0.950 . S
H3821 C3797 0.949 . S
H3822 C3799 0.950 . S
H3823 C3801 0.950 . S
C3824 C3825 1.349 . S
C3824 C3826 1.327 . S
C3824 H3849 0.950 . S
C3825 C3824 1.349 . S
C3825 C3841 1.349 . S
C3826 C3824 1.327 . S
C3826 C3845 1.429 . S
C3826 H3850 0.950 . S
C3827 C3844 1.574 . S
C3827 C3846 1.368 . S
C3827 H3851 0.949 . S
H3828 C3832 0.949 . S
C3829 C3830 1.349 . S
C3829 C3831 1.327 . S
C3829 H3852 0.950 . S
C3830 C3829 1.349 . S
C3830 C3842 1.349 . S
C3831 C3829 1.327 . S
C3831 C3847 1.429 . S
C3831 H3853 0.950 . S
C3832 H3828 0.949 . S
C3832 C3840 1.574 . S
C3832 C3848 1.368 . S
H3833 C3841 0.950 . S
H3834 C3839 0.950 . S
H3835 C3840 0.949 . S
H3836 C3842 0.950 . S
H3837 C3843 0.950 . S
H3838 C3844 0.949 . S
C3839 H3834 0.950 . S
C3839 C3841 1.327 . S
C3839 C3845 1.429 . S
C3840 C3832 1.574 . S
C3840 H3835 0.949 . S
C3840 C3846 1.368 . S
C3841 C3825 1.349 . S
C3841 H3833 0.950 . S
C3841 C3839 1.327 . S
C3842 C3830 1.349 . S
C3842 H3836 0.950 . S
C3842 C3843 1.327 . S
C3843 H3837 0.950 . S
C3843 C3842 1.327 . S
C3843 C3847 1.429 . S
C3844 C3827 1.574 . S
C3844 H3838 0.949 . S
C3844 C3848 1.368 . S
C3845 C3826 1.429 . S
C3845 C3839 1.429 . S
C3845 C3846 1.523 . S
C3846 C3827 1.368 . S
C3846 C3840 1.368 . S
C3846 C3845 1.523 . S
C3847 C3831 1.429 . S
C3847 C3843 1.429 . S
C3847 C3848 1.523 . S
C3848 C3832 1.368 . S
C3848 C3844 1.368 . S
C3848 C3847 1.523 . S
H3849 C3824 0.950 . S
H3850 C3826 0.950 . S
H3851 C3827 0.949 . S
H3852 C3829 0.950 . S
H3853 C3831 0.950 . S
C3854 C3855 1.349 . S
C3854 C3856 1.327 . S
C3854 H3879 0.950 . S
C3855 C3854 1.349 . S
C3855 C3871 1.349 . S
C3856 C3854 1.327 . S
C3856 C3875 1.429 . S
C3856 H3880 0.950 . S
C3857 C3874 1.574 . S
C3857 C3876 1.368 . S
C3857 H3881 0.949 . S
H3858 C3862 0.949 . S
C3859 C3860 1.349 . S
C3859 C3861 1.327 . S
C3859 H3882 0.950 . S
C3860 C3859 1.349 . S
C3860 C3872 1.349 . S
C3861 C3859 1.327 . S
C3861 C3877 1.429 . S
C3861 H3883 0.950 . S
C3862 H3858 0.949 . S
C3862 C3870 1.574 . S
C3862 C3878 1.368 . S
H3863 C3871 0.950 . S
H3864 C3869 0.950 . S
H3865 C3870 0.949 . S
H3866 C3872 0.950 . S
H3867 C3873 0.950 . S
H3868 C3874 0.949 . S
C3869 H3864 0.950 . S
C3869 C3871 1.327 . S
C3869 C3875 1.429 . S
C3870 C3862 1.574 . S
C3870 H3865 0.949 . S
C3870 C3876 1.368 . S
C3871 C3855 1.349 . S
C3871 H3863 0.950 . S
C3871 C3869 1.327 . S
C3872 C3860 1.349 . S
C3872 H3866 0.950 . S
C3872 C3873 1.327 . S
C3873 H3867 0.950 . S
C3873 C3872 1.327 . S
C3873 C3877 1.429 . S
C3874 C3857 1.574 . S
C3874 H3868 0.949 . S
C3874 C3878 1.368 . S
C3875 C3856 1.429 . S
C3875 C3869 1.429 . S
C3875 C3876 1.523 . S
C3876 C3857 1.368 . S
C3876 C3870 1.368 . S
C3876 C3875 1.523 . S
C3877 C3861 1.429 . S
C3877 C3873 1.429 . S
C3877 C3878 1.523 . S
C3878 C3862 1.368 . S
C3878 C3874 1.368 . S
C3878 C3877 1.523 . S
H3879 C3854 0.950 . S
H3880 C3856 0.950 . S
H3881 C3857 0.949 . S
H3882 C3859 0.950 . S
H3883 C3861 0.950 . S
C3884 C3885 1.349 . S
C3884 C3886 1.327 . S
C3884 H3909 0.950 . S
C3885 C3884 1.349 . S
C3885 C3901 1.349 . S
C3886 C3884 1.327 . S
C3886 C3905 1.429 . S
C3886 H3910 0.950 . S
C3887 C3904 1.574 . S
C3887 C3906 1.368 . S
C3887 H3911 0.949 . S
H3888 C3892 0.949 . S
C3889 C3890 1.349 . S
C3889 C3891 1.327 . S
C3889 H3912 0.950 . S
C3890 C3889 1.349 . S
C3890 C3902 1.349 . S
C3891 C3889 1.327 . S
C3891 C3907 1.429 . S
C3891 H3913 0.950 . S
C3892 H3888 0.949 . S
C3892 C3900 1.574 . S
C3892 C3908 1.368 . S
H3893 C3901 0.950 . S
H3894 C3899 0.950 . S
H3895 C3900 0.949 . S
H3896 C3902 0.950 . S
H3897 C3903 0.950 . S
H3898 C3904 0.949 . S
C3899 H3894 0.950 . S
C3899 C3901 1.327 . S
C3899 C3905 1.429 . S
C3900 C3892 1.574 . S
C3900 H3895 0.949 . S
C3900 C3906 1.368 . S
C3901 C3885 1.349 . S
C3901 H3893 0.950 . S
C3901 C3899 1.327 . S
C3902 C3890 1.349 . S
C3902 H3896 0.950 . S
C3902 C3903 1.327 . S
C3903 H3897 0.950 . S
C3903 C3902 1.327 . S
C3903 C3907 1.429 . S
C3904 C3887 1.574 . S
C3904 H3898 0.949 . S
C3904 C3908 1.368 . S
C3905 C3886 1.429 . S
C3905 C3899 1.429 . S
C3905 C3906 1.523 . S
C3906 C3887 1.368 . S
C3906 C3900 1.368 . S
C3906 C3905 1.523 . S
C3907 C3891 1.429 . S
C3907 C3903 1.429 . S
C3907 C3908 1.523 . S
C3908 C3892 1.368 . S
C3908 C3904 1.368 . S
C3908 C3907 1.523 . S
H3909 C3884 0.950 . S
H3910 C3886 0.950 . S
H3911 C3887 0.949 . S
H3912 C3889 0.950 . S
H3913 C3891 0.950 . S
C3914 C3915 1.349 . S
C3914 C3916 1.327 . S
C3914 H3939 0.950 . S
C3915 C3914 1.349 . S
C3915 C3931 1.349 . S
C3916 C3914 1.327 . S
C3916 C3935 1.429 . S
C3916 H3940 0.950 . S
C3917 C3934 1.574 . S
C3917 C3936 1.368 . S
C3917 H3941 0.949 . S
H3918 C3922 0.949 . S
C3919 C3920 1.349 . S
C3919 C3921 1.327 . S
C3919 H3942 0.950 . S
C3920 C3919 1.349 . S
C3920 C3932 1.349 . S
C3921 C3919 1.327 . S
C3921 C3937 1.429 . S
C3921 H3943 0.950 . S
C3922 H3918 0.949 . S
C3922 C3930 1.574 . S
C3922 C3938 1.368 . S
H3923 C3931 0.950 . S
H3924 C3929 0.950 . S
H3925 C3930 0.949 . S
H3926 C3932 0.950 . S
H3927 C3933 0.950 . S
H3928 C3934 0.949 . S
C3929 H3924 0.950 . S
C3929 C3931 1.327 . S
C3929 C3935 1.429 . S
C3930 C3922 1.574 . S
C3930 H3925 0.949 . S
C3930 C3936 1.368 . S
C3931 C3915 1.349 . S
C3931 H3923 0.950 . S
C3931 C3929 1.327 . S
C3932 C3920 1.349 . S
C3932 H3926 0.950 . S
C3932 C3933 1.327 . S
C3933 H3927 0.950 . S
C3933 C3932 1.327 . S
C3933 C3937 1.429 . S
C3934 C3917 1.574 . S
C3934 H3928 0.949 . S
C3934 C3938 1.368 . S
C3935 C3916 1.429 . S
C3935 C3929 1.429 . S
C3935 C3936 1.523 . S
C3936 C3917 1.368 . S
C3936 C3930 1.368 . S
C3936 C3935 1.523 . S
C3937 C3921 1.429 . S
C3937 C3933 1.429 . S
C3937 C3938 1.523 . S
C3938 C3922 1.368 . S
C3938 C3934 1.368 . S
C3938 C3937 1.523 . S
H3939 C3914 0.950 . S
H3940 C3916 0.950 . S
H3941 C3917 0.949 . S
H3942 C3919 0.950 . S
H3943 C3921 0.950 . S
C3944 C3945 1.349 . S
C3944 C3946 1.327 . S
C3944 H3969 0.950 . S
C3945 C3944 1.349 . S
C3945 C3961 1.349 . S
C3946 C3944 1.327 . S
C3946 C3965 1.429 . S
C3946 H3970 0.950 . S
C3947 C3964 1.574 . S
C3947 C3966 1.368 . S
C3947 H3971 0.949 . S
H3948 C3952 0.949 . S
C3949 C3950 1.349 . S
C3949 C3951 1.327 . S
C3949 H3972 0.950 . S
C3950 C3949 1.349 . S
C3950 C3962 1.349 . S
C3951 C3949 1.327 . S
C3951 C3967 1.429 . S
C3951 H3973 0.950 . S
C3952 H3948 0.949 . S
C3952 C3960 1.574 . S
C3952 C3968 1.368 . S
H3953 C3961 0.950 . S
H3954 C3959 0.950 . S
H3955 C3960 0.949 . S
H3956 C3962 0.950 . S
H3957 C3963 0.950 . S
H3958 C3964 0.949 . S
C3959 H3954 0.950 . S
C3959 C3961 1.327 . S
C3959 C3965 1.429 . S
C3960 C3952 1.574 . S
C3960 H3955 0.949 . S
C3960 C3966 1.368 . S
C3961 C3945 1.349 . S
C3961 H3953 0.950 . S
C3961 C3959 1.327 . S
C3962 C3950 1.349 . S
C3962 H3956 0.950 . S
C3962 C3963 1.327 . S
C3963 H3957 0.950 . S
C3963 C3962 1.327 . S
C3963 C3967 1.429 . S
C3964 C3947 1.574 . S
C3964 H3958 0.949 . S
C3964 C3968 1.368 . S
C3965 C3946 1.429 . S
C3965 C3959 1.429 . S
C3965 C3966 1.523 . S
C3966 C3947 1.368 . S
C3966 C3960 1.368 . S
C3966 C3965 1.523 . S
C3967 C3951 1.429 . S
C3967 C3963 1.429 . S
C3967 C3968 1.523 . S
C3968 C3952 1.368 . S
C3968 C3964 1.368 . S
C3968 C3967 1.523 . S
H3969 C3944 0.950 . S
H3970 C3946 0.950 . S
H3971 C3947 0.949 . S
H3972 C3949 0.950 . S
H3973 C3951 0.950 . S
C3974 C3975 1.349 . S
C3974 C3976 1.327 . S
C3974 H3999 0.950 . S
C3975 C3974 1.349 . S
C3975 C3991 1.349 . S
C3976 C3974 1.327 . S
C3976 C3995 1.429 . S
C3976 H4000 0.950 . S
C3977 C3994 1.574 . S
C3977 C3996 1.368 . S
C3977 H4001 0.949 . S
H3978 C3982 0.949 . S
C3979 C3980 1.349 . S
C3979 C3981 1.327 . S
C3979 H4002 0.950 . S
C3980 C3979 1.349 . S
C3980 C3992 1.349 . S
C3981 C3979 1.327 . S
C3981 C3997 1.429 . S
C3981 H4003 0.950 . S
C3982 H3978 0.949 . S
C3982 C3990 1.574 . S
C3982 C3998 1.368 . S
H3983 C3991 0.950 . S
H3984 C3989 0.950 . S
H3985 C3990 0.949 . S
H3986 C3992 0.950 . S
H3987 C3993 0.950 . S
H3988 C3994 0.949 . S
C3989 H3984 0.950 . S
C3989 C3991 1.327 . S
C3989 C3995 1.429 . S
C3990 C3982 1.574 . S
C3990 H3985 0.949 . S
C3990 C3996 1.368 . S
C3991 C3975 1.349 . S
C3991 H3983 0.950 . S
C3991 C3989 1.327 . S
C3992 C3980 1.349 . S
C3992 H3986 0.950 . S
C3992 C3993 1.327 . S
C3993 H3987 0.950 . S
C3993 C3992 1.327 . S
C3993 C3997 1.429 . S
C3994 C3977 1.574 . S
C3994 H3988 0.949 . S
C3994 C3998 1.368 . S
C3995 C3976 1.429 . S
C3995 C3989 1.429 . S
C3995 C3996 1.523 . S
C3996 C3977 1.368 . S
C3996 C3990 1.368 . S
C3996 C3995 1.523 . S
C3997 C3981 1.429 . S
C3997 C3993 1.429 . S
C3997 C3998 1.523 . S
C3998 C3982 1.368 . S
C3998 C3994 1.368 . S
C3998 C3997 1.523 . S
H3999 C3974 0.950 . S
H4000 C3976 0.950 . S
H4001 C3977 0.949 . S
H4002 C3979 0.950 . S
H4003 C3981 0.950 . S
C4004 C4005 1.349 . S
C4004 C4006 1.327 . S
C4004 H4029 0.950 . S
C4005 C4004 1.349 . S
C4005 C4021 1.349 . S
C4006 C4004 1.327 . S
C4006 C4025 1.429 . S
C4006 H4030 0.950 . S
C4007 C4024 1.574 . S
C4007 C4026 1.368 . S
C4007 H4031 0.949 . S
H4008 C4012 0.949 . S
C4009 C4010 1.349 . S
C4009 C4011 1.327 . S
C4009 H4032 0.950 . S
C4010 C4009 1.349 . S
C4010 C4022 1.349 . S
C4011 C4009 1.327 . S
C4011 C4027 1.429 . S
C4011 H4033 0.950 . S
C4012 H4008 0.949 . S
C4012 C4020 1.574 . S
C4012 C4028 1.368 . S
H4013 C4021 0.950 . S
H4014 C4019 0.950 . S
H4015 C4020 0.949 . S
H4016 C4022 0.950 . S
H4017 C4023 0.950 . S
H4018 C4024 0.949 . S
C4019 H4014 0.950 . S
C4019 C4021 1.327 . S
C4019 C4025 1.429 . S
C4020 C4012 1.574 . S
C4020 H4015 0.949 . S
C4020 C4026 1.368 . S
C4021 C4005 1.349 . S
C4021 H4013 0.950 . S
C4021 C4019 1.327 . S
C4022 C4010 1.349 . S
C4022 H4016 0.950 . S
C4022 C4023 1.327 . S
C4023 H4017 0.950 . S
C4023 C4022 1.327 . S
C4023 C4027 1.429 . S
C4024 C4007 1.574 . S
C4024 H4018 0.949 . S
C4024 C4028 1.368 . S
C4025 C4006 1.429 . S
C4025 C4019 1.429 . S
C4025 C4026 1.523 . S
C4026 C4007 1.368 . S
C4026 C4020 1.368 . S
C4026 C4025 1.523 . S
C4027 C4011 1.429 . S
C4027 C4023 1.429 . S
C4027 C4028 1.523 . S
C4028 C4012 1.368 . S
C4028 C4024 1.368 . S
C4028 C4027 1.523 . S
H4029 C4004 0.950 . S
H4030 C4006 0.950 . S
H4031 C4007 0.949 . S
H4032 C4009 0.950 . S
H4033 C4011 0.950 . S
C4034 C4035 1.349 . S
C4034 C4036 1.327 . S
C4034 H4059 0.950 . S
C4035 C4034 1.349 . S
C4035 C4051 1.349 . S
C4036 C4034 1.327 . S
C4036 C4055 1.429 . S
C4036 H4060 0.950 . S
C4037 C4054 1.574 . S
C4037 C4056 1.368 . S
C4037 H4061 0.949 . S
H4038 C4042 0.949 . S
C4039 C4040 1.349 . S
C4039 C4041 1.327 . S
C4039 H4062 0.950 . S
C4040 C4039 1.349 . S
C4040 C4052 1.349 . S
C4041 C4039 1.327 . S
C4041 C4057 1.429 . S
C4041 H4063 0.950 . S
C4042 H4038 0.949 . S
C4042 C4050 1.574 . S
C4042 C4058 1.368 . S
H4043 C4051 0.950 . S
H4044 C4049 0.950 . S
H4045 C4050 0.949 . S
H4046 C4052 0.950 . S
H4047 C4053 0.950 . S
H4048 C4054 0.949 . S
C4049 H4044 0.950 . S
C4049 C4051 1.327 . S
C4049 C4055 1.429 . S
C4050 C4042 1.574 . S
C4050 H4045 0.949 . S
C4050 C4056 1.368 . S
C4051 C4035 1.349 . S
C4051 H4043 0.950 . S
C4051 C4049 1.327 . S
C4052 C4040 1.349 . S
C4052 H4046 0.950 . S
C4052 C4053 1.327 . S
C4053 H4047 0.950 . S
C4053 C4052 1.327 . S
C4053 C4057 1.429 . S
C4054 C4037 1.574 . S
C4054 H4048 0.949 . S
C4054 C4058 1.368 . S
C4055 C4036 1.429 . S
C4055 C4049 1.429 . S
C4055 C4056 1.523 . S
C4056 C4037 1.368 . S
C4056 C4050 1.368 . S
C4056 C4055 1.523 . S
C4057 C4041 1.429 . S
C4057 C4053 1.429 . S
C4057 C4058 1.523 . S
C4058 C4042 1.368 . S
C4058 C4054 1.368 . S
C4058 C4057 1.523 . S
H4059 C4034 0.950 . S
H4060 C4036 0.950 . S
H4061 C4037 0.949 . S
H4062 C4039 0.950 . S
H4063 C4041 0.950 . S
C4064 C4065 1.349 . S
C4064 C4066 1.327 . S
C4064 H4089 0.950 . S
C4065 C4064 1.349 . S
C4065 C4081 1.349 . S
C4066 C4064 1.327 . S
C4066 C4085 1.429 . S
C4066 H4090 0.950 . S
C4067 C4084 1.574 . S
C4067 C4086 1.368 . S
C4067 H4091 0.949 . S
H4068 C4072 0.949 . S
C4069 C4070 1.349 . S
C4069 C4071 1.327 . S
C4069 H4092 0.950 . S
C4070 C4069 1.349 . S
C4070 C4082 1.349 . S
C4071 C4069 1.327 . S
C4071 C4087 1.429 . S
C4071 H4093 0.950 . S
C4072 H4068 0.949 . S
C4072 C4080 1.574 . S
C4072 C4088 1.368 . S
H4073 C4081 0.950 . S
H4074 C4079 0.950 . S
H4075 C4080 0.949 . S
H4076 C4082 0.950 . S
H4077 C4083 0.950 . S
H4078 C4084 0.949 . S
C4079 H4074 0.950 . S
C4079 C4081 1.327 . S
C4079 C4085 1.429 . S
C4080 C4072 1.574 . S
C4080 H4075 0.949 . S
C4080 C4086 1.368 . S
C4081 C4065 1.349 . S
C4081 H4073 0.950 . S
C4081 C4079 1.327 . S
C4082 C4070 1.349 . S
C4082 H4076 0.950 . S
C4082 C4083 1.327 . S
C4083 H4077 0.950 . S
C4083 C4082 1.327 . S
C4083 C4087 1.429 . S
C4084 C4067 1.574 . S
C4084 H4078 0.949 . S
C4084 C4088 1.368 . S
C4085 C4066 1.429 . S
C4085 C4079 1.429 . S
C4085 C4086 1.523 . S
C4086 C4067 1.368 . S
C4086 C4080 1.368 . S
C4086 C4085 1.523 . S
C4087 C4071 1.429 . S
C4087 C4083 1.429 . S
C4087 C4088 1.523 . S
C4088 C4072 1.368 . S
C4088 C4084 1.368 . S
C4088 C4087 1.523 . S
H4089 C4064 0.950 . S
H4090 C4066 0.950 . S
H4091 C4067 0.949 . S
H4092 C4069 0.950 . S
H4093 C4071 0.950 . S
C4094 C4095 1.349 . S
C4094 C4096 1.327 . S
C4094 H4119 0.950 . S
C4095 C4094 1.349 . S
C4095 C4111 1.349 . S
C4096 C4094 1.327 . S
C4096 C4115 1.429 . S
C4096 H4120 0.950 . S
C4097 C4114 1.574 . S
C4097 C4116 1.368 . S
C4097 H4121 0.949 . S
H4098 C4102 0.949 . S
C4099 C4100 1.349 . S
C4099 C4101 1.327 . S
C4099 H4122 0.950 . S
C4100 C4099 1.349 . S
C4100 C4112 1.349 . S
C4101 C4099 1.327 . S
C4101 C4117 1.429 . S
C4101 H4123 0.950 . S
C4102 H4098 0.949 . S
C4102 C4110 1.574 . S
C4102 C4118 1.368 . S
H4103 C4111 0.950 . S
H4104 C4109 0.950 . S
H4105 C4110 0.949 . S
H4106 C4112 0.950 . S
H4107 C4113 0.950 . S
H4108 C4114 0.949 . S
C4109 H4104 0.950 . S
C4109 C4111 1.327 . S
C4109 C4115 1.429 . S
C4110 C4102 1.574 . S
C4110 H4105 0.949 . S
C4110 C4116 1.368 . S
C4111 C4095 1.349 . S
C4111 H4103 0.950 . S
C4111 C4109 1.327 . S
C4112 C4100 1.349 . S
C4112 H4106 0.950 . S
C4112 C4113 1.327 . S
C4113 H4107 0.950 . S
C4113 C4112 1.327 . S
C4113 C4117 1.429 . S
C4114 C4097 1.574 . S
C4114 H4108 0.949 . S
C4114 C4118 1.368 . S
C4115 C4096 1.429 . S
C4115 C4109 1.429 . S
C4115 C4116 1.523 . S
C4116 C4097 1.368 . S
C4116 C4110 1.368 . S
C4116 C4115 1.523 . S
C4117 C4101 1.429 . S
C4117 C4113 1.429 . S
C4117 C4118 1.523 . S
C4118 C4102 1.368 . S
C4118 C4114 1.368 . S
C4118 C4117 1.523 . S
H4119 C4094 0.950 . S
H4120 C4096 0.950 . S
H4121 C4097 0.949 . S
H4122 C4099 0.950 . S
H4123 C4101 0.950 . S
C4124 C4125 1.349 . S
C4124 C4126 1.327 . S
C4124 H4149 0.950 . S
C4125 C4124 1.349 . S
C4125 C4141 1.349 . S
C4126 C4124 1.327 . S
C4126 C4145 1.429 . S
C4126 H4150 0.950 . S
C4127 C4144 1.574 . S
C4127 C4146 1.368 . S
C4127 H4151 0.949 . S
H4128 C4132 0.949 . S
C4129 C4130 1.349 . S
C4129 C4131 1.327 . S
C4129 H4152 0.950 . S
C4130 C4129 1.349 . S
C4130 C4142 1.349 . S
C4131 C4129 1.327 . S
C4131 C4147 1.429 . S
C4131 H4153 0.950 . S
C4132 H4128 0.949 . S
C4132 C4140 1.574 . S
C4132 C4148 1.368 . S
H4133 C4141 0.950 . S
H4134 C4139 0.950 . S
H4135 C4140 0.949 . S
H4136 C4142 0.950 . S
H4137 C4143 0.950 . S
H4138 C4144 0.949 . S
C4139 H4134 0.950 . S
C4139 C4141 1.327 . S
C4139 C4145 1.429 . S
C4140 C4132 1.574 . S
C4140 H4135 0.949 . S
C4140 C4146 1.368 . S
C4141 C4125 1.349 . S
C4141 H4133 0.950 . S
C4141 C4139 1.327 . S
C4142 C4130 1.349 . S
C4142 H4136 0.950 . S
C4142 C4143 1.327 . S
C4143 H4137 0.950 . S
C4143 C4142 1.327 . S
C4143 C4147 1.429 . S
C4144 C4127 1.574 . S
C4144 H4138 0.949 . S
C4144 C4148 1.368 . S
C4145 C4126 1.429 . S
C4145 C4139 1.429 . S
C4145 C4146 1.523 . S
C4146 C4127 1.368 . S
C4146 C4140 1.368 . S
C4146 C4145 1.523 . S
C4147 C4131 1.429 . S
C4147 C4143 1.429 . S
C4147 C4148 1.523 . S
C4148 C4132 1.368 . S
C4148 C4144 1.368 . S
C4148 C4147 1.523 . S
H4149 C4124 0.950 . S
H4150 C4126 0.950 . S
H4151 C4127 0.949 . S
H4152 C4129 0.950 . S
H4153 C4131 0.950 . S
C4154 C4155 1.349 . S
C4154 C4156 1.327 . S
C4154 H4179 0.950 . S
C4155 C4154 1.349 . S
C4155 C4171 1.349 . S
C4156 C4154 1.327 . S
C4156 C4175 1.429 . S
C4156 H4180 0.950 . S
C4157 C4174 1.574 . S
C4157 C4176 1.368 . S
C4157 H4181 0.949 . S
H4158 C4162 0.949 . S
C4159 C4160 1.349 . S
C4159 C4161 1.327 . S
C4159 H4182 0.950 . S
C4160 C4159 1.349 . S
C4160 C4172 1.349 . S
C4161 C4159 1.327 . S
C4161 C4177 1.429 . S
C4161 H4183 0.950 . S
C4162 H4158 0.949 . S
C4162 C4170 1.574 . S
C4162 C4178 1.368 . S
H4163 C4171 0.950 . S
H4164 C4169 0.950 . S
H4165 C4170 0.949 . S
H4166 C4172 0.950 . S
H4167 C4173 0.950 . S
H4168 C4174 0.949 . S
C4169 H4164 0.950 . S
C4169 C4171 1.327 . S
C4169 C4175 1.429 . S
C4170 C4162 1.574 . S
C4170 H4165 0.949 . S
C4170 C4176 1.368 . S
C4171 C4155 1.349 . S
C4171 H4163 0.950 . S
C4171 C4169 1.327 . S
C4172 C4160 1.349 . S
C4172 H4166 0.950 . S
C4172 C4173 1.327 . S
C4173 H4167 0.950 . S
C4173 C4172 1.327 . S
C4173 C4177 1.429 . S
C4174 C4157 1.574 . S
C4174 H4168 0.949 . S
C4174 C4178 1.368 . S
C4175 C4156 1.429 . S
C4175 C4169 1.429 . S
C4175 C4176 1.523 . S
C4176 C4157 1.368 . S
C4176 C4170 1.368 . S
C4176 C4175 1.523 . S
C4177 C4161 1.429 . S
C4177 C4173 1.429 . S
C4177 C4178 1.523 . S
C4178 C4162 1.368 . S
C4178 C4174 1.368 . S
C4178 C4177 1.523 . S
H4179 C4154 0.950 . S
H4180 C4156 0.950 . S
H4181 C4157 0.949 . S
H4182 C4159 0.950 . S
H4183 C4161 0.950 . S
C4184 C4185 1.349 . S
C4184 C4186 1.327 . S
C4184 H4209 0.950 . S
C4185 C4184 1.349 . S
C4185 C4201 1.349 . S
C4186 C4184 1.327 . S
C4186 C4205 1.429 . S
C4186 H4210 0.950 . S
C4187 C4204 1.574 . S
C4187 C4206 1.368 . S
C4187 H4211 0.949 . S
H4188 C4192 0.949 . S
C4189 C4190 1.349 . S
C4189 C4191 1.327 . S
C4189 H4212 0.950 . S
C4190 C4189 1.349 . S
C4190 C4202 1.349 . S
C4191 C4189 1.327 . S
C4191 C4207 1.429 . S
C4191 H4213 0.950 . S
C4192 H4188 0.949 . S
C4192 C4200 1.574 . S
C4192 C4208 1.368 . S
H4193 C4201 0.950 . S
H4194 C4199 0.950 . S
H4195 C4200 0.949 . S
H4196 C4202 0.950 . S
H4197 C4203 0.950 . S
H4198 C4204 0.949 . S
C4199 H4194 0.950 . S
C4199 C4201 1.327 . S
C4199 C4205 1.429 . S
C4200 C4192 1.574 . S
C4200 H4195 0.949 . S
C4200 C4206 1.368 . S
C4201 C4185 1.349 . S
C4201 H4193 0.950 . S
C4201 C4199 1.327 . S
C4202 C4190 1.349 . S
C4202 H4196 0.950 . S
C4202 C4203 1.327 . S
C4203 H4197 0.950 . S
C4203 C4202 1.327 . S
C4203 C4207 1.429 . S
C4204 C4187 1.574 . S
C4204 H4198 0.949 . S
C4204 C4208 1.368 . S
C4205 C4186 1.429 . S
C4205 C4199 1.429 . S
C4205 C4206 1.523 . S
C4206 C4187 1.368 . S
C4206 C4200 1.368 . S
C4206 C4205 1.523 . S
C4207 C4191 1.429 . S
C4207 C4203 1.429 . S
C4207 C4208 1.523 . S
C4208 C4192 1.368 . S
C4208 C4204 1.368 . S
C4208 C4207 1.523 . S
H4209 C4184 0.950 . S
H4210 C4186 0.950 . S
H4211 C4187 0.949 . S
H4212 C4189 0.950 . S
H4213 C4191 0.950 . S
C4214 C4215 1.349 . S
C4214 C4216 1.327 . S
C4214 H4239 0.950 . S
C4215 C4214 1.349 . S
C4215 C4231 1.349 . S
C4216 C4214 1.327 . S
C4216 C4235 1.429 . S
C4216 H4240 0.950 . S
C4217 C4234 1.574 . S
C4217 C4236 1.368 . S
C4217 H4241 0.949 . S
H4218 C4222 0.949 . S
C4219 C4220 1.349 . S
C4219 C4221 1.327 . S
C4219 H4242 0.950 . S
C4220 C4219 1.349 . S
C4220 C4232 1.349 . S
C4221 C4219 1.327 . S
C4221 C4237 1.429 . S
C4221 H4243 0.950 . S
C4222 H4218 0.949 . S
C4222 C4230 1.574 . S
C4222 C4238 1.368 . S
H4223 C4231 0.950 . S
H4224 C4229 0.950 . S
H4225 C4230 0.949 . S
H4226 C4232 0.950 . S
H4227 C4233 0.950 . S
H4228 C4234 0.949 . S
C4229 H4224 0.950 . S
C4229 C4231 1.327 . S
C4229 C4235 1.429 . S
C4230 C4222 1.574 . S
C4230 H4225 0.949 . S
C4230 C4236 1.368 . S
C4231 C4215 1.349 . S
C4231 H4223 0.950 . S
C4231 C4229 1.327 . S
C4232 C4220 1.349 . S
C4232 H4226 0.950 . S
C4232 C4233 1.327 . S
C4233 H4227 0.950 . S
C4233 C4232 1.327 . S
C4233 C4237 1.429 . S
C4234 C4217 1.574 . S
C4234 H4228 0.949 . S
C4234 C4238 1.368 . S
C4235 C4216 1.429 . S
C4235 C4229 1.429 . S
C4235 C4236 1.523 . S
C4236 C4217 1.368 . S
C4236 C4230 1.368 . S
C4236 C4235 1.523 . S
C4237 C4221 1.429 . S
C4237 C4233 1.429 . S
C4237 C4238 1.523 . S
C4238 C4222 1.368 . S
C4238 C4234 1.368 . S
C4238 C4237 1.523 . S
H4239 C4214 0.950 . S
H4240 C4216 0.950 . S
H4241 C4217 0.949 . S
H4242 C4219 0.950 . S
H4243 C4221 0.950 . S
C4244 C4245 1.349 . S
C4244 C4246 1.327 . S
C4244 H4269 0.950 . S
C4245 C4244 1.349 . S
C4245 C4261 1.349 . S
C4246 C4244 1.327 . S
C4246 C4265 1.429 . S
C4246 H4270 0.950 . S
C4247 C4264 1.574 . S
C4247 C4266 1.368 . S
C4247 H4271 0.949 . S
H4248 C4252 0.949 . S
C4249 C4250 1.349 . S
C4249 C4251 1.327 . S
C4249 H4272 0.950 . S
C4250 C4249 1.349 . S
C4250 C4262 1.349 . S
C4251 C4249 1.327 . S
C4251 C4267 1.429 . S
C4251 H4273 0.950 . S
C4252 H4248 0.949 . S
C4252 C4260 1.574 . S
C4252 C4268 1.368 . S
H4253 C4261 0.950 . S
H4254 C4259 0.950 . S
H4255 C4260 0.949 . S
H4256 C4262 0.950 . S
H4257 C4263 0.950 . S
H4258 C4264 0.949 . S
C4259 H4254 0.950 . S
C4259 C4261 1.327 . S
C4259 C4265 1.429 . S
C4260 C4252 1.574 . S
C4260 H4255 0.949 . S
C4260 C4266 1.368 . S
C4261 C4245 1.349 . S
C4261 H4253 0.950 . S
C4261 C4259 1.327 . S
C4262 C4250 1.349 . S
C4262 H4256 0.950 . S
C4262 C4263 1.327 . S
C4263 H4257 0.950 . S
C4263 C4262 1.327 . S
C4263 C4267 1.429 . S
C4264 C4247 1.574 . S
C4264 H4258 0.949 . S
C4264 C4268 1.368 . S
C4265 C4246 1.429 . S
C4265 C4259 1.429 . S
C4265 C4266 1.523 . S
C4266 C4247 1.368 . S
C4266 C4260 1.368 . S
C4266 C4265 1.523 . S
C4267 C4251 1.429 . S
C4267 C4263 1.429 . S
C4267 C4268 1.523 . S
C4268 C4252 1.368 . S
C4268 C4264 1.368 . S
C4268 C4267 1.523 . S
H4269 C4244 0.950 . S
H4270 C4246 0.950 . S
H4271 C4247 0.949 . S
H4272 C4249 0.950 . S
H4273 C4251 0.950 . S
C4274 C4275 1.349 . S
C4274 C4276 1.327 . S
C4274 H4299 0.950 . S
C4275 C4274 1.349 . S
C4275 C4291 1.349 . S
C4276 C4274 1.327 . S
C4276 C4295 1.429 . S
C4276 H4300 0.950 . S
C4277 C4294 1.574 . S
C4277 C4296 1.368 . S
C4277 H4301 0.949 . S
H4278 C4282 0.949 . S
C4279 C4280 1.349 . S
C4279 C4281 1.327 . S
C4279 H4302 0.950 . S
C4280 C4279 1.349 . S
C4280 C4292 1.349 . S
C4281 C4279 1.327 . S
C4281 C4297 1.429 . S
C4281 H4303 0.950 . S
C4282 H4278 0.949 . S
C4282 C4290 1.574 . S
C4282 C4298 1.368 . S
H4283 C4291 0.950 . S
H4284 C4289 0.950 . S
H4285 C4290 0.949 . S
H4286 C4292 0.950 . S
H4287 C4293 0.950 . S
H4288 C4294 0.949 . S
C4289 H4284 0.950 . S
C4289 C4291 1.327 . S
C4289 C4295 1.429 . S
C4290 C4282 1.574 . S
C4290 H4285 0.949 . S
C4290 C4296 1.368 . S
C4291 C4275 1.349 . S
C4291 H4283 0.950 . S
C4291 C4289 1.327 . S
C4292 C4280 1.349 . S
C4292 H4286 0.950 . S
C4292 C4293 1.327 . S
C4293 H4287 0.950 . S
C4293 C4292 1.327 . S
C4293 C4297 1.429 . S
C4294 C4277 1.574 . S
C4294 H4288 0.949 . S
C4294 C4298 1.368 . S
C4295 C4276 1.429 . S
C4295 C4289 1.429 . S
C4295 C4296 1.523 . S
C4296 C4277 1.368 . S
C4296 C4290 1.368 . S
C4296 C4295 1.523 . S
C4297 C4281 1.429 . S
C4297 C4293 1.429 . S
C4297 C4298 1.523 . S
C4298 C4282 1.368 . S
C4298 C4294 1.368 . S
C4298 C4297 1.523 . S
H4299 C4274 0.950 . S
H4300 C4276 0.950 . S
H4301 C4277 0.949 . S
H4302 C4279 0.950 . S
H4303 C4281 0.950 . S
C4304 C4305 1.349 . S
C4304 C4306 1.327 . S
C4304 H4329 0.950 . S
C4305 C4304 1.349 . S
C4305 C4321 1.349 . S
C4306 C4304 1.327 . S
C4306 C4325 1.429 . S
C4306 H4330 0.950 . S
C4307 C4324 1.574 . S
C4307 C4326 1.368 . S
C4307 H4331 0.949 . S
H4308 C4312 0.949 . S
C4309 C4310 1.349 . S
C4309 C4311 1.327 . S
C4309 H4332 0.950 . S
C4310 C4309 1.349 . S
C4310 C4322 1.349 . S
C4311 C4309 1.327 . S
C4311 C4327 1.429 . S
C4311 H4333 0.950 . S
C4312 H4308 0.949 . S
C4312 C4320 1.574 . S
C4312 C4328 1.368 . S
H4313 C4321 0.950 . S
H4314 C4319 0.950 . S
H4315 C4320 0.949 . S
H4316 C4322 0.950 . S
H4317 C4323 0.950 . S
H4318 C4324 0.949 . S
C4319 H4314 0.950 . S
C4319 C4321 1.327 . S
C4319 C4325 1.429 . S
C4320 C4312 1.574 . S
C4320 H4315 0.949 . S
C4320 C4326 1.368 . S
C4321 C4305 1.349 . S
C4321 H4313 0.950 . S
C4321 C4319 1.327 . S
C4322 C4310 1.349 . S
C4322 H4316 0.950 . S
C4322 C4323 1.327 . S
C4323 H4317 0.950 . S
C4323 C4322 1.327 . S
C4323 C4327 1.429 . S
C4324 C4307 1.574 . S
C4324 H4318 0.949 . S
C4324 C4328 1.368 . S
C4325 C4306 1.429 . S
C4325 C4319 1.429 . S
C4325 C4326 1.523 . S
C4326 C4307 1.368 . S
C4326 C4320 1.368 . S
C4326 C4325 1.523 . S
C4327 C4311 1.429 . S
C4327 C4323 1.429 . S
C4327 C4328 1.523 . S
C4328 C4312 1.368 . S
C4328 C4324 1.368 . S
C4328 C4327 1.523 . S
H4329 C4304 0.950 . S
H4330 C4306 0.950 . S
H4331 C4307 0.949 . S
H4332 C4309 0.950 . S
H4333 C4311 0.950 . S
C4334 C4335 1.349 . S
C4334 C4336 1.327 . S
C4334 H4359 0.950 . S
C4335 C4334 1.349 . S
C4335 C4351 1.349 . S
C4336 C4334 1.327 . S
C4336 C4355 1.429 . S
C4336 H4360 0.950 . S
C4337 C4354 1.574 . S
C4337 C4356 1.368 . S
C4337 H4361 0.949 . S
H4338 C4342 0.949 . S
C4339 C4340 1.349 . S
C4339 C4341 1.327 . S
C4339 H4362 0.950 . S
C4340 C4339 1.349 . S
C4340 C4352 1.349 . S
C4341 C4339 1.327 . S
C4341 C4357 1.429 . S
C4341 H4363 0.950 . S
C4342 H4338 0.949 . S
C4342 C4350 1.574 . S
C4342 C4358 1.368 . S
H4343 C4351 0.950 . S
H4344 C4349 0.950 . S
H4345 C4350 0.949 . S
H4346 C4352 0.950 . S
H4347 C4353 0.950 . S
H4348 C4354 0.949 . S
C4349 H4344 0.950 . S
C4349 C4351 1.327 . S
C4349 C4355 1.429 . S
C4350 C4342 1.574 . S
C4350 H4345 0.949 . S
C4350 C4356 1.368 . S
C4351 C4335 1.349 . S
C4351 H4343 0.950 . S
C4351 C4349 1.327 . S
C4352 C4340 1.349 . S
C4352 H4346 0.950 . S
C4352 C4353 1.327 . S
C4353 H4347 0.950 . S
C4353 C4352 1.327 . S
C4353 C4357 1.429 . S
C4354 C4337 1.574 . S
C4354 H4348 0.949 . S
C4354 C4358 1.368 . S
C4355 C4336 1.429 . S
C4355 C4349 1.429 . S
C4355 C4356 1.523 . S
C4356 C4337 1.368 . S
C4356 C4350 1.368 . S
C4356 C4355 1.523 . S
C4357 C4341 1.429 . S
C4357 C4353 1.429 . S
C4357 C4358 1.523 . S
C4358 C4342 1.368 . S
C4358 C4354 1.368 . S
C4358 C4357 1.523 . S
H4359 C4334 0.950 . S
H4360 C4336 0.950 . S
H4361 C4337 0.949 . S
H4362 C4339 0.950 . S
H4363 C4341 0.950 . S
C4364 C4365 1.349 . S
C4364 C4366 1.327 . S
C4364 H4389 0.950 . S
C4365 C4364 1.349 . S
C4365 C4381 1.349 . S
C4366 C4364 1.327 . S
C4366 C4385 1.429 . S
C4366 H4390 0.950 . S
C4367 C4384 1.574 . S
C4367 C4386 1.368 . S
C4367 H4391 0.949 . S
H4368 C4372 0.949 . S
C4369 C4370 1.349 . S
C4369 C4371 1.327 . S
C4369 H4392 0.950 . S
C4370 C4369 1.349 . S
C4370 C4382 1.349 . S
C4371 C4369 1.327 . S
C4371 C4387 1.429 . S
C4371 H4393 0.950 . S
C4372 H4368 0.949 . S
C4372 C4380 1.574 . S
C4372 C4388 1.368 . S
H4373 C4381 0.950 . S
H4374 C4379 0.950 . S
H4375 C4380 0.949 . S
H4376 C4382 0.950 . S
H4377 C4383 0.950 . S
H4378 C4384 0.949 . S
C4379 H4374 0.950 . S
C4379 C4381 1.327 . S
C4379 C4385 1.429 . S
C4380 C4372 1.574 . S
C4380 H4375 0.949 . S
C4380 C4386 1.368 . S
C4381 C4365 1.349 . S
C4381 H4373 0.950 . S
C4381 C4379 1.327 . S
C4382 C4370 1.349 . S
C4382 H4376 0.950 . S
C4382 C4383 1.327 . S
C4383 H4377 0.950 . S
C4383 C4382 1.327 . S
C4383 C4387 1.429 . S
C4384 C4367 1.574 . S
C4384 H4378 0.949 . S
C4384 C4388 1.368 . S
C4385 C4366 1.429 . S
C4385 C4379 1.429 . S
C4385 C4386 1.523 . S
C4386 C4367 1.368 . S
C4386 C4380 1.368 . S
C4386 C4385 1.523 . S
C4387 C4371 1.429 . S
C4387 C4383 1.429 . S
C4387 C4388 1.523 . S
C4388 C4372 1.368 . S
C4388 C4384 1.368 . S
C4388 C4387 1.523 . S
H4389 C4364 0.950 . S
H4390 C4366 0.950 . S
H4391 C4367 0.949 . S
H4392 C4369 0.950 . S
H4393 C4371 0.950 . S
C4394 C4395 1.349 . S
C4394 C4396 1.327 . S
C4394 H4419 0.950 . S
C4395 C4394 1.349 . S
C4395 C4411 1.349 . S
C4396 C4394 1.327 . S
C4396 C4415 1.429 . S
C4396 H4420 0.950 . S
C4397 C4414 1.574 . S
C4397 C4416 1.368 . S
C4397 H4421 0.949 . S
H4398 C4402 0.949 . S
C4399 C4400 1.349 . S
C4399 C4401 1.327 . S
C4399 H4422 0.950 . S
C4400 C4399 1.349 . S
C4400 C4412 1.349 . S
C4401 C4399 1.327 . S
C4401 C4417 1.429 . S
C4401 H4423 0.950 . S
C4402 H4398 0.949 . S
C4402 C4410 1.574 . S
C4402 C4418 1.368 . S
H4403 C4411 0.950 . S
H4404 C4409 0.950 . S
H4405 C4410 0.949 . S
H4406 C4412 0.950 . S
H4407 C4413 0.950 . S
H4408 C4414 0.949 . S
C4409 H4404 0.950 . S
C4409 C4411 1.327 . S
C4409 C4415 1.429 . S
C4410 C4402 1.574 . S
C4410 H4405 0.949 . S
C4410 C4416 1.368 . S
C4411 C4395 1.349 . S
C4411 H4403 0.950 . S
C4411 C4409 1.327 . S
C4412 C4400 1.349 . S
C4412 H4406 0.950 . S
C4412 C4413 1.327 . S
C4413 H4407 0.950 . S
C4413 C4412 1.327 . S
C4413 C4417 1.429 . S
C4414 C4397 1.574 . S
C4414 H4408 0.949 . S
C4414 C4418 1.368 . S
C4415 C4396 1.429 . S
C4415 C4409 1.429 . S
C4415 C4416 1.523 . S
C4416 C4397 1.368 . S
C4416 C4410 1.368 . S
C4416 C4415 1.523 . S
C4417 C4401 1.429 . S
C4417 C4413 1.429 . S
C4417 C4418 1.523 . S
C4418 C4402 1.368 . S
C4418 C4414 1.368 . S
C4418 C4417 1.523 . S
H4419 C4394 0.950 . S
H4420 C4396 0.950 . S
H4421 C4397 0.949 . S
H4422 C4399 0.950 . S
H4423 C4401 0.950 . S
C4424 C4425 1.349 . S
C4424 C4426 1.327 . S
C4424 H4449 0.950 . S
C4425 C4424 1.349 . S
C4425 C4441 1.349 . S
C4426 C4424 1.327 . S
C4426 C4445 1.429 . S
C4426 H4450 0.950 . S
C4427 C4444 1.574 . S
C4427 C4446 1.368 . S
C4427 H4451 0.949 . S
H4428 C4432 0.949 . S
C4429 C4430 1.349 . S
C4429 C4431 1.327 . S
C4429 H4452 0.950 . S
C4430 C4429 1.349 . S
C4430 C4442 1.349 . S
C4431 C4429 1.327 . S
C4431 C4447 1.429 . S
C4431 H4453 0.950 . S
C4432 H4428 0.949 . S
C4432 C4440 1.574 . S
C4432 C4448 1.368 . S
H4433 C4441 0.950 . S
H4434 C4439 0.950 . S
H4435 C4440 0.949 . S
H4436 C4442 0.950 . S
H4437 C4443 0.950 . S
H4438 C4444 0.949 . S
C4439 H4434 0.950 . S
C4439 C4441 1.327 . S
C4439 C4445 1.429 . S
C4440 C4432 1.574 . S
C4440 H4435 0.949 . S
C4440 C4446 1.368 . S
C4441 C4425 1.349 . S
C4441 H4433 0.950 . S
C4441 C4439 1.327 . S
C4442 C4430 1.349 . S
C4442 H4436 0.950 . S
C4442 C4443 1.327 . S
C4443 H4437 0.950 . S
C4443 C4442 1.327 . S
C4443 C4447 1.429 . S
C4444 C4427 1.574 . S
C4444 H4438 0.949 . S
C4444 C4448 1.368 . S
C4445 C4426 1.429 . S
C4445 C4439 1.429 . S
C4445 C4446 1.523 . S
C4446 C4427 1.368 . S
C4446 C4440 1.368 . S
C4446 C4445 1.523 . S
C4447 C4431 1.429 . S
C4447 C4443 1.429 . S
C4447 C4448 1.523 . S
C4448 C4432 1.368 . S
C4448 C4444 1.368 . S
C4448 C4447 1.523 . S
H4449 C4424 0.950 . S
H4450 C4426 0.950 . S
H4451 C4427 0.949 . S
H4452 C4429 0.950 . S
H4453 C4431 0.950 . S
C4454 C4455 1.349 . S
C4454 C4456 1.327 . S
C4454 H4479 0.950 . S
C4455 C4454 1.349 . S
C4455 C4471 1.349 . S
C4456 C4454 1.327 . S
C4456 C4475 1.429 . S
C4456 H4480 0.950 . S
C4457 C4474 1.574 . S
C4457 C4476 1.368 . S
C4457 H4481 0.949 . S
H4458 C4462 0.949 . S
C4459 C4460 1.349 . S
C4459 C4461 1.327 . S
C4459 H4482 0.950 . S
C4460 C4459 1.349 . S
C4460 C4472 1.349 . S
C4461 C4459 1.327 . S
C4461 C4477 1.429 . S
C4461 H4483 0.950 . S
C4462 H4458 0.949 . S
C4462 C4470 1.574 . S
C4462 C4478 1.368 . S
H4463 C4471 0.950 . S
H4464 C4469 0.950 . S
H4465 C4470 0.949 . S
H4466 C4472 0.950 . S
H4467 C4473 0.950 . S
H4468 C4474 0.949 . S
C4469 H4464 0.950 . S
C4469 C4471 1.327 . S
C4469 C4475 1.429 . S
C4470 C4462 1.574 . S
C4470 H4465 0.949 . S
C4470 C4476 1.368 . S
C4471 C4455 1.349 . S
C4471 H4463 0.950 . S
C4471 C4469 1.327 . S
C4472 C4460 1.349 . S
C4472 H4466 0.950 . S
C4472 C4473 1.327 . S
C4473 H4467 0.950 . S
C4473 C4472 1.327 . S
C4473 C4477 1.429 . S
C4474 C4457 1.574 . S
C4474 H4468 0.949 . S
C4474 C4478 1.368 . S
C4475 C4456 1.429 . S
C4475 C4469 1.429 . S
C4475 C4476 1.523 . S
C4476 C4457 1.368 . S
C4476 C4470 1.368 . S
C4476 C4475 1.523 . S
C4477 C4461 1.429 . S
C4477 C4473 1.429 . S
C4477 C4478 1.523 . S
C4478 C4462 1.368 . S
C4478 C4474 1.368 . S
C4478 C4477 1.523 . S
H4479 C4454 0.950 . S
H4480 C4456 0.950 . S
H4481 C4457 0.949 . S
H4482 C4459 0.950 . S
H4483 C4461 0.950 . S
C4484 C4485 1.349 . S
C4484 C4486 1.327 . S
C4484 H4509 0.950 . S
C4485 C4484 1.349 . S
C4485 C4501 1.349 . S
C4486 C4484 1.327 . S
C4486 C4505 1.429 . S
C4486 H4510 0.950 . S
C4487 C4504 1.574 . S
C4487 C4506 1.368 . S
C4487 H4511 0.949 . S
H4488 C4492 0.949 . S
C4489 C4490 1.349 . S
C4489 C4491 1.327 . S
C4489 H4512 0.950 . S
C4490 C4489 1.349 . S
C4490 C4502 1.349 . S
C4491 C4489 1.327 . S
C4491 C4507 1.429 . S
C4491 H4513 0.950 . S
C4492 H4488 0.949 . S
C4492 C4500 1.574 . S
C4492 C4508 1.368 . S
H4493 C4501 0.950 . S
H4494 C4499 0.950 . S
H4495 C4500 0.949 . S
H4496 C4502 0.950 . S
H4497 C4503 0.950 . S
H4498 C4504 0.949 . S
C4499 H4494 0.950 . S
C4499 C4501 1.327 . S
C4499 C4505 1.429 . S
C4500 C4492 1.574 . S
C4500 H4495 0.949 . S
C4500 C4506 1.368 . S
C4501 C4485 1.349 . S
C4501 H4493 0.950 . S
C4501 C4499 1.327 . S
C4502 C4490 1.349 . S
C4502 H4496 0.950 . S
C4502 C4503 1.327 . S
C4503 H4497 0.950 . S
C4503 C4502 1.327 . S
C4503 C4507 1.429 . S
C4504 C4487 1.574 . S
C4504 H4498 0.949 . S
C4504 C4508 1.368 . S
C4505 C4486 1.429 . S
C4505 C4499 1.429 . S
C4505 C4506 1.523 . S
C4506 C4487 1.368 . S
C4506 C4500 1.368 . S
C4506 C4505 1.523 . S
C4507 C4491 1.429 . S
C4507 C4503 1.429 . S
C4507 C4508 1.523 . S
C4508 C4492 1.368 . S
C4508 C4504 1.368 . S
C4508 C4507 1.523 . S
H4509 C4484 0.950 . S
H4510 C4486 0.950 . S
H4511 C4487 0.949 . S
H4512 C4489 0.950 . S
H4513 C4491 0.950 . S
C4514 C4515 1.349 . S
C4514 C4516 1.327 . S
C4514 H4539 0.950 . S
C4515 C4514 1.349 . S
C4515 C4531 1.349 . S
C4516 C4514 1.327 . S
C4516 C4535 1.429 . S
C4516 H4540 0.950 . S
C4517 C4534 1.574 . S
C4517 C4536 1.368 . S
C4517 H4541 0.949 . S
H4518 C4522 0.949 . S
C4519 C4520 1.349 . S
C4519 C4521 1.327 . S
C4519 H4542 0.950 . S
C4520 C4519 1.349 . S
C4520 C4532 1.349 . S
C4521 C4519 1.327 . S
C4521 C4537 1.429 . S
C4521 H4543 0.950 . S
C4522 H4518 0.949 . S
C4522 C4530 1.574 . S
C4522 C4538 1.368 . S
H4523 C4531 0.950 . S
H4524 C4529 0.950 . S
H4525 C4530 0.949 . S
H4526 C4532 0.950 . S
H4527 C4533 0.950 . S
H4528 C4534 0.949 . S
C4529 H4524 0.950 . S
C4529 C4531 1.327 . S
C4529 C4535 1.429 . S
C4530 C4522 1.574 . S
C4530 H4525 0.949 . S
C4530 C4536 1.368 . S
C4531 C4515 1.349 . S
C4531 H4523 0.950 . S
C4531 C4529 1.327 . S
C4532 C4520 1.349 . S
C4532 H4526 0.950 . S
C4532 C4533 1.327 . S
C4533 H4527 0.950 . S
C4533 C4532 1.327 . S
C4533 C4537 1.429 . S
C4534 C4517 1.574 . S
C4534 H4528 0.949 . S
C4534 C4538 1.368 . S
C4535 C4516 1.429 . S
C4535 C4529 1.429 . S
C4535 C4536 1.523 . S
C4536 C4517 1.368 . S
C4536 C4530 1.368 . S
C4536 C4535 1.523 . S
C4537 C4521 1.429 . S
C4537 C4533 1.429 . S
C4537 C4538 1.523 . S
C4538 C4522 1.368 . S
C4538 C4534 1.368 . S
C4538 C4537 1.523 . S
H4539 C4514 0.950 . S
H4540 C4516 0.950 . S
H4541 C4517 0.949 . S
H4542 C4519 0.950 . S
H4543 C4521 0.950 . S
C4544 C4545 1.349 . S
C4544 C4546 1.327 . S
C4544 H4569 0.950 . S
C4545 C4544 1.349 . S
C4545 C4561 1.349 . S
C4546 C4544 1.327 . S
C4546 C4565 1.429 . S
C4546 H4570 0.950 . S
C4547 C4564 1.574 . S
C4547 C4566 1.368 . S
C4547 H4571 0.949 . S
H4548 C4552 0.949 . S
C4549 C4550 1.349 . S
C4549 C4551 1.327 . S
C4549 H4572 0.950 . S
C4550 C4549 1.349 . S
C4550 C4562 1.349 . S
C4551 C4549 1.327 . S
C4551 C4567 1.429 . S
C4551 H4573 0.950 . S
C4552 H4548 0.949 . S
C4552 C4560 1.574 . S
C4552 C4568 1.368 . S
H4553 C4561 0.950 . S
H4554 C4559 0.950 . S
H4555 C4560 0.949 . S
H4556 C4562 0.950 . S
H4557 C4563 0.950 . S
H4558 C4564 0.949 . S
C4559 H4554 0.950 . S
C4559 C4561 1.327 . S
C4559 C4565 1.429 . S
C4560 C4552 1.574 . S
C4560 H4555 0.949 . S
C4560 C4566 1.368 . S
C4561 C4545 1.349 . S
C4561 H4553 0.950 . S
C4561 C4559 1.327 . S
C4562 C4550 1.349 . S
C4562 H4556 0.950 . S
C4562 C4563 1.327 . S
C4563 H4557 0.950 . S
C4563 C4562 1.327 . S
C4563 C4567 1.429 . S
C4564 C4547 1.574 . S
C4564 H4558 0.949 . S
C4564 C4568 1.368 . S
C4565 C4546 1.429 . S
C4565 C4559 1.429 . S
C4565 C4566 1.523 . S
C4566 C4547 1.368 . S
C4566 C4560 1.368 . S
C4566 C4565 1.523 . S
C4567 C4551 1.429 . S
C4567 C4563 1.429 . S
C4567 C4568 1.523 . S
C4568 C4552 1.368 . S
C4568 C4564 1.368 . S
C4568 C4567 1.523 . S
H4569 C4544 0.950 . S
H4570 C4546 0.950 . S
H4571 C4547 0.949 . S
H4572 C4549 0.950 . S
H4573 C4551 0.950 . S
C4574 C4575 1.349 . S
C4574 C4576 1.327 . S
C4574 H4599 0.950 . S
C4575 C4574 1.349 . S
C4575 C4591 1.349 . S
C4576 C4574 1.327 . S
C4576 C4595 1.429 . S
C4576 H4600 0.950 . S
C4577 C4594 1.574 . S
C4577 C4596 1.368 . S
C4577 H4601 0.949 . S
H4578 C4582 0.949 . S
C4579 C4580 1.349 . S
C4579 C4581 1.327 . S
C4579 H4602 0.950 . S
C4580 C4579 1.349 . S
C4580 C4592 1.349 . S
C4581 C4579 1.327 . S
C4581 C4597 1.429 . S
C4581 H4603 0.950 . S
C4582 H4578 0.949 . S
C4582 C4590 1.574 . S
C4582 C4598 1.368 . S
H4583 C4591 0.950 . S
H4584 C4589 0.950 . S
H4585 C4590 0.949 . S
H4586 C4592 0.950 . S
H4587 C4593 0.950 . S
H4588 C4594 0.949 . S
C4589 H4584 0.950 . S
C4589 C4591 1.327 . S
C4589 C4595 1.429 . S
C4590 C4582 1.574 . S
C4590 H4585 0.949 . S
C4590 C4596 1.368 . S
C4591 C4575 1.349 . S
C4591 H4583 0.950 . S
C4591 C4589 1.327 . S
C4592 C4580 1.349 . S
C4592 H4586 0.950 . S
C4592 C4593 1.327 . S
C4593 H4587 0.950 . S
C4593 C4592 1.327 . S
C4593 C4597 1.429 . S
C4594 C4577 1.574 . S
C4594 H4588 0.949 . S
C4594 C4598 1.368 . S
C4595 C4576 1.429 . S
C4595 C4589 1.429 . S
C4595 C4596 1.523 . S
C4596 C4577 1.368 . S
C4596 C4590 1.368 . S
C4596 C4595 1.523 . S
C4597 C4581 1.429 . S
C4597 C4593 1.429 . S
C4597 C4598 1.523 . S
C4598 C4582 1.368 . S
C4598 C4594 1.368 . S
C4598 C4597 1.523 . S
H4599 C4574 0.950 . S
H4600 C4576 0.950 . S
H4601 C4577 0.949 . S
H4602 C4579 0.950 . S
H4603 C4581 0.950 . S
C4604 C4605 1.349 . S
C4604 C4606 1.327 . S
C4604 H4629 0.950 . S
C4605 C4604 1.349 . S
C4605 C4621 1.349 . S
C4606 C4604 1.327 . S
C4606 C4625 1.429 . S
C4606 H4630 0.950 . S
C4607 C4624 1.574 . S
C4607 C4626 1.368 . S
C4607 H4631 0.949 . S
H4608 C4612 0.949 . S
C4609 C4610 1.349 . S
C4609 C4611 1.327 . S
C4609 H4632 0.950 . S
C4610 C4609 1.349 . S
C4610 C4622 1.349 . S
C4611 C4609 1.327 . S
C4611 C4627 1.429 . S
C4611 H4633 0.950 . S
C4612 H4608 0.949 . S
C4612 C4620 1.574 . S
C4612 C4628 1.368 . S
H4613 C4621 0.950 . S
H4614 C4619 0.950 . S
H4615 C4620 0.949 . S
H4616 C4622 0.950 . S
H4617 C4623 0.950 . S
H4618 C4624 0.949 . S
C4619 H4614 0.950 . S
C4619 C4621 1.327 . S
C4619 C4625 1.429 . S
C4620 C4612 1.574 . S
C4620 H4615 0.949 . S
C4620 C4626 1.368 . S
C4621 C4605 1.349 . S
C4621 H4613 0.950 . S
C4621 C4619 1.327 . S
C4622 C4610 1.349 . S
C4622 H4616 0.950 . S
C4622 C4623 1.327 . S
C4623 H4617 0.950 . S
C4623 C4622 1.327 . S
C4623 C4627 1.429 . S
C4624 C4607 1.574 . S
C4624 H4618 0.949 . S
C4624 C4628 1.368 . S
C4625 C4606 1.429 . S
C4625 C4619 1.429 . S
C4625 C4626 1.523 . S
C4626 C4607 1.368 . S
C4626 C4620 1.368 . S
C4626 C4625 1.523 . S
C4627 C4611 1.429 . S
C4627 C4623 1.429 . S
C4627 C4628 1.523 . S
C4628 C4612 1.368 . S
C4628 C4624 1.368 . S
C4628 C4627 1.523 . S
H4629 C4604 0.950 . S
H4630 C4606 0.950 . S
H4631 C4607 0.949 . S
H4632 C4609 0.950 . S
H4633 C4611 0.950 . S
C4634 C4635 1.349 . S
C4634 C4636 1.327 . S
C4634 H4659 0.950 . S
C4635 C4634 1.349 . S
C4635 C4651 1.349 . S
C4636 C4634 1.327 . S
C4636 C4655 1.429 . S
C4636 H4660 0.950 . S
C4637 C4654 1.574 . S
C4637 C4656 1.368 . S
C4637 H4661 0.949 . S
H4638 C4642 0.949 . S
C4639 C4640 1.349 . S
C4639 C4641 1.327 . S
C4639 H4662 0.950 . S
C4640 C4639 1.349 . S
C4640 C4652 1.349 . S
C4641 C4639 1.327 . S
C4641 C4657 1.429 . S
C4641 H4663 0.950 . S
C4642 H4638 0.949 . S
C4642 C4650 1.574 . S
C4642 C4658 1.368 . S
H4643 C4651 0.950 . S
H4644 C4649 0.950 . S
H4645 C4650 0.949 . S
H4646 C4652 0.950 . S
H4647 C4653 0.950 . S
H4648 C4654 0.949 . S
C4649 H4644 0.950 . S
C4649 C4651 1.327 . S
C4649 C4655 1.429 . S
C4650 C4642 1.574 . S
C4650 H4645 0.949 . S
C4650 C4656 1.368 . S
C4651 C4635 1.349 . S
C4651 H4643 0.950 . S
C4651 C4649 1.327 . S
C4652 C4640 1.349 . S
C4652 H4646 0.950 . S
C4652 C4653 1.327 . S
C4653 H4647 0.950 . S
C4653 C4652 1.327 . S
C4653 C4657 1.429 . S
C4654 C4637 1.574 . S
C4654 H4648 0.949 . S
C4654 C4658 1.368 . S
C4655 C4636 1.429 . S
C4655 C4649 1.429 . S
C4655 C4656 1.523 . S
C4656 C4637 1.368 . S
C4656 C4650 1.368 . S
C4656 C4655 1.523 . S
C4657 C4641 1.429 . S
C4657 C4653 1.429 . S
C4657 C4658 1.523 . S
C4658 C4642 1.368 . S
C4658 C4654 1.368 . S
C4658 C4657 1.523 . S
H4659 C4634 0.950 . S
H4660 C4636 0.950 . S
H4661 C4637 0.949 . S
H4662 C4639 0.950 . S
H4663 C4641 0.950 . S
C1790 C1299 1.495 . S
C1785 C21 1.556 . S
C1820 C1310 1.405 . S
C1815 C42 1.505 . S
C1845 C82 1.545 . S
C1850 C1334 1.449 . S
C1880 C1355 1.415 . S
C1875 C135 1.541 . S
C1905 C175 1.481 . S
C1910 C1362 1.396 . S
C1935 C221 1.550 . S
C1940 C1292 1.453 . S
C1965 C255 1.535 . S
C1970 C1318 1.415 . S
C2000 C1341 1.507 . S
C1995 C301 1.597 . S
C2030 C1373 1.450 . S
C2025 C15 1.546 . S
C2055 C55 1.496 . S
C2060 C1394 1.398 . S
C2085 C101 1.573 . S
C2090 C1418 1.476 . S
C2120 C1436 1.444 . S
C2115 C141 1.545 . S
C2145 C162 1.495 . S
C2150 C1465 1.409 . S
C2180 C1486 1.445 . S
C2175 C215 1.557 . S
C2205 C261 1.568 . S
C2210 C1502 1.445 . S
C2240 C1523 1.439 . S
C2235 C282 1.559 . S
C2265 C2 1.531 . S
C2270 C1444 1.449 . S
C2295 C181 1.465 . S
C2300 C1478 1.400 . S
C2330 C1509 1.495 . S
C2325 C202 1.552 . S
C2355 C242 1.558 . S
C2360 C1530 1.474 . S
C2390 C1457 1.438 . S
C2385 C295 1.540 . S
C2420 C1402 1.458 . S
C2415 C95 1.569 . S
C2445 C122 1.540 . S
C2450 C1425 1.456 . S
C2480 C1381 1.398 . S
C2475 C61 1.517 . S
C2510 C1549 1.468 . S
C2505 C341 1.555 . S
C2535 C362 1.502 . S
C2540 C1565 1.384 . S
C2565 C402 1.539 . S
C2570 C1583 1.470 . S
C2600 C1604 1.458 . S
C2595 C455 1.553 . S
C2625 C495 1.484 . S
C2630 C1612 1.378 . S
C2655 C541 1.558 . S
C2660 C1541 1.489 . S
C2685 C575 1.527 . S
C2690 C1572 1.442 . S
C2715 C621 1.591 . S
C2720 C1591 1.478 . S
C2750 C1467 1.458 . S
C2745 C335 1.542 . S
C2775 C375 1.500 . S
C2780 C1625 1.401 . S
C2810 C1499 1.490 . S
C2805 C421 1.559 . S
C2835 C461 1.553 . S
C2840 C1654 1.436 . S
C2865 C482 1.495 . S
C2870 C1376 1.403 . S
C2900 C1670 1.448 . S
C2895 C535 1.567 . S
C2925 C581 1.552 . S
C2930 C1415 1.452 . S
C2960 C1698 1.470 . S
C2955 C602 1.554 . S
C2985 C322 1.539 . S
C2990 C1646 1.466 . S
C3020 C1677 1.415 . S
C3015 C501 1.469 . S
C3045 C522 1.565 . S
C3050 C1423 1.476 . S
C3080 C1691 1.429 . S
C3075 C562 1.551 . S
C3105 C615 1.538 . S
C3110 C1383 1.450 . S
C3135 C415 1.559 . S
C3140 C1633 1.447 . S
C3165 C442 1.558 . S
C3170 C1507 1.445 . S
C3195 C381 1.524 . S
C3200 C1460 1.393 . S
C3225 C661 1.562 . S
C3230 C1586 1.467 . S
C3260 C1607 1.386 . S
C3255 C682 1.503 . S
C3285 C722 1.536 . S
C3290 C1551 1.478 . S
C3315 C775 1.544 . S
C3320 C1562 1.449 . S
C3345 C815 1.483 . S
C3350 C1570 1.376 . S
C3375 C861 1.544 . S
C3380 C1593 1.487 . S
C3410 C1614 1.444 . S
C3405 C895 1.529 . S
C3435 C941 1.601 . S
C3440 C1544 1.479 . S
C3470 C1709 1.451 . S
C3465 C655 1.548 . S
C3495 C695 1.494 . S
C3500 C1488 1.408 . S
C3530 C1730 1.492 . S
C3525 C741 1.562 . S
C3555 C781 1.553 . S
C3560 C1520 1.452 . S
C3585 C802 1.496 . S
C3590 C1754 1.402 . S
C3615 C855 1.558 . S
C3620 C1397 1.439 . S
C3650 C1775 1.433 . S
C3645 C901 1.556 . S
C3675 C922 1.557 . S
C3680 C1439 1.436 . S
C3710 C1528 1.458 . S
C3705 C642 1.540 . S
C3740 C1404 1.415 . S
C3735 C821 1.468 . S
C3765 C842 1.553 . S
C3770 C1782 1.496 . S
C3795 C882 1.548 . S
C3800 C1446 1.464 . S
C3830 C1761 1.452 . S
C3825 C935 1.540 . S
C3860 C1481 1.440 . S
C3855 C735 1.560 . S
C3890 C1738 1.438 . S
C3885 C762 1.550 . S
C3920 C1717 1.396 . S
C3915 C701 1.517 . S
C3945 C981 1.559 . S
C3950 C1331 1.485 . S
C3975 C1002 1.501 . S
C3980 C1352 1.400 . S
C4010 C1297 1.453 . S
C4005 C1042 1.540 . S
C4040 C1313 1.427 . S
C4035 C1095 1.553 . S
C4070 C1320 1.394 . S
C4065 C1135 1.479 . S
C4100 C1339 1.464 . S
C4095 C1181 1.552 . S
C4130 C1360 1.417 . S
C4125 C1215 1.537 . S
C4155 C1261 1.592 . S
C4160 C1289 1.491 . S
C4185 C975 1.546 . S
C4190 C1751 1.450 . S
C4220 C1667 1.401 . S
C4215 C1015 1.499 . S
C4250 C1772 1.496 . S
C4245 C1061 1.566 . S
C4280 C1696 1.435 . S
C4275 C1101 1.552 . S
C4305 C1122 1.491 . S
C4310 C1712 1.398 . S
C4340 C1628 1.439 . S
C4335 C1175 1.558 . S
C4370 C1733 1.440 . S
C4365 C1221 1.563 . S
C4395 C1242 1.552 . S
C4400 C1656 1.468 . S
C4430 C1688 1.463 . S
C4425 C962 1.536 . S
C4460 C1635 1.407 . S
C4455 C1141 1.461 . S
C4490 C1740 1.499 . S
C4485 C1162 1.557 . S
C4515 C1202 1.564 . S
C4520 C1649 1.442 . S
C4545 C1255 1.533 . S
C4550 C1719 1.445 . S
C4575 C1055 1.568 . S
C4580 C1675 1.457 . S
C4605 C1082 1.553 . S
C4610 C1780 1.439 . S
C4640 C1759 1.399 . S
C4635 C1021 1.519 . S
