# Generated by pormake.
# Topology tsx, (6,3)-cn, num edge types: 1
# Building blocks:
#     Node 0, Type 0, BuildingBlock: MIDCAF_clean_sbu_0, # of connection points: 6
#     Node 1, Type 0, BuildingBlock: MIDCAF_clean_sbu_0, # of connection points: 6
#     Node 2, Type 1, BuildingBlock: BELTOD_clean_linker_0, # of connection points: 3
#     Node 3, Type 1, BuildingBlock: BELTOD_clean_linker_0, # of connection points: 3
#     Node 4, Type 1, BuildingBlock: BELTOD_clean_linker_0, # of connection points: 3
#     Node 5, Type 1, BuildingBlock: BELTOD_clean_linker_0, # of connection points: 3
#     Edge 6, Type (0, 1), BuildingBlock: XIVTED_clean_linker_0, # of connection points: 2
#     Edge 7, Type (0, 1), BuildingBlock: XIVTED_clean_linker_0, # of connection points: 2
#     Edge 8, Type (0, 1), BuildingBlock: XIVTED_clean_linker_0, # of connection points: 2
#     Edge 9, Type (0, 1), BuildingBlock: XIVTED_clean_linker_0, # of connection points: 2
#     Edge 10, Type (0, 1), BuildingBlock: XIVTED_clean_linker_0, # of connection points: 2
#     Edge 11, Type (0, 1), BuildingBlock: XIVTED_clean_linker_0, # of connection points: 2
#     Edge 12, Type (0, 1), BuildingBlock: XIVTED_clean_linker_0, # of connection points: 2
#     Edge 13, Type (0, 1), BuildingBlock: XIVTED_clean_linker_0, # of connection points: 2
#     Edge 14, Type (0, 1), BuildingBlock: XIVTED_clean_linker_0, # of connection points: 2
#     Edge 15, Type (0, 1), BuildingBlock: XIVTED_clean_linker_0, # of connection points: 2
#     Edge 16, Type (0, 1), BuildingBlock: XIVTED_clean_linker_0, # of connection points: 2
#     Edge 17, Type (0, 1), BuildingBlock: XIVTED_clean_linker_0, # of connection points: 2
# Relax obj value: 0.110
# Max RMSD: 0.178
# Mean RMSD: 0.105
data_MOF--net-tsx--node1-MIDCAF_clean_sbu_0--node2-BELTOD_clean_linker_0--edge1-XIVTED_clean_linker_0
_symmetry_space_group_name_H-M    P1
_symmetry_Int_Tables_number       1
_symmetry_cell_setting            triclinic
loop_
_symmetry_equiv_pos_as_xyz
'x, y, z'
_cell_length_a     22.344546
_cell_length_b     23.093091
_cell_length_c     43.029221
_cell_angle_alpha  91.336188
_cell_angle_beta   94.891085
_cell_angle_gamma 90.488007
loop_
_atom_site_label
_atom_site_type_symbol
_atom_site_fract_x
_atom_site_fract_y
_atom_site_fract_z
_atom_type_partial_charge
Zn0 Zn 0.97661 0.89083 0.96587 0.0
Zn1 Zn 0.10674 0.92737 0.05276 0.0
Zn2 Zn 0.02956 0.91842 0.01219 0.0
C3 C 0.07693 0.0412 0.03505 0.0
C4 C 0.15035 0.8626 0.00363 0.0
O5 O 0.95221 0.86696 0.02242 0.0
O6 O 0.96144 0.8109 0.98123 0.0
C7 C 0.93145 -0.00247 0.98428 0.0
O8 O 0.04593 0.01296 0.01291 0.0
O9 O 0.10494 0.01403 0.05684 0.0
O10 O 0.16883 0.89108 0.02806 0.0
O11 O 0.0948 0.86267 0.99415 0.0
O12 O 0.9097 0.95097 0.97168 0.0
O13 O 0.98688 -0.00197 0.99549 0.0
O14 O 0.04405 0.98784 0.97906 0.0
O15 O 0.04792 0.91892 0.94312 0.0
C16 C 0.06045 0.97051 0.95238 0.0
O17 O 0.98481 0.89564 0.05347 0.0
O18 O 0.06696 0.88194 0.08431 0.0
C19 C 0.93945 0.81947 0.0071 0.0
C20 C 0.01034 0.87995 0.07973 0.0
Zn21 Zn 0.67687 0.58905 0.54807 0.0
Zn22 Zn 0.39153 0.55711 0.45883 0.0
Zn23 Zn 0.57792 0.58057 0.51772 0.0
C24 C 0.5347 0.53409 0.45521 0.0
C25 C 0.48107 0.65651 0.4923 0.0
O26 O 0.56522 0.53368 0.56047 0.0
O27 O 0.65838 0.53651 0.58222 0.0
C28 C 0.69954 0.53424 0.49223 0.0
O29 O 0.58434 0.54023 0.47221 0.0
O30 O 0.48693 0.54928 0.4676 0.0
O31 O 0.46407 0.60486 0.48405 0.0
O32 O 0.53268 0.66219 0.50757 0.0
O33 O 0.72787 0.55775 0.51595 0.0
O34 O 0.64191 0.53768 0.48848 0.0
O35 O 0.58853 0.67511 0.52491 0.0
O36 O 0.67263 0.67431 0.55592 0.0
C37 C 0.63004 0.70206 0.54221 0.0
O38 O 0.51341 0.52796 0.53994 0.0
O39 O 0.45423 0.54521 0.49838 0.0
C40 C 0.60441 0.52001 0.58264 0.0
C41 C 0.46249 0.51951 0.52442 0.0
P42 P 0.09154 0.10788 0.36455 0.0
H43 H 0.10194 0.1839 0.41982 0.0
H44 H 0.03189 0.25221 0.44111 0.0
H45 H 0.89173 0.1905 0.37258 0.0
H46 H 0.96092 0.1219 0.35217 0.0
H47 H 0.21706 0.07752 0.36313 0.0
H48 H 0.28109 0.00892 0.39205 0.0
H49 H 0.13614 0.96881 0.44862 0.0
H50 H 0.07192 0.03815 0.41932 0.0
H51 H 0.05679 0.13135 0.29948 0.0
H52 H 0.04229 0.9889 0.36154 0.0
O53 O 0.1344 0.15699 0.34887 0.0
H54 H 0.00641 0.07349 0.25682 0.0
H55 H 0.99114 0.93053 0.31885 0.0
C56 C 0.03678 0.14749 0.38458 0.0
C57 C 0.05568 0.18412 0.40998 0.0
C58 C 0.01575 0.2236 0.42185 0.0
C59 C 0.95629 0.22733 0.40831 0.0
C60 C 0.93691 0.18852 0.38379 0.0
C61 C 0.9768 0.14914 0.372 0.0
C62 C 0.14007 0.06355 0.38941 0.0
C63 C 0.19938 0.05501 0.38222 0.0
C64 C 0.23607 0.01579 0.39885 0.0
C65 C 0.21384 0.98355 0.42274 0.0
C66 C 0.15449 0.99288 0.43026 0.0
C67 C 0.1179 0.03269 0.41372 0.0
C68 C 0.05493 0.06383 0.3334 0.0
C69 C 0.04288 0.08748 0.3039 0.0
C70 C 0.01316 0.05459 0.27963 0.0
C71 C 0.99454 -0.00262 0.28446 0.0
C72 C 0.00537 0.97427 0.31435 0.0
C73 C 0.03491 0.00748 0.33871 0.0
P74 P 0.05525 0.08725 0.63704 0.0
H75 H 0.0172 0.01937 0.58132 0.0
H76 H 0.91907 0.98654 0.55852 0.0
H77 H 0.83386 0.09651 0.62407 0.0
H78 H 0.93312 0.1291 0.64693 0.0
H79 H 0.17232 0.08388 0.61189 0.0
H80 H 0.2353 0.15803 0.59162 0.0
H81 H 0.09637 0.28438 0.60181 0.0
H82 H 0.03259 0.20893 0.6219 0.0
H83 H 0.97958 0.04484 0.68392 0.0
H84 H 0.12892 0.16358 0.68089 0.0
O85 O 0.09157 0.02451 0.63565 0.0
H86 H 0.98667 0.05493 0.74068 0.0
H87 H 0.13648 0.1735 0.73774 0.0
C88 C 0.9824 0.07507 0.61645 0.0
C89 C 0.97741 0.0373 0.59042 0.0
C90 C 0.92103 0.01891 0.57721 0.0
C91 C 0.86835 0.03823 0.58972 0.0
C92 C 0.87354 0.07996 0.61425 0.0
C93 C 0.93023 0.09862 0.62735 0.0
C94 C 0.09768 0.14091 0.61832 0.0
C95 C 0.15483 0.12724 0.60942 0.0
C96 C 0.19111 0.16988 0.59803 0.0
C97 C 0.17113 0.22725 0.59545 0.0
C98 C 0.11288 0.24049 0.60338 0.0
C99 C 0.07647 0.19756 0.61488 0.0
C100 C 0.05243 0.10478 0.67796 0.0
C101 C 0.01251 0.0747 0.69534 0.0
C102 C 0.01672 0.08044 0.72786 0.0
C103 C 0.06198 0.11529 0.74372 0.0
C104 C 0.10114 0.14637 0.7262 0.0
C105 C 0.09648 0.14104 0.69362 0.0
P106 P 0.65499 0.53635 0.90473 0.0
H107 H 0.63918 0.62669 0.95162 0.0
H108 H 0.55036 0.67803 0.96644 0.0
H109 H 0.43772 0.5661 0.90371 0.0
H110 H 0.52642 0.51374 0.88999 0.0
H111 H 0.77502 0.49642 0.92403 0.0
H112 H 0.81147 0.40742 0.9479 0.0
H113 H 0.62869 0.35413 0.95887 0.0
H114 H 0.59242 0.44358 0.93456 0.0
H115 H 0.61668 0.60075 0.8499 0.0
H116 H 0.65065 0.422 0.87189 0.0
O117 O 0.70882 0.58706 0.90563 0.0
H118 H 0.58649 0.5721 0.79584 0.0
H119 H 0.61979 0.39298 0.81794 0.0
C120 C 0.58934 0.56772 0.91909 0.0
C121 C 0.59526 0.61289 0.94137 0.0
C122 C 0.54452 0.64237 0.94963 0.0
C123 C 0.48713 0.62699 0.93566 0.0
C124 C 0.48121 0.57911 0.91483 0.0
C125 C 0.53199 0.54945 0.90678 0.0
C126 C 0.68118 0.47676 0.92792 0.0
C127 C 0.74286 0.46635 0.93231 0.0
C128 C 0.76363 0.41546 0.94607 0.0
C129 C 0.7229 0.37379 0.9553 0.0
C130 C 0.66104 0.38535 0.95184 0.0
C131 C 0.64033 0.43656 0.93819 0.0
C132 C 0.63647 0.51374 0.8648 0.0
C133 C 0.61771 0.55535 0.84305 0.0
C134 C 0.59967 0.53878 0.81229 0.0
C135 C 0.60017 0.48016 0.80272 0.0
C136 C 0.61907 0.43846 0.82463 0.0
C137 C 0.63686 0.45511 0.8555 0.0
P138 P 0.53447 0.38979 0.12178 0.0
H139 H 0.49322 0.30904 0.07157 0.0
H140 H 0.39414 0.28509 0.04647 0.0
H141 H 0.31777 0.42393 0.09895 0.0
H142 H 0.41779 0.44704 0.12443 0.0
H143 H 0.64165 0.38444 0.08734 0.0
H144 H 0.70242 0.45903 0.06559 0.0
H145 H 0.57766 0.58943 0.09231 0.0
H146 H 0.51719 0.51413 0.11445 0.0
H147 H 0.45236 0.35303 0.16719 0.0
H148 H 0.60583 0.4672 0.16574 0.0
O149 O 0.57203 0.32764 0.12156 0.0
H150 H 0.44894 0.37389 0.22302 0.0
H151 H 0.60174 0.48943 0.22109 0.0
C152 C 0.46231 0.37839 0.1006 0.0
C153 C 0.45526 0.33467 0.07748 0.0
C154 C 0.39852 0.32155 0.06281 0.0
C155 C 0.34771 0.3523 0.07085 0.0
C156 C 0.35578 0.39884 0.09258 0.0
C157 C 0.41282 0.41203 0.1072 0.0
C158 C 0.57537 0.444 0.10279 0.0
C159 C 0.62703 0.42897 0.08831 0.0
C160 C 0.66158 0.47168 0.07569 0.0
C161 C 0.64502 0.53021 0.07738 0.0
C162 C 0.592 0.54482 0.09104 0.0
C163 C 0.55726 0.50191 0.10351 0.0
C164 C 0.52816 0.40989 0.16206 0.0
C165 C 0.48447 0.38357 0.17872 0.0
C166 C 0.48257 0.39556 0.21064 0.0
C167 C 0.52498 0.43347 0.22655 0.0
C168 C 0.56873 0.45962 0.20968 0.0
C169 C 0.57061 0.44753 0.17783 0.0
H170 H 0.10128 0.10599 0.98514 0.0
H171 H 0.24897 0.34399 0.10408 0.0
H172 H 0.07746 0.11829 0.08337 0.0
H173 H 0.30717 0.30951 0.0124 0.0
H174 H 0.15876 0.28616 0.08991 0.0
H175 H 0.14844 0.20273 0.9886 0.0
C176 C 0.10388 0.13005 0.00712 0.0
C177 C 0.0866 0.10417 0.03414 0.0
C178 C 0.19062 0.29224 0.07263 0.0
C179 C 0.14057 0.21372 0.03839 0.0
C180 C 0.24209 0.32574 0.08062 0.0
C181 C 0.28664 0.33043 0.05968 0.0
C182 C 0.18384 0.26271 0.04361 0.0
C183 C 0.27491 0.30549 0.02964 0.0
C184 C 0.13118 0.18496 0.00917 0.0
C185 C 0.09119 0.13669 0.06214 0.0
N186 N 0.22525 0.27164 0.02271 0.0
N187 N 0.11856 0.18942 0.06365 0.0
H188 H 0.13473 0.75927 0.97074 0.0
H189 H 0.48231 0.74479 0.94016 0.0
H190 H 0.26598 0.89261 -0.00116 0.0
H191 H 0.37144 0.59127 0.94329 0.0
H192 H 0.39646 0.80389 0.95087 0.0
H193 H 0.21463 0.70154 0.94929 0.0
C194 C 0.18007 0.77665 0.9719 0.0
C195 C 0.19429 0.83019 0.98684 0.0
C196 C 0.39086 0.75725 0.94916 0.0
C197 C 0.28474 0.7654 0.96249 0.0
C198 C 0.43999 0.72343 0.94333 0.0
C199 C 0.4344 0.66288 0.94146 0.0
C200 C 0.33546 0.73055 0.95304 0.0
C201 C 0.37777 0.6378 0.94463 0.0
C202 C 0.22549 0.74372 0.9599 0.0
C203 C 0.25349 0.85105 0.98788 0.0
N204 N 0.33042 0.67179 0.95048 0.0
N205 N 0.29655 0.81855 0.97597 0.0
H206 H 0.90754 0.71419 0.98044 0.0
H207 H 0.67688 0.63485 0.10562 0.0
H208 H 0.8743 0.82685 0.05846 0.0
H209 H 0.70415 0.52905 0.02409 0.0
H210 H 0.74806 0.70626 0.08883 0.0
H211 H 0.83392 0.64556 0.99681 0.0
C212 C 0.88499 0.72443 0.00116 0.0
C213 C 0.8973 0.77639 0.01816 0.0
C214 C 0.73828 0.66753 0.07456 0.0
C215 C 0.8124 0.69779 0.03699 0.0
C216 C 0.69729 0.62695 0.08399 0.0
C217 C 0.68469 0.57578 0.06628 0.0
C218 C 0.76693 0.65686 0.04723 0.0
C219 C 0.71317 0.56745 0.03871 0.0
C220 C 0.84274 0.68519 0.01044 0.0
C221 C 0.86654 0.7872 0.04478 0.0
N222 N 0.75305 0.60747 0.0301 0.0
N223 N 0.82542 0.74822 0.05337 0.0
H224 H 0.96376 0.10176 0.01209 0.0
H225 H 0.67599 0.26695 0.93788 0.0
H226 H 0.81898 0.01617 0.95551 0.0
H227 H 0.82116 0.35016 0.99531 0.0
H228 H 0.72176 0.17306 0.94865 0.0
H229 H 0.90767 0.19139 0.00982 0.0
C230 C 0.92018 0.10176 -0.00087 0.0
C231 C 0.89646 0.05149 0.98363 0.0
C232 C 0.74326 0.21179 0.95918 0.0
C233 C 0.8314 0.1543 0.9811 0.0
C234 C 0.71687 0.26538 0.95327 0.0
C235 C 0.74512 0.31648 0.96552 0.0
C236 C 0.79835 0.20935 0.97738 0.0
C237 C 0.79843 0.3119 0.98498 0.0
C238 C 0.88793 0.15304 -0.00203 0.0
C239 C 0.83919 0.05404 0.96762 0.0
N240 N 0.82359 0.25932 0.99007 0.0
N241 N 0.80872 0.10477 0.96658 0.0
H242 H 0.63779 0.78197 0.49692 0.0
H243 H 0.78124 0.00445 0.62678 0.0
H244 H 0.63176 0.76463 0.59602 0.0
H245 H 0.82265 0.00316 0.5306 0.0
H246 H 0.69841 0.93702 0.61266 0.0
H247 H 0.6767 0.88144 0.50609 0.0
C248 C 0.64222 0.8001 0.52046 0.0
C249 C 0.63184 0.76549 0.54581 0.0
C250 C 0.72485 0.95235 0.5945 0.0
C251 C 0.67723 0.87789 0.55655 0.0
C252 C 0.77199 0.99136 0.6025 0.0
C253 C 0.80994 0.00874 0.57997 0.0
C254 C 0.71563 0.93011 0.56378 0.0
C255 C 0.79561 0.98972 0.54891 0.0
C256 C 0.66501 0.8565 0.52574 0.0
C257 C 0.63934 0.79023 0.57592 0.0
N258 N 0.7503 0.95064 0.54182 0.0
N259 N 0.66233 0.84464 0.58051 0.0
H260 H 0.81589 0.54621 0.47923 0.0
H261 H 0.83495 0.22068 0.41495 0.0
H262 H 0.66038 0.43494 0.46055 0.0
H263 H 0.98504 0.34064 0.42341 0.0
H264 H 0.76916 0.29927 0.42926 0.0
H265 H 0.87701 0.47333 0.45535 0.0
C266 C 0.79441 0.50683 0.46947 0.0
C267 C 0.73304 0.49656 0.47181 0.0
C268 C 0.81646 0.30839 0.42789 0.0
C269 C 0.80301 0.4121 0.44521 0.0
C270 C 0.8541 0.26353 0.41972 0.0
C271 C 0.91583 0.27385 0.41818 0.0
C272 C 0.84068 0.36403 0.43466 0.0
C273 C 0.93808 0.33022 0.42492 0.0
C274 C 0.82936 0.46506 0.45599 0.0
C275 C 0.70747 0.44475 0.45894 0.0
N276 N 0.90061 0.37302 0.43292 0.0
N277 N 0.74276 0.40402 0.44654 0.0
H278 H 0.34312 0.50823 0.50365 0.0
H279 H 0.28954 0.243 0.61504 0.0
H280 H 0.47861 0.4392 0.56966 0.0
H281 H 0.14708 0.31609 0.55466 0.0
H282 H 0.35873 0.31567 0.59838 0.0
H283 H 0.26997 0.43934 0.52155 0.0
C284 C 0.3574 0.47883 0.52201 0.0
C285 C 0.41693 0.47983 0.53542 0.0
C286 C 0.31237 0.31606 0.58873 0.0
C287 C 0.33375 0.40094 0.5559 0.0
C288 C 0.27285 0.27427 0.59811 0.0
C289 C 0.21252 0.27306 0.58598 0.0
C290 C 0.29174 0.35719 0.56691 0.0
C291 C 0.19319 0.31556 0.56466 0.0
C292 C 0.31563 0.43963 0.53225 0.0
C293 C 0.43301 0.44077 0.55908 0.0
N294 N 0.23279 0.35575 0.55563 0.0
N295 N 0.39179 0.40292 0.56848 0.0
H296 H 0.51069 0.7723 0.49695 0.0
H297 H 0.17965 0.87346 0.43618 0.0
H298 H 0.3625 0.65509 0.47098 0.0
H299 H 0.3337 0.98845 0.44331 0.0
H300 H 0.244 0.79526 0.45605 0.0
H301 H 0.44477 0.8541 0.48362 0.0
C302 C 0.46437 0.76376 0.48847 0.0
C303 C 0.44227 0.70672 0.48472 0.0
C304 C 0.26372 0.83768 0.45345 0.0
C305 C 0.36657 0.7999 0.46977 0.0
C306 C 0.22685 0.88252 0.44239 0.0
C307 C 0.25133 0.93757 0.43794 0.0
C308 C 0.32559 0.84786 0.46028 0.0
C309 C 0.31308 0.94647 0.44599 0.0
C310 C 0.42679 0.81042 0.48086 0.0
C311 C 0.38177 0.69819 0.4738 0.0
N312 N 0.34813 0.90206 0.45667 0.0
N313 N 0.34612 0.74418 0.46673 0.0
H314 H 0.90691 0.9321 0.09446 0.0
H315 H 0.01956 0.88438 0.2703 0.0
H316 H 0.03764 0.80634 0.12709 0.0
H317 H 0.91121 0.02772 0.23715 0.0
H318 H 0.99506 0.83353 0.22046 0.0
H319 H 0.87652 0.94326 0.14762 0.0
C320 C 0.92736 0.90498 0.11255 0.0
C321 C 0.97586 0.8694 0.10673 0.0
C322 C 0.97551 0.87558 0.22431 0.0
C323 C 0.94251 0.88276 0.16739 0.0
C324 C 0.98927 0.90457 0.25287 0.0
C325 C 0.96878 0.96111 0.25757 0.0
C326 C 0.94154 0.90356 0.20019 0.0
C327 C 0.9296 0.98494 0.2341 0.0
C328 C 0.91046 0.91177 0.14296 0.0
C329 C 0.00089 0.83521 0.1309 0.0
N330 N 0.91826 0.95658 0.20618 0.0
N331 N 0.98491 0.8437 0.16036 0.0
H332 H 0.15082 0.95652 0.91494 0.0
H333 H 0.1686 0.1047 0.77935 0.0
H334 H 0.0099 0.07355 0.93597 0.0
H335 H 0.9782 0.12189 0.78683 0.0
H336 H 0.18264 0.08681 0.83528 0.0
H337 H 0.16286 0.00826 0.867 0.0
C338 C 0.12403 0.99462 0.90994 0.0
C339 C 0.07971 0.01123 0.92937 0.0
C340 C 0.13787 0.09491 0.82471 0.0
C341 C 0.09189 0.06981 0.87423 0.0
C342 C 0.12985 0.10577 0.79285 0.0
C343 C 0.07195 0.11389 0.77829 0.0
C344 C 0.08763 0.09209 0.84214 0.0
C345 C 0.02343 0.11463 0.797 0.0
C346 C 0.13088 0.02424 0.88259 0.0
C347 C 0.0451 0.06002 0.92166 0.0
N348 N 0.03229 0.10335 0.82793 0.0
N349 N 0.05075 0.08671 0.89416 0.0
H350 H 0.49925 0.52924 0.61051 0.0
H351 H 0.65841 0.40385 0.7665 0.0
H352 H 0.67091 0.44447 0.61807 0.0
H353 H 0.50716 0.51919 0.76324 0.0
H354 H 0.64391 0.39129 0.70988 0.0
H355 H 0.48293 0.49858 0.66336 0.0
C356 C 0.53262 0.50268 0.62296 0.0
C357 C 0.58691 0.49007 0.61031 0.0
C358 C 0.6132 0.41854 0.7216 0.0
C359 C 0.56909 0.45573 0.67052 0.0
C360 C 0.62127 0.4255 0.75396 0.0
C361 C 0.5848 0.46372 0.76949 0.0
C362 C 0.5686 0.45027 0.70468 0.0
C363 C 0.53738 0.49064 0.75202 0.0
C364 C 0.52349 0.48552 0.65313 0.0
C365 C 0.62886 0.45582 0.62732 0.0
N366 N 0.53123 0.48417 0.72046 0.0
N367 N 0.61947 0.44053 0.65675 0.0
H368 H 0.62989 0.51719 0.42039 0.0
H369 H 0.42787 0.44912 0.26098 0.0
H370 H 0.43634 0.50742 0.41457 0.0
H371 H 0.62161 0.44305 0.27015 0.0
H372 H 0.42933 0.46916 0.31714 0.0
H373 H 0.62723 0.48859 0.36545 0.0
C374 C 0.58681 0.50824 0.40768 0.0
C375 C 0.5333 0.51421 0.42223 0.0
C376 C 0.47149 0.46332 0.30684 0.0
C377 C 0.52974 0.48268 0.35889 0.0
C378 C 0.47069 0.45163 0.27479 0.0
C379 C 0.52472 0.44474 0.26072 0.0
C380 C 0.52671 0.46822 0.32498 0.0
C381 C 0.57887 0.44914 0.2798 0.0
C382 C 0.58527 0.49229 0.37618 0.0
C383 C 0.4787 0.50338 0.40431 0.0
N384 N 0.57845 0.46072 0.31086 0.0
N385 N 0.47829 0.48833 0.37354 0.0
loop_
_geom_bond_atom_site_label_1
_geom_bond_atom_site_label_2
_geom_bond_distance
_geom_bond_site_symmetry_2
_ccdc_geom_bond_type
Zn0 O6 1.920 1_545 S
Zn0 O12 1.898 . S
Zn0 O15 1.905 1_545 S
Zn1 O9 1.905 . S
Zn1 O10 1.898 1_545 S
Zn1 O18 1.920 1_545 S
Zn2 O5 2.080 1_445 S
Zn2 O8 2.114 . S
Zn2 O11 2.120 1_545 S
Zn2 O13 2.120 1_455 S
Zn2 O14 2.114 1_554 S
Zn2 O17 2.080 . S
C3 O8 1.166 . S
C3 O9 1.182 . S
C4 O10 1.167 . S
C4 O11 1.299 . S
O5 Zn2 2.080 1_665 S
O5 C19 1.305 . S
O6 Zn0 1.920 1_565 S
O6 C19 1.234 1_556 S
C7 O12 1.167 . S
C7 O13 1.299 1_556 S
O8 Zn2 2.114 . S
O8 C3 1.166 . S
O9 Zn1 1.905 . S
O9 C3 1.182 . S
O10 Zn1 1.898 1_565 S
O10 C4 1.167 . S
O11 Zn2 2.120 1_565 S
O11 C4 1.299 . S
O12 Zn0 1.898 . S
O12 C7 1.167 . S
O13 Zn2 2.120 1_655 S
O13 C7 1.299 1_554 S
O14 Zn2 2.114 1_556 S
O14 C16 1.166 1_545 S
O15 Zn0 1.905 1_565 S
O15 C16 1.182 1_655 S
C16 O14 1.166 1_565 S
C16 O15 1.182 1_455 S
O17 Zn2 2.080 . S
O17 C20 1.305 1_545 S
O18 Zn1 1.920 1_565 S
O18 C20 1.234 . S
C19 O5 1.305 . S
C19 O6 1.234 1_554 S
C20 O17 1.305 1_565 S
C20 O18 1.234 . S
Zn21 O27 1.920 . S
Zn21 O33 1.898 . S
Zn21 O36 1.905 . S
Zn22 O30 1.905 . S
Zn22 O31 1.898 . S
Zn22 O39 1.920 . S
Zn23 O26 2.080 . S
Zn23 O29 2.114 . S
Zn23 O32 2.120 . S
Zn23 O34 2.120 . S
Zn23 O35 2.114 . S
Zn23 O38 2.080 . S
C24 O29 1.166 . S
C24 O30 1.182 . S
C25 O31 1.167 . S
C25 O32 1.299 . S
O26 Zn23 2.080 . S
O26 C40 1.305 . S
O27 Zn21 1.920 . S
O27 C40 1.234 . S
C28 O33 1.167 . S
C28 O34 1.299 . S
O29 Zn23 2.114 . S
O29 C24 1.166 . S
O30 Zn22 1.905 . S
O30 C24 1.182 . S
O31 Zn22 1.898 . S
O31 C25 1.167 . S
O32 Zn23 2.120 . S
O32 C25 1.299 . S
O33 Zn21 1.898 . S
O33 C28 1.167 . S
O34 Zn23 2.120 . S
O34 C28 1.299 . S
O35 Zn23 2.114 . S
O35 C37 1.166 . S
O36 Zn21 1.905 . S
O36 C37 1.182 . S
C37 O35 1.166 . S
C37 O36 1.182 . S
O38 Zn23 2.080 . S
O38 C41 1.305 . S
O39 Zn22 1.920 . S
O39 C41 1.234 . S
C40 O26 1.305 . S
C40 O27 1.234 . S
C41 O38 1.305 . S
C41 O39 1.234 . S
P42 O53 1.490 . S
P42 C56 1.812 . S
P42 C62 1.803 . S
P42 C68 1.819 . S
H43 C57 0.941 . S
H44 C58 0.939 . S
H45 C60 0.940 . S
H46 C61 0.940 . S
H47 C63 0.939 . S
H48 C64 0.942 . S
H49 C66 0.940 . S
H50 C67 0.939 . S
H51 C69 0.941 . S
H52 C73 0.939 1_565 S
O53 P42 1.490 . S
H54 C70 0.939 . S
H55 C72 0.940 1_565 S
C56 P42 1.812 . S
C56 C57 1.389 . S
C56 C61 1.391 . S
C57 H43 0.941 . S
C57 C56 1.389 . S
C57 C58 1.397 . S
C58 H44 0.939 . S
C58 C57 1.397 . S
C58 C59 1.378 1_455 S
C59 C58 1.378 1_655 S
C59 C60 1.378 . S
C60 H45 0.940 . S
C60 C59 1.378 . S
C60 C61 1.396 1_655 S
C61 H46 0.940 . S
C61 C56 1.391 . S
C61 C60 1.396 1_455 S
C62 P42 1.803 . S
C62 C63 1.378 . S
C62 C67 1.400 1_545 S
C63 H47 0.939 . S
C63 C62 1.378 . S
C63 C64 1.361 1_545 S
C64 H48 0.942 . S
C64 C63 1.361 1_565 S
C64 C65 1.369 . S
C65 C64 1.369 . S
C65 C66 1.404 . S
C66 H49 0.940 . S
C66 C65 1.404 . S
C66 C67 1.389 . S
C67 H50 0.939 . S
C67 C62 1.400 1_565 S
C67 C66 1.389 . S
C68 P42 1.819 . S
C68 C69 1.391 . S
C68 C73 1.391 . S
C69 H51 0.941 . S
C69 C68 1.391 . S
C69 C70 1.396 . S
C70 H54 0.939 . S
C70 C69 1.396 . S
C70 C71 1.397 . S
C71 C70 1.397 . S
C71 C72 1.385 . S
C72 H55 0.940 1_545 S
C72 C71 1.385 . S
C72 C73 1.388 . S
C73 H52 0.939 1_545 S
C73 C68 1.391 . S
C73 C72 1.388 . S
P74 O85 1.490 . S
P74 C88 1.812 1_455 S
P74 C94 1.803 1_565 S
P74 C100 1.819 . S
H75 C89 0.941 1_455 S
H76 C90 0.939 . S
H77 C92 0.940 . S
H78 C93 0.939 . S
H79 C95 0.939 . S
H80 C96 0.942 . S
H81 C98 0.940 . S
H82 C99 0.939 . S
H83 C101 0.941 . S
H84 C105 0.939 . S
O85 P74 1.490 . S
H86 C102 0.939 . S
H87 C104 0.940 . S
C88 P74 1.812 1_655 S
C88 C89 1.389 . S
C88 C93 1.391 . S
C89 H75 0.941 1_655 S
C89 C88 1.389 . S
C89 C90 1.397 . S
C90 H76 0.939 . S
C90 C89 1.397 . S
C90 C91 1.378 . S
C91 C90 1.378 . S
C91 C92 1.378 . S
C92 H77 0.940 . S
C92 C91 1.378 . S
C92 C93 1.396 . S
C93 H78 0.939 . S
C93 C88 1.391 . S
C93 C92 1.396 . S
C94 P74 1.803 1_545 S
C94 C95 1.378 . S
C94 C99 1.400 . S
C95 H79 0.939 . S
C95 C94 1.378 . S
C95 C96 1.361 . S
C96 H80 0.942 . S
C96 C95 1.361 . S
C96 C97 1.369 . S
C97 C96 1.369 . S
C97 C98 1.404 . S
C98 H81 0.940 . S
C98 C97 1.404 . S
C98 C99 1.389 . S
C99 H82 0.939 . S
C99 C94 1.400 . S
C99 C98 1.389 . S
C100 P74 1.819 . S
C100 C101 1.391 . S
C100 C105 1.391 1_565 S
C101 H83 0.941 . S
C101 C100 1.391 . S
C101 C102 1.396 . S
C102 H86 0.939 . S
C102 C101 1.396 . S
C102 C103 1.397 1_565 S
C103 C102 1.397 1_545 S
C103 C104 1.385 . S
C104 H87 0.940 . S
C104 C103 1.385 . S
C104 C105 1.388 . S
C105 H84 0.939 . S
C105 C100 1.391 1_545 S
C105 C104 1.388 . S
P106 O117 1.490 . S
P106 C120 1.812 . S
P106 C126 1.803 . S
P106 C132 1.819 . S
H107 C121 0.941 . S
H108 C122 0.939 . S
H109 C124 0.940 . S
H110 C125 0.940 . S
H111 C127 0.939 . S
H112 C128 0.942 . S
H113 C130 0.940 . S
H114 C131 0.939 . S
H115 C133 0.941 . S
H116 C137 0.939 . S
O117 P106 1.490 . S
H118 C134 0.939 . S
H119 C136 0.940 . S
C120 P106 1.812 . S
C120 C121 1.389 . S
C120 C125 1.391 . S
C121 H107 0.941 . S
C121 C120 1.389 . S
C121 C122 1.397 . S
C122 H108 0.939 . S
C122 C121 1.397 . S
C122 C123 1.378 . S
C123 C122 1.378 . S
C123 C124 1.378 . S
C124 H109 0.940 . S
C124 C123 1.378 . S
C124 C125 1.396 . S
C125 H110 0.940 . S
C125 C120 1.391 . S
C125 C124 1.396 . S
C126 P106 1.803 . S
C126 C127 1.378 . S
C126 C131 1.400 . S
C127 H111 0.939 . S
C127 C126 1.378 . S
C127 C128 1.361 . S
C128 H112 0.942 . S
C128 C127 1.361 . S
C128 C129 1.369 . S
C129 C128 1.369 . S
C129 C130 1.404 . S
C130 H113 0.940 . S
C130 C129 1.404 . S
C130 C131 1.389 . S
C131 H114 0.939 . S
C131 C126 1.400 . S
C131 C130 1.389 . S
C132 P106 1.819 . S
C132 C133 1.391 . S
C132 C137 1.391 . S
C133 H115 0.941 . S
C133 C132 1.391 . S
C133 C134 1.396 . S
C134 H118 0.939 . S
C134 C133 1.396 . S
C134 C135 1.397 . S
C135 C134 1.397 . S
C135 C136 1.385 . S
C136 H119 0.940 . S
C136 C135 1.385 . S
C136 C137 1.388 . S
C137 H116 0.939 . S
C137 C132 1.391 . S
C137 C136 1.388 . S
P138 O149 1.490 . S
P138 C152 1.812 . S
P138 C158 1.803 . S
P138 C164 1.819 . S
H139 C153 0.941 . S
H140 C154 0.939 . S
H141 C156 0.940 . S
H142 C157 0.940 . S
H143 C159 0.939 . S
H144 C160 0.942 . S
H145 C162 0.940 . S
H146 C163 0.939 . S
H147 C165 0.941 . S
H148 C169 0.939 . S
O149 P138 1.490 . S
H150 C166 0.939 . S
H151 C168 0.940 . S
C152 P138 1.812 . S
C152 C153 1.389 . S
C152 C157 1.391 . S
C153 H139 0.941 . S
C153 C152 1.389 . S
C153 C154 1.397 . S
C154 H140 0.939 . S
C154 C153 1.397 . S
C154 C155 1.378 . S
C155 C154 1.378 . S
C155 C156 1.378 . S
C156 H141 0.940 . S
C156 C155 1.378 . S
C156 C157 1.396 . S
C157 H142 0.940 . S
C157 C152 1.391 . S
C157 C156 1.396 . S
C158 P138 1.803 . S
C158 C159 1.378 . S
C158 C163 1.400 . S
C159 H143 0.939 . S
C159 C158 1.378 . S
C159 C160 1.361 . S
C160 H144 0.942 . S
C160 C159 1.361 . S
C160 C161 1.369 . S
C161 C160 1.369 . S
C161 C162 1.404 . S
C162 H145 0.940 . S
C162 C161 1.404 . S
C162 C163 1.389 . S
C163 H146 0.939 . S
C163 C158 1.400 . S
C163 C162 1.389 . S
C164 P138 1.819 . S
C164 C165 1.391 . S
C164 C169 1.391 . S
C165 H147 0.941 . S
C165 C164 1.391 . S
C165 C166 1.396 . S
C166 H150 0.939 . S
C166 C165 1.396 . S
C166 C167 1.397 . S
C167 C166 1.397 . S
C167 C168 1.385 . S
C168 H151 0.940 . S
C168 C167 1.385 . S
C168 C169 1.388 . S
C169 H148 0.939 . S
C169 C164 1.391 . S
C169 C168 1.388 . S
H170 C176 0.930 1_556 S
H171 C180 0.930 . S
H172 C185 0.929 . S
H173 C183 0.929 . S
H174 C178 0.929 . S
H175 C184 0.929 . S
C176 H170 0.930 1_554 S
C176 C177 1.367 . S
C176 C184 1.378 . S
C177 C176 1.367 . S
C177 C185 1.433 . S
C178 H174 0.929 . S
C178 C180 1.378 . S
C178 C182 1.350 . S
C179 C182 1.463 . S
C179 C184 1.350 . S
C179 N187 1.427 . S
C180 H171 0.930 . S
C180 C178 1.378 . S
C180 C181 1.367 . S
C181 C180 1.367 . S
C181 C183 1.433 . S
C182 C178 1.350 . S
C182 C179 1.463 . S
C182 N186 1.427 . S
C183 H173 0.929 . S
C183 C181 1.433 . S
C183 N186 1.384 . S
C184 H175 0.929 . S
C184 C176 1.378 . S
C184 C179 1.350 . S
C185 H172 0.929 . S
C185 C177 1.433 . S
C185 N187 1.384 . S
N186 C182 1.427 . S
N186 C183 1.384 . S
N187 C179 1.427 . S
N187 C185 1.384 . S
H188 C194 0.930 . S
H189 C198 0.930 . S
H190 C203 0.929 . S
H191 C201 0.929 . S
H192 C196 0.929 . S
H193 C202 0.920 1_554 S
C194 H188 0.930 . S
C194 C195 1.367 1_554 S
C194 C202 1.373 1_554 S
C195 C194 1.367 1_556 S
C195 C203 1.433 . S
C196 H192 0.929 . S
C196 C198 1.378 . S
C196 C200 1.350 . S
C197 C200 1.463 . S
C197 C202 1.365 . S
C197 N205 1.427 . S
C198 H189 0.930 . S
C198 C196 1.378 . S
C198 C199 1.367 . S
C199 C198 1.367 . S
C199 C201 1.433 . S
C200 C196 1.350 . S
C200 C197 1.463 . S
C200 N204 1.427 . S
C201 H191 0.929 . S
C201 C199 1.433 . S
C201 N204 1.384 . S
C202 H193 0.920 1_556 S
C202 C194 1.373 1_556 S
C202 C197 1.365 . S
C203 H190 0.929 . S
C203 C195 1.433 . S
C203 N205 1.384 . S
N204 C200 1.427 . S
N204 C201 1.384 . S
N205 C197 1.427 . S
N205 C203 1.384 . S
H206 C212 0.930 1_556 S
H207 C216 0.930 . S
H208 C221 0.929 . S
H209 C219 0.929 . S
H210 C214 0.929 . S
H211 C220 0.929 . S
C212 H206 0.930 1_554 S
C212 C213 1.367 . S
C212 C220 1.378 . S
C213 C212 1.367 . S
C213 C221 1.433 . S
C214 H210 0.929 . S
C214 C216 1.378 . S
C214 C218 1.350 . S
C215 C218 1.463 . S
C215 C220 1.350 . S
C215 N223 1.427 . S
C216 H207 0.930 . S
C216 C214 1.378 . S
C216 C217 1.367 . S
C217 C216 1.367 . S
C217 C219 1.433 . S
C218 C214 1.350 . S
C218 C215 1.463 . S
C218 N222 1.427 . S
C219 H209 0.929 . S
C219 C217 1.433 . S
C219 N222 1.384 . S
C220 H211 0.929 . S
C220 C212 1.378 . S
C220 C215 1.350 . S
C221 H208 0.929 . S
C221 C213 1.433 . S
C221 N223 1.384 . S
N222 C218 1.427 . S
N222 C219 1.384 . S
N223 C215 1.427 . S
N223 C221 1.384 . S
H224 C230 0.930 . S
H225 C234 0.930 . S
H226 C239 0.929 . S
H227 C237 0.929 1_554 S
H228 C232 0.929 . S
H229 C238 0.929 . S
C230 H224 0.930 . S
C230 C231 1.347 1_554 S
C230 C238 1.378 . S
C231 C230 1.347 1_556 S
C231 C239 1.458 . S
C232 H228 0.929 . S
C232 C234 1.378 . S
C232 C236 1.350 . S
C233 C236 1.463 . S
C233 C238 1.350 1_556 S
C233 N241 1.427 . S
C234 H225 0.930 . S
C234 C232 1.378 . S
C234 C235 1.367 . S
C235 C234 1.367 . S
C235 C237 1.433 . S
C236 C232 1.350 . S
C236 C233 1.463 . S
C236 N240 1.427 1_556 S
C237 H227 0.929 1_556 S
C237 C235 1.433 . S
C237 N240 1.384 1_556 S
C238 H229 0.929 . S
C238 C230 1.378 . S
C238 C233 1.350 1_554 S
C239 H226 0.929 . S
C239 C231 1.458 . S
C239 N241 1.384 . S
N240 C236 1.427 1_554 S
N240 C237 1.384 1_554 S
N241 C233 1.427 . S
N241 C239 1.384 . S
H242 C248 0.930 . S
H243 C252 0.930 . S
H244 C257 0.929 . S
H245 C255 0.929 . S
H246 C250 0.929 . S
H247 C256 0.929 . S
C248 H242 0.930 . S
C248 C249 1.367 . S
C248 C256 1.378 . S
C249 C248 1.367 . S
C249 C257 1.433 . S
C250 H246 0.929 . S
C250 C252 1.378 . S
C250 C254 1.350 . S
C251 C254 1.463 . S
C251 C256 1.350 . S
C251 N259 1.427 . S
C252 H243 0.930 . S
C252 C250 1.378 . S
C252 C253 1.367 . S
C253 C252 1.367 . S
C253 C255 1.433 . S
C254 C250 1.350 . S
C254 C251 1.463 . S
C254 N258 1.427 . S
C255 H245 0.929 . S
C255 C253 1.433 . S
C255 N258 1.384 . S
C256 H247 0.929 . S
C256 C248 1.378 . S
C256 C251 1.350 . S
C257 H244 0.929 . S
C257 C249 1.433 . S
C257 N259 1.384 . S
N258 C254 1.427 . S
N258 C255 1.384 . S
N259 C251 1.427 . S
N259 C257 1.384 . S
H260 C266 0.930 . S
H261 C270 0.930 . S
H262 C275 0.929 . S
H263 C273 0.929 . S
H264 C268 0.929 . S
H265 C274 0.929 . S
C266 H260 0.930 . S
C266 C267 1.367 . S
C266 C274 1.378 . S
C267 C266 1.367 . S
C267 C275 1.433 . S
C268 H264 0.929 . S
C268 C270 1.378 . S
C268 C272 1.350 . S
C269 C272 1.463 . S
C269 C274 1.350 . S
C269 N277 1.427 . S
C270 H261 0.930 . S
C270 C268 1.378 . S
C270 C271 1.367 . S
C271 C270 1.367 . S
C271 C273 1.433 . S
C272 C268 1.350 . S
C272 C269 1.463 . S
C272 N276 1.427 . S
C273 H263 0.929 . S
C273 C271 1.433 . S
C273 N276 1.384 . S
C274 H265 0.929 . S
C274 C266 1.378 . S
C274 C269 1.350 . S
C275 H262 0.929 . S
C275 C267 1.433 . S
C275 N277 1.384 . S
N276 C272 1.427 . S
N276 C273 1.384 . S
N277 C269 1.427 . S
N277 C275 1.384 . S
H278 C284 0.930 . S
H279 C288 0.930 . S
H280 C293 0.929 . S
H281 C291 0.929 . S
H282 C286 0.929 . S
H283 C292 0.929 . S
C284 H278 0.930 . S
C284 C285 1.367 . S
C284 C292 1.378 . S
C285 C284 1.367 . S
C285 C293 1.433 . S
C286 H282 0.929 . S
C286 C288 1.378 . S
C286 C290 1.350 . S
C287 C290 1.463 . S
C287 C292 1.350 . S
C287 N295 1.427 . S
C288 H279 0.930 . S
C288 C286 1.378 . S
C288 C289 1.367 . S
C289 C288 1.367 . S
C289 C291 1.433 . S
C290 C286 1.350 . S
C290 C287 1.463 . S
C290 N294 1.427 . S
C291 H281 0.929 . S
C291 C289 1.433 . S
C291 N294 1.384 . S
C292 H283 0.929 . S
C292 C284 1.378 . S
C292 C287 1.350 . S
C293 H280 0.929 . S
C293 C285 1.433 . S
C293 N295 1.384 . S
N294 C290 1.427 . S
N294 C291 1.384 . S
N295 C287 1.427 . S
N295 C293 1.384 . S
H296 C302 0.930 . S
H297 C306 0.930 . S
H298 C311 0.929 . S
H299 C309 0.929 . S
H300 C304 0.929 . S
H301 C310 0.929 . S
C302 H296 0.930 . S
C302 C303 1.367 . S
C302 C310 1.378 . S
C303 C302 1.367 . S
C303 C311 1.433 . S
C304 H300 0.929 . S
C304 C306 1.378 . S
C304 C308 1.350 . S
C305 C308 1.463 . S
C305 C310 1.350 . S
C305 N313 1.427 . S
C306 H297 0.930 . S
C306 C304 1.378 . S
C306 C307 1.367 . S
C307 C306 1.367 . S
C307 C309 1.433 . S
C308 C304 1.350 . S
C308 C305 1.463 . S
C308 N312 1.427 . S
C309 H299 0.929 . S
C309 C307 1.433 . S
C309 N312 1.384 . S
C310 H301 0.929 . S
C310 C302 1.378 . S
C310 C305 1.350 . S
C311 H298 0.929 . S
C311 C303 1.433 . S
C311 N313 1.384 . S
N312 C308 1.427 . S
N312 C309 1.384 . S
N313 C305 1.427 . S
N313 C311 1.384 . S
H314 C320 0.930 1_655 S
H315 C324 0.930 . S
H316 C329 0.929 . S
H317 C327 0.929 . S
H318 C322 0.929 . S
H319 C328 0.929 1_655 S
C320 H314 0.930 1_455 S
C320 C321 1.367 1_545 S
C320 C328 1.378 . S
C321 C320 1.367 1_565 S
C321 C329 1.433 . S
C322 H318 0.929 . S
C322 C324 1.378 . S
C322 C326 1.350 1_565 S
C323 C326 1.463 . S
C323 C328 1.350 . S
C323 N331 1.427 1_545 S
C324 H315 0.930 . S
C324 C322 1.378 . S
C324 C325 1.367 1_565 S
C325 C324 1.367 1_545 S
C325 C327 1.433 . S
C326 C322 1.350 1_545 S
C326 C323 1.463 . S
C326 N330 1.427 . S
C327 H317 0.929 . S
C327 C325 1.433 . S
C327 N330 1.384 . S
C328 H319 0.929 1_455 S
C328 C320 1.378 . S
C328 C323 1.350 . S
C329 H316 0.929 . S
C329 C321 1.433 . S
C329 N331 1.384 . S
N330 C326 1.427 . S
N330 C327 1.384 . S
N331 C323 1.427 1_565 S
N331 C329 1.384 . S
H332 C338 0.930 1_655 S
H333 C342 0.930 . S
H334 C347 0.929 . S
H335 C345 0.929 . S
H336 C340 0.929 . S
H337 C346 0.929 1_655 S
C338 H332 0.930 1_455 S
C338 C339 1.367 . S
C338 C346 1.378 . S
C339 C338 1.367 . S
C339 C347 1.433 1_565 S
C340 H336 0.929 . S
C340 C342 1.378 . S
C340 C344 1.350 . S
C341 C344 1.462 1_565 S
C341 C346 1.351 . S
C341 N349 1.427 1_565 S
C342 H333 0.930 . S
C342 C340 1.378 . S
C342 C343 1.367 . S
C343 C342 1.367 . S
C343 C345 1.433 1_445 S
C344 C340 1.350 . S
C344 C341 1.462 1_545 S
C344 N348 1.427 1_445 S
C345 H335 0.929 . S
C345 C343 1.433 1_665 S
C345 N348 1.384 . S
C346 H337 0.929 1_455 S
C346 C338 1.378 . S
C346 C341 1.351 . S
C347 H334 0.929 . S
C347 C339 1.433 1_545 S
C347 N349 1.384 . S
N348 C344 1.427 1_665 S
N348 C345 1.384 . S
N349 C341 1.427 1_545 S
N349 C347 1.384 . S
H350 C356 0.930 . S
H351 C360 0.930 . S
H352 C365 0.929 . S
H353 C363 0.929 . S
H354 C358 0.929 . S
H355 C364 0.929 . S
C356 H350 0.930 . S
C356 C357 1.367 . S
C356 C364 1.378 . S
C357 C356 1.367 . S
C357 C365 1.433 . S
C358 H354 0.929 . S
C358 C360 1.378 . S
C358 C362 1.350 . S
C359 C362 1.463 . S
C359 C364 1.350 . S
C359 N367 1.427 . S
C360 H351 0.930 . S
C360 C358 1.378 . S
C360 C361 1.367 . S
C361 C360 1.367 . S
C361 C363 1.433 . S
C362 C358 1.350 . S
C362 C359 1.463 . S
C362 N366 1.427 . S
C363 H353 0.929 . S
C363 C361 1.433 . S
C363 N366 1.384 . S
C364 H355 0.929 . S
C364 C356 1.378 . S
C364 C359 1.350 . S
C365 H352 0.929 . S
C365 C357 1.433 . S
C365 N367 1.384 . S
N366 C362 1.427 . S
N366 C363 1.384 . S
N367 C359 1.427 . S
N367 C365 1.384 . S
H368 C374 0.930 . S
H369 C378 0.930 . S
H370 C383 0.929 . S
H371 C381 0.929 . S
H372 C376 0.929 . S
H373 C382 0.929 . S
C374 H368 0.930 . S
C374 C375 1.367 . S
C374 C382 1.378 . S
C375 C374 1.367 . S
C375 C383 1.433 . S
C376 H372 0.929 . S
C376 C378 1.378 . S
C376 C380 1.350 . S
C377 C380 1.463 . S
C377 C382 1.350 . S
C377 N385 1.427 . S
C378 H369 0.930 . S
C378 C376 1.378 . S
C378 C379 1.367 . S
C379 C378 1.367 . S
C379 C381 1.433 . S
C380 C376 1.350 . S
C380 C377 1.463 . S
C380 N384 1.427 . S
C381 H371 0.929 . S
C381 C379 1.433 . S
C381 N384 1.384 . S
C382 H373 0.929 . S
C382 C374 1.378 . S
C382 C377 1.350 . S
C383 H370 0.929 . S
C383 C375 1.433 . S
C383 N385 1.384 . S
N384 C380 1.427 . S
N384 C381 1.384 . S
N385 C377 1.427 . S
N385 C383 1.384 . S
C181 C155 1.225 . S
C177 C3 1.119 . S
C195 C4 1.484 1_556 S
C199 C123 1.578 . S
C213 C19 1.507 . S
C217 C161 1.577 . S
C231 C7 1.134 . S
C235 C129 1.231 . S
C249 C37 1.130 . S
C253 C91 1.220 . S
C267 C28 1.479 . S
C271 C59 1.586 . S
C289 C97 1.570 . S
C285 C41 1.499 . S
C307 C65 1.235 . S
C303 C25 1.136 . S
C321 C20 1.309 . S
C325 C71 1.453 . S
C339 C16 1.352 . S
C343 C103 1.464 . S
C361 C135 1.454 . S
C357 C40 1.304 . S
C375 C24 1.352 . S
C379 C167 1.459 . S
