# Generated by pormake.
# Topology pyr, (3,6)-cn, num edge types: 1
# Building blocks:
#     Node 0, Type 0, BuildingBlock: MIDCAF_clean_linker_0, # of connection points: 3
#     Node 1, Type 0, BuildingBlock: MIDCAF_clean_linker_0, # of connection points: 3
#     Node 2, Type 0, BuildingBlock: MIDCAF_clean_linker_0, # of connection points: 3
#     Node 3, Type 0, BuildingBlock: MIDCAF_clean_linker_0, # of connection points: 3
#     Node 4, Type 0, BuildingBlock: MIDCAF_clean_linker_0, # of connection points: 3
#     Node 5, Type 0, BuildingBlock: MIDCAF_clean_linker_0, # of connection points: 3
#     Node 6, Type 0, BuildingBlock: MIDCAF_clean_linker_0, # of connection points: 3
#     Node 7, Type 0, BuildingBlock: MIDCAF_clean_linker_0, # of connection points: 3
#     Node 8, Type 1, BuildingBlock: PAMTUU_clean_sbu_0, # of connection points: 6
#     Node 9, Type 1, BuildingBlock: PAMTUU_clean_sbu_0, # of connection points: 6
#     Node 10, Type 1, BuildingBlock: PAMTUU_clean_sbu_0, # of connection points: 6
#     Node 11, Type 1, BuildingBlock: PAMTUU_clean_sbu_0, # of connection points: 6
#     Edge 12, Type (0, 1), BuildingBlock: CIFDUS_clean_linker_0, # of connection points: 2
#     Edge 13, Type (0, 1), BuildingBlock: CIFDUS_clean_linker_0, # of connection points: 2
#     Edge 14, Type (0, 1), BuildingBlock: CIFDUS_clean_linker_0, # of connection points: 2
#     Edge 15, Type (0, 1), BuildingBlock: CIFDUS_clean_linker_0, # of connection points: 2
#     Edge 16, Type (0, 1), BuildingBlock: CIFDUS_clean_linker_0, # of connection points: 2
#     Edge 17, Type (0, 1), BuildingBlock: CIFDUS_clean_linker_0, # of connection points: 2
#     Edge 18, Type (0, 1), BuildingBlock: CIFDUS_clean_linker_0, # of connection points: 2
#     Edge 19, Type (0, 1), BuildingBlock: CIFDUS_clean_linker_0, # of connection points: 2
#     Edge 20, Type (0, 1), BuildingBlock: CIFDUS_clean_linker_0, # of connection points: 2
#     Edge 21, Type (0, 1), BuildingBlock: CIFDUS_clean_linker_0, # of connection points: 2
#     Edge 22, Type (0, 1), BuildingBlock: CIFDUS_clean_linker_0, # of connection points: 2
#     Edge 23, Type (0, 1), BuildingBlock: CIFDUS_clean_linker_0, # of connection points: 2
#     Edge 24, Type (0, 1), BuildingBlock: CIFDUS_clean_linker_0, # of connection points: 2
#     Edge 25, Type (0, 1), BuildingBlock: CIFDUS_clean_linker_0, # of connection points: 2
#     Edge 26, Type (0, 1), BuildingBlock: CIFDUS_clean_linker_0, # of connection points: 2
#     Edge 27, Type (0, 1), BuildingBlock: CIFDUS_clean_linker_0, # of connection points: 2
#     Edge 28, Type (0, 1), BuildingBlock: CIFDUS_clean_linker_0, # of connection points: 2
#     Edge 29, Type (0, 1), BuildingBlock: CIFDUS_clean_linker_0, # of connection points: 2
#     Edge 30, Type (0, 1), BuildingBlock: CIFDUS_clean_linker_0, # of connection points: 2
#     Edge 31, Type (0, 1), BuildingBlock: CIFDUS_clean_linker_0, # of connection points: 2
#     Edge 32, Type (0, 1), BuildingBlock: CIFDUS_clean_linker_0, # of connection points: 2
#     Edge 33, Type (0, 1), BuildingBlock: CIFDUS_clean_linker_0, # of connection points: 2
#     Edge 34, Type (0, 1), BuildingBlock: CIFDUS_clean_linker_0, # of connection points: 2
#     Edge 35, Type (0, 1), BuildingBlock: CIFDUS_clean_linker_0, # of connection points: 2
# Relax obj value: 0.102
# Max RMSD: 0.132
# Mean RMSD: 0.054
data_MOF--net-pyr--node1-PAMTUU_clean_sbu_0--node2-MIDCAF_clean_linker_0--edge1-CIFDUS_clean_linker_0
_symmetry_space_group_name_H-M    P1
_symmetry_Int_Tables_number       1
_symmetry_cell_setting            triclinic
loop_
_symmetry_equiv_pos_as_xyz
'x, y, z'
_cell_length_a     41.734485
_cell_length_b     42.614923
_cell_length_c     40.591585
_cell_angle_alpha  90.089337
_cell_angle_beta   89.484582
_cell_angle_gamma 101.0964
loop_
_atom_site_label
_atom_site_type_symbol
_atom_site_fract_x
_atom_site_fract_y
_atom_site_fract_z
_atom_type_partial_charge
C0 C 0.31472 0.27493 0.3529 0.0
C1 C 0.32109 0.24535 0.36336 0.0
C2 C 0.34508 0.23226 0.34663 0.0
C3 C 0.36001 0.24685 0.31816 0.0
H4 H 0.42175 0.2349 0.24144 0.0
H5 H 0.44377 0.19599 0.20876 0.0
H6 H 0.40823 0.23304 0.12014 0.0
H7 H 0.38567 0.27181 0.15278 0.0
H8 H 0.3449 0.32825 0.15847 0.0
H9 H 0.30397 0.35322 0.1318 0.0
H10 H 0.25874 0.36271 0.22661 0.0
H11 H 0.30002 0.33944 0.25314 0.0
H12 H 0.32256 0.3113 0.31596 0.0
H13 H 0.29688 0.28595 0.36574 0.0
H14 H 0.35052 0.20945 0.35402 0.0
H15 H 0.37672 0.23494 0.30467 0.0
N16 N 0.37959 0.27033 0.25305 0.0
N17 N 0.36692 0.29694 0.20576 0.0
N18 N 0.34388 0.30624 0.25682 0.0
C19 C 0.38347 0.27612 0.2202 0.0
C20 C 0.34725 0.31232 0.22403 0.0
C21 C 0.35998 0.28541 0.2716 0.0
C22 C 0.4015 0.25626 0.19984 0.0
C23 C 0.41896 0.23513 0.21494 0.0
C24 C 0.43178 0.21289 0.1962 0.0
C25 C 0.42738 0.21122 0.16194 0.0
C26 C 0.41151 0.23345 0.1466 0.0
C27 C 0.39879 0.25582 0.16532 0.0
C28 C 0.32567 0.3315 0.20795 0.0
C29 C 0.32659 0.33627 0.17364 0.0
C30 C 0.30294 0.35036 0.15831 0.0
C31 C 0.2778 0.35979 0.17694 0.0
C32 C 0.27791 0.3563 0.21137 0.0
C33 C 0.30161 0.3426 0.22666 0.0
C34 C 0.35109 0.27474 0.30577 0.0
C35 C 0.32955 0.28949 0.3244 0.0
C36 C 0.08462 0.8229 0.70985 0.0
C37 C 0.09123 0.83097 0.67666 0.0
C38 C 0.11399 0.81677 0.65924 0.0
C39 C 0.13101 0.79603 0.67517 0.0
H40 H 0.19968 0.73514 0.66214 0.0
H41 H 0.23939 0.70719 0.63615 0.0
H42 H 0.25999 0.67039 0.73114 0.0
H43 H 0.22038 0.69768 0.75684 0.0
H44 H 0.21894 0.74561 0.81774 0.0
H45 H 0.24716 0.77391 0.86445 0.0
H46 H 0.18938 0.84727 0.85507 0.0
H47 H 0.16064 0.81878 0.8089 0.0
H48 H 0.0975 0.79799 0.75196 0.0
H49 H 0.06731 0.83366 0.72383 0.0
H50 H 0.11936 0.82256 0.63355 0.0
H51 H 0.14936 0.78649 0.66146 0.0
N52 N 0.16471 0.75247 0.71168 0.0
N53 N 0.19269 0.7469 0.76054 0.0
N54 N 0.15443 0.78033 0.75941 0.0
C55 C 0.18676 0.73904 0.72845 0.0
C56 C 0.17679 0.76757 0.77622 0.0
C57 C 0.148 0.77272 0.72732 0.0
C58 C 0.20703 0.71882 0.7116 0.0
C59 C 0.21223 0.72054 0.67731 0.0
C60 C 0.23515 0.70477 0.66247 0.0
C61 C 0.25293 0.68668 0.6816 0.0
C62 C 0.24649 0.68381 0.7156 0.0
C63 C 0.2239 0.69969 0.7304 0.0
C64 C 0.18804 0.7803 0.809 0.0
C65 C 0.21166 0.76738 0.82609 0.0
C66 C 0.22796 0.78365 0.85281 0.0
C67 C 0.22103 0.81319 0.86297 0.0
C68 C 0.19529 0.82455 0.8479 0.0
C69 C 0.17888 0.80822 0.82124 0.0
C70 C 0.126 0.78966 0.70897 0.0
C71 C 0.10204 0.80263 0.72593 0.0
C72 C 0.66126 0.26628 0.92957 0.0
C73 C 0.63373 0.24597 0.91646 0.0
C74 C 0.61848 0.2571 0.88909 0.0
C75 C 0.63075 0.2874 0.8751 0.0
H76 H 0.62553 0.35026 0.79235 0.0
H77 H 0.60263 0.37141 0.74389 0.0
H78 H 0.66206 0.46432 0.76188 0.0
H79 H 0.68506 0.44323 0.81038 0.0
H80 H 0.74431 0.45007 0.86642 0.0
H81 H 0.79335 0.47901 0.89345 0.0
H82 H 0.80078 0.39377 0.94799 0.0
H83 H 0.75154 0.36546 0.92206 0.0
H84 H 0.69469 0.31089 0.92691 0.0
H85 H 0.6734 0.25913 0.95098 0.0
H86 H 0.59735 0.24218 0.87807 0.0
H87 H 0.61852 0.29497 0.85397 0.0
N88 N 0.65892 0.35197 0.84735 0.0
N89 N 0.69934 0.399 0.84966 0.0
N90 N 0.69962 0.35765 0.8876 0.0
C91 C 0.67215 0.38163 0.83505 0.0
C92 C 0.71334 0.38707 0.87594 0.0
C93 C 0.67251 0.33984 0.87384 0.0
C94 C 0.65738 0.39485 0.80559 0.0
C95 C 0.63375 0.37524 0.78616 0.0
C96 C 0.62068 0.38739 0.7581 0.0
C97 C 0.63044 0.41968 0.74863 0.0
C98 C 0.65365 0.43943 0.76836 0.0
C99 C 0.66704 0.4272 0.7962 0.0
C100 C 0.74361 0.40531 0.89193 0.0
C101 C 0.75636 0.43753 0.88424 0.0
C102 C 0.78472 0.45412 0.89972 0.0
C103 C 0.80137 0.43897 0.92323 0.0
C104 C 0.78857 0.40672 0.93071 0.0
C105 C 0.76021 0.39028 0.91548 0.0
C106 C 0.65855 0.30749 0.88817 0.0
C107 C 0.67342 0.29635 0.91573 0.0
C108 C 0.75715 0.66046 0.43309 0.0
C109 C 0.74418 0.6283 0.4255 0.0
C110 C 0.76143 0.61264 0.40267 0.0
C111 C 0.79048 0.6287 0.38778 0.0
H112 H 0.84239 0.64367 0.29264 0.0
H113 H 0.86332 0.62149 0.24322 0.0
H114 H 0.96119 0.66815 0.26794 0.0
H115 H 0.94013 0.69124 0.3173 0.0
H116 H 0.93228 0.76769 0.3598 0.0
H117 H 0.95429 0.81967 0.38528 0.0
H118 H 0.88223 0.79892 0.46313 0.0
H119 H 0.86026 0.748 0.43801 0.0
H120 H 0.7953 0.70112 0.42506 0.0
H121 H 0.74448 0.67371 0.44991 0.0
H122 H 0.75273 0.58776 0.39648 0.0
H123 H 0.80301 0.61579 0.37046 0.0
N124 N 0.84769 0.6665 0.35316 0.0
N125 N 0.89168 0.71054 0.35348 0.0
N126 N 0.85024 0.70593 0.39372 0.0
C127 C 0.87619 0.68248 0.33947 0.0
C128 C 0.87867 0.72245 0.38075 0.0
C129 C 0.83459 0.67803 0.38038 0.0
C130 C 0.88951 0.66937 0.3091 0.0
C131 C 0.8684 0.64934 0.28765 0.0
C132 C 0.88037 0.63667 0.25918 0.0
C133 C 0.91393 0.64299 0.25159 0.0
C134 C 0.93522 0.6627 0.27315 0.0
C135 C 0.92311 0.67607 0.30133 0.0
C136 C 0.89416 0.7535 0.39647 0.0
C137 C 0.92125 0.7742 0.38242 0.0
C138 C 0.93394 0.804 0.3971 0.0
C139 C 0.91976 0.81384 0.42608 0.0
C140 C 0.89337 0.79268 0.44045 0.0
C141 C 0.88081 0.76316 0.42596 0.0
C142 C 0.80341 0.66077 0.39557 0.0
C143 C 0.78634 0.67635 0.41853 0.0
C144 C 0.59765 0.82922 0.88846 0.0
C145 C 0.60257 0.83607 0.92215 0.0
C146 C 0.62596 0.82249 0.93896 0.0
C147 C 0.64458 0.80342 0.92235 0.0
H148 H 0.70522 0.73464 0.93544 0.0
H149 H 0.74734 0.71293 0.96469 0.0
H150 H 0.80086 0.71095 0.87354 0.0
H151 H 0.75929 0.73208 0.84429 0.0
H152 H 0.73671 0.75453 0.78063 0.0
H153 H 0.76095 0.78048 0.73088 0.0
H154 H 0.68947 0.84157 0.73121 0.0
H155 H 0.66563 0.81623 0.78184 0.0
H156 H 0.61277 0.8064 0.8456 0.0
H157 H 0.57943 0.83865 0.87483 0.0
H158 H 0.63093 0.82757 0.96475 0.0
H159 H 0.66304 0.79426 0.93593 0.0
N160 N 0.68253 0.76401 0.88629 0.0
N161 N 0.70956 0.7567 0.83691 0.0
N162 N 0.66792 0.78637 0.83707 0.0
C163 C 0.70555 0.75139 0.86975 0.0
C164 C 0.69093 0.77403 0.8203 0.0
C165 C 0.66337 0.78127 0.86999 0.0
C166 C 0.72889 0.7354 0.88752 0.0
C167 C 0.7258 0.72927 0.9216 0.0
C168 C 0.74982 0.71682 0.93835 0.0
C169 C 0.77747 0.71076 0.92137 0.0
C170 C 0.78001 0.71592 0.88727 0.0
C171 C 0.75599 0.7279 0.87052 0.0
C172 C 0.69978 0.78392 0.78588 0.0
C173 C 0.72561 0.77303 0.76983 0.0
C174 C 0.73942 0.78776 0.741 0.0
C175 C 0.72759 0.81357 0.72743 0.0
C176 C 0.69962 0.82222 0.74154 0.0
C177 C 0.68585 0.80757 0.7705 0.0
C178 C 0.64068 0.79783 0.88838 0.0
C179 C 0.61662 0.8105 0.87173 0.0
C180 C 0.84392 0.21411 0.24222 0.0
C181 C 0.81385 0.21798 0.22914 0.0
C182 C 0.79857 0.24197 0.24222 0.0
C183 C 0.81168 0.25986 0.26945 0.0
H184 H 0.80566 0.33772 0.33056 0.0
H185 H 0.76792 0.3685 0.35413 0.0
H186 H 0.79294 0.34227 0.45199 0.0
H187 H 0.83062 0.31077 0.42832 0.0
H188 H 0.89227 0.27226 0.43323 0.0
H189 H 0.92038 0.23945 0.46768 0.0
H190 H 0.93249 0.18058 0.38341 0.0
H191 H 0.90576 0.21376 0.34895 0.0
H192 H 0.87925 0.22701 0.28012 0.0
H193 H 0.8567 0.19634 0.23221 0.0
H194 H 0.77528 0.2455 0.23293 0.0
H195 H 0.79822 0.2768 0.28003 0.0
N196 N 0.83485 0.28984 0.33083 0.0
N197 N 0.86086 0.28541 0.38117 0.0
N198 N 0.87063 0.25421 0.33588 0.0
C199 C 0.84028 0.29918 0.36264 0.0
C200 C 0.87638 0.26304 0.36777 0.0
C201 C 0.84998 0.26747 0.31722 0.0
C202 C 0.82098 0.32145 0.37751 0.0
C203 C 0.80349 0.33873 0.35714 0.0
C204 C 0.78197 0.35664 0.37067 0.0
C205 C 0.77729 0.35772 0.40494 0.0
C206 C 0.79576 0.34158 0.42546 0.0
C207 C 0.81752 0.32374 0.41189 0.0
C208 C 0.89643 0.24558 0.38832 0.0
C209 C 0.90137 0.25261 0.42197 0.0
C210 C 0.9173 0.23365 0.44178 0.0
C211 C 0.92851 0.20717 0.42842 0.0
C212 C 0.92464 0.20098 0.39454 0.0
C213 C 0.90898 0.21998 0.37476 0.0
C214 C 0.8402 0.25392 0.28437 0.0
C215 C 0.85691 0.23181 0.26961 0.0
C216 C 0.26032 0.6203 0.19546 0.0
C217 C 0.24935 0.63626 0.16859 0.0
C218 C 0.26951 0.66453 0.15724 0.0
C219 C 0.29913 0.67695 0.17255 0.0
H220 H 0.379 0.74389 0.15708 0.0
H221 H 0.40527 0.79441 0.13316 0.0
H222 H 0.45939 0.81858 0.22289 0.0
H223 H 0.43379 0.76689 0.24648 0.0
H224 H 0.43731 0.70163 0.29274 0.0
H225 H 0.45881 0.67934 0.34088 0.0
H226 H 0.37715 0.59995 0.34053 0.0
H227 H 0.35573 0.62208 0.29156 0.0
H228 H 0.29755 0.62033 0.23197 0.0
H229 H 0.24544 0.59849 0.20496 0.0
H230 H 0.26238 0.67723 0.13629 0.0
H231 H 0.31344 0.69893 0.1628 0.0
N232 N 0.35844 0.70471 0.20438 0.0
N233 N 0.39778 0.70673 0.24547 0.0
N234 N 0.35293 0.66349 0.24352 0.0
C235 C 0.38652 0.72003 0.21843 0.0
C236 C 0.38133 0.67834 0.25819 0.0
C237 C 0.3413 0.67667 0.21648 0.0
C238 C 0.40403 0.75108 0.20393 0.0
C239 C 0.39652 0.75985 0.17187 0.0
C240 C 0.41151 0.78923 0.15812 0.0
C241 C 0.43434 0.81129 0.17602 0.0
C242 C 0.44223 0.80236 0.20802 0.0
C243 C 0.42742 0.77264 0.2217 0.0
C244 C 0.39448 0.66395 0.28795 0.0
C245 C 0.42374 0.6794 0.30272 0.0
C246 C 0.4361 0.66659 0.3307 0.0
C247 C 0.41973 0.63782 0.34521 0.0
C248 C 0.39072 0.62199 0.33017 0.0
C249 C 0.37826 0.63487 0.30206 0.0
C250 C 0.30993 0.66168 0.19998 0.0
C251 C 0.29017 0.63292 0.21106 0.0
C252 C 0.1378 0.27986 0.65263 0.0
C253 C 0.12255 0.25291 0.67083 0.0
C254 C 0.11705 0.257 0.70482 0.0
C255 C 0.12778 0.28684 0.72021 0.0
H256 H 0.10475 0.35804 0.79302 0.0
H257 H 0.08157 0.37876 0.84181 0.0
H258 H 0.16422 0.45712 0.84577 0.0
H259 H 0.18697 0.4369 0.79639 0.0
H260 H 0.2439 0.44418 0.73923 0.0
H261 H 0.29411 0.47233 0.71264 0.0
H262 H 0.27746 0.40632 0.63096 0.0
H263 H 0.22815 0.37797 0.65756 0.0
H264 H 0.16112 0.32909 0.653 0.0
H265 H 0.14157 0.27828 0.6263 0.0
H266 H 0.10549 0.23693 0.7198 0.0
H267 H 0.1241 0.28893 0.74651 0.0
N268 N 0.1474 0.35468 0.74625 0.0
N269 N 0.18925 0.40061 0.74529 0.0
N270 N 0.18668 0.36196 0.70382 0.0
C271 C 0.16193 0.38321 0.75999 0.0
C272 C 0.2018 0.3901 0.71715 0.0
C273 C 0.15969 0.34401 0.71799 0.0
C274 C 0.1479 0.39561 0.79048 0.0
C275 C 0.11809 0.37968 0.80422 0.0
C276 C 0.10481 0.39157 0.83249 0.0
C277 C 0.12092 0.41973 0.84816 0.0
C278 C 0.15072 0.43568 0.83436 0.0
C279 C 0.16395 0.42386 0.80601 0.0
C280 C 0.23186 0.40856 0.70081 0.0
C281 C 0.25092 0.43571 0.71558 0.0
C282 C 0.27971 0.45196 0.70022 0.0
C283 C 0.29019 0.44151 0.66968 0.0
C284 C 0.27075 0.41474 0.65475 0.0
C285 C 0.24216 0.39853 0.67005 0.0
C286 C 0.14455 0.31315 0.70205 0.0
C287 C 0.14885 0.30929 0.66798 0.0
Tb288 Tb 0.06317 0.03533 0.53325 0.0
Tb289 Tb 0.99279 1.02288 0.57253 0.0
C290 C 1.0072 0.97695 0.51517 0.0
C291 C 0.13891 0.07413 0.48827 0.0
C292 C 0.18015 0.1266 0.45788 0.0
C293 C 0.15468 0.10769 0.44019 0.0
C294 C 0.13434 0.08171 0.45518 0.0
C295 C 0.16445 0.09297 0.50595 0.0
C296 C 0.18479 0.11899 0.49094 0.0
C297 C 0.11786 0.04624 0.5041 0.0
O298 O 0.03093 0.0578 0.5034 0.0
O299 O 0.99524 0.06627 0.54407 0.0
O300 O 0.02626 0.05811 0.60148 0.0
O301 O 0.06291 0.07907 0.56105 0.0
O302 O 0.94241 1.0223 0.5706 0.0
O303 O 0.96571 1.01406 0.61642 0.0
O304 O 0.01603 0.98359 0.58706 0.0
O305 O 0.0687 1.00954 0.57823 0.0
O306 O 0.03874 0.98738 0.51893 0.0
O307 O 0.98552 0.9915 0.5293 0.0
C308 C 1.00819 0.07246 0.51471 0.0
O309 O 0.11422 0.04761 0.53596 0.0
O310 O 0.09039 0.03438 0.48965 0.0
C311 C 0.04948 0.08111 0.5902 0.0
C312 C 0.90965 0.99078 0.61058 0.0
C313 C 0.85444 0.9476 0.63387 0.0
C314 C 0.85164 0.97822 0.62296 0.0
C315 C 0.87901 0.99959 0.61147 0.0
C316 C 0.91241 0.95971 0.61991 0.0
C317 C 0.88494 0.93823 0.63147 0.0
C318 C 0.93825 1.01526 0.60177 0.0
C319 C 0.04757 0.98573 0.59089 0.0
H320 H 0.15087 0.11256 0.41449 0.0
H321 H 0.1152 0.06743 0.44071 0.0
H322 H 0.16879 0.08757 0.5314 0.0
H323 H 0.20409 0.13321 0.50526 0.0
H324 H 0.82839 0.98594 0.62405 0.0
H325 H 0.87643 1.02342 0.60416 0.0
H326 H 0.93588 0.95241 0.61922 0.0
H327 H 0.88788 0.91487 0.63992 0.0
Tb328 Tb 0.55245 0.02997 0.05589 0.0
Tb329 Tb 0.48299 1.02443 1.0168 0.0
C330 C 0.53412 0.98298 0.99728 0.0
C331 C 0.63382 0.06151 0.092 0.0
C332 C 0.68505 0.11045 0.11265 0.0
C333 C 0.69128 0.0804 0.10315 0.0
C334 C 0.66584 0.05613 0.09304 0.0
C335 C 0.62761 0.09184 0.1 0.0
C336 C 0.653 0.11608 0.11037 0.0
C337 C 0.60719 0.0351 0.08321 0.0
O338 O 0.56184 0.0641 1.01444 0.0
O339 O 0.50984 0.07197 1.00495 0.0
O340 O 0.47836 0.05157 0.06141 0.0
O341 O 0.5322 0.06956 0.07468 0.0
O342 O 0.45749 1.02612 0.97265 0.0
O343 O 0.43189 1.01686 1.01909 0.0
O344 O 0.4783 0.98002 0.04438 0.0
O345 O 0.51726 0.99474 0.08414 0.0
O346 O 0.54599 0.98663 1.02702 0.0
O347 O 0.51472 1.00121 0.98598 0.0
C348 C 0.54161 0.08101 1.00164 0.0
O349 O 0.57971 0.0337 0.09926 0.0
O350 O 0.60267 0.02989 0.05177 0.0
C351 C 0.50123 0.07117 0.07727 0.0
C352 C 0.40711 0.99025 0.97289 0.0
C353 C 0.36379 0.93747 0.94678 0.0
C354 C 0.35517 0.96778 0.94803 0.0
C355 C 0.3767 0.99397 0.961 0.0
C356 C 0.41583 0.96008 0.97195 0.0
C357 C 0.39435 0.93388 0.95892 0.0
C358 C 0.42916 1.01767 0.9872 0.0
C359 C 0.49127 0.97511 0.07287 0.0
H360 H 0.71576 0.07546 0.10404 0.0
H361 H 0.67109 0.03295 0.08655 0.0
H362 H 0.60303 0.09655 0.09902 0.0
H363 H 0.64725 0.13879 0.1178 0.0
H364 H 0.33201 0.97139 0.93844 0.0
H365 H 0.36962 1.01714 0.96171 0.0
H366 H 0.43918 0.95681 0.98137 0.0
H367 H 0.40154 0.91077 0.95856 0.0
Tb368 Tb 0.52283 0.49625 0.53029 0.0
Tb369 Tb 0.51759 0.56193 0.56981 0.0
C370 C 0.4885 0.54817 0.49804 0.0
C371 C 0.55963 0.43242 0.49254 0.0
C372 C 0.61674 0.40852 0.47804 0.0
C373 C 0.59816 0.41816 0.45258 0.0
C374 C 0.56982 0.42984 0.45977 0.0
C375 C 0.57805 0.4225 0.51804 0.0
C376 C 0.60623 0.41052 0.51082 0.0
C377 C 0.5307 0.44668 0.49962 0.0
O378 O 0.56279 0.53296 0.51212 0.0
O379 O 0.56892 0.56822 0.55535 0.0
O380 O 0.53463 0.53094 0.60604 0.0
O381 O 0.55561 0.49655 0.57223 0.0
O382 O 0.52131 0.6119 0.57032 0.0
O383 O 0.50716 0.58375 0.61394 0.0
O384 O 0.46839 0.53312 0.57158 0.0
O385 O 0.48083 0.48361 0.56322 0.0
O386 O 0.48725 0.51735 0.50272 0.0
O387 O 0.50415 0.56939 0.51875 0.0
C388 C 0.57999 0.55721 0.52808 0.0
O389 O 0.521 0.44666 0.53022 0.0
O390 O 0.5303 0.47396 0.48536 0.0
C391 C 0.55217 0.50865 0.60162 0.0
C392 C 0.48006 0.62635 0.60488 0.0
C393 C 0.42119 0.6484 0.61515 0.0
C394 C 0.43781 0.63822 0.64182 0.0
C395 C 0.46703 0.6275 0.63676 0.0
C396 C 0.46386 0.63726 0.5782 0.0
C397 C 0.43477 0.64841 0.58336 0.0
C398 C 0.50898 0.61152 0.59998 0.0
C399 C 0.46076 0.50181 0.57372 0.0
H400 H 0.60546 0.41647 0.42706 0.0
H401 H 0.55603 0.43724 0.43969 0.0
H402 H 0.57099 0.42434 0.54361 0.0
H403 H 0.62019 0.40344 0.53093 0.0
H404 H 0.42809 0.63841 0.66665 0.0
H405 H 0.47907 0.61932 0.65773 0.0
H406 H 0.47318 0.63654 0.55328 0.0
H407 H 0.42237 0.65611 0.56239 0.0
Tb408 Tb 0.02365 0.56476 1.03545 0.0
Tb409 Tb 0.02156 0.49719 0.0725 0.0
C410 C 0.05296 0.51032 1.00145 0.0
C411 C 0.99557 0.6341 0.99923 0.0
C412 C 0.94341 0.66382 0.98131 0.0
C413 C 0.97039 0.66457 0.96003 0.0
C414 C 0.99623 0.64994 0.96898 0.0
C415 C 0.9688 0.6333 1.02066 0.0
C416 C 0.94304 0.64817 1.01186 0.0
C417 C 0.02206 0.61714 1.0072 0.0
O418 O 0.98168 0.53162 1.01512 0.0
O419 O 0.9712 0.49553 0.05751 0.0
O420 O 1.01278 0.53206 0.10949 0.0
O421 O 0.98926 0.56409 0.07647 0.0
O422 O 0.01745 0.4472 0.07143 0.0
O423 O 0.02348 0.47299 0.11725 0.0
O424 O 0.07265 0.52073 0.07363 0.0
O425 O 0.06561 0.57247 0.06892 0.0
O426 O 0.05717 0.54123 1.00726 0.0
O427 O 0.03485 0.48964 1.02123 0.0
C428 C 0.96224 0.50784 1.03016 0.0
O429 O 0.02849 0.61463 1.03834 0.0
O430 O 0.02142 0.59033 0.99155 0.0
C431 C 0.99486 0.554 0.10598 0.0
C432 C 0.05352 0.43255 0.11063 0.0
C433 C 0.11305 0.4169 0.13021 0.0
C434 C 0.08686 0.41461 0.15266 0.0
C435 C 0.05729 0.42227 0.1429 0.0
C436 C 0.07936 0.4339 0.08786 0.0
C437 C 0.10879 0.42586 0.09752 0.0
C438 C 0.02472 0.44615 0.1025 0.0
C439 C 0.08334 0.55151 0.07788 0.0
H440 H 0.97125 0.67582 0.93605 0.0
H441 H 0.0165 0.65049 0.95197 0.0
H442 H 0.96761 0.62094 0.04407 0.0
H443 H 0.92287 0.64741 1.029 0.0
H444 H 0.0895 0.40748 0.17795 0.0
H445 H 0.03782 0.42143 0.1609 0.0
H446 H 0.07731 0.44236 0.06295 0.0
H447 H 0.1287 0.42804 0.07985 0.0
H448 H 0.25537 0.23718 0.36793 0.0
H449 H 0.33847 0.20905 0.41356 0.0
H450 H 0.3019 0.17096 0.44852 0.0
H451 H 0.24635 0.14258 0.46243 0.0
H452 H 0.16361 0.17099 0.41626 0.0
H453 H 0.20016 0.21228 0.38518 0.0
C454 C 0.26557 0.22337 0.38613 0.0
C455 C 0.29961 0.22598 0.38818 0.0
C456 C 0.24447 0.20129 0.40569 0.0
C457 C 0.31234 0.20732 0.41137 0.0
C458 C 0.29145 0.18555 0.43132 0.0
C459 C 0.2363 0.1582 0.44604 0.0
C460 C 0.20232 0.15352 0.44143 0.0
C461 C 0.25747 0.18183 0.42814 0.0
C462 C 0.1897 0.17373 0.41979 0.0
C463 C 0.21056 0.19744 0.40215 0.0
H464 H 0.28705 0.82351 0.86298 0.0
H465 H 0.205 0.85069 0.91324 0.0
H466 H 0.24225 0.89068 0.94498 0.0
H467 H 0.29798 0.92017 0.95564 0.0
H468 H 0.37949 0.89322 0.90413 0.0
H469 H 0.34255 0.85023 0.87628 0.0
C470 C 0.27727 0.83758 0.88147 0.0
C471 C 0.24327 0.8341 0.88574 0.0
C472 C 0.29873 0.86066 0.89927 0.0
C473 C 0.23106 0.85308 0.9093 0.0
C474 C 0.25233 0.87593 0.92743 0.0
C475 C 0.30761 0.90485 0.93832 0.0
C476 C 0.3414 0.91 0.93181 0.0
C477 C 0.28618 0.88039 0.92208 0.0
C478 C 0.35363 0.88962 0.90978 0.0
C479 C 0.3325 0.86514 0.89369 0.0
H480 H 0.61078 0.47729 0.7396 0.0
H481 H 0.61966 0.39073 0.68816 0.0
H482 H 0.59771 0.41053 0.63835 0.0
H483 H 0.57511 0.45238 0.60897 0.0
H484 H 0.56454 0.53803 0.66133 0.0
H485 H 0.5881 0.5189 0.71043 0.0
C486 C 0.60815 0.46279 0.71746 0.0
C487 C 0.61697 0.43238 0.71801 0.0
C488 C 0.59513 0.47427 0.68872 0.0
C489 C 0.61283 0.41398 0.68892 0.0
C490 C 0.60038 0.42541 0.66021 0.0
C491 C 0.57815 0.46699 0.63103 0.0
C492 C 0.56801 0.49681 0.63107 0.0
C493 C 0.59131 0.45551 0.65975 0.0
C494 C 0.57194 0.51504 0.66026 0.0
C495 C 0.58549 0.50408 0.68853 0.0
H496 H 0.96284 0.6086 0.24598 0.0
H497 H 0.89236 0.64595 0.18856 0.0
H498 H 0.91111 0.62255 0.13852 0.0
H499 H 0.94741 0.59078 0.11081 0.0
H500 H 0.01562 0.55085 0.16923 0.0
H501 H 0.99799 0.57566 0.21862 0.0
C502 C 0.95176 0.61177 0.22246 0.0
C503 C 0.92631 0.6292 0.22109 0.0
C504 C 0.9622 0.59755 0.19379 0.0
C505 C 0.91191 0.63263 0.19041 0.0
C506 C 0.92266 0.61924 0.16173 0.0
C507 C 0.9584 0.58747 0.13434 0.0
C508 C 0.9829 0.56884 0.13603 0.0
C509 C 0.94773 0.6015 0.16306 0.0
C510 C 0.99664 0.56481 0.16695 0.0
C511 C 0.98663 0.57914 0.19535 0.0
H512 H 0.48416 0.1888 0.16604 0.0
H513 H 0.39215 0.17421 0.11513 0.0
H514 H 0.40649 0.12909 0.08525 0.0
H515 H 0.44477 0.09351 0.07393 0.0
H516 H 0.53732 0.10826 0.12392 0.0
H517 H 0.52292 0.15327 0.15422 0.0
C518 C 0.46726 0.17567 0.14845 0.0
C519 C 0.4372 0.18492 0.14273 0.0
C520 C 0.47561 0.14963 0.13142 0.0
C521 C 0.41566 0.1679 0.11961 0.0
C522 C 0.42371 0.14192 0.10272 0.0
C523 C 0.46171 0.10636 0.09166 0.0
C524 C 0.49196 0.09737 0.09684 0.0
C525 C 0.45353 0.1325 0.10854 0.0
C526 C 0.51382 0.11464 0.11953 0.0
C527 C 0.50564 0.14041 0.13682 0.0
H528 H 0.12416 0.88377 0.64666 0.0
H529 H 0.02691 0.83615 0.67372 0.0
H530 H 1.00444 0.88027 0.65018 0.0
H531 H 1.01286 0.93247 0.62159 0.0
H532 H 0.11114 0.98022 0.59695 0.0
H533 H 0.13272 0.93612 0.62005 0.0
C534 C 0.09801 0.88295 0.64705 0.0
C535 C 0.07712 0.85668 0.66137 0.0
C536 C 0.08549 0.90855 0.63417 0.0
C537 C 0.04337 0.85614 0.66257 0.0
C538 C 0.03058 0.88135 0.6492 0.0
C539 C 0.03899 0.93331 0.62146 0.0
C540 C 0.06024 0.9597 0.60745 0.0
C541 C 0.05145 0.90775 0.63496 0.0
C542 C 0.09409 0.96035 0.60757 0.0
C543 C 0.10655 0.93503 0.62068 0.0
H544 H 0.82259 0.43244 0.98658 0.0
H545 H 0.85047 0.48471 0.89647 0.0
H546 H 0.90117 0.51158 0.9218 0.0
H547 H 0.9391 0.51895 0.96887 0.0
H548 H 0.9122 0.46461 0.05789 0.0
H549 H 0.86027 0.43973 1.03345 0.0
C550 C 0.83978 0.44945 0.97221 0.0
C551 C 0.83223 0.45626 0.93939 0.0
C552 C 0.86943 0.46451 0.98677 0.0
C553 C 0.85493 0.47909 0.92181 0.0
C554 C 0.88425 0.49438 0.93624 0.0
C555 C 0.92184 0.5018 0.98306 0.0
C556 C 0.92986 0.49379 1.01534 0.0
C557 C 0.89192 0.48715 0.96864 0.0
C558 C 0.90701 0.47132 1.03306 0.0
C559 C 0.87717 0.45701 1.01906 0.0
H560 H 0.72019 0.63531 0.48806 0.0
H561 H 0.69615 0.58328 0.39733 0.0
H562 H 0.64465 0.55613 0.42142 0.0
H563 H 0.60543 0.54794 0.46746 0.0
H564 H 0.62759 0.60192 0.5572 0.0
H565 H 0.68032 0.62784 0.53395 0.0
C566 C 0.70363 0.61832 0.4733 0.0
C567 C 0.71255 0.61148 0.44075 0.0
C568 C 0.67345 0.60315 0.48709 0.0
C569 C 0.69065 0.5888 0.42255 0.0
C570 C 0.66088 0.57337 0.43624 0.0
C571 C 0.62177 0.5653 0.48208 0.0
C572 C 0.61236 0.57285 0.51417 0.0
C573 C 0.65196 0.58041 0.46842 0.0
C574 C 0.63398 0.59561 0.53247 0.0
C575 C 0.66423 0.61045 0.51917 0.0
H576 H 0.24512 0.4056 0.19858 0.0
H577 H 0.2476 0.33866 0.11903 0.0
H578 H 0.19811 0.35214 0.09624 0.0
H579 H 0.15132 0.37945 0.10157 0.0
H580 H 0.14683 0.44283 0.18368 0.0
H581 H 0.19933 0.43345 0.20338 0.0
C582 C 0.23482 0.39378 0.17634 0.0
C583 C 0.25008 0.37093 0.1608 0.0
C584 C 0.20562 0.40061 0.16411 0.0
C585 C 0.23675 0.35662 0.13142 0.0
C586 C 0.20816 0.36402 0.11853 0.0
C587 C 0.16203 0.39132 0.12363 0.0
C588 C 0.1452 0.41153 0.14137 0.0
C589 C 0.192 0.38545 0.13507 0.0
C590 C 0.15917 0.42675 0.16997 0.0
C591 C 0.18923 0.42156 0.18111 0.0
H592 H 0.57017 0.21449 0.92625 0.0
H593 H 0.66975 0.20368 0.94077 0.0
H594 H 0.65071 0.15246 0.96807 0.0
H595 H 0.60563 0.11049 0.98901 0.0
H596 H 0.50612 0.12132 0.97346 0.0
H597 H 0.52529 0.17193 0.94543 0.0
C598 C 0.58778 0.20083 0.93499 0.0
C599 C 0.62148 0.21347 0.9315 0.0
C600 C 0.57665 0.17105 0.95072 0.0
C601 C 0.6437 0.19519 0.94349 0.0
C602 C 0.63281 0.16563 0.95904 0.0
C603 C 0.5881 0.12381 0.9794 0.0
C604 C 0.55435 0.1117 0.98359 0.0
C605 C 0.59931 0.15333 0.96307 0.0
C606 C 0.53222 0.12966 0.97082 0.0
C607 C 0.54316 0.15883 0.95468 0.0
H608 H 0.98297 0.84623 0.43488 0.0
H609 H 0.8827 0.85449 0.45168 0.0
H610 H 0.90049 0.90517 0.48008 0.0
H611 H 0.94439 0.94683 0.50177 0.0
H612 H 0.04483 0.93914 0.48477 0.0
H613 H 0.02712 0.88921 0.45486 0.0
C614 C 0.96501 0.85928 0.44441 0.0
C615 C 0.93146 0.84611 0.44132 0.0
C616 C 0.97544 0.88871 0.4609 0.0
C617 C 0.90866 0.86351 0.45413 0.0
C618 C 0.91881 0.89269 0.47032 0.0
C619 C 0.96248 0.93437 0.49143 0.0
C620 C 0.99598 0.947 0.49576 0.0
C621 C 0.95213 0.90542 0.47419 0.0
C622 C 0.01888 0.93024 0.48201 0.0
C623 C 1.00877 0.90153 0.46483 0.0
H624 H 0.29981 0.71434 0.63785 0.0
H625 H 0.2667 0.6276 0.69322 0.0
H626 H 0.3153 0.60758 0.67626 0.0
H627 H 0.36906 0.61639 0.64916 0.0
H628 H 0.40235 0.70268 0.5934 0.0
H629 H 0.35154 0.72101 0.60651 0.0
C630 C 0.30287 0.69076 0.6456 0.0
C631 C 0.2798 0.67264 0.66706 0.0
C632 C 0.33102 0.67945 0.6359 0.0
C633 C 0.28434 0.64225 0.67714 0.0
C634 C 0.3121 0.63076 0.66743 0.0
C635 C 0.36509 0.63917 0.63984 0.0
C636 C 0.38948 0.65839 0.62074 0.0
C637 C 0.33596 0.64949 0.64751 0.0
C638 C 0.38387 0.68753 0.60819 0.0
C639 C 0.35491 0.69804 0.61578 0.0
H640 H 0.74084 0.87819 0.72575 0.0
H641 H 0.75987 0.79542 0.67337 0.0
H642 H 0.80002 0.82985 0.63842 0.0
H643 H 0.83276 0.88332 0.62588 0.0
H644 H 0.81337 0.96531 0.67951 0.0
H645 H 0.76973 0.93134 0.71029 0.0
C646 C 0.75299 0.86764 0.70609 0.0
C647 C 0.74736 0.83424 0.70226 0.0
C648 C 0.7762 0.88747 0.68643 0.0
C649 C 0.76398 0.82105 0.67706 0.0
C650 C 0.78696 0.84072 0.6571 0.0
C651 C 0.81884 0.89368 0.6442 0.0
C652 C 0.82634 0.92677 0.6504 0.0
C653 C 0.79387 0.87391 0.66215 0.0
C654 C 0.80787 0.93998 0.67396 0.0
C655 C 0.78302 0.92055 0.69175 0.0
H656 H 0.7774 0.22941 0.17632 0.0
H657 H 0.81023 0.15348 0.22874 0.0
H658 H 0.77558 0.11381 0.19505 0.0
H659 H 0.73155 0.10038 0.15543 0.0
H660 H 0.69708 0.17554 0.10345 0.0
H661 H 0.73621 0.21575 0.13286 0.0
C662 C 0.77713 0.20419 0.1802 0.0
C663 C 0.79638 0.19455 0.20513 0.0
C664 C 0.75644 0.18131 0.16124 0.0
C665 C 0.79609 0.16174 0.20947 0.0
C666 C 0.77597 0.13893 0.19044 0.0
C667 C 0.73306 0.12551 0.14986 0.0
C668 C 0.71124 0.13488 0.12739 0.0
C669 C 0.75547 0.14842 0.16686 0.0
C670 C 0.71323 0.16765 0.12103 0.0
C671 C 0.73569 0.19066 0.13772 0.0
H672 H 0.42039 0.57507 0.36329 0.0
H673 H 0.44817 0.67222 0.39804 0.0
H674 H 0.47125 0.65344 0.44744 0.0
H675 H 0.4846 0.60976 0.48108 0.0
H676 H 0.45657 0.51235 0.44738 0.0
H677 H 0.43247 0.53086 0.39808 0.0
C678 C 0.43122 0.59218 0.38174 0.0
C679 C 0.43268 0.62526 0.37626 0.0
C680 C 0.44454 0.58114 0.41062 0.0
C681 C 0.44714 0.64677 0.40076 0.0
C682 C 0.46025 0.63601 0.42935 0.0
C683 C 0.47317 0.59244 0.46307 0.0
C684 C 0.47264 0.55954 0.46829 0.0
C685 C 0.45934 0.60329 0.43452 0.0
C686 C 0.45751 0.53776 0.44437 0.0
C687 C 0.44368 0.54838 0.41598 0.0
H688 H 0.12219 0.48224 0.86716 0.0
H689 H 0.08803 0.38489 0.89923 0.0
H690 H 0.06425 0.40401 0.9486 0.0
H691 H 0.0528 0.44823 0.98316 0.0
H692 H 0.08804 0.54565 0.95204 0.0
H693 H 0.11202 0.5266 0.90254 0.0
C694 C 0.10987 0.46511 0.88504 0.0
C695 C 0.10689 0.43199 0.87891 0.0
C696 C 0.09639 0.47631 0.91387 0.0
C697 C 0.09032 0.41044 0.90254 0.0
C698 C 0.07684 0.42138 0.93109 0.0
C699 C 0.06576 0.46539 0.96563 0.0
C700 C 0.06842 0.49846 0.9716 0.0
C701 C 0.0796 0.45425 0.93702 0.0
C702 C 0.08549 0.52011 0.94839 0.0
C703 C 0.09923 0.5092 0.91992 0.0
H704 H 0.58491 0.89009 0.89757 0.0
H705 H 0.58001 0.83281 0.98592 0.0
H706 H 0.55746 0.8729 1.01638 0.0
H707 H 0.54249 0.92561 1.01894 0.0
H708 H 0.54378 0.98174 0.93052 0.0
H709 H 0.56354 0.94011 0.89873 0.0
C710 C 0.57825 0.88591 0.92328 0.0
C711 C 0.58484 0.85858 0.93947 0.0
C712 C 0.56471 0.90887 0.94064 0.0
C713 C 0.57618 0.85395 0.97294 0.0
C714 C 0.56305 0.87678 0.99039 0.0
C715 C 0.54692 0.92861 0.99264 0.0
C716 C 0.54226 0.95679 0.97707 0.0
C717 C 0.5579 0.9046 0.97467 0.0
C718 C 0.54734 0.96021 0.94295 0.0
C719 C 0.55875 0.93651 0.92487 0.0
H720 H 0.979 0.17663 0.41463 0.0
H721 H 0.9083 0.1867 0.49034 0.0
H722 H 0.92743 0.14677 0.52384 0.0
H723 H 0.9621 0.10716 0.53057 0.0
H724 H 0.03139 0.09513 0.45414 0.0
H725 H 1.01429 0.13716 0.42167 0.0
C726 C 0.96765 0.17002 0.43839 0.0
C727 C 0.94218 0.18474 0.44984 0.0
C728 C 0.97821 0.1464 0.45725 0.0
C729 C 0.92826 0.17624 0.48103 0.0
C730 C 0.93894 0.15311 0.5001 0.0
C731 C 0.97354 0.11366 0.50682 0.0
C732 C 0.9979 0.09782 0.49478 0.0
C733 C 0.96359 0.13777 0.48828 0.0
C734 C 1.01246 0.10675 0.46397 0.0
C735 C 1.00275 0.13086 0.44541 0.0
H736 H 0.22029 0.57466 0.15134 0.0
H737 H 0.20474 0.67184 0.1499 0.0
H738 H 0.15325 0.65477 0.12128 0.0
H739 H 0.11226 0.61244 0.0961 0.0
H740 H 0.12712 0.51499 0.0977 0.0
H741 H 0.17863 0.53191 0.12653 0.0
C742 C 0.2055 0.59205 0.14502 0.0
C743 C 0.2168 0.62462 0.15269 0.0
C744 C 0.17562 0.58205 0.12829 0.0
C745 C 0.19718 0.64673 0.14397 0.0
C746 C 0.16753 0.63696 0.12762 0.0
C747 C 0.12679 0.59487 0.10256 0.0
C748 C 0.11557 0.56244 0.09439 0.0
C749 C 0.15654 0.60473 0.11941 0.0
C750 C 0.13491 0.54014 0.10337 0.0
C751 C 0.16449 0.54979 0.12003 0.0
H752 H 0.33507 0.41438 0.63618 0.0
H753 H 0.31568 0.50609 0.66642 0.0
H754 H 0.36607 0.53288 0.6392 0.0
H755 H 0.41587 0.53029 0.60646 0.0
H756 H 0.43418 0.4381 0.57614 0.0
H757 H 0.38382 0.41179 0.60308 0.0
C758 C 0.34155 0.44027 0.63657 0.0
C759 C 0.32129 0.45806 0.65339 0.0
C760 C 0.37046 0.45556 0.62062 0.0
C761 C 0.33079 0.49161 0.65409 0.0
C762 C 0.35957 0.50701 0.63828 0.0
C763 C 0.40877 0.50446 0.60554 0.0
C764 C 0.42902 0.48633 0.5891 0.0
C765 C 0.37963 0.48924 0.62141 0.0
C766 C 0.41932 0.45282 0.5885 0.0
C767 C 0.39043 0.43765 0.60399 0.0
H768 H 0.84148 0.73727 0.91817 0.0
H769 H 0.77356 0.6601 0.96347 0.0
H770 H 0.81906 0.63938 0.98755 0.0
H771 H 0.87823 0.64121 0.99192 0.0
H772 H 0.94573 0.71982 0.94777 0.0
H773 H 0.90022 0.74174 0.92657 0.0
C774 C 0.83671 0.71599 0.93346 0.0
C775 C 0.80439 0.69996 0.93881 0.0
C776 C 0.86285 0.70433 0.94706 0.0
C777 C 0.79832 0.67277 0.95909 0.0
C778 C 0.8243 0.66088 0.97267 0.0
C779 C 0.88305 0.66345 0.9782 0.0
C780 C 0.91548 0.67855 0.9711 0.0
C781 C 0.8567 0.67619 0.96634 0.0
C782 C 0.9211 0.70722 0.95297 0.0
C783 C 0.89508 0.71993 0.941 0.0
H784 H 0.40666 0.84878 0.13388 0.0
H785 H 0.49678 0.84653 0.18437 0.0
H786 H 0.52169 0.89749 0.15907 0.0
H787 H 0.51882 0.94219 0.12035 0.0
H788 H 0.42926 0.94149 0.06774 0.0
H789 H 0.40382 0.89231 0.09553 0.0
C790 C 0.43191 0.85902 0.13919 0.0
C791 C 0.44961 0.84322 0.16113 0.0
C792 C 0.44644 0.8881 0.12392 0.0
C793 C 0.48211 0.85791 0.16805 0.0
C794 C 0.49658 0.88712 0.15332 0.0
C795 C 0.49367 0.9314 0.11518 0.0
C796 C 0.4761 0.9458 0.09185 0.0
C797 C 0.47908 0.90241 0.13098 0.0
C798 C 0.44357 0.93111 0.08535 0.0
C799 C 0.42889 0.90286 0.10131 0.0
H800 H 0.06937 0.2041 0.68228 0.0
H801 H 0.15637 0.22862 0.62194 0.0
H802 H 0.14153 0.17859 0.59204 0.0
H803 H 0.1036 0.12801 0.58179 0.0
H804 H 0.01799 0.10145 0.64348 0.0
H805 H 0.0329 0.1515 0.67417 0.0
C806 C 0.08533 0.19843 0.66287 0.0
C807 C 0.11371 0.22085 0.65418 0.0
C808 C 0.07694 0.169 0.64586 0.0
C809 C 0.13386 0.21266 0.62875 0.0
C810 C 0.12555 0.18376 0.61169 0.0
C811 C 0.08819 0.13306 0.602 0.0
C812 C 0.05959 0.11086 0.61009 0.0
C813 C 0.09702 0.16186 0.61976 0.0
C814 C 0.04019 0.11791 0.63663 0.0
C815 C 0.04866 0.14666 0.65419 0.0
H816 H 0.73301 0.33587 0.45323 0.0
H817 H 0.76328 0.41539 0.38701 0.0
H818 H 0.71669 0.43852 0.40446 0.0
H819 H 0.66575 0.43466 0.43631 0.0
H820 H 0.63552 0.35535 0.50266 0.0
H821 H 0.68404 0.33391 0.48786 0.0
C822 C 0.7298 0.35859 0.44311 0.0
C823 C 0.75149 0.37376 0.41868 0.0
C824 C 0.70286 0.37168 0.45313 0.0
C825 C 0.74669 0.40299 0.40551 0.0
C826 C 0.72009 0.41626 0.4155 0.0
C827 C 0.66982 0.41267 0.44747 0.0
C828 C 0.64698 0.39644 0.47029 0.0
C829 C 0.69768 0.40049 0.4388 0.0
C830 C 0.65282 0.3683 0.48509 0.0
C831 C 0.68047 0.35599 0.47655 0.0
loop_
_geom_bond_atom_site_label_1
_geom_bond_atom_site_label_2
_geom_bond_distance
_geom_bond_site_symmetry_2
_ccdc_geom_bond_type
C0 C1 1.384 . S
C0 H13 0.947 . S
C0 C35 1.382 . S
C1 C0 1.384 . S
C1 C2 1.378 . S
C2 C1 1.378 . S
C2 C3 1.378 . S
C2 H14 0.952 . S
C3 C2 1.378 . S
C3 H15 0.950 . S
C3 C34 1.383 . S
H4 C23 0.947 . S
H5 C24 0.946 . S
H6 C26 0.953 . S
H7 C27 0.945 . S
H8 C29 0.952 . S
H9 C30 0.949 . S
H10 C32 0.950 . S
H11 C33 0.948 . S
H12 C35 0.951 . S
H13 C0 0.947 . S
H14 C2 0.952 . S
H15 C3 0.950 . S
N16 C19 1.382 . S
N16 C21 1.363 . S
N17 C19 1.371 . S
N17 C20 1.372 . S
N18 C20 1.361 . S
N18 C21 1.377 . S
C19 N16 1.382 . S
C19 N17 1.371 . S
C19 C22 1.480 . S
C20 N17 1.372 . S
C20 N18 1.361 . S
C20 C28 1.457 . S
C21 N16 1.363 . S
C21 N18 1.377 . S
C21 C34 1.479 . S
C22 C19 1.480 . S
C22 C23 1.383 . S
C22 C27 1.385 . S
C23 H4 0.947 . S
C23 C22 1.383 . S
C23 C24 1.388 . S
C24 H5 0.946 . S
C24 C23 1.388 . S
C24 C25 1.384 . S
C25 C24 1.384 . S
C25 C26 1.377 . S
C26 H6 0.953 . S
C26 C25 1.377 . S
C26 C27 1.369 . S
C27 H7 0.945 . S
C27 C22 1.385 . S
C27 C26 1.369 . S
C28 C20 1.457 . S
C28 C29 1.372 . S
C28 C33 1.364 . S
C29 H8 0.952 . S
C29 C28 1.372 . S
C29 C30 1.389 . S
C30 H9 0.949 . S
C30 C29 1.389 . S
C30 C31 1.387 . S
C31 C30 1.387 . S
C31 C32 1.372 . S
C32 H10 0.950 . S
C32 C31 1.372 . S
C32 C33 1.379 . S
C33 H11 0.948 . S
C33 C28 1.364 . S
C33 C32 1.379 . S
C34 C3 1.383 . S
C34 C21 1.479 . S
C34 C35 1.398 . S
C35 C0 1.382 . S
C35 H12 0.951 . S
C35 C34 1.398 . S
C36 C37 1.384 . S
C36 H49 0.947 . S
C36 C71 1.382 . S
C37 C36 1.384 . S
C37 C38 1.378 . S
C38 C37 1.378 . S
C38 C39 1.378 . S
C38 H50 0.952 . S
C39 C38 1.378 . S
C39 H51 0.950 . S
C39 C70 1.383 . S
H40 C59 0.947 . S
H41 C60 0.946 . S
H42 C62 0.953 . S
H43 C63 0.945 . S
H44 C65 0.952 . S
H45 C66 0.949 . S
H46 C68 0.950 . S
H47 C69 0.948 . S
H48 C71 0.951 . S
H49 C36 0.947 . S
H50 C38 0.952 . S
H51 C39 0.950 . S
N52 C55 1.382 . S
N52 C57 1.363 . S
N53 C55 1.371 . S
N53 C56 1.372 . S
N54 C56 1.361 . S
N54 C57 1.377 . S
C55 N52 1.382 . S
C55 N53 1.371 . S
C55 C58 1.480 . S
C56 N53 1.372 . S
C56 N54 1.361 . S
C56 C64 1.457 . S
C57 N52 1.363 . S
C57 N54 1.377 . S
C57 C70 1.479 . S
C58 C55 1.480 . S
C58 C59 1.383 . S
C58 C63 1.385 . S
C59 H40 0.947 . S
C59 C58 1.383 . S
C59 C60 1.388 . S
C60 H41 0.946 . S
C60 C59 1.388 . S
C60 C61 1.384 . S
C61 C60 1.384 . S
C61 C62 1.377 . S
C62 H42 0.953 . S
C62 C61 1.377 . S
C62 C63 1.369 . S
C63 H43 0.945 . S
C63 C58 1.385 . S
C63 C62 1.369 . S
C64 C56 1.457 . S
C64 C65 1.372 . S
C64 C69 1.364 . S
C65 H44 0.952 . S
C65 C64 1.372 . S
C65 C66 1.389 . S
C66 H45 0.949 . S
C66 C65 1.389 . S
C66 C67 1.387 . S
C67 C66 1.387 . S
C67 C68 1.372 . S
C68 H46 0.950 . S
C68 C67 1.372 . S
C68 C69 1.379 . S
C69 H47 0.948 . S
C69 C64 1.364 . S
C69 C68 1.379 . S
C70 C39 1.383 . S
C70 C57 1.479 . S
C70 C71 1.398 . S
C71 C36 1.382 . S
C71 H48 0.951 . S
C71 C70 1.398 . S
C72 C73 1.384 . S
C72 H85 0.947 . S
C72 C107 1.382 . S
C73 C72 1.384 . S
C73 C74 1.378 . S
C74 C73 1.378 . S
C74 C75 1.378 . S
C74 H86 0.952 . S
C75 C74 1.378 . S
C75 H87 0.950 . S
C75 C106 1.383 . S
H76 C95 0.947 . S
H77 C96 0.946 . S
H78 C98 0.953 . S
H79 C99 0.945 . S
H80 C101 0.952 . S
H81 C102 0.949 . S
H82 C104 0.950 . S
H83 C105 0.948 . S
H84 C107 0.951 . S
H85 C72 0.947 . S
H86 C74 0.952 . S
H87 C75 0.950 . S
N88 C91 1.382 . S
N88 C93 1.363 . S
N89 C91 1.371 . S
N89 C92 1.372 . S
N90 C92 1.361 . S
N90 C93 1.377 . S
C91 N88 1.382 . S
C91 N89 1.371 . S
C91 C94 1.480 . S
C92 N89 1.372 . S
C92 N90 1.361 . S
C92 C100 1.457 . S
C93 N88 1.363 . S
C93 N90 1.377 . S
C93 C106 1.479 . S
C94 C91 1.480 . S
C94 C95 1.383 . S
C94 C99 1.385 . S
C95 H76 0.947 . S
C95 C94 1.383 . S
C95 C96 1.388 . S
C96 H77 0.946 . S
C96 C95 1.388 . S
C96 C97 1.384 . S
C97 C96 1.384 . S
C97 C98 1.377 . S
C98 H78 0.953 . S
C98 C97 1.377 . S
C98 C99 1.369 . S
C99 H79 0.945 . S
C99 C94 1.385 . S
C99 C98 1.369 . S
C100 C92 1.457 . S
C100 C101 1.372 . S
C100 C105 1.364 . S
C101 H80 0.952 . S
C101 C100 1.372 . S
C101 C102 1.389 . S
C102 H81 0.949 . S
C102 C101 1.389 . S
C102 C103 1.387 . S
C103 C102 1.387 . S
C103 C104 1.372 . S
C104 H82 0.950 . S
C104 C103 1.372 . S
C104 C105 1.379 . S
C105 H83 0.948 . S
C105 C100 1.364 . S
C105 C104 1.379 . S
C106 C75 1.383 . S
C106 C93 1.479 . S
C106 C107 1.398 . S
C107 C72 1.382 . S
C107 H84 0.951 . S
C107 C106 1.398 . S
C108 C109 1.384 . S
C108 H121 0.947 . S
C108 C143 1.382 . S
C109 C108 1.384 . S
C109 C110 1.378 . S
C110 C109 1.378 . S
C110 C111 1.378 . S
C110 H122 0.952 . S
C111 C110 1.378 . S
C111 H123 0.950 . S
C111 C142 1.383 . S
H112 C131 0.947 . S
H113 C132 0.946 . S
H114 C134 0.953 . S
H115 C135 0.945 . S
H116 C137 0.952 . S
H117 C138 0.949 . S
H118 C140 0.950 . S
H119 C141 0.948 . S
H120 C143 0.951 . S
H121 C108 0.947 . S
H122 C110 0.952 . S
H123 C111 0.950 . S
N124 C127 1.382 . S
N124 C129 1.363 . S
N125 C127 1.371 . S
N125 C128 1.372 . S
N126 C128 1.361 . S
N126 C129 1.377 . S
C127 N124 1.382 . S
C127 N125 1.371 . S
C127 C130 1.480 . S
C128 N125 1.372 . S
C128 N126 1.361 . S
C128 C136 1.457 . S
C129 N124 1.363 . S
C129 N126 1.377 . S
C129 C142 1.479 . S
C130 C127 1.480 . S
C130 C131 1.383 . S
C130 C135 1.385 . S
C131 H112 0.947 . S
C131 C130 1.383 . S
C131 C132 1.388 . S
C132 H113 0.946 . S
C132 C131 1.388 . S
C132 C133 1.384 . S
C133 C132 1.384 . S
C133 C134 1.377 . S
C134 H114 0.953 . S
C134 C133 1.377 . S
C134 C135 1.369 . S
C135 H115 0.945 . S
C135 C130 1.385 . S
C135 C134 1.369 . S
C136 C128 1.457 . S
C136 C137 1.372 . S
C136 C141 1.364 . S
C137 H116 0.952 . S
C137 C136 1.372 . S
C137 C138 1.389 . S
C138 H117 0.949 . S
C138 C137 1.389 . S
C138 C139 1.387 . S
C139 C138 1.387 . S
C139 C140 1.372 . S
C140 H118 0.950 . S
C140 C139 1.372 . S
C140 C141 1.379 . S
C141 H119 0.948 . S
C141 C136 1.364 . S
C141 C140 1.379 . S
C142 C111 1.383 . S
C142 C129 1.479 . S
C142 C143 1.398 . S
C143 C108 1.382 . S
C143 H120 0.951 . S
C143 C142 1.398 . S
C144 C145 1.384 . S
C144 H157 0.947 . S
C144 C179 1.382 . S
C145 C144 1.384 . S
C145 C146 1.378 . S
C146 C145 1.378 . S
C146 C147 1.378 . S
C146 H158 0.952 . S
C147 C146 1.378 . S
C147 H159 0.950 . S
C147 C178 1.383 . S
H148 C167 0.947 . S
H149 C168 0.946 . S
H150 C170 0.953 . S
H151 C171 0.945 . S
H152 C173 0.952 . S
H153 C174 0.949 . S
H154 C176 0.950 . S
H155 C177 0.948 . S
H156 C179 0.951 . S
H157 C144 0.947 . S
H158 C146 0.952 . S
H159 C147 0.950 . S
N160 C163 1.382 . S
N160 C165 1.363 . S
N161 C163 1.371 . S
N161 C164 1.372 . S
N162 C164 1.361 . S
N162 C165 1.377 . S
C163 N160 1.382 . S
C163 N161 1.371 . S
C163 C166 1.480 . S
C164 N161 1.372 . S
C164 N162 1.361 . S
C164 C172 1.457 . S
C165 N160 1.363 . S
C165 N162 1.377 . S
C165 C178 1.479 . S
C166 C163 1.480 . S
C166 C167 1.383 . S
C166 C171 1.385 . S
C167 H148 0.947 . S
C167 C166 1.383 . S
C167 C168 1.388 . S
C168 H149 0.946 . S
C168 C167 1.388 . S
C168 C169 1.384 . S
C169 C168 1.384 . S
C169 C170 1.377 . S
C170 H150 0.953 . S
C170 C169 1.377 . S
C170 C171 1.369 . S
C171 H151 0.945 . S
C171 C166 1.385 . S
C171 C170 1.369 . S
C172 C164 1.457 . S
C172 C173 1.372 . S
C172 C177 1.364 . S
C173 H152 0.952 . S
C173 C172 1.372 . S
C173 C174 1.389 . S
C174 H153 0.949 . S
C174 C173 1.389 . S
C174 C175 1.387 . S
C175 C174 1.387 . S
C175 C176 1.372 . S
C176 H154 0.950 . S
C176 C175 1.372 . S
C176 C177 1.379 . S
C177 H155 0.948 . S
C177 C172 1.364 . S
C177 C176 1.379 . S
C178 C147 1.383 . S
C178 C165 1.479 . S
C178 C179 1.398 . S
C179 C144 1.382 . S
C179 H156 0.951 . S
C179 C178 1.398 . S
C180 C181 1.384 . S
C180 H193 0.947 . S
C180 C215 1.382 . S
C181 C180 1.384 . S
C181 C182 1.378 . S
C182 C181 1.378 . S
C182 C183 1.378 . S
C182 H194 0.952 . S
C183 C182 1.378 . S
C183 H195 0.950 . S
C183 C214 1.383 . S
H184 C203 0.947 . S
H185 C204 0.946 . S
H186 C206 0.953 . S
H187 C207 0.945 . S
H188 C209 0.952 . S
H189 C210 0.949 . S
H190 C212 0.950 . S
H191 C213 0.948 . S
H192 C215 0.951 . S
H193 C180 0.947 . S
H194 C182 0.952 . S
H195 C183 0.950 . S
N196 C199 1.382 . S
N196 C201 1.363 . S
N197 C199 1.371 . S
N197 C200 1.372 . S
N198 C200 1.361 . S
N198 C201 1.377 . S
C199 N196 1.382 . S
C199 N197 1.371 . S
C199 C202 1.480 . S
C200 N197 1.372 . S
C200 N198 1.361 . S
C200 C208 1.457 . S
C201 N196 1.363 . S
C201 N198 1.377 . S
C201 C214 1.479 . S
C202 C199 1.480 . S
C202 C203 1.383 . S
C202 C207 1.385 . S
C203 H184 0.947 . S
C203 C202 1.383 . S
C203 C204 1.388 . S
C204 H185 0.946 . S
C204 C203 1.388 . S
C204 C205 1.384 . S
C205 C204 1.384 . S
C205 C206 1.377 . S
C206 H186 0.953 . S
C206 C205 1.377 . S
C206 C207 1.369 . S
C207 H187 0.945 . S
C207 C202 1.385 . S
C207 C206 1.369 . S
C208 C200 1.457 . S
C208 C209 1.372 . S
C208 C213 1.364 . S
C209 H188 0.952 . S
C209 C208 1.372 . S
C209 C210 1.389 . S
C210 H189 0.949 . S
C210 C209 1.389 . S
C210 C211 1.387 . S
C211 C210 1.387 . S
C211 C212 1.372 . S
C212 H190 0.950 . S
C212 C211 1.372 . S
C212 C213 1.379 . S
C213 H191 0.948 . S
C213 C208 1.364 . S
C213 C212 1.379 . S
C214 C183 1.383 . S
C214 C201 1.479 . S
C214 C215 1.398 . S
C215 C180 1.382 . S
C215 H192 0.951 . S
C215 C214 1.398 . S
C216 C217 1.384 . S
C216 H229 0.947 . S
C216 C251 1.382 . S
C217 C216 1.384 . S
C217 C218 1.378 . S
C218 C217 1.378 . S
C218 C219 1.378 . S
C218 H230 0.952 . S
C219 C218 1.378 . S
C219 H231 0.950 . S
C219 C250 1.383 . S
H220 C239 0.947 . S
H221 C240 0.946 . S
H222 C242 0.953 . S
H223 C243 0.945 . S
H224 C245 0.952 . S
H225 C246 0.949 . S
H226 C248 0.950 . S
H227 C249 0.948 . S
H228 C251 0.951 . S
H229 C216 0.947 . S
H230 C218 0.952 . S
H231 C219 0.950 . S
N232 C235 1.382 . S
N232 C237 1.363 . S
N233 C235 1.371 . S
N233 C236 1.372 . S
N234 C236 1.361 . S
N234 C237 1.377 . S
C235 N232 1.382 . S
C235 N233 1.371 . S
C235 C238 1.480 . S
C236 N233 1.372 . S
C236 N234 1.361 . S
C236 C244 1.457 . S
C237 N232 1.363 . S
C237 N234 1.377 . S
C237 C250 1.479 . S
C238 C235 1.480 . S
C238 C239 1.383 . S
C238 C243 1.385 . S
C239 H220 0.947 . S
C239 C238 1.383 . S
C239 C240 1.388 . S
C240 H221 0.946 . S
C240 C239 1.388 . S
C240 C241 1.384 . S
C241 C240 1.384 . S
C241 C242 1.377 . S
C242 H222 0.953 . S
C242 C241 1.377 . S
C242 C243 1.369 . S
C243 H223 0.945 . S
C243 C238 1.385 . S
C243 C242 1.369 . S
C244 C236 1.457 . S
C244 C245 1.372 . S
C244 C249 1.364 . S
C245 H224 0.952 . S
C245 C244 1.372 . S
C245 C246 1.389 . S
C246 H225 0.949 . S
C246 C245 1.389 . S
C246 C247 1.387 . S
C247 C246 1.387 . S
C247 C248 1.372 . S
C248 H226 0.950 . S
C248 C247 1.372 . S
C248 C249 1.379 . S
C249 H227 0.948 . S
C249 C244 1.364 . S
C249 C248 1.379 . S
C250 C219 1.383 . S
C250 C237 1.479 . S
C250 C251 1.398 . S
C251 C216 1.382 . S
C251 H228 0.951 . S
C251 C250 1.398 . S
C252 C253 1.384 . S
C252 H265 0.947 . S
C252 C287 1.382 . S
C253 C252 1.384 . S
C253 C254 1.378 . S
C254 C253 1.378 . S
C254 C255 1.378 . S
C254 H266 0.952 . S
C255 C254 1.378 . S
C255 H267 0.950 . S
C255 C286 1.383 . S
H256 C275 0.947 . S
H257 C276 0.946 . S
H258 C278 0.953 . S
H259 C279 0.945 . S
H260 C281 0.952 . S
H261 C282 0.949 . S
H262 C284 0.950 . S
H263 C285 0.948 . S
H264 C287 0.951 . S
H265 C252 0.947 . S
H266 C254 0.952 . S
H267 C255 0.950 . S
N268 C271 1.382 . S
N268 C273 1.363 . S
N269 C271 1.371 . S
N269 C272 1.372 . S
N270 C272 1.361 . S
N270 C273 1.377 . S
C271 N268 1.382 . S
C271 N269 1.371 . S
C271 C274 1.480 . S
C272 N269 1.372 . S
C272 N270 1.361 . S
C272 C280 1.457 . S
C273 N268 1.363 . S
C273 N270 1.377 . S
C273 C286 1.479 . S
C274 C271 1.480 . S
C274 C275 1.383 . S
C274 C279 1.385 . S
C275 H256 0.947 . S
C275 C274 1.383 . S
C275 C276 1.388 . S
C276 H257 0.946 . S
C276 C275 1.388 . S
C276 C277 1.384 . S
C277 C276 1.384 . S
C277 C278 1.377 . S
C278 H258 0.953 . S
C278 C277 1.377 . S
C278 C279 1.369 . S
C279 H259 0.945 . S
C279 C274 1.385 . S
C279 C278 1.369 . S
C280 C272 1.457 . S
C280 C281 1.372 . S
C280 C285 1.364 . S
C281 H260 0.952 . S
C281 C280 1.372 . S
C281 C282 1.389 . S
C282 H261 0.949 . S
C282 C281 1.389 . S
C282 C283 1.387 . S
C283 C282 1.387 . S
C283 C284 1.372 . S
C284 H262 0.950 . S
C284 C283 1.372 . S
C284 C285 1.379 . S
C285 H263 0.948 . S
C285 C280 1.364 . S
C285 C284 1.379 . S
C286 C255 1.383 . S
C286 C273 1.479 . S
C286 C287 1.398 . S
C287 C252 1.382 . S
C287 H264 0.951 . S
C287 C286 1.398 . S
Tb288 C297 2.764 . S
Tb288 O298 2.325 . S
Tb288 O301 2.303 . S
Tb288 O305 2.322 1_545 S
Tb288 O306 2.349 1_545 S
Tb288 O309 2.415 . S
Tb288 O310 2.399 . S
Tb289 O299 2.317 1_565 S
Tb289 O300 2.342 1_565 S
Tb289 O302 2.422 . S
Tb289 O303 2.400 . S
Tb289 O304 2.330 1_655 S
Tb289 O307 2.309 . S
Tb289 C318 2.769 . S
C290 O306 1.261 1_655 S
C290 O307 1.257 . S
C291 C294 1.358 . S
C291 C295 1.332 . S
C291 C297 1.504 . S
C292 C293 1.373 . S
C292 C296 1.308 . S
C293 C292 1.373 . S
C293 C294 1.429 . S
C293 H320 0.932 . S
C294 C291 1.358 . S
C294 C293 1.429 . S
C294 H321 0.930 . S
C295 C291 1.332 . S
C295 C296 1.394 . S
C295 H322 0.932 . S
C296 C292 1.308 . S
C296 C295 1.394 . S
C296 H323 0.929 . S
C297 Tb288 2.764 . S
C297 C291 1.504 . S
C297 O309 1.239 . S
C297 O310 1.263 . S
O298 Tb288 2.325 . S
O298 C308 1.236 1_455 S
O299 Tb289 2.317 1_545 S
O299 C308 1.257 . S
O300 Tb289 2.342 1_545 S
O300 C311 1.261 1_655 S
O301 Tb288 2.303 . S
O301 C311 1.257 . S
O302 Tb289 2.422 . S
O302 C318 1.239 . S
O303 Tb289 2.400 . S
O303 C318 1.263 . S
O304 Tb289 2.330 1_455 S
O304 C319 1.236 . S
O305 Tb288 2.322 1_565 S
O305 C319 1.257 . S
O306 Tb288 2.349 1_565 S
O306 C290 1.261 1_455 S
O307 Tb289 2.309 . S
O307 C290 1.257 . S
C308 O298 1.236 1_655 S
C308 O299 1.257 . S
O309 Tb288 2.415 . S
O309 C297 1.239 . S
O310 Tb288 2.399 . S
O310 C297 1.263 . S
C311 O300 1.261 1_455 S
C311 O301 1.257 . S
C312 C315 1.358 . S
C312 C316 1.332 . S
C312 C318 1.504 . S
C313 C314 1.373 . S
C313 C317 1.308 . S
C314 C313 1.373 . S
C314 C315 1.429 . S
C314 H324 0.932 . S
C315 C312 1.358 . S
C315 C314 1.429 . S
C315 H325 0.930 . S
C316 C312 1.332 . S
C316 C317 1.394 . S
C316 H326 0.932 . S
C317 C313 1.308 . S
C317 C316 1.394 . S
C317 H327 0.929 . S
C318 Tb289 2.769 . S
C318 O302 1.239 . S
C318 O303 1.263 . S
C318 C312 1.504 . S
C319 O304 1.236 . S
C319 O305 1.257 . S
H320 C293 0.932 . S
H321 C294 0.930 . S
H322 C295 0.932 . S
H323 C296 0.929 . S
H324 C314 0.932 . S
H325 C315 0.930 . S
H326 C316 0.932 . S
H327 C317 0.929 . S
Tb328 C337 2.764 . S
Tb328 O338 2.325 1_554 S
Tb328 O341 2.303 . S
Tb328 O345 2.322 1_545 S
Tb328 O346 2.362 1_545 S
Tb328 O349 2.415 . S
Tb328 O350 2.399 . S
Tb329 O339 2.322 1_565 S
Tb329 O340 2.349 1_566 S
Tb329 O342 2.415 . S
Tb329 O343 2.399 . S
Tb329 O344 2.325 1_556 S
Tb329 O347 2.303 . S
Tb329 C358 2.764 . S
C330 O346 1.245 1_556 S
C330 O347 1.257 . S
C331 C334 1.358 . S
C331 C335 1.332 . S
C331 C337 1.504 . S
C332 C333 1.373 . S
C332 C336 1.308 . S
C333 C332 1.373 . S
C333 C334 1.429 . S
C333 H360 0.932 . S
C334 C331 1.358 . S
C334 C333 1.429 . S
C334 H361 0.930 . S
C335 C331 1.332 . S
C335 C336 1.394 . S
C335 H362 0.932 . S
C336 C332 1.308 . S
C336 C335 1.394 . S
C336 H363 0.929 . S
C337 Tb328 2.764 . S
C337 C331 1.504 . S
C337 O349 1.239 . S
C337 O350 1.263 . S
O338 Tb328 2.325 1_556 S
O338 C348 1.236 . S
O339 Tb329 2.322 1_545 S
O339 C348 1.257 . S
O340 Tb329 2.349 1_544 S
O340 C351 1.261 . S
O341 Tb328 2.303 . S
O341 C351 1.257 . S
O342 Tb329 2.415 . S
O342 C358 1.239 . S
O343 Tb329 2.399 . S
O343 C358 1.263 . S
O344 Tb329 2.325 1_554 S
O344 C359 1.236 . S
O345 Tb328 2.322 1_565 S
O345 C359 1.257 . S
O346 Tb328 2.362 1_565 S
O346 C330 1.245 1_554 S
O347 Tb329 2.303 . S
O347 C330 1.257 . S
C348 O338 1.236 . S
C348 O339 1.257 . S
O349 Tb328 2.415 . S
O349 C337 1.239 . S
O350 Tb328 2.399 . S
O350 C337 1.263 . S
C351 O340 1.261 . S
C351 O341 1.257 . S
C352 C355 1.358 . S
C352 C356 1.332 . S
C352 C358 1.504 . S
C353 C354 1.373 . S
C353 C357 1.308 . S
C354 C353 1.373 . S
C354 C355 1.429 . S
C354 H364 0.932 . S
C355 C352 1.358 . S
C355 C354 1.429 . S
C355 H365 0.930 . S
C356 C352 1.332 . S
C356 C357 1.394 . S
C356 H366 0.932 . S
C357 C353 1.308 . S
C357 C356 1.394 . S
C357 H367 0.929 . S
C358 Tb329 2.764 . S
C358 O342 1.239 . S
C358 O343 1.263 . S
C358 C352 1.504 . S
C359 O344 1.236 . S
C359 O345 1.257 . S
H360 C333 0.932 . S
H361 C334 0.930 . S
H362 C335 0.932 . S
H363 C336 0.929 . S
H364 C354 0.932 . S
H365 C355 0.930 . S
H366 C356 0.932 . S
H367 C357 0.929 . S
Tb368 C377 2.764 . S
Tb368 O378 2.325 . S
Tb368 O381 2.303 . S
Tb368 O385 2.322 . S
Tb368 O386 2.349 . S
Tb368 O389 2.415 . S
Tb368 O390 2.399 . S
Tb369 O379 2.322 . S
Tb369 O380 2.349 . S
Tb369 O382 2.415 . S
Tb369 O383 2.399 . S
Tb369 O384 2.325 . S
Tb369 O387 2.303 . S
Tb369 C398 2.764 . S
C370 O386 1.261 . S
C370 O387 1.257 . S
C371 C374 1.358 . S
C371 C375 1.332 . S
C371 C377 1.504 . S
C372 C373 1.373 . S
C372 C376 1.308 . S
C373 C372 1.373 . S
C373 C374 1.429 . S
C373 H400 0.932 . S
C374 C371 1.358 . S
C374 C373 1.429 . S
C374 H401 0.930 . S
C375 C371 1.332 . S
C375 C376 1.394 . S
C375 H402 0.932 . S
C376 C372 1.308 . S
C376 C375 1.394 . S
C376 H403 0.929 . S
C377 Tb368 2.764 . S
C377 C371 1.504 . S
C377 O389 1.239 . S
C377 O390 1.263 . S
O378 Tb368 2.325 . S
O378 C388 1.236 . S
O379 Tb369 2.322 . S
O379 C388 1.257 . S
O380 Tb369 2.349 . S
O380 C391 1.261 . S
O381 Tb368 2.303 . S
O381 C391 1.257 . S
O382 Tb369 2.415 . S
O382 C398 1.239 . S
O383 Tb369 2.399 . S
O383 C398 1.263 . S
O384 Tb369 2.325 . S
O384 C399 1.236 . S
O385 Tb368 2.322 . S
O385 C399 1.257 . S
O386 Tb368 2.349 . S
O386 C370 1.261 . S
O387 Tb369 2.303 . S
O387 C370 1.257 . S
C388 O378 1.236 . S
C388 O379 1.257 . S
O389 Tb368 2.415 . S
O389 C377 1.239 . S
O390 Tb368 2.399 . S
O390 C377 1.263 . S
C391 O380 1.261 . S
C391 O381 1.257 . S
C392 C395 1.358 . S
C392 C396 1.332 . S
C392 C398 1.504 . S
C393 C394 1.373 . S
C393 C397 1.308 . S
C394 C393 1.373 . S
C394 C395 1.429 . S
C394 H404 0.932 . S
C395 C392 1.358 . S
C395 C394 1.429 . S
C395 H405 0.930 . S
C396 C392 1.332 . S
C396 C397 1.394 . S
C396 H406 0.932 . S
C397 C393 1.308 . S
C397 C396 1.394 . S
C397 H407 0.929 . S
C398 Tb369 2.764 . S
C398 O382 1.239 . S
C398 O383 1.263 . S
C398 C392 1.504 . S
C399 O384 1.236 . S
C399 O385 1.257 . S
H400 C373 0.932 . S
H401 C374 0.930 . S
H402 C375 0.932 . S
H403 C376 0.929 . S
H404 C394 0.932 . S
H405 C395 0.930 . S
H406 C396 0.932 . S
H407 C397 0.929 . S
Tb408 C417 2.764 1_455 S
Tb408 O418 2.325 1_455 S
Tb408 O421 2.303 1_456 S
Tb408 O425 2.322 1_556 S
Tb408 O426 2.349 . S
Tb408 O429 2.415 1_455 S
Tb408 O430 2.399 1_455 S
Tb409 O419 2.322 1_455 S
Tb409 O420 2.349 1_455 S
Tb409 O422 2.415 . S
Tb409 O423 2.399 . S
Tb409 O424 2.325 . S
Tb409 O427 2.303 1_554 S
Tb409 C438 2.764 . S
C410 O426 1.261 . S
C410 O427 1.257 . S
C411 C414 1.358 . S
C411 C415 1.332 . S
C411 C417 1.504 . S
C412 C413 1.373 . S
C412 C416 1.308 . S
C413 C412 1.373 . S
C413 C414 1.429 . S
C413 H440 0.932 . S
C414 C411 1.358 . S
C414 C413 1.429 . S
C414 H441 0.930 . S
C415 C411 1.332 . S
C415 C416 1.394 . S
C415 H442 0.932 . S
C416 C412 1.308 . S
C416 C415 1.394 . S
C416 H443 0.929 . S
C417 Tb408 2.764 1_655 S
C417 C411 1.504 . S
C417 O429 1.239 . S
C417 O430 1.263 . S
O418 Tb408 2.325 1_655 S
O418 C428 1.236 . S
O419 Tb409 2.322 1_655 S
O419 C428 1.257 1_554 S
O420 Tb409 2.349 1_655 S
O420 C431 1.261 . S
O421 Tb408 2.303 1_654 S
O421 C431 1.257 . S
O422 Tb409 2.415 . S
O422 C438 1.239 . S
O423 Tb409 2.399 . S
O423 C438 1.263 . S
O424 Tb409 2.325 . S
O424 C439 1.236 . S
O425 Tb408 2.322 1_554 S
O425 C439 1.257 . S
O426 Tb408 2.349 . S
O426 C410 1.261 . S
O427 Tb409 2.303 1_556 S
O427 C410 1.257 . S
C428 O418 1.236 . S
C428 O419 1.257 1_556 S
O429 Tb408 2.415 1_655 S
O429 C417 1.239 . S
O430 Tb408 2.399 1_655 S
O430 C417 1.263 . S
C431 O420 1.261 . S
C431 O421 1.257 . S
C432 C435 1.358 . S
C432 C436 1.332 . S
C432 C438 1.504 . S
C433 C434 1.373 . S
C433 C437 1.308 . S
C434 C433 1.373 . S
C434 C435 1.429 . S
C434 H444 0.932 . S
C435 C432 1.358 . S
C435 C434 1.429 . S
C435 H445 0.930 . S
C436 C432 1.332 . S
C436 C437 1.394 . S
C436 H446 0.932 . S
C437 C433 1.308 . S
C437 C436 1.394 . S
C437 H447 0.929 . S
C438 Tb409 2.764 . S
C438 O422 1.239 . S
C438 O423 1.263 . S
C438 C432 1.504 . S
C439 O424 1.236 . S
C439 O425 1.257 . S
H440 C413 0.932 . S
H441 C414 0.930 . S
H442 C415 0.932 . S
H443 C416 0.929 . S
H444 C434 0.932 . S
H445 C435 0.930 . S
H446 C436 0.932 . S
H447 C437 0.929 . S
H448 C454 0.930 . S
H449 C457 0.930 . S
H450 C458 0.930 . S
H451 C459 0.930 . S
H452 C462 0.930 . S
H453 C463 0.930 . S
C454 H448 0.930 . S
C454 C455 1.355 . S
C454 C456 1.415 . S
C455 C454 1.355 . S
C455 C457 1.419 . S
C456 C454 1.415 . S
C456 C461 1.425 . S
C456 C463 1.409 . S
C457 H449 0.930 . S
C457 C455 1.419 . S
C457 C458 1.362 . S
C458 H450 0.930 . S
C458 C457 1.362 . S
C458 C461 1.409 . S
C459 H451 0.930 . S
C459 C460 1.355 . S
C459 C461 1.415 . S
C460 C459 1.355 . S
C460 C462 1.419 . S
C461 C456 1.425 . S
C461 C458 1.409 . S
C461 C459 1.415 . S
C462 H452 0.930 . S
C462 C460 1.419 . S
C462 C463 1.362 . S
C463 H453 0.930 . S
C463 C456 1.409 . S
C463 C462 1.362 . S
H464 C470 0.930 . S
H465 C473 0.930 . S
H466 C474 0.930 . S
H467 C475 0.930 . S
H468 C478 0.930 . S
H469 C479 0.930 . S
C470 H464 0.930 . S
C470 C471 1.355 . S
C470 C472 1.415 . S
C471 C470 1.355 . S
C471 C473 1.419 . S
C472 C470 1.415 . S
C472 C477 1.425 . S
C472 C479 1.409 . S
C473 H465 0.930 . S
C473 C471 1.419 . S
C473 C474 1.362 . S
C474 H466 0.930 . S
C474 C473 1.362 . S
C474 C477 1.409 . S
C475 H467 0.930 . S
C475 C476 1.355 . S
C475 C477 1.415 . S
C476 C475 1.355 . S
C476 C478 1.419 . S
C477 C472 1.425 . S
C477 C474 1.409 . S
C477 C475 1.415 . S
C478 H468 0.930 . S
C478 C476 1.419 . S
C478 C479 1.362 . S
C479 H469 0.930 . S
C479 C472 1.409 . S
C479 C478 1.362 . S
H480 C486 0.930 . S
H481 C489 0.930 . S
H482 C490 0.930 . S
H483 C491 0.930 . S
H484 C494 0.930 . S
H485 C495 0.930 . S
C486 H480 0.930 . S
C486 C487 1.355 . S
C486 C488 1.415 . S
C487 C486 1.355 . S
C487 C489 1.419 . S
C488 C486 1.415 . S
C488 C493 1.425 . S
C488 C495 1.409 . S
C489 H481 0.930 . S
C489 C487 1.419 . S
C489 C490 1.362 . S
C490 H482 0.930 . S
C490 C489 1.362 . S
C490 C493 1.409 . S
C491 H483 0.930 . S
C491 C492 1.355 . S
C491 C493 1.415 . S
C492 C491 1.355 . S
C492 C494 1.419 . S
C493 C488 1.425 . S
C493 C490 1.409 . S
C493 C491 1.415 . S
C494 H484 0.930 . S
C494 C492 1.419 . S
C494 C495 1.362 . S
C495 H485 0.930 . S
C495 C488 1.409 . S
C495 C494 1.362 . S
H496 C502 0.930 . S
H497 C505 0.930 . S
H498 C506 0.930 . S
H499 C507 0.930 . S
H500 C510 0.930 1_455 S
H501 C511 0.930 1_455 S
C502 H496 0.930 . S
C502 C503 1.355 . S
C502 C504 1.415 . S
C503 C502 1.355 . S
C503 C505 1.419 . S
C504 C502 1.415 . S
C504 C509 1.425 . S
C504 C511 1.409 . S
C505 H497 0.930 . S
C505 C503 1.419 . S
C505 C506 1.362 . S
C506 H498 0.930 . S
C506 C505 1.362 . S
C506 C509 1.409 . S
C507 H499 0.930 . S
C507 C508 1.355 . S
C507 C509 1.415 . S
C508 C507 1.355 . S
C508 C510 1.419 . S
C509 C504 1.425 . S
C509 C506 1.409 . S
C509 C507 1.415 . S
C510 H500 0.930 1_655 S
C510 C508 1.419 . S
C510 C511 1.362 . S
C511 H501 0.930 1_655 S
C511 C504 1.409 . S
C511 C510 1.362 . S
H512 C518 0.930 . S
H513 C521 0.930 . S
H514 C522 0.930 . S
H515 C523 0.930 . S
H516 C526 0.930 . S
H517 C527 0.930 . S
C518 H512 0.930 . S
C518 C519 1.355 . S
C518 C520 1.415 . S
C519 C518 1.355 . S
C519 C521 1.419 . S
C520 C518 1.415 . S
C520 C525 1.425 . S
C520 C527 1.409 . S
C521 H513 0.930 . S
C521 C519 1.419 . S
C521 C522 1.362 . S
C522 H514 0.930 . S
C522 C521 1.362 . S
C522 C525 1.409 . S
C523 H515 0.930 . S
C523 C524 1.355 . S
C523 C525 1.415 . S
C524 C523 1.355 . S
C524 C526 1.419 . S
C525 C520 1.425 . S
C525 C522 1.409 . S
C525 C523 1.415 . S
C526 H516 0.930 . S
C526 C524 1.419 . S
C526 C527 1.362 . S
C527 H517 0.930 . S
C527 C520 1.409 . S
C527 C526 1.362 . S
H528 C534 0.930 . S
H529 C537 0.930 . S
H530 C538 0.930 . S
H531 C539 0.930 . S
H532 C542 0.930 . S
H533 C543 0.930 . S
C534 H528 0.930 . S
C534 C535 1.355 . S
C534 C536 1.415 . S
C535 C534 1.355 . S
C535 C537 1.419 . S
C536 C534 1.415 . S
C536 C541 1.425 . S
C536 C543 1.409 . S
C537 H529 0.930 . S
C537 C535 1.419 . S
C537 C538 1.362 . S
C538 H530 0.930 . S
C538 C537 1.362 . S
C538 C541 1.409 . S
C539 H531 0.930 . S
C539 C540 1.355 . S
C539 C541 1.415 . S
C540 C539 1.355 . S
C540 C542 1.419 . S
C541 C536 1.425 . S
C541 C538 1.409 . S
C541 C539 1.415 . S
C542 H532 0.930 . S
C542 C540 1.419 . S
C542 C543 1.362 . S
C543 H533 0.930 . S
C543 C536 1.409 . S
C543 C542 1.362 . S
H544 C550 0.930 . S
H545 C553 0.930 . S
H546 C554 0.930 . S
H547 C555 0.930 . S
H548 C558 0.930 1_554 S
H549 C559 0.930 . S
C550 H544 0.930 . S
C550 C551 1.355 . S
C550 C552 1.415 . S
C551 C550 1.355 . S
C551 C553 1.419 . S
C552 C550 1.415 . S
C552 C557 1.425 . S
C552 C559 1.409 . S
C553 H545 0.930 . S
C553 C551 1.419 . S
C553 C554 1.362 . S
C554 H546 0.930 . S
C554 C553 1.362 . S
C554 C557 1.409 . S
C555 H547 0.930 . S
C555 C556 1.355 . S
C555 C557 1.415 . S
C556 C555 1.355 . S
C556 C558 1.419 . S
C557 C552 1.425 . S
C557 C554 1.409 . S
C557 C555 1.415 . S
C558 H548 0.930 1_556 S
C558 C556 1.419 . S
C558 C559 1.362 . S
C559 H549 0.930 . S
C559 C552 1.409 . S
C559 C558 1.362 . S
H560 C566 0.930 . S
H561 C569 0.930 . S
H562 C570 0.930 . S
H563 C571 0.930 . S
H564 C574 0.930 . S
H565 C575 0.930 . S
C566 H560 0.930 . S
C566 C567 1.355 . S
C566 C568 1.415 . S
C567 C566 1.355 . S
C567 C569 1.419 . S
C568 C566 1.415 . S
C568 C573 1.425 . S
C568 C575 1.409 . S
C569 H561 0.930 . S
C569 C567 1.419 . S
C569 C570 1.362 . S
C570 H562 0.930 . S
C570 C569 1.362 . S
C570 C573 1.409 . S
C571 H563 0.930 . S
C571 C572 1.355 . S
C571 C573 1.415 . S
C572 C571 1.355 . S
C572 C574 1.419 . S
C573 C568 1.425 . S
C573 C570 1.409 . S
C573 C571 1.415 . S
C574 H564 0.930 . S
C574 C572 1.419 . S
C574 C575 1.362 . S
C575 H565 0.930 . S
C575 C568 1.409 . S
C575 C574 1.362 . S
H576 C582 0.930 . S
H577 C585 0.930 . S
H578 C586 0.930 . S
H579 C587 0.930 . S
H580 C590 0.930 . S
H581 C591 0.930 . S
C582 H576 0.930 . S
C582 C583 1.355 . S
C582 C584 1.415 . S
C583 C582 1.355 . S
C583 C585 1.419 . S
C584 C582 1.415 . S
C584 C589 1.425 . S
C584 C591 1.409 . S
C585 H577 0.930 . S
C585 C583 1.419 . S
C585 C586 1.362 . S
C586 H578 0.930 . S
C586 C585 1.362 . S
C586 C589 1.409 . S
C587 H579 0.930 . S
C587 C588 1.355 . S
C587 C589 1.415 . S
C588 C587 1.355 . S
C588 C590 1.419 . S
C589 C584 1.425 . S
C589 C586 1.409 . S
C589 C587 1.415 . S
C590 H580 0.930 . S
C590 C588 1.419 . S
C590 C591 1.362 . S
C591 H581 0.930 . S
C591 C584 1.409 . S
C591 C590 1.362 . S
H592 C598 0.930 . S
H593 C601 0.930 . S
H594 C602 0.930 . S
H595 C603 0.930 . S
H596 C606 0.930 . S
H597 C607 0.930 . S
C598 H592 0.930 . S
C598 C599 1.355 . S
C598 C600 1.415 . S
C599 C598 1.355 . S
C599 C601 1.419 . S
C600 C598 1.415 . S
C600 C605 1.425 . S
C600 C607 1.409 . S
C601 H593 0.930 . S
C601 C599 1.419 . S
C601 C602 1.362 . S
C602 H594 0.930 . S
C602 C601 1.362 . S
C602 C605 1.409 . S
C603 H595 0.930 . S
C603 C604 1.355 . S
C603 C605 1.415 . S
C604 C603 1.355 . S
C604 C606 1.419 . S
C605 C600 1.425 . S
C605 C602 1.409 . S
C605 C603 1.415 . S
C606 H596 0.930 . S
C606 C604 1.419 . S
C606 C607 1.362 . S
C607 H597 0.930 . S
C607 C600 1.409 . S
C607 C606 1.362 . S
H608 C614 0.930 . S
H609 C617 0.930 . S
H610 C618 0.930 . S
H611 C619 0.930 . S
H612 C622 0.930 1_455 S
H613 C623 0.930 1_455 S
C614 H608 0.930 . S
C614 C615 1.355 . S
C614 C616 1.415 . S
C615 C614 1.355 . S
C615 C617 1.419 . S
C616 C614 1.415 . S
C616 C621 1.425 . S
C616 C623 1.409 . S
C617 H609 0.930 . S
C617 C615 1.419 . S
C617 C618 1.362 . S
C618 H610 0.930 . S
C618 C617 1.362 . S
C618 C621 1.409 . S
C619 H611 0.930 . S
C619 C620 1.355 . S
C619 C621 1.415 . S
C620 C619 1.355 . S
C620 C622 1.419 . S
C621 C616 1.425 . S
C621 C618 1.409 . S
C621 C619 1.415 . S
C622 H612 0.930 1_655 S
C622 C620 1.419 . S
C622 C623 1.362 . S
C623 H613 0.930 1_655 S
C623 C616 1.409 . S
C623 C622 1.362 . S
H624 C630 0.930 . S
H625 C633 0.930 . S
H626 C634 0.930 . S
H627 C635 0.930 . S
H628 C638 0.930 . S
H629 C639 0.930 . S
C630 H624 0.930 . S
C630 C631 1.355 . S
C630 C632 1.415 . S
C631 C630 1.355 . S
C631 C633 1.419 . S
C632 C630 1.415 . S
C632 C637 1.425 . S
C632 C639 1.409 . S
C633 H625 0.930 . S
C633 C631 1.419 . S
C633 C634 1.362 . S
C634 H626 0.930 . S
C634 C633 1.362 . S
C634 C637 1.409 . S
C635 H627 0.930 . S
C635 C636 1.355 . S
C635 C637 1.415 . S
C636 C635 1.355 . S
C636 C638 1.419 . S
C637 C632 1.425 . S
C637 C634 1.409 . S
C637 C635 1.415 . S
C638 H628 0.930 . S
C638 C636 1.419 . S
C638 C639 1.362 . S
C639 H629 0.930 . S
C639 C632 1.409 . S
C639 C638 1.362 . S
H640 C646 0.930 . S
H641 C649 0.930 . S
H642 C650 0.930 . S
H643 C651 0.930 . S
H644 C654 0.930 . S
H645 C655 0.930 . S
C646 H640 0.930 . S
C646 C647 1.355 . S
C646 C648 1.415 . S
C647 C646 1.355 . S
C647 C649 1.419 . S
C648 C646 1.415 . S
C648 C653 1.425 . S
C648 C655 1.409 . S
C649 H641 0.930 . S
C649 C647 1.419 . S
C649 C650 1.362 . S
C650 H642 0.930 . S
C650 C649 1.362 . S
C650 C653 1.409 . S
C651 H643 0.930 . S
C651 C652 1.355 . S
C651 C653 1.415 . S
C652 C651 1.355 . S
C652 C654 1.419 . S
C653 C648 1.425 . S
C653 C650 1.409 . S
C653 C651 1.415 . S
C654 H644 0.930 . S
C654 C652 1.419 . S
C654 C655 1.362 . S
C655 H645 0.930 . S
C655 C648 1.409 . S
C655 C654 1.362 . S
H656 C662 0.930 . S
H657 C665 0.930 . S
H658 C666 0.930 . S
H659 C667 0.930 . S
H660 C670 0.930 . S
H661 C671 0.930 . S
C662 H656 0.930 . S
C662 C663 1.355 . S
C662 C664 1.415 . S
C663 C662 1.355 . S
C663 C665 1.419 . S
C664 C662 1.415 . S
C664 C669 1.425 . S
C664 C671 1.409 . S
C665 H657 0.930 . S
C665 C663 1.419 . S
C665 C666 1.362 . S
C666 H658 0.930 . S
C666 C665 1.362 . S
C666 C669 1.409 . S
C667 H659 0.930 . S
C667 C668 1.355 . S
C667 C669 1.415 . S
C668 C667 1.355 . S
C668 C670 1.419 . S
C669 C664 1.425 . S
C669 C666 1.409 . S
C669 C667 1.415 . S
C670 H660 0.930 . S
C670 C668 1.419 . S
C670 C671 1.362 . S
C671 H661 0.930 . S
C671 C664 1.409 . S
C671 C670 1.362 . S
H672 C678 0.930 . S
H673 C681 0.930 . S
H674 C682 0.930 . S
H675 C683 0.930 . S
H676 C686 0.930 . S
H677 C687 0.930 . S
C678 H672 0.930 . S
C678 C679 1.355 . S
C678 C680 1.415 . S
C679 C678 1.355 . S
C679 C681 1.419 . S
C680 C678 1.415 . S
C680 C685 1.425 . S
C680 C687 1.409 . S
C681 H673 0.930 . S
C681 C679 1.419 . S
C681 C682 1.362 . S
C682 H674 0.930 . S
C682 C681 1.362 . S
C682 C685 1.409 . S
C683 H675 0.930 . S
C683 C684 1.355 . S
C683 C685 1.415 . S
C684 C683 1.355 . S
C684 C686 1.419 . S
C685 C680 1.425 . S
C685 C682 1.409 . S
C685 C683 1.415 . S
C686 H676 0.930 . S
C686 C684 1.419 . S
C686 C687 1.362 . S
C687 H677 0.930 . S
C687 C680 1.409 . S
C687 C686 1.362 . S
H688 C694 0.930 . S
H689 C697 0.930 . S
H690 C698 0.930 . S
H691 C699 0.930 . S
H692 C702 0.930 . S
H693 C703 0.930 . S
C694 H688 0.930 . S
C694 C695 1.355 . S
C694 C696 1.415 . S
C695 C694 1.355 . S
C695 C697 1.419 . S
C696 C694 1.415 . S
C696 C701 1.425 . S
C696 C703 1.409 . S
C697 H689 0.930 . S
C697 C695 1.419 . S
C697 C698 1.362 . S
C698 H690 0.930 . S
C698 C697 1.362 . S
C698 C701 1.409 . S
C699 H691 0.930 . S
C699 C700 1.355 . S
C699 C701 1.415 . S
C700 C699 1.355 . S
C700 C702 1.419 . S
C701 C696 1.425 . S
C701 C698 1.409 . S
C701 C699 1.415 . S
C702 H692 0.930 . S
C702 C700 1.419 . S
C702 C703 1.362 . S
C703 H693 0.930 . S
C703 C696 1.409 . S
C703 C702 1.362 . S
H704 C710 0.930 . S
H705 C713 0.930 . S
H706 C714 0.930 . S
H707 C715 0.930 . S
H708 C718 0.930 . S
H709 C719 0.930 . S
C710 H704 0.930 . S
C710 C711 1.355 . S
C710 C712 1.415 . S
C711 C710 1.355 . S
C711 C713 1.419 . S
C712 C710 1.415 . S
C712 C717 1.425 . S
C712 C719 1.409 . S
C713 H705 0.930 . S
C713 C711 1.419 . S
C713 C714 1.362 . S
C714 H706 0.930 . S
C714 C713 1.362 . S
C714 C717 1.409 . S
C715 H707 0.930 . S
C715 C716 1.355 . S
C715 C717 1.415 . S
C716 C715 1.355 . S
C716 C718 1.419 . S
C717 C712 1.425 . S
C717 C714 1.409 . S
C717 C715 1.415 . S
C718 H708 0.930 . S
C718 C716 1.419 . S
C718 C719 1.362 . S
C719 H709 0.930 . S
C719 C712 1.409 . S
C719 C718 1.362 . S
H720 C726 0.930 . S
H721 C729 0.930 . S
H722 C730 0.930 . S
H723 C731 0.930 . S
H724 C734 0.930 . S
H725 C735 0.930 . S
C726 H720 0.930 . S
C726 C727 1.355 . S
C726 C728 1.415 . S
C727 C726 1.355 . S
C727 C729 1.419 . S
C728 C726 1.415 . S
C728 C733 1.425 . S
C728 C735 1.409 . S
C729 H721 0.930 . S
C729 C727 1.419 . S
C729 C730 1.362 . S
C730 H722 0.930 . S
C730 C729 1.362 . S
C730 C733 1.409 . S
C731 H723 0.930 . S
C731 C732 1.355 . S
C731 C733 1.415 . S
C732 C731 1.355 . S
C732 C734 1.419 . S
C733 C728 1.425 . S
C733 C730 1.409 . S
C733 C731 1.415 . S
C734 H724 0.930 . S
C734 C732 1.419 . S
C734 C735 1.362 . S
C735 H725 0.930 . S
C735 C728 1.409 . S
C735 C734 1.362 . S
H736 C742 0.930 . S
H737 C745 0.930 . S
H738 C746 0.930 . S
H739 C747 0.930 . S
H740 C750 0.930 . S
H741 C751 0.930 . S
C742 H736 0.930 . S
C742 C743 1.355 . S
C742 C744 1.415 . S
C743 C742 1.355 . S
C743 C745 1.419 . S
C744 C742 1.415 . S
C744 C749 1.425 . S
C744 C751 1.409 . S
C745 H737 0.930 . S
C745 C743 1.419 . S
C745 C746 1.362 . S
C746 H738 0.930 . S
C746 C745 1.362 . S
C746 C749 1.409 . S
C747 H739 0.930 . S
C747 C748 1.355 . S
C747 C749 1.415 . S
C748 C747 1.355 . S
C748 C750 1.419 . S
C749 C744 1.425 . S
C749 C746 1.409 . S
C749 C747 1.415 . S
C750 H740 0.930 . S
C750 C748 1.419 . S
C750 C751 1.362 . S
C751 H741 0.930 . S
C751 C744 1.409 . S
C751 C750 1.362 . S
H752 C758 0.930 . S
H753 C761 0.930 . S
H754 C762 0.930 . S
H755 C763 0.930 . S
H756 C766 0.930 . S
H757 C767 0.930 . S
C758 H752 0.930 . S
C758 C759 1.355 . S
C758 C760 1.415 . S
C759 C758 1.355 . S
C759 C761 1.419 . S
C760 C758 1.415 . S
C760 C765 1.425 . S
C760 C767 1.409 . S
C761 H753 0.930 . S
C761 C759 1.419 . S
C761 C762 1.362 . S
C762 H754 0.930 . S
C762 C761 1.362 . S
C762 C765 1.409 . S
C763 H755 0.930 . S
C763 C764 1.355 . S
C763 C765 1.415 . S
C764 C763 1.355 . S
C764 C766 1.419 . S
C765 C760 1.425 . S
C765 C762 1.409 . S
C765 C763 1.415 . S
C766 H756 0.930 . S
C766 C764 1.419 . S
C766 C767 1.362 . S
C767 H757 0.930 . S
C767 C760 1.409 . S
C767 C766 1.362 . S
H768 C774 0.930 . S
H769 C777 0.930 . S
H770 C778 0.930 . S
H771 C779 0.930 . S
H772 C782 0.930 . S
H773 C783 0.930 . S
C774 H768 0.930 . S
C774 C775 1.355 . S
C774 C776 1.415 . S
C775 C774 1.355 . S
C775 C777 1.419 . S
C776 C774 1.415 . S
C776 C781 1.425 . S
C776 C783 1.409 . S
C777 H769 0.930 . S
C777 C775 1.419 . S
C777 C778 1.362 . S
C778 H770 0.930 . S
C778 C777 1.362 . S
C778 C781 1.409 . S
C779 H771 0.930 . S
C779 C780 1.355 . S
C779 C781 1.415 . S
C780 C779 1.355 . S
C780 C782 1.419 . S
C781 C776 1.425 . S
C781 C778 1.409 . S
C781 C779 1.415 . S
C782 H772 0.930 . S
C782 C780 1.419 . S
C782 C783 1.362 . S
C783 H773 0.930 . S
C783 C776 1.409 . S
C783 C782 1.362 . S
H784 C790 0.930 . S
H785 C793 0.930 . S
H786 C794 0.930 . S
H787 C795 0.930 . S
H788 C798 0.930 . S
H789 C799 0.930 . S
C790 H784 0.930 . S
C790 C791 1.355 . S
C790 C792 1.415 . S
C791 C790 1.355 . S
C791 C793 1.419 . S
C792 C790 1.415 . S
C792 C797 1.425 . S
C792 C799 1.409 . S
C793 H785 0.930 . S
C793 C791 1.419 . S
C793 C794 1.362 . S
C794 H786 0.930 . S
C794 C793 1.362 . S
C794 C797 1.409 . S
C795 H787 0.930 . S
C795 C796 1.355 . S
C795 C797 1.415 . S
C796 C795 1.355 . S
C796 C798 1.419 . S
C797 C792 1.425 . S
C797 C794 1.409 . S
C797 C795 1.415 . S
C798 H788 0.930 . S
C798 C796 1.419 . S
C798 C799 1.362 . S
C799 H789 0.930 . S
C799 C792 1.409 . S
C799 C798 1.362 . S
H800 C806 0.930 . S
H801 C809 0.930 . S
H802 C810 0.930 . S
H803 C811 0.930 . S
H804 C814 0.930 1_655 S
H805 C815 0.956 . S
C806 H800 0.930 . S
C806 C807 1.355 . S
C806 C808 1.415 . S
C807 C806 1.355 . S
C807 C809 1.419 . S
C808 C806 1.415 . S
C808 C813 1.425 . S
C808 C815 1.409 . S
C809 H801 0.930 . S
C809 C807 1.419 . S
C809 C810 1.362 . S
C810 H802 0.930 . S
C810 C809 1.362 . S
C810 C813 1.409 . S
C811 H803 0.930 . S
C811 C812 1.355 . S
C811 C813 1.415 . S
C812 C811 1.355 . S
C812 C814 1.419 . S
C813 C808 1.425 . S
C813 C810 1.409 . S
C813 C811 1.415 . S
C814 H804 0.930 1_455 S
C814 C812 1.419 . S
C814 C815 1.362 . S
C815 H805 0.956 . S
C815 C808 1.409 . S
C815 C814 1.362 . S
H816 C822 0.930 . S
H817 C825 0.930 . S
H818 C826 0.930 . S
H819 C827 0.930 . S
H820 C830 0.930 . S
H821 C831 0.930 . S
C822 H816 0.930 . S
C822 C823 1.355 . S
C822 C824 1.415 . S
C823 C822 1.355 . S
C823 C825 1.419 . S
C824 C822 1.415 . S
C824 C829 1.425 . S
C824 C831 1.409 . S
C825 H817 0.930 . S
C825 C823 1.419 . S
C825 C826 1.362 . S
C826 H818 0.930 . S
C826 C825 1.362 . S
C826 C829 1.409 . S
C827 H819 0.930 . S
C827 C828 1.355 . S
C827 C829 1.415 . S
C828 C827 1.355 . S
C828 C830 1.419 . S
C829 C824 1.425 . S
C829 C826 1.409 . S
C829 C827 1.415 . S
C830 H820 0.930 . S
C830 C828 1.419 . S
C830 C831 1.362 . S
C831 H821 0.930 . S
C831 C824 1.409 . S
C831 C830 1.362 . S
C455 C1 1.042 . S
C460 C292 1.042 . S
C471 C67 1.253 . S
C476 C353 1.266 . S
C492 C391 2.486 . S
C487 C97 2.541 . S
C503 C133 2.383 . S
C508 C431 2.309 . S
C524 C351 1.377 . S
C519 C25 1.321 . S
C540 C319 2.163 . S
C535 C37 2.067 . S
C556 C428 1.781 . S
C551 C103 1.760 . S
C572 C388 1.882 . S
C567 C109 1.891 . S
C583 C31 1.212 . S
C588 C433 1.230 . S
C604 C348 2.367 . S
C599 C73 2.358 . S
C615 C139 2.215 . S
C620 C290 2.161 . S
C631 C61 1.594 . S
C636 C393 1.642 . S
C652 C313 1.032 . S
C647 C175 1.024 . S
C663 C181 1.173 . S
C668 C332 1.232 . S
C679 C247 2.587 . S
C684 C370 2.496 . S
C695 C277 2.367 . S
C700 C410 2.297 . S
C711 C145 1.284 . S
C716 C330 1.365 . S
C732 C308 2.163 . S
C727 C211 2.069 . S
C748 C439 1.735 . S
C743 C217 1.743 . S
C764 C399 1.897 . S
C759 C283 1.908 . S
C775 C169 1.207 . S
C780 C412 1.240 . S
C796 C359 2.382 . S
C791 C241 2.388 . S
C812 C311 2.151 . S
C807 C253 2.210 . S
C823 C205 1.631 . S
C828 C372 1.652 . S
