# Generated by pormake.
# Topology ctn, (3,4)-cn, num edge types: 1
# Building blocks:
#     Node 0, Type 0, BuildingBlock: BETDAH_clean_linker_0, # of connection points: 3
#     Node 1, Type 0, BuildingBlock: BETDAH_clean_linker_0, # of connection points: 3
#     Node 2, Type 0, BuildingBlock: BETDAH_clean_linker_0, # of connection points: 3
#     Node 3, Type 0, BuildingBlock: BETDAH_clean_linker_0, # of connection points: 3
#     Node 4, Type 0, BuildingBlock: BETDAH_clean_linker_0, # of connection points: 3
#     Node 5, Type 0, BuildingBlock: BETDAH_clean_linker_0, # of connection points: 3
#     Node 6, Type 0, BuildingBlock: BETDAH_clean_linker_0, # of connection points: 3
#     Node 7, Type 0, BuildingBlock: BETDAH_clean_linker_0, # of connection points: 3
#     Node 8, Type 0, BuildingBlock: BETDAH_clean_linker_0, # of connection points: 3
#     Node 9, Type 0, BuildingBlock: BETDAH_clean_linker_0, # of connection points: 3
#     Node 10, Type 0, BuildingBlock: BETDAH_clean_linker_0, # of connection points: 3
#     Node 11, Type 0, BuildingBlock: BETDAH_clean_linker_0, # of connection points: 3
#     Node 12, Type 0, BuildingBlock: BETDAH_clean_linker_0, # of connection points: 3
#     Node 13, Type 0, BuildingBlock: BETDAH_clean_linker_0, # of connection points: 3
#     Node 14, Type 0, BuildingBlock: BETDAH_clean_linker_0, # of connection points: 3
#     Node 15, Type 0, BuildingBlock: BETDAH_clean_linker_0, # of connection points: 3
#     Node 16, Type 1, BuildingBlock: NAHDIM_clean_sbu_0, # of connection points: 4
#     Node 17, Type 1, BuildingBlock: NAHDIM_clean_sbu_0, # of connection points: 4
#     Node 18, Type 1, BuildingBlock: NAHDIM_clean_sbu_0, # of connection points: 4
#     Node 19, Type 1, BuildingBlock: NAHDIM_clean_sbu_0, # of connection points: 4
#     Node 20, Type 1, BuildingBlock: NAHDIM_clean_sbu_0, # of connection points: 4
#     Node 21, Type 1, BuildingBlock: NAHDIM_clean_sbu_0, # of connection points: 4
#     Node 22, Type 1, BuildingBlock: NAHDIM_clean_sbu_0, # of connection points: 4
#     Node 23, Type 1, BuildingBlock: NAHDIM_clean_sbu_0, # of connection points: 4
#     Node 24, Type 1, BuildingBlock: NAHDIM_clean_sbu_0, # of connection points: 4
#     Node 25, Type 1, BuildingBlock: NAHDIM_clean_sbu_0, # of connection points: 4
#     Node 26, Type 1, BuildingBlock: NAHDIM_clean_sbu_0, # of connection points: 4
#     Node 27, Type 1, BuildingBlock: NAHDIM_clean_sbu_0, # of connection points: 4
#     Edge 28, Type (0, 1), BuildingBlock: TEMPAE_clean_linker_10, # of connection points: 2
#     Edge 29, Type (0, 1), BuildingBlock: TEMPAE_clean_linker_10, # of connection points: 2
#     Edge 30, Type (0, 1), BuildingBlock: TEMPAE_clean_linker_10, # of connection points: 2
#     Edge 31, Type (0, 1), BuildingBlock: TEMPAE_clean_linker_10, # of connection points: 2
#     Edge 32, Type (0, 1), BuildingBlock: TEMPAE_clean_linker_10, # of connection points: 2
#     Edge 33, Type (0, 1), BuildingBlock: TEMPAE_clean_linker_10, # of connection points: 2
#     Edge 34, Type (0, 1), BuildingBlock: TEMPAE_clean_linker_10, # of connection points: 2
#     Edge 35, Type (0, 1), BuildingBlock: TEMPAE_clean_linker_10, # of connection points: 2
#     Edge 36, Type (0, 1), BuildingBlock: TEMPAE_clean_linker_10, # of connection points: 2
#     Edge 37, Type (0, 1), BuildingBlock: TEMPAE_clean_linker_10, # of connection points: 2
#     Edge 38, Type (0, 1), BuildingBlock: TEMPAE_clean_linker_10, # of connection points: 2
#     Edge 39, Type (0, 1), BuildingBlock: TEMPAE_clean_linker_10, # of connection points: 2
#     Edge 40, Type (0, 1), BuildingBlock: TEMPAE_clean_linker_10, # of connection points: 2
#     Edge 41, Type (0, 1), BuildingBlock: TEMPAE_clean_linker_10, # of connection points: 2
#     Edge 42, Type (0, 1), BuildingBlock: TEMPAE_clean_linker_10, # of connection points: 2
#     Edge 43, Type (0, 1), BuildingBlock: TEMPAE_clean_linker_10, # of connection points: 2
#     Edge 44, Type (0, 1), BuildingBlock: TEMPAE_clean_linker_10, # of connection points: 2
#     Edge 45, Type (0, 1), BuildingBlock: TEMPAE_clean_linker_10, # of connection points: 2
#     Edge 46, Type (0, 1), BuildingBlock: TEMPAE_clean_linker_10, # of connection points: 2
#     Edge 47, Type (0, 1), BuildingBlock: TEMPAE_clean_linker_10, # of connection points: 2
#     Edge 48, Type (0, 1), BuildingBlock: TEMPAE_clean_linker_10, # of connection points: 2
#     Edge 49, Type (0, 1), BuildingBlock: TEMPAE_clean_linker_10, # of connection points: 2
#     Edge 50, Type (0, 1), BuildingBlock: TEMPAE_clean_linker_10, # of connection points: 2
#     Edge 51, Type (0, 1), BuildingBlock: TEMPAE_clean_linker_10, # of connection points: 2
#     Edge 52, Type (0, 1), BuildingBlock: TEMPAE_clean_linker_10, # of connection points: 2
#     Edge 53, Type (0, 1), BuildingBlock: TEMPAE_clean_linker_10, # of connection points: 2
#     Edge 54, Type (0, 1), BuildingBlock: TEMPAE_clean_linker_10, # of connection points: 2
#     Edge 55, Type (0, 1), BuildingBlock: TEMPAE_clean_linker_10, # of connection points: 2
#     Edge 56, Type (0, 1), BuildingBlock: TEMPAE_clean_linker_10, # of connection points: 2
#     Edge 57, Type (0, 1), BuildingBlock: TEMPAE_clean_linker_10, # of connection points: 2
#     Edge 58, Type (0, 1), BuildingBlock: TEMPAE_clean_linker_10, # of connection points: 2
#     Edge 59, Type (0, 1), BuildingBlock: TEMPAE_clean_linker_10, # of connection points: 2
#     Edge 60, Type (0, 1), BuildingBlock: TEMPAE_clean_linker_10, # of connection points: 2
#     Edge 61, Type (0, 1), BuildingBlock: TEMPAE_clean_linker_10, # of connection points: 2
#     Edge 62, Type (0, 1), BuildingBlock: TEMPAE_clean_linker_10, # of connection points: 2
#     Edge 63, Type (0, 1), BuildingBlock: TEMPAE_clean_linker_10, # of connection points: 2
#     Edge 64, Type (0, 1), BuildingBlock: TEMPAE_clean_linker_10, # of connection points: 2
#     Edge 65, Type (0, 1), BuildingBlock: TEMPAE_clean_linker_10, # of connection points: 2
#     Edge 66, Type (0, 1), BuildingBlock: TEMPAE_clean_linker_10, # of connection points: 2
#     Edge 67, Type (0, 1), BuildingBlock: TEMPAE_clean_linker_10, # of connection points: 2
#     Edge 68, Type (0, 1), BuildingBlock: TEMPAE_clean_linker_10, # of connection points: 2
#     Edge 69, Type (0, 1), BuildingBlock: TEMPAE_clean_linker_10, # of connection points: 2
#     Edge 70, Type (0, 1), BuildingBlock: TEMPAE_clean_linker_10, # of connection points: 2
#     Edge 71, Type (0, 1), BuildingBlock: TEMPAE_clean_linker_10, # of connection points: 2
#     Edge 72, Type (0, 1), BuildingBlock: TEMPAE_clean_linker_10, # of connection points: 2
#     Edge 73, Type (0, 1), BuildingBlock: TEMPAE_clean_linker_10, # of connection points: 2
#     Edge 74, Type (0, 1), BuildingBlock: TEMPAE_clean_linker_10, # of connection points: 2
#     Edge 75, Type (0, 1), BuildingBlock: TEMPAE_clean_linker_10, # of connection points: 2
# Relax obj value: 0.049
# Max RMSD: 0.160
# Mean RMSD: 0.101
data_MOF--net-ctn--node1-NAHDIM_clean_sbu_0--node2-BETDAH_clean_linker_0--edge1-TEMPAE_clean_linker_10
_symmetry_space_group_name_H-M    P1
_symmetry_Int_Tables_number       1
_symmetry_cell_setting            triclinic
loop_
_symmetry_equiv_pos_as_xyz
'x, y, z'
_cell_length_a     54.538771
_cell_length_b     54.751966
_cell_length_c     55.019335
_cell_angle_alpha  100.10136
_cell_angle_beta   90.392065
_cell_angle_gamma 97.128507
loop_
_atom_site_label
_atom_site_type_symbol
_atom_site_fract_x
_atom_site_fract_y
_atom_site_fract_z
_atom_type_partial_charge
H0 H 0.07473 0.02819 0.09952 0.0
H1 H 0.06657 0.03339 0.02264 0.0
H2 H 0.01005 0.05422 0.07289 0.0
C3 C 0.06445 0.03326 0.08464 0.0
C4 C 0.04169 0.04246 0.08947 0.0
C5 C 0.07355 0.02962 0.06056 0.0
C6 C 0.05999 0.03621 0.04134 0.0
C7 C 0.03728 0.04536 0.046 0.0
C8 C 0.02813 0.04814 0.06984 0.0
N9 N 0.02208 0.04915 0.02643 0.0
C10 C 0.02844 0.06774 0.01257 0.0
H11 H 0.32909 0.70064 0.26451 0.0
H12 H 0.37362 0.74171 0.2175 0.0
H13 H 0.30067 0.70731 0.19291 0.0
C14 C 0.33138 0.70737 0.24718 0.0
C15 C 0.31229 0.70124 0.22897 0.0
C16 C 0.35373 0.72152 0.24316 0.0
C17 C 0.35632 0.73115 0.22121 0.0
C18 C 0.33687 0.72698 0.20365 0.0
C19 C 0.31489 0.71187 0.20739 0.0
N20 N 0.34097 0.73626 0.18136 0.0
C21 C 0.32381 0.74754 0.16986 0.0
H22 H 0.03732 0.45047 0.05297 0.0
H23 H 0.01927 0.52513 0.07589 0.0
H24 H 0.99282 0.48297 0.00527 0.0
C25 C 0.02805 0.46597 0.04947 0.0
C26 C 0.01508 0.46412 0.02691 0.0
C27 C 0.02958 0.48782 0.06732 0.0
C28 C 0.01813 0.50803 0.06235 0.0
C29 C 0.00447 0.50625 0.04037 0.0
C30 C 0.00272 0.48414 0.02266 0.0
N31 N 0.99373 0.52753 0.03636 0.0
C32 C 0.97236 0.52665 0.02222 0.0
H33 H 0.79396 0.81158 0.18647 0.0
H34 H 0.75532 0.74338 0.20335 0.0
H35 H 0.76907 0.80823 0.26017 0.0
C36 C 0.78475 0.80117 0.19958 0.0
C37 C 0.78309 0.81292 0.22432 0.0
C38 C 0.77433 0.77622 0.19164 0.0
C39 C 0.76269 0.76291 0.20887 0.0
C40 C 0.76029 0.77452 0.23329 0.0
C41 C 0.77023 0.7996 0.24099 0.0
N42 N 0.74909 0.76007 0.25011 0.0
C43 C 0.7307 0.76797 0.26576 0.0
H44 H 0.07658 0.01641 0.44897 0.0
H45 H 0.07472 0.99815 0.52207 0.0
H46 H 0.00787 0.98802 0.47796 0.0
C47 C 0.06639 0.00914 0.46356 0.0
C48 C 0.04081 0.00172 0.46033 0.0
C49 C 0.0788 0.00824 0.48583 0.0
C50 C 0.0655 0.99871 0.5047 0.0
C51 C 0.03994 0.99108 0.50157 0.0
C52 C 0.02775 0.99303 0.47968 0.0
N53 N 0.02557 0.98363 0.52097 0.0
C54 C 0.03145 0.96584 0.53445 0.0
H55 H 0.26067 0.71364 0.84713 0.0
H56 H 0.20228 0.74118 0.81089 0.0
H57 H 0.24135 0.68418 0.77085 0.0
C58 C 0.24962 0.71363 0.83068 0.0
C59 C 0.25349 0.69711 0.80891 0.0
C60 C 0.23136 0.72979 0.83161 0.0
C61 C 0.21627 0.72872 0.81047 0.0
C62 C 0.2198 0.71201 0.7886 0.0
C63 C 0.23846 0.69654 0.78796 0.0
N64 N 0.20534 0.71037 0.76668 0.0
C65 C 0.18486 0.72273 0.76462 0.0
H66 H 0.9514 0.5554 0.52656 0.0
H67 H 0.01264 0.56472 0.47853 0.0
H68 H 0.96414 0.49548 0.46805 0.0
C69 C 0.9623 0.54787 0.51129 0.0
C70 C 0.95508 0.52357 0.49821 0.0
C71 C 0.98306 0.56286 0.50442 0.0
C72 C 0.9966 0.55336 0.48392 0.0
C73 C 0.98958 0.52898 0.47079 0.0
C74 C 0.96903 0.51437 0.47809 0.0
N75 N 0.00253 0.51813 0.45019 0.0
C76 C 0.02358 0.52921 0.44035 0.0
H77 H 0.83523 0.75522 0.79859 0.0
H78 H 0.79733 0.80623 0.76525 0.0
H79 H 0.76137 0.76753 0.81932 0.0
C80 C 0.81925 0.76491 0.79719 0.0
C81 C 0.79856 0.75962 0.8113 0.0
C82 C 0.81904 0.78157 0.78039 0.0
C83 C 0.79779 0.79345 0.77815 0.0
C84 C 0.77699 0.78827 0.7923 0.0
C85 C 0.7775 0.7713 0.80851 0.0
N86 N 0.7547 0.79875 0.79022 0.0
C87 C 0.75211 0.82054 0.78128 0.0
H88 H 0.34517 0.2553 0.31503 0.0
H89 H 0.30778 0.29981 0.2728 0.0
H90 H 0.27044 0.26893 0.3309 0.0
C91 C 0.32913 0.26418 0.31152 0.0
C92 C 0.30798 0.26071 0.32564 0.0
C93 C 0.32921 0.27797 0.29211 0.0
C94 C 0.30803 0.28908 0.28756 0.0
C95 C 0.28687 0.28566 0.30159 0.0
C96 C 0.28691 0.2713 0.3202 0.0
N97 N 0.26466 0.29515 0.29672 0.0
C98 C 0.26339 0.3178 0.28898 0.0
H99 H 0.529 0.95036 0.55871 0.0
H100 H 0.5032 0.02141 0.55768 0.0
H101 H 0.50447 0.9684 0.49033 0.0
C102 C 0.52097 0.96298 0.54873 0.0
C103 C 0.5168 0.95619 0.52311 0.0
C104 C 0.5163 0.98648 0.56138 0.0
C105 C 0.50667 0.00315 0.54818 0.0
C106 C 0.50242 0.99648 0.5225 0.0
C107 C 0.50782 0.97327 0.51013 0.0
N108 N 0.49396 0.01314 0.5083 0.0
C109 C 0.47593 0.02841 0.51589 0.0
H110 H 0.29081 0.32771 0.6909 0.0
H111 H 0.24099 0.28187 0.73006 0.0
H112 H 0.28232 0.3493 0.76904 0.0
C113 C 0.28185 0.32445 0.70778 0.0
C114 C 0.28821 0.3414 0.7298 0.0
C115 C 0.26504 0.30272 0.70764 0.0
C116 C 0.254 0.29848 0.72986 0.0
C117 C 0.2604 0.31534 0.75199 0.0
C118 C 0.27764 0.33641 0.75185 0.0
N119 N 0.25066 0.31123 0.77494 0.0
C120 C 0.22684 0.30006 0.77778 0.0
H121 H 0.81851 0.19908 0.77358 0.0
H122 H 0.86807 0.236 0.72727 0.0
H123 H 0.79683 0.20073 0.69832 0.0
C124 C 0.82242 0.20459 0.75589 0.0
C125 C 0.80485 0.19744 0.73625 0.0
C126 C 0.84537 0.21823 0.75286 0.0
C127 C 0.8502 0.22604 0.73024 0.0
C128 C 0.83237 0.22064 0.71104 0.0
C129 C 0.80974 0.20624 0.71393 0.0
N130 N 0.8388 0.22757 0.68809 0.0
C131 C 0.82417 0.24029 0.67521 0.0
H132 H 0.5771 0.52247 0.59261 0.0
H133 H 0.57244 0.51434 0.51332 0.0
H134 H 0.51684 0.54802 0.55724 0.0
C135 C 0.5682 0.52575 0.57601 0.0
C136 C 0.5461 0.53664 0.57781 0.0
C137 C 0.57785 0.51744 0.55282 0.0
C138 C 0.5654 0.5207 0.53139 0.0
C139 C 0.54377 0.5321 0.53303 0.0
C140 C 0.53406 0.53996 0.55617 0.0
N141 N 0.53063 0.53341 0.51117 0.0
C142 C 0.53069 0.5557 0.50245 0.0
H143 H 0.56746 0.51929 0.94877 0.0
H144 H 0.57061 0.49256 0.01782 0.0
H145 H 0.5008 0.48964 0.98008 0.0
C146 C 0.5584 0.51033 0.96298 0.0
C147 C 0.53264 0.50426 0.96155 0.0
C148 C 0.57237 0.50642 0.98324 0.0
C149 C 0.56018 0.49553 0.002 0.0
C150 C 0.5343 0.48948 0.00074 0.0
C151 C 0.52073 0.49424 0.98078 0.0
N152 N 0.52107 0.48021 0.02 0.0
C153 C 0.52871 0.46278 0.03301 0.0
H154 H 0.76861 0.2124 0.34814 0.0
H155 H 0.70806 0.23915 0.3144 0.0
H156 H 0.74032 0.1762 0.27598 0.0
C157 C 0.75563 0.21099 0.33281 0.0
C158 C 0.75643 0.19202 0.31216 0.0
C159 C 0.73825 0.22812 0.33388 0.0
C160 C 0.72161 0.22619 0.31373 0.0
C161 C 0.72238 0.20733 0.29286 0.0
C162 C 0.73974 0.19047 0.29227 0.0
N163 N 0.70614 0.20456 0.27201 0.0
C164 C 0.68733 0.21904 0.26979 0.0
H165 H 0.44121 0.05822 0.02909 0.0
H166 H 0.49905 0.06743 0.97708 0.0
H167 H 0.44962 0.99883 0.96878 0.0
C168 C 0.45064 0.05119 0.01254 0.0
C169 C 0.44279 0.02695 0.99981 0.0
C170 C 0.47083 0.06616 0.00453 0.0
C171 C 0.4836 0.05616 0.98361 0.0
C172 C 0.47596 0.0317 0.97087 0.0
C173 C 0.45563 0.01743 0.97903 0.0
N174 N 0.48776 0.0206 0.94956 0.0
C175 C 0.5088 0.031 0.93914 0.0
C176 C 0.21629 0.92796 0.03055 0.0
O177 O 0.23301 0.93237 0.01425 0.0
O178 O 0.23485 0.86467 0.99927 0.0
Zn179 Zn 0.24412 0.88735 0.03196 0.0
O180 O 0.27565 0.90917 0.02687 0.0
C181 C 0.26905 0.85525 0.0563 0.0
O182 O 0.28388 0.85772 0.03792 0.0
O183 O 0.21715 0.90923 0.04121 0.0
C184 C 0.29006 0.9213 0.0443 0.0
O185 O 0.28457 0.9198 0.06725 0.0
C186 C 0.22723 0.84147 0.99718 0.0
O187 O 0.22436 0.8315 0.01718 0.0
O188 O 0.24999 0.86663 0.05812 0.0
C189 C 0.1782 0.46479 0.26999 0.0
O190 O 0.15444 0.46197 0.27428 0.0
O191 O 0.14513 0.51777 0.29145 0.0
Zn192 Zn 0.16623 0.51207 0.26129 0.0
O193 O 0.18722 0.5435 0.25563 0.0
C194 C 0.12342 0.50902 0.22967 0.0
O195 O 0.11624 0.52419 0.24876 0.0
O196 O 0.18792 0.48522 0.26415 0.0
C197 C 0.18125 0.56546 0.26137 0.0
O198 O 0.16071 0.56894 0.27305 0.0
C199 C 0.15178 0.53155 0.31211 0.0
O200 O 0.17429 0.54359 0.31505 0.0
O201 O 0.14406 0.50074 0.23103 0.0
C202 C 0.81943 0.59139 0.97526 0.0
O203 O 0.79989 0.57804 0.96341 0.0
O204 O 0.78737 0.6506 0.95724 0.0
Zn205 Zn 0.78744 0.63093 0.98515 0.0
O206 O 0.75712 0.60538 0.98346 0.0
C207 C 0.7816 0.67665 0.0198 0.0
O208 O 0.77514 0.68484 0.99993 0.0
O209 O 0.81822 0.614 0.98517 0.0
C210 C 0.73577 0.61208 0.98187 0.0
O211 O 0.73396 0.63547 0.98029 0.0
C212 C 0.79596 0.64381 0.93605 0.0
O213 O 0.80507 0.62242 0.93126 0.0
O214 O 0.78744 0.65461 0.01769 0.0
C215 C 0.87589 0.06375 0.3016 0.0
O216 O 0.87717 0.05026 0.31901 0.0
O217 O 0.92885 0.02957 0.30704 0.0
Zn218 Zn 0.90798 0.02978 0.27662 0.0
O219 O 0.88471 0.99758 0.26839 0.0
C220 C 0.95054 0.04578 0.24864 0.0
O221 O 0.95912 0.05861 0.2701 0.0
O222 O 0.88787 0.05861 0.28203 0.0
C223 C 0.87991 0.98264 0.28351 0.0
O224 O 0.89017 0.98826 0.30578 0.0
C225 C 0.94644 0.01622 0.30581 0.0
O226 O 0.95109 0.00298 0.28442 0.0
O227 O 0.92953 0.03257 0.24736 0.0
C228 C 0.3257 0.11318 0.50181 0.0
O229 O 0.31288 0.10616 0.4809 0.0
O230 O 0.29359 0.16094 0.4802 0.0
Zn231 Zn 0.28843 0.146 0.5114 0.0
O232 O 0.25884 0.11916 0.5073 0.0
C233 C 0.26334 0.1767 0.55012 0.0
O234 O 0.24316 0.16333 0.5396 0.0
O235 O 0.31872 0.13023 0.51803 0.0
C236 C 0.23973 0.12059 0.49452 0.0
O237 O 0.23936 0.13983 0.48328 0.0
C238 C 0.28821 0.18256 0.47856 0.0
O239 O 0.27855 0.19568 0.49757 0.0
O240 O 0.2842 0.17274 0.54108 0.0
C241 C 0.38525 0.58146 0.79684 0.0
O242 O 0.38438 0.56426 0.81084 0.0
O243 O 0.44059 0.54964 0.80313 0.0
Zn244 Zn 0.42146 0.55283 0.77226 0.0
O245 O 0.39818 0.52106 0.76084 0.0
C246 C 0.4646 0.54923 0.74204 0.0
O247 O 0.47071 0.53539 0.75781 0.0
O248 O 0.40047 0.58088 0.77941 0.0
C249 C 0.40376 0.50223 0.74588 0.0
O250 O 0.42575 0.50316 0.73628 0.0
C251 C 0.43439 0.5315 0.81441 0.0
O252 O 0.41519 0.51516 0.80608 0.0
O253 O 0.44466 0.55908 0.74491 0.0
C254 C 0.72625 0.42296 0.53359 0.0
O255 O 0.7424 0.42739 0.51679 0.0
O256 O 0.74926 0.36376 0.50316 0.0
Zn257 Zn 0.75718 0.38566 0.53674 0.0
O258 O 0.78784 0.41038 0.53541 0.0
C259 C 0.7695 0.34272 0.55586 0.0
O260 O 0.77403 0.33526 0.5325 0.0
O261 O 0.72863 0.40536 0.54539 0.0
C262 C 0.80976 0.40564 0.5386 0.0
O263 O 0.81321 0.38359 0.54332 0.0
C264 C 0.76504 0.36118 0.48629 0.0
O265 O 0.78739 0.37335 0.49043 0.0
O266 O 0.76194 0.36392 0.56234 0.0
C267 C 0.67426 0.97555 0.77519 0.0
O268 O 0.66946 0.98854 0.79666 0.0
O269 O 0.62698 0.0168 0.78708 0.0
Zn270 Zn 0.64723 0.01139 0.75617 0.0
O271 O 0.67089 0.0419 0.7527 0.0
C272 C 0.60466 0.0153 0.72606 0.0
O273 O 0.59912 0.03038 0.74601 0.0
O274 O 0.66657 0.98179 0.75555 0.0
C275 C 0.66587 0.06425 0.75807 0.0
O276 O 0.64452 0.06858 0.76768 0.0
C277 C 0.63386 0.03107 0.80744 0.0
O278 O 0.65618 0.04355 0.80971 0.0
O279 O 0.62406 0.00461 0.72633 0.0
C280 C 0.03532 0.2015 0.90818 0.0
O281 O 0.03143 0.19529 0.88417 0.0
O282 O 0.00558 0.24173 0.87402 0.0
Zn283 Zn 0.0351 0.25117 0.89743 0.0
O284 O 0.03079 0.2837 0.91957 0.0
C285 C 0.06603 0.25355 0.85478 0.0
O286 O 0.0448 0.24767 0.84243 0.0
O287 O 0.03749 0.22448 0.91809 0.0
C288 C 0.02796 0.30281 0.91015 0.0
O289 O 0.02852 0.30105 0.88603 0.0
C290 C 0.98404 0.2457 0.88098 0.0
O291 O 0.98086 0.25511 0.90423 0.0
O292 O 0.06629 0.25586 0.87821 0.0
C293 C 0.52245 0.69797 0.4109 0.0
O294 O 0.5038 0.69668 0.3953 0.0
O295 O 0.51262 0.73677 0.36642 0.0
Zn296 Zn 0.53991 0.74392 0.3926 0.0
O297 O 0.53508 0.77607 0.41476 0.0
C298 C 0.57909 0.76785 0.36696 0.0
O299 O 0.56438 0.78532 0.36887 0.0
O300 O 0.53962 0.71622 0.41267 0.0
C301 C 0.55133 0.78858 0.43021 0.0
O302 O 0.57259 0.78013 0.4325 0.0
C303 C 0.49128 0.74274 0.37191 0.0
O304 O 0.48717 0.75236 0.39489 0.0
O305 O 0.57252 0.74826 0.37597 0.0
C306 C 0.02018 0.82922 0.63534 0.0
O307 O 0.01621 0.83436 0.65911 0.0
O308 O 0.97936 0.78478 0.66419 0.0
Zn309 Zn 0.00935 0.77821 0.64354 0.0
O310 O 0.00176 0.74583 0.61899 0.0
C311 C 0.0396 0.77922 0.68856 0.0
O312 O 0.0209 0.7878 0.7007 0.0
O313 O 0.01842 0.80646 0.62472 0.0
C314 C 0.01955 0.73485 0.60942 0.0
O315 O 0.04234 0.74515 0.61541 0.0
C316 C 0.96605 0.76684 0.6715 0.0
O317 O 0.97213 0.74412 0.66549 0.0
O318 O 0.03846 0.77462 0.66507 0.0
C319 C 0.51747 0.33045 0.1387 0.0
O320 O 0.50527 0.33424 0.15924 0.0
O321 O 0.48533 0.28392 0.17006 0.0
Zn322 Zn 0.51521 0.27931 0.1484 0.0
O323 O 0.50807 0.24815 0.12199 0.0
C324 C 0.54756 0.2826 0.19217 0.0
O325 O 0.53078 0.29482 0.20416 0.0
O326 O 0.52367 0.30886 0.13097 0.0
C327 C 0.51351 0.22707 0.12552 0.0
O328 O 0.5235 0.22537 0.14686 0.0
C329 C 0.47532 0.26619 0.18028 0.0
O330 O 0.48443 0.24479 0.17649 0.0
O331 O 0.54473 0.27512 0.16898 0.0
C332 C 0.24954 0.76026 0.86854 0.0
C333 C 0.22851 0.74781 0.85474 0.0
C334 C 0.24748 0.77596 0.89125 0.0
C335 C 0.22376 0.77969 0.90031 0.0
C336 C 0.2024 0.76792 0.88613 0.0
C337 C 0.20502 0.75202 0.86353 0.0
C338 C 0.27073 0.78813 0.90581 0.0
C339 C 0.17681 0.77171 0.89507 0.0
C340 C 0.22188 0.79942 0.96986 0.0
C341 C 0.22371 0.82553 0.9724 0.0
C342 C 0.22097 0.78419 0.94644 0.0
C343 C 0.22158 0.79531 0.92504 0.0
C344 C 0.22223 0.82155 0.92746 0.0
C345 C 0.22346 0.83637 0.95112 0.0
C346 C 0.22053 0.75629 0.94465 0.0
C347 C 0.22253 0.83406 0.90507 0.0
H348 H 0.26776 0.7576 0.86163 0.0
H349 H 0.18867 0.74237 0.85307 0.0
H350 H 0.27108 0.80875 0.9095 0.0
H351 H 0.27102 0.78194 0.92395 0.0
H352 H 0.28777 0.78351 0.89602 0.0
H353 H 0.16216 0.76265 0.88111 0.0
H354 H 0.17355 0.76382 0.91218 0.0
H355 H 0.17511 0.79197 0.89973 0.0
H356 H 0.22207 0.79089 0.9862 0.0
H357 H 0.22464 0.85652 0.95292 0.0
H358 H 0.23798 0.75051 0.93665 0.0
H359 H 0.20514 0.74614 0.93213 0.0
H360 H 0.21843 0.75041 0.96293 0.0
H361 H 0.24023 0.83223 0.89552 0.0
H362 H 0.22049 0.85425 0.91001 0.0
H363 H 0.20743 0.82477 0.89176 0.0
C364 C 0.06545 0.52258 0.42734 0.0
C365 C 0.04501 0.53549 0.42639 0.0
C366 C 0.08442 0.52436 0.41037 0.0
C367 C 0.08274 0.53938 0.39206 0.0
C368 C 0.0627 0.55359 0.39204 0.0
C369 C 0.04392 0.55134 0.40919 0.0
C370 C 0.10538 0.50885 0.41103 0.0
C371 C 0.06031 0.56996 0.37297 0.0
C372 C 0.13952 0.55206 0.35397 0.0
C373 C 0.13414 0.53395 0.33256 0.0
C374 C 0.12283 0.55437 0.37338 0.0
C375 C 0.10038 0.53801 0.37143 0.0
C376 C 0.09488 0.51973 0.34984 0.0
C377 C 0.11173 0.51801 0.33066 0.0
C378 C 0.12922 0.57425 0.396 0.0
C379 C 0.07125 0.50175 0.34709 0.0
H380 H 0.066 0.51009 0.44056 0.0
H381 H 0.02786 0.56107 0.40841 0.0
H382 H 0.10377 0.49369 0.39461 0.0
H383 H 0.12343 0.52047 0.41027 0.0
H384 H 0.10535 0.50024 0.42788 0.0
H385 H 0.0455 0.58213 0.37735 0.0
H386 H 0.07803 0.58193 0.37155 0.0
H387 H 0.05593 0.55804 0.35461 0.0
H388 H 0.15673 0.56455 0.35554 0.0
H389 H 0.10743 0.50392 0.31423 0.0
H390 H 0.13037 0.56539 0.41255 0.0
H391 H 0.11443 0.58656 0.39911 0.0
H392 H 0.14707 0.58597 0.39437 0.0
H393 H 0.07036 0.49058 0.36213 0.0
H394 H 0.06969 0.4887 0.32909 0.0
H395 H 0.05504 0.51226 0.34873 0.0
C396 C 0.77812 0.72395 0.83004 0.0
C397 C 0.79874 0.74173 0.82878 0.0
C398 C 0.77767 0.70748 0.84697 0.0
C399 C 0.79834 0.70879 0.86308 0.0
C400 C 0.81934 0.72646 0.86169 0.0
C401 C 0.81931 0.74269 0.84453 0.0
C402 C 0.75499 0.6888 0.84777 0.0
C403 C 0.8417 0.7285 0.8786 0.0
C404 C 0.78778 0.6837 0.92288 0.0
C405 C 0.79632 0.66026 0.91724 0.0
C406 C 0.7884 0.69967 0.90546 0.0
C407 C 0.79772 0.69204 0.88176 0.0
C408 C 0.80629 0.66839 0.87589 0.0
C409 C 0.80552 0.6528 0.8937 0.0
C410 C 0.77911 0.72476 0.91245 0.0
C411 C 0.8163 0.65956 0.85079 0.0
H412 H 0.76232 0.72284 0.81767 0.0
H413 H 0.8352 0.75653 0.84382 0.0
H414 H 0.76014 0.66955 0.84478 0.0
H415 H 0.74678 0.69223 0.86626 0.0
H416 H 0.74069 0.6898 0.83361 0.0
H417 H 0.85681 0.74275 0.87472 0.0
H418 H 0.83642 0.73357 0.8981 0.0
H419 H 0.84887 0.71018 0.87664 0.0
H420 H 0.78068 0.68968 0.94102 0.0
H421 H 0.81216 0.63474 0.88915 0.0
H422 H 0.76366 0.7261 0.89973 0.0
H423 H 0.79404 0.73997 0.91055 0.0
H424 H 0.77257 0.72796 0.93169 0.0
H425 H 0.802 0.65908 0.83621 0.0
H426 H 0.8222 0.64065 0.84912 0.0
H427 H 0.83235 0.67286 0.84719 0.0
C428 C 0.03343 0.02498 0.42599 0.0
C429 C 0.02756 0.00395 0.43722 0.0
C430 C 0.02083 0.02746 0.40439 0.0
C431 C 0.00171 0.00859 0.39389 0.0
C432 C 0.99568 0.98732 0.40511 0.0
C433 C 0.00874 0.98521 0.42656 0.0
C434 C 0.02787 0.05036 0.39291 0.0
C435 C 0.97536 0.96684 0.39449 0.0
C436 C 0.95323 0.02519 0.35175 0.0
C437 C 0.96095 0.01493 0.32831 0.0
C438 C 0.96638 0.02334 0.37324 0.0
C439 C 0.98789 0.01114 0.37124 0.0
C440 C 0.99598 0.00107 0.34763 0.0
C441 C 0.98236 0.00298 0.32645 0.0
C442 C 0.95706 0.03414 0.39811 0.0
C443 C 0.01898 0.98816 0.34474 0.0
H444 H 0.04763 0.03976 0.4343 0.0
H445 H 0.00429 0.96876 0.43492 0.0
H446 H 0.03299 0.04471 0.37343 0.0
H447 H 0.01182 0.06096 0.39272 0.0
H448 H 0.0436 0.063 0.40298 0.0
H449 H 0.97282 0.9516 0.40554 0.0
H450 H 0.95763 0.9747 0.39368 0.0
H451 H 0.97959 0.95868 0.37531 0.0
H452 H 0.93667 0.03438 0.35335 0.0
H453 H 0.98851 0.99511 0.30841 0.0
H454 H 0.97159 0.04813 0.4085 0.0
H455 H 0.9528 0.01912 0.40918 0.0
H456 H 0.94018 0.04327 0.39649 0.0
H457 H 0.03509 0.00098 0.3538 0.0
H458 H 0.02314 0.9819 0.32506 0.0
H459 H 0.01674 0.97163 0.35402 0.0
C460 C 0.26117 0.25844 0.68506 0.0
C461 C 0.26053 0.28388 0.68456 0.0
C462 C 0.25991 0.24077 0.66311 0.0
C463 C 0.25796 0.24874 0.64011 0.0
C464 C 0.25629 0.27423 0.63954 0.0
C465 C 0.25759 0.29148 0.66176 0.0
C466 C 0.26171 0.21375 0.6645 0.0
C467 C 0.25401 0.28343 0.6154 0.0
C468 C 0.28341 0.20955 0.58435 0.0
C469 C 0.26185 0.19564 0.57274 0.0
C470 C 0.28235 0.227 0.60617 0.0
C471 C 0.25916 0.23067 0.61667 0.0
C472 C 0.23729 0.21692 0.60492 0.0
C473 C 0.2389 0.19956 0.5831 0.0
C474 C 0.30609 0.24136 0.61813 0.0
C475 C 0.21224 0.22037 0.61553 0.0
H476 H 0.26372 0.25247 0.70257 0.0
H477 H 0.25675 0.31107 0.66129 0.0
H478 H 0.24624 0.20141 0.65373 0.0
H479 H 0.27915 0.20832 0.65619 0.0
H480 H 0.26137 0.21029 0.6838 0.0
H481 H 0.25121 0.30347 0.61818 0.0
H482 H 0.27102 0.28099 0.60477 0.0
H483 H 0.23831 0.27223 0.60398 0.0
H484 H 0.30122 0.2067 0.57649 0.0
H485 H 0.22212 0.18893 0.57426 0.0
H486 H 0.30836 0.23738 0.63705 0.0
H487 H 0.30538 0.26175 0.61989 0.0
H488 H 0.32258 0.23654 0.60748 0.0
H489 H 0.21146 0.21551 0.63428 0.0
H490 H 0.19696 0.20861 0.60388 0.0
H491 H 0.20914 0.24025 0.61744 0.0
C492 C 0.54827 0.55614 0.62264 0.0
C493 C 0.53451 0.54224 0.6021 0.0
C494 C 0.53793 0.55982 0.64612 0.0
C495 C 0.51348 0.54883 0.64914 0.0
C496 C 0.49942 0.53511 0.62833 0.0
C497 C 0.51004 0.53217 0.60503 0.0
C498 C 0.55331 0.575 0.66776 0.0
C499 C 0.47344 0.52274 0.63082 0.0
C500 C 0.49456 0.53262 0.71123 0.0
C501 C 0.47898 0.5507 0.71952 0.0
C502 C 0.50635 0.53215 0.6886 0.0
C503 C 0.5029 0.55053 0.67415 0.0
C504 C 0.4881 0.56953 0.68297 0.0
C505 C 0.47609 0.56922 0.70544 0.0
C506 C 0.52167 0.51135 0.67967 0.0
C507 C 0.48443 0.58976 0.66835 0.0
H508 H 0.56718 0.564 0.62032 0.0
H509 H 0.49951 0.52114 0.5892 0.0
H510 H 0.54301 0.5898 0.67766 0.0
H511 H 0.55714 0.5628 0.68106 0.0
H512 H 0.57122 0.58393 0.66199 0.0
H513 H 0.4648 0.51322 0.61274 0.0
H514 H 0.47369 0.50871 0.64311 0.0
H515 H 0.46166 0.5368 0.63946 0.0
H516 H 0.49677 0.51817 0.72196 0.0
H517 H 0.46422 0.58336 0.71186 0.0
H518 H 0.5405 0.51922 0.67527 0.0
H519 H 0.51314 0.49972 0.66241 0.0
H520 H 0.52329 0.49907 0.69352 0.0
H521 H 0.50256 0.59869 0.66315 0.0
H522 H 0.47431 0.60444 0.67881 0.0
H523 H 0.47382 0.58143 0.65098 0.0
C524 C 0.78931 0.24913 0.6505 0.0
C525 C 0.81332 0.25577 0.66053 0.0
C526 C 0.77973 0.26335 0.63457 0.0
C527 C 0.79472 0.28443 0.62855 0.0
C528 C 0.8188 0.29143 0.63931 0.0
C529 C 0.82778 0.27697 0.65521 0.0
C530 C 0.75394 0.25542 0.6236 0.0
C531 C 0.83542 0.31365 0.63334 0.0
C532 C 0.78539 0.3052 0.56723 0.0
C533 C 0.77435 0.32707 0.57438 0.0
C534 C 0.7914 0.29077 0.58458 0.0
C535 C 0.7861 0.29825 0.60975 0.0
C536 C 0.77425 0.31987 0.61701 0.0
C537 C 0.7686 0.33409 0.59926 0.0
C538 C 0.80418 0.26795 0.57608 0.0
C539 C 0.76813 0.32833 0.64364 0.0
H540 H 0.77825 0.2326 0.65471 0.0
H541 H 0.84642 0.28192 0.66305 0.0
H542 H 0.74309 0.27149 0.62653 0.0
H543 H 0.75485 0.24913 0.60337 0.0
H544 H 0.74397 0.23995 0.63171 0.0
H545 H 0.85314 0.31732 0.64423 0.0
H546 H 0.83962 0.31035 0.61341 0.0
H547 H 0.82595 0.33067 0.63704 0.0
H548 H 0.78986 0.29956 0.54807 0.0
H549 H 0.75993 0.35088 0.60494 0.0
H550 H 0.79391 0.25132 0.58203 0.0
H551 H 0.823 0.27076 0.58472 0.0
H552 H 0.80585 0.26393 0.55569 0.0
H553 H 0.75763 0.31266 0.651 0.0
H554 H 0.75711 0.3443 0.64596 0.0
H555 H 0.78546 0.3341 0.65497 0.0
C556 C 0.53954 0.01614 0.596 0.0
C557 C 0.52375 0.99394 0.58787 0.0
C558 C 0.55072 0.02109 0.61972 0.0
C559 C 0.54579 0.00348 0.63567 0.0
C560 C 0.52852 0.98188 0.62813 0.0
C561 C 0.51778 0.97732 0.60426 0.0
C562 C 0.56905 0.04431 0.62706 0.0
C563 C 0.5225 0.96281 0.64468 0.0
C564 C 0.5969 0.99843 0.68101 0.0
C565 C 0.58916 0.01175 0.70316 0.0
C566 C 0.58293 0.99567 0.65898 0.0
C567 C 0.56054 0.00631 0.65908 0.0
C568 C 0.55244 0.01952 0.68141 0.0
C569 C 0.56689 0.02216 0.70318 0.0
C570 C 0.59227 0.9815 0.63552 0.0
C571 C 0.52856 0.03091 0.68226 0.0
H572 H 0.54436 0.02891 0.58328 0.0
H573 H 0.5054 0.96024 0.59804 0.0
H574 H 0.56514 0.05429 0.64568 0.0
H575 H 0.58796 0.03894 0.62794 0.0
H576 H 0.56881 0.05738 0.61375 0.0
H577 H 0.50659 0.9487 0.6373 0.0
H578 H 0.5388 0.95294 0.64654 0.0
H579 H 0.51821 0.97214 0.66346 0.0
H580 H 0.6141 0.99038 0.68079 0.0
H581 H 0.56072 0.03243 0.72022 0.0
H582 H 0.59483 0.99379 0.62145 0.0
H583 H 0.57845 0.96534 0.62778 0.0
H584 H 0.6101 0.97449 0.63854 0.0
H585 H 0.52935 0.04484 0.66979 0.0
H586 H 0.52464 0.04025 0.70117 0.0
H587 H 0.51292 0.01622 0.67555 0.0
C588 C 0.86918 0.20349 0.78533 0.0
C589 C 0.86485 0.22277 0.77271 0.0
C590 C 0.88805 0.20705 0.80351 0.0
C591 C 0.90302 0.23045 0.80917 0.0
C592 C 0.89861 0.25009 0.7967 0.0
C593 C 0.87957 0.246 0.77859 0.0
C594 C 0.89224 0.18563 0.81635 0.0
C595 C 0.91417 0.27532 0.80231 0.0
C596 C 0.93949 0.24641 0.87018 0.0
C597 C 0.96312 0.24114 0.86278 0.0
C598 C 0.91973 0.24301 0.85293 0.0
C599 C 0.92372 0.23413 0.8277 0.0
C600 C 0.94747 0.22861 0.82014 0.0
C601 C 0.96688 0.23217 0.83776 0.0
C602 C 0.89462 0.24901 0.86167 0.0
C603 C 0.95242 0.21907 0.7934 0.0
H604 H 0.85815 0.18535 0.78058 0.0
H605 H 0.87615 0.26103 0.76906 0.0
H606 H 0.91098 0.1803 0.81243 0.0
H607 H 0.89134 0.19146 0.83664 0.0
H608 H 0.87844 0.16889 0.81039 0.0
H609 H 0.908 0.28878 0.79137 0.0
H610 H 0.91343 0.28331 0.82223 0.0
H611 H 0.93378 0.27322 0.79828 0.0
H612 H 0.93642 0.25336 0.88945 0.0
H613 H 0.98508 0.22807 0.83186 0.0
H614 H 0.88076 0.23217 0.85685 0.0
H615 H 0.88859 0.26363 0.85217 0.0
H616 H 0.89456 0.2557 0.88193 0.0
H617 H 0.94018 0.20139 0.78664 0.0
H618 H 0.97193 0.21561 0.79056 0.0
H619 H 0.94814 0.23282 0.78188 0.0
C620 C 0.51572 0.90986 0.52006 0.0
C621 C 0.52231 0.93148 0.50994 0.0
C622 C 0.52079 0.88639 0.50784 0.0
C623 C 0.53265 0.88448 0.48491 0.0
C624 C 0.53945 0.90623 0.47463 0.0
C625 C 0.53423 0.92947 0.4873 0.0
C626 C 0.51322 0.86359 0.51933 0.0
C627 C 0.5521 0.90491 0.45019 0.0
C628 C 0.56423 0.82708 0.46175 0.0
C629 C 0.54647 0.81285 0.44472 0.0
C630 C 0.55992 0.85039 0.47512 0.0
C631 C 0.53736 0.85965 0.47131 0.0
C632 C 0.5193 0.8453 0.45429 0.0
C633 C 0.52406 0.82208 0.44124 0.0
C634 C 0.57957 0.86517 0.49319 0.0
C635 C 0.49502 0.85457 0.44971 0.0
H636 H 0.50625 0.91124 0.53741 0.0
H637 H 0.53972 0.94616 0.47957 0.0
H638 H 0.49965 0.85024 0.50695 0.0
H639 H 0.52951 0.85383 0.52164 0.0
H640 H 0.50484 0.86837 0.53763 0.0
H641 H 0.55646 0.92361 0.44489 0.0
H642 H 0.56954 0.89656 0.45108 0.0
H643 H 0.54012 0.89262 0.43544 0.0
H644 H 0.58158 0.82008 0.46456 0.0
H645 H 0.51021 0.81122 0.42812 0.0
H646 H 0.57185 0.86913 0.51188 0.0
H647 H 0.5857 0.88346 0.48769 0.0
H648 H 0.59595 0.85518 0.49429 0.0
H649 H 0.48508 0.85823 0.46725 0.0
H650 H 0.48281 0.841 0.43605 0.0
H651 H 0.49846 0.87252 0.44281 0.0
C652 C 0.18615 0.30906 0.79242 0.0
C653 C 0.20222 0.29149 0.78451 0.0
C654 C 0.16325 0.30183 0.8022 0.0
C655 C 0.15644 0.27642 0.80406 0.0
C656 C 0.17236 0.25845 0.79517 0.0
C657 C 0.19524 0.26627 0.78555 0.0
C658 C 0.14684 0.32156 0.81147 0.0
C659 C 0.16567 0.23119 0.79671 0.0
C660 C 0.11197 0.26469 0.85476 0.0
C661 C 0.08929 0.25824 0.84161 0.0
C662 C 0.13401 0.27011 0.84266 0.0
C663 C 0.1334 0.26906 0.81675 0.0
C664 C 0.11066 0.26212 0.80329 0.0
C665 C 0.08888 0.25679 0.81588 0.0
C666 C 0.1579 0.27745 0.85768 0.0
C667 C 0.10929 0.2608 0.77566 0.0
H668 H 0.19185 0.32861 0.7917 0.0
H669 H 0.20794 0.25282 0.77952 0.0
H670 H 0.12797 0.31607 0.80308 0.0
H671 H 0.14515 0.32327 0.83177 0.0
H672 H 0.15415 0.34018 0.80727 0.0
H673 H 0.17908 0.21935 0.78718 0.0
H674 H 0.16516 0.22895 0.81636 0.0
H675 H 0.14695 0.22426 0.78842 0.0
H676 H 0.1125 0.2658 0.87463 0.0
H677 H 0.07146 0.25177 0.80554 0.0
H678 H 0.16565 0.29683 0.85617 0.0
H679 H 0.17175 0.26503 0.85035 0.0
H680 H 0.15538 0.27647 0.87752 0.0
H681 H 0.11493 0.27964 0.77117 0.0
H682 H 0.0904 0.25387 0.76774 0.0
H683 H 0.12233 0.2483 0.76654 0.0
C684 C 0.54194 0.57785 0.46834 0.0
C685 C 0.53075 0.57747 0.49105 0.0
C686 C 0.5411 0.59817 0.45609 0.0
C687 C 0.52873 0.61849 0.46693 0.0
C688 C 0.51775 0.61828 0.4902 0.0
C689 C 0.51887 0.59764 0.50201 0.0
C690 C 0.55301 0.59766 0.43134 0.0
C691 C 0.50447 0.63961 0.50236 0.0
C692 C 0.54347 0.67945 0.44274 0.0
C693 C 0.52369 0.67809 0.42589 0.0
C694 C 0.54513 0.66042 0.45657 0.0
C695 C 0.5266 0.6395 0.45345 0.0
C696 C 0.50643 0.63818 0.43674 0.0
C697 C 0.50521 0.65749 0.42319 0.0
C698 C 0.5669 0.66251 0.47425 0.0
C699 C 0.48631 0.61616 0.43286 0.0
H700 H 0.55106 0.56206 0.45998 0.0
H701 H 0.51019 0.59712 0.51962 0.0
H702 H 0.53876 0.59788 0.41692 0.0
H703 H 0.56662 0.61459 0.43183 0.0
H704 H 0.56258 0.58085 0.42586 0.0
H705 H 0.49785 0.63706 0.52091 0.0
H706 H 0.51691 0.65752 0.50428 0.0
H707 H 0.48835 0.64123 0.4906 0.0
H708 H 0.55781 0.69533 0.44503 0.0
H709 H 0.48983 0.65627 0.41027 0.0
H710 H 0.57786 0.64683 0.46838 0.0
H711 H 0.56033 0.66103 0.49304 0.0
H712 H 0.57924 0.68042 0.47525 0.0
H713 H 0.49434 0.59876 0.4256 0.0
H714 H 0.47149 0.61832 0.41974 0.0
H715 H 0.47789 0.61377 0.45073 0.0
C716 C 0.83717 0.78308 0.73876 0.0
C717 C 0.84061 0.78504 0.76435 0.0
C718 C 0.85739 0.78249 0.72301 0.0
C719 C 0.88161 0.78394 0.73312 0.0
C720 C 0.88527 0.7873 0.75906 0.0
C721 C 0.86475 0.78781 0.77433 0.0
C722 C 0.85269 0.77895 0.69548 0.0
C723 C 0.91076 0.78913 0.77064 0.0
C724 C 0.92947 0.75132 0.69433 0.0
C725 C 0.94417 0.7714 0.68679 0.0
C726 C 0.90893 0.75517 0.7091 0.0
C727 C 0.90284 0.77973 0.7166 0.0
C728 C 0.91744 0.80009 0.70889 0.0
C729 C 0.93792 0.79569 0.69408 0.0
C730 C 0.89387 0.73293 0.7169 0.0
C731 C 0.91156 0.82653 0.71652 0.0
H732 H 0.81857 0.78074 0.7309 0.0
H733 H 0.86755 0.78968 0.79413 0.0
H734 H 0.86517 0.79281 0.6874 0.0
H735 H 0.85672 0.76008 0.6867 0.0
H736 H 0.83325 0.78079 0.69072 0.0
H737 H 0.91071 0.79392 0.79111 0.0
H738 H 0.91813 0.77097 0.76545 0.0
H739 H 0.92362 0.80347 0.76364 0.0
H740 H 0.93407 0.73248 0.68879 0.0
H741 H 0.94914 0.81133 0.68834 0.0
H742 H 0.87423 0.73193 0.71095 0.0
H743 H 0.89444 0.73507 0.73734 0.0
H744 H 0.90068 0.71499 0.70903 0.0
H745 H 0.8923 0.82781 0.71075 0.0
H746 H 0.92426 0.84022 0.70839 0.0
H747 H 0.9129 0.83189 0.73693 0.0
C748 C 0.01051 0.93072 0.55133 0.0
C749 C 0.03239 0.94602 0.54845 0.0
C750 C 0.01025 0.91171 0.56543 0.0
C751 C 0.03249 0.90794 0.57687 0.0
C752 C 0.05477 0.92329 0.57373 0.0
C753 C 0.05445 0.94229 0.55951 0.0
C754 C 0.9861 0.89584 0.5683 0.0
C755 C 0.07883 0.91977 0.58555 0.0
C756 C 0.02363 0.87451 0.63175 0.0
C757 C 0.02537 0.84964 0.62084 0.0
C758 C 0.02682 0.89383 0.61785 0.0
C759 C 0.03204 0.8882 0.59245 0.0
C760 C 0.03475 0.8633 0.58155 0.0
C761 C 0.03129 0.84431 0.59584 0.0
C762 C 0.02364 0.92011 0.63015 0.0
C763 C 0.04048 0.85656 0.55457 0.0
H764 H 0.99349 0.93379 0.54269 0.0
H765 H 0.07133 0.95428 0.55717 0.0
H766 H 0.98781 0.87581 0.56163 0.0
H767 H 0.9815 0.8979 0.58811 0.0
H768 H 0.97053 0.90101 0.55795 0.0
H769 H 0.09463 0.93274 0.58073 0.0
H770 H 0.07733 0.92293 0.60593 0.0
H771 H 0.08283 0.90027 0.57965 0.0
H772 H 0.01913 0.87885 0.65106 0.0
H773 H 0.03287 0.82519 0.58728 0.0
H774 H 0.00712 0.92597 0.62203 0.0
H775 H 0.03983 0.93337 0.62681 0.0
H776 H 0.02136 0.92172 0.65039 0.0
H777 H 0.02465 0.85934 0.54303 0.0
H778 H 0.04416 0.83683 0.54943 0.0
H779 H 0.05681 0.86901 0.55005 0.0
C780 C 0.16482 0.75832 0.75595 0.0
C781 C 0.1631 0.73329 0.75874 0.0
C782 C 0.14451 0.76776 0.74676 0.0
C783 C 0.12219 0.75162 0.7401 0.0
C784 C 0.12022 0.72653 0.74391 0.0
C785 C 0.1408 0.71765 0.75319 0.0
C786 C 0.1473 0.79463 0.7431 0.0
C787 C 0.09681 0.7087 0.73705 0.0
C788 C 0.06237 0.77727 0.72789 0.0
C789 C 0.06132 0.77356 0.70198 0.0
C790 C 0.08232 0.77073 0.74064 0.0
C791 C 0.10165 0.76021 0.72716 0.0
C792 C 0.10093 0.7569 0.70105 0.0
C793 C 0.08083 0.76362 0.6888 0.0
C794 C 0.08247 0.7746 0.7685 0.0
C795 C 0.12117 0.74574 0.68596 0.0
H796 H 0.18227 0.77026 0.76016 0.0
H797 H 0.13971 0.6982 0.75525 0.0
H798 H 0.14696 0.79526 0.72305 0.0
H799 H 0.13163 0.80403 0.75126 0.0
H800 H 0.16487 0.80534 0.75149 0.0
H801 H 0.09763 0.69045 0.74301 0.0
H802 H 0.08066 0.71701 0.74551 0.0
H803 H 0.09365 0.70526 0.71672 0.0
H804 H 0.04742 0.78497 0.73825 0.0
H805 H 0.08025 0.76071 0.66879 0.0
H806 H 0.1 0.78581 0.77627 0.0
H807 H 0.08146 0.75626 0.77463 0.0
H808 H 0.06675 0.78421 0.7763 0.0
H809 H 0.13936 0.75673 0.69187 0.0
H810 H 0.11826 0.74517 0.66585 0.0
H811 H 0.12203 0.72639 0.68912 0.0
C812 C 0.99554 0.609 0.50696 0.0
C813 C 0.99031 0.58838 0.51886 0.0
C814 C 0.00081 0.63338 0.52063 0.0
C815 C 0.00106 0.63714 0.54678 0.0
C816 C 0.99638 0.6163 0.55885 0.0
C817 C 0.991 0.59222 0.54476 0.0
C818 C 0.00559 0.65514 0.5071 0.0
C819 C 0.99678 0.61944 0.58669 0.0
C820 C 0.03452 0.697 0.58455 0.0
C821 C 0.01482 0.71037 0.59248 0.0
C822 C 0.03036 0.67336 0.56933 0.0
C823 C 0.00591 0.66286 0.56166 0.0
C824 C 0.98598 0.67648 0.56915 0.0
C825 C 0.99065 0.70002 0.58454 0.0
C826 C 0.0521 0.65936 0.5619 0.0
C827 C 0.95965 0.66598 0.56124 0.0
H828 H 0.99483 0.60614 0.48696 0.0
H829 H 0.98728 0.57629 0.55403 0.0
H830 H 0.99137 0.66791 0.51176 0.0
H831 H 0.0238 0.66605 0.51305 0.0
H832 H 0.00531 0.64902 0.48674 0.0
H833 H 0.99339 0.60126 0.5932 0.0
H834 H 0.01493 0.62927 0.5944 0.0
H835 H 0.98245 0.63116 0.59425 0.0
H836 H 0.05326 0.7048 0.59058 0.0
H837 H 0.97532 0.71024 0.59048 0.0
H838 H 0.0524 0.65416 0.5415 0.0
H839 H 0.05025 0.64174 0.56945 0.0
H840 H 0.07004 0.6705 0.56864 0.0
H841 H 0.95802 0.66088 0.54082 0.0
H842 H 0.94637 0.67942 0.56761 0.0
H843 H 0.9543 0.64865 0.5688 0.0
C844 C 0.78409 0.85662 0.24809 0.0
C845 C 0.79594 0.83856 0.23295 0.0
C846 C 0.79642 0.88074 0.25668 0.0
C847 C 0.82125 0.88676 0.25022 0.0
C848 C 0.83327 0.86857 0.23494 0.0
C849 C 0.82044 0.84474 0.22642 0.0
C850 C 0.78292 0.89974 0.27269 0.0
C851 C 0.85982 0.87416 0.22785 0.0
C852 C 0.84986 0.9542 0.25344 0.0
C853 C 0.86376 0.95865 0.27569 0.0
C854 C 0.83532 0.93114 0.2453 0.0
C855 C 0.8349 0.91197 0.25959 0.0
C856 C 0.84855 0.9165 0.28227 0.0
C857 C 0.8627 0.93983 0.29011 0.0
C858 C 0.82079 0.92712 0.22116 0.0
C859 C 0.84877 0.89645 0.29791 0.0
H860 H 0.76509 0.85194 0.25302 0.0
H861 H 0.82978 0.83071 0.21503 0.0
H862 H 0.79259 0.90578 0.29096 0.0
H863 H 0.78291 0.91662 0.2641 0.0
H864 H 0.76348 0.89227 0.27561 0.0
H865 H 0.86645 0.85796 0.21579 0.0
H866 H 0.86184 0.89031 0.21803 0.0
H867 H 0.87194 0.87942 0.24471 0.0
H868 H 0.85044 0.9687 0.24227 0.0
H869 H 0.87341 0.9431 0.3073 0.0
H870 H 0.80109 0.9206 0.22392 0.0
H871 H 0.82797 0.91233 0.20769 0.0
H872 H 0.82184 0.94441 0.21303 0.0
H873 H 0.82961 0.88954 0.30229 0.0
H874 H 0.85959 0.90324 0.3155 0.0
H875 H 0.85687 0.88028 0.28747 0.0
C876 C 0.76735 0.14828 0.30233 0.0
C877 C 0.77461 0.17377 0.31136 0.0
C878 C 0.78427 0.13081 0.30125 0.0
C879 C 0.80905 0.139 0.30951 0.0
C880 C 0.81649 0.16466 0.31882 0.0
C881 C 0.79919 0.18174 0.31959 0.0
C882 C 0.77562 0.1036 0.29121 0.0
C883 C 0.84275 0.17408 0.3278 0.0
C884 C 0.84648 0.08967 0.32575 0.0
C885 C 0.85975 0.0839 0.30418 0.0
C886 C 0.83028 0.10792 0.32795 0.0
C887 C 0.82721 0.12066 0.30807 0.0
C888 C 0.84088 0.11526 0.28643 0.0
C889 C 0.857 0.09699 0.28476 0.0
C890 C 0.81612 0.11327 0.35137 0.0
C891 C 0.8381 0.12843 0.26483 0.0
H892 H 0.74831 0.14191 0.29629 0.0
H893 H 0.80502 0.20144 0.32631 0.0
H894 H 0.78653 0.09701 0.27497 0.0
H895 H 0.7787 0.09206 0.30536 0.0
H896 H 0.75571 0.10028 0.28559 0.0
H897 H 0.84543 0.19452 0.33503 0.0
H898 H 0.84798 0.16417 0.34262 0.0
H899 H 0.85559 0.17006 0.31247 0.0
H900 H 0.84854 0.07973 0.34088 0.0
H901 H 0.86719 0.0927 0.26803 0.0
H902 H 0.796 0.1085 0.34715 0.0
H903 H 0.81945 0.13351 0.35932 0.0
H904 H 0.82136 0.1025 0.36551 0.0
H905 H 0.81878 0.12424 0.25738 0.0
H906 H 0.8507 0.12272 0.24968 0.0
H907 H 0.84192 0.14898 0.27094 0.0
C908 C 0.39928 0.02247 0.01438 0.0
C909 C 0.4209 0.01172 0.00793 0.0
C910 C 0.37814 0.00812 0.02118 0.0
C911 C 0.37865 0.98241 0.02162 0.0
C912 C 0.40055 0.97154 0.01554 0.0
C913 C 0.4214 0.98631 0.00873 0.0
C914 C 0.35509 0.02036 0.0274 0.0
C915 C 0.40187 0.94422 0.01594 0.0
C916 C 0.32965 0.9492 0.05754 0.0
C917 C 0.31278 0.93693 0.03863 0.0
C918 C 0.35122 0.96401 0.05229 0.0
C919 C 0.35598 0.96668 0.02756 0.0
C920 C 0.33902 0.95436 0.00841 0.0
C921 C 0.31768 0.93962 0.01416 0.0
C922 C 0.36892 0.97681 0.0732 0.0
C923 C 0.3434 0.95679 0.98181 0.0
H924 H 0.39869 0.04202 0.01353 0.0
H925 H 0.43816 0.97799 0.00408 0.0
H926 H 0.33992 0.01146 0.01401 0.0
H927 H 0.34891 0.01761 0.04601 0.0
H928 H 0.358 0.04074 0.02704 0.0
H929 H 0.42054 0.93885 0.01156 0.0
H930 H 0.39692 0.93991 0.03439 0.0
H931 H 0.38827 0.93247 0.00231 0.0
H932 H 0.32605 0.94721 0.07649 0.0
H933 H 0.30475 0.93025 0.99941 0.0
H934 H 0.37104 0.99735 0.07397 0.0
H935 H 0.38746 0.97072 0.06993 0.0
H936 H 0.36262 0.97272 0.09139 0.0
H937 H 0.34486 0.97675 0.97987 0.0
H938 H 0.32838 0.94605 0.9691 0.0
H939 H 0.36116 0.95002 0.97595 0.0
C940 C 0.24628 0.34219 0.26092 0.0
C941 C 0.25727 0.34124 0.28369 0.0
C942 C 0.23578 0.3635 0.25723 0.0
C943 C 0.23615 0.38407 0.27694 0.0
C944 C 0.24845 0.38354 0.29958 0.0
C945 C 0.25884 0.36203 0.30269 0.0
C946 C 0.22299 0.36335 0.23278 0.0
C947 C 0.24926 0.40502 0.32105 0.0
C948 C 0.21813 0.44611 0.26503 0.0
C949 C 0.19325 0.4443 0.2717 0.0
C950 C 0.23235 0.42661 0.26644 0.0
C951 C 0.22146 0.40487 0.27484 0.0
C952 C 0.19638 0.40298 0.28161 0.0
C953 C 0.1826 0.42265 0.2799 0.0
C954 C 0.25898 0.42926 0.25895 0.0
C955 C 0.18407 0.38016 0.29078 0.0
H956 H 0.24489 0.32587 0.24637 0.0
H957 H 0.26715 0.36102 0.3204 0.0
H958 H 0.20272 0.36205 0.23521 0.0
H959 H 0.22886 0.38102 0.22597 0.0
H960 H 0.22688 0.34737 0.21851 0.0
H961 H 0.26173 0.40284 0.33637 0.0
H962 H 0.25554 0.423 0.315 0.0
H963 H 0.2304 0.40615 0.32824 0.0
H964 H 0.22651 0.46273 0.25859 0.0
H965 H 0.16342 0.42105 0.28513 0.0
H966 H 0.26194 0.41362 0.2439 0.0
H967 H 0.27125 0.42814 0.27477 0.0
H968 H 0.26463 0.44722 0.25254 0.0
H969 H 0.18487 0.36321 0.27658 0.0
H970 H 0.16441 0.38159 0.29529 0.0
H971 H 0.19407 0.37752 0.30757 0.0
C972 C 0.11185 0.03801 0.51088 0.0
C973 C 0.10495 0.01983 0.48988 0.0
C974 C 0.13508 0.05262 0.51284 0.0
C975 C 0.15184 0.04882 0.49338 0.0
C976 C 0.14559 0.02935 0.47291 0.0
C977 C 0.12217 0.01516 0.47136 0.0
C978 C 0.141 0.07321 0.53496 0.0
C979 C 0.16305 0.02444 0.45195 0.0
C980 C 0.19541 0.10536 0.48252 0.0
C981 C 0.21758 0.10171 0.49361 0.0
C982 C 0.17398 0.08824 0.4823 0.0
C983 C 0.17472 0.06677 0.49326 0.0
C984 C 0.19711 0.06275 0.50418 0.0
C985 C 0.21826 0.08031 0.50431 0.0
C986 C 0.15044 0.09329 0.47055 0.0
C987 C 0.19866 0.03998 0.51584 0.0
H988 H 0.09852 0.04187 0.52513 0.0
H989 H 0.11697 0.00094 0.4552 0.0
H990 H 0.15958 0.07248 0.54291 0.0
H991 H 0.14133 0.09164 0.5291 0.0
H992 H 0.1272 0.07205 0.54961 0.0
H993 H 0.15671 0.00683 0.43892 0.0
H994 H 0.16454 0.04015 0.44154 0.0
H995 H 0.18185 0.02335 0.45919 0.0
H996 H 0.19467 0.12183 0.47426 0.0
H997 H 0.23532 0.07729 0.51287 0.0
H998 H 0.13577 0.0947 0.48442 0.0
H999 H 0.14377 0.07753 0.45548 0.0
H1000 H 0.15295 0.11083 0.46281 0.0
H1001 H 0.18575 0.03995 0.53133 0.0
H1002 H 0.21761 0.03924 0.52299 0.0
H1003 H 0.19293 0.02273 0.50215 0.0
C1004 C 0.7599 0.18007 0.72699 0.0
C1005 C 0.78266 0.17916 0.7387 0.0
C1006 C 0.73933 0.1623 0.72889 0.0
C1007 C 0.74142 0.14357 0.7433 0.0
C1008 C 0.76417 0.14274 0.75539 0.0
C1009 C 0.78453 0.16015 0.75255 0.0
C1010 C 0.71549 0.16335 0.71525 0.0
C1011 C 0.76715 0.12327 0.7712 0.0
C1012 C 0.68512 0.10882 0.76818 0.0
C1013 C 0.68398 0.08514 0.7533 0.0
C1014 C 0.70329 0.12836 0.76468 0.0
C1015 C 0.72019 0.12423 0.74539 0.0
C1016 C 0.71827 0.10066 0.72957 0.0
C1017 C 0.70043 0.08128 0.73396 0.0
C1018 C 0.70516 0.15298 0.78236 0.0
C1019 C 0.73552 0.09569 0.70842 0.0
H1020 H 0.75809 0.19467 0.71636 0.0
H1021 H 0.80212 0.15853 0.761 0.0
H1022 H 0.71024 0.14548 0.70227 0.0
H1023 H 0.70033 0.16566 0.72846 0.0
H1024 H 0.71693 0.17894 0.70463 0.0
H1025 H 0.78558 0.12629 0.78074 0.0
H1026 H 0.75272 0.12351 0.78533 0.0
H1027 H 0.76472 0.10436 0.75959 0.0
H1028 H 0.67242 0.1118 0.78317 0.0
H1029 H 0.69934 0.06306 0.72219 0.0
H1030 H 0.70543 0.16869 0.77206 0.0
H1031 H 0.72278 0.15587 0.7933 0.0
H1032 H 0.68962 0.15376 0.79532 0.0
H1033 H 0.73632 0.11075 0.69721 0.0
H1034 H 0.72976 0.07744 0.69616 0.0
H1035 H 0.7545 0.09561 0.71575 0.0
C1036 C 0.43324 0.03305 0.52793 0.0
C1037 C 0.45568 0.04311 0.51942 0.0
C1038 C 0.41213 0.04533 0.52755 0.0
C1039 C 0.41368 0.06803 0.51826 0.0
C1040 C 0.43674 0.07873 0.51069 0.0
C1041 C 0.45752 0.06604 0.51131 0.0
C1042 C 0.38794 0.03338 0.53588 0.0
C1043 C 0.43919 0.10287 0.50069 0.0
C1044 C 0.35605 0.08326 0.48796 0.0
C1045 C 0.34804 0.10149 0.5063 0.0
C1046 C 0.37729 0.07216 0.49172 0.0
C1047 C 0.39087 0.07942 0.51442 0.0
C1048 C 0.38283 0.09769 0.53309 0.0
C1049 C 0.36152 0.10853 0.52881 0.0
C1050 C 0.38528 0.05277 0.47131 0.0
C1051 C 0.3968 0.10585 0.55753 0.0
H1052 H 0.43195 0.01512 0.53396 0.0
H1053 H 0.47497 0.07356 0.50452 0.0
H1054 H 0.37915 0.04722 0.54904 0.0
H1055 H 0.37503 0.02688 0.51972 0.0
H1056 H 0.39034 0.01713 0.54485 0.0
H1057 H 0.45876 0.10981 0.49769 0.0
H1058 H 0.42873 0.09994 0.48283 0.0
H1059 H 0.43113 0.11753 0.51355 0.0
H1060 H 0.34579 0.07768 0.47052 0.0
H1061 H 0.35545 0.12258 0.54311 0.0
H1062 H 0.38612 0.03495 0.47809 0.0
H1063 H 0.40412 0.05911 0.46556 0.0
H1064 H 0.37256 0.04904 0.45486 0.0
H1065 H 0.39809 0.08945 0.56658 0.0
H1066 H 0.3879 0.11997 0.5703 0.0
H1067 H 0.41597 0.11394 0.55448 0.0
C1068 C 0.62073 0.51294 0.56681 0.0
C1069 C 0.6001 0.50412 0.55091 0.0
C1070 C 0.64176 0.50036 0.56519 0.0
C1071 C 0.64211 0.47842 0.54728 0.0
C1072 C 0.62129 0.46936 0.53128 0.0
C1073 C 0.60055 0.4823 0.5333 0.0
C1074 C 0.66365 0.51063 0.5825 0.0
C1075 C 0.62091 0.44597 0.51201 0.0
C1076 C 0.70322 0.4575 0.5252 0.0
C1077 C 0.70525 0.43782 0.53805 0.0
C1078 C 0.68303 0.47121 0.52844 0.0
C1079 C 0.66437 0.46507 0.54489 0.0
C1080 C 0.6665 0.44553 0.55826 0.0
C1081 C 0.68694 0.43214 0.5547 0.0
C1082 C 0.68144 0.49196 0.5139 0.0
C1083 C 0.64696 0.43845 0.57597 0.0
H1084 H 0.62055 0.5299 0.58033 0.0
H1085 H 0.5845 0.47512 0.52126 0.0
H1086 H 0.6681 0.49626 0.59317 0.0
H1087 H 0.68015 0.51535 0.57172 0.0
H1088 H 0.66028 0.52764 0.59567 0.0
H1089 H 0.60318 0.44129 0.50114 0.0
H1090 H 0.6362 0.44839 0.4991 0.0
H1091 H 0.62389 0.4299 0.52097 0.0
H1092 H 0.71732 0.46211 0.51237 0.0
H1093 H 0.68838 0.417 0.56474 0.0
H1094 H 0.67936 0.50967 0.52657 0.0
H1095 H 0.66485 0.48737 0.50136 0.0
H1096 H 0.698 0.49509 0.50265 0.0
H1097 H 0.64416 0.45504 0.58995 0.0
H1098 H 0.65184 0.42348 0.58568 0.0
H1099 H 0.62906 0.43185 0.56578 0.0
C1100 C 0.73562 0.27278 0.35349 0.0
C1101 C 0.73802 0.24811 0.35601 0.0
C1102 C 0.73775 0.29215 0.37416 0.0
C1103 C 0.74262 0.28674 0.39784 0.0
C1104 C 0.74413 0.26175 0.4006 0.0
C1105 C 0.74162 0.24275 0.37971 0.0
C1106 C 0.7357 0.31853 0.37053 0.0
C1107 C 0.74935 0.25518 0.42552 0.0
C1108 C 0.77762 0.33673 0.44664 0.0
C1109 C 0.75887 0.34336 0.46287 0.0
C1110 C 0.77245 0.31874 0.42513 0.0
C1111 C 0.74786 0.30728 0.41953 0.0
C1112 C 0.72869 0.31447 0.4354 0.0
C1113 C 0.73444 0.33232 0.45698 0.0
C1114 C 0.79346 0.31143 0.4088 0.0
C1115 C 0.70221 0.30292 0.42986 0.0
H1116 H 0.73297 0.27713 0.33525 0.0
H1117 H 0.74292 0.22366 0.3819 0.0
H1118 H 0.72264 0.32716 0.38376 0.0
H1119 H 0.75399 0.33006 0.37427 0.0
H1120 H 0.72936 0.31924 0.35146 0.0
H1121 H 0.74884 0.23471 0.42469 0.0
H1122 H 0.76788 0.26446 0.43266 0.0
H1123 H 0.73566 0.26213 0.43898 0.0
H1124 H 0.79654 0.34514 0.45103 0.0
H1125 H 0.71981 0.33747 0.46934 0.0
H1126 H 0.78951 0.31368 0.38957 0.0
H1127 H 0.79534 0.29141 0.40838 0.0
H1128 H 0.81138 0.32276 0.41526 0.0
H1129 H 0.69657 0.30446 0.41083 0.0
H1130 H 0.68924 0.3119 0.44301 0.0
H1131 H 0.70043 0.28271 0.43083 0.0
C1132 C 0.54954 0.02216 0.92422 0.0
C1133 C 0.52999 0.03648 0.92455 0.0
C1134 C 0.56805 0.02342 0.90671 0.0
C1135 C 0.56682 0.03935 0.88915 0.0
C1136 C 0.54772 0.05487 0.89038 0.0
C1137 C 0.52938 0.05312 0.90805 0.0
C1138 C 0.588 0.00652 0.90603 0.0
C1139 C 0.54585 0.07222 0.87214 0.0
C1140 C 0.62317 0.05081 0.85015 0.0
C1141 C 0.61674 0.03352 0.82835 0.0
C1142 C 0.60702 0.0532 0.87001 0.0
C1143 C 0.58396 0.03784 0.86809 0.0
C1144 C 0.57735 0.02042 0.8461 0.0
C1145 C 0.59375 0.01854 0.82651 0.0
C1146 C 0.61465 0.07207 0.89309 0.0
C1147 C 0.553 0.00357 0.84332 0.0
H1148 H 0.5497 0.00907 0.93689 0.0
H1149 H 0.514 0.06394 0.90825 0.0
H1150 H 0.58537 0.99195 0.88913 0.0
H1151 H 0.60649 0.01731 0.9052 0.0
H1152 H 0.58778 0.99712 0.92237 0.0
H1153 H 0.53177 0.08508 0.87735 0.0
H1154 H 0.56397 0.08351 0.8707 0.0
H1155 H 0.54073 0.06106 0.85356 0.0
H1156 H 0.64084 0.06254 0.85172 0.0
H1157 H 0.58858 0.00512 0.80977 0.0
H1158 H 0.6156 0.06238 0.90911 0.0
H1159 H 0.60062 0.08516 0.89714 0.0
H1160 H 0.6329 0.08308 0.89144 0.0
H1161 H 0.55179 0.99171 0.85779 0.0
H1162 H 0.55055 0.99119 0.82495 0.0
H1163 H 0.53746 0.01498 0.8459 0.0
C1164 C 0.32722 0.25035 0.36363 0.0
C1165 C 0.30757 0.24624 0.34622 0.0
C1166 C 0.32573 0.23885 0.38461 0.0
C1167 C 0.30408 0.22285 0.38824 0.0
C1168 C 0.28466 0.21779 0.37016 0.0
C1169 C 0.28666 0.22949 0.34939 0.0
C1170 C 0.34688 0.24463 0.4034 0.0
C1171 C 0.26133 0.20075 0.3732 0.0
C1172 C 0.30385 0.17945 0.43537 0.0
C1173 C 0.29276 0.19291 0.45553 0.0
C1174 C 0.30804 0.18909 0.41348 0.0
C1175 C 0.30091 0.21273 0.41165 0.0
C1176 C 0.28991 0.22647 0.432 0.0
C1177 C 0.28599 0.21643 0.45366 0.0
C1178 C 0.31987 0.1739 0.39222 0.0
C1179 C 0.28195 0.25171 0.4308 0.0
H1180 H 0.34337 0.26336 0.36138 0.0
H1181 H 0.2716 0.22586 0.33577 0.0
H1182 H 0.34085 0.25547 0.42081 0.0
H1183 H 0.35249 0.22707 0.40781 0.0
H1184 H 0.36323 0.25563 0.39686 0.0
H1185 H 0.24865 0.19748 0.35674 0.0
H1186 H 0.26591 0.18244 0.37661 0.0
H1187 H 0.2514 0.20912 0.3895 0.0
H1188 H 0.30921 0.16129 0.43665 0.0
H1189 H 0.27745 0.22701 0.4691 0.0
H1190 H 0.33665 0.18502 0.38669 0.0
H1191 H 0.30691 0.16918 0.37596 0.0
H1192 H 0.32512 0.15626 0.39686 0.0
H1193 H 0.29791 0.26465 0.42634 0.0
H1194 H 0.27421 0.26029 0.44842 0.0
H1195 H 0.26774 0.24978 0.41583 0.0
C1196 C 0.49664 0.52039 0.9438 0.0
C1197 C 0.51824 0.5089 0.94017 0.0
C1198 C 0.483 0.52499 0.9237 0.0
C1199 C 0.49108 0.51776 0.89939 0.0
C1200 C 0.5129 0.50619 0.89562 0.0
C1201 C 0.52625 0.50197 0.91605 0.0
C1202 C 0.45993 0.53753 0.92847 0.0
C1203 C 0.52198 0.49798 0.86997 0.0
C1204 C 0.4437 0.5065 0.84644 0.0
C1205 C 0.44878 0.52836 0.83636 0.0
C1206 C 0.4573 0.50286 0.86696 0.0
C1207 C 0.47634 0.52162 0.87783 0.0
C1208 C 0.48144 0.54384 0.86791 0.0
C1209 C 0.46766 0.54691 0.84721 0.0
C1210 C 0.45142 0.47882 0.87687 0.0
C1211 C 0.50149 0.56434 0.87913 0.0
H1212 H 0.49056 0.52608 0.96243 0.0
H1213 H 0.54281 0.49287 0.91315 0.0
H1214 H 0.46145 0.55477 0.92028 0.0
H1215 H 0.44366 0.52494 0.91946 0.0
H1216 H 0.4565 0.54257 0.9485 0.0
H1217 H 0.53952 0.48964 0.87023 0.0
H1218 H 0.50779 0.48397 0.85909 0.0
H1219 H 0.52497 0.51416 0.86023 0.0
H1220 H 0.42921 0.49201 0.83815 0.0
H1221 H 0.47166 0.56387 0.83958 0.0
H1222 H 0.44636 0.48298 0.89652 0.0
H1223 H 0.468 0.46887 0.87611 0.0
H1224 H 0.436 0.46611 0.86633 0.0
H1225 H 0.49792 0.57074 0.89891 0.0
H1226 H 0.50282 0.58069 0.86955 0.0
H1227 H 0.51962 0.55705 0.87828 0.0
C1228 C 0.75497 0.74855 0.15355 0.0
C1229 C 0.77569 0.76378 0.16549 0.0
C1230 C 0.75617 0.73551 0.12936 0.0
C1231 C 0.77864 0.73779 0.11673 0.0
C1232 C 0.79945 0.75366 0.12841 0.0
C1233 C 0.79773 0.76648 0.15269 0.0
C1234 C 0.73353 0.71887 0.1175 0.0
C1235 C 0.8237 0.75658 0.11551 0.0
C1236 C 0.78796 0.68363 0.06572 0.0
C1237 C 0.78166 0.69269 0.04449 0.0
C1238 C 0.78747 0.6983 0.08929 0.0
C1239 C 0.78054 0.72267 0.09173 0.0
C1240 C 0.77453 0.73211 0.07038 0.0
C1241 C 0.77514 0.717 0.04701 0.0
C1242 C 0.79397 0.68755 0.11162 0.0
C1243 C 0.76709 0.75802 0.07227 0.0
H1244 H 0.73776 0.74675 0.1632 0.0
H1245 H 0.81386 0.77806 0.16188 0.0
H1246 H 0.72876 0.72422 0.09968 0.0
H1247 H 0.73741 0.69917 0.11341 0.0
H1248 H 0.71724 0.71988 0.12948 0.0
H1249 H 0.83768 0.77074 0.12658 0.0
H1250 H 0.83121 0.7384 0.11189 0.0
H1251 H 0.82083 0.76216 0.09737 0.0
H1252 H 0.79306 0.6649 0.06398 0.0
H1253 H 0.77031 0.7242 0.03072 0.0
H1254 H 0.77778 0.68633 0.12365 0.0
H1255 H 0.80916 0.70005 0.12267 0.0
H1256 H 0.79976 0.66862 0.10652 0.0
H1257 H 0.74987 0.7593 0.08277 0.0
H1258 H 0.76394 0.76297 0.05386 0.0
H1259 H 0.78161 0.77209 0.08256 0.0
C1260 C 0.01883 0.06521 0.12396 0.0
C1261 C 0.0312 0.04473 0.11454 0.0
C1262 C 0.00698 0.06656 0.14663 0.0
C1263 C 0.00763 0.04704 0.16031 0.0
C1264 C 0.02087 0.02678 0.1514 0.0
C1265 C 0.03241 0.02582 0.12858 0.0
C1266 C 0.99306 0.08848 0.15552 0.0
C1267 C 0.0221 0.00566 0.16553 0.0
C1268 C 0.98972 0.05808 0.22771 0.0
C1269 C 0.96522 0.04638 0.22613 0.0
C1270 C 0.00382 0.05842 0.20646 0.0
C1271 C 0.9931 0.04695 0.1831 0.0
C1272 C 0.96834 0.03526 0.18138 0.0
C1273 C 0.95475 0.03504 0.2029 0.0
C1274 C 0.03022 0.0709 0.20901 0.0
C1275 C 0.95618 0.02298 0.15678 0.0
H1276 H 0.01815 0.08009 0.11341 0.0
H1277 H 0.04165 0.00977 0.12134 0.0
H1278 H 0.97305 0.08183 0.15606 0.0
H1279 H 0.99932 0.09744 0.17458 0.0
H1280 H 0.99553 0.10281 0.14343 0.0
H1281 H 0.03478 0.99236 0.15711 0.0
H1282 H 0.02837 0.01316 0.18492 0.0
H1283 H 0.00338 0.9952 0.16603 0.0
H1284 H 0.99798 0.06682 0.24559 0.0
H1285 H 0.93582 0.02603 0.20148 0.0
H1286 H 0.03267 0.08606 0.19791 0.0
H1287 H 0.04288 0.05716 0.20169 0.0
H1288 H 0.03582 0.07898 0.2285 0.0
H1289 H 0.9565 0.03684 0.14425 0.0
H1290 H 0.9367 0.01492 0.15859 0.0
H1291 H 0.96661 0.00783 0.14787 0.0
C1292 C 0.29663 0.75105 0.13498 0.0
C1293 C 0.31025 0.76225 0.15653 0.0
C1294 C 0.28701 0.76578 0.11961 0.0
C1295 C 0.29147 0.79223 0.12594 0.0
C1296 C 0.30426 0.80347 0.14841 0.0
C1297 C 0.31353 0.78827 0.16344 0.0
C1298 C 0.27333 0.75308 0.09594 0.0
C1299 C 0.3095 0.83153 0.15584 0.0
C1300 C 0.29706 0.82933 0.07358 0.0
C1301 C 0.27446 0.83915 0.07423 0.0
C1302 C 0.30268 0.814 0.09023 0.0
C1303 C 0.28522 0.80811 0.10793 0.0
C1304 C 0.26228 0.81779 0.10862 0.0
C1305 C 0.25721 0.8333 0.09182 0.0
C1306 C 0.32746 0.80424 0.08898 0.0
C1307 C 0.24315 0.81179 0.1271 0.0
H1308 H 0.29436 0.73085 0.12964 0.0
H1309 H 0.32432 0.79681 0.18008 0.0
H1310 H 0.25593 0.76117 0.09387 0.0
H1311 H 0.28485 0.75624 0.07996 0.0
H1312 H 0.26883 0.73259 0.09515 0.0
H1313 H 0.31743 0.83727 0.17494 0.0
H1314 H 0.32281 0.83905 0.14298 0.0
H1315 H 0.29235 0.84025 0.15454 0.0
H1316 H 0.31054 0.83377 0.06012 0.0
H1317 H 0.23965 0.8407 0.09238 0.0
H1318 H 0.32478 0.7835 0.08573 0.0
H1319 H 0.3378 0.81073 0.10685 0.0
H1320 H 0.33895 0.81049 0.07408 0.0
H1321 H 0.23825 0.79123 0.12501 0.0
H1322 H 0.22603 0.82037 0.12493 0.0
H1323 H 0.25083 0.81858 0.14615 0.0
C1324 C 0.03956 0.47013 0.10467 0.0
C1325 C 0.04328 0.48962 0.09108 0.0
C1326 C 0.05202 0.47183 0.12742 0.0
C1327 C 0.06872 0.49344 0.13667 0.0
C1328 C 0.07272 0.51306 0.1229 0.0
C1329 C 0.05988 0.51095 0.1003 0.0
C1330 C 0.04714 0.45063 0.14169 0.0
C1331 C 0.09056 0.53631 0.13204 0.0
C1332 C 0.0852 0.5112 0.20516 0.0
C1333 C 0.10862 0.5033 0.20624 0.0
C1334 C 0.0717 0.50747 0.18273 0.0
C1335 C 0.08194 0.49573 0.16083 0.0
C1336 C 0.1053 0.48716 0.16188 0.0
C1337 C 0.11832 0.49096 0.1846 0.0
C1338 C 0.04672 0.51664 0.18236 0.0
C1339 C 0.11686 0.47464 0.1389 0.0
H1340 H 0.02653 0.45373 0.09769 0.0
H1341 H 0.06301 0.5259 0.08969 0.0
H1342 H 0.06466 0.44325 0.14507 0.0
H1343 H 0.03974 0.45757 0.16 0.0
H1344 H 0.03376 0.43502 0.13183 0.0
H1345 H 0.09182 0.54969 0.11894 0.0
H1346 H 0.08468 0.54591 0.15011 0.0
H1347 H 0.10926 0.53116 0.13495 0.0
H1348 H 0.07751 0.52063 0.22181 0.0
H1349 H 0.13641 0.4848 0.18526 0.0
H1350 H 0.03257 0.50123 0.17358 0.0
H1351 H 0.04737 0.53167 0.17114 0.0
H1352 H 0.04073 0.52407 0.20118 0.0
H1353 H 0.10405 0.45841 0.12936 0.0
H1354 H 0.13465 0.46808 0.14301 0.0
H1355 H 0.12028 0.48795 0.12586 0.0
C1356 C 0.37985 0.70481 0.27244 0.0
C1357 C 0.37467 0.72493 0.2614 0.0
C1358 C 0.39913 0.70764 0.29007 0.0
C1359 C 0.4138 0.73111 0.2967 0.0
C1360 C 0.409 0.75141 0.28536 0.0
C1361 C 0.38945 0.74809 0.26785 0.0
C1362 C 0.40367 0.68554 0.30173 0.0
C1363 C 0.42433 0.77669 0.29193 0.0
C1364 C 0.44756 0.74459 0.35912 0.0
C1365 C 0.47149 0.73956 0.35262 0.0
C1366 C 0.42866 0.74207 0.34108 0.0
C1367 C 0.43385 0.73446 0.31591 0.0
C1368 C 0.45797 0.72944 0.30919 0.0
C1369 C 0.4765 0.73198 0.32764 0.0
C1370 C 0.4031 0.74739 0.34897 0.0
C1371 C 0.4642 0.72136 0.28253 0.0
H1372 H 0.36886 0.68671 0.26717 0.0
H1373 H 0.38546 0.76374 0.25951 0.0
H1374 H 0.42285 0.68126 0.29843 0.0
H1375 H 0.40168 0.69012 0.32202 0.0
H1376 H 0.39068 0.66851 0.29439 0.0
H1377 H 0.41872 0.79031 0.28087 0.0
H1378 H 0.4225 0.78434 0.3118 0.0
H1379 H 0.44416 0.77484 0.28894 0.0
H1380 H 0.44351 0.75044 0.37837 0.0
H1381 H 0.49496 0.72816 0.32245 0.0
H1382 H 0.38962 0.73038 0.34324 0.0
H1383 H 0.39724 0.76224 0.33971 0.0
H1384 H 0.40219 0.75343 0.36927 0.0
H1385 H 0.45267 0.70353 0.27466 0.0
H1386 H 0.48398 0.71869 0.28033 0.0
H1387 H 0.45992 0.73553 0.27152 0.0
C1388 C 0.9938 0.42857 0.99581 0.0
C1389 C 0.01562 0.44159 0.00762 0.0
C1390 C 0.99425 0.40621 0.97884 0.0
C1391 C 0.0171 0.39692 0.97345 0.0
C1392 C 0.03925 0.4105 0.98474 0.0
C1393 C 0.03822 0.43261 0.00172 0.0
C1394 C 0.97026 0.39215 0.96725 0.0
C1395 C 0.06402 0.40143 0.97927 0.0
C1396 C 0.0202 0.32771 0.95142 0.0
C1397 C 0.02405 0.3267 0.92611 0.0
C1398 C 0.01705 0.35031 0.96687 0.0
C1399 C 0.01798 0.3725 0.95682 0.0
C1400 C 0.0214 0.37154 0.9312 0.0
C1401 C 0.0243 0.34862 0.91613 0.0
C1402 C 0.01327 0.35055 0.99408 0.0
C1403 C 0.02269 0.39483 0.91984 0.0
H1404 H 0.97631 0.43547 1.00043 0.0
H1405 H 0.05516 0.44288 0.01055 0.0
H1406 H 0.9714 0.38849 0.94684 0.0
H1407 H 0.96684 0.37373 0.97323 0.0
H1408 H 0.95425 0.40252 0.97238 0.0
H1409 H 0.0796 0.41481 0.98871 0.0
H1410 H 0.06441 0.38319 0.98533 0.0
H1411 H 0.06698 0.39842 0.95909 0.0
H1412 H 0.01977 0.31083 0.95925 0.0
H1413 H 0.02722 0.348 0.89658 0.0
H1414 H 0.99645 0.35925 0.99997 0.0
H1415 H 0.02918 0.36202 0.00495 0.0
H1416 H 0.0114 0.33147 0.99871 0.0
H1417 H 0.00612 0.40441 0.92451 0.0
H1418 H 0.024 0.39069 0.89942 0.0
H1419 H 0.03907 0.40808 0.92756 0.0
C1420 C 0.68592 0.7642 0.27016 0.0
C1421 C 0.70955 0.77245 0.2806 0.0
C1422 C 0.66497 0.76554 0.28473 0.0
C1423 C 0.66791 0.77537 0.31032 0.0
C1424 C 0.69184 0.78459 0.32072 0.0
C1425 C 0.7125 0.78291 0.30566 0.0
C1426 C 0.63982 0.75548 0.27293 0.0
C1427 C 0.69567 0.79534 0.34786 0.0
C1428 C 0.60982 0.79205 0.34366 0.0
C1429 C 0.60255 0.77048 0.35367 0.0
C1430 C 0.63144 0.79424 0.33006 0.0
C1431 C 0.64607 0.77436 0.32633 0.0
C1432 C 0.63913 0.7528 0.33685 0.0
C1433 C 0.61749 0.75113 0.35042 0.0
C1434 C 0.63832 0.81756 0.3192 0.0
C1435 C 0.65423 0.73117 0.33325 0.0
H1436 H 0.68387 0.75599 0.25071 0.0
H1437 H 0.73095 0.78914 0.31359 0.0
H1438 H 0.63198 0.73894 0.28075 0.0
H1439 H 0.62695 0.76975 0.27706 0.0
H1440 H 0.64058 0.74987 0.25257 0.0
H1441 H 0.71512 0.80362 0.35261 0.0
H1442 H 0.6834 0.80995 0.35342 0.0
H1443 H 0.69069 0.7804 0.35888 0.0
H1444 H 0.59845 0.80714 0.34617 0.0
H1445 H 0.61207 0.73443 0.35814 0.0
H1446 H 0.63747 0.81274 0.29874 0.0
H1447 H 0.65759 0.82576 0.32479 0.0
H1448 H 0.62584 0.83195 0.32507 0.0
H1449 H 0.6544 0.72299 0.31332 0.0
H1450 H 0.64687 0.71619 0.34349 0.0
H1451 H 0.67367 0.7378 0.3395 0.0
C1452 C 0.05384 0.09429 0.98781 0.0
C1453 C 0.03124 0.08742 0.99813 0.0
C1454 C 0.05617 0.11314 0.97326 0.0
C1455 C 0.03534 0.12516 0.96905 0.0
C1456 C 0.01253 0.11824 0.97973 0.0
C1457 C 0.01079 0.09941 0.99417 0.0
C1458 C 0.08078 0.12007 0.96226 0.0
C1459 C 0.9899 0.13053 0.9757 0.0
C1460 C 0.0425 0.18858 0.94892 0.0
C1461 C 0.03655 0.18195 0.92357 0.0
C1462 C 0.04292 0.17025 0.96382 0.0
C1463 C 0.03708 0.14468 0.95316 0.0
C1464 C 0.03151 0.13784 0.92751 0.0
C1465 C 0.03138 0.15654 0.91302 0.0
C1466 C 0.04907 0.17829 0.99108 0.0
C1467 C 0.02505 0.11078 0.91548 0.0
H1468 H 0.0696 0.08485 0.991 0.0
H1469 H 0.99333 0.09393 0.00227 0.0
H1470 H 0.07887 0.11644 0.94182 0.0
H1471 H 0.08698 0.14034 0.96815 0.0
H1472 H 0.09529 0.10939 0.96778 0.0
H1473 H 0.97367 0.1232 0.98557 0.0
H1474 H 0.9938 0.15103 0.98215 0.0
H1475 H 0.98501 0.12745 0.95569 0.0
H1476 H 0.04667 0.20815 0.95722 0.0
H1477 H 0.02678 0.15122 0.89345 0.0
H1478 H 0.0643 0.16849 0.99652 0.0
H1479 H 0.03278 0.17301 0.00189 0.0
H1480 H 0.05463 0.19878 0.99624 0.0
H1481 H 0.0399 0.09977 0.91941 0.0
H1482 H 0.02229 0.1085 0.89514 0.0
H1483 H 0.00784 0.10272 0.92331 0.0
C1484 C 0.37505 0.28371 0.28576 0.0
C1485 C 0.35083 0.27942 0.27577 0.0
C1486 C 0.39556 0.28328 0.27041 0.0
C1487 C 0.3918 0.27827 0.24441 0.0
C1488 C 0.36742 0.27455 0.23423 0.0
C1489 C 0.34726 0.27521 0.25001 0.0
C1490 C 0.42124 0.28756 0.28202 0.0
C1491 C 0.36257 0.26897 0.20664 0.0
C1492 C 0.44557 0.29298 0.20312 0.0
C1493 C 0.45386 0.26951 0.19651 0.0
C1494 C 0.42546 0.29618 0.21876 0.0
C1495 C 0.41325 0.2754 0.2279 0.0
C1496 C 0.42148 0.25167 0.22118 0.0
C1497 C 0.44168 0.24904 0.20568 0.0
C1498 C 0.41732 0.32181 0.22559 0.0
C1499 C 0.4089 0.22898 0.23036 0.0
H1500 H 0.37796 0.28725 0.30564 0.0
H1501 H 0.32862 0.27156 0.24212 0.0
H1502 H 0.43022 0.2703 0.27727 0.0
H1503 H 0.43278 0.30257 0.2746 0.0
H1504 H 0.4211 0.29281 0.30246 0.0
H1505 H 0.34265 0.26801 0.20165 0.0
H1506 H 0.37318 0.28352 0.19781 0.0
H1507 H 0.36893 0.25082 0.19879 0.0
H1508 H 0.45489 0.30893 0.1962 0.0
H1509 H 0.44787 0.23081 0.20067 0.0
H1510 H 0.41836 0.32779 0.24595 0.0
H1511 H 0.39776 0.32119 0.21958 0.0
H1512 H 0.42883 0.33608 0.21708 0.0
H1513 H 0.40981 0.23223 0.25084 0.0
H1514 H 0.41743 0.21181 0.2233 0.0
H1515 H 0.38906 0.22569 0.22458 0.0
C1516 C 0.51309 0.4221 0.04313 0.0
C1517 C 0.53107 0.44302 0.0468 0.0
C1518 C 0.51294 0.40372 0.05799 0.0
C1519 C 0.53131 0.40639 0.07694 0.0
C1520 C 0.55003 0.42724 0.08016 0.0
C1521 C 0.5496 0.44547 0.06505 0.0
C1522 C 0.4926 0.3819 0.05395 0.0
C1523 C 0.57002 0.43063 0.09999 0.0
C1524 C 0.51248 0.37314 0.13033 0.0
C1525 C 0.52271 0.35068 0.12394 0.0
C1526 C 0.51583 0.39177 0.11562 0.0
C1527 C 0.52994 0.38798 0.09407 0.0
C1528 C 0.54108 0.36576 0.088 0.0
C1529 C 0.53725 0.34734 0.10294 0.0
C1530 C 0.50349 0.41512 0.12268 0.0
C1531 C 0.55644 0.36111 0.06532 0.0
H1532 H 0.49868 0.42046 0.02903 0.0
H1533 H 0.56339 0.46185 0.06788 0.0
H1534 H 0.50063 0.364 0.05108 0.0
H1535 H 0.48119 0.38241 0.07061 0.0
H1536 H 0.48034 0.38206 0.03779 0.0
H1537 H 0.58427 0.44671 0.09884 0.0
H1538 H 0.56171 0.43377 0.11845 0.0
H1539 H 0.57917 0.41344 0.09856 0.0
H1540 H 0.50127 0.37595 0.14653 0.0
H1541 H 0.54539 0.33013 0.09793 0.0
H1542 H 0.48937 0.41587 0.1083 0.0
H1543 H 0.51725 0.432 0.12368 0.0
H1544 H 0.49434 0.41587 0.14072 0.0
H1545 H 0.5445 0.35908 0.0485 0.0
H1546 H 0.56561 0.34396 0.06435 0.0
H1547 H 0.57081 0.37729 0.06508 0.0
C1548 C 0.67115 0.25538 0.25782 0.0
C1549 C 0.6669 0.23146 0.26378 0.0
C1550 C 0.65183 0.26605 0.24832 0.0
C1551 C 0.62793 0.25225 0.24458 0.0
C1552 C 0.62348 0.22846 0.25166 0.0
C1553 C 0.64311 0.21832 0.26117 0.0
C1554 C 0.65729 0.29149 0.24113 0.0
C1555 C 0.59832 0.21313 0.24797 0.0
C1556 C 0.57166 0.28317 0.23138 0.0
C1557 C 0.5689 0.27622 0.20561 0.0
C1558 C 0.59111 0.276 0.24433 0.0
C1559 C 0.60815 0.26153 0.23121 0.0
C1560 C 0.60575 0.25492 0.20516 0.0
C1561 C 0.5862 0.26235 0.19271 0.0
C1562 C 0.59313 0.28345 0.27209 0.0
C1563 C 0.62352 0.2395 0.19046 0.0
H1564 H 0.68972 0.26535 0.25975 0.0
H1565 H 0.64006 0.19969 0.26567 0.0
H1566 H 0.65607 0.28953 0.22072 0.0
H1567 H 0.64339 0.30369 0.24881 0.0
H1568 H 0.67601 0.30086 0.24763 0.0
H1569 H 0.59742 0.196 0.25635 0.0
H1570 H 0.58391 0.22443 0.25615 0.0
H1571 H 0.59379 0.20745 0.22792 0.0
H1572 H 0.55842 0.29391 0.24152 0.0
H1573 H 0.58428 0.25691 0.17281 0.0
H1574 H 0.61187 0.29321 0.27783 0.0
H1575 H 0.59045 0.26648 0.2807 0.0
H1576 H 0.57924 0.29587 0.27942 0.0
H1577 H 0.64278 0.24873 0.19431 0.0
H1578 H 0.6196 0.23666 0.17025 0.0
H1579 H 0.62243 0.22091 0.19608 0.0
C1580 C 0.46023 0.10665 0.02852 0.0
C1581 C 0.47833 0.09197 0.01852 0.0
C1582 C 0.46665 0.12957 0.04443 0.0
C1583 C 0.49188 0.1385 0.05004 0.0
C1584 C 0.51034 0.1246 0.03879 0.0
C1585 C 0.50335 0.10139 0.02332 0.0
C1586 C 0.44635 0.14365 0.05615 0.0
C1587 C 0.53745 0.13377 0.04388 0.0
C1588 C 0.50587 0.20676 0.08112 0.0
C1589 C 0.50853 0.20456 0.106 0.0
C1590 C 0.50129 0.18541 0.06254 0.0
C1591 C 0.49871 0.16135 0.06909 0.0
C1592 C 0.50141 0.15907 0.09419 0.0
C1593 C 0.50656 0.18068 0.11228 0.0
C1594 C 0.49909 0.18858 0.03594 0.0
C1595 C 0.49828 0.1338 0.10205 0.0
H1596 H 0.44086 0.09992 0.02438 0.0
H1597 H 0.51751 0.09023 0.01577 0.0
H1598 H 0.44718 0.14455 0.07645 0.0
H1599 H 0.44894 0.16316 0.05275 0.0
H1600 H 0.42767 0.13472 0.04904 0.0
H1601 H 0.5494 0.12245 0.03145 0.0
H1602 H 0.54151 0.15361 0.04165 0.0
H1603 H 0.54239 0.13283 0.06325 0.0
H1604 H 0.50763 0.22518 0.07613 0.0
H1605 H 0.50851 0.17886 0.13148 0.0
H1606 H 0.48012 0.18133 0.02852 0.0
H1607 H 0.51198 0.17754 0.02455 0.0
H1608 H 0.50316 0.20845 0.03375 0.0
H1609 H 0.4794 0.12413 0.09676 0.0
H1610 H 0.50119 0.13524 0.12228 0.0
H1611 H 0.51155 0.12191 0.09239 0.0
C1612 C 0.3039 0.37933 0.71203 0.0
C1613 C 0.30596 0.36429 0.72993 0.0
C1614 C 0.31974 0.40173 0.71279 0.0
C1615 C 0.33809 0.40917 0.73188 0.0
C1616 C 0.34061 0.39377 0.74966 0.0
C1617 C 0.32451 0.37152 0.74847 0.0
C1618 C 0.31648 0.41771 0.69355 0.0
C1619 C 0.36006 0.40099 0.7702 0.0
C1620 C 0.39302 0.4574 0.72583 0.0
C1621 C 0.38626 0.47887 0.7408 0.0
C1622 C 0.37725 0.43469 0.72223 0.0
C1623 C 0.35418 0.43346 0.73386 0.0
C1624 C 0.34695 0.45522 0.74843 0.0
C1625 C 0.36307 0.47766 0.75174 0.0
C1626 C 0.38557 0.41186 0.70655 0.0
C1627 C 0.32244 0.45466 0.76107 0.0
H1628 H 0.28944 0.3739 0.69779 0.0
H1629 H 0.32642 0.35975 0.76212 0.0
H1630 H 0.31116 0.43599 0.70255 0.0
H1631 H 0.33419 0.42161 0.68431 0.0
H1632 H 0.30211 0.40871 0.67928 0.0
H1633 H 0.36009 0.38654 0.78208 0.0
H1634 H 0.37866 0.404 0.76237 0.0
H1635 H 0.35682 0.41888 0.78195 0.0
H1636 H 0.41087 0.45817 0.71726 0.0
H1637 H 0.35765 0.49417 0.76327 0.0
H1638 H 0.3714 0.40344 0.69192 0.0
H1639 H 0.3877 0.39755 0.71814 0.0
H1640 H 0.40343 0.41625 0.69769 0.0
H1641 H 0.30712 0.44713 0.74739 0.0
H1642 H 0.31903 0.47348 0.77069 0.0
H1643 H 0.32193 0.44201 0.77481 0.0
C1644 C 0.26913 0.65571 0.79566 0.0
C1645 C 0.27333 0.68061 0.80801 0.0
C1646 C 0.28777 0.64005 0.79441 0.0
C1647 C 0.31117 0.64945 0.80591 0.0
C1648 C 0.31549 0.67449 0.81858 0.0
C1649 C 0.29656 0.68979 0.8194 0.0
C1650 C 0.28245 0.61345 0.7807 0.0
C1651 C 0.34017 0.68516 0.83113 0.0
C1652 C 0.3514 0.60145 0.81999 0.0
C1653 C 0.36741 0.60004 0.80008 0.0
C1654 C 0.33336 0.61785 0.82243 0.0
C1655 C 0.33115 0.63309 0.80443 0.0
C1656 C 0.34757 0.63212 0.78456 0.0
C1657 C 0.36555 0.61569 0.78267 0.0
C1658 C 0.31635 0.61854 0.84401 0.0
C1659 C 0.34574 0.64802 0.76494 0.0
H1660 H 0.25114 0.64835 0.78713 0.0
H1661 H 0.30009 0.7091 0.82869 0.0
H1662 H 0.29563 0.61017 0.76555 0.0
H1663 H 0.28511 0.60023 0.79335 0.0
H1664 H 0.26333 0.60904 0.77269 0.0
H1665 H 0.34035 0.70481 0.84074 0.0
H1666 H 0.34485 0.67367 0.84481 0.0
H1667 H 0.3549 0.68455 0.81731 0.0
H1668 H 0.35277 0.58952 0.83359 0.0
H1669 H 0.37781 0.61472 0.7672 0.0
H1670 H 0.29699 0.61233 0.8372 0.0
H1671 H 0.31705 0.63797 0.85428 0.0
H1672 H 0.3212 0.60637 0.85701 0.0
H1673 H 0.32747 0.64296 0.75516 0.0
H1674 H 0.36041 0.64568 0.75113 0.0
H1675 H 0.3471 0.66805 0.77356 0.0
C1676 C 0.91714 0.49241 0.48725 0.0
C1677 C 0.93309 0.50769 0.50544 0.0
C1678 C 0.897 0.47645 0.49361 0.0
C1679 C 0.89241 0.47594 0.51882 0.0
C1680 C 0.90803 0.49171 0.53732 0.0
C1681 C 0.92826 0.5073 0.53041 0.0
C1682 C 0.88081 0.45987 0.47332 0.0
C1683 C 0.90359 0.49185 0.56439 0.0
C1684 C 0.82766 0.44862 0.53296 0.0
C1685 C 0.83114 0.42413 0.53516 0.0
C1686 C 0.84757 0.46593 0.52839 0.0
C1687 C 0.87149 0.45849 0.52567 0.0
C1688 C 0.87521 0.43394 0.52833 0.0
C1689 C 0.85502 0.4171 0.53317 0.0
C1690 C 0.84291 0.49204 0.52598 0.0
C1691 C 0.9004 0.42522 0.52533 0.0
H1692 H 0.92039 0.49293 0.46793 0.0
H1693 H 0.9406 0.51881 0.5446 0.0
H1694 H 0.88107 0.43995 0.47479 0.0
H1695 H 0.86139 0.4638 0.47532 0.0
H1696 H 0.88686 0.46254 0.45462 0.0
H1697 H 0.91673 0.50603 0.57649 0.0
H1698 H 0.88446 0.49573 0.56875 0.0
H1699 H 0.90546 0.47316 0.56884 0.0
H1700 H 0.80929 0.45426 0.53461 0.0
H1701 H 0.85789 0.39821 0.5348 0.0
H1702 H 0.84675 0.49519 0.50693 0.0
H1703 H 0.8556 0.50608 0.53868 0.0
H1704 H 0.82357 0.49535 0.53012 0.0
H1705 H 0.90667 0.42585 0.50627 0.0
H1706 H 0.9004 0.40586 0.52888 0.0
H1707 H 0.9141 0.43791 0.53814 0.0
C1708 C 0.71843 0.84203 0.7695 0.0
C1709 C 0.74355 0.8427 0.77515 0.0
C1710 C 0.70838 0.86397 0.76738 0.0
C1711 C 0.72394 0.88711 0.77094 0.0
C1712 C 0.74966 0.88761 0.7755 0.0
C1713 C 0.75918 0.86532 0.77775 0.0
C1714 C 0.68088 0.86254 0.76268 0.0
C1715 C 0.76689 0.91182 0.7791 0.0
C1716 C 0.69637 0.94164 0.75149 0.0
C1717 C 0.68799 0.95359 0.77403 0.0
C1718 C 0.70887 0.92048 0.75027 0.0
C1719 C 0.7128 0.91083 0.77204 0.0
C1720 C 0.70469 0.92304 0.79487 0.0
C1721 C 0.69254 0.9443 0.79561 0.0
C1722 C 0.71748 0.90818 0.72563 0.0
C1723 C 0.70825 0.91323 0.8185 0.0
H1724 H 0.7064 0.82444 0.76776 0.0
H1725 H 0.77861 0.86571 0.78235 0.0
H1726 H 0.67239 0.87256 0.77915 0.0
H1727 H 0.67716 0.87186 0.74694 0.0
H1728 H 0.67167 0.84294 0.75862 0.0
H1729 H 0.78662 0.90869 0.77963 0.0
H1730 H 0.76393 0.92231 0.76403 0.0
H1731 H 0.7629 0.92377 0.79672 0.0
H1732 H 0.69311 0.94878 0.73474 0.0
H1733 H 0.68616 0.95336 0.81311 0.0
H1734 H 0.70729 0.88912 0.72031 0.0
H1735 H 0.73741 0.90612 0.72696 0.0
H1736 H 0.71461 0.91897 0.71076 0.0
H1737 H 0.6981 0.89414 0.81694 0.0
H1738 H 0.7016 0.92532 0.83484 0.0
H1739 H 0.72809 0.91183 0.82168 0.0
C1740 C 0.61377 0.51323 0.96437 0.0
C1741 C 0.59918 0.51603 0.98535 0.0
C1742 C 0.63748 0.52656 0.96453 0.0
C1743 C 0.64697 0.5429 0.9863 0.0
C1744 C 0.63314 0.54428 0.0081 0.0
C1745 C 0.60935 0.53087 0.00735 0.0
C1746 C 0.65161 0.52445 0.9409 0.0
C1747 C 0.64274 0.56123 0.03177 0.0
C1748 C 0.71479 0.57048 0.98882 0.0
C1749 C 0.71321 0.59412 0.98273 0.0
C1750 C 0.6934 0.55366 0.99034 0.0
C1751 C 0.66993 0.56053 0.98542 0.0
C1752 C 0.66827 0.5843 0.97913 0.0
C1753 C 0.68989 0.60081 0.97798 0.0
C1754 C 0.69589 0.52859 0.99731 0.0
C1755 C 0.64361 0.59227 0.97351 0.0
H1756 H 0.60616 0.50145 0.94742 0.0
H1757 H 0.59817 0.53325 0.02361 0.0
H1758 H 0.65231 0.54222 0.9337 0.0
H1759 H 0.67094 0.52137 0.94437 0.0
H1760 H 0.64293 0.50897 0.92644 0.0
H1761 H 0.63147 0.55757 0.0478 0.0
H1762 H 0.66221 0.55888 0.03571 0.0
H1763 H 0.64239 0.58101 0.02981 0.0
H1764 H 0.73273 0.56521 0.99265 0.0
H1765 H 0.68849 0.61899 0.97323 0.0
H1766 H 0.68797 0.51333 0.9823 0.0
H1767 H 0.68526 0.52645 0.01409 0.0
H1768 H 0.71544 0.52621 0.0009 0.0
H1769 H 0.6341 0.57893 0.95776 0.0
H1770 H 0.6455 0.61135 0.96886 0.0
H1771 H 0.63157 0.59197 0.98965 0.0
C1772 C 0.29468 0.66232 0.24412 0.0
C1773 C 0.2909 0.68226 0.2321 0.0
C1774 C 0.2751 0.64463 0.24827 0.0
C1775 C 0.25109 0.64603 0.23922 0.0
C1776 C 0.24709 0.6655 0.22633 0.0
C1777 C 0.267 0.68359 0.22318 0.0
C1778 C 0.28019 0.62437 0.26239 0.0
C1779 C 0.22186 0.66711 0.21576 0.0
C1780 C 0.21091 0.58355 0.23303 0.0
C1781 C 0.19733 0.58683 0.25462 0.0
C1782 C 0.22716 0.60332 0.22683 0.0
C1783 C 0.23053 0.62665 0.24309 0.0
C1784 C 0.21633 0.63025 0.26461 0.0
C1785 C 0.19957 0.61036 0.26991 0.0
C1786 C 0.24139 0.59892 0.20336 0.0
C1787 C 0.21989 0.65459 0.28277 0.0
H1788 H 0.31312 0.66033 0.25026 0.0
H1789 H 0.26376 0.69884 0.2139 0.0
H1790 H 0.26765 0.62416 0.27818 0.0
H1791 H 0.27654 0.6058 0.25024 0.0
H1792 H 0.29958 0.62692 0.26961 0.0
H1793 H 0.22196 0.6829 0.20552 0.0
H1794 H 0.21513 0.64943 0.20305 0.0
H1795 H 0.20846 0.6695 0.2308 0.0
H1796 H 0.20888 0.56545 0.22097 0.0
H1797 H 0.18906 0.61288 0.28662 0.0
H1798 H 0.26109 0.59819 0.20795 0.0
H1799 H 0.24072 0.61455 0.19307 0.0
H1800 H 0.23409 0.58111 0.19108 0.0
H1801 H 0.23861 0.65719 0.29161 0.0
H1802 H 0.206 0.65511 0.29747 0.0
H1803 H 0.21871 0.6706 0.27314 0.0
C1804 C 0.94939 0.53921 0.98879 0.0
C1805 C 0.9494 0.5299 0.01087 0.0
C1806 C 0.92784 0.54687 0.98002 0.0
C1807 C 0.90609 0.54536 0.99392 0.0
C1808 C 0.90585 0.53469 0.01561 0.0
C1809 C 0.92761 0.52709 0.02384 0.0
C1810 C 0.92879 0.55794 0.95673 0.0
C1811 C 0.8831 0.53279 0.031 0.0
C1812 C 0.86217 0.59376 0.99299 0.0
C1813 C 0.84221 0.57991 0.9785 0.0
C1814 C 0.88325 0.58283 0.99765 0.0
C1815 C 0.88452 0.55742 0.98747 0.0
C1816 C 0.86477 0.5435 0.97224 0.0
C1817 C 0.8438 0.55489 0.96798 0.0
C1818 C 0.90389 0.59835 0.01405 0.0
C1819 C 0.86557 0.51643 0.96092 0.0
H1820 H 0.96646 0.54153 0.97898 0.0
H1821 H 0.92789 0.52006 0.04108 0.0
H1822 H 0.91253 0.54983 0.94442 0.0
H1823 H 0.92812 0.57839 0.96153 0.0
H1824 H 0.9459 0.55478 0.94644 0.0
H1825 H 0.88521 0.52184 0.04591 0.0
H1826 H 0.8794 0.55184 0.03957 0.0
H1827 H 0.8667 0.52392 0.01922 0.0
H1828 H 0.86117 0.61311 0.00116 0.0
H1829 H 0.8285 0.54406 0.95667 0.0
H1830 H 0.92161 0.59824 0.00429 0.0
H1831 H 0.90616 0.59012 0.03085 0.0
H1832 H 0.90039 0.61806 0.01985 0.0
H1833 H 0.88281 0.5144 0.95059 0.0
H1834 H 0.8495 0.50869 0.94818 0.0
H1835 H 0.86572 0.50506 0.97573 0.0
C1836 C 0.09588 0.99721 0.03517 0.0
C1837 C 0.096 0.01691 0.05529 0.0
C1838 C 0.11601 0.98348 0.03114 0.0
C1839 C 0.13683 0.98961 0.04758 0.0
C1840 C 0.13734 0.00986 0.06757 0.0
C1841 C 0.1169 0.02324 0.07122 0.0
C1842 C 0.11472 0.96197 0.00963 0.0
C1843 C 0.1593 0.01712 0.08537 0.0
C1844 C 0.17704 0.93826 0.05117 0.0
C1845 C 0.19643 0.94421 0.03575 0.0
C1846 C 0.15769 0.95307 0.05544 0.0
C1847 C 0.15779 0.9744 0.0441 0.0
C1848 C 0.17752 0.98076 0.02889 0.0
C1849 C 0.19656 0.96557 0.02485 0.0
C1850 C 0.13693 0.94565 0.07175 0.0
C1851 C 0.17836 0.00342 0.01658 0.0
H1852 H 0.07965 0.99196 0.02302 0.0
H1853 H 0.11718 0.03859 0.08668 0.0
H1854 H 0.13087 0.96452 0.99777 0.0
H1855 H 0.11546 0.94422 0.01656 0.0
H1856 H 0.09756 0.96013 0.99811 0.0
H1857 H 0.15721 0.03392 0.09941 0.0
H1858 H 0.16176 0.00139 0.09504 0.0
H1859 H 0.17642 0.02093 0.07515 0.0
H1860 H 0.17678 0.92181 0.05968 0.0
H1861 H 0.21151 0.9704 0.01299 0.0
H1862 H 0.11918 0.94161 0.06096 0.0
H1863 H 0.13506 0.96132 0.08713 0.0
H1864 H 0.1399 0.92889 0.07967 0.0
H1865 H 0.16217 0.0013 0.00373 0.0
H1866 H 0.19546 0.00634 0.00605 0.0
H1867 H 0.17725 0.02043 0.03064 0.0
loop_
_geom_bond_atom_site_label_1
_geom_bond_atom_site_label_2
_geom_bond_distance
_geom_bond_site_symmetry_2
_ccdc_geom_bond_type
H0 C3 0.929 . S
H1 C6 0.929 . S
H2 C8 0.930 . S
C3 H0 0.929 . S
C3 C4 1.398 . S
C3 C5 1.396 . S
C4 C3 1.398 . S
C4 C8 1.407 . S
C5 C3 1.396 . S
C5 C6 1.394 . S
C6 H1 0.929 . S
C6 C5 1.394 . S
C6 C7 1.382 . S
C7 C6 1.382 . S
C7 C8 1.392 . S
C7 N9 1.420 . S
C8 H2 0.930 . S
C8 C4 1.407 . S
C8 C7 1.392 . S
N9 C7 1.420 . S
N9 C10 1.244 . S
C10 N9 1.244 . S
H11 C14 0.929 . S
H12 C17 0.929 . S
H13 C19 0.930 . S
C14 H11 0.929 . S
C14 C15 1.398 . S
C14 C16 1.396 . S
C15 C14 1.398 . S
C15 C19 1.407 . S
C16 C14 1.396 . S
C16 C17 1.394 . S
C17 H12 0.929 . S
C17 C16 1.394 . S
C17 C18 1.382 . S
C18 C17 1.382 . S
C18 C19 1.392 . S
C18 N20 1.420 . S
C19 H13 0.930 . S
C19 C15 1.407 . S
C19 C18 1.392 . S
N20 C18 1.420 . S
N20 C21 1.244 . S
C21 N20 1.244 . S
H22 C25 0.929 . S
H23 C28 0.929 . S
H24 C30 0.930 1_556 S
C25 H22 0.929 . S
C25 C26 1.380 1_455 S
C25 C27 1.396 . S
C26 C25 1.380 1_655 S
C26 C30 1.435 . S
C27 C25 1.396 . S
C27 C28 1.394 1_455 S
C28 H23 0.929 . S
C28 C27 1.394 1_655 S
C28 C29 1.382 . S
C29 C28 1.382 . S
C29 C30 1.392 . S
C29 N31 1.420 . S
C30 H24 0.930 1_554 S
C30 C26 1.435 . S
C30 C29 1.392 . S
N31 C29 1.420 . S
N31 C32 1.244 . S
C32 N31 1.244 . S
H33 C36 0.929 . S
H34 C39 0.929 . S
H35 C41 0.930 . S
C36 H33 0.929 . S
C36 C37 1.398 . S
C36 C38 1.396 . S
C37 C36 1.398 . S
C37 C41 1.407 . S
C38 C36 1.396 . S
C38 C39 1.394 . S
C39 H34 0.929 . S
C39 C38 1.394 . S
C39 C40 1.382 . S
C40 C39 1.382 . S
C40 C41 1.392 . S
C40 N42 1.420 . S
C41 H35 0.930 . S
C41 C37 1.407 . S
C41 C40 1.392 . S
N42 C40 1.420 . S
N42 C43 1.244 . S
C43 N42 1.244 . S
H44 C47 0.929 . S
H45 C50 0.929 . S
H46 C52 0.930 . S
C47 H44 0.929 . S
C47 C48 1.398 1_545 S
C47 C49 1.396 1_545 S
C48 C47 1.398 1_565 S
C48 C52 1.407 . S
C49 C47 1.396 1_565 S
C49 C50 1.394 . S
C50 H45 0.929 . S
C50 C49 1.394 . S
C50 C51 1.382 . S
C51 C50 1.382 . S
C51 C52 1.392 . S
C51 N53 1.420 . S
C52 H46 0.930 . S
C52 C48 1.407 . S
C52 C51 1.392 . S
N53 C51 1.420 . S
N53 C54 1.244 . S
C54 N53 1.244 . S
H55 C58 0.929 . S
H56 C61 0.929 . S
H57 C63 0.930 . S
C58 H55 0.929 . S
C58 C59 1.398 . S
C58 C60 1.396 . S
C59 C58 1.398 . S
C59 C63 1.407 . S
C60 C58 1.396 . S
C60 C61 1.394 . S
C61 H56 0.929 . S
C61 C60 1.394 . S
C61 C62 1.382 . S
C62 C61 1.382 . S
C62 C63 1.392 . S
C62 N64 1.420 . S
C63 H57 0.930 . S
C63 C59 1.407 . S
C63 C62 1.392 . S
N64 C62 1.420 . S
N64 C65 1.244 . S
C65 N64 1.244 . S
H66 C69 0.929 . S
H67 C72 0.928 1_455 S
H68 C74 0.930 . S
C69 H66 0.929 . S
C69 C70 1.398 . S
C69 C71 1.396 . S
C70 C69 1.398 . S
C70 C74 1.407 . S
C71 C69 1.396 . S
C71 C72 1.395 . S
C72 H67 0.928 1_655 S
C72 C71 1.395 . S
C72 C73 1.382 . S
C73 C72 1.382 . S
C73 C74 1.392 . S
C73 N75 1.420 1_655 S
C74 H68 0.930 . S
C74 C70 1.407 . S
C74 C73 1.392 . S
N75 C73 1.420 1_455 S
N75 C76 1.244 . S
C76 N75 1.244 . S
H77 C80 0.929 . S
H78 C83 0.929 . S
H79 C85 0.930 . S
C80 H77 0.929 . S
C80 C81 1.398 . S
C80 C82 1.396 . S
C81 C80 1.398 . S
C81 C85 1.407 . S
C82 C80 1.396 . S
C82 C83 1.394 . S
C83 H78 0.929 . S
C83 C82 1.394 . S
C83 C84 1.382 . S
C84 C83 1.382 . S
C84 C85 1.392 . S
C84 N86 1.420 . S
C85 H79 0.930 . S
C85 C81 1.407 . S
C85 C84 1.392 . S
N86 C84 1.420 . S
N86 C87 1.244 . S
C87 N86 1.244 . S
H88 C91 0.929 . S
H89 C94 0.929 . S
H90 C96 0.930 . S
C91 H88 0.929 . S
C91 C92 1.398 . S
C91 C93 1.396 . S
C92 C91 1.398 . S
C92 C96 1.407 . S
C93 C91 1.396 . S
C93 C94 1.394 . S
C94 H89 0.929 . S
C94 C93 1.394 . S
C94 C95 1.382 . S
C95 C94 1.382 . S
C95 C96 1.392 . S
C95 N97 1.420 . S
C96 H90 0.930 . S
C96 C92 1.407 . S
C96 C95 1.392 . S
N97 C95 1.420 . S
N97 C98 1.244 . S
C98 N97 1.244 . S
H99 C102 0.929 . S
H100 C105 0.929 1_545 S
H101 C107 0.930 . S
C102 H99 0.929 . S
C102 C103 1.398 . S
C102 C104 1.396 . S
C103 C102 1.398 . S
C103 C107 1.407 . S
C104 C102 1.396 . S
C104 C105 1.394 . S
C105 H100 0.929 1_565 S
C105 C104 1.394 . S
C105 C106 1.382 . S
C106 C105 1.382 . S
C106 C107 1.392 . S
C106 N108 1.420 1_565 S
C107 H101 0.930 . S
C107 C103 1.407 . S
C107 C106 1.392 . S
N108 C106 1.420 1_545 S
N108 C109 1.244 . S
C109 N108 1.244 . S
H110 C113 0.929 . S
H111 C116 0.929 . S
H112 C118 0.930 . S
C113 H110 0.929 . S
C113 C114 1.398 . S
C113 C115 1.396 . S
C114 C113 1.398 . S
C114 C118 1.407 . S
C115 C113 1.396 . S
C115 C116 1.394 . S
C116 H111 0.929 . S
C116 C115 1.394 . S
C116 C117 1.382 . S
C117 C116 1.382 . S
C117 C118 1.392 . S
C117 N119 1.420 . S
C118 H112 0.930 . S
C118 C114 1.407 . S
C118 C117 1.392 . S
N119 C117 1.420 . S
N119 C120 1.244 . S
C120 N119 1.244 . S
H121 C124 0.929 . S
H122 C127 0.929 . S
H123 C129 0.930 . S
C124 H121 0.929 . S
C124 C125 1.398 . S
C124 C126 1.396 . S
C125 C124 1.398 . S
C125 C129 1.407 . S
C126 C124 1.396 . S
C126 C127 1.394 . S
C127 H122 0.929 . S
C127 C126 1.394 . S
C127 C128 1.382 . S
C128 C127 1.382 . S
C128 C129 1.392 . S
C128 N130 1.420 . S
C129 H123 0.930 . S
C129 C125 1.407 . S
C129 C128 1.392 . S
N130 C128 1.420 . S
N130 C131 1.244 . S
C131 N130 1.244 . S
H132 C135 0.929 . S
H133 C138 0.929 . S
H134 C140 0.930 . S
C135 H132 0.929 . S
C135 C136 1.398 . S
C135 C137 1.396 . S
C136 C135 1.398 . S
C136 C140 1.407 . S
C137 C135 1.396 . S
C137 C138 1.394 . S
C138 H133 0.929 . S
C138 C137 1.394 . S
C138 C139 1.382 . S
C139 C138 1.382 . S
C139 C140 1.392 . S
C139 N141 1.420 . S
C140 H134 0.930 . S
C140 C136 1.407 . S
C140 C139 1.392 . S
N141 C139 1.420 . S
N141 C142 1.244 . S
C142 N141 1.244 . S
H143 C146 0.929 . S
H144 C149 0.929 . S
H145 C151 0.930 . S
C146 H143 0.929 . S
C146 C147 1.398 . S
C146 C148 1.396 . S
C147 C146 1.398 . S
C147 C151 1.407 . S
C148 C146 1.396 . S
C148 C149 1.394 1_556 S
C149 H144 0.929 . S
C149 C148 1.394 1_554 S
C149 C150 1.382 1_554 S
C150 C149 1.382 1_556 S
C150 C151 1.392 . S
C150 N152 1.420 1_556 S
C151 H145 0.930 . S
C151 C147 1.407 . S
C151 C150 1.392 . S
N152 C150 1.420 1_554 S
N152 C153 1.244 . S
C153 N152 1.244 . S
H154 C157 0.929 . S
H155 C160 0.929 . S
H156 C162 0.930 . S
C157 H154 0.929 . S
C157 C158 1.398 . S
C157 C159 1.396 . S
C158 C157 1.398 . S
C158 C162 1.407 . S
C159 C157 1.396 . S
C159 C160 1.394 . S
C160 H155 0.929 . S
C160 C159 1.394 . S
C160 C161 1.382 . S
C161 C160 1.382 . S
C161 C162 1.392 . S
C161 N163 1.420 . S
C162 H156 0.930 . S
C162 C158 1.407 . S
C162 C161 1.392 . S
N163 C161 1.420 . S
N163 C164 1.244 . S
C164 N163 1.244 . S
H165 C168 0.929 1_554 S
H166 C171 0.929 . S
H167 C173 0.954 . S
C168 H165 0.929 1_556 S
C168 C169 1.398 . S
C168 C170 1.396 . S
C169 C168 1.398 . S
C169 C173 1.407 . S
C170 C168 1.396 . S
C170 C171 1.394 . S
C171 H166 0.929 . S
C171 C170 1.394 . S
C171 C172 1.382 . S
C172 C171 1.382 . S
C172 C173 1.392 . S
C172 N174 1.420 . S
C173 H167 0.954 . S
C173 C169 1.407 . S
C173 C172 1.392 . S
N174 C172 1.420 . S
N174 C175 1.244 . S
C175 N174 1.244 . S
C176 O177 1.160 . S
C176 O183 1.185 . S
O177 C176 1.160 . S
O178 Zn179 1.899 . S
O178 C186 1.284 . S
Zn179 O178 1.899 . S
Zn179 O180 2.032 . S
Zn179 O183 2.086 . S
Zn179 O188 1.977 . S
O180 Zn179 2.032 . S
O180 C184 1.278 . S
C181 O182 1.203 . S
C181 O188 1.267 . S
O182 C181 1.203 . S
O183 C176 1.185 . S
O183 Zn179 2.086 . S
C184 O180 1.278 . S
C184 O185 1.211 . S
O185 C184 1.211 . S
C186 O178 1.284 . S
C186 O187 1.273 . S
O187 C186 1.273 . S
O188 Zn179 1.977 . S
O188 C181 1.267 . S
C189 O190 1.160 . S
C189 O196 1.185 . S
O190 C189 1.160 . S
O191 Zn192 1.899 . S
O191 C199 1.284 . S
Zn192 O191 1.899 . S
Zn192 O193 2.032 . S
Zn192 O196 2.086 . S
Zn192 O201 1.977 . S
O193 Zn192 2.032 . S
O193 C197 1.278 . S
C194 O195 1.203 . S
C194 O201 1.267 . S
O195 C194 1.203 . S
O196 C189 1.185 . S
O196 Zn192 2.086 . S
C197 O193 1.278 . S
C197 O198 1.211 . S
O198 C197 1.211 . S
C199 O191 1.284 . S
C199 O200 1.273 . S
O200 C199 1.273 . S
O201 Zn192 1.977 . S
O201 C194 1.267 . S
C202 O203 1.180 . S
C202 O209 1.172 1_556 S
O203 C202 1.180 . S
O204 Zn205 1.899 1_556 S
O204 C212 1.284 . S
Zn205 O204 1.899 1_554 S
Zn205 O206 2.032 1_554 S
Zn205 O209 2.086 . S
Zn205 O214 1.977 . S
O206 Zn205 2.032 1_556 S
O206 C210 1.278 . S
C207 O208 1.203 . S
C207 O214 1.267 . S
O208 C207 1.203 . S
O209 C202 1.172 1_554 S
O209 Zn205 2.086 . S
C210 O206 1.278 . S
C210 O211 1.211 1_556 S
O211 C210 1.211 1_554 S
C212 O204 1.284 . S
C212 O213 1.273 . S
O213 C212 1.273 . S
O214 Zn205 1.977 . S
O214 C207 1.267 . S
C215 O216 1.160 . S
C215 O222 1.185 . S
O216 C215 1.160 . S
O217 Zn218 1.899 . S
O217 C225 1.284 . S
Zn218 O217 1.899 . S
Zn218 O219 2.032 . S
Zn218 O222 2.086 . S
Zn218 O227 1.977 . S
O219 Zn218 2.032 . S
O219 C223 1.278 1_545 S
C220 O221 1.203 . S
C220 O227 1.267 . S
O221 C220 1.203 . S
O222 C215 1.185 . S
O222 Zn218 2.086 . S
C223 O219 1.278 1_565 S
C223 O224 1.211 . S
O224 C223 1.211 . S
C225 O217 1.284 . S
C225 O226 1.273 . S
O226 C225 1.273 . S
O227 Zn218 1.977 . S
O227 C220 1.267 . S
C228 O229 1.160 . S
C228 O235 1.185 . S
O229 C228 1.160 . S
O230 Zn231 1.899 . S
O230 C238 1.284 . S
Zn231 O230 1.899 . S
Zn231 O232 2.032 . S
Zn231 O235 2.086 . S
Zn231 O240 1.977 . S
O232 Zn231 2.032 . S
O232 C236 1.278 . S
C233 O234 1.203 . S
C233 O240 1.267 . S
O234 C233 1.203 . S
O235 C228 1.185 . S
O235 Zn231 2.086 . S
C236 O232 1.278 . S
C236 O237 1.211 . S
O237 C236 1.211 . S
C238 O230 1.284 . S
C238 O239 1.273 . S
O239 C238 1.273 . S
O240 Zn231 1.977 . S
O240 C233 1.267 . S
C241 O242 1.160 . S
C241 O248 1.185 . S
O242 C241 1.160 . S
O243 Zn244 1.899 . S
O243 C251 1.284 . S
Zn244 O243 1.899 . S
Zn244 O245 2.032 . S
Zn244 O248 2.086 . S
Zn244 O253 1.977 . S
O245 Zn244 2.032 . S
O245 C249 1.278 . S
C246 O247 1.203 . S
C246 O253 1.267 . S
O247 C246 1.203 . S
O248 C241 1.185 . S
O248 Zn244 2.086 . S
C249 O245 1.278 . S
C249 O250 1.211 . S
O250 C249 1.211 . S
C251 O243 1.284 . S
C251 O252 1.273 . S
O252 C251 1.273 . S
O253 Zn244 1.977 . S
O253 C246 1.267 . S
C254 O255 1.160 . S
C254 O261 1.185 . S
O255 C254 1.160 . S
O256 Zn257 1.899 . S
O256 C264 1.284 . S
Zn257 O256 1.899 . S
Zn257 O258 2.032 . S
Zn257 O261 2.086 . S
Zn257 O266 1.977 . S
O258 Zn257 2.032 . S
O258 C262 1.278 . S
C259 O260 1.203 . S
C259 O266 1.267 . S
O260 C259 1.203 . S
O261 C254 1.185 . S
O261 Zn257 2.086 . S
C262 O258 1.278 . S
C262 O263 1.211 . S
O263 C262 1.211 . S
C264 O256 1.284 . S
C264 O265 1.273 . S
O265 C264 1.273 . S
O266 Zn257 1.977 . S
O266 C259 1.267 . S
C267 O268 1.160 . S
C267 O274 1.185 . S
O268 C267 1.160 . S
O269 Zn270 1.899 . S
O269 C277 1.284 1_565 S
Zn270 O269 1.899 . S
Zn270 O271 2.032 1_565 S
Zn270 O274 2.086 . S
Zn270 O279 1.977 . S
O271 Zn270 2.032 1_545 S
O271 C275 1.278 . S
C272 O273 1.203 1_565 S
C272 O279 1.267 . S
O273 C272 1.203 1_545 S
O274 C267 1.185 . S
O274 Zn270 2.086 . S
C275 O271 1.278 . S
C275 O276 1.211 . S
O276 C275 1.211 . S
C277 O269 1.284 1_545 S
C277 O278 1.273 . S
O278 C277 1.273 . S
O279 Zn270 1.977 . S
O279 C272 1.267 . S
C280 O281 1.177 . S
C280 O287 1.185 . S
O281 C280 1.177 . S
O282 Zn283 1.880 1_655 S
O282 C290 1.308 . S
Zn283 O282 1.880 1_455 S
Zn283 O284 2.032 . S
Zn283 O287 2.086 . S
Zn283 O292 1.977 . S
O284 Zn283 2.032 . S
O284 C288 1.278 . S
C285 O286 1.203 . S
C285 O292 1.267 . S
O286 C285 1.203 . S
O287 C280 1.185 . S
O287 Zn283 2.086 . S
C288 O284 1.278 . S
C288 O289 1.211 . S
O289 C288 1.211 . S
C290 O282 1.308 . S
C290 O291 1.273 . S
O291 C290 1.273 . S
O292 Zn283 1.977 . S
O292 C285 1.267 . S
C293 O294 1.160 . S
C293 O300 1.185 . S
O294 C293 1.160 . S
O295 Zn296 1.899 . S
O295 C303 1.284 . S
Zn296 O295 1.899 . S
Zn296 O297 2.032 . S
Zn296 O300 2.086 . S
Zn296 O305 1.977 . S
O297 Zn296 2.032 . S
O297 C301 1.278 . S
C298 O299 1.203 . S
C298 O305 1.267 . S
O299 C298 1.203 . S
O300 C293 1.185 . S
O300 Zn296 2.086 . S
C301 O297 1.278 . S
C301 O302 1.211 . S
O302 C301 1.211 . S
C303 O295 1.284 . S
C303 O304 1.273 . S
O304 C303 1.273 . S
O305 Zn296 1.977 . S
O305 C298 1.267 . S
C306 O307 1.160 1_455 S
C306 O313 1.185 . S
O307 C306 1.160 1_655 S
O308 Zn309 1.899 1_655 S
O308 C316 1.284 . S
Zn309 O308 1.899 1_455 S
Zn309 O310 2.032 . S
Zn309 O313 2.086 . S
Zn309 O318 1.977 . S
O310 Zn309 2.032 . S
O310 C314 1.278 . S
C311 O312 1.203 . S
C311 O318 1.267 . S
O312 C311 1.203 . S
O313 C306 1.185 . S
O313 Zn309 2.086 . S
C314 O310 1.278 . S
C314 O315 1.211 . S
O315 C314 1.211 . S
C316 O308 1.284 . S
C316 O317 1.273 . S
O317 C316 1.273 . S
O318 Zn309 1.977 . S
O318 C311 1.267 . S
C319 O320 1.160 . S
C319 O326 1.185 . S
O320 C319 1.160 . S
O321 Zn322 1.899 . S
O321 C329 1.284 . S
Zn322 O321 1.899 . S
Zn322 O323 2.032 . S
Zn322 O326 2.086 . S
Zn322 O331 1.977 . S
O323 Zn322 2.032 . S
O323 C327 1.278 . S
C324 O325 1.203 . S
C324 O331 1.267 . S
O325 C324 1.203 . S
O326 C319 1.185 . S
O326 Zn322 2.086 . S
C327 O323 1.278 . S
C327 O328 1.211 . S
O328 C327 1.211 . S
C329 O321 1.284 . S
C329 O330 1.273 . S
O330 C329 1.273 . S
O331 Zn322 1.977 . S
O331 C324 1.267 . S
C332 C333 1.391 . S
C332 C334 1.394 . S
C332 H348 0.931 . S
C333 C332 1.391 . S
C333 C337 1.376 . S
C334 C332 1.394 . S
C334 C335 1.369 . S
C334 C338 1.531 . S
C335 C334 1.369 . S
C335 C336 1.410 . S
C335 C343 1.503 . S
C336 C335 1.410 . S
C336 C337 1.392 . S
C336 C339 1.511 . S
C337 C333 1.376 . S
C337 C336 1.392 . S
C337 H349 0.929 . S
C338 C334 1.531 . S
C338 H350 0.960 . S
C338 H351 0.962 . S
C338 H352 0.960 . S
C339 C336 1.511 . S
C339 H353 0.961 . S
C339 H354 0.961 . S
C339 H355 0.961 . S
C340 C341 1.370 . S
C340 C342 1.363 . S
C340 H356 0.931 . S
C341 C340 1.370 . S
C341 C345 1.408 . S
C342 C340 1.363 . S
C342 C343 1.370 . S
C342 C346 1.524 . S
C343 C335 1.503 . S
C343 C342 1.370 . S
C343 C344 1.403 . S
C344 C343 1.403 . S
C344 C345 1.404 . S
C344 C347 1.539 . S
C345 C341 1.408 . S
C345 C344 1.404 . S
C345 H357 0.930 . S
C346 C342 1.524 . S
C346 H358 0.956 . S
C346 H359 0.961 . S
C346 H360 0.961 . S
C347 C344 1.539 . S
C347 H361 0.958 . S
C347 H362 0.961 . S
C347 H363 0.960 . S
H348 C332 0.931 . S
H349 C337 0.929 . S
H350 C338 0.960 . S
H351 C338 0.962 . S
H352 C338 0.960 . S
H353 C339 0.961 . S
H354 C339 0.961 . S
H355 C339 0.961 . S
H356 C340 0.931 . S
H357 C345 0.930 . S
H358 C346 0.956 . S
H359 C346 0.961 . S
H360 C346 0.961 . S
H361 C347 0.958 . S
H362 C347 0.961 . S
H363 C347 0.960 . S
C364 C365 1.391 . S
C364 C366 1.394 . S
C364 H380 0.931 . S
C365 C364 1.391 . S
C365 C369 1.376 . S
C366 C364 1.394 . S
C366 C367 1.369 . S
C366 C370 1.531 . S
C367 C366 1.369 . S
C367 C368 1.410 . S
C367 C375 1.503 . S
C368 C367 1.410 . S
C368 C369 1.392 . S
C368 C371 1.511 . S
C369 C365 1.376 . S
C369 C368 1.392 . S
C369 H381 0.929 . S
C370 C366 1.531 . S
C370 H382 0.960 . S
C370 H383 0.962 . S
C370 H384 0.960 . S
C371 C368 1.511 . S
C371 H385 0.961 . S
C371 H386 0.961 . S
C371 H387 0.961 . S
C372 C373 1.370 . S
C372 C374 1.363 . S
C372 H388 0.931 . S
C373 C372 1.370 . S
C373 C377 1.408 . S
C374 C372 1.363 . S
C374 C375 1.370 . S
C374 C378 1.524 . S
C375 C367 1.503 . S
C375 C374 1.370 . S
C375 C376 1.403 . S
C376 C375 1.403 . S
C376 C377 1.404 . S
C376 C379 1.539 . S
C377 C373 1.408 . S
C377 C376 1.404 . S
C377 H389 0.930 . S
C378 C374 1.524 . S
C378 H390 0.956 . S
C378 H391 0.961 . S
C378 H392 0.961 . S
C379 C376 1.539 . S
C379 H393 0.958 . S
C379 H394 0.961 . S
C379 H395 0.960 . S
H380 C364 0.931 . S
H381 C369 0.929 . S
H382 C370 0.960 . S
H383 C370 0.962 . S
H384 C370 0.960 . S
H385 C371 0.961 . S
H386 C371 0.961 . S
H387 C371 0.961 . S
H388 C372 0.931 . S
H389 C377 0.930 . S
H390 C378 0.956 . S
H391 C378 0.961 . S
H392 C378 0.961 . S
H393 C379 0.958 . S
H394 C379 0.961 . S
H395 C379 0.960 . S
C396 C397 1.391 . S
C396 C398 1.394 . S
C396 H412 0.931 . S
C397 C396 1.391 . S
C397 C401 1.376 . S
C398 C396 1.394 . S
C398 C399 1.369 . S
C398 C402 1.531 . S
C399 C398 1.369 . S
C399 C400 1.410 . S
C399 C407 1.503 . S
C400 C399 1.410 . S
C400 C401 1.392 . S
C400 C403 1.511 . S
C401 C397 1.376 . S
C401 C400 1.392 . S
C401 H413 0.929 . S
C402 C398 1.531 . S
C402 H414 0.960 . S
C402 H415 0.962 . S
C402 H416 0.960 . S
C403 C400 1.511 . S
C403 H417 0.961 . S
C403 H418 0.961 . S
C403 H419 0.961 . S
C404 C405 1.370 . S
C404 C406 1.363 . S
C404 H420 0.931 . S
C405 C404 1.370 . S
C405 C409 1.408 . S
C406 C404 1.363 . S
C406 C407 1.370 . S
C406 C410 1.524 . S
C407 C399 1.503 . S
C407 C406 1.370 . S
C407 C408 1.403 . S
C408 C407 1.403 . S
C408 C409 1.404 . S
C408 C411 1.539 . S
C409 C405 1.408 . S
C409 C408 1.404 . S
C409 H421 0.930 . S
C410 C406 1.524 . S
C410 H422 0.956 . S
C410 H423 0.961 . S
C410 H424 0.961 . S
C411 C408 1.539 . S
C411 H425 0.958 . S
C411 H426 0.961 . S
C411 H427 0.960 . S
H412 C396 0.931 . S
H413 C401 0.929 . S
H414 C402 0.960 . S
H415 C402 0.962 . S
H416 C402 0.960 . S
H417 C403 0.961 . S
H418 C403 0.961 . S
H419 C403 0.961 . S
H420 C404 0.931 . S
H421 C409 0.930 . S
H422 C410 0.956 . S
H423 C410 0.961 . S
H424 C410 0.961 . S
H425 C411 0.958 . S
H426 C411 0.961 . S
H427 C411 0.960 . S
C428 C429 1.391 1_545 S
C428 C430 1.394 . S
C428 H444 0.931 . S
C429 C428 1.391 1_565 S
C429 C433 1.376 . S
C430 C428 1.394 . S
C430 C431 1.369 . S
C430 C434 1.531 . S
C431 C430 1.369 . S
C431 C432 1.409 1_445 S
C431 C439 1.503 1_455 S
C432 C431 1.409 1_665 S
C432 C433 1.392 1_655 S
C432 C435 1.512 . S
C433 C429 1.376 . S
C433 C432 1.392 1_455 S
C433 H445 0.929 . S
C434 C430 1.531 . S
C434 H446 0.960 . S
C434 H447 0.962 . S
C434 H448 0.960 . S
C435 C432 1.512 . S
C435 H449 0.961 . S
C435 H450 0.961 . S
C435 H451 0.961 . S
C436 C437 1.370 . S
C436 C438 1.363 . S
C436 H452 0.931 . S
C437 C436 1.370 . S
C437 C441 1.408 . S
C438 C436 1.363 . S
C438 C439 1.370 . S
C438 C442 1.524 . S
C439 C431 1.503 1_655 S
C439 C438 1.370 . S
C439 C440 1.403 1_545 S
C440 C439 1.403 1_565 S
C440 C441 1.404 1_565 S
C440 C443 1.539 1_655 S
C441 C437 1.408 . S
C441 C440 1.404 1_545 S
C441 H453 0.930 1_545 S
C442 C438 1.524 . S
C442 H454 0.956 . S
C442 H455 0.961 . S
C442 H456 0.961 . S
C443 C440 1.539 1_455 S
C443 H457 0.958 . S
C443 H458 0.961 . S
C443 H459 0.960 . S
H444 C428 0.931 . S
H445 C433 0.929 . S
H446 C434 0.960 . S
H447 C434 0.962 . S
H448 C434 0.960 . S
H449 C435 0.961 . S
H450 C435 0.961 . S
H451 C435 0.961 . S
H452 C436 0.931 . S
H453 C441 0.930 1_565 S
H454 C442 0.956 . S
H455 C442 0.961 . S
H456 C442 0.961 . S
H457 C443 0.958 . S
H458 C443 0.961 . S
H459 C443 0.960 . S
C460 C461 1.391 . S
C460 C462 1.394 . S
C460 H476 0.931 . S
C461 C460 1.391 . S
C461 C465 1.376 . S
C462 C460 1.394 . S
C462 C463 1.369 . S
C462 C466 1.531 . S
C463 C462 1.369 . S
C463 C464 1.410 . S
C463 C471 1.503 . S
C464 C463 1.410 . S
C464 C465 1.392 . S
C464 C467 1.511 . S
C465 C461 1.376 . S
C465 C464 1.392 . S
C465 H477 0.929 . S
C466 C462 1.531 . S
C466 H478 0.960 . S
C466 H479 0.962 . S
C466 H480 0.960 . S
C467 C464 1.511 . S
C467 H481 0.961 . S
C467 H482 0.961 . S
C467 H483 0.961 . S
C468 C469 1.370 . S
C468 C470 1.363 . S
C468 H484 0.931 . S
C469 C468 1.370 . S
C469 C473 1.408 . S
C470 C468 1.363 . S
C470 C471 1.370 . S
C470 C474 1.524 . S
C471 C463 1.503 . S
C471 C470 1.370 . S
C471 C472 1.403 . S
C472 C471 1.403 . S
C472 C473 1.404 . S
C472 C475 1.539 . S
C473 C469 1.408 . S
C473 C472 1.404 . S
C473 H485 0.930 . S
C474 C470 1.524 . S
C474 H486 0.956 . S
C474 H487 0.961 . S
C474 H488 0.961 . S
C475 C472 1.539 . S
C475 H489 0.958 . S
C475 H490 0.961 . S
C475 H491 0.960 . S
H476 C460 0.931 . S
H477 C465 0.929 . S
H478 C466 0.960 . S
H479 C466 0.962 . S
H480 C466 0.960 . S
H481 C467 0.961 . S
H482 C467 0.961 . S
H483 C467 0.961 . S
H484 C468 0.931 . S
H485 C473 0.930 . S
H486 C474 0.956 . S
H487 C474 0.961 . S
H488 C474 0.961 . S
H489 C475 0.958 . S
H490 C475 0.961 . S
H491 C475 0.960 . S
C492 C493 1.391 . S
C492 C494 1.394 . S
C492 H508 0.931 . S
C493 C492 1.391 . S
C493 C497 1.376 . S
C494 C492 1.394 . S
C494 C495 1.369 . S
C494 C498 1.531 . S
C495 C494 1.369 . S
C495 C496 1.410 . S
C495 C503 1.503 . S
C496 C495 1.410 . S
C496 C497 1.392 . S
C496 C499 1.511 . S
C497 C493 1.376 . S
C497 C496 1.392 . S
C497 H509 0.929 . S
C498 C494 1.531 . S
C498 H510 0.960 . S
C498 H511 0.962 . S
C498 H512 0.960 . S
C499 C496 1.511 . S
C499 H513 0.961 . S
C499 H514 0.961 . S
C499 H515 0.961 . S
C500 C501 1.370 . S
C500 C502 1.363 . S
C500 H516 0.931 . S
C501 C500 1.370 . S
C501 C505 1.408 . S
C502 C500 1.363 . S
C502 C503 1.370 . S
C502 C506 1.524 . S
C503 C495 1.503 . S
C503 C502 1.370 . S
C503 C504 1.403 . S
C504 C503 1.403 . S
C504 C505 1.404 . S
C504 C507 1.539 . S
C505 C501 1.408 . S
C505 C504 1.404 . S
C505 H517 0.930 . S
C506 C502 1.524 . S
C506 H518 0.956 . S
C506 H519 0.961 . S
C506 H520 0.961 . S
C507 C504 1.539 . S
C507 H521 0.958 . S
C507 H522 0.961 . S
C507 H523 0.960 . S
H508 C492 0.931 . S
H509 C497 0.929 . S
H510 C498 0.960 . S
H511 C498 0.962 . S
H512 C498 0.960 . S
H513 C499 0.961 . S
H514 C499 0.961 . S
H515 C499 0.961 . S
H516 C500 0.931 . S
H517 C505 0.930 . S
H518 C506 0.956 . S
H519 C506 0.961 . S
H520 C506 0.961 . S
H521 C507 0.958 . S
H522 C507 0.961 . S
H523 C507 0.960 . S
C524 C525 1.391 . S
C524 C526 1.394 . S
C524 H540 0.931 . S
C525 C524 1.391 . S
C525 C529 1.376 . S
C526 C524 1.394 . S
C526 C527 1.369 . S
C526 C530 1.531 . S
C527 C526 1.369 . S
C527 C528 1.410 . S
C527 C535 1.503 . S
C528 C527 1.410 . S
C528 C529 1.392 . S
C528 C531 1.511 . S
C529 C525 1.376 . S
C529 C528 1.392 . S
C529 H541 0.929 . S
C530 C526 1.531 . S
C530 H542 0.960 . S
C530 H543 0.962 . S
C530 H544 0.960 . S
C531 C528 1.511 . S
C531 H545 0.961 . S
C531 H546 0.961 . S
C531 H547 0.961 . S
C532 C533 1.370 . S
C532 C534 1.363 . S
C532 H548 0.931 . S
C533 C532 1.370 . S
C533 C537 1.408 . S
C534 C532 1.363 . S
C534 C535 1.370 . S
C534 C538 1.524 . S
C535 C527 1.503 . S
C535 C534 1.370 . S
C535 C536 1.403 . S
C536 C535 1.403 . S
C536 C537 1.404 . S
C536 C539 1.539 . S
C537 C533 1.408 . S
C537 C536 1.404 . S
C537 H549 0.930 . S
C538 C534 1.524 . S
C538 H550 0.956 . S
C538 H551 0.961 . S
C538 H552 0.961 . S
C539 C536 1.539 . S
C539 H553 0.958 . S
C539 H554 0.961 . S
C539 H555 0.960 . S
H540 C524 0.931 . S
H541 C529 0.929 . S
H542 C530 0.960 . S
H543 C530 0.962 . S
H544 C530 0.960 . S
H545 C531 0.961 . S
H546 C531 0.961 . S
H547 C531 0.961 . S
H548 C532 0.931 . S
H549 C537 0.930 . S
H550 C538 0.956 . S
H551 C538 0.961 . S
H552 C538 0.961 . S
H553 C539 0.958 . S
H554 C539 0.961 . S
H555 C539 0.960 . S
C556 C557 1.391 1_545 S
C556 C558 1.394 . S
C556 H572 0.931 . S
C557 C556 1.391 1_565 S
C557 C561 1.376 . S
C558 C556 1.394 . S
C558 C559 1.369 1_545 S
C558 C562 1.531 . S
C559 C558 1.369 1_565 S
C559 C560 1.410 . S
C559 C567 1.503 . S
C560 C559 1.410 . S
C560 C561 1.392 . S
C560 C563 1.511 . S
C561 C557 1.376 . S
C561 C560 1.392 . S
C561 H573 0.929 . S
C562 C558 1.531 . S
C562 H574 0.960 . S
C562 H575 0.962 . S
C562 H576 0.960 . S
C563 C560 1.511 . S
C563 H577 0.961 . S
C563 H578 0.961 . S
C563 H579 0.961 . S
C564 C565 1.370 . S
C564 C566 1.363 . S
C564 H580 0.931 . S
C565 C564 1.370 . S
C565 C569 1.408 1_565 S
C566 C564 1.363 . S
C566 C567 1.370 . S
C566 C570 1.524 . S
C567 C559 1.503 . S
C567 C566 1.370 . S
C567 C568 1.403 1_565 S
C568 C567 1.403 1_545 S
C568 C569 1.404 . S
C568 C571 1.539 . S
C569 C565 1.408 1_545 S
C569 C568 1.404 . S
C569 H581 0.930 . S
C570 C566 1.524 . S
C570 H582 0.956 . S
C570 H583 0.961 . S
C570 H584 0.961 . S
C571 C568 1.539 . S
C571 H585 0.958 . S
C571 H586 0.961 . S
C571 H587 0.960 . S
H572 C556 0.931 . S
H573 C561 0.929 . S
H574 C562 0.960 . S
H575 C562 0.962 . S
H576 C562 0.960 . S
H577 C563 0.961 . S
H578 C563 0.961 . S
H579 C563 0.961 . S
H580 C564 0.931 . S
H581 C569 0.930 . S
H582 C570 0.956 . S
H583 C570 0.961 . S
H584 C570 0.961 . S
H585 C571 0.958 . S
H586 C571 0.961 . S
H587 C571 0.960 . S
C588 C589 1.391 . S
C588 C590 1.394 . S
C588 H604 0.931 . S
C589 C588 1.391 . S
C589 C593 1.376 . S
C590 C588 1.394 . S
C590 C591 1.369 . S
C590 C594 1.531 . S
C591 C590 1.369 . S
C591 C592 1.410 . S
C591 C599 1.503 . S
C592 C591 1.410 . S
C592 C593 1.392 . S
C592 C595 1.511 . S
C593 C589 1.376 . S
C593 C592 1.392 . S
C593 H605 0.929 . S
C594 C590 1.531 . S
C594 H606 0.960 . S
C594 H607 0.962 . S
C594 H608 0.960 . S
C595 C592 1.511 . S
C595 H609 0.961 . S
C595 H610 0.961 . S
C595 H611 0.961 . S
C596 C597 1.370 . S
C596 C598 1.363 . S
C596 H612 0.931 . S
C597 C596 1.370 . S
C597 C601 1.408 . S
C598 C596 1.363 . S
C598 C599 1.370 . S
C598 C602 1.524 . S
C599 C591 1.503 . S
C599 C598 1.370 . S
C599 C600 1.403 . S
C600 C599 1.403 . S
C600 C601 1.404 . S
C600 C603 1.539 . S
C601 C597 1.408 . S
C601 C600 1.404 . S
C601 H613 0.930 . S
C602 C598 1.524 . S
C602 H614 0.956 . S
C602 H615 0.961 . S
C602 H616 0.961 . S
C603 C600 1.539 . S
C603 H617 0.958 . S
C603 H618 0.961 . S
C603 H619 0.960 . S
H604 C588 0.931 . S
H605 C593 0.929 . S
H606 C594 0.960 . S
H607 C594 0.962 . S
H608 C594 0.960 . S
H609 C595 0.961 . S
H610 C595 0.961 . S
H611 C595 0.961 . S
H612 C596 0.931 . S
H613 C601 0.930 . S
H614 C602 0.956 . S
H615 C602 0.961 . S
H616 C602 0.961 . S
H617 C603 0.958 . S
H618 C603 0.961 . S
H619 C603 0.960 . S
C620 C621 1.391 . S
C620 C622 1.394 . S
C620 H636 0.931 . S
C621 C620 1.391 . S
C621 C625 1.376 . S
C622 C620 1.394 . S
C622 C623 1.369 . S
C622 C626 1.531 . S
C623 C622 1.369 . S
C623 C624 1.410 . S
C623 C631 1.503 . S
C624 C623 1.410 . S
C624 C625 1.392 . S
C624 C627 1.511 . S
C625 C621 1.376 . S
C625 C624 1.392 . S
C625 H637 0.929 . S
C626 C622 1.531 . S
C626 H638 0.960 . S
C626 H639 0.962 . S
C626 H640 0.960 . S
C627 C624 1.511 . S
C627 H641 0.961 . S
C627 H642 0.961 . S
C627 H643 0.961 . S
C628 C629 1.370 . S
C628 C630 1.363 . S
C628 H644 0.931 . S
C629 C628 1.370 . S
C629 C633 1.408 . S
C630 C628 1.363 . S
C630 C631 1.370 . S
C630 C634 1.524 . S
C631 C623 1.503 . S
C631 C630 1.370 . S
C631 C632 1.403 . S
C632 C631 1.403 . S
C632 C633 1.404 . S
C632 C635 1.539 . S
C633 C629 1.408 . S
C633 C632 1.404 . S
C633 H645 0.930 . S
C634 C630 1.524 . S
C634 H646 0.956 . S
C634 H647 0.961 . S
C634 H648 0.961 . S
C635 C632 1.539 . S
C635 H649 0.958 . S
C635 H650 0.961 . S
C635 H651 0.960 . S
H636 C620 0.931 . S
H637 C625 0.929 . S
H638 C626 0.960 . S
H639 C626 0.962 . S
H640 C626 0.960 . S
H641 C627 0.961 . S
H642 C627 0.961 . S
H643 C627 0.961 . S
H644 C628 0.931 . S
H645 C633 0.930 . S
H646 C634 0.956 . S
H647 C634 0.961 . S
H648 C634 0.961 . S
H649 C635 0.958 . S
H650 C635 0.961 . S
H651 C635 0.960 . S
C652 C653 1.391 . S
C652 C654 1.394 . S
C652 H668 0.931 . S
C653 C652 1.391 . S
C653 C657 1.376 . S
C654 C652 1.394 . S
C654 C655 1.369 . S
C654 C658 1.531 . S
C655 C654 1.369 . S
C655 C656 1.410 . S
C655 C663 1.503 . S
C656 C655 1.410 . S
C656 C657 1.392 . S
C656 C659 1.511 . S
C657 C653 1.376 . S
C657 C656 1.392 . S
C657 H669 0.929 . S
C658 C654 1.531 . S
C658 H670 0.960 . S
C658 H671 0.962 . S
C658 H672 0.960 . S
C659 C656 1.511 . S
C659 H673 0.961 . S
C659 H674 0.961 . S
C659 H675 0.961 . S
C660 C661 1.370 . S
C660 C662 1.363 . S
C660 H676 0.931 . S
C661 C660 1.370 . S
C661 C665 1.408 . S
C662 C660 1.363 . S
C662 C663 1.370 . S
C662 C666 1.524 . S
C663 C655 1.503 . S
C663 C662 1.370 . S
C663 C664 1.403 . S
C664 C663 1.403 . S
C664 C665 1.404 . S
C664 C667 1.539 . S
C665 C661 1.408 . S
C665 C664 1.404 . S
C665 H677 0.930 . S
C666 C662 1.524 . S
C666 H678 0.956 . S
C666 H679 0.961 . S
C666 H680 0.961 . S
C667 C664 1.539 . S
C667 H681 0.958 . S
C667 H682 0.961 . S
C667 H683 0.960 . S
H668 C652 0.931 . S
H669 C657 0.929 . S
H670 C658 0.960 . S
H671 C658 0.962 . S
H672 C658 0.960 . S
H673 C659 0.961 . S
H674 C659 0.961 . S
H675 C659 0.961 . S
H676 C660 0.931 . S
H677 C665 0.930 . S
H678 C666 0.956 . S
H679 C666 0.961 . S
H680 C666 0.961 . S
H681 C667 0.958 . S
H682 C667 0.961 . S
H683 C667 0.960 . S
C684 C685 1.391 . S
C684 C686 1.394 . S
C684 H700 0.931 . S
C685 C684 1.391 . S
C685 C689 1.376 . S
C686 C684 1.394 . S
C686 C687 1.369 . S
C686 C690 1.531 . S
C687 C686 1.369 . S
C687 C688 1.410 . S
C687 C695 1.503 . S
C688 C687 1.410 . S
C688 C689 1.392 . S
C688 C691 1.511 . S
C689 C685 1.376 . S
C689 C688 1.392 . S
C689 H701 0.929 . S
C690 C686 1.531 . S
C690 H702 0.960 . S
C690 H703 0.962 . S
C690 H704 0.960 . S
C691 C688 1.511 . S
C691 H705 0.961 . S
C691 H706 0.961 . S
C691 H707 0.961 . S
C692 C693 1.370 . S
C692 C694 1.363 . S
C692 H708 0.931 . S
C693 C692 1.370 . S
C693 C697 1.408 . S
C694 C692 1.363 . S
C694 C695 1.370 . S
C694 C698 1.524 . S
C695 C687 1.503 . S
C695 C694 1.370 . S
C695 C696 1.403 . S
C696 C695 1.403 . S
C696 C697 1.404 . S
C696 C699 1.539 . S
C697 C693 1.408 . S
C697 C696 1.404 . S
C697 H709 0.930 . S
C698 C694 1.524 . S
C698 H710 0.956 . S
C698 H711 0.961 . S
C698 H712 0.961 . S
C699 C696 1.539 . S
C699 H713 0.958 . S
C699 H714 0.961 . S
C699 H715 0.960 . S
H700 C684 0.931 . S
H701 C689 0.929 . S
H702 C690 0.960 . S
H703 C690 0.962 . S
H704 C690 0.960 . S
H705 C691 0.961 . S
H706 C691 0.961 . S
H707 C691 0.961 . S
H708 C692 0.931 . S
H709 C697 0.930 . S
H710 C698 0.956 . S
H711 C698 0.961 . S
H712 C698 0.961 . S
H713 C699 0.958 . S
H714 C699 0.961 . S
H715 C699 0.960 . S
C716 C717 1.391 . S
C716 C718 1.394 . S
C716 H732 0.931 . S
C717 C716 1.391 . S
C717 C721 1.376 . S
C718 C716 1.394 . S
C718 C719 1.369 . S
C718 C722 1.531 . S
C719 C718 1.369 . S
C719 C720 1.410 . S
C719 C727 1.503 . S
C720 C719 1.410 . S
C720 C721 1.392 . S
C720 C723 1.511 . S
C721 C717 1.376 . S
C721 C720 1.392 . S
C721 H733 0.929 . S
C722 C718 1.531 . S
C722 H734 0.960 . S
C722 H735 0.962 . S
C722 H736 0.960 . S
C723 C720 1.511 . S
C723 H737 0.961 . S
C723 H738 0.961 . S
C723 H739 0.961 . S
C724 C725 1.370 . S
C724 C726 1.363 . S
C724 H740 0.931 . S
C725 C724 1.370 . S
C725 C729 1.408 . S
C726 C724 1.363 . S
C726 C727 1.370 . S
C726 C730 1.524 . S
C727 C719 1.503 . S
C727 C726 1.370 . S
C727 C728 1.403 . S
C728 C727 1.403 . S
C728 C729 1.404 . S
C728 C731 1.539 . S
C729 C725 1.408 . S
C729 C728 1.404 . S
C729 H741 0.930 . S
C730 C726 1.524 . S
C730 H742 0.956 . S
C730 H743 0.961 . S
C730 H744 0.961 . S
C731 C728 1.539 . S
C731 H745 0.958 . S
C731 H746 0.961 . S
C731 H747 0.960 . S
H732 C716 0.931 . S
H733 C721 0.929 . S
H734 C722 0.960 . S
H735 C722 0.962 . S
H736 C722 0.960 . S
H737 C723 0.961 . S
H738 C723 0.961 . S
H739 C723 0.961 . S
H740 C724 0.931 . S
H741 C729 0.930 . S
H742 C730 0.956 . S
H743 C730 0.961 . S
H744 C730 0.961 . S
H745 C731 0.958 . S
H746 C731 0.961 . S
H747 C731 0.960 . S
C748 C749 1.391 . S
C748 C750 1.394 . S
C748 H764 0.931 . S
C749 C748 1.391 . S
C749 C753 1.376 . S
C750 C748 1.394 . S
C750 C751 1.369 . S
C750 C754 1.531 . S
C751 C750 1.369 . S
C751 C752 1.410 . S
C751 C759 1.503 . S
C752 C751 1.410 . S
C752 C753 1.392 . S
C752 C755 1.511 . S
C753 C749 1.376 . S
C753 C752 1.392 . S
C753 H765 0.929 . S
C754 C750 1.531 . S
C754 H766 0.960 . S
C754 H767 0.962 1_455 S
C754 H768 0.960 1_455 S
C755 C752 1.511 . S
C755 H769 0.961 . S
C755 H770 0.961 . S
C755 H771 0.961 . S
C756 C757 1.370 . S
C756 C758 1.363 . S
C756 H772 0.931 . S
C757 C756 1.370 . S
C757 C761 1.408 . S
C758 C756 1.363 . S
C758 C759 1.370 . S
C758 C762 1.524 . S
C759 C751 1.503 . S
C759 C758 1.370 . S
C759 C760 1.403 . S
C760 C759 1.403 . S
C760 C761 1.404 . S
C760 C763 1.539 . S
C761 C757 1.408 . S
C761 C760 1.404 . S
C761 H773 0.930 . S
C762 C758 1.524 . S
C762 H774 0.956 . S
C762 H775 0.961 . S
C762 H776 0.961 . S
C763 C760 1.539 . S
C763 H777 0.958 . S
C763 H778 0.961 . S
C763 H779 0.960 . S
H764 C748 0.931 . S
H765 C753 0.929 . S
H766 C754 0.960 . S
H767 C754 0.962 1_655 S
H768 C754 0.960 1_655 S
H769 C755 0.961 . S
H770 C755 0.961 . S
H771 C755 0.961 . S
H772 C756 0.931 . S
H773 C761 0.930 . S
H774 C762 0.956 . S
H775 C762 0.961 . S
H776 C762 0.961 . S
H777 C763 0.958 . S
H778 C763 0.961 . S
H779 C763 0.960 . S
C780 C781 1.391 . S
C780 C782 1.394 . S
C780 H796 0.931 . S
C781 C780 1.391 . S
C781 C785 1.376 . S
C782 C780 1.394 . S
C782 C783 1.369 . S
C782 C786 1.531 . S
C783 C782 1.369 . S
C783 C784 1.410 . S
C783 C791 1.503 . S
C784 C783 1.410 . S
C784 C785 1.392 . S
C784 C787 1.511 . S
C785 C781 1.376 . S
C785 C784 1.392 . S
C785 H797 0.929 . S
C786 C782 1.531 . S
C786 H798 0.960 . S
C786 H799 0.962 . S
C786 H800 0.960 . S
C787 C784 1.511 . S
C787 H801 0.961 . S
C787 H802 0.961 . S
C787 H803 0.961 . S
C788 C789 1.370 . S
C788 C790 1.363 . S
C788 H804 0.931 . S
C789 C788 1.370 . S
C789 C793 1.408 . S
C790 C788 1.363 . S
C790 C791 1.370 . S
C790 C794 1.524 . S
C791 C783 1.503 . S
C791 C790 1.370 . S
C791 C792 1.403 . S
C792 C791 1.403 . S
C792 C793 1.404 . S
C792 C795 1.539 . S
C793 C789 1.408 . S
C793 C792 1.404 . S
C793 H805 0.930 . S
C794 C790 1.524 . S
C794 H806 0.956 . S
C794 H807 0.961 . S
C794 H808 0.961 . S
C795 C792 1.539 . S
C795 H809 0.958 . S
C795 H810 0.961 . S
C795 H811 0.960 . S
H796 C780 0.931 . S
H797 C785 0.929 . S
H798 C786 0.960 . S
H799 C786 0.962 . S
H800 C786 0.960 . S
H801 C787 0.961 . S
H802 C787 0.961 . S
H803 C787 0.961 . S
H804 C788 0.931 . S
H805 C793 0.930 . S
H806 C794 0.956 . S
H807 C794 0.961 . S
H808 C794 0.961 . S
H809 C795 0.958 . S
H810 C795 0.961 . S
H811 C795 0.960 . S
C812 C813 1.391 1_455 S
C812 C814 1.394 . S
C812 H828 0.931 . S
C813 C812 1.391 1_655 S
C813 C817 1.376 . S
C814 C812 1.394 . S
C814 C815 1.369 1_455 S
C814 C818 1.531 . S
C815 C814 1.369 1_655 S
C815 C816 1.410 . S
C815 C823 1.503 . S
C816 C815 1.410 . S
C816 C817 1.392 . S
C816 C819 1.511 . S
C817 C813 1.376 . S
C817 C816 1.392 . S
C817 H829 0.929 . S
C818 C814 1.531 . S
C818 H830 0.960 . S
C818 H831 0.962 . S
C818 H832 0.960 . S
C819 C816 1.511 . S
C819 H833 0.961 . S
C819 H834 0.961 . S
C819 H835 0.961 . S
C820 C821 1.403 . S
C820 C822 1.363 . S
C820 H836 0.931 . S
C821 C820 1.403 . S
C821 C825 1.375 1_455 S
C822 C820 1.363 . S
C822 C823 1.370 1_455 S
C822 C826 1.524 . S
C823 C815 1.503 . S
C823 C822 1.370 1_655 S
C823 C824 1.403 . S
C824 C823 1.403 . S
C824 C825 1.404 . S
C824 C827 1.539 . S
C825 C821 1.375 1_655 S
C825 C824 1.404 . S
C825 H837 0.930 . S
C826 C822 1.524 . S
C826 H838 0.956 . S
C826 H839 0.961 . S
C826 H840 0.961 . S
C827 C824 1.539 . S
C827 H841 0.958 . S
C827 H842 0.961 . S
C827 H843 0.960 . S
H828 C812 0.931 . S
H829 C817 0.929 . S
H830 C818 0.960 . S
H831 C818 0.962 . S
H832 C818 0.960 . S
H833 C819 0.961 . S
H834 C819 0.961 . S
H835 C819 0.961 . S
H836 C820 0.931 . S
H837 C825 0.930 . S
H838 C826 0.956 . S
H839 C826 0.961 . S
H840 C826 0.961 . S
H841 C827 0.958 . S
H842 C827 0.961 . S
H843 C827 0.960 . S
C844 C845 1.391 . S
C844 C846 1.394 . S
C844 H860 0.931 . S
C845 C844 1.391 . S
C845 C849 1.376 . S
C846 C844 1.394 . S
C846 C847 1.369 . S
C846 C850 1.531 . S
C847 C846 1.369 . S
C847 C848 1.410 . S
C847 C855 1.503 . S
C848 C847 1.410 . S
C848 C849 1.392 . S
C848 C851 1.511 . S
C849 C845 1.376 . S
C849 C848 1.392 . S
C849 H861 0.929 . S
C850 C846 1.531 . S
C850 H862 0.960 . S
C850 H863 0.962 . S
C850 H864 0.960 . S
C851 C848 1.511 . S
C851 H865 0.961 . S
C851 H866 0.961 . S
C851 H867 0.961 . S
C852 C853 1.370 . S
C852 C854 1.363 . S
C852 H868 0.931 . S
C853 C852 1.370 . S
C853 C857 1.408 . S
C854 C852 1.363 . S
C854 C855 1.370 . S
C854 C858 1.524 . S
C855 C847 1.503 . S
C855 C854 1.370 . S
C855 C856 1.403 . S
C856 C855 1.403 . S
C856 C857 1.404 . S
C856 C859 1.539 . S
C857 C853 1.408 . S
C857 C856 1.404 . S
C857 H869 0.930 . S
C858 C854 1.524 . S
C858 H870 0.956 . S
C858 H871 0.961 . S
C858 H872 0.961 . S
C859 C856 1.539 . S
C859 H873 0.958 . S
C859 H874 0.961 . S
C859 H875 0.960 . S
H860 C844 0.931 . S
H861 C849 0.929 . S
H862 C850 0.960 . S
H863 C850 0.962 . S
H864 C850 0.960 . S
H865 C851 0.961 . S
H866 C851 0.961 . S
H867 C851 0.961 . S
H868 C852 0.931 . S
H869 C857 0.930 . S
H870 C858 0.956 . S
H871 C858 0.961 . S
H872 C858 0.961 . S
H873 C859 0.958 . S
H874 C859 0.961 . S
H875 C859 0.960 . S
C876 C877 1.391 . S
C876 C878 1.394 . S
C876 H892 0.931 . S
C877 C876 1.391 . S
C877 C881 1.376 . S
C878 C876 1.394 . S
C878 C879 1.369 . S
C878 C882 1.531 . S
C879 C878 1.369 . S
C879 C880 1.410 . S
C879 C887 1.503 . S
C880 C879 1.410 . S
C880 C881 1.392 . S
C880 C883 1.511 . S
C881 C877 1.376 . S
C881 C880 1.392 . S
C881 H893 0.929 . S
C882 C878 1.531 . S
C882 H894 0.960 . S
C882 H895 0.962 . S
C882 H896 0.960 . S
C883 C880 1.511 . S
C883 H897 0.961 . S
C883 H898 0.961 . S
C883 H899 0.961 . S
C884 C885 1.370 . S
C884 C886 1.363 . S
C884 H900 0.931 . S
C885 C884 1.370 . S
C885 C889 1.408 . S
C886 C884 1.363 . S
C886 C887 1.370 . S
C886 C890 1.524 . S
C887 C879 1.503 . S
C887 C886 1.370 . S
C887 C888 1.403 . S
C888 C887 1.403 . S
C888 C889 1.404 . S
C888 C891 1.539 . S
C889 C885 1.408 . S
C889 C888 1.404 . S
C889 H901 0.930 . S
C890 C886 1.524 . S
C890 H902 0.956 . S
C890 H903 0.961 . S
C890 H904 0.961 . S
C891 C888 1.539 . S
C891 H905 0.958 . S
C891 H906 0.961 . S
C891 H907 0.960 . S
H892 C876 0.931 . S
H893 C881 0.929 . S
H894 C882 0.960 . S
H895 C882 0.962 . S
H896 C882 0.960 . S
H897 C883 0.961 . S
H898 C883 0.961 . S
H899 C883 0.961 . S
H900 C884 0.931 . S
H901 C889 0.930 . S
H902 C890 0.956 . S
H903 C890 0.961 . S
H904 C890 0.961 . S
H905 C891 0.958 . S
H906 C891 0.961 . S
H907 C891 0.960 . S
C908 C909 1.391 . S
C908 C910 1.394 1_556 S
C908 H924 0.931 . S
C909 C908 1.391 . S
C909 C913 1.376 1_545 S
C910 C908 1.394 1_554 S
C910 C911 1.369 1_545 S
C910 C914 1.531 . S
C911 C910 1.369 1_565 S
C911 C912 1.410 1_554 S
C911 C919 1.503 . S
C912 C911 1.410 1_556 S
C912 C913 1.392 . S
C912 C915 1.511 . S
C913 C909 1.376 1_565 S
C913 C912 1.392 . S
C913 H925 0.929 . S
C914 C910 1.531 . S
C914 H926 0.960 . S
C914 H927 0.962 . S
C914 H928 0.960 . S
C915 C912 1.511 . S
C915 H929 0.961 . S
C915 H930 0.961 . S
C915 H931 0.961 . S
C916 C917 1.370 . S
C916 C918 1.363 . S
C916 H932 0.931 . S
C917 C916 1.370 . S
C917 C921 1.408 . S
C918 C916 1.363 . S
C918 C919 1.370 . S
C918 C922 1.524 . S
C919 C911 1.503 . S
C919 C918 1.370 . S
C919 C920 1.403 1_554 S
C920 C919 1.403 1_556 S
C920 C921 1.404 1_556 S
C920 C923 1.539 . S
C921 C917 1.408 . S
C921 C920 1.404 1_554 S
C921 H933 0.930 1_554 S
C922 C918 1.524 . S
C922 H934 0.956 . S
C922 H935 0.961 . S
C922 H936 0.961 . S
C923 C920 1.539 . S
C923 H937 0.958 . S
C923 H938 0.961 . S
C923 H939 0.960 . S
H924 C908 0.931 . S
H925 C913 0.929 . S
H926 C914 0.960 . S
H927 C914 0.962 . S
H928 C914 0.960 . S
H929 C915 0.961 . S
H930 C915 0.961 . S
H931 C915 0.961 . S
H932 C916 0.931 . S
H933 C921 0.930 1_556 S
H934 C922 0.956 . S
H935 C922 0.961 . S
H936 C922 0.961 . S
H937 C923 0.958 . S
H938 C923 0.961 . S
H939 C923 0.960 . S
C940 C941 1.391 . S
C940 C942 1.394 . S
C940 H956 0.931 . S
C941 C940 1.391 . S
C941 C945 1.376 . S
C942 C940 1.394 . S
C942 C943 1.369 . S
C942 C946 1.531 . S
C943 C942 1.369 . S
C943 C944 1.410 . S
C943 C951 1.503 . S
C944 C943 1.410 . S
C944 C945 1.392 . S
C944 C947 1.511 . S
C945 C941 1.376 . S
C945 C944 1.392 . S
C945 H957 0.929 . S
C946 C942 1.531 . S
C946 H958 0.960 . S
C946 H959 0.962 . S
C946 H960 0.960 . S
C947 C944 1.511 . S
C947 H961 0.961 . S
C947 H962 0.961 . S
C947 H963 0.961 . S
C948 C949 1.370 . S
C948 C950 1.363 . S
C948 H964 0.931 . S
C949 C948 1.370 . S
C949 C953 1.408 . S
C950 C948 1.363 . S
C950 C951 1.370 . S
C950 C954 1.524 . S
C951 C943 1.503 . S
C951 C950 1.370 . S
C951 C952 1.403 . S
C952 C951 1.403 . S
C952 C953 1.404 . S
C952 C955 1.539 . S
C953 C949 1.408 . S
C953 C952 1.404 . S
C953 H965 0.930 . S
C954 C950 1.524 . S
C954 H966 0.956 . S
C954 H967 0.961 . S
C954 H968 0.961 . S
C955 C952 1.539 . S
C955 H969 0.958 . S
C955 H970 0.961 . S
C955 H971 0.960 . S
H956 C940 0.931 . S
H957 C945 0.929 . S
H958 C946 0.960 . S
H959 C946 0.962 . S
H960 C946 0.960 . S
H961 C947 0.961 . S
H962 C947 0.961 . S
H963 C947 0.961 . S
H964 C948 0.931 . S
H965 C953 0.930 . S
H966 C954 0.956 . S
H967 C954 0.961 . S
H968 C954 0.961 . S
H969 C955 0.958 . S
H970 C955 0.961 . S
H971 C955 0.960 . S
C972 C973 1.391 . S
C972 C974 1.394 . S
C972 H988 0.931 . S
C973 C972 1.391 . S
C973 C977 1.376 . S
C974 C972 1.394 . S
C974 C975 1.369 . S
C974 C978 1.531 . S
C975 C974 1.369 . S
C975 C976 1.410 . S
C975 C983 1.503 . S
C976 C975 1.410 . S
C976 C977 1.392 . S
C976 C979 1.511 . S
C977 C973 1.376 . S
C977 C976 1.392 . S
C977 H989 0.929 1_545 S
C978 C974 1.531 . S
C978 H990 0.960 . S
C978 H991 0.962 . S
C978 H992 0.960 . S
C979 C976 1.511 . S
C979 H993 0.961 . S
C979 H994 0.961 . S
C979 H995 0.961 . S
C980 C981 1.370 . S
C980 C982 1.363 . S
C980 H996 0.931 . S
C981 C980 1.370 . S
C981 C985 1.408 . S
C982 C980 1.363 . S
C982 C983 1.370 . S
C982 C986 1.524 . S
C983 C975 1.503 . S
C983 C982 1.370 . S
C983 C984 1.403 . S
C984 C983 1.403 . S
C984 C985 1.404 . S
C984 C987 1.539 . S
C985 C981 1.408 . S
C985 C984 1.404 . S
C985 H997 0.930 . S
C986 C982 1.524 . S
C986 H998 0.956 . S
C986 H999 0.961 . S
C986 H1000 0.961 . S
C987 C984 1.539 . S
C987 H1001 0.958 . S
C987 H1002 0.961 . S
C987 H1003 0.960 . S
H988 C972 0.931 . S
H989 C977 0.929 1_565 S
H990 C978 0.960 . S
H991 C978 0.962 . S
H992 C978 0.960 . S
H993 C979 0.961 . S
H994 C979 0.961 . S
H995 C979 0.961 . S
H996 C980 0.931 . S
H997 C985 0.930 . S
H998 C986 0.956 . S
H999 C986 0.961 . S
H1000 C986 0.961 . S
H1001 C987 0.958 . S
H1002 C987 0.961 . S
H1003 C987 0.960 . S
C1004 C1005 1.391 . S
C1004 C1006 1.394 . S
C1004 H1020 0.931 . S
C1005 C1004 1.391 . S
C1005 C1009 1.376 . S
C1006 C1004 1.394 . S
C1006 C1007 1.369 . S
C1006 C1010 1.531 . S
C1007 C1006 1.369 . S
C1007 C1008 1.410 . S
C1007 C1015 1.503 . S
C1008 C1007 1.410 . S
C1008 C1009 1.392 . S
C1008 C1011 1.511 . S
C1009 C1005 1.376 . S
C1009 C1008 1.392 . S
C1009 H1021 0.929 . S
C1010 C1006 1.531 . S
C1010 H1022 0.960 . S
C1010 H1023 0.962 . S
C1010 H1024 0.960 . S
C1011 C1008 1.511 . S
C1011 H1025 0.961 . S
C1011 H1026 0.961 . S
C1011 H1027 0.961 . S
C1012 C1013 1.370 . S
C1012 C1014 1.363 . S
C1012 H1028 0.931 . S
C1013 C1012 1.370 . S
C1013 C1017 1.408 . S
C1014 C1012 1.363 . S
C1014 C1015 1.370 . S
C1014 C1018 1.524 . S
C1015 C1007 1.503 . S
C1015 C1014 1.370 . S
C1015 C1016 1.403 . S
C1016 C1015 1.403 . S
C1016 C1017 1.404 . S
C1016 C1019 1.539 . S
C1017 C1013 1.408 . S
C1017 C1016 1.404 . S
C1017 H1029 0.930 . S
C1018 C1014 1.524 . S
C1018 H1030 0.956 . S
C1018 H1031 0.961 . S
C1018 H1032 0.961 . S
C1019 C1016 1.539 . S
C1019 H1033 0.958 . S
C1019 H1034 0.961 . S
C1019 H1035 0.960 . S
H1020 C1004 0.931 . S
H1021 C1009 0.929 . S
H1022 C1010 0.960 . S
H1023 C1010 0.962 . S
H1024 C1010 0.960 . S
H1025 C1011 0.961 . S
H1026 C1011 0.961 . S
H1027 C1011 0.961 . S
H1028 C1012 0.931 . S
H1029 C1017 0.930 . S
H1030 C1018 0.956 . S
H1031 C1018 0.961 . S
H1032 C1018 0.961 . S
H1033 C1019 0.958 . S
H1034 C1019 0.961 . S
H1035 C1019 0.960 . S
C1036 C1037 1.391 . S
C1036 C1038 1.394 . S
C1036 H1052 0.931 . S
C1037 C1036 1.391 . S
C1037 C1041 1.376 . S
C1038 C1036 1.394 . S
C1038 C1039 1.369 . S
C1038 C1042 1.531 . S
C1039 C1038 1.369 . S
C1039 C1040 1.410 . S
C1039 C1047 1.503 . S
C1040 C1039 1.410 . S
C1040 C1041 1.392 . S
C1040 C1043 1.511 . S
C1041 C1037 1.376 . S
C1041 C1040 1.392 . S
C1041 H1053 0.929 . S
C1042 C1038 1.531 . S
C1042 H1054 0.960 . S
C1042 H1055 0.962 . S
C1042 H1056 0.960 . S
C1043 C1040 1.511 . S
C1043 H1057 0.961 . S
C1043 H1058 0.961 . S
C1043 H1059 0.961 . S
C1044 C1045 1.370 . S
C1044 C1046 1.363 . S
C1044 H1060 0.931 . S
C1045 C1044 1.370 . S
C1045 C1049 1.408 . S
C1046 C1044 1.363 . S
C1046 C1047 1.370 . S
C1046 C1050 1.524 . S
C1047 C1039 1.503 . S
C1047 C1046 1.370 . S
C1047 C1048 1.403 . S
C1048 C1047 1.403 . S
C1048 C1049 1.404 . S
C1048 C1051 1.539 . S
C1049 C1045 1.408 . S
C1049 C1048 1.404 . S
C1049 H1061 0.930 . S
C1050 C1046 1.524 . S
C1050 H1062 0.956 . S
C1050 H1063 0.961 . S
C1050 H1064 0.961 . S
C1051 C1048 1.539 . S
C1051 H1065 0.958 . S
C1051 H1066 0.961 . S
C1051 H1067 0.960 . S
H1052 C1036 0.931 . S
H1053 C1041 0.929 . S
H1054 C1042 0.960 . S
H1055 C1042 0.962 . S
H1056 C1042 0.960 . S
H1057 C1043 0.961 . S
H1058 C1043 0.961 . S
H1059 C1043 0.961 . S
H1060 C1044 0.931 . S
H1061 C1049 0.930 . S
H1062 C1050 0.956 . S
H1063 C1050 0.961 . S
H1064 C1050 0.961 . S
H1065 C1051 0.958 . S
H1066 C1051 0.961 . S
H1067 C1051 0.960 . S
C1068 C1069 1.391 . S
C1068 C1070 1.394 . S
C1068 H1084 0.931 . S
C1069 C1068 1.391 . S
C1069 C1073 1.376 . S
C1070 C1068 1.394 . S
C1070 C1071 1.369 . S
C1070 C1074 1.531 . S
C1071 C1070 1.369 . S
C1071 C1072 1.410 . S
C1071 C1079 1.503 . S
C1072 C1071 1.410 . S
C1072 C1073 1.392 . S
C1072 C1075 1.511 . S
C1073 C1069 1.376 . S
C1073 C1072 1.392 . S
C1073 H1085 0.929 . S
C1074 C1070 1.531 . S
C1074 H1086 0.960 . S
C1074 H1087 0.962 . S
C1074 H1088 0.960 . S
C1075 C1072 1.511 . S
C1075 H1089 0.961 . S
C1075 H1090 0.961 . S
C1075 H1091 0.961 . S
C1076 C1077 1.370 . S
C1076 C1078 1.363 . S
C1076 H1092 0.931 . S
C1077 C1076 1.370 . S
C1077 C1081 1.408 . S
C1078 C1076 1.363 . S
C1078 C1079 1.370 . S
C1078 C1082 1.524 . S
C1079 C1071 1.503 . S
C1079 C1078 1.370 . S
C1079 C1080 1.403 . S
C1080 C1079 1.403 . S
C1080 C1081 1.404 . S
C1080 C1083 1.539 . S
C1081 C1077 1.408 . S
C1081 C1080 1.404 . S
C1081 H1093 0.930 . S
C1082 C1078 1.524 . S
C1082 H1094 0.956 . S
C1082 H1095 0.961 . S
C1082 H1096 0.961 . S
C1083 C1080 1.539 . S
C1083 H1097 0.958 . S
C1083 H1098 0.961 . S
C1083 H1099 0.960 . S
H1084 C1068 0.931 . S
H1085 C1073 0.929 . S
H1086 C1074 0.960 . S
H1087 C1074 0.962 . S
H1088 C1074 0.960 . S
H1089 C1075 0.961 . S
H1090 C1075 0.961 . S
H1091 C1075 0.961 . S
H1092 C1076 0.931 . S
H1093 C1081 0.930 . S
H1094 C1082 0.956 . S
H1095 C1082 0.961 . S
H1096 C1082 0.961 . S
H1097 C1083 0.958 . S
H1098 C1083 0.961 . S
H1099 C1083 0.960 . S
C1100 C1101 1.391 . S
C1100 C1102 1.394 . S
C1100 H1116 0.931 . S
C1101 C1100 1.391 . S
C1101 C1105 1.376 . S
C1102 C1100 1.394 . S
C1102 C1103 1.369 . S
C1102 C1106 1.531 . S
C1103 C1102 1.369 . S
C1103 C1104 1.410 . S
C1103 C1111 1.503 . S
C1104 C1103 1.410 . S
C1104 C1105 1.392 . S
C1104 C1107 1.511 . S
C1105 C1101 1.376 . S
C1105 C1104 1.392 . S
C1105 H1117 0.929 . S
C1106 C1102 1.531 . S
C1106 H1118 0.960 . S
C1106 H1119 0.962 . S
C1106 H1120 0.960 . S
C1107 C1104 1.511 . S
C1107 H1121 0.961 . S
C1107 H1122 0.961 . S
C1107 H1123 0.961 . S
C1108 C1109 1.370 . S
C1108 C1110 1.363 . S
C1108 H1124 0.931 . S
C1109 C1108 1.370 . S
C1109 C1113 1.408 . S
C1110 C1108 1.363 . S
C1110 C1111 1.370 . S
C1110 C1114 1.524 . S
C1111 C1103 1.503 . S
C1111 C1110 1.370 . S
C1111 C1112 1.403 . S
C1112 C1111 1.403 . S
C1112 C1113 1.404 . S
C1112 C1115 1.539 . S
C1113 C1109 1.408 . S
C1113 C1112 1.404 . S
C1113 H1125 0.930 . S
C1114 C1110 1.524 . S
C1114 H1126 0.956 . S
C1114 H1127 0.961 . S
C1114 H1128 0.961 . S
C1115 C1112 1.539 . S
C1115 H1129 0.958 . S
C1115 H1130 0.961 . S
C1115 H1131 0.960 . S
H1116 C1100 0.931 . S
H1117 C1105 0.929 . S
H1118 C1106 0.960 . S
H1119 C1106 0.962 . S
H1120 C1106 0.960 . S
H1121 C1107 0.961 . S
H1122 C1107 0.961 . S
H1123 C1107 0.961 . S
H1124 C1108 0.931 . S
H1125 C1113 0.930 . S
H1126 C1114 0.956 . S
H1127 C1114 0.961 . S
H1128 C1114 0.961 . S
H1129 C1115 0.958 . S
H1130 C1115 0.961 . S
H1131 C1115 0.960 . S
C1132 C1133 1.391 . S
C1132 C1134 1.394 . S
C1132 H1148 0.931 . S
C1133 C1132 1.391 . S
C1133 C1137 1.376 . S
C1134 C1132 1.394 . S
C1134 C1135 1.369 . S
C1134 C1138 1.531 1_545 S
C1135 C1134 1.369 . S
C1135 C1136 1.410 . S
C1135 C1143 1.503 . S
C1136 C1135 1.410 . S
C1136 C1137 1.392 . S
C1136 C1139 1.511 . S
C1137 C1133 1.376 . S
C1137 C1136 1.392 . S
C1137 H1149 0.929 . S
C1138 C1134 1.531 1_565 S
C1138 H1150 0.960 . S
C1138 H1151 0.968 . S
C1138 H1152 0.960 . S
C1139 C1136 1.511 . S
C1139 H1153 0.961 . S
C1139 H1154 0.961 . S
C1139 H1155 0.961 . S
C1140 C1141 1.370 . S
C1140 C1142 1.363 . S
C1140 H1156 0.931 . S
C1141 C1140 1.370 . S
C1141 C1145 1.408 1_545 S
C1142 C1140 1.363 . S
C1142 C1143 1.370 . S
C1142 C1146 1.524 . S
C1143 C1135 1.503 . S
C1143 C1142 1.370 . S
C1143 C1144 1.403 1_545 S
C1144 C1143 1.403 1_565 S
C1144 C1145 1.404 . S
C1144 C1147 1.539 . S
C1145 C1141 1.408 1_565 S
C1145 C1144 1.404 . S
C1145 H1157 0.930 . S
C1146 C1142 1.524 . S
C1146 H1158 0.956 . S
C1146 H1159 0.961 . S
C1146 H1160 0.961 . S
C1147 C1144 1.539 . S
C1147 H1161 0.958 . S
C1147 H1162 0.961 . S
C1147 H1163 0.960 . S
H1148 C1132 0.931 . S
H1149 C1137 0.929 . S
H1150 C1138 0.960 . S
H1151 C1138 0.968 . S
H1152 C1138 0.960 . S
H1153 C1139 0.961 . S
H1154 C1139 0.961 . S
H1155 C1139 0.961 . S
H1156 C1140 0.931 . S
H1157 C1145 0.930 . S
H1158 C1146 0.956 . S
H1159 C1146 0.961 . S
H1160 C1146 0.961 . S
H1161 C1147 0.958 . S
H1162 C1147 0.961 . S
H1163 C1147 0.960 . S
C1164 C1165 1.391 . S
C1164 C1166 1.394 . S
C1164 H1180 0.931 . S
C1165 C1164 1.391 . S
C1165 C1169 1.376 . S
C1166 C1164 1.394 . S
C1166 C1167 1.369 . S
C1166 C1170 1.531 . S
C1167 C1166 1.369 . S
C1167 C1168 1.410 . S
C1167 C1175 1.503 . S
C1168 C1167 1.410 . S
C1168 C1169 1.392 . S
C1168 C1171 1.511 . S
C1169 C1165 1.376 . S
C1169 C1168 1.392 . S
C1169 H1181 0.929 . S
C1170 C1166 1.531 . S
C1170 H1182 0.960 . S
C1170 H1183 0.962 . S
C1170 H1184 0.960 . S
C1171 C1168 1.511 . S
C1171 H1185 0.961 . S
C1171 H1186 0.961 . S
C1171 H1187 0.961 . S
C1172 C1173 1.370 . S
C1172 C1174 1.363 . S
C1172 H1188 0.931 . S
C1173 C1172 1.370 . S
C1173 C1177 1.408 . S
C1174 C1172 1.363 . S
C1174 C1175 1.370 . S
C1174 C1178 1.524 . S
C1175 C1167 1.503 . S
C1175 C1174 1.370 . S
C1175 C1176 1.403 . S
C1176 C1175 1.403 . S
C1176 C1177 1.404 . S
C1176 C1179 1.539 . S
C1177 C1173 1.408 . S
C1177 C1176 1.404 . S
C1177 H1189 0.930 . S
C1178 C1174 1.524 . S
C1178 H1190 0.956 . S
C1178 H1191 0.961 . S
C1178 H1192 0.961 . S
C1179 C1176 1.539 . S
C1179 H1193 0.958 . S
C1179 H1194 0.961 . S
C1179 H1195 0.960 . S
H1180 C1164 0.931 . S
H1181 C1169 0.929 . S
H1182 C1170 0.960 . S
H1183 C1170 0.962 . S
H1184 C1170 0.960 . S
H1185 C1171 0.961 . S
H1186 C1171 0.961 . S
H1187 C1171 0.961 . S
H1188 C1172 0.931 . S
H1189 C1177 0.930 . S
H1190 C1178 0.956 . S
H1191 C1178 0.961 . S
H1192 C1178 0.961 . S
H1193 C1179 0.958 . S
H1194 C1179 0.961 . S
H1195 C1179 0.960 . S
C1196 C1197 1.391 . S
C1196 C1198 1.394 . S
C1196 H1212 0.931 . S
C1197 C1196 1.391 . S
C1197 C1201 1.376 . S
C1198 C1196 1.394 . S
C1198 C1199 1.369 . S
C1198 C1202 1.531 . S
C1199 C1198 1.369 . S
C1199 C1200 1.410 . S
C1199 C1207 1.503 . S
C1200 C1199 1.410 . S
C1200 C1201 1.392 . S
C1200 C1203 1.511 . S
C1201 C1197 1.376 . S
C1201 C1200 1.392 . S
C1201 H1213 0.929 . S
C1202 C1198 1.531 . S
C1202 H1214 0.960 . S
C1202 H1215 0.962 . S
C1202 H1216 0.960 . S
C1203 C1200 1.511 . S
C1203 H1217 0.961 . S
C1203 H1218 0.961 . S
C1203 H1219 0.961 . S
C1204 C1205 1.370 . S
C1204 C1206 1.363 . S
C1204 H1220 0.931 . S
C1205 C1204 1.370 . S
C1205 C1209 1.408 . S
C1206 C1204 1.363 . S
C1206 C1207 1.370 . S
C1206 C1210 1.524 . S
C1207 C1199 1.503 . S
C1207 C1206 1.370 . S
C1207 C1208 1.403 . S
C1208 C1207 1.403 . S
C1208 C1209 1.404 . S
C1208 C1211 1.539 . S
C1209 C1205 1.408 . S
C1209 C1208 1.404 . S
C1209 H1221 0.930 . S
C1210 C1206 1.524 . S
C1210 H1222 0.956 . S
C1210 H1223 0.961 . S
C1210 H1224 0.961 . S
C1211 C1208 1.539 . S
C1211 H1225 0.958 . S
C1211 H1226 0.961 . S
C1211 H1227 0.960 . S
H1212 C1196 0.931 . S
H1213 C1201 0.929 . S
H1214 C1202 0.960 . S
H1215 C1202 0.962 . S
H1216 C1202 0.960 . S
H1217 C1203 0.961 . S
H1218 C1203 0.961 . S
H1219 C1203 0.961 . S
H1220 C1204 0.931 . S
H1221 C1209 0.930 . S
H1222 C1210 0.956 . S
H1223 C1210 0.961 . S
H1224 C1210 0.961 . S
H1225 C1211 0.958 . S
H1226 C1211 0.961 . S
H1227 C1211 0.960 . S
C1228 C1229 1.391 . S
C1228 C1230 1.394 . S
C1228 H1244 0.931 . S
C1229 C1228 1.391 . S
C1229 C1233 1.376 . S
C1230 C1228 1.394 . S
C1230 C1231 1.369 . S
C1230 C1234 1.531 . S
C1231 C1230 1.369 . S
C1231 C1232 1.410 . S
C1231 C1239 1.503 . S
C1232 C1231 1.410 . S
C1232 C1233 1.392 . S
C1232 C1235 1.511 . S
C1233 C1229 1.376 . S
C1233 C1232 1.392 . S
C1233 H1245 0.929 . S
C1234 C1230 1.531 . S
C1234 H1246 0.960 . S
C1234 H1247 0.962 . S
C1234 H1248 0.960 . S
C1235 C1232 1.511 . S
C1235 H1249 0.961 . S
C1235 H1250 0.961 . S
C1235 H1251 0.961 . S
C1236 C1237 1.370 . S
C1236 C1238 1.363 . S
C1236 H1252 0.931 . S
C1237 C1236 1.370 . S
C1237 C1241 1.408 . S
C1238 C1236 1.363 . S
C1238 C1239 1.370 . S
C1238 C1242 1.524 . S
C1239 C1231 1.503 . S
C1239 C1238 1.370 . S
C1239 C1240 1.403 . S
C1240 C1239 1.403 . S
C1240 C1241 1.404 . S
C1240 C1243 1.539 . S
C1241 C1237 1.408 . S
C1241 C1240 1.404 . S
C1241 H1253 0.930 . S
C1242 C1238 1.524 . S
C1242 H1254 0.956 . S
C1242 H1255 0.961 . S
C1242 H1256 0.961 . S
C1243 C1240 1.539 . S
C1243 H1257 0.958 . S
C1243 H1258 0.961 . S
C1243 H1259 0.960 . S
H1244 C1228 0.931 . S
H1245 C1233 0.929 . S
H1246 C1234 0.960 . S
H1247 C1234 0.962 . S
H1248 C1234 0.960 . S
H1249 C1235 0.961 . S
H1250 C1235 0.961 . S
H1251 C1235 0.961 . S
H1252 C1236 0.931 . S
H1253 C1241 0.930 . S
H1254 C1242 0.956 . S
H1255 C1242 0.961 . S
H1256 C1242 0.961 . S
H1257 C1243 0.958 . S
H1258 C1243 0.961 . S
H1259 C1243 0.960 . S
C1260 C1261 1.391 . S
C1260 C1262 1.394 . S
C1260 H1276 0.931 . S
C1261 C1260 1.391 . S
C1261 C1265 1.376 . S
C1262 C1260 1.394 . S
C1262 C1263 1.369 . S
C1262 C1266 1.531 . S
C1263 C1262 1.369 . S
C1263 C1264 1.410 . S
C1263 C1271 1.503 1_455 S
C1264 C1263 1.410 . S
C1264 C1265 1.392 . S
C1264 C1267 1.511 1_455 S
C1265 C1261 1.376 . S
C1265 C1264 1.392 . S
C1265 H1277 0.929 . S
C1266 C1262 1.531 . S
C1266 H1278 0.960 . S
C1266 H1279 0.962 . S
C1266 H1280 0.960 . S
C1267 C1264 1.511 1_655 S
C1267 H1281 0.961 1_545 S
C1267 H1282 0.961 . S
C1267 H1283 0.961 . S
C1268 C1269 1.370 . S
C1268 C1270 1.363 1_655 S
C1268 H1284 0.931 1_655 S
C1269 C1268 1.370 . S
C1269 C1273 1.408 . S
C1270 C1268 1.363 1_455 S
C1270 C1271 1.370 1_455 S
C1270 C1274 1.524 . S
C1271 C1263 1.503 1_655 S
C1271 C1270 1.370 1_655 S
C1271 C1272 1.403 . S
C1272 C1271 1.403 . S
C1272 C1273 1.404 . S
C1272 C1275 1.539 . S
C1273 C1269 1.408 . S
C1273 C1272 1.404 . S
C1273 H1285 0.930 . S
C1274 C1270 1.524 . S
C1274 H1286 0.956 . S
C1274 H1287 0.961 . S
C1274 H1288 0.961 . S
C1275 C1272 1.539 . S
C1275 H1289 0.958 . S
C1275 H1290 0.961 . S
C1275 H1291 0.960 . S
H1276 C1260 0.931 . S
H1277 C1265 0.929 . S
H1278 C1266 0.960 . S
H1279 C1266 0.962 . S
H1280 C1266 0.960 . S
H1281 C1267 0.961 1_565 S
H1282 C1267 0.961 . S
H1283 C1267 0.961 . S
H1284 C1268 0.931 1_455 S
H1285 C1273 0.930 . S
H1286 C1274 0.956 . S
H1287 C1274 0.961 . S
H1288 C1274 0.961 . S
H1289 C1275 0.958 . S
H1290 C1275 0.961 . S
H1291 C1275 0.960 . S
C1292 C1293 1.391 . S
C1292 C1294 1.394 . S
C1292 H1308 0.931 . S
C1293 C1292 1.391 . S
C1293 C1297 1.376 . S
C1294 C1292 1.394 . S
C1294 C1295 1.369 . S
C1294 C1298 1.531 . S
C1295 C1294 1.369 . S
C1295 C1296 1.410 . S
C1295 C1303 1.503 . S
C1296 C1295 1.410 . S
C1296 C1297 1.392 . S
C1296 C1299 1.511 . S
C1297 C1293 1.376 . S
C1297 C1296 1.392 . S
C1297 H1309 0.929 . S
C1298 C1294 1.531 . S
C1298 H1310 0.960 . S
C1298 H1311 0.962 . S
C1298 H1312 0.960 . S
C1299 C1296 1.511 . S
C1299 H1313 0.961 . S
C1299 H1314 0.961 . S
C1299 H1315 0.961 . S
C1300 C1301 1.370 . S
C1300 C1302 1.363 . S
C1300 H1316 0.931 . S
C1301 C1300 1.370 . S
C1301 C1305 1.408 . S
C1302 C1300 1.363 . S
C1302 C1303 1.370 . S
C1302 C1306 1.524 . S
C1303 C1295 1.503 . S
C1303 C1302 1.370 . S
C1303 C1304 1.403 . S
C1304 C1303 1.403 . S
C1304 C1305 1.404 . S
C1304 C1307 1.539 . S
C1305 C1301 1.408 . S
C1305 C1304 1.404 . S
C1305 H1317 0.930 . S
C1306 C1302 1.524 . S
C1306 H1318 0.956 . S
C1306 H1319 0.961 . S
C1306 H1320 0.961 . S
C1307 C1304 1.539 . S
C1307 H1321 0.958 . S
C1307 H1322 0.961 . S
C1307 H1323 0.960 . S
H1308 C1292 0.931 . S
H1309 C1297 0.929 . S
H1310 C1298 0.960 . S
H1311 C1298 0.962 . S
H1312 C1298 0.960 . S
H1313 C1299 0.961 . S
H1314 C1299 0.961 . S
H1315 C1299 0.961 . S
H1316 C1300 0.931 . S
H1317 C1305 0.930 . S
H1318 C1306 0.956 . S
H1319 C1306 0.961 . S
H1320 C1306 0.961 . S
H1321 C1307 0.958 . S
H1322 C1307 0.961 . S
H1323 C1307 0.960 . S
C1324 C1325 1.391 . S
C1324 C1326 1.394 . S
C1324 H1340 0.931 . S
C1325 C1324 1.391 . S
C1325 C1329 1.376 . S
C1326 C1324 1.394 . S
C1326 C1327 1.369 . S
C1326 C1330 1.531 . S
C1327 C1326 1.369 . S
C1327 C1328 1.410 . S
C1327 C1335 1.503 . S
C1328 C1327 1.410 . S
C1328 C1329 1.392 . S
C1328 C1331 1.511 . S
C1329 C1325 1.376 . S
C1329 C1328 1.392 . S
C1329 H1341 0.929 . S
C1330 C1326 1.531 . S
C1330 H1342 0.960 . S
C1330 H1343 0.962 . S
C1330 H1344 0.960 . S
C1331 C1328 1.511 . S
C1331 H1345 0.961 . S
C1331 H1346 0.961 . S
C1331 H1347 0.961 . S
C1332 C1333 1.370 . S
C1332 C1334 1.363 . S
C1332 H1348 0.931 . S
C1333 C1332 1.370 . S
C1333 C1337 1.408 . S
C1334 C1332 1.363 . S
C1334 C1335 1.370 . S
C1334 C1338 1.524 . S
C1335 C1327 1.503 . S
C1335 C1334 1.370 . S
C1335 C1336 1.403 . S
C1336 C1335 1.403 . S
C1336 C1337 1.404 . S
C1336 C1339 1.539 . S
C1337 C1333 1.408 . S
C1337 C1336 1.404 . S
C1337 H1349 0.930 . S
C1338 C1334 1.524 . S
C1338 H1350 0.956 . S
C1338 H1351 0.961 . S
C1338 H1352 0.961 . S
C1339 C1336 1.539 . S
C1339 H1353 0.958 . S
C1339 H1354 0.961 . S
C1339 H1355 0.960 . S
H1340 C1324 0.931 . S
H1341 C1329 0.929 . S
H1342 C1330 0.960 . S
H1343 C1330 0.962 . S
H1344 C1330 0.960 . S
H1345 C1331 0.961 . S
H1346 C1331 0.961 . S
H1347 C1331 0.961 . S
H1348 C1332 0.931 . S
H1349 C1337 0.930 . S
H1350 C1338 0.956 . S
H1351 C1338 0.961 . S
H1352 C1338 0.961 . S
H1353 C1339 0.958 . S
H1354 C1339 0.961 . S
H1355 C1339 0.960 . S
C1356 C1357 1.391 . S
C1356 C1358 1.394 . S
C1356 H1372 0.931 . S
C1357 C1356 1.391 . S
C1357 C1361 1.376 . S
C1358 C1356 1.394 . S
C1358 C1359 1.369 . S
C1358 C1362 1.531 . S
C1359 C1358 1.369 . S
C1359 C1360 1.410 . S
C1359 C1367 1.503 . S
C1360 C1359 1.410 . S
C1360 C1361 1.392 . S
C1360 C1363 1.511 . S
C1361 C1357 1.376 . S
C1361 C1360 1.392 . S
C1361 H1373 0.929 . S
C1362 C1358 1.531 . S
C1362 H1374 0.960 . S
C1362 H1375 0.962 . S
C1362 H1376 0.960 . S
C1363 C1360 1.511 . S
C1363 H1377 0.961 . S
C1363 H1378 0.961 . S
C1363 H1379 0.961 . S
C1364 C1365 1.370 . S
C1364 C1366 1.363 . S
C1364 H1380 0.931 . S
C1365 C1364 1.370 . S
C1365 C1369 1.408 . S
C1366 C1364 1.363 . S
C1366 C1367 1.370 . S
C1366 C1370 1.524 . S
C1367 C1359 1.503 . S
C1367 C1366 1.370 . S
C1367 C1368 1.403 . S
C1368 C1367 1.403 . S
C1368 C1369 1.404 . S
C1368 C1371 1.539 . S
C1369 C1365 1.408 . S
C1369 C1368 1.404 . S
C1369 H1381 0.930 . S
C1370 C1366 1.524 . S
C1370 H1382 0.956 . S
C1370 H1383 0.961 . S
C1370 H1384 0.961 . S
C1371 C1368 1.539 . S
C1371 H1385 0.958 . S
C1371 H1386 0.961 . S
C1371 H1387 0.960 . S
H1372 C1356 0.931 . S
H1373 C1361 0.929 . S
H1374 C1362 0.960 . S
H1375 C1362 0.962 . S
H1376 C1362 0.960 . S
H1377 C1363 0.961 . S
H1378 C1363 0.961 . S
H1379 C1363 0.961 . S
H1380 C1364 0.931 . S
H1381 C1369 0.930 . S
H1382 C1370 0.956 . S
H1383 C1370 0.961 . S
H1384 C1370 0.961 . S
H1385 C1371 0.958 . S
H1386 C1371 0.961 . S
H1387 C1371 0.960 . S
C1388 C1389 1.391 1_656 S
C1388 C1390 1.394 . S
C1388 H1404 0.931 . S
C1389 C1388 1.391 1_454 S
C1389 C1393 1.376 1_554 S
C1390 C1388 1.394 . S
C1390 C1391 1.369 1_655 S
C1390 C1394 1.531 . S
C1391 C1390 1.369 1_455 S
C1391 C1392 1.410 . S
C1391 C1399 1.503 . S
C1392 C1391 1.410 . S
C1392 C1393 1.392 . S
C1392 C1395 1.511 . S
C1393 C1389 1.376 1_556 S
C1393 C1392 1.392 . S
C1393 H1405 0.929 1_556 S
C1394 C1390 1.531 . S
C1394 H1406 0.960 . S
C1394 H1407 0.962 . S
C1394 H1408 0.960 . S
C1395 C1392 1.511 . S
C1395 H1409 0.961 . S
C1395 H1410 0.961 . S
C1395 H1411 0.961 . S
C1396 C1397 1.370 . S
C1396 C1398 1.363 . S
C1396 H1412 0.931 . S
C1397 C1396 1.370 . S
C1397 C1401 1.408 . S
C1398 C1396 1.363 . S
C1398 C1399 1.370 . S
C1398 C1402 1.524 . S
C1399 C1391 1.503 . S
C1399 C1398 1.370 . S
C1399 C1400 1.403 . S
C1400 C1399 1.403 . S
C1400 C1401 1.404 . S
C1400 C1403 1.539 . S
C1401 C1397 1.408 . S
C1401 C1400 1.404 . S
C1401 H1413 0.930 . S
C1402 C1398 1.524 . S
C1402 H1414 0.961 1_455 S
C1402 H1415 0.961 1_556 S
C1402 H1416 0.961 1_556 S
C1403 C1400 1.539 . S
C1403 H1417 0.958 . S
C1403 H1418 0.961 . S
C1403 H1419 0.960 . S
H1404 C1388 0.931 . S
H1405 C1393 0.929 1_554 S
H1406 C1394 0.960 . S
H1407 C1394 0.962 . S
H1408 C1394 0.960 . S
H1409 C1395 0.961 . S
H1410 C1395 0.961 . S
H1411 C1395 0.961 . S
H1412 C1396 0.931 . S
H1413 C1401 0.930 . S
H1414 C1402 0.961 1_655 S
H1415 C1402 0.961 1_554 S
H1416 C1402 0.961 1_554 S
H1417 C1403 0.958 . S
H1418 C1403 0.961 . S
H1419 C1403 0.960 . S
C1420 C1421 1.391 . S
C1420 C1422 1.394 . S
C1420 H1436 0.931 . S
C1421 C1420 1.391 . S
C1421 C1425 1.376 . S
C1422 C1420 1.394 . S
C1422 C1423 1.369 . S
C1422 C1426 1.531 . S
C1423 C1422 1.369 . S
C1423 C1424 1.410 . S
C1423 C1431 1.503 . S
C1424 C1423 1.410 . S
C1424 C1425 1.392 . S
C1424 C1427 1.511 . S
C1425 C1421 1.376 . S
C1425 C1424 1.392 . S
C1425 H1437 0.929 . S
C1426 C1422 1.531 . S
C1426 H1438 0.960 . S
C1426 H1439 0.962 . S
C1426 H1440 0.960 . S
C1427 C1424 1.511 . S
C1427 H1441 0.961 . S
C1427 H1442 0.961 . S
C1427 H1443 0.961 . S
C1428 C1429 1.370 . S
C1428 C1430 1.363 . S
C1428 H1444 0.931 . S
C1429 C1428 1.370 . S
C1429 C1433 1.408 . S
C1430 C1428 1.363 . S
C1430 C1431 1.370 . S
C1430 C1434 1.524 . S
C1431 C1423 1.503 . S
C1431 C1430 1.370 . S
C1431 C1432 1.403 . S
C1432 C1431 1.403 . S
C1432 C1433 1.404 . S
C1432 C1435 1.539 . S
C1433 C1429 1.408 . S
C1433 C1432 1.404 . S
C1433 H1445 0.930 . S
C1434 C1430 1.524 . S
C1434 H1446 0.956 . S
C1434 H1447 0.961 . S
C1434 H1448 0.961 . S
C1435 C1432 1.539 . S
C1435 H1449 0.958 . S
C1435 H1450 0.961 . S
C1435 H1451 0.960 . S
H1436 C1420 0.931 . S
H1437 C1425 0.929 . S
H1438 C1426 0.960 . S
H1439 C1426 0.962 . S
H1440 C1426 0.960 . S
H1441 C1427 0.961 . S
H1442 C1427 0.961 . S
H1443 C1427 0.961 . S
H1444 C1428 0.931 . S
H1445 C1433 0.930 . S
H1446 C1434 0.956 . S
H1447 C1434 0.961 . S
H1448 C1434 0.961 . S
H1449 C1435 0.958 . S
H1450 C1435 0.961 . S
H1451 C1435 0.960 . S
C1452 C1453 1.391 1_556 S
C1452 C1454 1.394 . S
C1452 H1468 0.931 . S
C1453 C1452 1.391 1_554 S
C1453 C1457 1.376 . S
C1454 C1452 1.394 . S
C1454 C1455 1.369 . S
C1454 C1458 1.531 . S
C1455 C1454 1.369 . S
C1455 C1456 1.410 . S
C1455 C1463 1.503 . S
C1456 C1455 1.410 . S
C1456 C1457 1.392 1_556 S
C1456 C1459 1.511 . S
C1457 C1453 1.376 . S
C1457 C1456 1.392 1_554 S
C1457 H1469 0.929 . S
C1458 C1454 1.531 . S
C1458 H1470 0.960 . S
C1458 H1471 0.962 . S
C1458 H1472 0.960 . S
C1459 C1456 1.511 . S
C1459 H1473 0.961 1_456 S
C1459 H1474 0.961 . S
C1459 H1475 0.961 1_455 S
C1460 C1461 1.370 . S
C1460 C1462 1.363 . S
C1460 H1476 0.931 . S
C1461 C1460 1.370 . S
C1461 C1465 1.408 . S
C1462 C1460 1.363 . S
C1462 C1463 1.370 . S
C1462 C1466 1.524 . S
C1463 C1455 1.503 . S
C1463 C1462 1.370 . S
C1463 C1464 1.403 . S
C1464 C1463 1.403 . S
C1464 C1465 1.404 . S
C1464 C1467 1.539 . S
C1465 C1461 1.408 . S
C1465 C1464 1.404 . S
C1465 H1477 0.930 . S
C1466 C1462 1.524 . S
C1466 H1478 0.956 . S
C1466 H1479 0.961 1_556 S
C1466 H1480 0.961 . S
C1467 C1464 1.539 . S
C1467 H1481 0.958 . S
C1467 H1482 0.993 . S
C1467 H1483 0.960 . S
H1468 C1452 0.931 . S
H1469 C1457 0.929 . S
H1470 C1458 0.960 . S
H1471 C1458 0.962 . S
H1472 C1458 0.960 . S
H1473 C1459 0.961 1_654 S
H1474 C1459 0.961 . S
H1475 C1459 0.961 1_655 S
H1476 C1460 0.931 . S
H1477 C1465 0.930 . S
H1478 C1466 0.956 . S
H1479 C1466 0.961 1_554 S
H1480 C1466 0.961 . S
H1481 C1467 0.958 . S
H1482 C1467 0.993 . S
H1483 C1467 0.960 . S
C1484 C1485 1.391 . S
C1484 C1486 1.394 . S
C1484 H1500 0.931 . S
C1485 C1484 1.391 . S
C1485 C1489 1.376 . S
C1486 C1484 1.394 . S
C1486 C1487 1.369 . S
C1486 C1490 1.531 . S
C1487 C1486 1.369 . S
C1487 C1488 1.410 . S
C1487 C1495 1.503 . S
C1488 C1487 1.410 . S
C1488 C1489 1.392 . S
C1488 C1491 1.511 . S
C1489 C1485 1.376 . S
C1489 C1488 1.392 . S
C1489 H1501 0.929 . S
C1490 C1486 1.531 . S
C1490 H1502 0.960 . S
C1490 H1503 0.962 . S
C1490 H1504 0.960 . S
C1491 C1488 1.511 . S
C1491 H1505 0.961 . S
C1491 H1506 0.961 . S
C1491 H1507 0.961 . S
C1492 C1493 1.370 . S
C1492 C1494 1.363 . S
C1492 H1508 0.931 . S
C1493 C1492 1.370 . S
C1493 C1497 1.408 . S
C1494 C1492 1.363 . S
C1494 C1495 1.370 . S
C1494 C1498 1.524 . S
C1495 C1487 1.503 . S
C1495 C1494 1.370 . S
C1495 C1496 1.403 . S
C1496 C1495 1.403 . S
C1496 C1497 1.404 . S
C1496 C1499 1.539 . S
C1497 C1493 1.408 . S
C1497 C1496 1.404 . S
C1497 H1509 0.930 . S
C1498 C1494 1.524 . S
C1498 H1510 0.956 . S
C1498 H1511 0.961 . S
C1498 H1512 0.961 . S
C1499 C1496 1.539 . S
C1499 H1513 0.958 . S
C1499 H1514 0.961 . S
C1499 H1515 0.960 . S
H1500 C1484 0.931 . S
H1501 C1489 0.929 . S
H1502 C1490 0.960 . S
H1503 C1490 0.962 . S
H1504 C1490 0.960 . S
H1505 C1491 0.961 . S
H1506 C1491 0.961 . S
H1507 C1491 0.961 . S
H1508 C1492 0.931 . S
H1509 C1497 0.930 . S
H1510 C1498 0.956 . S
H1511 C1498 0.961 . S
H1512 C1498 0.961 . S
H1513 C1499 0.958 . S
H1514 C1499 0.961 . S
H1515 C1499 0.960 . S
C1516 C1517 1.391 . S
C1516 C1518 1.394 . S
C1516 H1532 0.931 . S
C1517 C1516 1.391 . S
C1517 C1521 1.376 . S
C1518 C1516 1.394 . S
C1518 C1519 1.369 . S
C1518 C1522 1.531 . S
C1519 C1518 1.369 . S
C1519 C1520 1.410 . S
C1519 C1527 1.503 . S
C1520 C1519 1.410 . S
C1520 C1521 1.392 . S
C1520 C1523 1.511 . S
C1521 C1517 1.376 . S
C1521 C1520 1.392 . S
C1521 H1533 0.929 . S
C1522 C1518 1.531 . S
C1522 H1534 0.960 . S
C1522 H1535 0.962 . S
C1522 H1536 0.960 . S
C1523 C1520 1.511 . S
C1523 H1537 0.961 . S
C1523 H1538 0.961 . S
C1523 H1539 0.961 . S
C1524 C1525 1.370 . S
C1524 C1526 1.363 . S
C1524 H1540 0.931 . S
C1525 C1524 1.370 . S
C1525 C1529 1.408 . S
C1526 C1524 1.363 . S
C1526 C1527 1.370 . S
C1526 C1530 1.524 . S
C1527 C1519 1.503 . S
C1527 C1526 1.370 . S
C1527 C1528 1.403 . S
C1528 C1527 1.403 . S
C1528 C1529 1.404 . S
C1528 C1531 1.539 . S
C1529 C1525 1.408 . S
C1529 C1528 1.404 . S
C1529 H1541 0.930 . S
C1530 C1526 1.524 . S
C1530 H1542 0.956 . S
C1530 H1543 0.961 . S
C1530 H1544 0.961 . S
C1531 C1528 1.539 . S
C1531 H1545 0.958 . S
C1531 H1546 0.961 . S
C1531 H1547 0.960 . S
H1532 C1516 0.931 . S
H1533 C1521 0.929 . S
H1534 C1522 0.960 . S
H1535 C1522 0.962 . S
H1536 C1522 0.960 . S
H1537 C1523 0.961 . S
H1538 C1523 0.961 . S
H1539 C1523 0.961 . S
H1540 C1524 0.931 . S
H1541 C1529 0.930 . S
H1542 C1530 0.956 . S
H1543 C1530 0.961 . S
H1544 C1530 0.961 . S
H1545 C1531 0.958 . S
H1546 C1531 0.961 . S
H1547 C1531 0.960 . S
C1548 C1549 1.391 . S
C1548 C1550 1.394 . S
C1548 H1564 0.931 . S
C1549 C1548 1.391 . S
C1549 C1553 1.376 . S
C1550 C1548 1.394 . S
C1550 C1551 1.369 . S
C1550 C1554 1.531 . S
C1551 C1550 1.369 . S
C1551 C1552 1.410 . S
C1551 C1559 1.503 . S
C1552 C1551 1.410 . S
C1552 C1553 1.392 . S
C1552 C1555 1.511 . S
C1553 C1549 1.376 . S
C1553 C1552 1.392 . S
C1553 H1565 0.929 . S
C1554 C1550 1.531 . S
C1554 H1566 0.960 . S
C1554 H1567 0.962 . S
C1554 H1568 0.960 . S
C1555 C1552 1.511 . S
C1555 H1569 0.961 . S
C1555 H1570 0.961 . S
C1555 H1571 0.961 . S
C1556 C1557 1.370 . S
C1556 C1558 1.363 . S
C1556 H1572 0.931 . S
C1557 C1556 1.370 . S
C1557 C1561 1.408 . S
C1558 C1556 1.363 . S
C1558 C1559 1.370 . S
C1558 C1562 1.524 . S
C1559 C1551 1.503 . S
C1559 C1558 1.370 . S
C1559 C1560 1.403 . S
C1560 C1559 1.403 . S
C1560 C1561 1.404 . S
C1560 C1563 1.539 . S
C1561 C1557 1.408 . S
C1561 C1560 1.404 . S
C1561 H1573 0.930 . S
C1562 C1558 1.524 . S
C1562 H1574 0.956 . S
C1562 H1575 0.961 . S
C1562 H1576 0.961 . S
C1563 C1560 1.539 . S
C1563 H1577 0.958 . S
C1563 H1578 0.961 . S
C1563 H1579 0.960 . S
H1564 C1548 0.931 . S
H1565 C1553 0.929 . S
H1566 C1554 0.960 . S
H1567 C1554 0.962 . S
H1568 C1554 0.960 . S
H1569 C1555 0.961 . S
H1570 C1555 0.961 . S
H1571 C1555 0.961 . S
H1572 C1556 0.931 . S
H1573 C1561 0.930 . S
H1574 C1562 0.956 . S
H1575 C1562 0.961 . S
H1576 C1562 0.961 . S
H1577 C1563 0.958 . S
H1578 C1563 0.961 . S
H1579 C1563 0.960 . S
C1580 C1581 1.391 . S
C1580 C1582 1.394 . S
C1580 H1596 0.931 . S
C1581 C1580 1.391 . S
C1581 C1585 1.376 . S
C1582 C1580 1.394 . S
C1582 C1583 1.369 . S
C1582 C1586 1.531 . S
C1583 C1582 1.369 . S
C1583 C1584 1.410 . S
C1583 C1591 1.503 . S
C1584 C1583 1.410 . S
C1584 C1585 1.392 . S
C1584 C1587 1.511 . S
C1585 C1581 1.376 . S
C1585 C1584 1.392 . S
C1585 H1597 0.929 . S
C1586 C1582 1.531 . S
C1586 H1598 0.960 . S
C1586 H1599 0.962 . S
C1586 H1600 0.960 . S
C1587 C1584 1.511 . S
C1587 H1601 0.961 . S
C1587 H1602 0.961 . S
C1587 H1603 0.961 . S
C1588 C1589 1.370 . S
C1588 C1590 1.363 . S
C1588 H1604 0.931 . S
C1589 C1588 1.370 . S
C1589 C1593 1.408 . S
C1590 C1588 1.363 . S
C1590 C1591 1.370 . S
C1590 C1594 1.524 . S
C1591 C1583 1.503 . S
C1591 C1590 1.370 . S
C1591 C1592 1.403 . S
C1592 C1591 1.403 . S
C1592 C1593 1.404 . S
C1592 C1595 1.539 . S
C1593 C1589 1.408 . S
C1593 C1592 1.404 . S
C1593 H1605 0.930 . S
C1594 C1590 1.524 . S
C1594 H1606 0.956 . S
C1594 H1607 0.961 . S
C1594 H1608 0.961 . S
C1595 C1592 1.539 . S
C1595 H1609 0.958 . S
C1595 H1610 0.961 . S
C1595 H1611 0.960 . S
H1596 C1580 0.931 . S
H1597 C1585 0.929 . S
H1598 C1586 0.960 . S
H1599 C1586 0.962 . S
H1600 C1586 0.960 . S
H1601 C1587 0.961 . S
H1602 C1587 0.961 . S
H1603 C1587 0.961 . S
H1604 C1588 0.931 . S
H1605 C1593 0.930 . S
H1606 C1594 0.956 . S
H1607 C1594 0.961 . S
H1608 C1594 0.961 . S
H1609 C1595 0.958 . S
H1610 C1595 0.961 . S
H1611 C1595 0.960 . S
C1612 C1613 1.391 . S
C1612 C1614 1.394 . S
C1612 H1628 0.931 . S
C1613 C1612 1.391 . S
C1613 C1617 1.376 . S
C1614 C1612 1.394 . S
C1614 C1615 1.369 . S
C1614 C1618 1.531 . S
C1615 C1614 1.369 . S
C1615 C1616 1.410 . S
C1615 C1623 1.503 . S
C1616 C1615 1.410 . S
C1616 C1617 1.392 . S
C1616 C1619 1.511 . S
C1617 C1613 1.376 . S
C1617 C1616 1.392 . S
C1617 H1629 0.929 . S
C1618 C1614 1.531 . S
C1618 H1630 0.960 . S
C1618 H1631 0.962 . S
C1618 H1632 0.960 . S
C1619 C1616 1.511 . S
C1619 H1633 0.961 . S
C1619 H1634 0.961 . S
C1619 H1635 0.961 . S
C1620 C1621 1.370 . S
C1620 C1622 1.363 . S
C1620 H1636 0.931 . S
C1621 C1620 1.370 . S
C1621 C1625 1.408 . S
C1622 C1620 1.363 . S
C1622 C1623 1.370 . S
C1622 C1626 1.524 . S
C1623 C1615 1.503 . S
C1623 C1622 1.370 . S
C1623 C1624 1.403 . S
C1624 C1623 1.403 . S
C1624 C1625 1.404 . S
C1624 C1627 1.539 . S
C1625 C1621 1.408 . S
C1625 C1624 1.404 . S
C1625 H1637 0.930 . S
C1626 C1622 1.524 . S
C1626 H1638 0.956 . S
C1626 H1639 0.961 . S
C1626 H1640 0.961 . S
C1627 C1624 1.539 . S
C1627 H1641 0.958 . S
C1627 H1642 0.961 . S
C1627 H1643 0.960 . S
H1628 C1612 0.931 . S
H1629 C1617 0.929 . S
H1630 C1618 0.960 . S
H1631 C1618 0.962 . S
H1632 C1618 0.960 . S
H1633 C1619 0.961 . S
H1634 C1619 0.961 . S
H1635 C1619 0.961 . S
H1636 C1620 0.931 . S
H1637 C1625 0.930 . S
H1638 C1626 0.956 . S
H1639 C1626 0.961 . S
H1640 C1626 0.961 . S
H1641 C1627 0.958 . S
H1642 C1627 0.961 . S
H1643 C1627 0.960 . S
C1644 C1645 1.391 . S
C1644 C1646 1.394 . S
C1644 H1660 0.931 . S
C1645 C1644 1.391 . S
C1645 C1649 1.376 . S
C1646 C1644 1.394 . S
C1646 C1647 1.369 . S
C1646 C1650 1.531 . S
C1647 C1646 1.369 . S
C1647 C1648 1.410 . S
C1647 C1655 1.503 . S
C1648 C1647 1.410 . S
C1648 C1649 1.392 . S
C1648 C1651 1.511 . S
C1649 C1645 1.376 . S
C1649 C1648 1.392 . S
C1649 H1661 0.929 . S
C1650 C1646 1.531 . S
C1650 H1662 0.960 . S
C1650 H1663 0.962 . S
C1650 H1664 0.960 . S
C1651 C1648 1.511 . S
C1651 H1665 0.961 . S
C1651 H1666 0.961 . S
C1651 H1667 0.961 . S
C1652 C1653 1.370 . S
C1652 C1654 1.363 . S
C1652 H1668 0.931 . S
C1653 C1652 1.370 . S
C1653 C1657 1.408 . S
C1654 C1652 1.363 . S
C1654 C1655 1.370 . S
C1654 C1658 1.524 . S
C1655 C1647 1.503 . S
C1655 C1654 1.370 . S
C1655 C1656 1.403 . S
C1656 C1655 1.403 . S
C1656 C1657 1.404 . S
C1656 C1659 1.539 . S
C1657 C1653 1.408 . S
C1657 C1656 1.404 . S
C1657 H1669 0.930 . S
C1658 C1654 1.524 . S
C1658 H1670 0.956 . S
C1658 H1671 0.961 . S
C1658 H1672 0.961 . S
C1659 C1656 1.539 . S
C1659 H1673 0.958 . S
C1659 H1674 0.961 . S
C1659 H1675 0.960 . S
H1660 C1644 0.931 . S
H1661 C1649 0.929 . S
H1662 C1650 0.960 . S
H1663 C1650 0.962 . S
H1664 C1650 0.960 . S
H1665 C1651 0.961 . S
H1666 C1651 0.961 . S
H1667 C1651 0.961 . S
H1668 C1652 0.931 . S
H1669 C1657 0.930 . S
H1670 C1658 0.956 . S
H1671 C1658 0.961 . S
H1672 C1658 0.961 . S
H1673 C1659 0.958 . S
H1674 C1659 0.961 . S
H1675 C1659 0.960 . S
C1676 C1677 1.391 . S
C1676 C1678 1.394 . S
C1676 H1692 0.931 . S
C1677 C1676 1.391 . S
C1677 C1681 1.376 . S
C1678 C1676 1.394 . S
C1678 C1679 1.369 . S
C1678 C1682 1.531 . S
C1679 C1678 1.369 . S
C1679 C1680 1.410 . S
C1679 C1687 1.503 . S
C1680 C1679 1.410 . S
C1680 C1681 1.392 . S
C1680 C1683 1.511 . S
C1681 C1677 1.376 . S
C1681 C1680 1.392 . S
C1681 H1693 0.929 . S
C1682 C1678 1.531 . S
C1682 H1694 0.960 . S
C1682 H1695 0.962 . S
C1682 H1696 0.960 . S
C1683 C1680 1.511 . S
C1683 H1697 0.961 . S
C1683 H1698 0.961 . S
C1683 H1699 0.961 . S
C1684 C1685 1.370 . S
C1684 C1686 1.363 . S
C1684 H1700 0.931 . S
C1685 C1684 1.370 . S
C1685 C1689 1.408 . S
C1686 C1684 1.363 . S
C1686 C1687 1.370 . S
C1686 C1690 1.524 . S
C1687 C1679 1.503 . S
C1687 C1686 1.370 . S
C1687 C1688 1.403 . S
C1688 C1687 1.403 . S
C1688 C1689 1.404 . S
C1688 C1691 1.539 . S
C1689 C1685 1.408 . S
C1689 C1688 1.404 . S
C1689 H1701 0.930 . S
C1690 C1686 1.524 . S
C1690 H1702 0.956 . S
C1690 H1703 0.961 . S
C1690 H1704 0.961 . S
C1691 C1688 1.539 . S
C1691 H1705 0.958 . S
C1691 H1706 0.961 . S
C1691 H1707 0.960 . S
H1692 C1676 0.931 . S
H1693 C1681 0.929 . S
H1694 C1682 0.960 . S
H1695 C1682 0.962 . S
H1696 C1682 0.960 . S
H1697 C1683 0.961 . S
H1698 C1683 0.961 . S
H1699 C1683 0.961 . S
H1700 C1684 0.931 . S
H1701 C1689 0.930 . S
H1702 C1690 0.956 . S
H1703 C1690 0.961 . S
H1704 C1690 0.961 . S
H1705 C1691 0.958 . S
H1706 C1691 0.961 . S
H1707 C1691 0.960 . S
C1708 C1709 1.391 . S
C1708 C1710 1.394 . S
C1708 H1724 0.931 . S
C1709 C1708 1.391 . S
C1709 C1713 1.376 . S
C1710 C1708 1.394 . S
C1710 C1711 1.369 . S
C1710 C1714 1.531 . S
C1711 C1710 1.369 . S
C1711 C1712 1.410 . S
C1711 C1719 1.503 . S
C1712 C1711 1.410 . S
C1712 C1713 1.392 . S
C1712 C1715 1.511 . S
C1713 C1709 1.376 . S
C1713 C1712 1.392 . S
C1713 H1725 0.929 . S
C1714 C1710 1.531 . S
C1714 H1726 0.960 . S
C1714 H1727 0.962 . S
C1714 H1728 0.960 . S
C1715 C1712 1.511 . S
C1715 H1729 0.961 . S
C1715 H1730 0.961 . S
C1715 H1731 0.961 . S
C1716 C1717 1.370 . S
C1716 C1718 1.363 . S
C1716 H1732 0.931 . S
C1717 C1716 1.370 . S
C1717 C1721 1.408 . S
C1718 C1716 1.363 . S
C1718 C1719 1.370 . S
C1718 C1722 1.524 . S
C1719 C1711 1.503 . S
C1719 C1718 1.370 . S
C1719 C1720 1.403 . S
C1720 C1719 1.403 . S
C1720 C1721 1.404 . S
C1720 C1723 1.539 . S
C1721 C1717 1.408 . S
C1721 C1720 1.404 . S
C1721 H1733 0.930 . S
C1722 C1718 1.524 . S
C1722 H1734 0.956 . S
C1722 H1735 0.961 . S
C1722 H1736 0.961 . S
C1723 C1720 1.539 . S
C1723 H1737 0.958 . S
C1723 H1738 0.961 . S
C1723 H1739 0.960 . S
H1724 C1708 0.931 . S
H1725 C1713 0.929 . S
H1726 C1714 0.960 . S
H1727 C1714 0.962 . S
H1728 C1714 0.960 . S
H1729 C1715 0.961 . S
H1730 C1715 0.961 . S
H1731 C1715 0.961 . S
H1732 C1716 0.931 . S
H1733 C1721 0.930 . S
H1734 C1722 0.956 . S
H1735 C1722 0.961 . S
H1736 C1722 0.961 . S
H1737 C1723 0.958 . S
H1738 C1723 0.961 . S
H1739 C1723 0.960 . S
C1740 C1741 1.391 . S
C1740 C1742 1.394 . S
C1740 H1756 0.931 . S
C1741 C1740 1.391 . S
C1741 C1745 1.375 1_556 S
C1742 C1740 1.394 . S
C1742 C1743 1.369 . S
C1742 C1746 1.531 . S
C1743 C1742 1.369 . S
C1743 C1744 1.424 . S
C1743 C1751 1.503 . S
C1744 C1743 1.424 . S
C1744 C1745 1.387 1_556 S
C1744 C1747 1.502 1_556 S
C1745 C1741 1.375 1_554 S
C1745 C1744 1.387 1_554 S
C1745 H1757 0.930 . S
C1746 C1742 1.531 . S
C1746 H1758 0.960 . S
C1746 H1759 0.962 . S
C1746 H1760 0.960 . S
C1747 C1744 1.502 1_554 S
C1747 H1761 0.961 . S
C1747 H1762 0.961 . S
C1747 H1763 0.961 . S
C1748 C1749 1.370 1_554 S
C1748 C1750 1.363 . S
C1748 H1764 0.931 . S
C1749 C1748 1.370 1_556 S
C1749 C1753 1.408 . S
C1750 C1748 1.363 . S
C1750 C1751 1.370 1_554 S
C1750 C1754 1.524 . S
C1751 C1743 1.503 . S
C1751 C1750 1.370 1_556 S
C1751 C1752 1.403 . S
C1752 C1751 1.403 . S
C1752 C1753 1.404 . S
C1752 C1755 1.539 . S
C1753 C1749 1.408 . S
C1753 C1752 1.404 . S
C1753 H1765 0.930 . S
C1754 C1750 1.524 . S
C1754 H1766 0.956 . S
C1754 H1767 0.961 . S
C1754 H1768 0.961 . S
C1755 C1752 1.539 . S
C1755 H1769 0.958 . S
C1755 H1770 0.961 . S
C1755 H1771 0.960 . S
H1756 C1740 0.931 . S
H1757 C1745 0.930 . S
H1758 C1746 0.960 . S
H1759 C1746 0.962 . S
H1760 C1746 0.960 . S
H1761 C1747 0.961 . S
H1762 C1747 0.961 . S
H1763 C1747 0.961 . S
H1764 C1748 0.931 . S
H1765 C1753 0.930 . S
H1766 C1754 0.956 . S
H1767 C1754 0.961 . S
H1768 C1754 0.961 . S
H1769 C1755 0.958 . S
H1770 C1755 0.961 . S
H1771 C1755 0.960 . S
C1772 C1773 1.391 . S
C1772 C1774 1.394 . S
C1772 H1788 0.931 . S
C1773 C1772 1.391 . S
C1773 C1777 1.376 . S
C1774 C1772 1.394 . S
C1774 C1775 1.369 . S
C1774 C1778 1.531 . S
C1775 C1774 1.369 . S
C1775 C1776 1.410 . S
C1775 C1783 1.503 . S
C1776 C1775 1.410 . S
C1776 C1777 1.392 . S
C1776 C1779 1.511 . S
C1777 C1773 1.376 . S
C1777 C1776 1.392 . S
C1777 H1789 0.929 . S
C1778 C1774 1.531 . S
C1778 H1790 0.960 . S
C1778 H1791 0.962 . S
C1778 H1792 0.960 . S
C1779 C1776 1.511 . S
C1779 H1793 0.961 . S
C1779 H1794 0.961 . S
C1779 H1795 0.961 . S
C1780 C1781 1.370 . S
C1780 C1782 1.363 . S
C1780 H1796 0.931 . S
C1781 C1780 1.370 . S
C1781 C1785 1.408 . S
C1782 C1780 1.363 . S
C1782 C1783 1.370 . S
C1782 C1786 1.524 . S
C1783 C1775 1.503 . S
C1783 C1782 1.370 . S
C1783 C1784 1.403 . S
C1784 C1783 1.403 . S
C1784 C1785 1.404 . S
C1784 C1787 1.539 . S
C1785 C1781 1.408 . S
C1785 C1784 1.404 . S
C1785 H1797 0.930 . S
C1786 C1782 1.524 . S
C1786 H1798 0.956 . S
C1786 H1799 0.961 . S
C1786 H1800 0.961 . S
C1787 C1784 1.539 . S
C1787 H1801 0.958 . S
C1787 H1802 0.961 . S
C1787 H1803 0.960 . S
H1788 C1772 0.931 . S
H1789 C1777 0.929 . S
H1790 C1778 0.960 . S
H1791 C1778 0.962 . S
H1792 C1778 0.960 . S
H1793 C1779 0.961 . S
H1794 C1779 0.961 . S
H1795 C1779 0.961 . S
H1796 C1780 0.931 . S
H1797 C1785 0.930 . S
H1798 C1786 0.956 . S
H1799 C1786 0.961 . S
H1800 C1786 0.961 . S
H1801 C1787 0.958 . S
H1802 C1787 0.961 . S
H1803 C1787 0.960 . S
C1804 C1805 1.391 . S
C1804 C1806 1.389 1_554 S
C1804 H1820 0.931 1_554 S
C1805 C1804 1.391 . S
C1805 C1809 1.376 . S
C1806 C1804 1.389 1_556 S
C1806 C1807 1.358 1_556 S
C1806 C1810 1.547 . S
C1807 C1806 1.358 1_554 S
C1807 C1808 1.410 . S
C1807 C1815 1.503 . S
C1808 C1807 1.410 . S
C1808 C1809 1.392 . S
C1808 C1811 1.511 . S
C1809 C1805 1.376 . S
C1809 C1808 1.392 . S
C1809 H1821 0.929 . S
C1810 C1806 1.547 . S
C1810 H1822 0.960 . S
C1810 H1823 0.962 . S
C1810 H1824 0.960 . S
C1811 C1808 1.511 . S
C1811 H1825 0.961 . S
C1811 H1826 0.961 . S
C1811 H1827 0.961 . S
C1812 C1813 1.370 . S
C1812 C1814 1.363 . S
C1812 H1828 0.931 . S
C1813 C1812 1.370 . S
C1813 C1817 1.408 1_554 S
C1814 C1812 1.363 . S
C1814 C1815 1.370 . S
C1814 C1818 1.524 . S
C1815 C1807 1.503 . S
C1815 C1814 1.370 . S
C1815 C1816 1.403 . S
C1816 C1815 1.403 . S
C1816 C1817 1.404 1_554 S
C1816 C1819 1.539 1_554 S
C1817 C1813 1.408 1_556 S
C1817 C1816 1.404 1_556 S
C1817 H1829 0.930 . S
C1818 C1814 1.524 . S
C1818 H1830 0.956 . S
C1818 H1831 0.961 . S
C1818 H1832 0.961 . S
C1819 C1816 1.539 1_556 S
C1819 H1833 0.958 . S
C1819 H1834 0.961 . S
C1819 H1835 0.960 1_556 S
H1820 C1804 0.931 1_556 S
H1821 C1809 0.929 . S
H1822 C1810 0.960 . S
H1823 C1810 0.962 . S
H1824 C1810 0.960 . S
H1825 C1811 0.961 . S
H1826 C1811 0.961 . S
H1827 C1811 0.961 . S
H1828 C1812 0.931 . S
H1829 C1817 0.930 . S
H1830 C1818 0.956 . S
H1831 C1818 0.961 . S
H1832 C1818 0.961 . S
H1833 C1819 0.958 . S
H1834 C1819 0.961 . S
H1835 C1819 0.960 1_554 S
C1836 C1837 1.391 . S
C1836 C1838 1.394 1_545 S
C1836 H1852 0.931 1_545 S
C1837 C1836 1.391 . S
C1837 C1841 1.376 . S
C1838 C1836 1.394 1_565 S
C1838 C1839 1.373 . S
C1838 C1842 1.531 . S
C1839 C1838 1.373 . S
C1839 C1840 1.384 1_565 S
C1839 C1847 1.528 . S
C1840 C1839 1.384 1_545 S
C1840 C1841 1.392 . S
C1840 C1843 1.511 . S
C1841 C1837 1.376 . S
C1841 C1840 1.392 . S
C1841 H1853 0.929 . S
C1842 C1838 1.531 . S
C1842 H1854 0.960 . S
C1842 H1855 0.962 . S
C1842 H1856 0.960 . S
C1843 C1840 1.511 . S
C1843 H1857 0.961 . S
C1843 H1858 0.961 . S
C1843 H1859 0.961 . S
C1844 C1845 1.370 . S
C1844 C1846 1.363 . S
C1844 H1860 0.931 . S
C1845 C1844 1.370 . S
C1845 C1849 1.408 . S
C1846 C1844 1.363 . S
C1846 C1847 1.370 . S
C1846 C1850 1.524 . S
C1847 C1839 1.528 . S
C1847 C1846 1.370 . S
C1847 C1848 1.403 . S
C1848 C1847 1.403 . S
C1848 C1849 1.404 . S
C1848 C1851 1.539 1_565 S
C1849 C1845 1.408 . S
C1849 C1848 1.404 . S
C1849 H1861 0.930 . S
C1850 C1846 1.524 . S
C1850 H1862 0.956 . S
C1850 H1863 0.961 . S
C1850 H1864 0.961 . S
C1851 C1848 1.539 1_545 S
C1851 H1865 0.963 . S
C1851 H1866 0.961 . S
C1851 H1867 0.960 . S
H1852 C1836 0.931 1_565 S
H1853 C1841 0.929 . S
H1854 C1842 0.960 . S
H1855 C1842 0.962 . S
H1856 C1842 0.960 . S
H1857 C1843 0.961 . S
H1858 C1843 0.961 . S
H1859 C1843 0.961 . S
H1860 C1844 0.931 . S
H1861 C1849 0.930 . S
H1862 C1850 0.956 . S
H1863 C1850 0.961 . S
H1864 C1850 0.961 . S
H1865 C1851 0.963 . S
H1866 C1851 0.961 . S
H1867 C1851 0.960 . S
C341 C186 1.513 1_556 S
C333 C60 1.524 . S
C373 C199 1.408 . S
C365 C76 1.411 . S
C397 C81 1.621 . S
C405 C212 1.599 . S
C437 C225 1.575 . S
C429 C48 1.612 . S
C469 C233 1.465 . S
C461 C115 1.491 . S
C501 C246 1.541 . S
C493 C136 1.547 . S
C525 C131 1.390 . S
C533 C259 1.353 . S
C565 C272 1.479 . S
C557 C104 1.516 . S
C589 C126 1.447 . S
C597 C290 1.429 . S
C629 C301 1.425 . S
C621 C103 1.451 . S
C653 C120 1.384 . S
C661 C285 1.344 . S
C693 C293 1.415 . S
C685 C142 1.430 . S
C717 C82 1.480 . S
C725 C316 1.472 . S
C749 C54 1.765 . S
C757 C306 1.752 . S
C781 C65 1.445 . S
C789 C311 1.440 . S
C813 C71 1.326 . S
C821 C314 1.337 . S
C845 C37 1.514 . S
C853 C223 1.511 . S
C877 C158 1.868 . S
C885 C215 1.877 . S
C917 C184 1.452 . S
C909 C169 1.468 . S
C949 C189 1.229 . S
C941 C98 1.281 . S
C973 C49 1.746 1_545 S
C981 C236 1.703 . S
C1013 C275 1.449 . S
C1005 C125 1.474 . S
C1045 C228 1.391 . S
C1037 C109 1.387 . S
C1077 C254 1.707 . S
C1069 C137 1.732 . S
C1109 C264 1.513 . S
C1101 C159 1.524 . S
C1133 C175 1.415 . S
C1141 C277 1.411 . S
C1165 C92 1.616 . S
C1173 C238 1.602 . S
C1205 C251 1.590 . S
C1197 C147 1.603 . S
C1229 C38 1.486 . S
C1237 C207 1.465 . S
C1269 C220 1.540 . S
C1261 C4 1.547 . S
C1301 C181 1.351 . S
C1293 C21 1.391 . S
C1333 C194 1.495 . S
C1325 C27 1.495 . S
C1357 C16 1.443 . S
C1365 C303 1.431 . S
C1389 C26 1.446 1_455 S
C1397 C288 1.404 . S
C1421 C43 1.369 . S
C1429 C298 1.361 . S
C1453 C10 1.428 . S
C1461 C280 1.414 . S
C1493 C329 1.462 . S
C1485 C93 1.472 . S
C1525 C319 1.752 . S
C1517 C153 1.764 . S
C1557 C324 1.439 . S
C1549 C164 1.448 . S
C1581 C170 1.320 1_554 S
C1589 C327 1.307 . S
C1613 C114 1.529 . S
C1621 C249 1.515 . S
C1653 C241 1.879 . S
C1645 C59 1.871 . S
C1685 C262 1.444 . S
C1677 C70 1.465 . S
C1717 C267 1.229 . S
C1709 C87 1.275 . S
C1741 C148 1.720 . S
C1749 C210 1.706 . S
C1781 C197 1.447 . S
C1773 C15 1.479 . S
C1805 C32 1.394 . S
C1813 C202 1.383 1_554 S
C1845 C176 1.700 . S
C1837 C5 1.751 . S
