# Generated by pormake.
# Topology zzz, (3,6)-cn, num edge types: 1
# Building blocks:
#     Node 0, Type 0, BuildingBlock: QEWDON_clean_linker_0, # of connection points: 3
#     Node 1, Type 0, BuildingBlock: QEWDON_clean_linker_0, # of connection points: 3
#     Node 2, Type 0, BuildingBlock: QEWDON_clean_linker_0, # of connection points: 3
#     Node 3, Type 0, BuildingBlock: QEWDON_clean_linker_0, # of connection points: 3
#     Node 4, Type 0, BuildingBlock: QEWDON_clean_linker_0, # of connection points: 3
#     Node 5, Type 0, BuildingBlock: QEWDON_clean_linker_0, # of connection points: 3
#     Node 6, Type 0, BuildingBlock: QEWDON_clean_linker_0, # of connection points: 3
#     Node 7, Type 0, BuildingBlock: QEWDON_clean_linker_0, # of connection points: 3
#     Node 8, Type 1, BuildingBlock: INOVEN_clean_sbu_0, # of connection points: 6
#     Node 9, Type 1, BuildingBlock: INOVEN_clean_sbu_0, # of connection points: 6
#     Node 10, Type 1, BuildingBlock: INOVEN_clean_sbu_0, # of connection points: 6
#     Node 11, Type 1, BuildingBlock: INOVEN_clean_sbu_0, # of connection points: 6
#     Edge 12, Type (0, 1), BuildingBlock: OJICUG_clean_linker_0, # of connection points: 2
#     Edge 13, Type (0, 1), BuildingBlock: OJICUG_clean_linker_0, # of connection points: 2
#     Edge 14, Type (0, 1), BuildingBlock: OJICUG_clean_linker_0, # of connection points: 2
#     Edge 15, Type (0, 1), BuildingBlock: OJICUG_clean_linker_0, # of connection points: 2
#     Edge 16, Type (0, 1), BuildingBlock: OJICUG_clean_linker_0, # of connection points: 2
#     Edge 17, Type (0, 1), BuildingBlock: OJICUG_clean_linker_0, # of connection points: 2
#     Edge 18, Type (0, 1), BuildingBlock: OJICUG_clean_linker_0, # of connection points: 2
#     Edge 19, Type (0, 1), BuildingBlock: OJICUG_clean_linker_0, # of connection points: 2
#     Edge 20, Type (0, 1), BuildingBlock: OJICUG_clean_linker_0, # of connection points: 2
#     Edge 21, Type (0, 1), BuildingBlock: OJICUG_clean_linker_0, # of connection points: 2
#     Edge 22, Type (0, 1), BuildingBlock: OJICUG_clean_linker_0, # of connection points: 2
#     Edge 23, Type (0, 1), BuildingBlock: OJICUG_clean_linker_0, # of connection points: 2
#     Edge 24, Type (0, 1), BuildingBlock: OJICUG_clean_linker_0, # of connection points: 2
#     Edge 25, Type (0, 1), BuildingBlock: OJICUG_clean_linker_0, # of connection points: 2
#     Edge 26, Type (0, 1), BuildingBlock: OJICUG_clean_linker_0, # of connection points: 2
#     Edge 27, Type (0, 1), BuildingBlock: OJICUG_clean_linker_0, # of connection points: 2
#     Edge 28, Type (0, 1), BuildingBlock: OJICUG_clean_linker_0, # of connection points: 2
#     Edge 29, Type (0, 1), BuildingBlock: OJICUG_clean_linker_0, # of connection points: 2
#     Edge 30, Type (0, 1), BuildingBlock: OJICUG_clean_linker_0, # of connection points: 2
#     Edge 31, Type (0, 1), BuildingBlock: OJICUG_clean_linker_0, # of connection points: 2
#     Edge 32, Type (0, 1), BuildingBlock: OJICUG_clean_linker_0, # of connection points: 2
#     Edge 33, Type (0, 1), BuildingBlock: OJICUG_clean_linker_0, # of connection points: 2
#     Edge 34, Type (0, 1), BuildingBlock: OJICUG_clean_linker_0, # of connection points: 2
#     Edge 35, Type (0, 1), BuildingBlock: OJICUG_clean_linker_0, # of connection points: 2
# Relax obj value: 0.231
# Max RMSD: 0.186
# Mean RMSD: 0.121
data_MOF--net-zzz--node1-INOVEN_clean_sbu_0--node2-QEWDON_clean_linker_0--edge1-OJICUG_clean_linker_0
_symmetry_space_group_name_H-M    P1
_symmetry_Int_Tables_number       1
_symmetry_cell_setting            triclinic
loop_
_symmetry_equiv_pos_as_xyz
'x, y, z'
_cell_length_a     41.298686
_cell_length_b     41.296451
_cell_length_c     9.6079114
_cell_angle_alpha  90.006587
_cell_angle_beta   90.167283
_cell_angle_gamma 89.891387
loop_
_atom_site_label
_atom_site_type_symbol
_atom_site_fract_x
_atom_site_fract_y
_atom_site_fract_z
_atom_type_partial_charge
H0 H 0.75806 0.49436 0.28836 0.0
C1 C 0.77699 0.50518 0.35109 0.0
C2 C 0.8078 0.49119 0.34837 0.0
C3 C 0.77048 0.53203 0.43789 0.0
H4 H 0.85676 0.49331 0.42394 0.0
C5 C 0.83272 0.50399 0.42989 0.0
C6 C 0.82789 0.53059 0.51601 0.0
C7 C 0.79655 0.54488 0.52042 0.0
C8 C 0.73597 0.54429 0.44835 0.0
H9 H 0.79263 0.56565 0.58702 0.0
C10 C 0.71369 0.54242 0.33447 0.0
C11 C 0.68007 0.54961 0.35076 0.0
C12 C 0.72415 0.55504 0.57725 0.0
H13 H 0.73983 0.55631 0.66754 0.0
C14 C 0.6915 0.56274 0.59402 0.0
H15 H 0.72264 0.53541 0.23324 0.0
C16 C 0.6697 0.55969 0.4835 0.0
H17 H 0.64449 0.56465 0.50457 0.0
H18 H 0.68278 0.57033 0.69509 0.0
H19 H 1.01626 0.75886 0.24167 0.0
C20 C 1.01703 0.77639 0.325 0.0
C21 C 1.0227 0.80812 0.2872 0.0
C22 C 1.01245 0.76764 0.46502 0.0
H23 H 1.02704 0.85752 0.35407 0.0
C24 C 1.0221 0.83282 0.38642 0.0
C25 C 1.01661 0.8264 0.52667 0.0
C26 C 1.01207 0.79333 0.56747 0.0
C27 C 1.00679 0.73191 0.49555 0.0
H28 H 1.00849 0.78791 0.67645 0.0
C29 C 1.01621 0.70711 0.3989 0.0
C30 C 1.00477 0.67495 0.41012 0.0
C31 C 0.98893 0.72227 0.61272 0.0
H32 H 0.98104 0.73976 0.68931 0.0
C33 C 0.97956 0.68994 0.62974 0.0
H34 H 0.03137 0.71262 0.31067 0.0
C35 C 0.98667 0.6667 0.52824 0.0
H36 H 0.97783 0.64222 0.54166 0.0
H37 H 0.96556 0.68306 0.72007 0.0
H38 H 0.79666 0.03376 0.22495 0.0
C39 C 0.78006 0.02903 0.3083 0.0
C40 C 0.74821 0.03775 0.2822 0.0
C41 C 0.78954 1.01521 0.43698 0.0
H42 H 0.69951 0.03929 0.35782 0.0
C43 C 0.72424 0.03196 0.38048 0.0
C44 C 0.73132 1.0184 0.50902 0.0
C45 C 0.76426 1.01018 0.5391 0.0
C46 C 0.82541 1.0068 0.46028 0.0
H47 H 0.76958 1.00029 0.64058 0.0
C48 C 0.85019 1.01526 0.36202 0.0
C49 C 0.88327 1.00658 0.37981 0.0
C50 C 0.83553 0.98957 0.57928 0.0
H51 H 0.81856 0.98177 0.65751 0.0
C52 C 0.86813 0.98156 0.59995 0.0
H53 H 0.8444 0.02817 0.26866 0.0
C54 C 0.89168 0.98991 0.5022 0.0
H55 H 0.91654 0.9833 0.52389 0.0
H56 H 0.87522 0.96847 0.69283 0.0
H57 H 0.48665 0.80581 0.32749 0.0
C58 C 0.49777 0.78691 0.3895 0.0
C59 C 0.48223 0.75692 0.39705 0.0
C60 C 0.52701 0.79249 0.4622 0.0
H61 H 0.48414 0.70837 0.47765 0.0
C62 C 0.49568 0.73199 0.47706 0.0
C63 C 0.52499 0.7356 0.54679 0.0
C64 C 0.54087 0.76612 0.54011 0.0
C65 C 0.54139 0.82624 0.46066 0.0
H66 H 0.56381 0.76909 0.59334 0.0
C67 C 0.5374 0.84787 0.34539 0.0
C68 C 0.54724 0.88096 0.35236 0.0
C69 C 0.55671 0.83818 0.58074 0.0
H70 H 0.5598 0.82306 0.67184 0.0
C71 C 0.56689 0.87032 0.5882 0.0
H72 H 0.52682 0.83881 0.25004 0.0
C73 C 0.56192 0.8915 0.47691 0.0
H74 H 0.56917 0.91642 0.49106 0.0
H75 H 0.57808 0.87918 0.68286 0.0
H76 H 0.29274 0.49954 0.34267 0.0
C77 C 0.27529 0.50256 0.25946 0.0
C78 C 0.2427 0.49924 0.29289 0.0
C79 C 0.28513 0.51077 0.12395 0.0
H80 H 0.19373 0.50009 0.21516 0.0
C81 C 0.21916 0.5017 0.18794 0.0
C82 C 0.22708 0.50972 0.05121 0.0
C83 C 0.26044 0.51474 0.01882 0.0
C84 C 0.32122 0.51355 0.09684 0.0
H85 H 0.26691 0.52166 0.91393 0.0
C86 C 0.34393 0.52178 0.20465 0.0
C87 C 0.37791 0.51808 0.18606 0.0
C88 C 0.33368 0.50432 0.96693 0.0
H89 H 0.31771 0.49766 0.88219 0.0
C90 C 0.36703 0.50168 0.94635 0.0
H91 H 0.33537 0.53008 0.30475 0.0
C92 C 0.38878 0.50767 0.05493 0.0
H93 H 0.41429 0.50416 0.03538 0.0
H94 H 0.37613 0.49396 0.84611 0.0
H95 H 1.00439 0.29573 0.33856 0.0
C96 C 1.01377 0.27774 0.26734 0.0
C97 C 1.00816 0.24537 0.29838 0.0
C98 C 0.02962 0.28676 0.1436 0.0
H99 H 1.01161 0.196 0.22978 0.0
C100 C 1.01727 0.22105 0.20528 0.0
C101 C 0.03121 0.22816 0.07743 0.0
C102 C 0.03791 0.26136 0.04625 0.0
C103 C 0.03448 0.32277 0.11655 0.0
H104 H 0.04924 0.26711 0.94801 0.0
C105 C 0.036 0.34604 0.22756 0.0
C106 C 0.03647 0.38006 0.20228 0.0
C107 C 0.03494 0.33464 0.97957 0.0
H108 H 0.0331 0.31843 0.89149 0.0
C109 C 0.03646 0.36789 0.95347 0.0
H110 H 0.03697 0.33786 0.33433 0.0
C111 C 0.03703 0.39024 0.06268 0.0
H112 H 0.03709 0.41561 0.03653 0.0
H113 H 0.03641 0.37651 0.84702 0.0
H114 H 0.27235 1.01097 0.36441 0.0
C115 C 0.28991 1.02079 0.29238 0.0
C116 C 0.32259 1.01561 0.32018 0.0
C117 C 0.27987 0.03525 0.16694 0.0
H118 H 0.3714 1.02013 0.24523 0.0
C119 C 0.34609 1.02561 0.2247 0.0
C120 C 0.33756 0.03827 0.09531 0.0
C121 C 0.30417 0.04351 0.06626 0.0
C122 C 0.24398 0.03661 0.13726 0.0
H123 H 0.29732 0.05318 0.96571 0.0
C124 C 0.22053 0.03998 0.24601 0.0
C125 C 0.187 0.03577 0.21927 0.0
C126 C 0.23276 0.03047 1.00158 0.0
H127 H 0.24946 1.02673 0.91647 0.0
C128 C 0.19974 0.02752 0.97431 0.0
H129 H 0.22825 0.04483 0.35173 0.0
C130 C 0.17727 0.03009 0.08169 0.0
H131 H 0.15202 0.02809 0.05699 0.0
H132 H 0.1915 1.02267 0.8693 0.0
H133 H 0.54363 0.26956 0.34772 0.0
C134 C 0.53409 0.287 0.27428 0.0
C135 C 0.5375 0.31956 0.30764 0.0
C136 C 0.52086 0.27721 0.14572 0.0
H137 H 0.53288 0.36874 0.23754 0.0
C138 C 0.52861 0.34348 0.2119 0.0
C139 C 0.51788 0.33578 0.07862 0.0
C140 C 0.51347 0.30227 0.0451 0.0
C141 C 0.51796 0.24089 0.11849 0.0
H142 H 0.50461 0.29611 0.94252 0.0
C143 C 0.51712 0.21763 0.2298 0.0
C144 C 0.51852 0.18363 0.20546 0.0
C145 C 0.5184 0.22876 0.98181 0.0
H146 H 0.51964 0.24485 0.89325 0.0
C147 C 0.51842 0.1954 0.95656 0.0
H148 H 0.51525 0.22568 0.33646 0.0
C149 C 0.51872 0.17317 0.06633 0.0
H150 H 0.51999 0.14772 0.04131 0.0
H151 H 0.51908 0.18664 0.85037 0.0
Gd152 Gd 0.05683 1.02341 0.87849 0.0
Gd153 Gd 1.0077 0.03399 0.67714 0.0
C154 C 1.02486 0.95926 0.72641 0.0
C155 C 0.09429 0.9999 0.06538 0.0
C156 C 0.09629 0.96533 0.10038 0.0
C157 C 0.11555 0.94469 0.01782 0.0
C158 C 0.0724 0.95189 0.18586 0.0
C159 C 0.07968 0.90045 0.06965 0.0
C160 C 0.06397 0.91965 0.16961 0.0
C161 C 0.10709 0.91224 1.00182 0.0
C162 C 0.08255 0.04126 0.63181 0.0
C163 C 0.03365 0.09683 0.85686 0.0
C164 C 0.97897 0.05193 0.4524 0.0
C165 C 0.95806 0.08029 0.43547 0.0
C166 C 0.94219 0.09269 0.55351 0.0
C167 C 0.96288 0.10032 0.32001 0.0
C168 C 0.94573 0.14648 0.4577 0.0
C169 C 0.95651 0.13339 0.33081 0.0
C170 C 0.93663 0.12585 0.56572 0.0
C171 C 0.97383 0.02882 0.91946 0.0
O172 O 0.04463 0.97046 0.82398 0.0
O173 O 1.0082 0.97968 0.64881 0.0
O174 O 0.10409 1.00694 0.94006 0.0
O175 O 0.06708 1.01448 0.09684 0.0
O176 O 0.0888 0.05517 0.74948 0.0
O177 O 0.05998 1.02054 0.64835 0.0
O178 O 1.01754 0.08657 0.74555 0.0
O179 O 0.04922 0.07583 0.93604 0.0
O180 O 0.96784 0.02869 0.53139 0.0
O181 O 1.00906 0.05948 0.48108 0.0
O182 O 0.96134 0.03465 0.79915 0.0
O183 O 1.00439 1.02659 0.90999 0.0
H184 H 0.13488 0.95432 0.95413 0.0
H185 H 0.05785 0.96691 0.25398 0.0
H186 H 0.04383 0.91024 0.22921 0.0
H187 H 0.1203 0.89718 0.9291 0.0
H188 H 0.93795 0.07766 0.64356 0.0
H189 H 0.97539 0.0913 0.2288 0.0
H190 H 0.96414 0.14918 0.24697 0.0
H191 H 0.92863 0.13562 0.66451 0.0
Gd192 Gd 0.53989 0.05256 0.90074 0.0
Gd193 Gd 0.52339 1.00691 0.64488 0.0
C194 C 0.59982 1.02432 0.71485 0.0
C195 C 0.55603 0.0742 0.14066 0.0
C196 C 0.58449 0.09405 0.16947 0.0
C197 C 0.59708 0.11274 0.05973 0.0
C198 C 0.60478 0.08483 0.27937 0.0
C199 C 0.651 0.10236 0.14407 0.0
C200 C 0.63809 0.08912 0.26684 0.0
C201 C 0.63041 0.11621 0.04527 0.0
C202 C 0.53549 0.08971 0.66367 0.0
C203 C 0.46393 0.03458 0.83815 0.0
C204 C 0.5082 0.98227 0.40823 0.0
C205 C 0.48232 0.9588 0.38153 0.0
C206 C 0.47308 0.93791 0.49006 0.0
C207 C 0.46049 0.96504 0.27317 0.0
C208 C 0.41768 0.94137 0.41201 0.0
C209 C 0.42819 0.95586 0.28749 0.0
C210 C 0.44058 0.92988 0.50731 0.0
C211 C 0.52694 0.97097 0.88524 0.0
O212 O 0.59091 0.04017 0.82892 0.0
O213 O 0.57828 1.01185 0.6266 0.0
O214 O 0.53343 0.08778 0.06454 0.0
O215 O 0.5634 0.04484 0.09908 0.0
O216 O 0.54286 0.10046 0.78624 0.0
O217 O 0.53183 0.05923 0.67375 0.0
O218 O 0.47234 1.01902 0.72211 0.0
O219 O 0.48565 0.04731 0.92398 0.0
O220 O 0.53269 0.97175 0.48255 0.0
O221 O 0.49758 1.01069 0.44938 0.0
O222 O 0.51948 0.95928 0.76466 0.0
O223 O 0.53096 1.00105 0.86921 0.0
H224 H 0.58177 0.12057 0.97469 0.0
H225 H 0.59553 0.07032 0.36446 0.0
H226 H 0.65386 0.07818 0.34404 0.0
H227 H 0.64005 0.12636 0.95006 0.0
H228 H 0.48983 0.93169 0.57233 0.0
H229 H 0.46719 0.98086 0.18798 0.0
H230 H 0.41072 0.96502 0.21266 0.0
H231 H 0.43294 0.91866 0.60368 0.0
Gd232 Gd 0.50298 0.54299 0.88304 0.0
Gd233 Gd 0.5486 0.52646 0.66119 0.0
C234 C 0.53486 0.60248 0.72435 0.0
C235 C 0.46962 0.55646 0.10157 0.0
C236 C 0.45889 0.58867 0.14985 0.0
C237 C 0.42704 0.59939 0.1233 0.0
C238 C 0.48173 0.6108 0.20165 0.0
C239 C 0.44266 0.65439 0.17884 0.0
C240 C 0.47371 0.64333 0.21516 0.0
C241 C 0.4189 0.63214 0.13851 0.0
C242 C 0.47481 0.54311 0.62547 0.0
C243 C 0.5216 0.46603 0.84256 0.0
C244 C 0.57458 0.51035 0.42801 0.0
C245 C 0.59565 0.48232 0.40504 0.0
C246 C 0.61403 0.47073 0.51828 0.0
C247 C 0.58773 0.46118 0.29637 0.0
C248 C 0.60491 0.4161 0.44053 0.0
C249 C 0.5925 0.42802 0.31394 0.0
C250 C 0.61784 0.43753 0.53808 0.0
C251 C 0.5864 0.53348 0.89259 0.0
O252 O 0.52351 0.593 0.84594 0.0
O253 O 0.54126 0.58068 0.62715 0.0
O254 O 0.45653 0.54665 0.98527 0.0
O255 O 0.5008 0.55084 0.1059 0.0
O256 O 0.47053 0.5653 0.71894 0.0
O257 O 0.49495 0.52243 0.67159 0.0
O258 O 0.54184 0.47499 0.74271 0.0
O259 O 0.50377 0.48791 0.90877 0.0
O260 O 0.58624 0.53335 0.50677 0.0
O261 O 0.54499 0.50237 0.46199 0.0
O262 O 0.59655 0.52453 0.77203 0.0
O263 O 0.55584 0.53694 0.88873 0.0
H264 H 0.40891 0.58277 0.08424 0.0
H265 H 0.50635 0.60346 0.22492 0.0
H266 H 0.49209 0.66012 0.25099 0.0
H267 H 0.39461 0.64024 0.11364 0.0
H268 H 0.62135 0.4867 0.60151 0.0
H269 H 0.57363 0.46962 0.20814 0.0
H270 H 0.58222 0.41159 0.23771 0.0
H271 H 0.62742 0.42868 0.63607 0.0
Gd272 Gd 1.02155 0.51241 0.89178 0.0
Gd273 Gd 0.0332 0.56035 0.68798 0.0
C274 C 0.9596 0.54074 0.71312 0.0
C275 C 1.00063 0.48616 0.1166 0.0
C276 C 0.97295 0.46439 0.13277 0.0
C277 C 0.95745 0.45216 0.0135 0.0
C278 C 0.95822 0.46105 0.26266 0.0
C279 C 0.91 0.43922 0.1501 0.0
C280 C 0.927 0.44831 0.27155 0.0
C281 C 0.92617 0.43966 0.02204 0.0
C282 C 1.0258 0.47603 0.65655 0.0
C283 C 0.09645 0.52732 0.84156 0.0
C284 C 0.05787 0.59524 0.49548 0.0
C285 C 0.09209 0.59146 0.45496 0.0
C286 C 0.11622 0.60471 0.5418 0.0
C287 C 0.10036 0.56564 0.36675 0.0
C288 C 0.15086 0.55882 0.49316 0.0
C289 C 0.12934 0.54911 0.38737 0.0
C290 C 0.14539 0.58827 0.56166 0.0
C291 C 1.01697 0.58568 0.93926 0.0
O292 O 0.96969 0.525 0.82509 0.0
O293 O 0.98078 0.5547 0.63079 0.0
O294 O 1.02513 0.47466 0.04633 0.0
O295 O 0.99263 0.51557 0.07871 0.0
O296 O 1.02059 0.46531 0.78011 0.0
O297 O 0.02886 0.50689 0.65745 0.0
O298 O 0.08572 0.54592 0.73902 0.0
O299 O 0.07574 0.51252 0.92393 0.0
O300 O 0.05328 0.60625 0.62136 0.0
O301 O 0.03933 0.57036 0.46799 0.0
O302 O 1.00353 0.59404 0.82271 0.0
O303 O 0.03729 0.56322 0.91802 0.0
H304 H 0.96825 0.45487 0.91186 0.0
H305 H 0.96964 0.47077 0.35529 0.0
H306 H 0.915 0.44889 0.37165 0.0
H307 H 0.91361 0.43306 0.92705 0.0
H308 H 0.11104 0.62537 0.60759 0.0
H309 H 0.08284 0.55565 0.29437 0.0
H310 H 0.13413 0.52776 0.32505 0.0
H311 H 0.16246 0.59731 0.63796 0.0
C312 C 0.13929 1.01075 0.34475 0.0
C313 C 0.16151 0.03649 0.33131 0.0
H314 H 0.09663 0.9921 0.44561 0.0
C315 C 0.15717 0.06372 0.41695 0.0
H316 H 0.14251 0.98905 0.28326 0.0
C317 C 0.13104 0.06538 0.5109 0.0
C318 C 0.1083 0.03999 0.52169 0.0
H319 H 0.17361 0.08404 0.40927 0.0
H320 H 0.12861 0.08673 0.57558 0.0
C321 C 0.11291 1.01253 0.43747 0.0
C322 C 0.50781 0.12784 0.3161 0.0
C323 C 0.52183 0.15914 0.32314 0.0
H324 H 0.50147 0.08101 0.4136 0.0
C325 C 0.54068 0.16624 0.44149 0.0
H326 H 0.49256 0.12137 0.22868 0.0
C327 C 0.54532 0.14325 0.54779 0.0
C328 C 0.53171 0.11196 0.54026 0.0
H329 H 0.5524 0.18955 0.45162 0.0
H330 H 0.55981 0.15015 0.63712 0.0
C331 C 0.51289 0.1045 0.42232 0.0
C332 C 0.42968 0.5039 0.31882 0.0
C333 C 0.4023 0.52418 0.30163 0.0
H334 H 0.4737 0.49376 0.43176 0.0
C335 C 0.39943 0.55087 0.39221 0.0
H336 H 0.43286 0.48287 0.25288 0.0
C337 C 0.42321 0.55724 0.49443 0.0
C338 C 0.4505 0.53693 0.51125 0.0
H339 H 0.37914 0.56735 0.38213 0.0
H340 H 0.42005 0.57813 0.56122 0.0
C341 C 0.45328 0.5101 0.42188 0.0
C342 C 1.01643 0.3989 0.43982 0.0
C343 C 0.03462 0.40501 0.31899 0.0
H344 H 0.99937 0.41617 0.63681 0.0
C345 C 0.04959 0.43584 0.30876 0.0
H346 H 1.00396 0.37606 0.45255 0.0
C347 C 0.046 0.45965 0.41397 0.0
C348 C 0.02796 0.45312 0.53465 0.0
H349 H 0.06447 0.44159 0.21969 0.0
H350 H 0.05806 0.48276 0.40246 0.0
C351 C 1.01342 0.4223 0.54552 0.0
C352 C 0.93627 0.99409 0.25059 0.0
C353 C 0.90861 1.01402 0.26928 0.0
H354 H 0.97903 0.98362 0.12979 0.0
C355 C 0.90502 0.04054 0.1776 0.0
H356 H 0.94026 0.97315 0.31599 0.0
C357 C 0.92679 0.04564 0.06754 0.0
C358 C 0.95378 1.02536 0.048 0.0
H359 H 0.88523 0.05748 0.18921 0.0
H360 H 0.92237 0.06557 0.99659 0.0
C361 C 0.95873 0.99998 0.14301 0.0
C362 C 0.51604 0.90075 0.13802 0.0
C363 C 0.54165 0.90486 0.23381 0.0
H364 H 0.49149 0.91826 0.95542 0.0
C365 C 0.56136 0.93272 0.21668 0.0
H366 H 0.49962 0.88049 0.14702 0.0
C367 C 0.55554 0.95541 0.10959 0.0
C368 C 0.53046 0.95056 0.01314 0.0
H369 H 0.58192 0.93696 0.28415 0.0
H370 H 0.57163 0.97592 0.09849 0.0
C371 C 0.51092 0.92289 0.02873 0.0
C372 C 0.66091 0.5235 0.12389 0.0
C373 C 0.65554 0.5456 0.23333 0.0
H374 H 0.64367 0.50264 0.93326 0.0
C375 C 0.62585 0.56305 0.2309 0.0
H376 H 0.68262 0.50883 0.12097 0.0
C377 C 0.6026 0.55829 0.12487 0.0
C378 C 0.60864 0.5367 0.01522 0.0
H379 H 0.62048 0.58095 0.30965 0.0
H380 H 0.58042 0.57233 0.12624 0.0
C381 C 0.63814 0.51951 0.01628 0.0
C382 C 0.03934 0.64407 0.23396 0.0
C383 C 1.00889 0.6508 0.2936 0.0
H384 H 0.06608 0.61709 0.07963 0.0
C385 C 0.98166 0.63462 0.23877 0.0
H386 H 0.06084 0.65598 0.27335 0.0
C387 C 0.98456 0.61316 0.12581 0.0
C388 C 1.01491 0.60621 0.0672 0.0
H389 H 0.9578 0.63933 0.2808 0.0
H390 H 0.96292 0.60202 0.08362 0.0
C391 C 0.04239 0.62158 0.12379 0.0
C392 C 1.00212 0.21365 0.50983 0.0
C393 C 0.98804 0.23555 0.41616 0.0
H394 H 0.99909 0.1657 0.58908 0.0
C395 C 0.95468 0.23367 0.38886 0.0
H396 H 0.02786 0.21479 0.53198 0.0
C397 C 0.93797 0.20539 0.42218 0.0
C398 C 0.95445 0.18007 0.48832 0.0
H399 H 0.94337 0.25071 0.31796 0.0
H400 H 0.91401 0.20156 0.37919 0.0
C401 C 0.98555 0.18542 0.54287 0.0
C402 C 0.3309 0.95926 0.38135 0.0
C403 C 0.33288 0.99174 0.4243 0.0
H404 H 0.35861 0.91641 0.34015 0.0
C405 C 0.35748 1.00093 0.51666 0.0
H406 H 0.31174 0.95166 0.31134 0.0
C407 C 0.38409 0.9806 0.53431 0.0
C408 C 0.38561 0.95103 0.46213 0.0
H409 H 0.35937 1.02587 0.55102 0.0
H410 H 0.4057 0.9906 0.5814 0.0
C411 C 0.35782 0.93909 0.39665 0.0
C412 C 0.59091 0.32879 0.40456 0.0
C413 C 0.55731 0.32983 0.42643 0.0
H414 H 0.63369 0.35784 0.38912 0.0
C415 C 0.54435 0.3541 0.51171 0.0
H416 H 0.60143 0.30976 0.34139 0.0
C417 C 0.56268 0.38168 0.53752 0.0
C418 C 0.59425 0.38396 0.48448 0.0
H419 H 0.51851 0.35508 0.5308 0.0
H420 H 0.55038 0.40305 0.57596 0.0
C421 C 0.60935 0.35642 0.43024 0.0
C422 C 0.23706 0.53432 0.4922 0.0
C423 C 0.23201 0.5031 0.43831 0.0
H424 H 0.21313 0.57864 0.54243 0.0
C425 C 0.20388 0.48654 0.47816 0.0
H426 H 0.25954 0.54697 0.47218 0.0
C427 C 0.17697 0.50467 0.51839 0.0
C428 C 0.17941 0.53862 0.52513 0.0
H429 H 0.20018 0.46167 0.44585 0.0
H430 H 0.15357 0.49289 0.52318 0.0
C431 C 0.21023 0.55274 0.53052 0.0
C432 C 0.06841 0.81433 0.13307 0.0
C433 C 0.03465 0.81588 0.14836 0.0
H434 H 0.11067 0.84274 0.09467 0.0
C435 C 1.01697 0.83875 0.07218 0.0
H436 H 0.0823 0.79612 0.18851 0.0
C437 C 0.03313 0.8654 0.0186 0.0
C438 C 0.06668 0.86828 0.03999 0.0
H439 H 0.99081 0.83971 0.08026 0.0
H440 H 1.01895 0.88601 0.984 0.0
C441 C 0.08468 0.84114 0.08049 0.0
C442 C 0.73886 0.09084 0.18486 0.0
C443 C 0.73908 0.05728 0.16114 0.0
H444 H 0.7081 0.1325 0.20278 0.0
C445 C 0.71551 0.04377 0.07375 0.0
H446 H 0.75741 0.10176 0.24952 0.0
C447 C 0.68718 0.06111 0.04907 0.0
C448 C 0.68364 0.09241 0.10414 0.0
H449 H 0.71558 1.01797 0.05287 0.0
H450 H 0.66637 0.04821 1.00862 0.0
C451 C 0.71049 0.10833 0.16026 0.0
C452 C 0.42933 0.7312 0.36052 0.0
C453 C 0.45571 0.74782 0.30202 0.0
H454 H 0.40449 0.68571 0.36523 0.0
C455 C 0.46528 0.73994 0.16622 0.0
H456 H 0.42107 0.73739 0.46412 0.0
C457 C 0.45595 0.71026 0.10972 0.0
C458 C 0.43622 0.68936 0.18744 0.0
H459 H 0.48505 0.75285 0.11734 0.0
H460 H 0.46828 0.70151 0.01762 0.0
C461 C 0.42006 0.70137 0.30461 0.0
C462 C 0.82939 0.43653 0.31596 0.0
C463 C 0.81668 0.46464 0.25387 0.0
H464 H 0.87102 0.40574 0.33035 0.0
C465 C 0.82798 0.47384 0.12233 0.0
H466 H 0.82064 0.42876 0.41679 0.0
C467 C 0.85692 0.46075 0.07273 0.0
C468 C 0.8742 0.43826 0.1544 0.0
H469 H 0.81828 0.49522 0.07166 0.0
H470 H 0.86813 0.47218 0.98364 0.0
C471 C 0.85853 0.42364 0.2675 0.0
C472 C 1.00948 0.18634 0.9095 0.0
C473 C 0.03617 0.19924 0.9832 0.0
H474 H 0.9873 0.14438 0.81533 0.0
C475 C 0.06266 0.17835 1.00701 0.0
H476 H 0.98793 0.20095 0.89505 0.0
C477 C 0.06212 0.14568 0.96279 0.0
C478 C 0.03502 0.13253 0.89316 0.0
H479 H 0.08299 0.18668 0.06874 0.0
H480 H 0.08269 0.13037 0.98718 0.0
C481 C 1.00895 0.15362 0.86514 0.0
C482 C 0.38611 0.06777 1.00143 0.0
C483 C 0.36472 0.04136 0.99221 0.0
H484 H 0.43369 0.08644 0.95952 0.0
C485 C 0.37547 1.01359 0.92003 0.0
H486 H 0.37928 0.089 0.06083 0.0
C487 C 0.40704 1.0118 0.86422 0.0
C488 C 0.42883 0.03776 0.87838 0.0
H489 H 0.36034 0.9922 0.91668 0.0
H490 H 0.41517 0.98919 0.81926 0.0
C491 C 0.41758 0.06603 0.94528 0.0
C492 C 0.54223 0.37593 0.90969 0.0
C493 C 0.51467 0.36442 0.98093 0.0
H494 H 0.56648 0.41641 0.81401 0.0
C495 C 0.48882 0.38643 0.99851 0.0
H496 H 0.56333 0.36048 0.89992 0.0
C497 C 0.49073 0.41876 0.95037 0.0
C498 C 0.51869 0.43057 0.88321 0.0
H499 H 0.46782 0.37922 0.05815 0.0
H500 H 0.47053 0.43487 0.97003 0.0
C501 C 0.5442 0.40833 0.86182 0.0
C502 C 0.1862 0.54505 0.92263 0.0
C503 C 0.19853 0.51396 0.95365 0.0
H504 H 0.14453 0.57377 0.86408 0.0
C505 C 0.17762 0.4874 0.9319 0.0
H506 H 0.20092 0.56622 0.94282 0.0
C507 C 0.14513 0.49179 0.89045 0.0
C508 C 0.13231 0.52288 0.8666 0.0
H509 H 0.18575 0.4632 0.95814 0.0
H510 H 0.12961 0.47076 0.88209 0.0
C511 C 0.15364 0.54941 0.87884 0.0
C512 C 0.98941 0.87697 0.61561 0.0
C513 C 1.01637 0.85594 0.62005 0.0
H514 H 0.97086 0.92531 0.64376 0.0
C515 C 0.04577 0.86896 0.67037 0.0
H516 H 0.96674 0.86849 0.57205 0.0
C517 C 0.04826 0.9019 0.71094 0.0
C518 C 1.0216 0.92319 0.70013 0.0
H519 H 0.06747 0.8542 0.66958 0.0
H520 H 0.0716 0.91115 0.74301 0.0
C521 C 0.99198 0.9099 0.6543 0.0
C522 C 0.67965 0.99012 0.57113 0.0
C523 C 0.70238 1.01452 0.60292 0.0
H524 H 0.63011 0.97415 0.57875 0.0
C525 C 0.69124 0.04122 0.68122 0.0
H526 H 0.68675 0.96996 0.5058 0.0
C527 C 0.65839 0.04396 0.72129 0.0
C528 C 0.63545 1.02026 0.6834 0.0
H529 H 0.70741 0.06128 0.70207 0.0
H530 H 0.65057 0.06563 0.77519 0.0
C531 C 0.64684 0.99297 0.61013 0.0
C532 C 0.55271 0.68171 0.52984 0.0
C533 C 0.53782 0.70531 0.61425 0.0
H534 H 0.56337 0.63133 0.49672 0.0
C535 C 0.52487 0.69503 0.74246 0.0
H536 H 0.56178 0.68839 0.42814 0.0
C537 C 0.52539 0.66206 0.78168 0.0
C538 C 0.53835 0.63816 0.69259 0.0
H539 H 0.51205 0.71217 0.80765 0.0
H540 H 0.51387 0.65514 0.87832 0.0
C541 C 0.55298 0.64874 0.5682 0.0
C542 C 0.8683 0.52325 0.70921 0.0
C543 C 0.85727 0.54168 0.59489 0.0
H544 H 0.90868 0.50835 0.83599 0.0
C545 C 0.87975 0.56204 0.52846 0.0
H546 H 0.85204 0.50636 0.7594 0.0
C547 C 0.91253 0.56264 0.57 0.0
C548 C 0.92397 0.54275 0.67915 0.0
H549 H 0.87251 0.57563 0.43705 0.0
H550 H 0.92919 0.57772 0.51225 0.0
C551 C 0.90104 0.52394 0.75138 0.0
loop_
_geom_bond_atom_site_label_1
_geom_bond_atom_site_label_2
_geom_bond_distance
_geom_bond_site_symmetry_2
_ccdc_geom_bond_type
H0 C1 0.949 . S
C1 H0 0.949 . S
C1 C2 1.395 . S
C1 C3 1.391 . S
C2 C1 1.395 . S
C2 C5 1.390 . S
C3 C1 1.391 . S
C3 C7 1.387 . S
C3 C8 1.491 . S
H4 C5 0.950 . S
C5 C2 1.390 . S
C5 H4 0.950 . S
C5 C6 1.378 . S
C6 C5 1.378 . S
C6 C7 1.409 . S
C7 C3 1.387 . S
C7 C6 1.409 . S
C7 H9 0.951 . S
C8 C3 1.491 . S
C8 C10 1.382 . S
C8 C12 1.404 . S
H9 C7 0.951 . S
C10 C8 1.382 . S
C10 C11 1.390 . S
C10 H15 0.949 . S
C11 C10 1.390 . S
C11 C16 1.399 . S
C12 C8 1.404 . S
C12 H13 0.950 . S
C12 C14 1.375 . S
H13 C12 0.950 . S
C14 C12 1.375 . S
C14 C16 1.382 . S
C14 H18 0.950 . S
H15 C10 0.949 . S
C16 C11 1.399 . S
C16 C14 1.382 . S
C16 H17 0.952 . S
H17 C16 0.952 . S
H18 C14 0.950 . S
H19 C20 0.949 . S
C20 H19 0.949 . S
C20 C21 1.395 . S
C20 C22 1.391 . S
C21 C20 1.395 . S
C21 C24 1.390 1_655 S
C22 C20 1.391 . S
C22 C26 1.387 . S
C22 C27 1.491 . S
H23 C24 0.950 . S
C24 C21 1.390 1_455 S
C24 H23 0.950 . S
C24 C25 1.377 1_455 S
C25 C24 1.377 1_655 S
C25 C26 1.413 . S
C26 C22 1.387 . S
C26 C25 1.413 . S
C26 H28 0.951 . S
C27 C22 1.491 . S
C27 C29 1.382 . S
C27 C31 1.404 . S
H28 C26 0.951 . S
C29 C27 1.382 . S
C29 C30 1.390 . S
C29 H34 0.949 1_655 S
C30 C29 1.390 . S
C30 C35 1.399 . S
C31 C27 1.404 . S
C31 H32 0.950 . S
C31 C33 1.375 . S
H32 C31 0.950 . S
C33 C31 1.375 . S
C33 C35 1.382 . S
C33 H37 0.950 . S
H34 C29 0.949 1_455 S
C35 C30 1.399 . S
C35 C33 1.382 . S
C35 H36 0.952 . S
H36 C35 0.952 . S
H37 C33 0.950 . S
H38 C39 0.949 . S
C39 H38 0.949 . S
C39 C40 1.395 . S
C39 C41 1.391 . S
C40 C39 1.395 . S
C40 C43 1.390 1_565 S
C41 C39 1.391 . S
C41 C45 1.387 . S
C41 C46 1.491 . S
H42 C43 0.950 . S
C43 C40 1.390 1_545 S
C43 H42 0.950 . S
C43 C44 1.377 1_545 S
C44 C43 1.377 1_565 S
C44 C45 1.413 . S
C45 C41 1.387 . S
C45 C44 1.413 . S
C45 H47 0.951 . S
C46 C41 1.491 . S
C46 C48 1.382 . S
C46 C50 1.404 . S
H47 C45 0.951 . S
C48 C46 1.382 . S
C48 C49 1.390 . S
C48 H53 0.949 1_565 S
C49 C48 1.390 . S
C49 C54 1.399 . S
C50 C46 1.404 . S
C50 H51 0.950 . S
C50 C52 1.375 . S
H51 C50 0.950 . S
C52 C50 1.375 . S
C52 C54 1.382 . S
C52 H56 0.950 . S
H53 C48 0.949 1_545 S
C54 C49 1.399 . S
C54 C52 1.382 . S
C54 H55 0.952 . S
H55 C54 0.952 . S
H56 C52 0.950 . S
H57 C58 0.949 . S
C58 H57 0.949 . S
C58 C59 1.395 . S
C58 C60 1.391 . S
C59 C58 1.395 . S
C59 C62 1.390 . S
C60 C58 1.391 . S
C60 C64 1.387 . S
C60 C65 1.491 . S
H61 C62 0.950 . S
C62 C59 1.390 . S
C62 H61 0.950 . S
C62 C63 1.378 . S
C63 C62 1.378 . S
C63 C64 1.409 . S
C64 C60 1.387 . S
C64 C63 1.409 . S
C64 H66 0.951 . S
C65 C60 1.491 . S
C65 C67 1.382 . S
C65 C69 1.404 . S
H66 C64 0.951 . S
C67 C65 1.382 . S
C67 C68 1.390 . S
C67 H72 0.949 . S
C68 C67 1.390 . S
C68 C73 1.399 . S
C69 C65 1.404 . S
C69 H70 0.950 . S
C69 C71 1.375 . S
H70 C69 0.950 . S
C71 C69 1.375 . S
C71 C73 1.382 . S
C71 H75 0.950 . S
H72 C67 0.949 . S
C73 C68 1.399 . S
C73 C71 1.382 . S
C73 H74 0.952 . S
H74 C73 0.952 . S
H75 C71 0.950 . S
H76 C77 0.949 . S
C77 H76 0.949 . S
C77 C78 1.395 . S
C77 C79 1.391 1_554 S
C78 C77 1.395 . S
C78 C81 1.390 1_554 S
C79 C77 1.391 1_556 S
C79 C83 1.387 . S
C79 C84 1.491 . S
H80 C81 0.950 . S
C81 C78 1.390 1_556 S
C81 H80 0.950 . S
C81 C82 1.378 . S
C82 C81 1.378 . S
C82 C83 1.409 . S
C83 C79 1.387 . S
C83 C82 1.409 . S
C83 H85 0.951 . S
C84 C79 1.491 . S
C84 C86 1.382 1_556 S
C84 C88 1.404 . S
H85 C83 0.951 . S
C86 C84 1.382 1_554 S
C86 C87 1.390 . S
C86 H91 0.949 . S
C87 C86 1.390 . S
C87 C92 1.399 1_554 S
C88 C84 1.404 . S
C88 H89 0.950 . S
C88 C90 1.375 . S
H89 C88 0.950 . S
C90 C88 1.375 . S
C90 C92 1.382 . S
C90 H94 0.950 . S
H91 C86 0.949 . S
C92 C87 1.399 1_556 S
C92 C90 1.382 . S
C92 H93 0.952 . S
H93 C92 0.952 . S
H94 C90 0.950 . S
H95 C96 0.949 . S
C96 H95 0.949 . S
C96 C97 1.394 . S
C96 C98 1.391 1_554 S
C97 C96 1.394 . S
C97 C100 1.390 1_654 S
C98 C96 1.391 1_556 S
C98 C102 1.387 . S
C98 C103 1.491 . S
H99 C100 0.950 . S
C100 C97 1.390 1_456 S
C100 H99 0.950 . S
C100 C101 1.377 1_455 S
C101 C100 1.377 1_655 S
C101 C102 1.411 . S
C102 C98 1.387 . S
C102 C101 1.411 . S
C102 H104 0.951 . S
C103 C98 1.491 . S
C103 C105 1.382 1_556 S
C103 C107 1.404 . S
H104 C102 0.951 . S
C105 C103 1.382 1_554 S
C105 C106 1.390 . S
C105 H110 0.949 1_655 S
C106 C105 1.390 . S
C106 C111 1.399 1_554 S
C107 C103 1.404 . S
C107 H108 0.950 . S
C107 C109 1.375 . S
H108 C107 0.950 . S
C109 C107 1.375 . S
C109 C111 1.382 . S
C109 H113 0.950 . S
H110 C105 0.949 1_455 S
C111 C106 1.399 1_556 S
C111 C109 1.382 . S
C111 H112 0.952 . S
H112 C111 0.952 . S
H113 C109 0.950 . S
H114 C115 0.949 . S
C115 H114 0.949 . S
C115 C116 1.394 . S
C115 C117 1.391 1_554 S
C116 C115 1.394 . S
C116 C119 1.390 1_564 S
C117 C115 1.391 1_556 S
C117 C121 1.387 . S
C117 C122 1.491 . S
H118 C119 0.950 . S
C119 C116 1.390 1_546 S
C119 H118 0.950 . S
C119 C120 1.377 1_545 S
C120 C119 1.377 1_565 S
C120 C121 1.411 . S
C121 C117 1.387 . S
C121 C120 1.411 . S
C121 H123 0.951 . S
C122 C117 1.491 . S
C122 C124 1.382 1_556 S
C122 C126 1.404 . S
H123 C121 0.951 . S
C124 C122 1.382 1_554 S
C124 C125 1.390 . S
C124 H129 0.949 1_565 S
C125 C124 1.390 . S
C125 C130 1.399 1_554 S
C126 C122 1.404 . S
C126 H127 0.950 . S
C126 C128 1.375 . S
H127 C126 0.950 . S
C128 C126 1.375 . S
C128 C130 1.382 . S
C128 H132 0.950 . S
H129 C124 0.949 1_545 S
C130 C125 1.399 1_556 S
C130 C128 1.382 . S
C130 H131 0.952 . S
H131 C130 0.952 . S
H132 C128 0.950 . S
H133 C134 0.949 . S
C134 H133 0.949 . S
C134 C135 1.395 . S
C134 C136 1.391 1_554 S
C135 C134 1.395 . S
C135 C138 1.390 1_554 S
C136 C134 1.391 1_556 S
C136 C140 1.387 . S
C136 C141 1.491 . S
H137 C138 0.950 . S
C138 C135 1.390 1_556 S
C138 H137 0.950 . S
C138 C139 1.378 . S
C139 C138 1.378 . S
C139 C140 1.409 . S
C140 C136 1.387 . S
C140 C139 1.409 . S
C140 H142 0.951 . S
C141 C136 1.491 . S
C141 C143 1.382 1_556 S
C141 C145 1.404 . S
H142 C140 0.951 . S
C143 C141 1.382 1_554 S
C143 C144 1.390 . S
C143 H148 0.949 . S
C144 C143 1.390 . S
C144 C149 1.399 1_554 S
C145 C141 1.404 . S
C145 H146 0.950 . S
C145 C147 1.375 . S
H146 C145 0.950 . S
C147 C145 1.375 . S
C147 C149 1.382 . S
C147 H151 0.950 . S
H148 C143 0.949 . S
C149 C144 1.399 1_556 S
C149 C147 1.382 . S
C149 H150 0.952 . S
H150 C149 0.952 . S
H151 C147 0.950 . S
Gd152 C155 2.818 1_556 S
Gd152 O172 2.377 . S
Gd152 O174 2.448 1_556 S
Gd152 O175 2.506 1_556 S
Gd152 O176 2.435 . S
Gd152 O177 2.717 1_565 S
Gd152 O179 2.395 1_565 S
Gd152 O183 2.327 1_455 S
Gd153 C164 2.818 . S
Gd153 O173 2.395 1_545 S
Gd153 O177 2.327 1_655 S
Gd153 O178 2.377 . S
Gd153 O180 2.448 . S
Gd153 O181 2.506 . S
Gd153 O182 2.435 . S
Gd153 O183 2.717 1_545 S
C154 O172 1.240 1_655 S
C154 O173 1.240 . S
C155 Gd152 2.818 1_554 S
C155 C156 1.510 . S
C155 O174 1.249 . S
C155 O175 1.252 . S
C156 C155 1.510 . S
C156 C157 1.404 . S
C156 C158 1.352 . S
C157 C156 1.404 . S
C157 C161 1.389 . S
C157 H184 0.930 . S
C158 C156 1.352 . S
C158 C160 1.374 . S
C158 H185 0.931 1_455 S
C159 C160 1.359 . S
C159 C161 1.364 . S
C160 C158 1.374 . S
C160 C159 1.359 . S
C160 H186 0.931 1_455 S
C161 C157 1.389 . S
C161 C159 1.364 . S
C161 H187 0.931 . S
C162 O176 1.256 . S
C162 O177 1.257 1_565 S
C163 O178 1.240 1_455 S
C163 O179 1.240 . S
C164 Gd153 2.818 . S
C164 C165 1.510 . S
C164 O180 1.249 . S
C164 O181 1.252 . S
C165 C164 1.510 . S
C165 C166 1.404 . S
C165 C167 1.352 . S
C166 C165 1.404 . S
C166 C170 1.389 . S
C166 H188 0.930 . S
C167 C165 1.352 . S
C167 C169 1.374 . S
C167 H189 0.931 1_655 S
C168 C169 1.359 . S
C168 C170 1.364 . S
C169 C167 1.374 . S
C169 C168 1.359 . S
C169 H190 0.931 1_655 S
C170 C166 1.389 . S
C170 C168 1.364 . S
C170 H191 0.931 . S
C171 O182 1.256 . S
C171 O183 1.257 1_545 S
O172 Gd152 2.377 . S
O172 C154 1.240 1_455 S
O173 Gd153 2.395 1_565 S
O173 C154 1.240 . S
O174 Gd152 2.448 1_554 S
O174 C155 1.249 . S
O175 Gd152 2.506 1_554 S
O175 C155 1.252 . S
O176 Gd152 2.435 . S
O176 C162 1.256 . S
O177 Gd152 2.717 1_545 S
O177 Gd153 2.327 1_455 S
O177 C162 1.257 1_545 S
O178 Gd153 2.377 . S
O178 C163 1.240 1_655 S
O179 Gd152 2.395 1_545 S
O179 C163 1.240 . S
O180 Gd153 2.448 . S
O180 C164 1.249 . S
O181 Gd153 2.506 . S
O181 C164 1.252 . S
O182 Gd153 2.435 . S
O182 C171 1.256 . S
O183 Gd152 2.327 1_655 S
O183 Gd153 2.717 1_565 S
O183 C171 1.257 1_565 S
H184 C157 0.930 . S
H185 C158 0.931 1_655 S
H186 C160 0.931 1_655 S
H187 C161 0.931 . S
H188 C166 0.930 . S
H189 C167 0.931 1_455 S
H190 C169 0.931 1_455 S
H191 C170 0.931 . S
Gd192 C195 2.818 1_556 S
Gd192 O212 2.377 . S
Gd192 O214 2.448 1_556 S
Gd192 O215 2.506 1_556 S
Gd192 O216 2.435 . S
Gd192 O217 2.717 . S
Gd192 O219 2.395 . S
Gd192 O223 2.327 1_545 S
Gd193 C204 2.818 . S
Gd193 O213 2.395 . S
Gd193 O217 2.327 1_565 S
Gd193 O218 2.377 . S
Gd193 O220 2.448 . S
Gd193 O221 2.506 . S
Gd193 O222 2.435 . S
Gd193 O223 2.717 . S
C194 O212 1.240 1_565 S
C194 O213 1.240 . S
C195 Gd192 2.818 1_554 S
C195 C196 1.510 . S
C195 O214 1.249 . S
C195 O215 1.252 . S
C196 C195 1.510 . S
C196 C197 1.404 . S
C196 C198 1.352 . S
C197 C196 1.404 . S
C197 C201 1.389 . S
C197 H224 0.930 . S
C198 C196 1.352 . S
C198 C200 1.374 . S
C198 H225 0.931 1_545 S
C199 C200 1.359 . S
C199 C201 1.364 . S
C200 C198 1.374 . S
C200 C199 1.359 . S
C200 H226 0.931 1_545 S
C201 C197 1.389 . S
C201 C199 1.364 . S
C201 H227 0.931 . S
C202 O216 1.256 . S
C202 O217 1.257 . S
C203 O218 1.240 1_545 S
C203 O219 1.240 . S
C204 Gd193 2.818 . S
C204 C205 1.510 . S
C204 O220 1.249 . S
C204 O221 1.252 . S
C205 C204 1.510 . S
C205 C206 1.404 . S
C205 C207 1.352 . S
C206 C205 1.404 . S
C206 C210 1.389 . S
C206 H228 0.930 . S
C207 C205 1.352 . S
C207 C209 1.374 . S
C207 H229 0.931 1_565 S
C208 C209 1.359 . S
C208 C210 1.364 . S
C209 C207 1.374 . S
C209 C208 1.359 . S
C209 H230 0.931 1_565 S
C210 C206 1.389 . S
C210 C208 1.364 . S
C210 H231 0.931 . S
C211 O222 1.256 . S
C211 O223 1.257 . S
O212 Gd192 2.377 . S
O212 C194 1.240 1_545 S
O213 Gd193 2.395 . S
O213 C194 1.240 . S
O214 Gd192 2.448 1_554 S
O214 C195 1.249 . S
O215 Gd192 2.506 1_554 S
O215 C195 1.252 . S
O216 Gd192 2.435 . S
O216 C202 1.256 . S
O217 Gd192 2.717 . S
O217 Gd193 2.327 1_545 S
O217 C202 1.257 . S
O218 Gd193 2.377 . S
O218 C203 1.240 1_565 S
O219 Gd192 2.395 . S
O219 C203 1.240 . S
O220 Gd193 2.448 . S
O220 C204 1.249 . S
O221 Gd193 2.506 . S
O221 C204 1.252 . S
O222 Gd193 2.435 . S
O222 C211 1.256 . S
O223 Gd192 2.327 1_565 S
O223 Gd193 2.717 . S
O223 C211 1.257 . S
H224 C197 0.930 . S
H225 C198 0.931 1_565 S
H226 C200 0.931 1_565 S
H227 C201 0.931 . S
H228 C206 0.930 . S
H229 C207 0.931 1_545 S
H230 C209 0.931 1_545 S
H231 C210 0.931 . S
Gd232 C235 2.818 1_556 S
Gd232 O252 2.377 . S
Gd232 O254 2.448 1_556 S
Gd232 O255 2.506 1_556 S
Gd232 O256 2.435 . S
Gd232 O257 2.717 . S
Gd232 O259 2.395 . S
Gd232 O263 2.327 . S
Gd233 C244 2.818 . S
Gd233 O253 2.395 . S
Gd233 O257 2.327 . S
Gd233 O258 2.377 . S
Gd233 O260 2.448 . S
Gd233 O261 2.506 . S
Gd233 O262 2.435 . S
Gd233 O263 2.717 . S
C234 O252 1.240 . S
C234 O253 1.240 . S
C235 Gd232 2.818 1_554 S
C235 C236 1.510 . S
C235 O254 1.249 . S
C235 O255 1.252 . S
C236 C235 1.510 . S
C236 C237 1.404 . S
C236 C238 1.352 . S
C237 C236 1.404 . S
C237 C241 1.389 . S
C237 H264 0.930 . S
C238 C236 1.352 . S
C238 C240 1.374 . S
C238 H265 0.931 . S
C239 C240 1.359 . S
C239 C241 1.364 . S
C240 C238 1.374 . S
C240 C239 1.359 . S
C240 H266 0.931 . S
C241 C237 1.389 . S
C241 C239 1.364 . S
C241 H267 0.931 . S
C242 O256 1.256 . S
C242 O257 1.257 . S
C243 O258 1.240 . S
C243 O259 1.240 . S
C244 Gd233 2.818 . S
C244 C245 1.510 . S
C244 O260 1.249 . S
C244 O261 1.252 . S
C245 C244 1.510 . S
C245 C246 1.404 . S
C245 C247 1.352 . S
C246 C245 1.404 . S
C246 C250 1.389 . S
C246 H268 0.930 . S
C247 C245 1.352 . S
C247 C249 1.374 . S
C247 H269 0.931 . S
C248 C249 1.359 . S
C248 C250 1.364 . S
C249 C247 1.374 . S
C249 C248 1.359 . S
C249 H270 0.931 . S
C250 C246 1.389 . S
C250 C248 1.364 . S
C250 H271 0.931 . S
C251 O262 1.256 . S
C251 O263 1.257 . S
O252 Gd232 2.377 . S
O252 C234 1.240 . S
O253 Gd233 2.395 . S
O253 C234 1.240 . S
O254 Gd232 2.448 1_554 S
O254 C235 1.249 . S
O255 Gd232 2.506 1_554 S
O255 C235 1.252 . S
O256 Gd232 2.435 . S
O256 C242 1.256 . S
O257 Gd232 2.717 . S
O257 Gd233 2.327 . S
O257 C242 1.257 . S
O258 Gd233 2.377 . S
O258 C243 1.240 . S
O259 Gd232 2.395 . S
O259 C243 1.240 . S
O260 Gd233 2.448 . S
O260 C244 1.249 . S
O261 Gd233 2.506 . S
O261 C244 1.252 . S
O262 Gd233 2.435 . S
O262 C251 1.256 . S
O263 Gd232 2.327 . S
O263 Gd233 2.717 . S
O263 C251 1.257 . S
H264 C237 0.930 . S
H265 C238 0.931 . S
H266 C240 0.931 . S
H267 C241 0.931 . S
H268 C246 0.930 . S
H269 C247 0.931 . S
H270 C249 0.931 . S
H271 C250 0.931 . S
Gd272 C275 2.818 1_556 S
Gd272 O292 2.377 . S
Gd272 O294 2.448 1_556 S
Gd272 O295 2.506 1_556 S
Gd272 O296 2.435 . S
Gd272 O297 2.717 1_655 S
Gd272 O299 2.395 1_655 S
Gd272 O303 2.327 . S
Gd273 C284 2.818 . S
Gd273 O293 2.395 1_455 S
Gd273 O297 2.327 . S
Gd273 O298 2.377 . S
Gd273 O300 2.448 . S
Gd273 O301 2.506 . S
Gd273 O302 2.435 . S
Gd273 O303 2.717 1_455 S
C274 O292 1.240 . S
C274 O293 1.240 . S
C275 Gd272 2.818 1_554 S
C275 C276 1.510 . S
C275 O294 1.249 . S
C275 O295 1.252 . S
C276 C275 1.510 . S
C276 C277 1.404 . S
C276 C278 1.352 . S
C277 C276 1.404 . S
C277 C281 1.389 . S
C277 H304 0.930 . S
C278 C276 1.352 . S
C278 C280 1.374 . S
C278 H305 0.931 . S
C279 C280 1.359 . S
C279 C281 1.364 . S
C280 C278 1.374 . S
C280 C279 1.359 . S
C280 H306 0.931 . S
C281 C277 1.389 . S
C281 C279 1.364 . S
C281 H307 0.931 . S
C282 O296 1.256 . S
C282 O297 1.257 1_655 S
C283 O298 1.240 . S
C283 O299 1.240 . S
C284 Gd273 2.818 . S
C284 C285 1.510 . S
C284 O300 1.249 . S
C284 O301 1.252 . S
C285 C284 1.510 . S
C285 C286 1.404 . S
C285 C287 1.352 . S
C286 C285 1.404 . S
C286 C290 1.389 . S
C286 H308 0.930 . S
C287 C285 1.352 . S
C287 C289 1.374 . S
C287 H309 0.931 . S
C288 C289 1.359 . S
C288 C290 1.364 . S
C289 C287 1.374 . S
C289 C288 1.359 . S
C289 H310 0.931 . S
C290 C286 1.389 . S
C290 C288 1.364 . S
C290 H311 0.931 . S
C291 O302 1.256 . S
C291 O303 1.257 1_455 S
O292 Gd272 2.377 . S
O292 C274 1.240 . S
O293 Gd273 2.395 1_655 S
O293 C274 1.240 . S
O294 Gd272 2.448 1_554 S
O294 C275 1.249 . S
O295 Gd272 2.506 1_554 S
O295 C275 1.252 . S
O296 Gd272 2.435 . S
O296 C282 1.256 . S
O297 Gd272 2.717 1_455 S
O297 Gd273 2.327 . S
O297 C282 1.257 1_455 S
O298 Gd273 2.377 . S
O298 C283 1.240 . S
O299 Gd272 2.395 1_455 S
O299 C283 1.240 . S
O300 Gd273 2.448 . S
O300 C284 1.249 . S
O301 Gd273 2.506 . S
O301 C284 1.252 . S
O302 Gd273 2.435 . S
O302 C291 1.256 . S
O303 Gd272 2.327 . S
O303 Gd273 2.717 1_655 S
O303 C291 1.257 1_655 S
H304 C277 0.930 . S
H305 C278 0.931 . S
H306 C280 0.931 . S
H307 C281 0.931 . S
H308 C286 0.930 . S
H309 C287 0.931 . S
H310 C289 0.931 . S
H311 C290 0.931 . S
C312 C313 1.366 1_565 S
C312 H316 0.950 . S
C312 C321 1.390 . S
C313 C312 1.366 1_545 S
C313 C315 1.409 . S
H314 C321 0.950 . S
C315 C313 1.409 . S
C315 C317 1.390 . S
C315 H319 0.950 . S
H316 C312 0.950 . S
C317 C315 1.390 . S
C317 C318 1.387 . S
C317 H320 0.950 . S
C318 C317 1.387 . S
C318 C321 1.387 1_545 S
H319 C315 0.950 . S
H320 C317 0.950 . S
C321 C312 1.390 . S
C321 H314 0.950 . S
C321 C318 1.387 1_565 S
C322 C323 1.387 . S
C322 H326 0.950 . S
C322 C331 1.390 . S
C323 C322 1.387 . S
C323 C325 1.387 . S
H324 C331 0.950 . S
C325 C323 1.387 . S
C325 C327 1.390 . S
C325 H329 0.950 . S
H326 C322 0.950 . S
C327 C325 1.390 . S
C327 C328 1.387 . S
C327 H330 0.950 . S
C328 C327 1.387 . S
C328 C331 1.387 . S
H329 C325 0.950 . S
H330 C327 0.950 . S
C331 C322 1.390 . S
C331 H324 0.950 . S
C331 C328 1.387 . S
C332 C333 1.387 . S
C332 H336 0.950 . S
C332 C341 1.390 . S
C333 C332 1.387 . S
C333 C335 1.387 . S
H334 C341 0.950 . S
C335 C333 1.387 . S
C335 C337 1.390 . S
C335 H339 0.950 . S
H336 C332 0.950 . S
C337 C335 1.390 . S
C337 C338 1.387 . S
C337 H340 0.950 . S
C338 C337 1.387 . S
C338 C341 1.387 . S
H339 C335 0.950 . S
H340 C337 0.950 . S
C341 C332 1.390 . S
C341 H334 0.950 . S
C341 C338 1.387 . S
C342 C343 1.364 1_655 S
C342 H346 0.950 . S
C342 C351 1.390 . S
C343 C342 1.364 1_455 S
C343 C345 1.411 . S
H344 C351 0.950 . S
C345 C343 1.411 . S
C345 C347 1.390 . S
C345 H349 0.950 . S
H346 C342 0.950 . S
C347 C345 1.390 . S
C347 C348 1.387 . S
C347 H350 0.950 . S
C348 C347 1.387 . S
C348 C351 1.387 1_455 S
H349 C345 0.950 . S
H350 C347 0.950 . S
C351 C342 1.390 . S
C351 H344 0.950 . S
C351 C348 1.387 1_655 S
C352 C353 1.401 . S
C352 H356 0.950 . S
C352 C361 1.390 . S
C353 C352 1.401 . S
C353 C355 1.374 1_565 S
H354 C361 0.950 . S
C355 C353 1.374 1_545 S
C355 C357 1.390 . S
C355 H359 0.950 . S
H356 C352 0.950 . S
C357 C355 1.390 . S
C357 C358 1.387 1_545 S
C357 H360 0.950 . S
C358 C357 1.387 1_565 S
C358 C361 1.387 . S
H359 C355 0.950 . S
H360 C357 0.950 . S
C361 C352 1.390 . S
C361 H354 0.950 . S
C361 C358 1.387 . S
C362 C363 1.387 . S
C362 H366 0.950 . S
C362 C371 1.390 . S
C363 C362 1.387 . S
C363 C365 1.387 . S
H364 C371 0.950 . S
C365 C363 1.387 . S
C365 C367 1.390 . S
C365 H369 0.950 . S
H366 C362 0.950 . S
C367 C365 1.390 . S
C367 C368 1.387 . S
C367 H370 0.950 . S
C368 C367 1.387 . S
C368 C371 1.387 . S
H369 C365 0.950 . S
H370 C367 0.950 . S
C371 C362 1.390 . S
C371 H364 0.950 . S
C371 C368 1.387 . S
C372 C373 1.387 . S
C372 H376 0.950 . S
C372 C381 1.390 . S
C373 C372 1.387 . S
C373 C375 1.387 . S
H374 C381 0.950 . S
C375 C373 1.387 . S
C375 C377 1.390 . S
C375 H379 0.950 . S
H376 C372 0.950 . S
C377 C375 1.390 . S
C377 C378 1.387 . S
C377 H380 0.950 . S
C378 C377 1.387 . S
C378 C381 1.387 . S
H379 C375 0.950 . S
H380 C377 0.950 . S
C381 C372 1.390 . S
C381 H374 0.950 . S
C381 C378 1.387 . S
C382 C383 1.366 1_455 S
C382 H386 0.950 . S
C382 C391 1.390 . S
C383 C382 1.366 1_655 S
C383 C385 1.410 . S
H384 C391 0.950 . S
C385 C383 1.410 . S
C385 C387 1.390 . S
C385 H389 0.950 . S
H386 C382 0.950 . S
C387 C385 1.390 . S
C387 C388 1.387 . S
C387 H390 0.950 . S
C388 C387 1.387 . S
C388 C391 1.387 1_655 S
H389 C385 0.950 . S
H390 C387 0.950 . S
C391 C382 1.390 . S
C391 H384 0.950 . S
C391 C388 1.387 1_455 S
C392 C393 1.388 . S
C392 H396 0.929 1_655 S
C392 C401 1.411 . S
C393 C392 1.388 . S
C393 C395 1.387 . S
H394 C401 0.950 . S
C395 C393 1.387 . S
C395 C397 1.390 . S
C395 H399 0.950 . S
H396 C392 0.929 1_455 S
C397 C395 1.390 . S
C397 C398 1.387 . S
C397 H400 0.950 . S
C398 C397 1.387 . S
C398 C401 1.387 . S
H399 C395 0.950 . S
H400 C397 0.950 . S
C401 C392 1.411 . S
C401 H394 0.950 . S
C401 C398 1.387 . S
C402 C403 1.387 . S
C402 H406 0.950 1_554 S
C402 C411 1.390 . S
C403 C402 1.387 . S
C403 C405 1.387 1_565 S
H404 C411 0.950 . S
C405 C403 1.387 1_545 S
C405 C407 1.390 1_545 S
C405 H409 0.950 . S
H406 C402 0.950 1_556 S
C407 C405 1.390 1_565 S
C407 C408 1.387 . S
C407 H410 0.950 . S
C408 C407 1.387 . S
C408 C411 1.387 . S
H409 C405 0.950 . S
H410 C407 0.950 . S
C411 C402 1.390 . S
C411 H404 0.950 . S
C411 C408 1.387 . S
C412 C413 1.387 . S
C412 H416 0.950 . S
C412 C421 1.390 . S
C413 C412 1.387 . S
C413 C415 1.387 . S
H414 C421 0.950 . S
C415 C413 1.387 . S
C415 C417 1.390 . S
C415 H419 0.950 . S
H416 C412 0.950 . S
C417 C415 1.390 . S
C417 C418 1.387 . S
C417 H420 0.950 . S
C418 C417 1.387 . S
C418 C421 1.387 . S
H419 C415 0.950 . S
H420 C417 0.950 . S
C421 C412 1.390 . S
C421 H414 0.950 . S
C421 C418 1.387 . S
C422 C423 1.387 . S
C422 H426 0.950 . S
C422 C431 1.390 . S
C423 C422 1.387 . S
C423 C425 1.387 . S
H424 C431 0.950 . S
C425 C423 1.387 . S
C425 C427 1.390 . S
C425 H429 0.950 . S
H426 C422 0.950 . S
C427 C425 1.390 . S
C427 C428 1.387 . S
C427 H430 0.950 . S
C428 C427 1.387 . S
C428 C431 1.387 . S
H429 C425 0.950 . S
H430 C427 0.950 . S
C431 C422 1.390 . S
C431 H424 0.950 . S
C431 C428 1.387 . S
C432 C433 1.387 . S
C432 H436 0.950 . S
C432 C441 1.390 . S
C433 C432 1.387 . S
C433 C435 1.387 . S
H434 C441 0.950 . S
C435 C433 1.387 . S
C435 C437 1.390 . S
C435 H439 0.950 1_455 S
H436 C432 0.950 . S
C437 C435 1.390 . S
C437 C438 1.387 . S
C437 H440 0.950 . S
C438 C437 1.387 . S
C438 C441 1.387 . S
H439 C435 0.950 1_655 S
H440 C437 0.950 . S
C441 C432 1.390 . S
C441 H434 0.950 . S
C441 C438 1.387 . S
C442 C443 1.387 . S
C442 H446 0.950 . S
C442 C451 1.390 . S
C443 C442 1.387 . S
C443 C445 1.387 . S
H444 C451 0.950 . S
C445 C443 1.387 . S
C445 C447 1.390 . S
C445 H449 0.950 1_545 S
H446 C442 0.950 . S
C447 C445 1.390 . S
C447 C448 1.387 . S
C447 H450 0.950 . S
C448 C447 1.387 . S
C448 C451 1.387 . S
H449 C445 0.950 1_565 S
H450 C447 0.950 . S
C451 C442 1.390 . S
C451 H444 0.950 . S
C451 C448 1.387 . S
C452 C453 1.387 . S
C452 H456 0.950 . S
C452 C461 1.390 . S
C453 C452 1.387 . S
C453 C455 1.387 . S
H454 C461 0.950 . S
C455 C453 1.387 . S
C455 C457 1.390 . S
C455 H459 0.950 . S
H456 C452 0.950 . S
C457 C455 1.390 . S
C457 C458 1.387 . S
C457 H460 0.950 . S
C458 C457 1.387 . S
C458 C461 1.387 . S
H459 C455 0.950 . S
H460 C457 0.950 . S
C461 C452 1.390 . S
C461 H454 0.950 . S
C461 C458 1.387 . S
C462 C463 1.387 . S
C462 H466 0.950 . S
C462 C471 1.390 . S
C463 C462 1.387 . S
C463 C465 1.387 . S
H464 C471 0.950 . S
C465 C463 1.387 . S
C465 C467 1.390 . S
C465 H469 0.950 . S
H466 C462 0.950 . S
C467 C465 1.390 . S
C467 C468 1.387 . S
C467 H470 0.950 . S
C468 C467 1.387 . S
C468 C471 1.387 . S
H469 C465 0.950 . S
H470 C467 0.950 . S
C471 C462 1.390 . S
C471 H464 0.950 . S
C471 C468 1.387 . S
C472 C473 1.387 1_655 S
C472 H476 0.950 . S
C472 C481 1.390 . S
C473 C472 1.387 1_455 S
C473 C475 1.387 . S
H474 C481 0.950 . S
C475 C473 1.387 . S
C475 C477 1.390 . S
C475 H479 0.950 . S
H476 C472 0.950 . S
C477 C475 1.390 . S
C477 C478 1.387 . S
C477 H480 0.950 . S
C478 C477 1.387 . S
C478 C481 1.387 1_455 S
H479 C475 0.950 . S
H480 C477 0.950 . S
C481 C472 1.390 . S
C481 H474 0.950 . S
C481 C478 1.387 1_655 S
C482 C483 1.387 . S
C482 H486 0.950 . S
C482 C491 1.390 . S
C483 C482 1.387 . S
C483 C485 1.387 1_545 S
H484 C491 0.950 . S
C485 C483 1.387 1_565 S
C485 C487 1.390 . S
C485 H489 0.950 . S
H486 C482 0.950 . S
C487 C485 1.390 . S
C487 C488 1.387 1_565 S
C487 H490 0.950 . S
C488 C487 1.387 1_545 S
C488 C491 1.387 . S
H489 C485 0.950 . S
H490 C487 0.950 . S
C491 C482 1.390 . S
C491 H484 0.950 . S
C491 C488 1.387 . S
C492 C493 1.387 . S
C492 H496 0.950 . S
C492 C501 1.390 . S
C493 C492 1.387 . S
C493 C495 1.387 . S
H494 C501 0.950 . S
C495 C493 1.387 . S
C495 C497 1.390 . S
C495 H499 0.950 . S
H496 C492 0.950 . S
C497 C495 1.390 . S
C497 C498 1.387 . S
C497 H500 0.950 . S
C498 C497 1.387 . S
C498 C501 1.387 . S
H499 C495 0.950 . S
H500 C497 0.950 . S
C501 C492 1.390 . S
C501 H494 0.950 . S
C501 C498 1.387 . S
C502 C503 1.387 . S
C502 H506 0.950 . S
C502 C511 1.390 . S
C503 C502 1.387 . S
C503 C505 1.387 . S
H504 C511 0.950 . S
C505 C503 1.387 . S
C505 C507 1.390 . S
C505 H509 0.950 . S
H506 C502 0.950 . S
C507 C505 1.390 . S
C507 C508 1.387 . S
C507 H510 0.950 . S
C508 C507 1.387 . S
C508 C511 1.387 . S
H509 C505 0.950 . S
H510 C507 0.950 . S
C511 C502 1.390 . S
C511 H504 0.950 . S
C511 C508 1.387 . S
C512 C513 1.387 . S
C512 H516 0.950 . S
C512 C521 1.390 . S
C513 C512 1.387 . S
C513 C515 1.387 1_655 S
H514 C521 0.950 . S
C515 C513 1.387 1_455 S
C515 C517 1.390 . S
C515 H519 0.950 . S
H516 C512 0.950 . S
C517 C515 1.390 . S
C517 C518 1.387 1_455 S
C517 H520 0.950 . S
C518 C517 1.387 1_655 S
C518 C521 1.387 . S
H519 C515 0.950 . S
H520 C517 0.950 . S
C521 C512 1.390 . S
C521 H514 0.950 . S
C521 C518 1.387 . S
C522 C523 1.387 . S
C522 H526 0.950 . S
C522 C531 1.390 . S
C523 C522 1.387 . S
C523 C525 1.387 1_565 S
H524 C531 0.950 . S
C525 C523 1.387 1_545 S
C525 C527 1.390 . S
C525 H529 0.950 . S
H526 C522 0.950 . S
C527 C525 1.390 . S
C527 C528 1.387 1_545 S
C527 H530 0.950 . S
C528 C527 1.387 1_565 S
C528 C531 1.387 . S
H529 C525 0.950 . S
H530 C527 0.950 . S
C531 C522 1.390 . S
C531 H524 0.950 . S
C531 C528 1.387 . S
C532 C533 1.387 . S
C532 H536 0.950 . S
C532 C541 1.390 . S
C533 C532 1.387 . S
C533 C535 1.387 . S
H534 C541 0.950 . S
C535 C533 1.387 . S
C535 C537 1.390 . S
C535 H539 0.950 . S
H536 C532 0.950 . S
C537 C535 1.390 . S
C537 C538 1.387 . S
C537 H540 0.950 . S
C538 C537 1.387 . S
C538 C541 1.387 . S
H539 C535 0.950 . S
H540 C537 0.950 . S
C541 C532 1.390 . S
C541 H534 0.950 . S
C541 C538 1.387 . S
C542 C543 1.387 . S
C542 H546 0.950 . S
C542 C551 1.390 . S
C543 C542 1.387 . S
C543 C545 1.387 . S
H544 C551 0.950 . S
C545 C543 1.387 . S
C545 C547 1.390 . S
C545 H549 0.950 . S
H546 C542 0.950 . S
C547 C545 1.390 . S
C547 C548 1.387 . S
C547 H550 0.950 . S
C548 C547 1.387 . S
C548 C551 1.387 . S
H549 C545 0.950 . S
H550 C547 0.950 . S
C551 C542 1.390 . S
C551 H544 0.950 . S
C551 C548 1.387 . S
C313 C125 2.119 1_545 S
C318 C162 2.167 1_545 S
C328 C202 2.173 . S
C323 C144 2.130 . S
C338 C242 2.174 . S
C333 C87 2.133 . S
C348 C282 2.170 1_455 S
C343 C106 2.121 1_455 S
C358 C171 2.170 1_564 S
C353 C49 2.122 . S
C363 C68 2.114 . S
C368 C211 2.172 1_554 S
C373 C11 2.117 . S
C378 C251 2.173 1_554 S
C383 C30 2.122 . S
C388 C291 2.172 1_654 S
C398 C168 0.812 . S
C393 C97 0.808 . S
C408 C208 0.814 . S
C403 C116 0.815 . S
C418 C248 0.816 . S
C413 C135 0.817 . S
C423 C78 0.818 . S
C428 C288 0.815 . S
C433 C21 0.817 1_455 S
C438 C159 0.823 . S
C448 C199 0.820 . S
C443 C40 0.818 1_545 S
C458 C239 0.812 . S
C453 C59 0.813 . S
C463 C2 0.813 . S
C468 C279 0.820 . S
C473 C101 2.219 1_455 S
C478 C163 2.532 . S
C483 C120 2.216 1_545 S
C488 C203 2.531 . S
C498 C243 2.527 . S
C493 C139 2.212 . S
C508 C283 2.534 . S
C503 C82 2.215 . S
C513 C25 2.220 . S
C518 C154 2.541 . S
C528 C194 2.529 . S
C523 C44 2.212 . S
C538 C234 2.528 . S
C533 C63 2.209 . S
C543 C6 2.218 . S
C548 C274 2.540 . S
