# Generated by pormake.
# Topology anh, (6,3)-cn, num edge types: 1
# Building blocks:
#     Node 0, Type 0, BuildingBlock: INOVEN_clean_sbu_0, # of connection points: 6
#     Node 1, Type 0, BuildingBlock: INOVEN_clean_sbu_0, # of connection points: 6
#     Node 2, Type 0, BuildingBlock: INOVEN_clean_sbu_0, # of connection points: 6
#     Node 3, Type 1, BuildingBlock: CUQRIR_clean_linker_1, # of connection points: 3
#     Node 4, Type 1, BuildingBlock: CUQRIR_clean_linker_1, # of connection points: 3
#     Node 5, Type 1, BuildingBlock: CUQRIR_clean_linker_1, # of connection points: 3
#     Node 6, Type 1, BuildingBlock: CUQRIR_clean_linker_1, # of connection points: 3
#     Node 7, Type 1, BuildingBlock: CUQRIR_clean_linker_1, # of connection points: 3
#     Node 8, Type 1, BuildingBlock: CUQRIR_clean_linker_1, # of connection points: 3
#     Edge 9, Type (0, 1), BuildingBlock: XIVTED_clean_linker_0, # of connection points: 2
#     Edge 10, Type (0, 1), BuildingBlock: XIVTED_clean_linker_0, # of connection points: 2
#     Edge 11, Type (0, 1), BuildingBlock: XIVTED_clean_linker_0, # of connection points: 2
#     Edge 12, Type (0, 1), BuildingBlock: XIVTED_clean_linker_0, # of connection points: 2
#     Edge 13, Type (0, 1), BuildingBlock: XIVTED_clean_linker_0, # of connection points: 2
#     Edge 14, Type (0, 1), BuildingBlock: XIVTED_clean_linker_0, # of connection points: 2
#     Edge 15, Type (0, 1), BuildingBlock: XIVTED_clean_linker_0, # of connection points: 2
#     Edge 16, Type (0, 1), BuildingBlock: XIVTED_clean_linker_0, # of connection points: 2
#     Edge 17, Type (0, 1), BuildingBlock: XIVTED_clean_linker_0, # of connection points: 2
#     Edge 18, Type (0, 1), BuildingBlock: XIVTED_clean_linker_0, # of connection points: 2
#     Edge 19, Type (0, 1), BuildingBlock: XIVTED_clean_linker_0, # of connection points: 2
#     Edge 20, Type (0, 1), BuildingBlock: XIVTED_clean_linker_0, # of connection points: 2
#     Edge 21, Type (0, 1), BuildingBlock: XIVTED_clean_linker_0, # of connection points: 2
#     Edge 22, Type (0, 1), BuildingBlock: XIVTED_clean_linker_0, # of connection points: 2
#     Edge 23, Type (0, 1), BuildingBlock: XIVTED_clean_linker_0, # of connection points: 2
#     Edge 24, Type (0, 1), BuildingBlock: XIVTED_clean_linker_0, # of connection points: 2
#     Edge 25, Type (0, 1), BuildingBlock: XIVTED_clean_linker_0, # of connection points: 2
#     Edge 26, Type (0, 1), BuildingBlock: XIVTED_clean_linker_0, # of connection points: 2
# Relax obj value: 0.202
# Max RMSD: 0.219
# Mean RMSD: 0.168
data_MOF--net-anh--node1-INOVEN_clean_sbu_0--node2-CUQRIR_clean_linker_1--edge1-XIVTED_clean_linker_0
_symmetry_space_group_name_H-M    P1
_symmetry_Int_Tables_number       1
_symmetry_cell_setting            triclinic
loop_
_symmetry_equiv_pos_as_xyz
'x, y, z'
_cell_length_a     30.256866
_cell_length_b     35.647226
_cell_length_c     46.849356
_cell_angle_alpha  88.704445
_cell_angle_beta   90.98554
_cell_angle_gamma 130.61918
loop_
_atom_site_label
_atom_site_type_symbol
_atom_site_fract_x
_atom_site_fract_y
_atom_site_fract_z
_atom_type_partial_charge
Gd0 Gd 0.1595 0.51522 0.15058 0.0
Gd1 Gd 0.09326 0.54699 0.15483 0.0
C2 C 0.22846 0.63216 0.1576 0.0
C3 C 0.22423 0.49439 0.13889 0.0
C4 C 0.21379 0.44804 0.14098 0.0
C5 C 0.15783 0.40227 0.13661 0.0
C6 C 0.25956 0.44928 0.14872 0.0
C7 C 0.1943 0.35949 0.14656 0.0
C8 C 0.24996 0.40542 0.15149 0.0
C9 C 0.14823 0.35833 0.13923 0.0
C10 C 0.12505 0.50982 0.20446 0.0
C11 C 1.02243 0.42778 0.15318 0.0
C12 C 1.02001 0.55958 0.16442 0.0
C13 C 0.96372 0.53771 0.15119 0.0
C14 C 0.95324 0.5238 0.12244 0.0
C15 C 0.91893 0.52772 0.16769 0.0
C16 C 0.85305 0.48933 0.12687 0.0
C17 C 0.86396 0.50362 0.15567 0.0
C18 C 0.89853 0.50015 0.11033 0.0
C19 C 0.12397 0.54844 0.1004 0.0
O20 O 0.2291 0.59953 0.14507 0.0
O21 O 0.17962 0.61721 0.16892 0.0
O22 O 0.19404 0.4963 0.1195 0.0
O23 O 0.22684 0.51284 0.16326 0.0
O24 O 0.12509 0.47695 0.19331 0.0
O25 O 0.14518 0.54516 0.18707 0.0
O26 O 1.02092 0.4632 0.1587 0.0
O27 O 0.07196 0.43897 0.14635 0.0
O28 O 0.06546 0.58907 0.148 0.0
O29 O 1.02135 0.52899 0.17942 0.0
O30 O 0.1254 0.58222 0.11115 0.0
O31 O 0.10463 0.51439 0.1186 0.0
H32 H 0.12163 0.40045 0.13101 0.0
H33 H 0.30284 0.48421 0.15242 0.0
H34 H 0.28666 0.40766 0.1566 0.0
H35 H 0.10495 0.32354 0.13536 0.0
H36 H 0.98718 0.53069 0.10939 0.0
H37 H 0.92612 0.53763 0.19001 0.0
H38 H 0.82966 0.49506 0.16918 0.0
H39 H 0.8919 0.49025 0.08804 0.0
Gd40 Gd 0.72418 0.08207 0.47428 0.0
Gd41 Gd 0.64895 0.10717 0.46238 0.0
C42 C 0.58379 0.99311 0.46383 0.0
C43 C 0.76881 0.04593 0.49628 0.0
C44 C 0.74947 0.99762 0.5061 0.0
C45 C 0.71354 0.95532 0.48918 0.0
C46 C 0.76856 0.99412 0.53271 0.0
C47 C 0.7186 0.90725 0.52487 0.0
C48 C 0.75315 0.94945 0.54206 0.0
C49 C 0.69845 0.91066 0.49843 0.0
C50 C 0.71696 0.09846 0.41854 0.0
C51 C 0.79135 0.19716 0.46761 0.0
C52 C 0.60386 0.14534 0.44509 0.0
C53 C 0.61518 0.19062 0.45289 0.0
C54 C 0.65088 0.21799 0.47639 0.0
C55 C 0.58937 0.20611 0.43747 0.0
C56 C 0.63321 0.27527 0.4697 0.0
C57 C 0.59836 0.24814 0.44575 0.0
C58 C 0.65966 0.25977 0.48478 0.0
C59 C 0.65631 0.09064 0.51814 0.0
O60 O 0.63152 1.00675 0.47688 0.0
O61 O 0.58349 0.02666 0.45147 0.0
O62 O 0.76697 0.0523 0.46881 0.0
O63 O 0.75209 0.06495 0.5116 0.0
O64 O 0.76405 0.11142 0.43052 0.0
O65 O 0.67533 0.07491 0.43601 0.0
O66 O 0.74004 0.18268 0.45977 0.0
O67 O 0.79634 0.16481 0.4771 0.0
O68 O 0.58128 0.11169 0.46532 0.0
O69 O 0.64582 0.15177 0.43151 0.0
O70 O 0.60933 0.07698 0.50589 0.0
O71 O 0.69818 0.11499 0.50081 0.0
H72 H 0.69782 0.95687 0.46862 0.0
H73 H 0.79594 0.02619 0.5462 0.0
H74 H 0.76849 0.94809 0.56279 0.0
H75 H 0.67228 0.8792 0.48445 0.0
H76 H 0.67117 0.2065 0.48856 0.0
H77 H 0.56189 0.18549 0.41918 0.0
H78 H 0.57803 0.25937 0.43338 0.0
H79 H 0.68599 0.2791 0.50356 0.0
Gd80 Gd 0.61453 0.61271 0.85154 0.0
Gd81 Gd 0.53008 0.50473 0.84654 0.0
C82 C 0.46804 0.55538 0.8514 0.0
C83 C 0.67423 0.70626 0.84094 0.0
C84 C 0.66405 0.74031 0.83252 0.0
C85 C 0.70904 0.79134 0.83563 0.0
C86 C 0.61152 0.72291 0.81969 0.0
C87 C 0.6501 0.80758 0.81223 0.0
C88 C 0.60455 0.75618 0.8097 0.0
C89 C 0.7022 0.82463 0.82563 0.0
C90 C 0.58119 0.56274 0.90157 0.0
C91 C 0.67665 0.56164 0.85079 0.0
C92 C 0.47576 0.41128 0.85196 0.0
C93 C 0.49056 0.38093 0.8437 0.0
C94 C 0.53414 0.39874 0.82342 0.0
C95 C 0.4625 0.33459 0.85666 0.0
C96 C 0.52105 0.32376 0.82888 0.0
C97 C 0.47751 0.30623 0.84932 0.0
C98 C 0.54911 0.37045 0.81604 0.0
C99 C 0.56311 0.55324 0.7959 0.0
O100 O 0.52408 0.59727 0.84747 0.0
O101 O 0.45966 0.51339 0.85445 0.0
O102 O 0.65889 0.68703 0.86674 0.0
O103 O 0.66118 0.67436 0.8217 0.0
O104 O 0.6347 0.60244 0.89648 0.0
O105 O 0.54897 0.55335 0.88065 0.0
O106 O 0.62004 0.51974 0.85042 0.0
O107 O 0.68631 0.60429 0.85027 0.0
O108 O 0.46617 0.43003 0.83096 0.0
O109 O 0.50817 0.44313 0.87212 0.0
O110 O 0.51026 0.51382 0.80172 0.0
O111 O 0.5961 0.56387 0.81679 0.0
H112 H 0.74997 0.80555 0.84541 0.0
H113 H 0.57633 0.68367 0.81681 0.0
H114 H 0.56403 0.74163 0.7993 0.0
H115 H 0.73784 0.86379 0.82842 0.0
H116 H 0.55661 0.43458 0.81326 0.0
H117 H 0.4292 0.32045 0.87259 0.0
H118 H 0.45556 0.27088 0.85999 0.0
H119 H 0.58222 0.38499 0.79995 0.0
C120 C 0.63045 0.03062 0.16897 0.0
N121 N 0.66521 0.06942 0.1871 0.0
N122 N 0.58427 0.98948 0.18313 0.0
C123 C 0.63942 0.03357 0.13734 0.0
C124 C 0.5925 1.00464 0.21039 0.0
N125 N 0.6408 0.05277 0.21276 0.0
C126 C 0.55465 0.97158 0.23514 0.0
H127 H 0.65815 0.07057 0.12881 0.0
H128 H 0.59786 1.00458 0.1262 0.0
H129 H 0.67055 0.02781 0.13302 0.0
H130 H 0.53225 0.93234 0.23083 0.0
H131 H 0.52123 0.975 0.23863 0.0
H132 H 0.58069 0.9826 0.25502 0.0
C133 C 0.65933 0.57738 0.54734 0.0
N134 N 0.65916 0.60185 0.56901 0.0
N135 N 0.66015 0.54205 0.55768 0.0
C136 C 0.66256 0.58998 0.51617 0.0
C137 C 0.6606 0.54593 0.58638 0.0
N138 N 0.66064 0.58264 0.59328 0.0
C139 C 0.65604 0.51118 0.60757 0.0
H140 H 0.61784 0.57047 0.50798 0.0
H141 H 0.68236 0.57816 0.50367 0.0
H142 H 0.68834 0.63029 0.51297 0.0
H143 H 0.70038 0.52804 0.61515 0.0
H144 H 0.63603 0.47518 0.59775 0.0
H145 H 0.62978 0.50463 0.62633 0.0
C146 C 0.07517 0.56093 0.85045 0.0
N147 N 0.10806 0.55349 0.86756 0.0
N148 N 1.02918 0.55371 0.86491 0.0
C149 C 0.087 0.57407 0.81942 0.0
C150 C 1.03717 0.5425 0.89143 0.0
N151 N 0.08226 0.5421 0.89295 0.0
C152 C 1.00225 0.53462 0.91707 0.0
H153 H 0.12511 0.61407 0.81711 0.0
H154 H 1.04891 0.5663 0.8086 0.0
H155 H 0.09801 0.55326 0.80924 0.0
H156 H 0.96629 0.49436 0.92043 0.0
H157 H 0.98325 0.55253 0.91406 0.0
H158 H 1.02946 0.54958 0.93667 0.0
C159 C 0.18814 0.59251 0.45295 0.0
N160 N 0.14776 0.55616 0.43455 0.0
N161 N 0.22665 0.63668 0.43891 0.0
C162 C 0.18808 0.58573 0.48467 0.0
C163 C 0.20847 0.62579 0.41145 0.0
N164 N 0.16057 0.57752 0.40882 0.0
C165 C 0.24029 0.66183 0.38678 0.0
H166 H 0.14283 0.55822 0.49273 0.0
H167 H 0.21093 0.6213 0.49574 0.0
H168 H 0.21112 0.57174 0.48963 0.0
H169 H 0.23715 0.64292 0.36738 0.0
H170 H 0.28696 0.69192 0.39194 0.0
H171 H 0.22024 0.67851 0.38197 0.0
C172 C 0.61114 0.08214 0.76977 0.0
N173 N 0.62479 0.06382 0.74999 0.0
N174 N 0.61744 0.12091 0.75882 0.0
C175 C 0.59547 0.06452 0.80031 0.0
C176 C 0.63557 0.12567 0.73172 0.0
N177 N 0.64081 0.09149 0.72645 0.0
C178 C 0.64284 0.16066 0.70961 0.0
H179 H 0.54787 0.03325 0.80172 0.0
H180 H 0.60674 0.0944 0.8143 0.0
H181 H 0.61832 0.05147 0.80812 0.0
H182 H 0.68949 0.19442 0.70855 0.0
H183 H 0.61706 0.17155 0.71505 0.0
H184 H 0.6292 0.1437 0.6882 0.0
C185 C 0.39711 0.24521 0.08112 0.0
N186 N 0.44052 0.27975 0.06324 0.0
N187 N 0.34753 0.23725 0.07537 0.0
C188 C 0.40437 0.22117 0.10535 0.0
C189 C 0.36231 0.2676 0.05253 0.0
N190 N 0.41855 0.29313 0.04517 0.0
C191 C 0.32533 0.27916 0.04104 0.0
H192 H 0.36148 0.18705 0.11297 0.0
H193 H 0.42769 0.24721 0.12331 0.0
H194 H 0.43127 0.21212 0.09828 0.0
H195 H 0.31065 0.28875 0.05882 0.0
H196 H 0.28611 0.24596 0.03051 0.0
H197 H 0.34869 0.31032 0.02545 0.0
H198 H 0.13495 0.28521 0.10751 0.0
H199 H 0.364 0.26337 0.13071 0.0
H200 H 0.23647 0.33018 0.18485 0.0
H201 H 0.23088 0.17917 0.06642 0.0
H202 H 0.29844 0.26382 0.15894 0.0
H203 H 0.14719 0.22508 0.09974 0.0
C204 C 0.15823 0.28133 0.12338 0.0
C205 C 0.18668 0.31402 0.14629 0.0
C206 C 0.28241 0.24379 0.1391 0.0
C207 C 0.20193 0.24605 0.1372 0.0
C208 C 0.31991 0.24289 0.12305 0.0
C209 C 0.30331 0.22209 0.09581 0.0
C210 C 0.22908 0.22601 0.12717 0.0
C211 C 0.24578 0.19693 0.08696 0.0
C212 C 0.16531 0.24694 0.11891 0.0
C213 C 0.21581 0.30698 0.16628 0.0
N214 N 0.21133 0.20126 0.10205 0.0
N215 N 0.22397 0.27465 0.1609 0.0
H216 H 0.79743 0.27318 0.44689 0.0
H217 H 0.145 0.48755 0.46374 0.0
H218 H 0.90673 0.24487 0.4811 0.0
H219 H 1.03522 0.50757 0.42011 0.0
H220 H 0.05883 0.40034 0.47323 0.0
H221 H 0.8836 0.35998 0.43994 0.0
C222 C 0.83948 0.28507 0.45309 0.0
C223 C 0.84427 0.25102 0.46461 0.0
C224 C 1.05349 0.42378 0.46163 0.0
C225 C 0.94438 0.35174 0.45657 0.0
C226 C 0.10267 0.47364 0.45637 0.0
C227 C 0.09731 0.50494 0.44114 0.0
C228 C 0.99823 0.40494 0.45176 0.0
C229 C 1.04143 0.48472 0.43172 0.0
C230 C 0.88895 0.33495 0.44902 0.0
C231 C 0.9005 0.2694 0.47215 0.0
N232 N 0.99436 0.43634 0.4372 0.0
N233 N 0.94812 0.31827 0.468 0.0
H234 H 0.55376 0.80038 0.81342 0.0
H235 H 0.71465 0.06662 0.74006 0.0
H236 H 0.73186 0.89649 0.78439 0.0
H237 H 0.53774 0.9712 0.7699 0.0
H238 H 0.7197 1.0022 0.75276 0.0
H239 H 0.54509 0.86002 0.79487 0.0
C240 C 0.59098 0.83382 0.80298 0.0
C241 C 0.64375 0.84333 0.80066 0.0
C242 C 0.67958 0.99512 0.75639 0.0
C243 C 0.63419 0.91229 0.77946 0.0
C244 C 0.67666 0.03173 0.74893 0.0
C245 C 0.62593 0.02419 0.75422 0.0
C246 C 0.63129 0.9506 0.7692 0.0
C247 C 0.57791 0.97857 0.76594 0.0
C248 C 0.58605 0.86804 0.79248 0.0
C249 C 0.6906 0.88779 0.78718 0.0
N250 N 0.58185 0.94365 0.77321 0.0
N251 N 0.68475 0.92052 0.77717 0.0
H252 H 0.77564 0.50337 0.13644 0.0
H253 H 0.52452 0.29043 0.03381 0.0
H254 H 0.7957 0.41284 0.08888 0.0
H255 H 0.49333 0.33933 0.1079 0.0
H256 H 0.62902 0.34519 0.04672 0.0
H257 H 0.67601 0.45382 0.11872 0.0
C258 C 0.75917 0.47307 0.12232 0.0
C259 C 0.79397 0.46191 0.11448 0.0
C260 C 0.59909 0.34369 0.06013 0.0
C261 C 0.68026 0.40566 0.09371 0.0
C262 C 0.54 0.31263 0.0528 0.0
C263 C 0.50116 0.31025 0.07022 0.0
C264 C 0.61874 0.37294 0.08461 0.0
C265 C 0.52242 0.33985 0.09441 0.0
C266 C 0.7024 0.44498 0.1121 0.0
C267 C 0.77066 0.42304 0.09538 0.0
N268 N 0.57985 0.37014 0.10087 0.0
N269 N 0.71507 0.39613 0.0857 0.0
H270 H 0.47565 0.9533 0.44367 0.0
H271 H 0.32698 0.66808 0.46463 0.0
H272 H 0.56799 0.91021 0.48157 0.0
H273 H 0.23628 0.71723 0.43556 0.0
H274 H 0.41461 0.755 0.47324 0.0
H275 H 0.38776 0.86654 0.44172 0.0
C276 C 0.47765 0.92566 0.45159 0.0
C277 C 0.52986 0.93959 0.46273 0.0
C278 C 0.37528 0.74674 0.46539 0.0
C279 C 0.42799 0.83882 0.46055 0.0
C280 C 0.32518 0.69713 0.46078 0.0
C281 C 0.27427 0.68554 0.44958 0.0
C282 C 0.37448 0.78504 0.45856 0.0
C283 C 0.27455 0.72463 0.44436 0.0
C284 C 0.42707 0.87582 0.45055 0.0
C285 C 0.52897 0.90151 0.47277 0.0
N286 N 0.32369 0.77234 0.44864 0.0
N287 N 0.4791 0.85303 0.47132 0.0
H288 H 0.62959 0.35558 0.81668 0.0
H289 H 0.51577 0.08544 0.78273 0.0
H290 H 0.44909 0.2228 0.82265 0.0
H291 H 0.68951 0.21999 0.76446 0.0
H292 H 0.49248 0.1343 0.80208 0.0
H293 H 0.65411 0.30597 0.8016 0.0
C294 C 0.59497 0.31603 0.81473 0.0
C295 C 0.53699 0.29356 0.8208 0.0
C296 C 0.53582 0.15322 0.79399 0.0
C297 C 0.56517 0.2362 0.80388 0.0
C298 C 0.54909 0.12532 0.78316 0.0
C299 C 0.60453 0.14893 0.77207 0.0
C300 C 0.57846 0.20512 0.79382 0.0
C301 C 0.64622 0.20065 0.77274 0.0
C302 C 0.60914 0.28765 0.80626 0.0
C303 C 0.49444 0.24188 0.81851 0.0
N304 N 0.63235 0.22705 0.78337 0.0
N305 N 0.50934 0.21505 0.81017 0.0
H306 H 0.61755 0.81108 0.51689 0.0
H307 H 0.74079 0.69112 0.59233 0.0
H308 H 0.78969 0.89646 0.55373 0.0
H309 H 0.5867 0.60873 0.53985 0.0
H310 H 0.75237 0.76542 0.58432 0.0
H311 H 0.59934 0.73534 0.53019 0.0
C312 C 0.65159 0.81405 0.52773 0.0
C313 C 0.70541 0.86052 0.53405 0.0
C314 C 0.7158 0.73107 0.57465 0.0
C315 C 0.68431 0.77366 0.54976 0.0
C316 C 0.70908 0.68878 0.57941 0.0
C317 C 0.66306 0.64426 0.56653 0.0
C318 C 0.67592 0.7286 0.55701 0.0
C319 C 0.62311 0.64276 0.5498 0.0
C320 C 0.64098 0.7707 0.53546 0.0
C321 C 0.74726 0.8617 0.5487 0.0
N322 N 0.63055 0.68441 0.5454 0.0
N323 N 0.73587 0.81902 0.55597 0.0
H324 H 0.6772 0.48098 0.85602 0.0
H325 H 1.03405 0.63374 0.84819 0.0
H326 H 0.80283 0.63905 0.84744 0.0
H327 H 0.90743 0.47862 0.86767 0.0
H328 H 0.95387 0.63646 0.84473 0.0
H329 H 0.75788 0.47935 0.85753 0.0
C330 C 0.72132 0.51587 0.8544 0.0
C331 C 0.72971 0.56032 0.85163 0.0
C332 C 0.94275 0.60132 0.84937 0.0
C333 C 0.82862 0.55853 0.85317 0.0
C334 C 0.98974 0.59957 0.85101 0.0
C335 C 0.98043 0.55534 0.85731 0.0
C336 C 0.88285 0.55864 0.85411 0.0
C337 C 0.91956 0.5138 0.86189 0.0
C338 C 0.7687 0.5148 0.85528 0.0
C339 C 0.79082 0.60316 0.84967 0.0
N340 N 0.87528 0.51655 0.8601 0.0
N341 N 0.83576 0.60102 0.85038 0.0
H342 H 0.2376 0.7088 0.17717 0.0
H343 H 0.58435 0.92093 0.15851 0.0
H344 H 0.3418 0.67894 0.14084 0.0
H345 H 0.47118 0.94666 0.18569 0.0
H346 H 0.49803 0.83352 0.14983 0.0
H347 H 0.32365 0.7961 0.17942 0.0
C348 C 0.2786 0.72046 0.16965 0.0
C349 C 0.28197 0.68588 0.15887 0.0
C350 C 0.492 0.85843 0.15731 0.0
C351 C 0.38213 0.78732 0.16142 0.0
C352 C 0.54124 0.90838 0.16197 0.0
C353 C 0.53478 0.94107 0.17265 0.0
C354 C 0.4359 0.84103 0.16356 0.0
C355 C 0.47799 0.92271 0.17734 0.0
C356 C 0.32801 0.77069 0.17087 0.0
C357 C 0.33682 0.70397 0.14937 0.0
N358 N 0.43112 0.87419 0.17301 0.0
N359 N 0.38464 0.75324 0.15098 0.0
H360 H 0.73108 0.36211 0.49226 0.0
H361 H 0.57871 0.47606 0.51961 0.0
H362 H 0.55217 0.28738 0.46988 0.0
H363 H 0.73805 0.52858 0.56049 0.0
H364 H 0.57396 0.41315 0.49517 0.0
H365 H 0.73988 0.42972 0.51165 0.0
C366 C 0.69357 0.35978 0.49142 0.0
C367 C 0.64058 0.31853 0.4796 0.0
C368 C 0.61014 0.43856 0.50938 0.0
C369 C 0.65082 0.39651 0.50143 0.0
C370 C 0.6129 0.47444 0.52312 0.0
C371 C 0.65874 0.50708 0.54197 0.0
C372 C 0.65385 0.43574 0.51443 0.0
C373 C 0.70196 0.50367 0.54615 0.0
C374 C 0.69877 0.39859 0.50239 0.0
C375 C 0.59404 0.31845 0.4785 0.0
N376 N 0.69849 0.46857 0.53251 0.0
N377 N 0.6002 0.3567 0.48936 0.0
H378 H 0.34792 0.47993 0.86806 0.0
H379 H 0.21712 0.62379 0.83867 0.0
H380 H 0.45887 0.6307 0.83837 0.0
H381 H 0.12241 0.48562 0.88447 0.0
H382 H 0.30058 0.62558 0.83472 0.0
H383 H 0.26626 0.47996 0.87076 0.0
C384 C 0.35628 0.51349 0.8619 0.0
C385 C 0.414 0.55538 0.85291 0.0
C386 C 0.26165 0.59444 0.84558 0.0
C387 C 0.31389 0.55543 0.8558 0.0
C388 C 0.2124 0.59315 0.84769 0.0
C389 C 0.15897 0.55415 0.8619 0.0
C390 C 0.26044 0.55624 0.85735 0.0
C391 C 0.16041 0.51701 0.87325 0.0
C392 C 0.30813 0.5134 0.86354 0.0
C393 C 0.41742 0.59676 0.84556 0.0
N394 N 0.20809 0.51898 0.87062 0.0
N395 N 0.36989 0.59547 0.84701 0.0
H396 H 0.91394 0.38975 0.17149 0.0
H397 H 0.7637 0.10317 0.15913 0.0
H398 H 1.0061 0.34351 0.14209 0.0
H399 H 0.68304 0.15222 0.19978 0.0
H400 H 0.85025 0.1901 0.14936 0.0
H401 H 0.82703 0.30291 0.1786 0.0
C402 C 0.91601 0.36145 0.16634 0.0
C403 C 0.96797 0.37451 0.15613 0.0
C404 C 0.81362 0.18193 0.16038 0.0
C405 C 0.86754 0.27395 0.16437 0.0
C406 C 0.7641 0.13226 0.1658 0.0
C407 C 0.71606 0.12039 0.18031 0.0
C408 C 0.81515 0.22025 0.16933 0.0
C409 C 0.71926 0.15968 0.18879 0.0
C410 C 0.86616 0.31165 0.17052 0.0
C411 C 0.96735 0.33563 0.14998 0.0
N412 N 0.76762 0.20756 0.18316 0.0
N413 N 0.91821 0.28741 0.15417 0.0
H414 H 0.07883 0.46594 0.06883 0.0
H415 H 0.17989 0.61694 0.92006 0.0
H416 H 0.18083 0.62354 0.06133 0.0
H417 H 1.032 0.46178 0.92725 0.0
H418 H 0.20088 0.61744 0.97106 0.0
H419 H 0.07977 0.46182 0.01643 0.0
C420 C 0.10214 0.4997 0.05619 0.0
C421 C 0.12927 0.5451 0.06935 0.0
C422 C 0.16465 0.58295 0.96137 0.0
C423 C 0.13117 0.54078 0.00968 0.0
C424 C 0.1533 0.58263 0.93225 0.0
C425 C 0.10451 0.53925 0.91964 0.0
C426 C 0.1269 0.53946 0.97792 0.0
C427 C 0.0703 0.49578 0.93635 0.0
C428 C 0.10255 0.49733 0.02634 0.0
C429 C 0.15885 0.58773 0.052 0.0
N430 N 0.08171 0.49703 0.96473 0.0
N431 N 0.15888 0.58453 0.02313 0.0
H432 H 0.62112 0.07279 0.39066 0.0
H433 H 0.59496 0.08125 0.24494 0.0
H434 H 0.79714 0.1332 0.37614 0.0
H435 H 0.73586 0.08009 0.24113 0.0
H436 H 0.61773 0.10429 0.29523 0.0
H437 H 0.60766 0.07393 0.33938 0.0
C438 C 0.65727 0.08704 0.37661 0.0
C439 C 0.71021 0.10273 0.38762 0.0
C440 C 0.64392 0.09911 0.28358 0.0
C441 C 0.69583 0.10538 0.32858 0.0
C442 C 0.63162 0.08705 0.25477 0.0
C443 C 0.66369 0.07891 0.23921 0.0
C444 C 0.68786 0.10186 0.29706 0.0
C445 C 0.71054 0.08641 0.25261 0.0
C446 C 0.64987 0.08829 0.34722 0.0
C447 C 0.75556 0.12068 0.36847 0.0
N448 N 0.72081 0.09683 0.28095 0.0
N449 N 0.7471 0.12094 0.33984 0.0
H450 H 0.67467 0.61092 0.77555 0.0
H451 H 0.57273 0.57671 0.61221 0.0
H452 H 0.49782 0.53583 0.74915 0.0
H453 H 0.73261 0.61146 0.63837 0.0
H454 H 0.55331 0.5812 0.6622 0.0
H455 H 0.70466 0.63024 0.7253 0.0
C456 C 0.64236 0.59918 0.7592 0.0
C457 C 0.58357 0.5712 0.76638 0.0
C458 C 0.5931 0.58858 0.65699 0.0
C459 C 0.61746 0.59324 0.70909 0.0
C460 C 0.60426 0.58639 0.62854 0.0
C461 C 0.654 0.59345 0.62151 0.0
C462 C 0.63223 0.59812 0.67843 0.0
C463 C 0.69358 0.60548 0.64323 0.0
C464 C 0.65943 0.61006 0.73057 0.0
C465 C 0.54348 0.55701 0.74444 0.0
N466 N 0.68166 0.60705 0.67082 0.0
N467 N 0.56107 0.5679 0.71677 0.0
H468 H 0.75411 0.14114 0.55231 0.0
H469 H 0.56574 1.00969 0.69531 0.0
H470 H 0.56745 0.0254 0.55426 0.0
H471 H 0.73773 0.15236 0.69443 0.0
H472 H 0.57417 1.00255 0.64399 0.0
H473 H 0.75637 0.13428 0.60466 0.0
C474 C 0.71379 0.11391 0.56372 0.0
C475 C 0.66043 0.08426 0.54909 0.0
C476 C 0.61062 0.03501 0.65511 0.0
C477 C 0.66268 0.07577 0.60859 0.0
C478 C 0.60597 0.03871 0.68437 0.0
C479 C 0.65109 0.08162 0.69881 0.0
C480 C 0.66088 0.07455 0.64032 0.0
C481 C 0.70216 0.11876 0.6838 0.0
C482 C 0.71506 0.11004 0.59353 0.0
C483 C 0.60944 0.04942 0.56481 0.0
N484 N 0.70551 0.11469 0.65525 0.0
N485 N 0.61178 0.04627 0.59366 0.0
H486 H 0.64619 0.56748 0.94569 0.0
H487 H 0.40067 0.28564 0.9887 0.0
H488 H 0.47185 0.47685 0.91123 0.0
H489 H 0.50698 0.39093 0.05493 0.0
H490 H 0.4448 0.35427 0.95406 0.0
H491 H 0.61194 0.50208 0.98178 0.0
C492 C 0.60085 0.53409 0.94583 0.0
C493 C 0.56187 0.52721 0.9253 0.0
C494 C 0.45915 0.3622 0.97612 0.0
C495 C 0.52344 0.45259 0.96551 0.0
C496 C 0.43439 0.32325 -0.00433 0.0
C497 C 0.45084 0.33285 0.02443 0.0
C498 C 0.50128 0.41104 0.98537 0.0
C499 C 0.49422 0.38212 0.03278 0.0
C500 C 0.58152 0.49694 0.96626 0.0
C501 C 0.50353 0.48341 0.92643 0.0
N502 N 0.51813 0.41963 0.01328 0.0
N503 N 0.48629 0.44746 0.94587 0.0
H504 H 0.10702 0.44706 0.24658 0.0
H505 H 0.11119 0.59898 0.37138 0.0
H506 H 0.1219 0.57483 0.23218 0.0
H507 H 0.15034 0.50365 0.38531 0.0
H508 H 0.08919 0.57455 0.32116 0.0
H509 H 0.09947 0.45311 0.29798 0.0
C510 C 0.10818 0.47615 0.25424 0.0
C511 C 0.11586 0.51094 0.23519 0.0
C512 C 0.1015 0.55819 0.33528 0.0
C513 C 0.10663 0.51769 0.29385 0.0
C514 C 0.1135 0.57178 0.36387 0.0
C515 C 0.13293 0.55348 0.38216 0.0
C516 C 0.10884 0.52588 0.32497 0.0
C517 C 0.13534 0.51836 0.37172 0.0
C518 C 0.10388 0.47954 0.28355 0.0
C519 C 0.11667 0.54761 0.2462 0.0
N520 N 0.12421 0.50611 0.34363 0.0
N521 N 0.11239 0.55017 0.27484 0.0
loop_
_geom_bond_atom_site_label_1
_geom_bond_atom_site_label_2
_geom_bond_distance
_geom_bond_site_symmetry_2
_ccdc_geom_bond_type
Gd0 C3 2.818 . S
Gd0 O20 2.377 . S
Gd0 O22 2.448 . S
Gd0 O23 2.506 . S
Gd0 O24 2.435 . S
Gd0 O25 2.717 1_455 S
Gd0 O27 2.395 1_455 S
Gd0 O31 2.327 . S
Gd1 C12 2.818 . S
Gd1 O21 2.395 1_655 S
Gd1 O25 2.327 . S
Gd1 O26 2.377 . S
Gd1 O28 2.448 . S
Gd1 O29 2.506 . S
Gd1 O30 2.435 . S
Gd1 O31 2.717 1_655 S
C2 O20 1.240 . S
C2 O21 1.240 . S
C3 Gd0 2.818 . S
C3 C4 1.510 . S
C3 O22 1.249 . S
C3 O23 1.252 . S
C4 C3 1.510 . S
C4 C5 1.404 . S
C4 C6 1.352 . S
C5 C4 1.404 . S
C5 C9 1.389 . S
C5 H32 0.930 . S
C6 C4 1.352 . S
C6 C8 1.374 . S
C6 H33 0.931 . S
C7 C8 1.359 . S
C7 C9 1.364 . S
C8 C6 1.374 . S
C8 C7 1.359 . S
C8 H34 0.931 . S
C9 C5 1.389 . S
C9 C7 1.364 . S
C9 H35 0.931 . S
C10 O24 1.256 . S
C10 O25 1.257 1_455 S
C11 O26 1.240 . S
C11 O27 1.240 . S
C12 Gd1 2.818 . S
C12 C13 1.510 . S
C12 O28 1.249 . S
C12 O29 1.252 . S
C13 C12 1.510 . S
C13 C14 1.404 . S
C13 C15 1.352 . S
C14 C13 1.404 . S
C14 C18 1.389 . S
C14 H36 0.930 . S
C15 C13 1.352 . S
C15 C17 1.374 . S
C15 H37 0.931 . S
C16 C17 1.359 . S
C16 C18 1.364 . S
C17 C15 1.374 . S
C17 C16 1.359 . S
C17 H38 0.931 . S
C18 C14 1.389 . S
C18 C16 1.364 . S
C18 H39 0.931 . S
C19 O30 1.256 1_455 S
C19 O31 1.257 . S
O20 Gd0 2.377 . S
O20 C2 1.240 . S
O21 Gd1 2.395 1_455 S
O21 C2 1.240 . S
O22 Gd0 2.448 . S
O22 C3 1.249 . S
O23 Gd0 2.506 . S
O23 C3 1.252 . S
O24 Gd0 2.435 . S
O24 C10 1.256 . S
O25 Gd0 2.717 1_655 S
O25 Gd1 2.327 . S
O25 C10 1.257 1_655 S
O26 Gd1 2.377 . S
O26 C11 1.240 . S
O27 Gd0 2.395 1_655 S
O27 C11 1.240 . S
O28 Gd1 2.448 . S
O28 C12 1.249 . S
O29 Gd1 2.506 . S
O29 C12 1.252 . S
O30 Gd1 2.435 . S
O30 C19 1.256 1_655 S
O31 Gd0 2.327 . S
O31 Gd1 2.717 1_455 S
O31 C19 1.257 . S
H32 C5 0.930 . S
H33 C6 0.931 . S
H34 C8 0.931 . S
H35 C9 0.931 . S
H36 C14 0.930 . S
H37 C15 0.931 . S
H38 C17 0.931 . S
H39 C18 0.931 . S
Gd40 C43 2.818 1_545 S
Gd40 O60 2.377 1_545 S
Gd40 O62 2.448 1_545 S
Gd40 O63 2.506 1_545 S
Gd40 O64 2.435 . S
Gd40 O65 2.717 . S
Gd40 O67 2.395 . S
Gd40 O71 2.327 . S
Gd41 C52 2.818 . S
Gd41 O61 2.395 1_545 S
Gd41 O65 2.327 . S
Gd41 O66 2.377 . S
Gd41 O68 2.448 . S
Gd41 O69 2.506 . S
Gd41 O70 2.435 . S
Gd41 O71 2.717 . S
C42 O60 1.240 . S
C42 O61 1.240 . S
C43 Gd40 2.818 1_565 S
C43 C44 1.510 . S
C43 O62 1.249 . S
C43 O63 1.252 . S
C44 C43 1.510 . S
C44 C45 1.404 . S
C44 C46 1.352 . S
C45 C44 1.404 . S
C45 C49 1.389 . S
C45 H72 0.930 . S
C46 C44 1.352 . S
C46 C48 1.374 . S
C46 H73 0.931 . S
C47 C48 1.359 . S
C47 C49 1.364 . S
C48 C46 1.374 . S
C48 C47 1.359 . S
C48 H74 0.931 . S
C49 C45 1.389 . S
C49 C47 1.364 . S
C49 H75 0.931 . S
C50 O64 1.256 . S
C50 O65 1.257 . S
C51 O66 1.240 . S
C51 O67 1.240 . S
C52 Gd41 2.818 . S
C52 C53 1.510 . S
C52 O68 1.249 . S
C52 O69 1.252 . S
C53 C52 1.510 . S
C53 C54 1.404 . S
C53 C55 1.352 . S
C54 C53 1.404 . S
C54 C58 1.389 . S
C54 H76 0.930 . S
C55 C53 1.352 . S
C55 C57 1.374 . S
C55 H77 0.931 . S
C56 C57 1.359 . S
C56 C58 1.364 . S
C57 C55 1.374 . S
C57 C56 1.359 . S
C57 H78 0.931 . S
C58 C54 1.389 . S
C58 C56 1.364 . S
C58 H79 0.931 . S
C59 O70 1.256 . S
C59 O71 1.257 . S
O60 Gd40 2.377 1_565 S
O60 C42 1.240 . S
O61 Gd41 2.395 1_565 S
O61 C42 1.240 . S
O62 Gd40 2.448 1_565 S
O62 C43 1.249 . S
O63 Gd40 2.506 1_565 S
O63 C43 1.252 . S
O64 Gd40 2.435 . S
O64 C50 1.256 . S
O65 Gd40 2.717 . S
O65 Gd41 2.327 . S
O65 C50 1.257 . S
O66 Gd41 2.377 . S
O66 C51 1.240 . S
O67 Gd40 2.395 . S
O67 C51 1.240 . S
O68 Gd41 2.448 . S
O68 C52 1.249 . S
O69 Gd41 2.506 . S
O69 C52 1.252 . S
O70 Gd41 2.435 . S
O70 C59 1.256 . S
O71 Gd40 2.327 . S
O71 Gd41 2.717 . S
O71 C59 1.257 . S
H72 C45 0.930 . S
H73 C46 0.931 . S
H74 C48 0.931 . S
H75 C49 0.931 . S
H76 C54 0.930 . S
H77 C55 0.931 . S
H78 C57 0.931 . S
H79 C58 0.931 . S
Gd80 C83 2.818 . S
Gd80 O100 2.377 . S
Gd80 O102 2.448 . S
Gd80 O103 2.506 . S
Gd80 O104 2.435 . S
Gd80 O105 2.717 . S
Gd80 O107 2.395 . S
Gd80 O111 2.327 . S
Gd81 C92 2.818 . S
Gd81 O101 2.395 . S
Gd81 O105 2.327 . S
Gd81 O106 2.377 . S
Gd81 O108 2.448 . S
Gd81 O109 2.506 . S
Gd81 O110 2.435 . S
Gd81 O111 2.717 . S
C82 O100 1.240 . S
C82 O101 1.240 . S
C83 Gd80 2.818 . S
C83 C84 1.510 . S
C83 O102 1.249 . S
C83 O103 1.252 . S
C84 C83 1.510 . S
C84 C85 1.404 . S
C84 C86 1.352 . S
C85 C84 1.404 . S
C85 C89 1.389 . S
C85 H112 0.930 . S
C86 C84 1.352 . S
C86 C88 1.374 . S
C86 H113 0.931 . S
C87 C88 1.359 . S
C87 C89 1.364 . S
C88 C86 1.374 . S
C88 C87 1.359 . S
C88 H114 0.931 . S
C89 C85 1.389 . S
C89 C87 1.364 . S
C89 H115 0.931 . S
C90 O104 1.256 . S
C90 O105 1.257 . S
C91 O106 1.240 . S
C91 O107 1.240 . S
C92 Gd81 2.818 . S
C92 C93 1.510 . S
C92 O108 1.249 . S
C92 O109 1.252 . S
C93 C92 1.510 . S
C93 C94 1.404 . S
C93 C95 1.352 . S
C94 C93 1.404 . S
C94 C98 1.389 . S
C94 H116 0.930 . S
C95 C93 1.352 . S
C95 C97 1.374 . S
C95 H117 0.931 . S
C96 C97 1.359 . S
C96 C98 1.364 . S
C97 C95 1.374 . S
C97 C96 1.359 . S
C97 H118 0.931 . S
C98 C94 1.389 . S
C98 C96 1.364 . S
C98 H119 0.931 . S
C99 O110 1.256 . S
C99 O111 1.257 . S
O100 Gd80 2.377 . S
O100 C82 1.240 . S
O101 Gd81 2.395 . S
O101 C82 1.240 . S
O102 Gd80 2.448 . S
O102 C83 1.249 . S
O103 Gd80 2.506 . S
O103 C83 1.252 . S
O104 Gd80 2.435 . S
O104 C90 1.256 . S
O105 Gd80 2.717 . S
O105 Gd81 2.327 . S
O105 C90 1.257 . S
O106 Gd81 2.377 . S
O106 C91 1.240 . S
O107 Gd80 2.395 . S
O107 C91 1.240 . S
O108 Gd81 2.448 . S
O108 C92 1.249 . S
O109 Gd81 2.506 . S
O109 C92 1.252 . S
O110 Gd81 2.435 . S
O110 C99 1.256 . S
O111 Gd80 2.327 . S
O111 Gd81 2.717 . S
O111 C99 1.257 . S
H112 C85 0.930 . S
H113 C86 0.931 . S
H114 C88 0.931 . S
H115 C89 0.931 . S
H116 C94 0.930 . S
H117 C95 0.931 . S
H118 C97 0.931 . S
H119 C98 0.931 . S
C120 N121 1.317 1_565 S
C120 N122 1.348 . S
C120 C123 1.485 1_565 S
N121 C120 1.317 1_545 S
N121 N125 1.370 . S
N122 C120 1.348 . S
N122 C124 1.346 . S
C123 C120 1.485 1_545 S
C123 H127 0.960 . S
C123 H128 0.961 1_545 S
C123 H129 0.960 . S
C124 N122 1.346 . S
C124 N125 1.307 1_565 S
C124 C126 1.486 . S
N125 N121 1.370 . S
N125 C124 1.307 1_545 S
C126 C124 1.486 . S
C126 H130 0.960 . S
C126 H131 0.960 . S
C126 H132 0.959 . S
H127 C123 0.960 . S
H128 C123 0.961 1_565 S
H129 C123 0.960 . S
H130 C126 0.960 . S
H131 C126 0.960 . S
H132 C126 0.959 . S
C133 N134 1.317 . S
C133 N135 1.348 . S
C133 C136 1.485 . S
N134 C133 1.317 . S
N134 N138 1.370 . S
N135 C133 1.348 . S
N135 C137 1.346 . S
C136 C133 1.485 . S
C136 H140 0.960 . S
C136 H141 0.961 . S
C136 H142 0.960 . S
C137 N135 1.346 . S
C137 N138 1.307 . S
C137 C139 1.486 . S
N138 N134 1.370 . S
N138 C137 1.307 . S
C139 C137 1.486 . S
C139 H143 0.960 . S
C139 H144 0.960 . S
C139 H145 0.959 . S
H140 C136 0.960 . S
H141 C136 0.961 . S
H142 C136 0.960 . S
H143 C139 0.960 . S
H144 C139 0.960 . S
H145 C139 0.959 . S
C146 N147 1.317 . S
C146 N148 1.348 . S
C146 C149 1.485 . S
N147 C146 1.317 . S
N147 N151 1.370 . S
N148 C146 1.348 . S
N148 C150 1.346 . S
C149 C146 1.485 . S
C149 H153 0.960 . S
C149 H154 0.961 . S
C149 H155 0.960 . S
C150 N148 1.346 . S
C150 N151 1.307 . S
C150 C152 1.486 1_455 S
N151 N147 1.370 . S
N151 C150 1.307 . S
C152 C150 1.486 1_655 S
C152 H156 0.960 . S
C152 H157 0.960 . S
C152 H158 0.959 1_655 S
H153 C149 0.960 . S
H154 C149 0.961 . S
H155 C149 0.960 . S
H156 C152 0.960 . S
H157 C152 0.960 . S
H158 C152 0.959 1_455 S
C159 N160 1.317 . S
C159 N161 1.348 . S
C159 C162 1.485 . S
N160 C159 1.317 . S
N160 N164 1.370 . S
N161 C159 1.348 . S
N161 C163 1.346 . S
C162 C159 1.485 . S
C162 H166 0.960 . S
C162 H167 0.961 . S
C162 H168 0.960 . S
C163 N161 1.346 . S
C163 N164 1.307 . S
C163 C165 1.486 . S
N164 N160 1.370 . S
N164 C163 1.307 . S
C165 C163 1.486 . S
C165 H169 0.960 . S
C165 H170 0.960 . S
C165 H171 0.959 . S
H166 C162 0.960 . S
H167 C162 0.961 . S
H168 C162 0.960 . S
H169 C165 0.960 . S
H170 C165 0.960 . S
H171 C165 0.959 . S
C172 N173 1.317 . S
C172 N174 1.348 . S
C172 C175 1.485 . S
N173 C172 1.317 . S
N173 N177 1.370 . S
N174 C172 1.348 . S
N174 C176 1.346 . S
C175 C172 1.485 . S
C175 H179 0.960 . S
C175 H180 0.961 . S
C175 H181 0.960 . S
C176 N174 1.346 . S
C176 N177 1.307 . S
C176 C178 1.486 . S
N177 N173 1.370 . S
N177 C176 1.307 . S
C178 C176 1.486 . S
C178 H182 0.960 . S
C178 H183 0.960 . S
C178 H184 0.959 . S
H179 C175 0.960 . S
H180 C175 0.961 . S
H181 C175 0.960 . S
H182 C178 0.960 . S
H183 C178 0.960 . S
H184 C178 0.959 . S
C185 N186 1.317 . S
C185 N187 1.348 . S
C185 C188 1.485 . S
N186 C185 1.317 . S
N186 N190 1.370 . S
N187 C185 1.348 . S
N187 C189 1.346 . S
C188 C185 1.485 . S
C188 H192 0.960 . S
C188 H193 0.961 . S
C188 H194 0.960 . S
C189 N187 1.346 . S
C189 N190 1.307 . S
C189 C191 1.486 . S
N190 N186 1.370 . S
N190 C189 1.307 . S
C191 C189 1.486 . S
C191 H195 0.960 . S
C191 H196 0.960 . S
C191 H197 0.959 . S
H192 C188 0.960 . S
H193 C188 0.961 . S
H194 C188 0.960 . S
H195 C191 0.960 . S
H196 C191 0.960 . S
H197 C191 0.959 . S
H198 C204 0.930 . S
H199 C208 0.930 . S
H200 C213 0.929 . S
H201 C211 0.929 . S
H202 C206 0.929 . S
H203 C212 0.929 . S
C204 H198 0.930 . S
C204 C205 1.367 . S
C204 C212 1.378 . S
C205 C204 1.367 . S
C205 C213 1.433 . S
C206 H202 0.929 . S
C206 C208 1.378 . S
C206 C210 1.350 . S
C207 C210 1.463 . S
C207 C212 1.350 . S
C207 N215 1.427 . S
C208 H199 0.930 . S
C208 C206 1.378 . S
C208 C209 1.367 . S
C209 C208 1.367 . S
C209 C211 1.433 . S
C210 C206 1.350 . S
C210 C207 1.463 . S
C210 N214 1.427 . S
C211 H201 0.929 . S
C211 C209 1.433 . S
C211 N214 1.384 . S
C212 H203 0.929 . S
C212 C204 1.378 . S
C212 C207 1.350 . S
C213 H200 0.929 . S
C213 C205 1.433 . S
C213 N215 1.384 . S
N214 C210 1.427 . S
N214 C211 1.384 . S
N215 C207 1.427 . S
N215 C213 1.384 . S
H216 C222 0.930 . S
H217 C226 0.930 . S
H218 C231 0.929 . S
H219 C229 0.929 . S
H220 C224 0.929 . S
H221 C230 0.929 . S
C222 H216 0.930 . S
C222 C223 1.367 . S
C222 C230 1.378 . S
C223 C222 1.367 . S
C223 C231 1.433 . S
C224 H220 0.929 . S
C224 C226 1.378 . S
C224 C228 1.350 . S
C225 C228 1.463 . S
C225 C230 1.350 . S
C225 N233 1.427 . S
C226 H217 0.930 . S
C226 C224 1.378 . S
C226 C227 1.367 . S
C227 C226 1.367 . S
C227 C229 1.433 . S
C228 C224 1.350 . S
C228 C225 1.463 . S
C228 N232 1.427 . S
C229 H219 0.929 . S
C229 C227 1.433 . S
C229 N232 1.384 . S
C230 H221 0.929 . S
C230 C222 1.378 . S
C230 C225 1.350 . S
C231 H218 0.929 . S
C231 C223 1.433 . S
C231 N233 1.384 . S
N232 C228 1.427 . S
N232 C229 1.384 . S
N233 C225 1.427 . S
N233 C231 1.384 . S
H234 C240 0.930 . S
H235 C244 0.930 . S
H236 C249 0.929 . S
H237 C247 0.929 . S
H238 C242 0.929 . S
H239 C248 0.929 . S
C240 H234 0.930 . S
C240 C241 1.367 . S
C240 C248 1.378 . S
C241 C240 1.367 . S
C241 C249 1.433 . S
C242 H238 0.929 . S
C242 C244 1.378 1_565 S
C242 C246 1.350 . S
C243 C246 1.463 . S
C243 C248 1.350 . S
C243 N251 1.427 . S
C244 H235 0.930 . S
C244 C242 1.378 1_545 S
C244 C245 1.367 1_545 S
C245 C244 1.367 1_565 S
C245 C247 1.433 . S
C246 C242 1.350 . S
C246 C243 1.463 . S
C246 N250 1.427 . S
C247 H237 0.929 . S
C247 C245 1.433 . S
C247 N250 1.384 . S
C248 H239 0.929 . S
C248 C240 1.378 . S
C248 C243 1.350 . S
C249 H236 0.929 . S
C249 C241 1.433 . S
C249 N251 1.384 . S
N250 C246 1.427 . S
N250 C247 1.384 . S
N251 C243 1.427 . S
N251 C249 1.384 . S
H252 C258 0.930 . S
H253 C262 0.930 . S
H254 C267 0.929 . S
H255 C265 0.929 . S
H256 C260 0.929 . S
H257 C266 0.929 . S
C258 H252 0.930 . S
C258 C259 1.367 . S
C258 C266 1.378 . S
C259 C258 1.367 . S
C259 C267 1.433 . S
C260 H256 0.929 . S
C260 C262 1.378 . S
C260 C264 1.350 . S
C261 C264 1.463 . S
C261 C266 1.350 . S
C261 N269 1.427 . S
C262 H253 0.930 . S
C262 C260 1.378 . S
C262 C263 1.367 . S
C263 C262 1.367 . S
C263 C265 1.433 . S
C264 C260 1.350 . S
C264 C261 1.463 . S
C264 N268 1.427 . S
C265 H255 0.929 . S
C265 C263 1.433 . S
C265 N268 1.384 . S
C266 H257 0.929 . S
C266 C258 1.378 . S
C266 C261 1.350 . S
C267 H254 0.929 . S
C267 C259 1.433 . S
C267 N269 1.384 . S
N268 C264 1.427 . S
N268 C265 1.384 . S
N269 C261 1.427 . S
N269 C267 1.384 . S
H270 C276 0.930 . S
H271 C280 0.930 . S
H272 C285 0.929 . S
H273 C283 0.929 . S
H274 C278 0.929 . S
H275 C284 0.929 . S
C276 H270 0.930 . S
C276 C277 1.367 . S
C276 C284 1.378 . S
C277 C276 1.367 . S
C277 C285 1.433 . S
C278 H274 0.929 . S
C278 C280 1.378 . S
C278 C282 1.350 . S
C279 C282 1.463 . S
C279 C284 1.350 . S
C279 N287 1.427 . S
C280 H271 0.930 . S
C280 C278 1.378 . S
C280 C281 1.367 . S
C281 C280 1.367 . S
C281 C283 1.433 . S
C282 C278 1.350 . S
C282 C279 1.463 . S
C282 N286 1.427 . S
C283 H273 0.929 . S
C283 C281 1.433 . S
C283 N286 1.384 . S
C284 H275 0.929 . S
C284 C276 1.378 . S
C284 C279 1.350 . S
C285 H272 0.929 . S
C285 C277 1.433 . S
C285 N287 1.384 . S
N286 C282 1.427 . S
N286 C283 1.384 . S
N287 C279 1.427 . S
N287 C285 1.384 . S
H288 C294 0.930 . S
H289 C298 0.930 . S
H290 C303 0.929 . S
H291 C301 0.929 . S
H292 C296 0.929 . S
H293 C302 0.929 . S
C294 H288 0.930 . S
C294 C295 1.367 . S
C294 C302 1.378 . S
C295 C294 1.367 . S
C295 C303 1.433 . S
C296 H292 0.929 . S
C296 C298 1.378 . S
C296 C300 1.350 . S
C297 C300 1.463 . S
C297 C302 1.350 . S
C297 N305 1.427 . S
C298 H289 0.930 . S
C298 C296 1.378 . S
C298 C299 1.367 . S
C299 C298 1.367 . S
C299 C301 1.433 . S
C300 C296 1.350 . S
C300 C297 1.463 . S
C300 N304 1.427 . S
C301 H291 0.929 . S
C301 C299 1.433 . S
C301 N304 1.384 . S
C302 H293 0.929 . S
C302 C294 1.378 . S
C302 C297 1.350 . S
C303 H290 0.929 . S
C303 C295 1.433 . S
C303 N305 1.384 . S
N304 C300 1.427 . S
N304 C301 1.384 . S
N305 C297 1.427 . S
N305 C303 1.384 . S
H306 C312 0.930 . S
H307 C316 0.930 . S
H308 C321 0.929 . S
H309 C319 0.929 . S
H310 C314 0.929 . S
H311 C320 0.929 . S
C312 H306 0.930 . S
C312 C313 1.367 . S
C312 C320 1.378 . S
C313 C312 1.367 . S
C313 C321 1.433 . S
C314 H310 0.929 . S
C314 C316 1.378 . S
C314 C318 1.350 . S
C315 C318 1.463 . S
C315 C320 1.350 . S
C315 N323 1.427 . S
C316 H307 0.930 . S
C316 C314 1.378 . S
C316 C317 1.367 . S
C317 C316 1.367 . S
C317 C319 1.433 . S
C318 C314 1.350 . S
C318 C315 1.463 . S
C318 N322 1.427 . S
C319 H309 0.929 . S
C319 C317 1.433 . S
C319 N322 1.384 . S
C320 H311 0.929 . S
C320 C312 1.378 . S
C320 C315 1.350 . S
C321 H308 0.929 . S
C321 C313 1.433 . S
C321 N323 1.384 . S
N322 C318 1.427 . S
N322 C319 1.384 . S
N323 C315 1.427 . S
N323 C321 1.384 . S
H324 C330 0.930 . S
H325 C334 0.930 . S
H326 C339 0.929 . S
H327 C337 0.929 . S
H328 C332 0.929 . S
H329 C338 0.929 . S
C330 H324 0.930 . S
C330 C331 1.367 . S
C330 C338 1.378 . S
C331 C330 1.367 . S
C331 C339 1.433 . S
C332 H328 0.929 . S
C332 C334 1.378 . S
C332 C336 1.350 . S
C333 C336 1.463 . S
C333 C338 1.350 . S
C333 N341 1.427 . S
C334 H325 0.930 . S
C334 C332 1.378 . S
C334 C335 1.367 . S
C335 C334 1.367 . S
C335 C337 1.433 . S
C336 C332 1.350 . S
C336 C333 1.463 . S
C336 N340 1.427 . S
C337 H327 0.929 . S
C337 C335 1.433 . S
C337 N340 1.384 . S
C338 H329 0.929 . S
C338 C330 1.378 . S
C338 C333 1.350 . S
C339 H326 0.929 . S
C339 C331 1.433 . S
C339 N341 1.384 . S
N340 C336 1.427 . S
N340 C337 1.384 . S
N341 C333 1.427 . S
N341 C339 1.384 . S
H342 C348 0.930 . S
H343 C352 0.930 . S
H344 C357 0.929 . S
H345 C355 0.929 . S
H346 C350 0.929 . S
H347 C356 0.929 . S
C348 H342 0.930 . S
C348 C349 1.367 . S
C348 C356 1.378 . S
C349 C348 1.367 . S
C349 C357 1.433 . S
C350 H346 0.929 . S
C350 C352 1.378 . S
C350 C354 1.350 . S
C351 C354 1.463 . S
C351 C356 1.350 . S
C351 N359 1.427 . S
C352 H343 0.930 . S
C352 C350 1.378 . S
C352 C353 1.367 . S
C353 C352 1.367 . S
C353 C355 1.433 . S
C354 C350 1.350 . S
C354 C351 1.463 . S
C354 N358 1.427 . S
C355 H345 0.929 . S
C355 C353 1.433 . S
C355 N358 1.384 . S
C356 H347 0.929 . S
C356 C348 1.378 . S
C356 C351 1.350 . S
C357 H344 0.929 . S
C357 C349 1.433 . S
C357 N359 1.384 . S
N358 C354 1.427 . S
N358 C355 1.384 . S
N359 C351 1.427 . S
N359 C357 1.384 . S
H360 C366 0.930 . S
H361 C370 0.930 . S
H362 C375 0.929 . S
H363 C373 0.929 . S
H364 C368 0.929 . S
H365 C374 0.929 . S
C366 H360 0.930 . S
C366 C367 1.367 . S
C366 C374 1.378 . S
C367 C366 1.367 . S
C367 C375 1.433 . S
C368 H364 0.929 . S
C368 C370 1.378 . S
C368 C372 1.350 . S
C369 C372 1.463 . S
C369 C374 1.350 . S
C369 N377 1.427 . S
C370 H361 0.930 . S
C370 C368 1.378 . S
C370 C371 1.367 . S
C371 C370 1.367 . S
C371 C373 1.433 . S
C372 C368 1.350 . S
C372 C369 1.463 . S
C372 N376 1.427 . S
C373 H363 0.929 . S
C373 C371 1.433 . S
C373 N376 1.384 . S
C374 H365 0.929 . S
C374 C366 1.378 . S
C374 C369 1.350 . S
C375 H362 0.929 . S
C375 C367 1.433 . S
C375 N377 1.384 . S
N376 C372 1.427 . S
N376 C373 1.384 . S
N377 C369 1.427 . S
N377 C375 1.384 . S
H378 C384 0.930 . S
H379 C388 0.930 . S
H380 C393 0.929 . S
H381 C391 0.929 . S
H382 C386 0.929 . S
H383 C392 0.929 . S
C384 H378 0.930 . S
C384 C385 1.367 . S
C384 C392 1.378 . S
C385 C384 1.367 . S
C385 C393 1.433 . S
C386 H382 0.929 . S
C386 C388 1.378 . S
C386 C390 1.350 . S
C387 C390 1.463 . S
C387 C392 1.350 . S
C387 N395 1.427 . S
C388 H379 0.930 . S
C388 C386 1.378 . S
C388 C389 1.367 . S
C389 C388 1.367 . S
C389 C391 1.433 . S
C390 C386 1.350 . S
C390 C387 1.463 . S
C390 N394 1.427 . S
C391 H381 0.929 . S
C391 C389 1.433 . S
C391 N394 1.384 . S
C392 H383 0.929 . S
C392 C384 1.378 . S
C392 C387 1.350 . S
C393 H380 0.929 . S
C393 C385 1.433 . S
C393 N395 1.384 . S
N394 C390 1.427 . S
N394 C391 1.384 . S
N395 C387 1.427 . S
N395 C393 1.384 . S
H396 C402 0.930 . S
H397 C406 0.930 . S
H398 C411 0.929 . S
H399 C409 0.929 . S
H400 C404 0.929 . S
H401 C410 0.929 . S
C402 H396 0.930 . S
C402 C403 1.367 . S
C402 C410 1.378 . S
C403 C402 1.367 . S
C403 C411 1.433 . S
C404 H400 0.929 . S
C404 C406 1.378 . S
C404 C408 1.350 . S
C405 C408 1.463 . S
C405 C410 1.350 . S
C405 N413 1.427 . S
C406 H397 0.930 . S
C406 C404 1.378 . S
C406 C407 1.367 . S
C407 C406 1.367 . S
C407 C409 1.433 . S
C408 C404 1.350 . S
C408 C405 1.463 . S
C408 N412 1.427 . S
C409 H399 0.929 . S
C409 C407 1.433 . S
C409 N412 1.384 . S
C410 H401 0.929 . S
C410 C402 1.378 . S
C410 C405 1.350 . S
C411 H398 0.929 . S
C411 C403 1.433 . S
C411 N413 1.384 . S
N412 C408 1.427 . S
N412 C409 1.384 . S
N413 C405 1.427 . S
N413 C411 1.384 . S
H414 C420 0.930 . S
H415 C424 0.930 . S
H416 C429 0.929 . S
H417 C427 0.929 1_655 S
H418 C422 0.929 . S
H419 C428 0.929 . S
C420 H414 0.930 . S
C420 C421 1.367 1_655 S
C420 C428 1.378 . S
C421 C420 1.367 1_455 S
C421 C429 1.433 . S
C422 H418 0.929 . S
C422 C424 1.378 . S
C422 C426 1.350 . S
C423 C426 1.463 1_554 S
C423 C428 1.350 1_455 S
C423 N431 1.427 . S
C424 H415 0.930 . S
C424 C422 1.378 . S
C424 C425 1.367 . S
C425 C424 1.367 . S
C425 C427 1.433 . S
C426 C422 1.350 . S
C426 C423 1.463 1_556 S
C426 N430 1.427 . S
C427 H417 0.929 1_455 S
C427 C425 1.433 . S
C427 N430 1.384 . S
C428 H419 0.929 . S
C428 C420 1.378 . S
C428 C423 1.350 1_655 S
C429 H416 0.929 . S
C429 C421 1.433 . S
C429 N431 1.384 . S
N430 C426 1.427 . S
N430 C427 1.384 . S
N431 C423 1.427 . S
N431 C429 1.384 . S
H432 C438 0.930 . S
H433 C442 0.930 . S
H434 C447 0.929 . S
H435 C445 0.929 . S
H436 C440 0.929 . S
H437 C446 0.929 . S
C438 H432 0.930 . S
C438 C439 1.367 1_565 S
C438 C446 1.378 . S
C439 C438 1.367 1_545 S
C439 C447 1.433 . S
C440 H436 0.929 . S
C440 C442 1.378 . S
C440 C444 1.350 . S
C441 C444 1.463 . S
C441 C446 1.350 1_545 S
C441 N449 1.427 . S
C442 H433 0.930 . S
C442 C440 1.378 . S
C442 C443 1.367 . S
C443 C442 1.367 . S
C443 C445 1.433 1_545 S
C444 C440 1.350 . S
C444 C441 1.463 . S
C444 N448 1.427 1_545 S
C445 H435 0.929 . S
C445 C443 1.433 1_565 S
C445 N448 1.384 . S
C446 H437 0.929 . S
C446 C438 1.378 . S
C446 C441 1.350 1_565 S
C447 H434 0.929 . S
C447 C439 1.433 . S
C447 N449 1.384 . S
N448 C444 1.427 1_565 S
N448 C445 1.384 . S
N449 C441 1.427 . S
N449 C447 1.384 . S
H450 C456 0.930 . S
H451 C460 0.930 . S
H452 C465 0.929 . S
H453 C463 0.929 . S
H454 C458 0.929 . S
H455 C464 0.929 . S
C456 H450 0.930 . S
C456 C457 1.367 . S
C456 C464 1.378 . S
C457 C456 1.367 . S
C457 C465 1.433 . S
C458 H454 0.929 . S
C458 C460 1.378 . S
C458 C462 1.350 . S
C459 C462 1.463 . S
C459 C464 1.350 . S
C459 N467 1.427 . S
C460 H451 0.930 . S
C460 C458 1.378 . S
C460 C461 1.367 . S
C461 C460 1.367 . S
C461 C463 1.433 . S
C462 C458 1.350 . S
C462 C459 1.463 . S
C462 N466 1.427 . S
C463 H453 0.929 . S
C463 C461 1.433 . S
C463 N466 1.384 . S
C464 H455 0.929 . S
C464 C456 1.378 . S
C464 C459 1.350 . S
C465 H452 0.929 . S
C465 C457 1.433 . S
C465 N467 1.384 . S
N466 C462 1.427 . S
N466 C463 1.384 . S
N467 C459 1.427 . S
N467 C465 1.384 . S
H468 C474 0.930 . S
H469 C478 0.930 . S
H470 C483 0.929 . S
H471 C481 0.929 . S
H472 C476 0.929 . S
H473 C482 0.929 . S
C474 H468 0.930 . S
C474 C475 1.367 . S
C474 C482 1.378 . S
C475 C474 1.367 . S
C475 C483 1.433 1_545 S
C476 H472 0.929 . S
C476 C478 1.378 . S
C476 C480 1.350 1_565 S
C477 C480 1.463 . S
C477 C482 1.350 . S
C477 N485 1.427 1_545 S
C478 H469 0.930 . S
C478 C476 1.378 . S
C478 C479 1.367 1_565 S
C479 C478 1.367 1_545 S
C479 C481 1.433 . S
C480 C476 1.350 1_545 S
C480 C477 1.463 . S
C480 N484 1.427 . S
C481 H471 0.929 . S
C481 C479 1.433 . S
C481 N484 1.384 . S
C482 H473 0.929 . S
C482 C474 1.378 . S
C482 C477 1.350 . S
C483 H470 0.929 . S
C483 C475 1.433 1_565 S
C483 N485 1.384 . S
N484 C480 1.427 . S
N484 C481 1.384 . S
N485 C477 1.427 1_565 S
N485 C483 1.384 . S
H486 C492 0.930 . S
H487 C496 0.930 . S
H488 C501 0.929 . S
H489 C499 0.929 . S
H490 C494 0.929 1_556 S
H491 C500 0.929 . S
C492 H486 0.930 . S
C492 C493 1.367 . S
C492 C500 1.378 . S
C493 C492 1.367 . S
C493 C501 1.433 . S
C494 H490 0.929 1_554 S
C494 C496 1.378 . S
C494 C498 1.350 1_554 S
C495 C498 1.463 . S
C495 C500 1.350 . S
C495 N503 1.427 . S
C496 H487 0.930 . S
C496 C494 1.378 . S
C496 C497 1.367 . S
C497 C496 1.367 . S
C497 C499 1.433 . S
C498 C494 1.350 1_556 S
C498 C495 1.463 . S
C498 N502 1.427 1_556 S
C499 H489 0.929 . S
C499 C497 1.433 . S
C499 N502 1.384 . S
C500 H491 0.929 . S
C500 C492 1.378 . S
C500 C495 1.350 . S
C501 H488 0.929 . S
C501 C493 1.433 . S
C501 N503 1.384 . S
N502 C498 1.427 1_554 S
N502 C499 1.384 . S
N503 C495 1.427 . S
N503 C501 1.384 . S
H504 C510 0.930 . S
H505 C514 0.930 1_655 S
H506 C519 0.929 . S
H507 C517 0.929 . S
H508 C512 0.929 . S
H509 C518 0.929 . S
C510 H504 0.930 . S
C510 C511 1.367 1_455 S
C510 C518 1.378 . S
C511 C510 1.367 1_655 S
C511 C519 1.433 . S
C512 H508 0.929 . S
C512 C514 1.378 1_655 S
C512 C516 1.350 1_655 S
C513 C516 1.463 . S
C513 C518 1.350 . S
C513 N521 1.427 1_455 S
C514 H505 0.930 1_455 S
C514 C512 1.378 1_455 S
C514 C515 1.367 . S
C515 C514 1.367 . S
C515 C517 1.433 . S
C516 C512 1.350 1_455 S
C516 C513 1.463 . S
C516 N520 1.427 . S
C517 H507 0.929 . S
C517 C515 1.433 . S
C517 N520 1.384 . S
C518 H509 0.929 . S
C518 C510 1.378 . S
C518 C513 1.350 . S
C519 H506 0.929 . S
C519 C511 1.433 . S
C519 N521 1.384 . S
N520 C516 1.427 . S
N520 C517 1.384 . S
N521 C513 1.427 1_655 S
N521 C519 1.384 . S
C205 C7 0.408 . S
C209 N187 0.341 . S
C223 C51 1.806 . S
C227 N160 1.799 1_655 S
C241 C87 1.165 . S
C245 N173 1.168 1_565 S
C259 C16 0.740 . S
C263 N186 0.739 . S
C281 N161 1.990 . S
C277 C42 2.001 . S
C299 N174 1.381 . S
C295 C96 1.361 . S
C313 C47 1.081 . S
C317 N134 1.082 . S
C331 C91 2.843 . S
C335 N148 2.796 1_655 S
C349 C2 2.018 . S
C353 N122 2.024 . S
C371 N135 1.438 . S
C367 C56 1.403 . S
C389 N147 3.263 . S
C385 C82 3.232 . S
C403 C11 1.806 . S
C407 N121 1.809 . S
C425 N151 1.745 . S
C421 C19 1.725 . S
C439 C50 1.460 . S
C443 N125 1.479 . S
C457 C99 1.514 . S
C461 N138 1.590 . S
C479 N177 1.543 . S
C475 C59 1.467 . S
C497 N190 1.272 . S
C493 C90 1.271 . S
C511 C10 1.428 1_655 S
C515 N164 1.461 . S
