# Generated by pormake.
# Topology pyr, (3,6)-cn, num edge types: 1
# Building blocks:
#     Node 0, Type 0, BuildingBlock: MIDCAF_clean_linker_0, # of connection points: 3
#     Node 1, Type 0, BuildingBlock: MIDCAF_clean_linker_0, # of connection points: 3
#     Node 2, Type 0, BuildingBlock: MIDCAF_clean_linker_0, # of connection points: 3
#     Node 3, Type 0, BuildingBlock: MIDCAF_clean_linker_0, # of connection points: 3
#     Node 4, Type 0, BuildingBlock: MIDCAF_clean_linker_0, # of connection points: 3
#     Node 5, Type 0, BuildingBlock: MIDCAF_clean_linker_0, # of connection points: 3
#     Node 6, Type 0, BuildingBlock: MIDCAF_clean_linker_0, # of connection points: 3
#     Node 7, Type 0, BuildingBlock: MIDCAF_clean_linker_0, # of connection points: 3
#     Node 8, Type 1, BuildingBlock: PAMTOO_clean_sbu_0, # of connection points: 6
#     Node 9, Type 1, BuildingBlock: PAMTOO_clean_sbu_0, # of connection points: 6
#     Node 10, Type 1, BuildingBlock: PAMTOO_clean_sbu_0, # of connection points: 6
#     Node 11, Type 1, BuildingBlock: PAMTOO_clean_sbu_0, # of connection points: 6
#     Edge 12, Type (0, 1), BuildingBlock: CIFDUS_clean_linker_0, # of connection points: 2
#     Edge 13, Type (0, 1), BuildingBlock: CIFDUS_clean_linker_0, # of connection points: 2
#     Edge 14, Type (0, 1), BuildingBlock: CIFDUS_clean_linker_0, # of connection points: 2
#     Edge 15, Type (0, 1), BuildingBlock: CIFDUS_clean_linker_0, # of connection points: 2
#     Edge 16, Type (0, 1), BuildingBlock: CIFDUS_clean_linker_0, # of connection points: 2
#     Edge 17, Type (0, 1), BuildingBlock: CIFDUS_clean_linker_0, # of connection points: 2
#     Edge 18, Type (0, 1), BuildingBlock: CIFDUS_clean_linker_0, # of connection points: 2
#     Edge 19, Type (0, 1), BuildingBlock: CIFDUS_clean_linker_0, # of connection points: 2
#     Edge 20, Type (0, 1), BuildingBlock: CIFDUS_clean_linker_0, # of connection points: 2
#     Edge 21, Type (0, 1), BuildingBlock: CIFDUS_clean_linker_0, # of connection points: 2
#     Edge 22, Type (0, 1), BuildingBlock: CIFDUS_clean_linker_0, # of connection points: 2
#     Edge 23, Type (0, 1), BuildingBlock: CIFDUS_clean_linker_0, # of connection points: 2
#     Edge 24, Type (0, 1), BuildingBlock: CIFDUS_clean_linker_0, # of connection points: 2
#     Edge 25, Type (0, 1), BuildingBlock: CIFDUS_clean_linker_0, # of connection points: 2
#     Edge 26, Type (0, 1), BuildingBlock: CIFDUS_clean_linker_0, # of connection points: 2
#     Edge 27, Type (0, 1), BuildingBlock: CIFDUS_clean_linker_0, # of connection points: 2
#     Edge 28, Type (0, 1), BuildingBlock: CIFDUS_clean_linker_0, # of connection points: 2
#     Edge 29, Type (0, 1), BuildingBlock: CIFDUS_clean_linker_0, # of connection points: 2
#     Edge 30, Type (0, 1), BuildingBlock: CIFDUS_clean_linker_0, # of connection points: 2
#     Edge 31, Type (0, 1), BuildingBlock: CIFDUS_clean_linker_0, # of connection points: 2
#     Edge 32, Type (0, 1), BuildingBlock: CIFDUS_clean_linker_0, # of connection points: 2
#     Edge 33, Type (0, 1), BuildingBlock: CIFDUS_clean_linker_0, # of connection points: 2
#     Edge 34, Type (0, 1), BuildingBlock: CIFDUS_clean_linker_0, # of connection points: 2
#     Edge 35, Type (0, 1), BuildingBlock: CIFDUS_clean_linker_0, # of connection points: 2
# Relax obj value: 0.105
# Max RMSD: 0.165
# Mean RMSD: 0.070
data_MOF--net-pyr--node1-PAMTOO_clean_sbu_0--node2-MIDCAF_clean_linker_0--edge1-CIFDUS_clean_linker_0
_symmetry_space_group_name_H-M    P1
_symmetry_Int_Tables_number       1
_symmetry_cell_setting            triclinic
loop_
_symmetry_equiv_pos_as_xyz
'x, y, z'
_cell_length_a     40.447642
_cell_length_b     42.638319
_cell_length_c     42.098058
_cell_angle_alpha  89.938443
_cell_angle_beta   89.892804
_cell_angle_gamma 102.83315
loop_
_atom_site_label
_atom_site_type_symbol
_atom_site_fract_x
_atom_site_fract_y
_atom_site_fract_z
_atom_type_partial_charge
C0 C 0.30644 0.2685 0.34579 0.0
C1 C 0.3196 0.24346 0.35878 0.0
C2 C 0.34791 0.23545 0.34416 0.0
C3 C 0.36035 0.24966 0.31533 0.0
H4 H 0.43014 0.24979 0.23824 0.0
H5 H 0.45937 0.21333 0.2109 0.0
H6 H 0.39678 0.21497 0.12827 0.0
H7 H 0.36754 0.25165 0.15544 0.0
H8 H 0.32837 0.316 0.15592 0.0
H9 H 0.28461 0.33857 0.13025 0.0
H10 H 0.23558 0.34153 0.22118 0.0
H11 H 0.2794 0.32057 0.2467 0.0
H12 H 0.30663 0.30052 0.30683 0.0
H13 H 0.28461 0.27531 0.35633 0.0
H14 H 0.35915 0.21677 0.354 0.0
H15 H 0.38067 0.24132 0.30363 0.0
N16 N 0.37324 0.26776 0.24954 0.0
N17 N 0.35445 0.28762 0.20238 0.0
N18 N 0.33114 0.29737 0.25139 0.0
C19 C 0.37518 0.27121 0.21743 0.0
C20 C 0.33254 0.30108 0.21938 0.0
C21 C 0.35132 0.28085 0.26673 0.0
C22 C 0.39633 0.25342 0.1991 0.0
C23 C 0.42296 0.24282 0.21405 0.0
C24 C 0.43982 0.22207 0.19838 0.0
C25 C 0.43008 0.21115 0.16763 0.0
C26 C 0.40451 0.22283 0.15212 0.0
C27 C 0.38797 0.24399 0.16761 0.0
C28 C 0.30757 0.31651 0.20341 0.0
C29 C 0.30844 0.32187 0.17041 0.0
C30 C 0.28323 0.3346 0.15568 0.0
C31 C 0.25659 0.34205 0.17363 0.0
C32 C 0.25605 0.33688 0.20661 0.0
C33 C 0.28124 0.32455 0.22129 0.0
C34 C 0.34473 0.27223 0.30064 0.0
C35 C 0.31895 0.28281 0.31711 0.0
C36 C 0.09964 0.83777 0.68676 0.0
C37 C 0.10671 0.84298 0.65427 0.0
C38 C 0.1257 0.82375 0.63858 0.0
C39 C 0.13885 0.80098 0.65539 0.0
H40 H 0.20892 0.74367 0.64735 0.0
H41 H 0.25424 0.72135 0.62434 0.0
H42 H 0.27037 0.68051 0.71539 0.0
H43 H 0.22567 0.70297 0.73847 0.0
H44 H 0.22553 0.75568 0.79407 0.0
H45 H 0.24544 0.783 0.84296 0.0
H46 H 0.15662 0.82367 0.84625 0.0
H47 H 0.13739 0.79737 0.79616 0.0
H48 H 0.10788 0.81266 0.72886 0.0
H49 H 0.08527 0.8523 0.6996 0.0
H50 H 0.13111 0.82687 0.61342 0.0
H51 H 0.15445 0.78745 0.64279 0.0
N52 N 0.17076 0.75853 0.69281 0.0
N53 N 0.19188 0.74713 0.74231 0.0
N54 N 0.1536 0.78078 0.73932 0.0
C55 C 0.1905 0.74306 0.71033 0.0
C56 C 0.17351 0.76586 0.75703 0.0
C57 C 0.15186 0.77716 0.70726 0.0
C58 C 0.21396 0.72552 0.69488 0.0
C59 C 0.22175 0.72949 0.66233 0.0
C60 C 0.24771 0.71671 0.64913 0.0
C61 C 0.26627 0.69971 0.66822 0.0
C62 C 0.2571 0.6942 0.70026 0.0
C63 C 0.23131 0.70695 0.71344 0.0
C64 C 0.18031 0.77504 0.79069 0.0
C65 C 0.20973 0.76979 0.80552 0.0
C66 C 0.2211 0.78539 0.83385 0.0
C67 C 0.20305 0.80621 0.84829 0.0
C68 C 0.17168 0.80858 0.83526 0.0
C69 C 0.16053 0.79333 0.80663 0.0
C70 C 0.13344 0.79712 0.68831 0.0
C71 C 0.11284 0.81512 0.70358 0.0
C72 C 0.62574 0.26075 0.9395 0.0
C73 C 0.60569 0.23471 0.92313 0.0
C74 C 0.59586 0.23981 0.89171 0.0
C75 C 0.60738 0.26988 0.87665 0.0
H76 H 0.58969 0.34249 0.80541 0.0
H77 H 0.56798 0.36345 0.75786 0.0
H78 H 0.65905 0.43861 0.75185 0.0
H79 H 0.68028 0.41825 0.79996 0.0
H80 H 0.7343 0.4306 0.86213 0.0
H81 H 0.78775 0.45612 0.8887 0.0
H82 H 0.77382 0.37679 0.95471 0.0
H83 H 0.72155 0.35159 0.92891 0.0
H84 H 0.65298 0.30955 0.93825 0.0
H85 H 0.63303 0.25812 0.96394 0.0
H86 H 0.5803 0.22027 0.87843 0.0
H87 H 0.60053 0.27275 0.85213 0.0
N88 N 0.63345 0.33735 0.84981 0.0
N89 N 0.67928 0.38282 0.85031 0.0
N90 N 0.67423 0.34373 0.89005 0.0
C91 C 0.65018 0.36585 0.83639 0.0
C92 C 0.69145 0.37174 0.87727 0.0
C93 C 0.64548 0.32629 0.87692 0.0
C94 C 0.63688 0.3785 0.80683 0.0
C95 C 0.60517 0.36349 0.79403 0.0
C96 C 0.59274 0.3755 0.76646 0.0
C97 C 0.61165 0.40285 0.75057 0.0
C98 C 0.64335 0.41786 0.76343 0.0
C99 C 0.65571 0.40595 0.79109 0.0
C100 C 0.72349 0.38882 0.89304 0.0
C101 C 0.74267 0.41871 0.88235 0.0
C102 C 0.77318 0.43339 0.89763 0.0
C103 C 0.78521 0.41825 0.92358 0.0
C104 C 0.76566 0.38883 0.93446 0.0
C105 C 0.7354 0.37442 0.91956 0.0
C106 C 0.62887 0.29538 0.89278 0.0
C107 C 0.63708 0.29046 0.92465 0.0
C108 C 0.76459 0.66103 0.43616 0.0
C109 C 0.7437 0.63227 0.42533 0.0
C110 C 0.75397 0.61746 0.39824 0.0
C111 C 0.78392 0.63188 0.38179 0.0
H112 H 0.8464 0.62829 0.29914 0.0
H113 H 0.86724 0.60748 0.25086 0.0
H114 H 0.95623 0.68521 0.25297 0.0
H115 H 0.93501 0.70646 0.30049 0.0
H116 H 0.93708 0.76857 0.34933 0.0
H117 H 0.96326 0.82098 0.37238 0.0
H118 H 0.88838 0.80484 0.44736 0.0
H119 H 0.8621 0.75349 0.42439 0.0
H120 H 0.8092 0.69757 0.42937 0.0
H121 H 0.7579 0.67278 0.45727 0.0
H122 H 0.73839 0.59525 0.38928 0.0
H123 H 0.79079 0.6203 0.36068 0.0
N124 N 0.84725 0.66604 0.34838 0.0
N125 N 0.89216 0.71202 0.34488 0.0
N126 N 0.8523 0.70734 0.38589 0.0
C127 C 0.87575 0.68274 0.33317 0.0
C128 C 0.88045 0.7245 0.37134 0.0
C129 C 0.83546 0.6783 0.37496 0.0
C130 C 0.88879 0.6693 0.30391 0.0
C131 C 0.87043 0.641 0.28935 0.0
C132 C 0.88255 0.62888 0.26162 0.0
C133 C 0.91347 0.64461 0.24756 0.0
C134 C 0.932 0.67264 0.26245 0.0
C135 C 0.91984 0.68482 0.29003 0.0
C136 C 0.89734 0.75654 0.38479 0.0
C137 C 0.92618 0.77627 0.37067 0.0
C138 C 0.94126 0.80632 0.38399 0.0
C139 C 0.92784 0.81744 0.4117 0.0
C140 C 0.8991 0.79761 0.4257 0.0
C141 C 0.88414 0.76779 0.41251 0.0
C142 C 0.80429 0.66125 0.39231 0.0
C143 C 0.79428 0.67523 0.42003 0.0
C144 C 0.57221 0.8217 0.88566 0.0
C145 C 0.57629 0.82743 0.91838 0.0
C146 C 0.59848 0.81249 0.93539 0.0
C147 C 0.6181 0.79418 0.9196 0.0
H148 H 0.686 0.72914 0.92898 0.0
H149 H 0.7297 0.70798 0.95675 0.0
H150 H 0.79298 0.72468 0.87306 0.0
H151 H 0.74993 0.74549 0.84536 0.0
H152 H 0.72855 0.77283 0.78542 0.0
H153 H 0.75061 0.80497 0.73936 0.0
H154 H 0.66192 0.84574 0.73825 0.0
H155 H 0.64002 0.81409 0.78496 0.0
H156 H 0.58946 0.80106 0.84429 0.0
H157 H 0.55536 0.83291 0.87192 0.0
H158 H 0.60172 0.81611 0.96076 0.0
H159 H 0.63624 0.78447 0.93318 0.0
N160 N 0.66304 0.76199 0.88401 0.0
N161 N 0.69438 0.76212 0.83706 0.0
N162 N 0.64746 0.78565 0.83762 0.0
C163 C 0.68925 0.75382 0.86813 0.0
C164 C 0.67362 0.77792 0.82156 0.0
C165 C 0.6418 0.7777 0.86871 0.0
C166 C 0.71438 0.73916 0.88493 0.0
C167 C 0.70917 0.72814 0.91647 0.0
C168 C 0.73411 0.71598 0.93237 0.0
C169 C 0.76485 0.71508 0.91714 0.0
C170 C 0.76977 0.72559 0.88555 0.0
C171 C 0.74486 0.73733 0.86962 0.0
C172 C 0.68288 0.79143 0.78947 0.0
C173 C 0.71329 0.78808 0.77504 0.0
C174 C 0.72589 0.80639 0.74839 0.0
C175 C 0.70828 0.82834 0.73545 0.0
C176 C 0.6764 0.82952 0.7481 0.0
C177 C 0.66381 0.81125 0.77483 0.0
C178 C 0.6161 0.79069 0.88643 0.0
C179 C 0.59196 0.80359 0.86983 0.0
C180 C 0.8383 0.24067 0.23177 0.0
C181 C 0.80709 0.2464 0.22144 0.0
C182 C 0.79285 0.26867 0.23823 0.0
C183 C 0.80761 0.28234 0.26635 0.0
H184 H 0.80544 0.35004 0.33932 0.0
H185 H 0.76585 0.37552 0.36719 0.0
H186 H 0.77973 0.32419 0.45288 0.0
H187 H 0.81949 0.29822 0.42474 0.0
H188 H 0.87218 0.25067 0.42101 0.0
H189 H 0.9021 0.21359 0.4457 0.0
H190 H 0.95355 0.20544 0.35696 0.0
H191 H 0.92235 0.24148 0.33191 0.0
H192 H 0.87572 0.24745 0.26848 0.0
H193 H 0.85047 0.22433 0.21891 0.0
H194 H 0.76881 0.27366 0.23117 0.0
H195 H 0.79461 0.29772 0.27965 0.0
N196 N 0.83089 0.3002 0.32941 0.0
N197 N 0.85685 0.28712 0.37582 0.0
N198 N 0.8684 0.26571 0.32669 0.0
C199 C 0.83578 0.30341 0.36123 0.0
C200 C 0.87364 0.26856 0.35855 0.0
C201 C 0.84699 0.28142 0.31193 0.0
C202 C 0.81546 0.32191 0.37973 0.0
C203 C 0.80045 0.34441 0.36421 0.0
C204 C 0.7779 0.35923 0.38026 0.0
C205 C 0.7696 0.35182 0.41222 0.0
C206 C 0.78548 0.33017 0.42817 0.0
C207 C 0.80841 0.31551 0.41212 0.0
C208 C 0.89472 0.24893 0.37445 0.0
C209 C 0.89016 0.24128 0.40685 0.0
C210 C 0.90752 0.22005 0.42106 0.0
C211 C 0.9303 0.20633 0.40336 0.0
C212 C 0.93575 0.21497 0.37121 0.0
C213 C 0.91801 0.23585 0.35688 0.0
C214 C 0.83672 0.27375 0.27855 0.0
C215 C 0.85287 0.25405 0.26014 0.0
C216 C 0.25727 0.59771 0.20204 0.0
C217 C 0.24071 0.61531 0.18139 0.0
C218 C 0.2549 0.64829 0.17722 0.0
C219 C 0.28468 0.66318 0.19297 0.0
H220 H 0.34785 0.74824 0.20028 0.0
H221 H 0.37329 0.80007 0.17751 0.0
H222 H 0.46889 0.79688 0.22139 0.0
H223 H 0.4429 0.74446 0.24508 0.0
H224 H 0.42204 0.69001 0.31484 0.0
H225 H 0.44432 0.66266 0.35844 0.0
H226 H 0.38491 0.57155 0.32602 0.0
H227 H 0.36246 0.59866 0.28278 0.0
H228 H 0.2991 0.59839 0.2336 0.0
H229 H 0.24745 0.5722 0.20565 0.0
H230 H 0.24269 0.66291 0.16216 0.0
H231 H 0.29449 0.68866 0.18905 0.0
N232 N 0.34849 0.69251 0.22148 0.0
N233 N 0.39114 0.69372 0.25946 0.0
N234 N 0.34703 0.6475 0.25371 0.0
C235 C 0.37742 0.70856 0.2357 0.0
C236 C 0.37596 0.6631 0.26871 0.0
C237 C 0.33307 0.66213 0.2301 0.0
C238 C 0.39335 0.74173 0.22433 0.0
C239 C 0.37432 0.75839 0.20529 0.0
C240 C 0.38902 0.78824 0.19197 0.0
C241 C 0.42341 0.80256 0.19696 0.0
C242 C 0.44233 0.78661 0.21699 0.0
C243 C 0.42744 0.75652 0.23056 0.0
C244 C 0.39039 0.64666 0.29508 0.0
C245 C 0.41376 0.66414 0.31693 0.0
C246 C 0.42638 0.64848 0.34211 0.0
C247 C 0.41646 0.61485 0.34581 0.0
C248 C 0.39334 0.59741 0.32382 0.0
C249 C 0.38033 0.61306 0.29902 0.0
C250 C 0.30122 0.64569 0.21365 0.0
C251 C 0.28706 0.61272 0.21803 0.0
C252 C 0.12069 0.27257 0.6695 0.0
C253 C 0.09765 0.24904 0.68671 0.0
C254 C 0.08885 0.25684 0.71774 0.0
C255 C 0.1032 0.28699 0.73123 0.0
H256 H 0.08193 0.37169 0.78667 0.0
H257 H 0.05807 0.39764 0.83025 0.0
H258 H 0.15781 0.4535 0.85279 0.0
H259 H 0.1817 0.42805 0.80889 0.0
H260 H 0.22811 0.44796 0.73672 0.0
H261 H 0.28079 0.47475 0.71047 0.0
H262 H 0.28276 0.38697 0.66003 0.0
H263 H 0.22991 0.36078 0.6852 0.0
H264 H 0.1531 0.31951 0.66891 0.0
H265 H 0.12748 0.26816 0.64529 0.0
H266 H 0.07143 0.23942 0.73196 0.0
H267 H 0.09633 0.29193 0.75529 0.0
N268 N 0.13146 0.35432 0.75397 0.0
N269 N 0.17843 0.39846 0.75336 0.0
N270 N 0.17451 0.35719 0.71594 0.0
C271 C 0.1483 0.38301 0.76653 0.0
C272 C 0.19171 0.38564 0.728 0.0
C273 C 0.14455 0.34127 0.72855 0.0
C274 C 0.1338 0.39777 0.79404 0.0
C275 C 0.09886 0.38939 0.80096 0.0
C276 C 0.08513 0.40439 0.82588 0.0
C277 C 0.106 0.42771 0.84504 0.0
C278 C 0.14103 0.43553 0.83866 0.0
C279 C 0.15468 0.42102 0.81333 0.0
C280 C 0.2245 0.40219 0.71309 0.0
C281 C 0.23981 0.4344 0.72002 0.0
C282 C 0.27017 0.44975 0.705 0.0
C283 C 0.28619 0.43321 0.68282 0.0
C284 C 0.27098 0.40088 0.67629 0.0
C285 C 0.24061 0.38569 0.69104 0.0
C286 C 0.127 0.30997 0.71418 0.0
C287 C 0.13526 0.30235 0.68305 0.0
Dy288 Dy 0.05017 0.03719 0.52759 0.0
Dy289 Dy 0.97875 0.03011 0.56762 0.0
C290 C 0.04465 0.08572 0.58499 0.0
O291 O 0.0547 1.00774 0.57051 0.0
O292 O 0.9986 0.98743 0.58173 0.0
O293 O 0.1044 0.04299 0.52733 0.0
O294 O 0.07648 0.036 0.48296 0.0
O295 O 0.96642 0.99991 0.52352 0.0
O296 O 0.0185 0.98934 0.5138 0.0
O297 O 0.98634 0.07653 0.54174 0.0
O298 O 0.0185 0.06503 0.50032 0.0
O299 O 0.92515 0.02945 0.56687 0.0
O300 O 0.95036 0.02378 0.61135 0.0
C301 C 0.03058 0.98614 0.58402 0.0
O302 O 0.05823 0.08171 0.55727 0.0
O303 O 0.01736 0.06549 0.59568 0.0
C304 C 0.13337 0.06611 0.48085 0.0
C305 C 0.18865 0.10759 0.45079 0.0
C306 C 0.18183 0.11155 0.48313 0.0
C307 C 0.15443 0.091 0.49805 0.0
C308 C 0.13977 0.06256 0.44848 0.0
C309 C 0.16698 0.08315 0.43356 0.0
C310 C 0.10626 0.04218 0.49642 0.0
C311 C 0.98551 0.98237 0.51002 0.0
C312 C 0.99894 0.08241 0.51314 0.0
C313 C 0.89378 0.99502 0.6053 0.0
C314 C 0.84058 0.94375 0.62422 0.0
C315 C 0.87402 0.93948 0.62199 0.0
C316 C 0.90036 0.96483 0.61246 0.0
C317 C 0.86041 0.99914 0.60645 0.0
C318 C 0.83399 0.97372 0.61571 0.0
C319 C 0.92145 0.02244 0.59703 0.0
H320 H 0.19814 0.13001 0.4971 0.0
H321 H 0.15018 0.09426 0.52312 0.0
H322 H 0.12396 0.04349 0.43477 0.0
H323 H 0.17105 0.07987 0.40846 0.0
H324 H 0.88014 0.91691 0.62871 0.0
H325 H 0.92596 0.96104 0.61139 0.0
H326 H 0.85485 0.02218 0.60061 0.0
H327 H 0.80847 0.97767 0.61661 0.0
Dy328 Dy 0.46511 1.00639 1.03078 0.0
Dy329 Dy 0.53679 0.02295 0.07105 0.0
C330 C 0.47886 0.95884 0.08485 0.0
O331 O 0.45746 0.03218 0.07548 0.0
O332 O 0.51086 0.06237 0.08236 0.0
O333 O 0.41059 0.99449 1.03438 0.0
O334 O 0.43491 1.00346 0.98821 0.0
O335 O 0.54658 0.057 1.02923 0.0
O336 O 0.49164 0.05495 1.01353 0.0
O337 O 0.54068 0.98187 1.04016 0.0
O338 O 0.49883 0.98129 1.0029 0.0
O339 O 0.59082 0.02782 0.07384 0.0
O340 O 0.56188 0.03263 0.11647 0.0
C341 C 0.4781 0.05806 0.08635 0.0
O342 O 0.46672 0.96119 0.05632 0.0
O343 O 0.50091 0.98302 0.09756 0.0
C344 C 0.38155 0.9669 0.99101 0.0
C345 C 0.33261 0.91549 0.96599 0.0
C346 C 0.36714 0.91438 0.96602 0.0
C347 C 0.39146 0.93989 0.97854 0.0
C348 C 0.34716 0.96771 0.9918 0.0
C349 C 0.32287 0.94223 0.97949 0.0
C350 C 0.40637 0.99437 1.0037 0.0
C351 C 0.52422 0.0682 1.01236 0.0
C352 C 0.52592 0.97207 1.01312 0.0
C353 C 0.61968 0.05992 0.11555 0.0
C354 C 0.67662 0.10527 0.13751 0.0
C355 C 0.66323 0.10864 0.10719 0.0
C356 C 0.63493 0.08606 0.09624 0.0
C357 C 0.63241 0.05707 0.14603 0.0
C358 C 0.66051 0.07952 0.15696 0.0
C359 C 0.59185 0.03415 0.10419 0.0
H360 H 0.37549 0.89427 0.95554 0.0
H361 H 0.41795 0.93873 0.97809 0.0
H362 H 0.3391 0.98824 1.00176 0.0
H363 H 0.29646 0.94358 0.98031 0.0
H364 H 0.67509 0.12824 0.0917 0.0
H365 H 0.62539 0.08871 0.07258 0.0
H366 H 0.6209 0.03711 0.16128 0.0
H367 H 0.66966 0.07667 0.18072 0.0
Dy368 Dy 0.51456 0.48484 0.53263 0.0
Dy369 Dy 0.52125 0.55204 0.57127 0.0
C370 C 0.55053 0.49547 0.60133 0.0
O371 O 0.46191 0.48315 0.5501 0.0
O372 O 0.47615 0.5177 0.59203 0.0
O373 O 0.50572 0.43287 0.53158 0.0
O374 O 0.51712 0.46031 0.48823 0.0
O375 O 0.48267 0.55299 0.53353 0.0
O376 O 0.50064 0.52011 0.49785 0.0
O377 O 0.56264 0.56143 0.53455 0.0
O378 O 0.56916 0.5099 0.52872 0.0
O379 O 0.52698 0.60364 0.57099 0.0
O380 O 0.52277 0.57779 0.61556 0.0
C381 C 0.45426 0.49501 0.57727 0.0
O382 O 0.53004 0.47541 0.58257 0.0
O383 O 0.55678 0.52663 0.59605 0.0
C384 C 0.54204 0.41562 0.49401 0.0
C385 C 0.59906 0.39006 0.48001 0.0
C386 C 0.58365 0.38525 0.51008 0.0
C387 C 0.55546 0.39803 0.51709 0.0
C388 C 0.55654 0.41901 0.4635 0.0
C389 C 0.58486 0.40656 0.45664 0.0
C390 C 0.51473 0.43244 0.50185 0.0
C391 C 0.48459 0.54303 0.50424 0.0
C392 C 0.58013 0.54093 0.52422 0.0
C393 C 0.49398 0.6195 0.61101 0.0
C394 C 0.43946 0.64668 0.62936 0.0
C395 C 0.43344 0.61617 0.61501 0.0
C396 C 0.46045 0.60276 0.60588 0.0
C397 C 0.50028 0.64998 0.62507 0.0
C398 C 0.4732 0.66351 0.63419 0.0
C399 C 0.52204 0.6049 0.60152 0.0
H400 H 0.5941 0.37256 0.52849 0.0
H401 H 0.54481 0.39482 0.5408 0.0
H402 H 0.54655 0.4321 0.44512 0.0
H403 H 0.59588 0.41009 0.43308 0.0
H404 H 0.40783 0.60235 0.61141 0.0
H405 H 0.45517 0.57915 0.595 0.0
H406 H 0.52606 0.66326 0.62901 0.0
H407 H 0.47867 0.68719 0.64488 0.0
Dy408 Dy 0.01323 0.56586 1.02949 0.0
Dy409 Dy 0.00801 0.49846 0.0674 0.0
C410 C 0.977 0.5539 0.0983 0.0
O411 O 0.06598 0.56838 0.04733 0.0
O412 O 0.05202 0.53319 0.08889 0.0
O413 O 0.02367 0.61782 1.02776 0.0
O414 O 0.0079 0.59001 0.98532 0.0
O415 O 0.048 0.5 1.03026 0.0
O416 O 0.02675 0.53048 0.99457 0.0
O417 O 0.96669 0.48935 1.03075 0.0
O418 O 0.95873 0.54054 1.0269 0.0
O419 O 1.00271 0.44695 0.06601 0.0
O420 O 1.00732 0.47178 0.11118 0.0
C421 C 0.07363 0.55644 0.07449 0.0
O422 O 0.99639 0.5746 0.07913 0.0
O423 O 0.97219 0.52274 0.09336 0.0
C424 C 0.98723 0.6366 0.99228 0.0
C425 C 0.93442 0.66738 0.97668 0.0
C426 C 0.93242 0.64836 1.00427 0.0
C427 C 0.95853 0.63298 1.01191 0.0
C428 C 0.98965 0.65592 0.96511 0.0
C429 C 0.96351 0.67115 0.95733 0.0
C430 C 0.01334 0.61831 0.99848 0.0
C431 C 0.04494 0.50925 1.0009 0.0
C432 C 0.94837 0.50962 1.02163 0.0
C433 C 0.03647 0.43028 0.10569 0.0
C434 C 0.09401 0.40923 0.1267 0.0
C435 C 0.09212 0.41961 0.09522 0.0
C436 C 0.0637 0.43028 0.08486 0.0
C437 C 0.03781 0.41882 0.13677 0.0
C438 C 0.06638 0.40847 0.14723 0.0
C439 C 0.00837 0.44517 0.09639 0.0
H440 H 0.91063 0.6452 1.01988 0.0
H441 H 0.95607 0.61785 1.03287 0.0
H442 H 0.01141 0.6586 0.94946 0.0
H443 H 0.96568 0.68509 0.93561 0.0
H444 H 0.11318 0.42072 0.07901 0.0
H445 H 0.06355 0.43944 0.06086 0.0
H446 H 0.01719 0.41881 0.15324 0.0
H447 H 0.0671 0.40029 0.17154 0.0
H448 H 0.30652 0.17849 0.36169 0.0
H449 H 0.28813 0.26136 0.41158 0.0
H450 H 0.24709 0.22623 0.44602 0.0
H451 H 0.21219 0.17238 0.45787 0.0
H452 H 0.2319 0.08991 0.40809 0.0
H453 H 0.2769 0.12466 0.37772 0.0
C454 C 0.29441 0.18894 0.38071 0.0
C455 C 0.30031 0.22256 0.3839 0.0
C456 C 0.27062 0.1687 0.40007 0.0
C457 C 0.28376 0.23557 0.40835 0.0
C458 C 0.26026 0.21551 0.42802 0.0
C459 C 0.22676 0.16194 0.44082 0.0
C460 C 0.21822 0.12864 0.43486 0.0
C461 C 0.25276 0.18208 0.42344 0.0
C462 C 0.2373 0.11555 0.41255 0.0
C463 C 0.26322 0.13537 0.39533 0.0
H464 H 0.24336 0.79453 0.89722 0.0
H465 H 0.20045 0.86923 0.85561 0.0
H466 H 0.23446 0.90877 0.8906 0.0
H467 H 0.28127 0.92355 0.92792 0.0
H468 H 0.32695 0.85017 0.96802 0.0
H469 H 0.28779 0.80895 0.93784 0.0
C470 C 0.2413 0.81942 0.8959 0.0
C471 C 0.21937 0.82872 0.87358 0.0
C472 C 0.26198 0.84247 0.91531 0.0
C473 C 0.21659 0.86105 0.87276 0.0
C474 C 0.23643 0.88389 0.89251 0.0
C475 C 0.28223 0.89847 0.93065 0.0
C476 C 0.30709 0.88998 0.95009 0.0
C477 C 0.25988 0.87504 0.91317 0.0
C478 C 0.30835 0.8574 0.95285 0.0
C479 C 0.28587 0.83381 0.93574 0.0
H480 H 0.61908 0.46571 0.73047 0.0
H481 H 0.57454 0.36812 0.70244 0.0
H482 H 0.55213 0.38774 0.65447 0.0
H483 H 0.54464 0.43261 0.62009 0.0
H484 H 0.59051 0.53008 0.64742 0.0
H485 H 0.61326 0.51042 0.69526 0.0
C486 C 0.60483 0.44859 0.71378 0.0
C487 C 0.5985 0.4153 0.72064 0.0
C488 C 0.59221 0.46005 0.68577 0.0
C489 C 0.57943 0.39383 0.69854 0.0
C490 C 0.56674 0.40505 0.67079 0.0
C491 C 0.55972 0.44962 0.6364 0.0
C492 C 0.56568 0.48292 0.62986 0.0
C493 C 0.57284 0.43812 0.66414 0.0
C494 C 0.58539 0.50437 0.65152 0.0
C495 C 0.59843 0.49312 0.67907 0.0
H496 H 0.90851 0.58177 0.22837 0.0
H497 H 0.94719 0.67981 0.1979 0.0
H498 H 0.96971 0.66077 0.1497 0.0
H499 H 0.9793 0.6164 0.11594 0.0
H500 H 0.93946 0.51832 0.14558 0.0
H501 H 0.91621 0.53731 0.19358 0.0
C502 C 0.92151 0.59907 0.2111 0.0
C503 C 0.92626 0.63235 0.21736 0.0
C504 C 0.93425 0.58793 0.18295 0.0
C505 C 0.94363 0.65411 0.19447 0.0
C506 C 0.95637 0.64323 0.16659 0.0
C507 C 0.96542 0.5991 0.13278 0.0
C508 C 0.96133 0.56585 0.12686 0.0
C509 C 0.95204 0.6102 0.16059 0.0
C510 C 0.94312 0.54401 0.1492 0.0
C511 C 0.92981 0.55487 0.17684 0.0
H512 H 0.396 0.15573 0.14109 0.0
H513 H 0.497 0.20957 0.16194 0.0
H514 H 0.52091 0.16651 0.13929 0.0
H515 H 0.51288 0.11367 0.11343 0.0
H516 H 0.41142 0.05954 0.09379 0.0
H517 H 0.38792 0.10257 0.11625 0.0
C518 C 0.42326 0.15814 0.14033 0.0
C519 C 0.44477 0.18583 0.15281 0.0
C520 C 0.4367 0.13317 0.12774 0.0
C521 C 0.48 0.18842 0.15239 0.0
C522 C 0.49363 0.16385 0.13948 0.0
C523 C 0.48562 0.11119 0.11419 0.0
C524 C 0.46399 0.08336 0.10191 0.0
C525 C 0.4722 0.13607 0.12715 0.0
C526 C 0.42871 0.0806 0.10314 0.0
C527 C 0.41521 0.10527 0.11587 0.0
H528 H 0.04628 0.86128 0.65803 0.0
H529 H 0.14486 0.88597 0.61347 0.0
H530 H 0.1302 0.93265 0.58846 0.0
H531 H 0.09003 0.96701 0.58 0.0
H532 H 0.99111 0.94257 0.62397 0.0
H533 H 1.00553 0.89555 0.64893 0.0
C534 C 0.06455 0.87692 0.64288 0.0
C535 C 0.09658 0.87006 0.63756 0.0
C536 C 0.05606 0.90394 0.62875 0.0
C537 C 0.11984 0.89036 0.61757 0.0
C538 C 0.11161 0.91726 0.60349 0.0
C539 C 0.07167 0.95158 0.59524 0.0
C540 C 0.03965 0.95847 0.60032 0.0
C541 C 0.07991 0.92439 0.60908 0.0
C542 C 0.016 0.93789 0.61975 0.0
C543 C 0.02419 0.91096 0.63397 0.0
H544 H 0.81 0.48003 0.94446 0.0
H545 H 0.83472 0.38689 0.93826 0.0
H546 H 0.88656 0.40653 0.96842 0.0
H547 H 0.92435 0.44951 0.99779 0.0
H548 H 0.90073 0.54315 1.00405 0.0
H549 H 0.84926 0.52402 0.9729 0.0
C550 C 0.82699 0.46422 0.9494 0.0
C551 C 0.81831 0.43196 0.93926 0.0
C552 C 0.85687 0.47565 0.96711 0.0
C553 C 0.84053 0.41171 0.94608 0.0
C554 C 0.87023 0.42291 0.96335 0.0
C555 C 0.90791 0.46575 0.99252 0.0
C556 C 0.91642 0.49768 1.00357 0.0
C557 C 0.87847 0.45469 0.97434 0.0
C558 C 0.89485 0.5184 0.99607 0.0
C559 C 0.86538 0.50749 0.97813 0.0
H560 H 0.71683 0.56983 0.44374 0.0
H561 H 0.69693 0.66512 0.44486 0.0
H562 H 0.64559 0.64569 0.47596 0.0
H563 H 0.60659 0.6021 0.50374 0.0
H564 H 0.62533 0.50634 0.5026 0.0
H565 H 0.67652 0.52543 0.47087 0.0
C566 C 0.70103 0.58621 0.45052 0.0
C567 C 0.71099 0.61898 0.44213 0.0
C568 C 0.67136 0.57487 0.46871 0.0
C569 C 0.69024 0.6399 0.45134 0.0
C570 C 0.66078 0.62881 0.46912 0.0
C571 C 0.6219 0.58536 0.49674 0.0
C572 C 0.61205 0.55283 0.50587 0.0
C573 C 0.65124 0.59643 0.47824 0.0
C574 C 0.63223 0.53155 0.49616 0.0
C575 C 0.66155 0.54244 0.47787 0.0
H576 H 0.2245 0.38708 0.19645 0.0
H577 H 0.22548 0.324 0.11646 0.0
H578 H 0.17624 0.34039 0.09404 0.0
H579 H 0.13053 0.37007 0.09899 0.0
H580 H 0.128 0.43016 0.18094 0.0
H581 H 0.17959 0.41666 0.20129 0.0
C582 C 0.21385 0.37665 0.17423 0.0
C583 C 0.22861 0.3541 0.15837 0.0
C584 C 0.18491 0.3853 0.16205 0.0
C585 C 0.21494 0.34164 0.1291 0.0
C586 C 0.18653 0.35075 0.1164 0.0
C587 C 0.14145 0.38028 0.12121 0.0
C588 C 0.12539 0.40085 0.1386 0.0
C589 C 0.17099 0.37218 0.13293 0.0
C590 C 0.13963 0.41385 0.16742 0.0
C591 C 0.16922 0.40632 0.17894 0.0
H592 H 0.54399 0.19175 0.92377 0.0
H593 H 0.64634 0.20514 0.95867 0.0
H594 H 0.63089 0.155 0.98863 0.0
H595 H 0.58775 0.10796 1.00683 0.0
H596 H 0.48528 0.09477 0.97188 0.0
H597 H 0.50141 0.14357 0.94024 0.0
C598 C 0.56301 0.18349 0.9376 0.0
C599 C 0.59622 0.20252 0.93909 0.0
C600 C 0.5539 0.15451 0.95506 0.0
C601 C 0.62042 0.19138 0.95742 0.0
C602 C 0.61165 0.16257 0.97455 0.0
C603 C 0.56897 0.11561 0.99216 0.0
C604 C 0.53527 0.09749 0.99205 0.0
C605 C 0.57834 0.14406 0.97391 0.0
C606 C 0.5114 0.10807 0.97278 0.0
C607 C 0.52058 0.13611 0.95452 0.0
H608 H 0.89648 0.86136 0.43937 0.0
H609 H 0.99566 0.84483 0.41818 0.0
H610 H 0.02202 0.8946 0.44549 0.0
H611 H 0.01707 0.94169 0.47747 0.0
H612 H 0.91781 0.95757 0.49966 0.0
H613 H 0.89153 0.90908 0.47031 0.0
C614 C 0.92388 0.86849 0.44081 0.0
C615 C 0.94394 0.84904 0.4267 0.0
C616 C 0.93895 0.89704 0.45696 0.0
C617 C 0.97946 0.85928 0.42839 0.0
C618 C 0.9946 0.88769 0.44427 0.0
C619 C 0.98967 0.93469 0.47584 0.0
C620 C 0.96955 0.95345 0.49095 0.0
C621 C 0.97462 0.90661 0.45893 0.0
C622 C 0.93406 0.9438 0.48837 0.0
C623 C 0.91895 0.91597 0.47157 0.0
H624 H 0.32738 0.70534 0.6965 0.0
H625 H 0.27255 0.67079 0.61107 0.0
H626 H 0.32191 0.65261 0.59085 0.0
H627 H 0.38009 0.64533 0.59824 0.0
H628 H 0.43384 0.6785 0.68467 0.0
H629 H 0.38544 0.69865 0.70362 0.0
C630 C 0.3261 0.69355 0.67357 0.0
C631 C 0.29622 0.68909 0.65546 0.0
C632 C 0.35441 0.68306 0.66224 0.0
C633 C 0.29528 0.67457 0.62543 0.0
C634 C 0.32343 0.66407 0.61393 0.0
C635 C 0.38114 0.65682 0.6213 0.0
C636 C 0.41055 0.66031 0.64003 0.0
C637 C 0.35304 0.66799 0.63225 0.0
C638 C 0.41173 0.67582 0.66959 0.0
C639 C 0.38396 0.68714 0.68056 0.0
H640 H 0.74671 0.81962 0.68409 0.0
H641 H 0.70891 0.89231 0.73499 0.0
H642 H 0.74406 0.93417 0.70268 0.0
H643 H 0.79054 0.95061 0.66496 0.0
H644 H 0.82956 0.87861 0.6142 0.0
H645 H 0.78946 0.83609 0.64201 0.0
C646 C 0.74595 0.8446 0.68787 0.0
C647 C 0.7253 0.85275 0.71205 0.0
C648 C 0.7669 0.86875 0.66967 0.0
C649 C 0.7242 0.88522 0.71633 0.0
C650 C 0.74461 0.90928 0.69808 0.0
C651 C 0.78977 0.92565 0.65929 0.0
C652 C 0.81332 0.91789 0.63773 0.0
C653 C 0.76673 0.90138 0.67534 0.0
C654 C 0.81219 0.88531 0.63115 0.0
C655 C 0.78915 0.86097 0.64693 0.0
H656 H 0.80179 0.18252 0.21284 0.0
H657 H 0.76547 0.26303 0.1756 0.0
H658 H 0.72315 0.22631 0.14395 0.0
H659 H 0.69223 0.17081 0.13214 0.0
H660 H 0.73004 0.09108 0.1692 0.0
H661 H 0.77643 0.12824 0.1953 0.0
C662 C 0.78548 0.19232 0.19704 0.0
C663 C 0.78669 0.22555 0.19693 0.0
C664 C 0.76109 0.17113 0.17921 0.0
C665 C 0.76475 0.23751 0.17662 0.0
C666 C 0.74053 0.21652 0.15849 0.0
C667 C 0.71104 0.16161 0.14537 0.0
C668 C 0.70724 0.12822 0.14931 0.0
C669 C 0.73774 0.18318 0.16045 0.0
C670 C 0.73185 0.11668 0.16653 0.0
C671 C 0.7585 0.1379 0.18133 0.0
H672 H 0.42306 0.63093 0.40895 0.0
H673 H 0.44091 0.56008 0.34195 0.0
H674 H 0.46299 0.53145 0.38448 0.0
H675 H 0.47775 0.52652 0.44098 0.0
H676 H 0.45824 0.5967 0.50816 0.0
H677 H 0.43648 0.62525 0.46561 0.0
C678 C 0.43197 0.60933 0.40363 0.0
C679 C 0.43032 0.59781 0.37214 0.0
C680 C 0.44432 0.59266 0.42839 0.0
C681 C 0.44159 0.56945 0.3659 0.0
C682 C 0.45434 0.55307 0.39026 0.0
C683 C 0.46863 0.54798 0.44638 0.0
C684 C 0.46978 0.55926 0.47797 0.0
C685 C 0.45582 0.56439 0.42166 0.0
C686 C 0.45769 0.58719 0.48427 0.0
C687 C 0.44527 0.60371 0.45984 0.0
H688 H 0.12699 0.43778 0.90687 0.0
H689 H 0.0514 0.45542 0.84132 0.0
H690 H 0.02691 0.48341 0.88285 0.0
H691 H 0.02641 0.50256 0.93826 0.0
H692 H 0.0997 0.48176 1.00472 0.0
H693 H 0.12559 0.45573 0.96266 0.0
C694 C 0.10524 0.44787 0.90167 0.0
C695 C 0.09113 0.44448 0.8709 0.0
C696 C 0.09085 0.46352 0.92594 0.0
C697 C 0.06265 0.45741 0.86477 0.0
C698 C 0.0487 0.47357 0.88852 0.0
C699 C 0.04822 0.49256 0.94348 0.0
C700 C 0.06122 0.49446 0.97467 0.0
C701 C 0.06251 0.47677 0.91925 0.0
C702 C 0.08915 0.48079 0.98102 0.0
C703 C 0.104 0.46583 0.95692 0.0
H704 H 0.60729 0.87539 0.9568 0.0
H705 H 0.5107 0.83501 0.91362 0.0
H706 H 0.48663 0.87751 0.93746 0.0
H707 H 0.49319 0.92591 0.97169 0.0
H708 H 0.5906 0.96496 1.01443 0.0
H709 H 0.61416 0.92334 0.98955 0.0
C710 C 0.58082 0.87558 0.95297 0.0
C711 C 0.56067 0.85185 0.9339 0.0
C712 C 0.56737 0.90007 0.96645 0.0
C713 C 0.52668 0.85299 0.92836 0.0
C714 C 0.51295 0.87729 0.94193 0.0
C715 C 0.51964 0.92545 0.97517 0.0
C716 C 0.54006 0.94844 0.99495 0.0
C717 C 0.5331 0.90103 0.96104 0.0
C718 C 0.57424 0.94742 0.99951 0.0
C719 C 0.58778 0.92359 0.98534 0.0
H720 H 0.95399 0.20565 0.46392 0.0
H721 H 0.94435 0.15219 0.37609 0.0
H722 H 0.96837 0.1108 0.4013 0.0
H723 H 0.98792 0.08742 0.44966 0.0
H724 H 0.99195 0.13881 0.53825 0.0
H725 H 0.97395 0.183 0.51155 0.0
C726 C 0.95686 0.18487 0.45026 0.0
C727 C 0.94712 0.18215 0.41814 0.0
C728 C 0.96956 0.16057 0.46516 0.0
C729 C 0.95197 0.15531 0.40073 0.0
C730 C 0.96545 0.1314 0.41521 0.0
C731 C 0.98523 0.10852 0.46291 0.0
C732 C 0.99111 0.10991 0.4958 0.0
C733 C 0.97383 0.13349 0.44756 0.0
C734 C 0.98726 0.13716 0.5129 0.0
C735 C 0.977 0.16243 0.49767 0.0
H736 H 0.22021 0.62705 0.1212 0.0
H737 H 0.18802 0.56836 0.20409 0.0
H738 H 0.13466 0.54427 0.178 0.0
H739 H 0.09598 0.54116 0.13253 0.0
H740 H 0.1271 0.60144 0.05051 0.0
H741 H 0.18158 0.62388 0.07567 0.0
C742 C 0.20147 0.60921 0.13378 0.0
C743 C 0.20845 0.59973 0.16477 0.0
C744 C 0.1704 0.59579 0.11883 0.0
C745 C 0.18387 0.57596 0.18016 0.0
C746 C 0.1531 0.5623 0.16532 0.0
C747 C 0.11465 0.55916 0.12004 0.0
C748 C 0.10719 0.56959 0.08958 0.0
C749 C 0.14595 0.57219 0.13476 0.0
C750 C 0.1319 0.59296 0.07394 0.0
C751 C 0.16316 0.60582 0.08833 0.0
H752 H 0.30642 0.42524 0.62165 0.0
H753 H 0.33988 0.47741 0.70785 0.0
H754 H 0.39364 0.50216 0.68247 0.0
H755 H 0.43234 0.50746 0.63654 0.0
H756 H 0.3998 0.45314 0.55134 0.0
H757 H 0.34495 0.43048 0.57585 0.0
C758 C 0.32551 0.44176 0.63512 0.0
C759 C 0.31879 0.44921 0.66683 0.0
C760 C 0.3568 0.45547 0.62058 0.0
C761 C 0.34384 0.47138 0.68337 0.0
C762 C 0.37484 0.48541 0.66893 0.0
C763 C 0.41325 0.49075 0.62323 0.0
C764 C 0.42044 0.48202 0.59206 0.0
C765 C 0.38173 0.47745 0.63762 0.0
C766 C 0.39523 0.46026 0.57535 0.0
C767 C 0.36375 0.44727 0.58937 0.0
H768 H 0.83144 0.74413 0.91975 0.0
H769 H 0.75924 0.65976 0.95167 0.0
H770 H 0.80527 0.63815 0.9745 0.0
H771 H 0.86638 0.6416 0.98163 0.0
H772 H 0.93822 0.72687 0.95057 0.0
H773 H 0.89196 0.74953 0.93069 0.0
C774 C 0.82582 0.72105 0.93182 0.0
C775 C 0.7921 0.70338 0.93377 0.0
C776 C 0.85234 0.70881 0.9447 0.0
C777 C 0.78502 0.67381 0.94995 0.0
C778 C 0.81134 0.6614 0.96282 0.0
C779 C 0.87195 0.6654 0.97107 0.0
C780 C 0.90588 0.68229 0.9673 0.0
C781 C 0.84515 0.67847 0.95987 0.0
C782 C 0.91247 0.71298 0.95319 0.0
C783 C 0.88601 0.72608 0.94196 0.0
H784 H 0.41276 0.81959 0.13621 0.0
H785 H 0.46971 0.85524 0.22014 0.0
H786 H 0.49265 0.90652 0.19316 0.0
H787 H 0.49488 0.94215 0.14574 0.0
H788 H 0.436 0.9049 0.06301 0.0
H789 H 0.41528 0.85396 0.08971 0.0
C790 C 0.42993 0.83862 0.14885 0.0
C791 C 0.43908 0.83348 0.18039 0.0
C792 C 0.44265 0.86808 0.13337 0.0
C793 C 0.46223 0.8583 0.19585 0.0
C794 C 0.47521 0.88777 0.18046 0.0
C795 C 0.47753 0.9229 0.13358 0.0
C796 C 0.46703 0.92779 0.10231 0.0
C797 C 0.46537 0.89311 0.14923 0.0
C798 C 0.44458 0.90229 0.08703 0.0
C799 C 0.43263 0.87291 0.10228 0.0
H800 H 0.12882 0.21417 0.64627 0.0
H801 H 0.03351 0.21052 0.69408 0.0
H802 H 0.00956 0.15892 0.6689 0.0
H803 H 0.01464 0.11575 0.63101 0.0
H804 H 0.10903 0.12202 0.5808 0.0
H805 H 0.1339 0.17172 0.6087 0.0
C806 C 0.10265 0.20244 0.65102 0.0
C807 C 0.08312 0.21673 0.67211 0.0
C808 C 0.08869 0.17307 0.63582 0.0
C809 C 0.0495 0.20027 0.67837 0.0
C810 C 0.03561 0.17073 0.66373 0.0
C811 C 0.04076 0.12783 0.62641 0.0
C812 C 0.05989 0.11497 0.60379 0.0
C813 C 0.05486 0.15699 0.64217 0.0
C814 C 0.09359 0.13127 0.59793 0.0
C815 C 0.1079 0.15978 0.61392 0.0
H816 H 0.71712 0.31988 0.44865 0.0
H817 H 0.76153 0.41362 0.41012 0.0
H818 H 0.71317 0.43398 0.42896 0.0
H819 H 0.65658 0.42421 0.45304 0.0
H820 H 0.61173 0.33071 0.49163 0.0
H821 H 0.66222 0.31127 0.47663 0.0
C822 C 0.71654 0.34493 0.44499 0.0
C823 C 0.74274 0.36514 0.42777 0.0
C824 C 0.68848 0.35642 0.45566 0.0
C825 C 0.74144 0.39747 0.42291 0.0
C826 C 0.71383 0.40913 0.43368 0.0
C827 C 0.65792 0.39957 0.45815 0.0
C828 C 0.63039 0.37876 0.47299 0.0
C829 C 0.68687 0.38863 0.4494 0.0
C830 C 0.63265 0.34713 0.48017 0.0
C831 C 0.66144 0.33601 0.47151 0.0
loop_
_geom_bond_atom_site_label_1
_geom_bond_atom_site_label_2
_geom_bond_distance
_geom_bond_site_symmetry_2
_ccdc_geom_bond_type
C0 C1 1.384 . S
C0 H13 0.947 . S
C0 C35 1.382 . S
C1 C0 1.384 . S
C1 C2 1.378 . S
C2 C1 1.378 . S
C2 C3 1.378 . S
C2 H14 0.952 . S
C3 C2 1.378 . S
C3 H15 0.950 . S
C3 C34 1.383 . S
H4 C23 0.947 . S
H5 C24 0.946 . S
H6 C26 0.953 . S
H7 C27 0.945 . S
H8 C29 0.952 . S
H9 C30 0.949 . S
H10 C32 0.950 . S
H11 C33 0.948 . S
H12 C35 0.951 . S
H13 C0 0.947 . S
H14 C2 0.952 . S
H15 C3 0.950 . S
N16 C19 1.382 . S
N16 C21 1.363 . S
N17 C19 1.371 . S
N17 C20 1.372 . S
N18 C20 1.361 . S
N18 C21 1.377 . S
C19 N16 1.382 . S
C19 N17 1.371 . S
C19 C22 1.480 . S
C20 N17 1.372 . S
C20 N18 1.361 . S
C20 C28 1.457 . S
C21 N16 1.363 . S
C21 N18 1.377 . S
C21 C34 1.479 . S
C22 C19 1.480 . S
C22 C23 1.383 . S
C22 C27 1.385 . S
C23 H4 0.947 . S
C23 C22 1.383 . S
C23 C24 1.388 . S
C24 H5 0.946 . S
C24 C23 1.388 . S
C24 C25 1.384 . S
C25 C24 1.384 . S
C25 C26 1.377 . S
C26 H6 0.953 . S
C26 C25 1.377 . S
C26 C27 1.369 . S
C27 H7 0.945 . S
C27 C22 1.385 . S
C27 C26 1.369 . S
C28 C20 1.457 . S
C28 C29 1.372 . S
C28 C33 1.364 . S
C29 H8 0.952 . S
C29 C28 1.372 . S
C29 C30 1.389 . S
C30 H9 0.949 . S
C30 C29 1.389 . S
C30 C31 1.387 . S
C31 C30 1.387 . S
C31 C32 1.372 . S
C32 H10 0.950 . S
C32 C31 1.372 . S
C32 C33 1.379 . S
C33 H11 0.948 . S
C33 C28 1.364 . S
C33 C32 1.379 . S
C34 C3 1.383 . S
C34 C21 1.479 . S
C34 C35 1.398 . S
C35 C0 1.382 . S
C35 H12 0.951 . S
C35 C34 1.398 . S
C36 C37 1.384 . S
C36 H49 0.947 . S
C36 C71 1.382 . S
C37 C36 1.384 . S
C37 C38 1.378 . S
C38 C37 1.378 . S
C38 C39 1.378 . S
C38 H50 0.952 . S
C39 C38 1.378 . S
C39 H51 0.950 . S
C39 C70 1.383 . S
H40 C59 0.947 . S
H41 C60 0.946 . S
H42 C62 0.953 . S
H43 C63 0.945 . S
H44 C65 0.952 . S
H45 C66 0.949 . S
H46 C68 0.950 . S
H47 C69 0.948 . S
H48 C71 0.951 . S
H49 C36 0.947 . S
H50 C38 0.952 . S
H51 C39 0.950 . S
N52 C55 1.382 . S
N52 C57 1.363 . S
N53 C55 1.371 . S
N53 C56 1.372 . S
N54 C56 1.361 . S
N54 C57 1.377 . S
C55 N52 1.382 . S
C55 N53 1.371 . S
C55 C58 1.480 . S
C56 N53 1.372 . S
C56 N54 1.361 . S
C56 C64 1.457 . S
C57 N52 1.363 . S
C57 N54 1.377 . S
C57 C70 1.479 . S
C58 C55 1.480 . S
C58 C59 1.383 . S
C58 C63 1.385 . S
C59 H40 0.947 . S
C59 C58 1.383 . S
C59 C60 1.388 . S
C60 H41 0.946 . S
C60 C59 1.388 . S
C60 C61 1.384 . S
C61 C60 1.384 . S
C61 C62 1.377 . S
C62 H42 0.953 . S
C62 C61 1.377 . S
C62 C63 1.369 . S
C63 H43 0.945 . S
C63 C58 1.385 . S
C63 C62 1.369 . S
C64 C56 1.457 . S
C64 C65 1.372 . S
C64 C69 1.364 . S
C65 H44 0.952 . S
C65 C64 1.372 . S
C65 C66 1.389 . S
C66 H45 0.949 . S
C66 C65 1.389 . S
C66 C67 1.387 . S
C67 C66 1.387 . S
C67 C68 1.372 . S
C68 H46 0.950 . S
C68 C67 1.372 . S
C68 C69 1.379 . S
C69 H47 0.948 . S
C69 C64 1.364 . S
C69 C68 1.379 . S
C70 C39 1.383 . S
C70 C57 1.479 . S
C70 C71 1.398 . S
C71 C36 1.382 . S
C71 H48 0.951 . S
C71 C70 1.398 . S
C72 C73 1.384 . S
C72 H85 0.947 . S
C72 C107 1.382 . S
C73 C72 1.384 . S
C73 C74 1.378 . S
C74 C73 1.378 . S
C74 C75 1.378 . S
C74 H86 0.952 . S
C75 C74 1.378 . S
C75 H87 0.950 . S
C75 C106 1.383 . S
H76 C95 0.947 . S
H77 C96 0.946 . S
H78 C98 0.953 . S
H79 C99 0.945 . S
H80 C101 0.952 . S
H81 C102 0.949 . S
H82 C104 0.950 . S
H83 C105 0.948 . S
H84 C107 0.951 . S
H85 C72 0.947 . S
H86 C74 0.952 . S
H87 C75 0.950 . S
N88 C91 1.382 . S
N88 C93 1.363 . S
N89 C91 1.371 . S
N89 C92 1.372 . S
N90 C92 1.361 . S
N90 C93 1.377 . S
C91 N88 1.382 . S
C91 N89 1.371 . S
C91 C94 1.480 . S
C92 N89 1.372 . S
C92 N90 1.361 . S
C92 C100 1.457 . S
C93 N88 1.363 . S
C93 N90 1.377 . S
C93 C106 1.479 . S
C94 C91 1.480 . S
C94 C95 1.383 . S
C94 C99 1.385 . S
C95 H76 0.947 . S
C95 C94 1.383 . S
C95 C96 1.388 . S
C96 H77 0.946 . S
C96 C95 1.388 . S
C96 C97 1.384 . S
C97 C96 1.384 . S
C97 C98 1.377 . S
C98 H78 0.953 . S
C98 C97 1.377 . S
C98 C99 1.369 . S
C99 H79 0.945 . S
C99 C94 1.385 . S
C99 C98 1.369 . S
C100 C92 1.457 . S
C100 C101 1.372 . S
C100 C105 1.364 . S
C101 H80 0.952 . S
C101 C100 1.372 . S
C101 C102 1.389 . S
C102 H81 0.949 . S
C102 C101 1.389 . S
C102 C103 1.387 . S
C103 C102 1.387 . S
C103 C104 1.372 . S
C104 H82 0.950 . S
C104 C103 1.372 . S
C104 C105 1.379 . S
C105 H83 0.948 . S
C105 C100 1.364 . S
C105 C104 1.379 . S
C106 C75 1.383 . S
C106 C93 1.479 . S
C106 C107 1.398 . S
C107 C72 1.382 . S
C107 H84 0.951 . S
C107 C106 1.398 . S
C108 C109 1.384 . S
C108 H121 0.947 . S
C108 C143 1.382 . S
C109 C108 1.384 . S
C109 C110 1.378 . S
C110 C109 1.378 . S
C110 C111 1.378 . S
C110 H122 0.952 . S
C111 C110 1.378 . S
C111 H123 0.950 . S
C111 C142 1.383 . S
H112 C131 0.947 . S
H113 C132 0.946 . S
H114 C134 0.953 . S
H115 C135 0.945 . S
H116 C137 0.952 . S
H117 C138 0.949 . S
H118 C140 0.950 . S
H119 C141 0.948 . S
H120 C143 0.951 . S
H121 C108 0.947 . S
H122 C110 0.952 . S
H123 C111 0.950 . S
N124 C127 1.382 . S
N124 C129 1.363 . S
N125 C127 1.371 . S
N125 C128 1.372 . S
N126 C128 1.361 . S
N126 C129 1.377 . S
C127 N124 1.382 . S
C127 N125 1.371 . S
C127 C130 1.480 . S
C128 N125 1.372 . S
C128 N126 1.361 . S
C128 C136 1.457 . S
C129 N124 1.363 . S
C129 N126 1.377 . S
C129 C142 1.479 . S
C130 C127 1.480 . S
C130 C131 1.383 . S
C130 C135 1.385 . S
C131 H112 0.947 . S
C131 C130 1.383 . S
C131 C132 1.388 . S
C132 H113 0.946 . S
C132 C131 1.388 . S
C132 C133 1.384 . S
C133 C132 1.384 . S
C133 C134 1.377 . S
C134 H114 0.953 . S
C134 C133 1.377 . S
C134 C135 1.369 . S
C135 H115 0.945 . S
C135 C130 1.385 . S
C135 C134 1.369 . S
C136 C128 1.457 . S
C136 C137 1.372 . S
C136 C141 1.364 . S
C137 H116 0.952 . S
C137 C136 1.372 . S
C137 C138 1.389 . S
C138 H117 0.949 . S
C138 C137 1.389 . S
C138 C139 1.387 . S
C139 C138 1.387 . S
C139 C140 1.372 . S
C140 H118 0.950 . S
C140 C139 1.372 . S
C140 C141 1.379 . S
C141 H119 0.948 . S
C141 C136 1.364 . S
C141 C140 1.379 . S
C142 C111 1.383 . S
C142 C129 1.479 . S
C142 C143 1.398 . S
C143 C108 1.382 . S
C143 H120 0.951 . S
C143 C142 1.398 . S
C144 C145 1.384 . S
C144 H157 0.947 . S
C144 C179 1.382 . S
C145 C144 1.384 . S
C145 C146 1.378 . S
C146 C145 1.378 . S
C146 C147 1.378 . S
C146 H158 0.952 . S
C147 C146 1.378 . S
C147 H159 0.950 . S
C147 C178 1.383 . S
H148 C167 0.947 . S
H149 C168 0.946 . S
H150 C170 0.953 . S
H151 C171 0.945 . S
H152 C173 0.952 . S
H153 C174 0.949 . S
H154 C176 0.950 . S
H155 C177 0.948 . S
H156 C179 0.951 . S
H157 C144 0.947 . S
H158 C146 0.952 . S
H159 C147 0.950 . S
N160 C163 1.382 . S
N160 C165 1.363 . S
N161 C163 1.371 . S
N161 C164 1.372 . S
N162 C164 1.361 . S
N162 C165 1.377 . S
C163 N160 1.382 . S
C163 N161 1.371 . S
C163 C166 1.480 . S
C164 N161 1.372 . S
C164 N162 1.361 . S
C164 C172 1.457 . S
C165 N160 1.363 . S
C165 N162 1.377 . S
C165 C178 1.479 . S
C166 C163 1.480 . S
C166 C167 1.383 . S
C166 C171 1.385 . S
C167 H148 0.947 . S
C167 C166 1.383 . S
C167 C168 1.388 . S
C168 H149 0.946 . S
C168 C167 1.388 . S
C168 C169 1.384 . S
C169 C168 1.384 . S
C169 C170 1.377 . S
C170 H150 0.953 . S
C170 C169 1.377 . S
C170 C171 1.369 . S
C171 H151 0.945 . S
C171 C166 1.385 . S
C171 C170 1.369 . S
C172 C164 1.457 . S
C172 C173 1.372 . S
C172 C177 1.364 . S
C173 H152 0.952 . S
C173 C172 1.372 . S
C173 C174 1.389 . S
C174 H153 0.949 . S
C174 C173 1.389 . S
C174 C175 1.387 . S
C175 C174 1.387 . S
C175 C176 1.372 . S
C176 H154 0.950 . S
C176 C175 1.372 . S
C176 C177 1.379 . S
C177 H155 0.948 . S
C177 C172 1.364 . S
C177 C176 1.379 . S
C178 C147 1.383 . S
C178 C165 1.479 . S
C178 C179 1.398 . S
C179 C144 1.382 . S
C179 H156 0.951 . S
C179 C178 1.398 . S
C180 C181 1.384 . S
C180 H193 0.947 . S
C180 C215 1.382 . S
C181 C180 1.384 . S
C181 C182 1.378 . S
C182 C181 1.378 . S
C182 C183 1.378 . S
C182 H194 0.952 . S
C183 C182 1.378 . S
C183 H195 0.950 . S
C183 C214 1.383 . S
H184 C203 0.947 . S
H185 C204 0.946 . S
H186 C206 0.953 . S
H187 C207 0.945 . S
H188 C209 0.952 . S
H189 C210 0.949 . S
H190 C212 0.950 . S
H191 C213 0.948 . S
H192 C215 0.951 . S
H193 C180 0.947 . S
H194 C182 0.952 . S
H195 C183 0.950 . S
N196 C199 1.382 . S
N196 C201 1.363 . S
N197 C199 1.371 . S
N197 C200 1.372 . S
N198 C200 1.361 . S
N198 C201 1.377 . S
C199 N196 1.382 . S
C199 N197 1.371 . S
C199 C202 1.480 . S
C200 N197 1.372 . S
C200 N198 1.361 . S
C200 C208 1.457 . S
C201 N196 1.363 . S
C201 N198 1.377 . S
C201 C214 1.479 . S
C202 C199 1.480 . S
C202 C203 1.383 . S
C202 C207 1.385 . S
C203 H184 0.947 . S
C203 C202 1.383 . S
C203 C204 1.388 . S
C204 H185 0.946 . S
C204 C203 1.388 . S
C204 C205 1.384 . S
C205 C204 1.384 . S
C205 C206 1.377 . S
C206 H186 0.953 . S
C206 C205 1.377 . S
C206 C207 1.369 . S
C207 H187 0.945 . S
C207 C202 1.385 . S
C207 C206 1.369 . S
C208 C200 1.457 . S
C208 C209 1.372 . S
C208 C213 1.364 . S
C209 H188 0.952 . S
C209 C208 1.372 . S
C209 C210 1.389 . S
C210 H189 0.949 . S
C210 C209 1.389 . S
C210 C211 1.387 . S
C211 C210 1.387 . S
C211 C212 1.372 . S
C212 H190 0.950 . S
C212 C211 1.372 . S
C212 C213 1.379 . S
C213 H191 0.948 . S
C213 C208 1.364 . S
C213 C212 1.379 . S
C214 C183 1.383 . S
C214 C201 1.479 . S
C214 C215 1.398 . S
C215 C180 1.382 . S
C215 H192 0.951 . S
C215 C214 1.398 . S
C216 C217 1.384 . S
C216 H229 0.947 . S
C216 C251 1.382 . S
C217 C216 1.384 . S
C217 C218 1.378 . S
C218 C217 1.378 . S
C218 C219 1.378 . S
C218 H230 0.952 . S
C219 C218 1.378 . S
C219 H231 0.950 . S
C219 C250 1.383 . S
H220 C239 0.947 . S
H221 C240 0.946 . S
H222 C242 0.953 . S
H223 C243 0.945 . S
H224 C245 0.952 . S
H225 C246 0.949 . S
H226 C248 0.950 . S
H227 C249 0.948 . S
H228 C251 0.951 . S
H229 C216 0.947 . S
H230 C218 0.952 . S
H231 C219 0.950 . S
N232 C235 1.382 . S
N232 C237 1.363 . S
N233 C235 1.371 . S
N233 C236 1.372 . S
N234 C236 1.361 . S
N234 C237 1.377 . S
C235 N232 1.382 . S
C235 N233 1.371 . S
C235 C238 1.480 . S
C236 N233 1.372 . S
C236 N234 1.361 . S
C236 C244 1.457 . S
C237 N232 1.363 . S
C237 N234 1.377 . S
C237 C250 1.479 . S
C238 C235 1.480 . S
C238 C239 1.383 . S
C238 C243 1.385 . S
C239 H220 0.947 . S
C239 C238 1.383 . S
C239 C240 1.388 . S
C240 H221 0.946 . S
C240 C239 1.388 . S
C240 C241 1.384 . S
C241 C240 1.384 . S
C241 C242 1.377 . S
C242 H222 0.953 . S
C242 C241 1.377 . S
C242 C243 1.369 . S
C243 H223 0.945 . S
C243 C238 1.385 . S
C243 C242 1.369 . S
C244 C236 1.457 . S
C244 C245 1.372 . S
C244 C249 1.364 . S
C245 H224 0.952 . S
C245 C244 1.372 . S
C245 C246 1.389 . S
C246 H225 0.949 . S
C246 C245 1.389 . S
C246 C247 1.387 . S
C247 C246 1.387 . S
C247 C248 1.372 . S
C248 H226 0.950 . S
C248 C247 1.372 . S
C248 C249 1.379 . S
C249 H227 0.948 . S
C249 C244 1.364 . S
C249 C248 1.379 . S
C250 C219 1.383 . S
C250 C237 1.479 . S
C250 C251 1.398 . S
C251 C216 1.382 . S
C251 H228 0.951 . S
C251 C250 1.398 . S
C252 C253 1.384 . S
C252 H265 0.947 . S
C252 C287 1.382 . S
C253 C252 1.384 . S
C253 C254 1.378 . S
C254 C253 1.378 . S
C254 C255 1.378 . S
C254 H266 0.952 . S
C255 C254 1.378 . S
C255 H267 0.950 . S
C255 C286 1.383 . S
H256 C275 0.947 . S
H257 C276 0.946 . S
H258 C278 0.953 . S
H259 C279 0.945 . S
H260 C281 0.952 . S
H261 C282 0.949 . S
H262 C284 0.950 . S
H263 C285 0.948 . S
H264 C287 0.951 . S
H265 C252 0.947 . S
H266 C254 0.952 . S
H267 C255 0.950 . S
N268 C271 1.382 . S
N268 C273 1.363 . S
N269 C271 1.371 . S
N269 C272 1.372 . S
N270 C272 1.361 . S
N270 C273 1.377 . S
C271 N268 1.382 . S
C271 N269 1.371 . S
C271 C274 1.480 . S
C272 N269 1.372 . S
C272 N270 1.361 . S
C272 C280 1.457 . S
C273 N268 1.363 . S
C273 N270 1.377 . S
C273 C286 1.479 . S
C274 C271 1.480 . S
C274 C275 1.383 . S
C274 C279 1.385 . S
C275 H256 0.947 . S
C275 C274 1.383 . S
C275 C276 1.388 . S
C276 H257 0.946 . S
C276 C275 1.388 . S
C276 C277 1.384 . S
C277 C276 1.384 . S
C277 C278 1.377 . S
C278 H258 0.953 . S
C278 C277 1.377 . S
C278 C279 1.369 . S
C279 H259 0.945 . S
C279 C274 1.385 . S
C279 C278 1.369 . S
C280 C272 1.457 . S
C280 C281 1.372 . S
C280 C285 1.364 . S
C281 H260 0.952 . S
C281 C280 1.372 . S
C281 C282 1.389 . S
C282 H261 0.949 . S
C282 C281 1.389 . S
C282 C283 1.387 . S
C283 C282 1.387 . S
C283 C284 1.372 . S
C284 H262 0.950 . S
C284 C283 1.372 . S
C284 C285 1.379 . S
C285 H263 0.948 . S
C285 C280 1.364 . S
C285 C284 1.379 . S
C286 C255 1.383 . S
C286 C273 1.479 . S
C286 C287 1.398 . S
C287 C252 1.382 . S
C287 H264 0.951 . S
C287 C286 1.398 . S
Dy288 O291 2.307 1_545 S
Dy288 O293 2.395 . S
Dy288 O294 2.379 . S
Dy288 O296 2.339 1_545 S
Dy288 O298 2.319 . S
Dy288 O302 2.275 . S
Dy288 C310 2.738 . S
Dy289 O292 2.298 1_655 S
Dy289 O295 2.275 . S
Dy289 O297 2.307 1_565 S
Dy289 O299 2.395 . S
Dy289 O300 2.379 . S
Dy289 O303 2.339 1_565 S
Dy289 C319 2.738 . S
C290 O302 1.254 . S
C290 O303 1.257 1_455 S
O291 Dy288 2.307 1_565 S
O291 C301 1.266 . S
O292 Dy289 2.298 1_455 S
O292 C301 1.236 . S
O293 Dy288 2.395 . S
O293 C310 1.255 . S
O294 Dy288 2.379 . S
O294 C310 1.249 . S
O295 Dy289 2.275 . S
O295 C311 1.254 . S
O296 Dy288 2.339 1_565 S
O296 C311 1.257 1_455 S
O297 Dy289 2.307 1_545 S
O297 C312 1.266 . S
O298 Dy288 2.319 . S
O298 C312 1.214 1_455 S
O299 Dy289 2.395 . S
O299 C319 1.255 . S
O300 Dy289 2.379 . S
O300 C319 1.249 . S
C301 O291 1.266 . S
C301 O292 1.236 . S
O302 Dy288 2.275 . S
O302 C290 1.254 . S
O303 Dy289 2.339 1_545 S
O303 C290 1.257 1_655 S
C304 C307 1.344 . S
C304 C308 1.328 . S
C304 C310 1.516 . S
C305 C306 1.304 . S
C305 C309 1.323 . S
C306 C305 1.304 . S
C306 C307 1.371 . S
C306 H320 0.930 . S
C307 C304 1.344 . S
C307 C306 1.371 . S
C307 H321 0.931 . S
C308 C304 1.328 . S
C308 C309 1.433 . S
C308 H322 0.931 . S
C309 C305 1.323 . S
C309 C308 1.433 . S
C309 H323 0.933 . S
C310 Dy288 2.738 . S
C310 O293 1.255 . S
C310 O294 1.249 . S
C310 C304 1.516 . S
C311 O295 1.254 . S
C311 O296 1.257 1_655 S
C312 O297 1.266 . S
C312 O298 1.214 1_655 S
C313 C316 1.344 . S
C313 C317 1.328 . S
C313 C319 1.516 . S
C314 C315 1.304 . S
C314 C318 1.323 . S
C315 C314 1.304 . S
C315 C316 1.371 . S
C315 H324 0.930 . S
C316 C313 1.344 . S
C316 C315 1.371 . S
C316 H325 0.931 . S
C317 C313 1.328 . S
C317 C318 1.433 . S
C317 H326 0.931 . S
C318 C314 1.323 . S
C318 C317 1.433 . S
C318 H327 0.933 . S
C319 Dy289 2.738 . S
C319 O299 1.255 . S
C319 O300 1.249 . S
C319 C313 1.516 . S
H320 C306 0.930 . S
H321 C307 0.931 . S
H322 C308 0.931 . S
H323 C309 0.933 . S
H324 C315 0.930 . S
H325 C316 0.931 . S
H326 C317 0.931 . S
H327 C318 0.933 . S
Dy328 O331 2.307 1_566 S
Dy328 O333 2.395 . S
Dy328 O334 2.379 . S
Dy328 O336 2.339 1_565 S
Dy328 O338 2.298 . S
Dy328 O342 2.275 1_556 S
Dy328 C350 2.738 . S
Dy329 O332 2.298 . S
Dy329 O335 2.275 1_554 S
Dy329 O337 2.307 1_544 S
Dy329 O339 2.395 . S
Dy329 O340 2.379 . S
Dy329 O343 2.339 1_545 S
Dy329 C359 2.738 . S
C330 O342 1.254 . S
C330 O343 1.257 . S
O331 Dy328 2.307 1_544 S
O331 C341 1.266 . S
O332 Dy329 2.298 . S
O332 C341 1.236 . S
O333 Dy328 2.395 . S
O333 C350 1.255 . S
O334 Dy328 2.379 . S
O334 C350 1.249 . S
O335 Dy329 2.275 1_556 S
O335 C351 1.254 . S
O336 Dy328 2.339 1_545 S
O336 C351 1.257 . S
O337 Dy329 2.307 1_566 S
O337 C352 1.266 . S
O338 Dy328 2.298 . S
O338 C352 1.236 . S
O339 Dy329 2.395 . S
O339 C359 1.255 . S
O340 Dy329 2.379 . S
O340 C359 1.249 . S
C341 O331 1.266 . S
C341 O332 1.236 . S
O342 Dy328 2.275 1_554 S
O342 C330 1.254 . S
O343 Dy329 2.339 1_565 S
O343 C330 1.257 . S
C344 C347 1.344 . S
C344 C348 1.328 . S
C344 C350 1.516 . S
C345 C346 1.304 . S
C345 C349 1.323 . S
C346 C345 1.304 . S
C346 C347 1.371 . S
C346 H360 0.930 . S
C347 C344 1.344 . S
C347 C346 1.371 . S
C347 H361 0.931 . S
C348 C344 1.328 . S
C348 C349 1.433 . S
C348 H362 0.931 . S
C349 C345 1.323 . S
C349 C348 1.433 . S
C349 H363 0.933 . S
C350 Dy328 2.738 . S
C350 O333 1.255 . S
C350 O334 1.249 . S
C350 C344 1.516 . S
C351 O335 1.254 . S
C351 O336 1.257 . S
C352 O337 1.266 . S
C352 O338 1.236 . S
C353 C356 1.344 . S
C353 C357 1.328 . S
C353 C359 1.516 . S
C354 C355 1.304 . S
C354 C358 1.323 . S
C355 C354 1.304 . S
C355 C356 1.371 . S
C355 H364 0.930 . S
C356 C353 1.344 . S
C356 C355 1.371 . S
C356 H365 0.931 . S
C357 C353 1.328 . S
C357 C358 1.433 . S
C357 H366 0.931 . S
C358 C354 1.323 . S
C358 C357 1.433 . S
C358 H367 0.933 . S
C359 Dy329 2.738 . S
C359 O339 1.255 . S
C359 O340 1.249 . S
C359 C353 1.516 . S
H360 C346 0.930 . S
H361 C347 0.931 . S
H362 C348 0.931 . S
H363 C349 0.933 . S
H364 C355 0.930 . S
H365 C356 0.931 . S
H366 C357 0.931 . S
H367 C358 0.933 . S
Dy368 O371 2.307 . S
Dy368 O373 2.395 . S
Dy368 O374 2.379 . S
Dy368 O376 2.339 . S
Dy368 O378 2.298 . S
Dy368 O382 2.275 . S
Dy368 C390 2.738 . S
Dy369 O372 2.298 . S
Dy369 O375 2.275 . S
Dy369 O377 2.307 . S
Dy369 O379 2.395 . S
Dy369 O380 2.379 . S
Dy369 O383 2.339 . S
Dy369 C399 2.738 . S
C370 O382 1.254 . S
C370 O383 1.257 . S
O371 Dy368 2.307 . S
O371 C381 1.266 . S
O372 Dy369 2.298 . S
O372 C381 1.236 . S
O373 Dy368 2.395 . S
O373 C390 1.255 . S
O374 Dy368 2.379 . S
O374 C390 1.249 . S
O375 Dy369 2.275 . S
O375 C391 1.254 . S
O376 Dy368 2.339 . S
O376 C391 1.257 . S
O377 Dy369 2.307 . S
O377 C392 1.266 . S
O378 Dy368 2.298 . S
O378 C392 1.236 . S
O379 Dy369 2.395 . S
O379 C399 1.255 . S
O380 Dy369 2.379 . S
O380 C399 1.249 . S
C381 O371 1.266 . S
C381 O372 1.236 . S
O382 Dy368 2.275 . S
O382 C370 1.254 . S
O383 Dy369 2.339 . S
O383 C370 1.257 . S
C384 C387 1.344 . S
C384 C388 1.328 . S
C384 C390 1.516 . S
C385 C386 1.304 . S
C385 C389 1.323 . S
C386 C385 1.304 . S
C386 C387 1.371 . S
C386 H400 0.930 . S
C387 C384 1.344 . S
C387 C386 1.371 . S
C387 H401 0.931 . S
C388 C384 1.328 . S
C388 C389 1.433 . S
C388 H402 0.931 . S
C389 C385 1.323 . S
C389 C388 1.433 . S
C389 H403 0.933 . S
C390 Dy368 2.738 . S
C390 O373 1.255 . S
C390 O374 1.249 . S
C390 C384 1.516 . S
C391 O375 1.254 . S
C391 O376 1.257 . S
C392 O377 1.266 . S
C392 O378 1.236 . S
C393 C396 1.344 . S
C393 C397 1.328 . S
C393 C399 1.516 . S
C394 C395 1.304 . S
C394 C398 1.323 . S
C395 C394 1.304 . S
C395 C396 1.371 . S
C395 H404 0.930 . S
C396 C393 1.344 . S
C396 C395 1.371 . S
C396 H405 0.931 . S
C397 C393 1.328 . S
C397 C398 1.433 . S
C397 H406 0.931 . S
C398 C394 1.323 . S
C398 C397 1.433 . S
C398 H407 0.933 . S
C399 Dy369 2.738 . S
C399 O379 1.255 . S
C399 O380 1.249 . S
C399 C393 1.516 . S
H400 C386 0.930 . S
H401 C387 0.931 . S
H402 C388 0.931 . S
H403 C389 0.933 . S
H404 C395 0.930 . S
H405 C396 0.931 . S
H406 C397 0.931 . S
H407 C398 0.933 . S
Dy408 O411 2.333 1_556 S
Dy408 O413 2.368 1_455 S
Dy408 O414 2.365 1_455 S
Dy408 O416 2.355 . S
Dy408 O418 2.280 1_455 S
Dy408 O422 2.269 1_456 S
Dy408 C430 2.715 1_455 S
Dy409 O412 2.298 . S
Dy409 O415 2.275 1_554 S
Dy409 O417 2.307 1_455 S
Dy409 O419 2.395 . S
Dy409 O420 2.379 . S
Dy409 O423 2.339 1_455 S
Dy409 C439 2.738 . S
C410 O422 1.254 . S
C410 O423 1.257 . S
O411 Dy408 2.333 1_554 S
O411 C421 1.266 . S
O412 Dy409 2.298 . S
O412 C421 1.236 . S
O413 Dy408 2.368 1_655 S
O413 C430 1.255 . S
O414 Dy408 2.365 1_655 S
O414 C430 1.249 . S
O415 Dy409 2.275 1_556 S
O415 C431 1.254 . S
O416 Dy408 2.355 . S
O416 C431 1.257 . S
O417 Dy409 2.307 1_655 S
O417 C432 1.266 1_554 S
O418 Dy408 2.280 1_655 S
O418 C432 1.236 . S
O419 Dy409 2.395 . S
O419 C439 1.255 . S
O420 Dy409 2.379 . S
O420 C439 1.249 . S
C421 O411 1.266 . S
C421 O412 1.236 . S
O422 Dy408 2.269 1_654 S
O422 C410 1.254 . S
O423 Dy409 2.339 1_655 S
O423 C410 1.257 . S
C424 C427 1.344 . S
C424 C428 1.328 . S
C424 C430 1.516 . S
C425 C426 1.304 . S
C425 C429 1.323 . S
C426 C425 1.304 . S
C426 C427 1.371 . S
C426 H440 0.930 . S
C427 C424 1.344 . S
C427 C426 1.371 . S
C427 H441 0.931 . S
C428 C424 1.328 . S
C428 C429 1.433 . S
C428 H442 0.931 . S
C429 C425 1.323 . S
C429 C428 1.433 . S
C429 H443 0.933 . S
C430 Dy408 2.715 1_655 S
C430 O413 1.255 . S
C430 O414 1.249 . S
C430 C424 1.516 . S
C431 O415 1.254 . S
C431 O416 1.257 . S
C432 O417 1.266 1_556 S
C432 O418 1.236 . S
C433 C436 1.344 . S
C433 C437 1.328 . S
C433 C439 1.516 . S
C434 C435 1.304 . S
C434 C438 1.323 . S
C435 C434 1.304 . S
C435 C436 1.371 . S
C435 H444 0.930 . S
C436 C433 1.344 . S
C436 C435 1.371 . S
C436 H445 0.931 . S
C437 C433 1.328 . S
C437 C438 1.433 . S
C437 H446 0.931 . S
C438 C434 1.323 . S
C438 C437 1.433 . S
C438 H447 0.933 . S
C439 Dy409 2.738 . S
C439 O419 1.255 . S
C439 O420 1.249 . S
C439 C433 1.516 . S
H440 C426 0.930 . S
H441 C427 0.931 . S
H442 C428 0.931 . S
H443 C429 0.933 . S
H444 C435 0.930 . S
H445 C436 0.931 . S
H446 C437 0.931 . S
H447 C438 0.933 . S
H448 C454 0.930 . S
H449 C457 0.930 . S
H450 C458 0.930 . S
H451 C459 0.930 . S
H452 C462 0.930 . S
H453 C463 0.930 . S
C454 H448 0.930 . S
C454 C455 1.355 . S
C454 C456 1.415 . S
C455 C454 1.355 . S
C455 C457 1.419 . S
C456 C454 1.415 . S
C456 C461 1.425 . S
C456 C463 1.409 . S
C457 H449 0.930 . S
C457 C455 1.419 . S
C457 C458 1.362 . S
C458 H450 0.930 . S
C458 C457 1.362 . S
C458 C461 1.409 . S
C459 H451 0.930 . S
C459 C460 1.355 . S
C459 C461 1.415 . S
C460 C459 1.355 . S
C460 C462 1.419 . S
C461 C456 1.425 . S
C461 C458 1.409 . S
C461 C459 1.415 . S
C462 H452 0.930 . S
C462 C460 1.419 . S
C462 C463 1.362 . S
C463 H453 0.930 . S
C463 C456 1.409 . S
C463 C462 1.362 . S
H464 C470 0.930 . S
H465 C473 0.930 . S
H466 C474 0.930 . S
H467 C475 0.930 . S
H468 C478 0.930 . S
H469 C479 0.930 . S
C470 H464 0.930 . S
C470 C471 1.355 . S
C470 C472 1.415 . S
C471 C470 1.355 . S
C471 C473 1.419 . S
C472 C470 1.415 . S
C472 C477 1.425 . S
C472 C479 1.409 . S
C473 H465 0.930 . S
C473 C471 1.419 . S
C473 C474 1.362 . S
C474 H466 0.930 . S
C474 C473 1.362 . S
C474 C477 1.409 . S
C475 H467 0.930 . S
C475 C476 1.355 . S
C475 C477 1.415 . S
C476 C475 1.355 . S
C476 C478 1.419 . S
C477 C472 1.425 . S
C477 C474 1.409 . S
C477 C475 1.415 . S
C478 H468 0.930 . S
C478 C476 1.419 . S
C478 C479 1.362 . S
C479 H469 0.930 . S
C479 C472 1.409 . S
C479 C478 1.362 . S
H480 C486 0.930 . S
H481 C489 0.930 . S
H482 C490 0.930 . S
H483 C491 0.930 . S
H484 C494 0.930 . S
H485 C495 0.930 . S
C486 H480 0.930 . S
C486 C487 1.355 . S
C486 C488 1.415 . S
C487 C486 1.355 . S
C487 C489 1.419 . S
C488 C486 1.415 . S
C488 C493 1.425 . S
C488 C495 1.409 . S
C489 H481 0.930 . S
C489 C487 1.419 . S
C489 C490 1.362 . S
C490 H482 0.930 . S
C490 C489 1.362 . S
C490 C493 1.409 . S
C491 H483 0.930 . S
C491 C492 1.355 . S
C491 C493 1.415 . S
C492 C491 1.355 . S
C492 C494 1.419 . S
C493 C488 1.425 . S
C493 C490 1.409 . S
C493 C491 1.415 . S
C494 H484 0.930 . S
C494 C492 1.419 . S
C494 C495 1.362 . S
C495 H485 0.930 . S
C495 C488 1.409 . S
C495 C494 1.362 . S
H496 C502 0.930 . S
H497 C505 0.930 . S
H498 C506 0.930 . S
H499 C507 0.930 . S
H500 C510 0.930 . S
H501 C511 0.930 . S
C502 H496 0.930 . S
C502 C503 1.355 . S
C502 C504 1.415 . S
C503 C502 1.355 . S
C503 C505 1.419 . S
C504 C502 1.415 . S
C504 C509 1.425 . S
C504 C511 1.409 . S
C505 H497 0.930 . S
C505 C503 1.419 . S
C505 C506 1.362 . S
C506 H498 0.930 . S
C506 C505 1.362 . S
C506 C509 1.409 . S
C507 H499 0.930 . S
C507 C508 1.355 . S
C507 C509 1.415 . S
C508 C507 1.355 . S
C508 C510 1.419 . S
C509 C504 1.425 . S
C509 C506 1.409 . S
C509 C507 1.415 . S
C510 H500 0.930 . S
C510 C508 1.419 . S
C510 C511 1.362 . S
C511 H501 0.930 . S
C511 C504 1.409 . S
C511 C510 1.362 . S
H512 C518 0.930 . S
H513 C521 0.930 . S
H514 C522 0.930 . S
H515 C523 0.930 . S
H516 C526 0.930 . S
H517 C527 0.930 . S
C518 H512 0.930 . S
C518 C519 1.355 . S
C518 C520 1.415 . S
C519 C518 1.355 . S
C519 C521 1.419 . S
C520 C518 1.415 . S
C520 C525 1.425 . S
C520 C527 1.409 . S
C521 H513 0.930 . S
C521 C519 1.419 . S
C521 C522 1.362 . S
C522 H514 0.930 . S
C522 C521 1.362 . S
C522 C525 1.409 . S
C523 H515 0.930 . S
C523 C524 1.355 . S
C523 C525 1.415 . S
C524 C523 1.355 . S
C524 C526 1.419 . S
C525 C520 1.425 . S
C525 C522 1.409 . S
C525 C523 1.415 . S
C526 H516 0.930 . S
C526 C524 1.419 . S
C526 C527 1.362 . S
C527 H517 0.930 . S
C527 C520 1.409 . S
C527 C526 1.362 . S
H528 C534 0.930 . S
H529 C537 0.930 . S
H530 C538 0.930 . S
H531 C539 0.930 . S
H532 C542 0.930 1_655 S
H533 C543 0.915 1_655 S
C534 H528 0.930 . S
C534 C535 1.355 . S
C534 C536 1.415 . S
C535 C534 1.355 . S
C535 C537 1.419 . S
C536 C534 1.415 . S
C536 C541 1.425 . S
C536 C543 1.426 . S
C537 H529 0.930 . S
C537 C535 1.419 . S
C537 C538 1.362 . S
C538 H530 0.930 . S
C538 C537 1.362 . S
C538 C541 1.409 . S
C539 H531 0.930 . S
C539 C540 1.355 . S
C539 C541 1.415 . S
C540 C539 1.355 . S
C540 C542 1.419 . S
C541 C536 1.425 . S
C541 C538 1.409 . S
C541 C539 1.415 . S
C542 H532 0.930 1_455 S
C542 C540 1.419 . S
C542 C543 1.361 . S
C543 H533 0.915 1_455 S
C543 C536 1.426 . S
C543 C542 1.361 . S
H544 C550 0.930 . S
H545 C553 0.930 . S
H546 C554 0.930 . S
H547 C555 0.930 . S
H548 C558 0.930 . S
H549 C559 0.930 . S
C550 H544 0.930 . S
C550 C551 1.355 . S
C550 C552 1.415 . S
C551 C550 1.355 . S
C551 C553 1.419 . S
C552 C550 1.415 . S
C552 C557 1.425 . S
C552 C559 1.409 . S
C553 H545 0.930 . S
C553 C551 1.419 . S
C553 C554 1.362 . S
C554 H546 0.930 . S
C554 C553 1.362 . S
C554 C557 1.409 . S
C555 H547 0.930 . S
C555 C556 1.355 . S
C555 C557 1.415 . S
C556 C555 1.355 . S
C556 C558 1.419 . S
C557 C552 1.425 . S
C557 C554 1.409 . S
C557 C555 1.415 . S
C558 H548 0.930 . S
C558 C556 1.419 . S
C558 C559 1.362 . S
C559 H549 0.930 . S
C559 C552 1.409 . S
C559 C558 1.362 . S
H560 C566 0.930 . S
H561 C569 0.930 . S
H562 C570 0.930 . S
H563 C571 0.930 . S
H564 C574 0.930 . S
H565 C575 0.930 . S
C566 H560 0.930 . S
C566 C567 1.355 . S
C566 C568 1.415 . S
C567 C566 1.355 . S
C567 C569 1.419 . S
C568 C566 1.415 . S
C568 C573 1.425 . S
C568 C575 1.409 . S
C569 H561 0.930 . S
C569 C567 1.419 . S
C569 C570 1.362 . S
C570 H562 0.930 . S
C570 C569 1.362 . S
C570 C573 1.409 . S
C571 H563 0.930 . S
C571 C572 1.355 . S
C571 C573 1.415 . S
C572 C571 1.355 . S
C572 C574 1.419 . S
C573 C568 1.425 . S
C573 C570 1.409 . S
C573 C571 1.415 . S
C574 H564 0.930 . S
C574 C572 1.419 . S
C574 C575 1.362 . S
C575 H565 0.930 . S
C575 C568 1.409 . S
C575 C574 1.362 . S
H576 C582 0.930 . S
H577 C585 0.930 . S
H578 C586 0.930 . S
H579 C587 0.930 . S
H580 C590 0.930 . S
H581 C591 0.930 . S
C582 H576 0.930 . S
C582 C583 1.355 . S
C582 C584 1.415 . S
C583 C582 1.355 . S
C583 C585 1.419 . S
C584 C582 1.415 . S
C584 C589 1.425 . S
C584 C591 1.409 . S
C585 H577 0.930 . S
C585 C583 1.419 . S
C585 C586 1.362 . S
C586 H578 0.930 . S
C586 C585 1.362 . S
C586 C589 1.409 . S
C587 H579 0.930 . S
C587 C588 1.355 . S
C587 C589 1.415 . S
C588 C587 1.355 . S
C588 C590 1.419 . S
C589 C584 1.425 . S
C589 C586 1.409 . S
C589 C587 1.415 . S
C590 H580 0.930 . S
C590 C588 1.419 . S
C590 C591 1.362 . S
C591 H581 0.930 . S
C591 C584 1.409 . S
C591 C590 1.362 . S
H592 C598 0.930 . S
H593 C601 0.930 . S
H594 C602 0.930 . S
H595 C603 0.930 . S
H596 C606 0.930 . S
H597 C607 0.930 . S
C598 H592 0.930 . S
C598 C599 1.355 . S
C598 C600 1.415 . S
C599 C598 1.355 . S
C599 C601 1.419 . S
C600 C598 1.415 . S
C600 C605 1.425 . S
C600 C607 1.409 . S
C601 H593 0.930 . S
C601 C599 1.419 . S
C601 C602 1.362 . S
C602 H594 0.930 . S
C602 C601 1.362 . S
C602 C605 1.409 . S
C603 H595 0.930 . S
C603 C604 1.355 . S
C603 C605 1.415 . S
C604 C603 1.355 . S
C604 C606 1.419 . S
C605 C600 1.425 . S
C605 C602 1.409 . S
C605 C603 1.415 . S
C606 H596 0.930 . S
C606 C604 1.419 . S
C606 C607 1.362 . S
C607 H597 0.930 . S
C607 C600 1.409 . S
C607 C606 1.362 . S
H608 C614 0.930 . S
H609 C617 0.930 . S
H610 C618 0.930 1_455 S
H611 C619 0.930 1_455 S
H612 C622 0.930 . S
H613 C623 0.930 . S
C614 H608 0.930 . S
C614 C615 1.355 . S
C614 C616 1.415 . S
C615 C614 1.355 . S
C615 C617 1.419 . S
C616 C614 1.415 . S
C616 C621 1.425 . S
C616 C623 1.409 . S
C617 H609 0.930 . S
C617 C615 1.419 . S
C617 C618 1.362 . S
C618 H610 0.930 1_655 S
C618 C617 1.362 . S
C618 C621 1.409 . S
C619 H611 0.930 1_655 S
C619 C620 1.355 . S
C619 C621 1.415 . S
C620 C619 1.355 . S
C620 C622 1.419 . S
C621 C616 1.425 . S
C621 C618 1.409 . S
C621 C619 1.415 . S
C622 H612 0.930 . S
C622 C620 1.419 . S
C622 C623 1.362 . S
C623 H613 0.930 . S
C623 C616 1.409 . S
C623 C622 1.362 . S
H624 C630 0.930 . S
H625 C633 0.930 . S
H626 C634 0.930 . S
H627 C635 0.930 . S
H628 C638 0.930 . S
H629 C639 0.930 . S
C630 H624 0.930 . S
C630 C631 1.355 . S
C630 C632 1.415 . S
C631 C630 1.355 . S
C631 C633 1.419 . S
C632 C630 1.415 . S
C632 C637 1.425 . S
C632 C639 1.409 . S
C633 H625 0.930 . S
C633 C631 1.419 . S
C633 C634 1.362 . S
C634 H626 0.930 . S
C634 C633 1.362 . S
C634 C637 1.409 . S
C635 H627 0.930 . S
C635 C636 1.355 . S
C635 C637 1.415 . S
C636 C635 1.355 . S
C636 C638 1.419 . S
C637 C632 1.425 . S
C637 C634 1.409 . S
C637 C635 1.415 . S
C638 H628 0.930 . S
C638 C636 1.419 . S
C638 C639 1.362 . S
C639 H629 0.930 . S
C639 C632 1.409 . S
C639 C638 1.362 . S
H640 C646 0.930 . S
H641 C649 0.930 . S
H642 C650 0.930 . S
H643 C651 0.930 . S
H644 C654 0.930 . S
H645 C655 0.930 . S
C646 H640 0.930 . S
C646 C647 1.355 . S
C646 C648 1.415 . S
C647 C646 1.355 . S
C647 C649 1.419 . S
C648 C646 1.415 . S
C648 C653 1.425 . S
C648 C655 1.409 . S
C649 H641 0.930 . S
C649 C647 1.419 . S
C649 C650 1.362 . S
C650 H642 0.930 . S
C650 C649 1.362 . S
C650 C653 1.409 . S
C651 H643 0.930 . S
C651 C652 1.355 . S
C651 C653 1.415 . S
C652 C651 1.355 . S
C652 C654 1.419 . S
C653 C648 1.425 . S
C653 C650 1.409 . S
C653 C651 1.415 . S
C654 H644 0.930 . S
C654 C652 1.419 . S
C654 C655 1.362 . S
C655 H645 0.930 . S
C655 C648 1.409 . S
C655 C654 1.362 . S
H656 C662 0.930 . S
H657 C665 0.930 . S
H658 C666 0.930 . S
H659 C667 0.930 . S
H660 C670 0.930 . S
H661 C671 0.930 . S
C662 H656 0.930 . S
C662 C663 1.355 . S
C662 C664 1.415 . S
C663 C662 1.355 . S
C663 C665 1.419 . S
C664 C662 1.415 . S
C664 C669 1.425 . S
C664 C671 1.409 . S
C665 H657 0.930 . S
C665 C663 1.419 . S
C665 C666 1.362 . S
C666 H658 0.930 . S
C666 C665 1.362 . S
C666 C669 1.409 . S
C667 H659 0.930 . S
C667 C668 1.355 . S
C667 C669 1.415 . S
C668 C667 1.355 . S
C668 C670 1.419 . S
C669 C664 1.425 . S
C669 C666 1.409 . S
C669 C667 1.415 . S
C670 H660 0.930 . S
C670 C668 1.419 . S
C670 C671 1.362 . S
C671 H661 0.930 . S
C671 C664 1.409 . S
C671 C670 1.362 . S
H672 C678 0.930 . S
H673 C681 0.930 . S
H674 C682 0.930 . S
H675 C683 0.930 . S
H676 C686 0.930 . S
H677 C687 0.930 . S
C678 H672 0.930 . S
C678 C679 1.355 . S
C678 C680 1.415 . S
C679 C678 1.355 . S
C679 C681 1.419 . S
C680 C678 1.415 . S
C680 C685 1.425 . S
C680 C687 1.409 . S
C681 H673 0.930 . S
C681 C679 1.419 . S
C681 C682 1.362 . S
C682 H674 0.930 . S
C682 C681 1.362 . S
C682 C685 1.409 . S
C683 H675 0.930 . S
C683 C684 1.355 . S
C683 C685 1.415 . S
C684 C683 1.355 . S
C684 C686 1.419 . S
C685 C680 1.425 . S
C685 C682 1.409 . S
C685 C683 1.415 . S
C686 H676 0.930 . S
C686 C684 1.419 . S
C686 C687 1.362 . S
C687 H677 0.930 . S
C687 C680 1.409 . S
C687 C686 1.362 . S
H688 C694 0.930 . S
H689 C697 0.930 . S
H690 C698 0.930 . S
H691 C699 0.930 . S
H692 C702 0.930 . S
H693 C703 0.930 . S
C694 H688 0.930 . S
C694 C695 1.355 . S
C694 C696 1.415 . S
C695 C694 1.355 . S
C695 C697 1.419 . S
C696 C694 1.415 . S
C696 C701 1.425 . S
C696 C703 1.409 . S
C697 H689 0.930 . S
C697 C695 1.419 . S
C697 C698 1.362 . S
C698 H690 0.930 . S
C698 C697 1.362 . S
C698 C701 1.409 . S
C699 H691 0.930 . S
C699 C700 1.355 . S
C699 C701 1.415 . S
C700 C699 1.355 . S
C700 C702 1.419 . S
C701 C696 1.425 . S
C701 C698 1.409 . S
C701 C699 1.415 . S
C702 H692 0.930 . S
C702 C700 1.419 . S
C702 C703 1.362 . S
C703 H693 0.930 . S
C703 C696 1.409 . S
C703 C702 1.362 . S
H704 C710 0.930 . S
H705 C713 0.930 . S
H706 C714 0.930 . S
H707 C715 0.930 . S
H708 C718 0.930 . S
H709 C719 0.930 . S
C710 H704 0.930 . S
C710 C711 1.355 . S
C710 C712 1.415 . S
C711 C710 1.355 . S
C711 C713 1.419 . S
C712 C710 1.415 . S
C712 C717 1.425 . S
C712 C719 1.409 . S
C713 H705 0.930 . S
C713 C711 1.419 . S
C713 C714 1.362 . S
C714 H706 0.930 . S
C714 C713 1.362 . S
C714 C717 1.409 . S
C715 H707 0.930 . S
C715 C716 1.355 . S
C715 C717 1.415 . S
C716 C715 1.355 . S
C716 C718 1.419 . S
C717 C712 1.425 . S
C717 C714 1.409 . S
C717 C715 1.415 . S
C718 H708 0.930 . S
C718 C716 1.419 . S
C718 C719 1.362 . S
C719 H709 0.930 . S
C719 C712 1.409 . S
C719 C718 1.362 . S
H720 C726 0.930 . S
H721 C729 0.930 . S
H722 C730 0.930 . S
H723 C731 0.930 . S
H724 C734 0.930 1_455 S
H725 C735 0.930 1_455 S
C726 H720 0.930 . S
C726 C727 1.355 . S
C726 C728 1.415 . S
C727 C726 1.355 . S
C727 C729 1.419 . S
C728 C726 1.415 . S
C728 C733 1.425 . S
C728 C735 1.409 . S
C729 H721 0.930 . S
C729 C727 1.419 . S
C729 C730 1.362 . S
C730 H722 0.930 . S
C730 C729 1.362 . S
C730 C733 1.409 . S
C731 H723 0.930 . S
C731 C732 1.355 . S
C731 C733 1.415 . S
C732 C731 1.355 . S
C732 C734 1.419 . S
C733 C728 1.425 . S
C733 C730 1.409 . S
C733 C731 1.415 . S
C734 H724 0.930 1_655 S
C734 C732 1.419 . S
C734 C735 1.362 . S
C735 H725 0.930 1_655 S
C735 C728 1.409 . S
C735 C734 1.362 . S
H736 C742 0.930 . S
H737 C745 0.930 . S
H738 C746 0.930 . S
H739 C747 0.930 . S
H740 C750 0.930 . S
H741 C751 0.930 . S
C742 H736 0.930 . S
C742 C743 1.355 . S
C742 C744 1.415 . S
C743 C742 1.355 . S
C743 C745 1.419 . S
C744 C742 1.415 . S
C744 C749 1.425 . S
C744 C751 1.409 . S
C745 H737 0.930 . S
C745 C743 1.419 . S
C745 C746 1.362 . S
C746 H738 0.930 . S
C746 C745 1.362 . S
C746 C749 1.409 . S
C747 H739 0.930 . S
C747 C748 1.355 . S
C747 C749 1.415 . S
C748 C747 1.355 . S
C748 C750 1.419 . S
C749 C744 1.425 . S
C749 C746 1.409 . S
C749 C747 1.415 . S
C750 H740 0.930 . S
C750 C748 1.419 . S
C750 C751 1.362 . S
C751 H741 0.930 . S
C751 C744 1.409 . S
C751 C750 1.362 . S
H752 C758 0.930 . S
H753 C761 0.930 . S
H754 C762 0.930 . S
H755 C763 0.930 . S
H756 C766 0.930 . S
H757 C767 0.930 . S
C758 H752 0.930 . S
C758 C759 1.355 . S
C758 C760 1.415 . S
C759 C758 1.355 . S
C759 C761 1.419 . S
C760 C758 1.415 . S
C760 C765 1.425 . S
C760 C767 1.409 . S
C761 H753 0.930 . S
C761 C759 1.419 . S
C761 C762 1.362 . S
C762 H754 0.930 . S
C762 C761 1.362 . S
C762 C765 1.409 . S
C763 H755 0.930 . S
C763 C764 1.355 . S
C763 C765 1.415 . S
C764 C763 1.355 . S
C764 C766 1.419 . S
C765 C760 1.425 . S
C765 C762 1.409 . S
C765 C763 1.415 . S
C766 H756 0.930 . S
C766 C764 1.419 . S
C766 C767 1.362 . S
C767 H757 0.930 . S
C767 C760 1.409 . S
C767 C766 1.362 . S
H768 C774 0.930 . S
H769 C777 0.930 . S
H770 C778 0.930 . S
H771 C779 0.930 . S
H772 C782 0.930 . S
H773 C783 0.930 . S
C774 H768 0.930 . S
C774 C775 1.355 . S
C774 C776 1.415 . S
C775 C774 1.355 . S
C775 C777 1.419 . S
C776 C774 1.415 . S
C776 C781 1.425 . S
C776 C783 1.409 . S
C777 H769 0.930 . S
C777 C775 1.419 . S
C777 C778 1.362 . S
C778 H770 0.930 . S
C778 C777 1.362 . S
C778 C781 1.409 . S
C779 H771 0.930 . S
C779 C780 1.355 . S
C779 C781 1.415 . S
C780 C779 1.355 . S
C780 C782 1.419 . S
C781 C776 1.425 . S
C781 C778 1.409 . S
C781 C779 1.415 . S
C782 H772 0.930 . S
C782 C780 1.419 . S
C782 C783 1.362 . S
C783 H773 0.930 . S
C783 C776 1.409 . S
C783 C782 1.362 . S
H784 C790 0.930 . S
H785 C793 0.930 . S
H786 C794 0.930 . S
H787 C795 0.930 . S
H788 C798 0.930 . S
H789 C799 0.930 . S
C790 H784 0.930 . S
C790 C791 1.355 . S
C790 C792 1.415 . S
C791 C790 1.355 . S
C791 C793 1.419 . S
C792 C790 1.415 . S
C792 C797 1.425 . S
C792 C799 1.409 . S
C793 H785 0.930 . S
C793 C791 1.419 . S
C793 C794 1.362 . S
C794 H786 0.930 . S
C794 C793 1.362 . S
C794 C797 1.409 . S
C795 H787 0.930 . S
C795 C796 1.355 . S
C795 C797 1.415 . S
C796 C795 1.355 . S
C796 C798 1.419 . S
C797 C792 1.425 . S
C797 C794 1.409 . S
C797 C795 1.415 . S
C798 H788 0.930 . S
C798 C796 1.419 . S
C798 C799 1.362 . S
C799 H789 0.930 . S
C799 C792 1.409 . S
C799 C798 1.362 . S
H800 C806 0.930 . S
H801 C809 0.930 . S
H802 C810 0.930 1_655 S
H803 C811 0.930 . S
H804 C814 0.930 . S
H805 C815 0.930 . S
C806 H800 0.930 . S
C806 C807 1.355 . S
C806 C808 1.415 . S
C807 C806 1.355 . S
C807 C809 1.419 . S
C808 C806 1.415 . S
C808 C813 1.425 . S
C808 C815 1.409 . S
C809 H801 0.930 . S
C809 C807 1.419 . S
C809 C810 1.362 . S
C810 H802 0.930 1_455 S
C810 C809 1.362 . S
C810 C813 1.409 . S
C811 H803 0.930 . S
C811 C812 1.355 . S
C811 C813 1.415 . S
C812 C811 1.355 . S
C812 C814 1.419 . S
C813 C808 1.425 . S
C813 C810 1.409 . S
C813 C811 1.415 . S
C814 H804 0.930 . S
C814 C812 1.419 . S
C814 C815 1.362 . S
C815 H805 0.930 . S
C815 C808 1.409 . S
C815 C814 1.362 . S
H816 C822 0.930 . S
H817 C825 0.930 . S
H818 C826 0.930 . S
H819 C827 0.930 . S
H820 C830 0.930 . S
H821 C831 0.930 . S
C822 H816 0.930 . S
C822 C823 1.355 . S
C822 C824 1.415 . S
C823 C822 1.355 . S
C823 C825 1.419 . S
C824 C822 1.415 . S
C824 C829 1.425 . S
C824 C831 1.409 . S
C825 H817 0.930 . S
C825 C823 1.419 . S
C825 C826 1.362 . S
C826 H818 0.930 . S
C826 C825 1.362 . S
C826 C829 1.409 . S
C827 H819 0.930 . S
C827 C828 1.355 . S
C827 C829 1.415 . S
C828 C827 1.355 . S
C828 C830 1.419 . S
C829 C824 1.425 . S
C829 C826 1.409 . S
C829 C827 1.415 . S
C830 H820 0.930 . S
C830 C828 1.419 . S
C830 C831 1.362 . S
C831 H821 0.930 . S
C831 C824 1.409 . S
C831 C830 1.362 . S
C455 C1 1.232 . S
C460 C305 1.255 . S
C471 C67 1.248 . S
C476 C345 1.261 . S
C492 C370 2.361 . S
C487 C97 2.417 . S
C503 C133 2.468 . S
C508 C410 2.421 . S
C524 C341 1.862 . S
C519 C25 1.801 . S
C540 C301 1.841 . S
C535 C37 1.753 . S
C556 C432 1.734 . S
C551 C103 1.726 . S
C572 C392 1.715 . S
C567 C109 1.739 . S
C583 C31 1.467 . S
C588 C434 1.492 . S
C604 C351 2.127 . S
C599 C73 2.185 . S
C615 C139 2.224 . S
C620 C311 2.195 . S
C631 C61 1.467 . S
C636 C394 1.492 . S
C652 C314 1.240 . S
C647 C175 1.146 . S
C663 C181 1.230 . S
C668 C354 1.273 . S
C679 C247 2.457 . S
C684 C391 2.399 . S
C695 C277 2.453 . S
C700 C431 2.412 . S
C711 C145 1.747 . S
C716 C352 1.857 . S
C732 C312 1.848 . S
C727 C211 1.763 . S
C748 C421 1.731 . S
C743 C217 1.732 . S
C764 C381 1.753 . S
C759 C283 1.761 . S
C775 C169 1.433 . S
C780 C425 1.503 . S
C796 C330 2.182 . S
C791 C241 2.220 . S
C812 C290 2.177 . S
C807 C253 2.215 . S
C823 C205 1.477 . S
C828 C385 1.473 . S
