# Generated by pormake.
# Topology ctn, (3,4)-cn, num edge types: 1
# Building blocks:
#     Node 0, Type 0, BuildingBlock: KAKCAD_clean_linker_0, # of connection points: 3
#     Node 1, Type 0, BuildingBlock: KAKCAD_clean_linker_0, # of connection points: 3
#     Node 2, Type 0, BuildingBlock: KAKCAD_clean_linker_0, # of connection points: 3
#     Node 3, Type 0, BuildingBlock: KAKCAD_clean_linker_0, # of connection points: 3
#     Node 4, Type 0, BuildingBlock: KAKCAD_clean_linker_0, # of connection points: 3
#     Node 5, Type 0, BuildingBlock: KAKCAD_clean_linker_0, # of connection points: 3
#     Node 6, Type 0, BuildingBlock: KAKCAD_clean_linker_0, # of connection points: 3
#     Node 7, Type 0, BuildingBlock: KAKCAD_clean_linker_0, # of connection points: 3
#     Node 8, Type 0, BuildingBlock: KAKCAD_clean_linker_0, # of connection points: 3
#     Node 9, Type 0, BuildingBlock: KAKCAD_clean_linker_0, # of connection points: 3
#     Node 10, Type 0, BuildingBlock: KAKCAD_clean_linker_0, # of connection points: 3
#     Node 11, Type 0, BuildingBlock: KAKCAD_clean_linker_0, # of connection points: 3
#     Node 12, Type 0, BuildingBlock: KAKCAD_clean_linker_0, # of connection points: 3
#     Node 13, Type 0, BuildingBlock: KAKCAD_clean_linker_0, # of connection points: 3
#     Node 14, Type 0, BuildingBlock: KAKCAD_clean_linker_0, # of connection points: 3
#     Node 15, Type 0, BuildingBlock: KAKCAD_clean_linker_0, # of connection points: 3
#     Node 16, Type 1, BuildingBlock: KUFVIS_clean_sbu_0, # of connection points: 4
#     Node 17, Type 1, BuildingBlock: KUFVIS_clean_sbu_0, # of connection points: 4
#     Node 18, Type 1, BuildingBlock: KUFVIS_clean_sbu_0, # of connection points: 4
#     Node 19, Type 1, BuildingBlock: KUFVIS_clean_sbu_0, # of connection points: 4
#     Node 20, Type 1, BuildingBlock: KUFVIS_clean_sbu_0, # of connection points: 4
#     Node 21, Type 1, BuildingBlock: KUFVIS_clean_sbu_0, # of connection points: 4
#     Node 22, Type 1, BuildingBlock: KUFVIS_clean_sbu_0, # of connection points: 4
#     Node 23, Type 1, BuildingBlock: KUFVIS_clean_sbu_0, # of connection points: 4
#     Node 24, Type 1, BuildingBlock: KUFVIS_clean_sbu_0, # of connection points: 4
#     Node 25, Type 1, BuildingBlock: KUFVIS_clean_sbu_0, # of connection points: 4
#     Node 26, Type 1, BuildingBlock: KUFVIS_clean_sbu_0, # of connection points: 4
#     Node 27, Type 1, BuildingBlock: KUFVIS_clean_sbu_0, # of connection points: 4
#     Edge 28, Type (0, 1), BuildingBlock: KIFKEQ_clean_linker_1, # of connection points: 2
#     Edge 29, Type (0, 1), BuildingBlock: KIFKEQ_clean_linker_1, # of connection points: 2
#     Edge 30, Type (0, 1), BuildingBlock: KIFKEQ_clean_linker_1, # of connection points: 2
#     Edge 31, Type (0, 1), BuildingBlock: KIFKEQ_clean_linker_1, # of connection points: 2
#     Edge 32, Type (0, 1), BuildingBlock: KIFKEQ_clean_linker_1, # of connection points: 2
#     Edge 33, Type (0, 1), BuildingBlock: KIFKEQ_clean_linker_1, # of connection points: 2
#     Edge 34, Type (0, 1), BuildingBlock: KIFKEQ_clean_linker_1, # of connection points: 2
#     Edge 35, Type (0, 1), BuildingBlock: KIFKEQ_clean_linker_1, # of connection points: 2
#     Edge 36, Type (0, 1), BuildingBlock: KIFKEQ_clean_linker_1, # of connection points: 2
#     Edge 37, Type (0, 1), BuildingBlock: KIFKEQ_clean_linker_1, # of connection points: 2
#     Edge 38, Type (0, 1), BuildingBlock: KIFKEQ_clean_linker_1, # of connection points: 2
#     Edge 39, Type (0, 1), BuildingBlock: KIFKEQ_clean_linker_1, # of connection points: 2
#     Edge 40, Type (0, 1), BuildingBlock: KIFKEQ_clean_linker_1, # of connection points: 2
#     Edge 41, Type (0, 1), BuildingBlock: KIFKEQ_clean_linker_1, # of connection points: 2
#     Edge 42, Type (0, 1), BuildingBlock: KIFKEQ_clean_linker_1, # of connection points: 2
#     Edge 43, Type (0, 1), BuildingBlock: KIFKEQ_clean_linker_1, # of connection points: 2
#     Edge 44, Type (0, 1), BuildingBlock: KIFKEQ_clean_linker_1, # of connection points: 2
#     Edge 45, Type (0, 1), BuildingBlock: KIFKEQ_clean_linker_1, # of connection points: 2
#     Edge 46, Type (0, 1), BuildingBlock: KIFKEQ_clean_linker_1, # of connection points: 2
#     Edge 47, Type (0, 1), BuildingBlock: KIFKEQ_clean_linker_1, # of connection points: 2
#     Edge 48, Type (0, 1), BuildingBlock: KIFKEQ_clean_linker_1, # of connection points: 2
#     Edge 49, Type (0, 1), BuildingBlock: KIFKEQ_clean_linker_1, # of connection points: 2
#     Edge 50, Type (0, 1), BuildingBlock: KIFKEQ_clean_linker_1, # of connection points: 2
#     Edge 51, Type (0, 1), BuildingBlock: KIFKEQ_clean_linker_1, # of connection points: 2
#     Edge 52, Type (0, 1), BuildingBlock: KIFKEQ_clean_linker_1, # of connection points: 2
#     Edge 53, Type (0, 1), BuildingBlock: KIFKEQ_clean_linker_1, # of connection points: 2
#     Edge 54, Type (0, 1), BuildingBlock: KIFKEQ_clean_linker_1, # of connection points: 2
#     Edge 55, Type (0, 1), BuildingBlock: KIFKEQ_clean_linker_1, # of connection points: 2
#     Edge 56, Type (0, 1), BuildingBlock: KIFKEQ_clean_linker_1, # of connection points: 2
#     Edge 57, Type (0, 1), BuildingBlock: KIFKEQ_clean_linker_1, # of connection points: 2
#     Edge 58, Type (0, 1), BuildingBlock: KIFKEQ_clean_linker_1, # of connection points: 2
#     Edge 59, Type (0, 1), BuildingBlock: KIFKEQ_clean_linker_1, # of connection points: 2
#     Edge 60, Type (0, 1), BuildingBlock: KIFKEQ_clean_linker_1, # of connection points: 2
#     Edge 61, Type (0, 1), BuildingBlock: KIFKEQ_clean_linker_1, # of connection points: 2
#     Edge 62, Type (0, 1), BuildingBlock: KIFKEQ_clean_linker_1, # of connection points: 2
#     Edge 63, Type (0, 1), BuildingBlock: KIFKEQ_clean_linker_1, # of connection points: 2
#     Edge 64, Type (0, 1), BuildingBlock: KIFKEQ_clean_linker_1, # of connection points: 2
#     Edge 65, Type (0, 1), BuildingBlock: KIFKEQ_clean_linker_1, # of connection points: 2
#     Edge 66, Type (0, 1), BuildingBlock: KIFKEQ_clean_linker_1, # of connection points: 2
#     Edge 67, Type (0, 1), BuildingBlock: KIFKEQ_clean_linker_1, # of connection points: 2
#     Edge 68, Type (0, 1), BuildingBlock: KIFKEQ_clean_linker_1, # of connection points: 2
#     Edge 69, Type (0, 1), BuildingBlock: KIFKEQ_clean_linker_1, # of connection points: 2
#     Edge 70, Type (0, 1), BuildingBlock: KIFKEQ_clean_linker_1, # of connection points: 2
#     Edge 71, Type (0, 1), BuildingBlock: KIFKEQ_clean_linker_1, # of connection points: 2
#     Edge 72, Type (0, 1), BuildingBlock: KIFKEQ_clean_linker_1, # of connection points: 2
#     Edge 73, Type (0, 1), BuildingBlock: KIFKEQ_clean_linker_1, # of connection points: 2
#     Edge 74, Type (0, 1), BuildingBlock: KIFKEQ_clean_linker_1, # of connection points: 2
#     Edge 75, Type (0, 1), BuildingBlock: KIFKEQ_clean_linker_1, # of connection points: 2
# Relax obj value: 0.012
# Max RMSD: 0.061
# Mean RMSD: 0.028
data_MOF--net-ctn--node1-KUFVIS_clean_sbu_0--node2-KAKCAD_clean_linker_0--edge1-KIFKEQ_clean_linker_1
_symmetry_space_group_name_H-M    P1
_symmetry_Int_Tables_number       1
_symmetry_cell_setting            triclinic
loop_
_symmetry_equiv_pos_as_xyz
'x, y, z'
_cell_length_a     67.761039
_cell_length_b     67.478214
_cell_length_c     67.781585
_cell_angle_alpha  90.994633
_cell_angle_beta   90.54239
_cell_angle_gamma 91.673049
loop_
_atom_site_label
_atom_site_type_symbol
_atom_site_fract_x
_atom_site_fract_y
_atom_site_fract_z
_atom_type_partial_charge
C0 C 0.03651 0.09814 0.98992 0.0
C1 C 0.0272 0.11476 0.99782 0.0
C2 C 0.04084 0.0821 1.00185 0.0
C3 C 0.03632 0.08246 0.02211 0.0
C4 C 0.02716 0.0993 0.02998 0.0
C5 C 0.02248 0.11515 0.01793 0.0
C6 C 0.04106 0.06534 0.03491 0.0
C7 C 0.05793 0.05415 0.03141 0.0
C8 C 0.06228 0.03775 0.04306 0.0
C9 C 0.04981 0.03296 0.05885 0.0
C10 C 0.03303 0.04408 0.06287 0.0
C11 C 0.02865 0.06003 0.05064 0.0
C12 C 0.02008 0.03909 0.07988 0.0
C13 C 0.01577 0.01922 0.08465 0.0
C14 C 0.01209 0.05421 0.09163 0.0
C15 C 1.00014 0.0496 0.10772 0.0
C16 C 0.99596 0.02975 0.11256 0.0
C17 C 0.07965 0.02542 0.0385 0.0
C18 C 0.08447 0.02087 0.01883 0.0
C19 C 0.0913 0.01775 0.0537 0.0
C20 C 0.10718 0.00567 0.04935 0.0
C21 C 0.11189 1.00099 0.02967 0.0
C22 C 0.10039 0.00887 0.01447 0.0
C23 C 1.00391 0.01462 0.10083 0.0
H24 H 0.04012 0.09742 0.97439 0.0
H25 H 0.04747 0.06931 0.99507 0.0
H26 H 0.0238 0.10041 0.04554 0.0
H27 H 0.01546 0.1279 0.02441 0.0
H28 H 0.06798 0.0584 0.01979 0.0
H29 H 0.01526 0.06803 0.05313 0.0
H30 H 0.05314 0.02049 0.06803 0.0
H31 H 0.02136 0.00719 0.07575 0.0
H32 H 0.01535 0.06966 0.08861 0.0
H33 H 0.99446 0.0616 0.11661 0.0
H34 H 0.07572 0.02631 0.00672 0.0
H35 H 0.0882 0.02113 0.06902 0.0
H36 H 1.00074 0.99918 0.10399 0.0
H37 H 0.10372 0.00585 0.99914 0.0
H38 H 0.11556 0.99973 0.06146 0.0
C39 C 0.37118 0.72771 0.24324 0.0
C40 C 0.3807 0.71126 0.25096 0.0
C41 C 0.35595 0.72516 0.22935 0.0
C42 C 0.34989 0.70609 0.22263 0.0
C43 C 0.35975 0.68963 0.22995 0.0
C44 C 0.37499 0.69219 0.24396 0.0
C45 C 0.3328 0.70353 0.20872 0.0
C46 C 0.32994 0.7172 0.19359 0.0
C47 C 0.3128 0.71629 0.18168 0.0
C48 C 0.29868 0.70095 0.18473 0.0
C49 C 0.30161 0.68671 0.19929 0.0
C50 C 0.31866 0.68816 0.21124 0.0
C51 C 0.28658 0.67065 0.20248 0.0
C52 C 0.26644 0.67492 0.20358 0.0
C53 C 0.29231 0.65095 0.20472 0.0
C54 C 0.27821 0.63585 0.20803 0.0
C55 C 0.2581 0.64016 0.20939 0.0
C56 C 0.30944 0.73165 0.16646 0.0
C57 C 0.31582 0.7515 0.16984 0.0
C58 C 0.29961 0.72672 0.14856 0.0
C59 C 0.29601 0.74127 0.13462 0.0
C60 C 0.30246 0.76099 0.13807 0.0
C61 C 0.31253 0.76594 0.15573 0.0
C62 C 0.25236 0.65985 0.2071 0.0
H63 H 0.37541 0.74264 0.24802 0.0
H64 H 0.34857 0.73818 0.22427 0.0
H65 H 0.35562 0.67474 0.22494 0.0
H66 H 0.38193 0.67919 0.24966 0.0
H67 H 0.34119 0.72858 0.19108 0.0
H68 H 0.32045 0.67775 0.22308 0.0
H69 H 0.28527 0.7001 0.17591 0.0
H70 H 0.26159 0.68998 0.20208 0.0
H71 H 0.30772 0.64721 0.20382 0.0
H72 H 0.28309 0.62085 0.20989 0.0
H73 H 0.32303 0.75605 0.18357 0.0
H74 H 0.2948 0.71159 0.14519 0.0
H75 H 0.23695 0.6636 0.20795 0.0
H76 H 0.31745 0.78111 0.15884 0.0
H77 H 0.28834 0.73705 0.12102 0.0
C78 C 0.99817 0.49291 0.10711 0.0
C79 C 0.01885 0.49324 0.10558 0.0
C80 C 0.9862 0.48936 0.0904 0.0
C81 C 0.99469 0.48577 0.07188 0.0
C82 C 0.01536 0.486 0.07038 0.0
C83 C 0.02732 0.48983 0.08703 0.0
C84 C 0.98205 0.48154 0.05418 0.0
C85 C 0.96615 0.49362 0.04975 0.0
C86 C 0.95402 0.48968 0.03305 0.0
C87 C 0.95834 0.47342 0.02061 0.0
C88 C 0.97429 0.46112 0.02477 0.0
C89 C 0.98591 0.46532 0.04173 0.0
C90 C 0.97874 0.44371 0.01171 0.0
C91 C 0.96348 0.43254 1.0021 0.0
C92 C 0.99835 0.43779 0.00911 0.0
C93 C 1.0025 0.42093 0.99778 0.0
C94 C 0.98722 0.40986 0.98834 0.0
C95 C 0.93684 0.50247 0.02879 0.0
C96 C 0.92593 0.51071 0.04432 0.0
C97 C 0.93116 0.50663 0.00929 0.0
C98 C 0.91503 0.51857 0.00546 0.0
C99 C 0.90424 0.52696 0.02102 0.0
C100 C 0.91005 0.5229 0.0405 0.0
C101 C 0.96771 0.41594 0.99039 0.0
H102 H 0.99124 0.49562 0.1212 0.0
H103 H 0.9703 0.48914 0.092 0.0
H104 H 0.0223 0.48338 0.05628 0.0
H105 H 0.04321 0.48986 0.08543 0.0
H106 H 0.96356 0.5064 0.05916 0.0
H107 H 0.99777 0.45567 0.04565 0.0
H108 H 0.9492 0.47029 0.00769 0.0
H109 H 0.94817 0.43629 1.00395 0.0
H110 H 0.0106 0.44619 0.01578 0.0
H111 H 0.01769 0.41661 0.99625 0.0
H112 H 0.92951 0.50766 0.05954 0.0
H113 H 0.93929 0.50086 0.99689 0.0
H114 H 0.95566 0.4075 0.98335 0.0
H115 H 0.90248 0.52929 0.05296 0.0
H116 H 0.91096 0.52106 0.99024 0.0
C117 C 0.69112 0.76272 0.14606 0.0
C118 C 0.70983 0.75528 0.14189 0.0
C119 C 0.6887 0.77627 0.16167 0.0
C120 C 0.70497 0.78283 0.17329 0.0
C121 C 0.72363 0.77521 0.16926 0.0
C122 C 0.72601 0.76152 0.1538 0.0
C123 C 0.70266 0.79812 0.1891 0.0
C124 C 0.68706 0.79665 0.2026 0.0
C125 C 0.68474 0.81122 0.2175 0.0
C126 C 0.69818 0.82755 0.21842 0.0
C127 C 0.71406 0.82902 0.20531 0.0
C128 C 0.71618 0.81426 0.19071 0.0
C129 C 0.72886 0.84562 0.20733 0.0
C130 C 0.72289 0.86527 0.2099 0.0
C131 C 0.74913 0.84178 0.2073 0.0
C132 C 0.76313 0.85719 0.21024 0.0
C133 C 0.75718 0.87681 0.21305 0.0
C134 C 0.66881 0.80911 0.23252 0.0
C135 C 0.65023 0.8005 0.22749 0.0
C136 C 0.67218 0.81546 0.25219 0.0
C137 C 0.65745 0.81336 0.26635 0.0
C138 C 0.63898 0.80446 0.26143 0.0
C139 C 0.63558 0.79809 0.24175 0.0
C140 C 0.73692 0.88074 0.2126 0.0
H141 H 0.67834 0.75806 0.13725 0.0
H142 H 0.67417 0.78197 0.16435 0.0
H143 H 0.73642 0.77986 0.17806 0.0
H144 H 0.74063 0.75616 0.15088 0.0
H145 H 0.67714 0.78377 0.20183 0.0
H146 H 0.72819 0.81556 0.18032 0.0
H147 H 0.69655 0.83905 0.22958 0.0
H148 H 0.70736 0.86867 0.20985 0.0
H149 H 0.75415 0.82677 0.2055 0.0
H150 H 0.77864 0.85375 0.21036 0.0
H151 H 0.64692 0.79564 0.21248 0.0
H152 H 0.68635 0.82184 0.25684 0.0
H153 H 0.73192 0.8957 0.21485 0.0
H154 H 0.6217 0.79091 0.23735 0.0
H155 H 0.66061 0.81879 0.2812 0.0
C156 C 0.98644 0.98668 0.42586 0.0
C157 C 0.99547 0.98731 0.40729 0.0
C158 C 0.99757 0.98278 0.44281 0.0
C159 C 0.01797 0.97989 0.44152 0.0
C160 C 0.02701 0.98076 0.42297 0.0
C161 C 0.01584 0.98424 0.406 0.0
C162 C 0.02994 0.9762 0.45946 0.0
C163 C 0.02469 0.96069 0.47216 0.0
C164 C 0.03637 0.95676 0.48887 0.0
C165 C 0.05314 0.96907 0.49296 0.0
C166 C 0.05868 0.98452 0.48032 0.0
C167 C 0.04699 0.98791 0.46356 0.0
C168 C 0.07697 0.99676 0.48437 0.0
C169 C 0.08185 1.00334 0.50367 0.0
C170 C 0.08989 1.00169 0.46898 0.0
C171 C 0.10729 0.01281 0.47279 0.0
C172 C 0.11222 0.01931 0.49209 0.0
C173 C 0.03169 0.9394 0.50162 0.0
C174 C 0.01205 0.93335 0.50544 0.0
C175 C 0.04699 0.92854 0.50997 0.0
C176 C 0.04285 0.91236 0.52196 0.0
C177 C 0.02325 0.90616 0.52569 0.0
C178 C 0.00788 0.91691 0.51724 0.0
C179 C 0.09924 0.01449 0.50748 0.0
H180 H 0.97074 0.98887 0.4272 0.0
H181 H 0.99029 0.98227 0.45696 0.0
H182 H 0.04271 0.97851 0.42159 0.0
H183 H 0.02314 0.9847 0.39186 0.0
H184 H 0.01193 0.95124 0.4685 0.0
H185 H 0.05096 0.99993 0.45382 0.0
H186 H 0.06215 0.96644 0.50587 0.0
H187 H 0.07214 0.99996 0.51584 0.0
H188 H 0.0867 0.9967 0.45398 0.0
H189 H 0.11681 0.01646 0.46055 0.0
H190 H 0.99983 0.9414 0.49946 0.0
H191 H 0.06232 0.93237 0.50712 0.0
H192 H 0.10264 0.01913 0.52253 0.0
H193 H 0.9926 0.91253 0.51955 0.0
H194 H 0.05515 0.90481 0.52843 0.0
C195 C 0.15095 0.69593 0.75774 0.0
C196 C 0.14299 0.71464 0.75483 0.0
C197 C 0.16624 0.6936 0.77146 0.0
C198 C 0.17416 0.71002 0.78232 0.0
C199 C 0.16647 0.72884 0.77885 0.0
C200 C 0.15094 0.73107 0.76544 0.0
C201 C 0.18997 0.70751 0.79755 0.0
C202 C 0.20462 0.69333 0.79496 0.0
C203 C 0.21927 0.69065 0.80949 0.0
C204 C 0.21934 0.70276 0.82662 0.0
C205 C 0.20518 0.71733 0.82928 0.0
C206 C 0.1904 0.71934 0.81486 0.0
C207 C 0.20613 0.73086 0.84686 0.0
C208 C 0.21032 0.72363 0.86572 0.0
C209 C 0.20338 0.75129 0.84474 0.0
C210 C 0.20511 0.76423 0.86103 0.0
C211 C 0.2096 0.75707 0.87985 0.0
C212 C 0.23456 0.67534 0.80679 0.0
C213 C 0.22973 0.65691 0.79769 0.0
C214 C 0.25408 0.67892 0.81349 0.0
C215 C 0.26829 0.66443 0.81138 0.0
C216 C 0.26348 0.64601 0.80224 0.0
C217 C 0.24401 0.64251 0.79535 0.0
C218 C 0.21201 0.73657 0.88203 0.0
H219 H 0.14496 0.68301 0.74979 0.0
H220 H 0.17149 0.67883 0.77387 0.0
H221 H 0.17245 0.74195 0.78646 0.0
H222 H 0.1452 0.7457 0.76325 0.0
H223 H 0.20491 0.68465 0.78138 0.0
H224 H 0.17899 0.72998 0.81739 0.0
H225 H 0.23054 0.70097 0.8379 0.0
H226 H 0.21223 0.70793 0.86789 0.0
H227 H 0.20042 0.75738 0.83037 0.0
H228 H 0.20348 0.77994 0.85874 0.0
H229 H 0.21483 0.65347 0.79254 0.0
H230 H 0.25852 0.69301 0.82029 0.0
H231 H 0.21518 0.73051 0.89637 0.0
H232 H 0.23975 0.62868 0.78793 0.0
H233 H 0.28301 0.66767 0.81713 0.0
C234 C 0.99658 0.61158 0.49959 0.0
C235 C 0.99176 0.61144 0.5197 0.0
C236 C 0.99327 0.59462 0.4877 0.0
C237 C 0.98525 0.57706 0.4957 0.0
C238 C 0.9809 0.57685 0.51595 0.0
C239 C 0.98403 0.59385 0.52777 0.0
C240 C 0.98093 0.5592 0.48291 0.0
C241 C 0.99367 0.55405 0.46753 0.0
C242 C 0.98923 0.53777 0.4548 0.0
C243 C 0.97212 0.52605 0.4583 0.0
C244 C 0.95924 0.53072 0.47379 0.0
C245 C 0.9637 0.54752 0.48578 0.0
C246 C 0.94091 0.51842 0.47722 0.0
C247 C 0.93021 0.50957 0.46133 0.0
C248 C 0.93378 0.5156 0.49645 0.0
C249 C 0.91632 0.5046 0.49965 0.0
C250 C 0.90562 0.49575 0.48375 0.0
C251 C 1.00195 0.5336 0.43737 0.0
C252 C 0.01082 0.54931 0.42696 0.0
C253 C 0.00476 0.51407 0.43049 0.0
C254 C 0.01562 0.51043 0.41339 0.0
C255 C 0.02422 0.5262 0.40283 0.0
C256 C 0.02194 0.54565 0.41011 0.0
C257 C 0.91298 0.49824 0.46456 0.0
H258 H 1.00239 0.62498 0.49292 0.0
H259 H 0.99654 0.59545 0.47212 0.0
H260 H 0.97509 0.56352 0.52273 0.0
H261 H 0.98046 0.59321 0.5433 0.0
H262 H 0.0072 0.5627 0.46555 0.0
H263 H 0.9534 0.55191 0.49704 0.0
H264 H 0.96866 0.51339 0.44875 0.0
H265 H 0.93494 0.51157 0.44627 0.0
H266 H 0.94171 0.52184 0.50915 0.0
H267 H 0.91111 0.50332 0.51464 0.0
H268 H 0.00885 0.56457 0.43152 0.0
H269 H 0.9985 0.50153 0.43825 0.0
H270 H 0.9055 0.49138 0.45191 0.0
H271 H 0.02868 0.55821 0.40275 0.0
H272 H 0.01689 0.49525 0.40825 0.0
C273 C 0.82444 0.77072 0.87235 0.0
C274 C 0.80555 0.76181 0.87425 0.0
C275 C 0.8279 0.78542 0.85832 0.0
C276 C 0.81249 0.79164 0.84602 0.0
C277 C 0.79361 0.7828 0.84806 0.0
C278 C 0.79019 0.76809 0.86197 0.0
C279 C 0.81602 0.80715 0.83098 0.0
C280 C 0.83289 0.80684 0.81907 0.0
C281 C 0.83585 0.82089 0.80419 0.0
C282 C 0.82186 0.83565 0.80159 0.0
C283 C 0.80493 0.83621 0.81338 0.0
C284 C 0.80211 0.8219 0.82797 0.0
C285 C 0.78993 0.85148 0.81022 0.0
C286 C 0.79553 0.87163 0.80929 0.0
C287 C 0.76986 0.84595 0.80816 0.0
C288 C 0.75569 0.86027 0.80507 0.0
C289 C 0.76118 0.88054 0.80429 0.0
C290 C 0.85298 0.81939 0.79072 0.0
C291 C 0.87184 0.8153 0.79815 0.0
C292 C 0.85039 0.82099 0.77021 0.0
C293 C 0.86609 0.81782 0.75738 0.0
C294 C 0.88482 0.81306 0.76475 0.0
C295 C 0.88757 0.81226 0.78534 0.0
C296 C 0.78132 0.886 0.80653 0.0
H297 H 0.83661 0.76616 0.88153 0.0
H298 H 0.84259 0.79204 0.85722 0.0
H299 H 0.78146 0.78706 0.83869 0.0
H300 H 0.77539 0.76176 0.86321 0.0
H301 H 0.84331 0.7951 0.82082 0.0
H302 H 0.78915 0.82245 0.8372 0.0
H303 H 0.82398 0.84654 0.79018 0.0
H304 H 0.81089 0.8763 0.81104 0.0
H305 H 0.76517 0.83048 0.80859 0.0
H306 H 0.74045 0.85534 0.803 0.0
H307 H 0.87438 0.81427 0.81389 0.0
H308 H 0.83599 0.82389 0.764 0.0
H309 H 0.78617 0.90142 0.80641 0.0
H310 H 0.90186 0.80901 0.79158 0.0
H311 H 0.8633 0.81829 0.74164 0.0
C312 C 0.316 0.26922 0.37104 0.0
C313 C 0.29747 0.25943 0.37288 0.0
C314 C 0.31944 0.28262 0.3558 0.0
C315 C 0.30436 0.28676 0.34226 0.0
C316 C 0.28596 0.2769 0.34391 0.0
C317 C 0.28261 0.26327 0.35888 0.0
C318 C 0.30766 0.30148 0.32653 0.0
C319 C 0.32386 0.30003 0.31391 0.0
C320 C 0.32691 0.31367 0.29865 0.0
C321 C 0.31331 0.3289 0.29629 0.0
C322 C 0.29689 0.33057 0.30876 0.0
C323 C 0.29433 0.31677 0.32391 0.0
C324 C 0.28228 0.3465 0.30581 0.0
C325 C 0.28834 0.36537 0.29914 0.0
C326 C 0.26204 0.34291 0.30941 0.0
C327 C 0.24833 0.35771 0.30647 0.0
C328 C 0.25444 0.37633 0.29947 0.0
C329 C 0.34401 0.31171 0.28499 0.0
C330 C 0.36211 0.30455 0.29178 0.0
C331 C 0.34232 0.31664 0.26496 0.0
C332 C 0.35819 0.3144 0.25213 0.0
C333 C 0.37613 0.30674 0.2588 0.0
C334 C 0.37783 0.30191 0.27887 0.0
C335 C 0.27455 0.38002 0.29581 0.0
H336 H 0.32775 0.26693 0.38161 0.0
H337 H 0.33375 0.29012 0.35488 0.0
H338 H 0.27418 0.27961 0.33347 0.0
H339 H 0.26834 0.25568 0.35938 0.0
H340 H 0.33371 0.2878 0.31566 0.0
H341 H 0.28211 0.31803 0.33401 0.0
H342 H 0.31544 0.33942 0.28459 0.0
H343 H 0.30377 0.36895 0.2966 0.0
H344 H 0.25664 0.32853 0.31415 0.0
H345 H 0.23286 0.35444 0.30919 0.0
H346 H 0.36422 0.30092 0.30714 0.0
H347 H 0.32861 0.3219 0.25897 0.0
H348 H 0.27964 0.39433 0.29056 0.0
H349 H 0.39118 0.29567 0.28466 0.0
H350 H 0.35629 0.31867 0.23693 0.0
C351 C 0.4999 0.99339 0.60959 0.0
C352 C 0.51993 0.98839 0.60961 0.0
C353 C 0.48803 0.99017 0.59275 0.0
C354 C 0.49591 0.98218 0.5753 0.0
C355 C 0.51599 0.97739 0.57527 0.0
C356 C 0.52775 0.98025 0.5922 0.0
C357 C 0.48329 0.97874 0.55726 0.0
C358 C 0.46794 0.99161 0.55267 0.0
C359 C 0.45613 0.98841 0.53569 0.0
C360 C 0.45983 0.97226 0.52306 0.0
C361 C 0.47495 0.95913 0.5274 0.0
C362 C 0.4865 0.96246 0.54452 0.0
C363 C 0.47836 0.94162 0.51436 0.0
C364 C 0.46235 0.92981 0.50721 0.0
C365 C 0.49761 0.93636 0.50925 0.0
C366 C 0.50077 0.91969 0.49722 0.0
C367 C 0.48475 0.90784 0.49008 0.0
C368 C 0.43964 1.00175 0.53133 0.0
C369 C 0.4255 0.00577 0.54578 0.0
C370 C 0.43772 0.01025 0.51265 0.0
C371 C 0.42202 0.02263 0.50854 0.0
C372 C 0.40771 0.0264 0.5229 0.0
C373 C 0.4096 0.01782 0.54154 0.0
C374 C 0.4655 0.91311 0.4953 0.0
H375 H 0.49331 0.99998 0.62252 0.0
H376 H 0.4726 0.99381 0.59356 0.0
H377 H 0.52278 0.97152 0.5621 0.0
H378 H 0.54297 0.97587 0.59159 0.0
H379 H 0.46536 1.00441 0.56205 0.0
H380 H 0.49766 0.95192 0.5482 0.0
H381 H 0.45078 0.96981 0.50992 0.0
H382 H 0.44737 0.93324 0.51116 0.0
H383 H 0.51024 0.94528 0.51439 0.0
H384 H 0.51576 0.91626 0.49332 0.0
H385 H 0.42657 0.99931 0.56026 0.0
H386 H 0.44846 0.00743 0.50128 0.0
H387 H 0.45281 0.90412 0.49047 0.0
H388 H 0.39884 0.02059 0.55292 0.0
H389 H 0.42086 0.029 0.49403 0.0
C390 C 0.19718 0.26154 0.64779 0.0
C391 C 0.21612 0.25468 0.6435 0.0
C392 C 0.19447 0.27532 0.66313 0.0
C393 C 0.21063 0.28269 0.67444 0.0
C394 C 0.22952 0.27571 0.67032 0.0
C395 C 0.23222 0.26183 0.6551 0.0
C396 C 0.20789 0.29796 0.69017 0.0
C397 C 0.19236 0.29604 0.70369 0.0
C398 C 0.18961 0.31055 0.71852 0.0
C399 C 0.2026 0.32722 0.71947 0.0
C400 C 0.21834 0.32928 0.70623 0.0
C401 C 0.22085 0.31457 0.69163 0.0
C402 C 0.23235 0.34665 0.7079 0.0
C403 C 0.22543 0.36577 0.71171 0.0
C404 C 0.25279 0.34415 0.70615 0.0
C405 C 0.26603 0.36033 0.70851 0.0
C406 C 0.25914 0.37939 0.71267 0.0
C407 C 0.17349 0.30817 0.73327 0.0
C408 C 0.15503 0.29954 0.72784 0.0
C409 C 0.17647 0.31446 0.75302 0.0
C410 C 0.16146 0.31227 0.76687 0.0
C411 C 0.14308 0.30341 0.76152 0.0
C412 C 0.14009 0.29708 0.74179 0.0
C413 C 0.23867 0.38194 0.71407 0.0
H414 H 0.18447 0.25664 0.63902 0.0
H415 H 0.17977 0.28058 0.66581 0.0
H416 H 0.24222 0.28091 0.67897 0.0
H417 H 0.24695 0.25661 0.65253 0.0
H418 H 0.1828 0.28289 0.70297 0.0
H419 H 0.23266 0.31629 0.68107 0.0
H420 H 0.20061 0.3386 0.73068 0.0
H421 H 0.20976 0.36826 0.71281 0.0
H422 H 0.25862 0.32958 0.70347 0.0
H423 H 0.2817 0.35779 0.70761 0.0
H424 H 0.15203 0.29473 0.71276 0.0
H425 H 0.19054 0.32088 0.75793 0.0
H426 H 0.23284 0.39648 0.71693 0.0
H427 H 0.12628 0.28994 0.73709 0.0
H428 H 0.16431 0.31764 0.7818 0.0
C429 C 0.86389 0.23361 0.75125 0.0
C430 C 0.87437 0.2172 0.75765 0.0
C431 C 0.84826 0.23114 0.73776 0.0
C432 C 0.84275 0.21219 0.73025 0.0
C433 C 0.85318 0.19575 0.73675 0.0
C434 C 0.86876 0.19822 0.75035 0.0
C435 C 0.82623 0.20964 0.71567 0.0
C436 C 0.82369 0.22355 0.70069 0.0
C437 C 0.80811 0.2213 0.68696 0.0
C438 C 0.79486 0.20501 0.68831 0.0
C439 C 0.79702 0.19105 0.70326 0.0
C440 C 0.81281 0.19341 0.71679 0.0
C441 C 0.78243 0.17437 0.70523 0.0
C442 C 0.76209 0.17786 0.70469 0.0
C443 C 0.78872 0.15498 0.70828 0.0
C444 C 0.77493 0.13943 0.71092 0.0
C445 C 0.75461 0.14302 0.71084 0.0
C446 C 0.80565 0.23606 0.67124 0.0
C447 C 0.80525 0.25638 0.67596 0.0
C448 C 0.80367 0.22991 0.65142 0.0
C449 C 0.80141 0.24383 0.63658 0.0
C450 C 0.80069 0.26423 0.64123 0.0
C451 C 0.80263 0.27029 0.66117 0.0
C452 C 0.74833 0.16237 0.70758 0.0
H453 H 0.86763 0.24839 0.75685 0.0
H454 H 0.84032 0.24408 0.7334 0.0
H455 H 0.84953 0.18098 0.73109 0.0
H456 H 0.87669 0.18531 0.75484 0.0
H457 H 0.83411 0.23594 0.69939 0.0
H458 H 0.81421 0.18292 0.72862 0.0
H459 H 0.78274 0.20329 0.6778 0.0
H460 H 0.75683 0.19268 0.70251 0.0
H461 H 0.8043 0.15186 0.70866 0.0
H462 H 0.78019 0.12469 0.71354 0.0
H463 H 0.80657 0.26147 0.69118 0.0
H464 H 0.80416 0.21433 0.64738 0.0
H465 H 0.73275 0.16553 0.70731 0.0
H466 H 0.80178 0.28576 0.66548 0.0
H467 H 0.80043 0.23853 0.62142 0.0
C468 C 0.53286 0.59497 0.49061 0.0
C469 C 0.52922 0.61377 0.49882 0.0
C470 C 0.53771 0.57922 0.5027 0.0
C471 C 0.53882 0.58184 0.5233 0.0
C472 C 0.53521 0.60064 0.53154 0.0
C473 C 0.53059 0.61647 0.51941 0.0
C474 C 0.54332 0.56485 0.53612 0.0
C475 C 0.55875 0.55217 0.53133 0.0
C476 C 0.56266 0.53558 0.54291 0.0
C477 C 0.5506 0.53162 0.55925 0.0
C478 C 0.53532 0.54428 0.56437 0.0
C479 C 0.53189 0.56097 0.55289 0.0
C480 C 0.52268 0.53983 0.58154 0.0
C481 C 0.51253 0.52145 0.58267 0.0
C482 C 0.52072 0.55389 0.59686 0.0
C483 C 0.50897 0.54953 0.61318 0.0
C484 C 0.49863 0.53124 0.61421 0.0
C485 C 0.57939 0.52252 0.53808 0.0
C486 C 0.58386 0.51775 0.51837 0.0
C487 C 0.59114 0.51481 0.55318 0.0
C488 C 0.60692 0.50266 0.5487 0.0
C489 C 0.61144 0.49794 0.52899 0.0
C490 C 0.59969 0.50566 0.51388 0.0
C491 C 0.50042 0.51727 0.59877 0.0
H492 H 0.53207 0.59248 0.47478 0.0
H493 H 0.54025 0.56486 0.49594 0.0
H494 H 0.53607 0.60312 0.54736 0.0
H495 H 0.52774 0.63075 0.52618 0.0
H496 H 0.56799 0.55553 0.5188 0.0
H497 H 0.51984 0.57052 0.55663 0.0
H498 H 0.55307 0.51867 0.56808 0.0
H499 H 0.51377 0.51042 0.57098 0.0
H500 H 0.52847 0.56814 0.5963 0.0
H501 H 0.50773 0.56056 0.62489 0.0
H502 H 0.57501 0.52322 0.50635 0.0
H503 H 0.58832 0.51836 0.56852 0.0
H504 H 0.49264 0.50304 0.59928 0.0
H505 H 0.60285 0.50256 0.49852 0.0
H506 H 0.61546 0.49681 0.56074 0.0
C507 C 0.48611 0.48796 0.9261 0.0
C508 C 0.49423 0.48811 0.90702 0.0
C509 C 0.49758 0.48302 0.94249 0.0
C510 C 0.51753 0.4785 0.94027 0.0
C511 C 0.52571 0.47863 0.92134 0.0
C512 C 0.51417 0.48316 0.9049 0.0
C513 C 0.53 0.47436 0.95774 0.0
C514 C 0.52441 0.45944 0.97098 0.0
C515 C 0.53625 0.45555 0.98762 0.0
C516 C 0.55348 0.46737 0.99107 0.0
C517 C 0.5594 0.48209 0.9778 0.0
C518 C 0.54763 0.48539 0.96109 0.0
C519 C 0.578 0.4939 0.98126 0.0
C520 C 0.58248 0.50232 0.99993 0.0
C521 C 0.59142 0.49682 0.96584 0.0
C522 C 0.60889 0.50801 0.96899 0.0
C523 C 0.61329 0.51676 0.98758 0.0
C524 C 0.53109 0.43888 1.0011 0.0
C525 C 0.51128 0.43353 0.00511 0.0
C526 C 0.5461 0.42804 0.01005 0.0
C527 C 0.54151 0.41273 0.02298 0.0
C528 C 0.52179 0.4075 0.02698 0.0
C529 C 0.50668 0.41787 0.01777 0.0
C530 C 0.59988 0.51369 1.00304 0.0
H531 H 0.47097 0.492 0.92851 0.0
H532 H 0.491 0.48323 0.957 0.0
H533 H 0.54104 0.47504 0.91924 0.0
H534 H 0.52093 0.48255 0.89051 0.0
H535 H 0.51118 0.45049 0.96786 0.0
H536 H 0.55192 0.49693 0.95092 0.0
H537 H 0.56256 0.465 1.00401 0.0
H538 H 0.57232 0.50046 0.01205 0.0
H539 H 0.58851 0.49025 0.95137 0.0
H540 H 0.61902 0.50967 0.95682 0.0
H541 H 0.49927 0.4416 0.99875 0.0
H542 H 0.56151 0.43118 0.00696 0.0
H543 H 0.60257 0.52042 0.01747 0.0
H544 H 0.49135 0.41414 0.0207 0.0
H545 H 0.55342 0.40474 0.02966 0.0
C546 C 0.64844 0.19367 0.26149 0.0
C547 C 0.64419 0.21257 0.25443 0.0
C548 C 0.66388 0.19127 0.27501 0.0
C549 C 0.67524 0.20775 0.28194 0.0
C550 C 0.67113 0.22661 0.27471 0.0
C551 C 0.65585 0.22898 0.26103 0.0
C552 C 0.69087 0.20539 0.29718 0.0
C553 C 0.70459 0.19024 0.2954 0.0
C554 C 0.71926 0.18779 0.30997 0.0
C555 C 0.71981 0.20071 0.32653 0.0
C556 C 0.70634 0.21606 0.32844 0.0
C557 C 0.69194 0.21827 0.31367 0.0
C558 C 0.70745 0.22992 0.34576 0.0
C559 C 0.71097 0.22285 0.36482 0.0
C560 C 0.70535 0.25041 0.34329 0.0
C561 C 0.70703 0.26353 0.35945 0.0
C562 C 0.71086 0.25649 0.37847 0.0
C563 C 0.73419 0.17204 0.30779 0.0
C564 C 0.72903 0.15344 0.29922 0.0
C565 C 0.75382 0.17551 0.31423 0.0
C566 C 0.76782 0.16082 0.31228 0.0
C567 C 0.76274 0.14228 0.30352 0.0
C568 C 0.74312 0.13882 0.29701 0.0
C569 C 0.71265 0.23597 0.38098 0.0
H570 H 0.63981 0.18073 0.25654 0.0
H571 H 0.66663 0.17658 0.28041 0.0
H572 H 0.67974 0.23956 0.27969 0.0
H573 H 0.65285 0.24373 0.25596 0.0
H574 H 0.70413 0.18073 0.28236 0.0
H575 H 0.68118 0.22976 0.31527 0.0
H576 H 0.73086 0.19893 0.33795 0.0
H577 H 0.71233 0.20713 0.36728 0.0
H578 H 0.70289 0.25637 0.32877 0.0
H579 H 0.70586 0.27926 0.35694 0.0
H580 H 0.71404 0.15006 0.2943 0.0
H581 H 0.75852 0.18971 0.32061 0.0
H582 H 0.71529 0.23002 0.39548 0.0
H583 H 0.73863 0.12489 0.28992 0.0
H584 H 0.78264 0.16403 0.31777 0.0
C585 C 0.4962 0.11013 1.00289 0.0
C586 C 0.49155 0.10996 0.02305 0.0
C587 C 0.49298 0.09313 0.99104 0.0
C588 C 0.48519 0.07551 0.99911 0.0
C589 C 0.48094 0.07528 0.01938 0.0
C590 C 0.48402 0.09231 0.03118 0.0
C591 C 0.48104 0.0576 0.98637 0.0
C592 C 0.49392 0.05249 0.97109 0.0
C593 C 0.48966 0.03615 0.9584 0.0
C594 C 0.47259 0.02433 0.96181 0.0
C595 C 0.45957 0.02899 0.97719 0.0
C596 C 0.46387 0.04584 0.98916 0.0
C597 C 0.44121 0.01667 0.98049 0.0
C598 C 0.43065 0.00778 0.96454 0.0
C599 C 0.43388 0.01397 0.99966 0.0
C600 C 0.4163 1.00311 1.00274 0.0
C601 C 0.40569 0.99428 0.98677 0.0
C602 C 0.50255 0.03204 0.94109 0.0
C603 C 0.51127 0.04781 0.93065 0.0
C604 C 0.50576 0.01253 0.93441 0.0
C605 C 0.51694 0.00895 0.91749 0.0
C606 C 0.52539 0.02478 0.90691 0.0
C607 C 0.52265 0.04423 0.91397 0.0
C608 C 0.4133 0.99658 0.96765 0.0
H609 H 0.50183 0.12356 0.99616 0.0
H610 H 0.49616 0.09396 0.97544 0.0
H611 H 0.47529 0.0619 0.02619 0.0
H612 H 0.48059 0.09163 0.04674 0.0
H613 H 0.50741 0.06122 0.96918 0.0
H614 H 0.45348 0.05022 1.00035 0.0
H615 H 0.46929 0.01162 0.95227 0.0
H616 H 0.43554 0.00967 0.94952 0.0
H617 H 0.4417 0.02023 0.01241 0.0
H618 H 0.41092 1.00196 0.01767 0.0
H619 H 0.50898 0.06307 0.93506 0.0
H620 H 0.49959 0.99995 0.94219 0.0
H621 H 0.40589 0.98972 0.95495 0.0
H622 H 0.52924 0.05684 0.90657 0.0
H623 H 0.51857 0.99377 0.9125 0.0
Mn624 Mn 0.25282 0.87915 0.01142 0.0
Mn625 Mn 0.25065 0.89535 0.96458 0.0
C626 C 0.23756 0.8598 0.98689 0.0
C627 C 0.26779 0.86206 0.03689 0.0
C628 C 0.22431 0.91055 0.99697 0.0
O629 O 0.27446 0.90081 0.01131 0.0
O630 O 0.27171 0.9104 0.97964 0.0
C631 C 0.2895 0.88159 0.95122 0.0
N632 N 0.2695 0.88162 0.94906 0.0
C633 C 0.27059 0.85966 0.92076 0.0
C634 C 0.29121 0.85949 0.9226 0.0
C635 C 0.3007 0.87048 0.93793 0.0
C636 C 0.26022 0.87108 0.93439 0.0
H637 H 0.29685 0.88993 0.96303 0.0
C638 C 0.27974 0.91159 0.99685 0.0
O639 O 0.2552 0.87578 0.04043 0.0
O640 O 0.27235 0.85886 0.01858 0.0
N641 N 0.23108 0.88188 0.94832 0.0
C642 C 0.21105 0.88287 0.94914 0.0
C643 C 0.19932 0.87237 0.93507 0.0
C644 C 0.2083 0.86105 0.92027 0.0
C645 C 0.22894 0.86039 0.91961 0.0
C646 C 0.23988 0.87132 0.93391 0.0
H647 H 0.20406 0.89151 0.96051 0.0
O648 O 0.23289 0.85738 0.00522 0.0
O649 O 0.25076 0.87364 0.98346 0.0
O650 O 0.23138 0.89996 0.01059 0.0
O651 O 0.2304 0.90995 0.9792 0.0
C652 C 0.23909 0.84904 0.90556 0.0
C653 C 0.25989 0.84865 0.90615 0.0
H654 H 0.29989 0.85086 0.91245 0.0
H655 H 0.3166 0.87034 0.93951 0.0
H656 H 0.18339 0.87292 0.93569 0.0
H657 H 0.1992 0.85281 0.90956 0.0
H658 H 0.23102 0.84034 0.8944 0.0
H659 H 0.26751 0.83965 0.89543 0.0
Mn660 Mn 0.13862 0.50646 0.25321 0.0
Mn661 Mn 0.12102 0.55284 0.25431 0.0
C662 C 0.15687 0.53258 0.24017 0.0
C663 C 0.15649 0.48067 0.26647 0.0
C664 C 0.10677 0.52138 0.22483 0.0
O665 O 0.11743 0.50447 0.27433 0.0
O666 O 0.10649 0.53572 0.27325 0.0
C667 C 0.13414 0.56417 0.29487 0.0
N668 N 0.13396 0.56775 0.27515 0.0
C669 C 0.15354 0.59779 0.27997 0.0
C670 C 0.15384 0.5945 0.30034 0.0
C671 C 0.14415 0.57757 0.3078 0.0
C672 C 0.14336 0.5839 0.2678 0.0
H673 H 0.12668 0.5512 0.30068 0.0
C674 C 0.10601 0.51811 0.28005 0.0
O675 O 0.14272 0.47739 0.25329 0.0
O676 O 0.1594 0.49888 0.27255 0.0
N677 N 0.13372 0.57117 0.23696 0.0
C678 C 0.13283 0.57168 0.21688 0.0
C679 C 0.14225 0.5874 0.20703 0.0
C680 C 0.15222 0.60257 0.21791 0.0
C681 C 0.1527 0.60186 0.23857 0.0
C682 C 0.14308 0.58581 0.24758 0.0
H683 H 0.12514 0.56009 0.20844 0.0
O684 O 0.15968 0.5145 0.23426 0.0
O685 O 0.14337 0.53492 0.25347 0.0
O686 O 0.11742 0.50762 0.2314 0.0
O687 O 0.10715 0.53894 0.23215 0.0
C688 C 0.16255 0.61633 0.25058 0.0
C689 C 0.16309 0.61423 0.27125 0.0
H690 H 0.16155 0.6048 0.31036 0.0
H691 H 0.14438 0.57488 0.3235 0.0
H692 H 0.14181 0.58784 0.19108 0.0
H693 H 0.15955 0.61462 0.21026 0.0
H694 H 0.16998 0.629 0.24404 0.0
H695 H 0.171 0.62528 0.28029 0.0
Mn696 Mn 0.75824 0.63242 0.00537 0.0
Mn697 Mn 0.71517 0.64744 0.98585 0.0
C698 C 0.72984 0.61229 0.00679 0.0
C699 C 0.78837 0.6164 1.0037 0.0
C700 C 0.7319 0.66327 0.02482 0.0
O701 O 0.76739 0.65468 0.98701 0.0
O702 O 0.73778 0.66219 0.97417 0.0
C703 C 0.72035 0.63292 0.94479 0.0
N704 N 0.70958 0.63335 0.96165 0.0
C705 C 0.68364 0.61299 0.94666 0.0
C706 C 0.69441 0.61239 0.9291 0.0
C707 C 0.71289 0.62231 0.9282 0.0
C708 C 0.69192 0.62363 0.96276 0.0
H709 H 0.73449 0.64065 0.944 0.0
C710 C 0.75661 0.66444 0.97522 0.0
O711 O 0.78512 0.63001 0.01691 0.0
O712 O 0.77438 0.61263 0.99081 0.0
N713 N 0.69197 0.63423 0.99561 0.0
C714 C 0.68383 0.63561 0.01388 0.0
C715 C 0.66553 0.62608 0.01739 0.0
C716 C 0.65564 0.61554 1.00203 0.0
C717 C 0.66418 0.61458 0.98329 0.0
C718 C 0.68251 0.62424 0.9807 0.0
H719 H 0.69127 0.64385 0.02569 0.0
O720 O 0.74423 0.61011 0.01926 0.0
O721 O 0.73243 0.62613 0.99394 0.0
O722 O 0.74721 0.65275 0.02483 0.0
O723 O 0.71912 0.6626 0.01086 0.0
C724 C 0.65527 0.60433 0.96711 0.0
C725 C 0.66506 0.60339 0.94884 0.0
H726 H 0.68866 0.60429 0.91625 0.0
H727 H 0.72131 0.62188 0.91472 0.0
H728 H 0.65903 0.62693 0.03189 0.0
H729 H 0.64153 0.6082 0.0048 0.0
H730 H 0.64102 0.59684 0.96863 0.0
H731 H 0.65821 0.59515 0.93661 0.0
Mn732 Mn 0.87842 0.01034 0.25864 0.0
Mn733 Mn 0.89583 0.96391 0.25686 0.0
C734 C 0.85981 0.9846 0.24411 0.0
C735 C 0.8609 0.03603 0.27309 0.0
C736 C 0.90988 0.9962 0.22956 0.0
O737 O 0.8999 0.01157 0.28001 0.0
O738 O 0.91058 0.98025 0.27712 0.0
C739 C 0.88304 0.95108 0.29642 0.0
N740 N 0.88299 0.9483 0.27647 0.0
C741 C 0.86321 0.91825 0.2789 0.0
C742 C 0.86315 0.92074 0.29948 0.0
C743 C 0.87305 0.93727 0.30826 0.0
C744 C 0.87338 0.93253 0.26785 0.0
H745 H 0.89066 0.96374 0.30324 0.0
C746 C 0.91122 0.99765 0.28504 0.0
O747 O 0.87466 0.03939 0.26031 0.0
O748 O 0.85785 0.01773 0.2782 0.0
N749 N 0.88282 0.9464 0.23807 0.0
C750 C 0.88342 0.94673 0.21799 0.0
C751 C 0.87373 0.93153 0.20691 0.0
C752 C 0.86375 0.91603 0.21659 0.0
C753 C 0.86353 0.91588 0.23726 0.0
C754 C 0.87341 0.93145 0.24752 0.0
H755 H 0.89114 0.95857 0.21048 0.0
O756 O 0.857 1.0028 0.23914 0.0
O757 O 0.87357 0.98195 0.25721 0.0
O758 O 0.89923 0.00968 0.23688 0.0
O759 O 0.90967 0.97848 0.23582 0.0
C760 C 0.85371 0.90102 0.2481 0.0
C761 C 0.85343 0.90227 0.26889 0.0
H762 H 0.85545 0.91012 0.30867 0.0
H763 H 0.873 0.93933 0.32413 0.0
H764 H 0.87396 0.93176 0.19096 0.0
H765 H 0.85622 0.90437 0.20799 0.0
H766 H 0.84607 0.88872 0.24057 0.0
H767 H 0.84552 0.89094 0.27704 0.0
Mn768 Mn 0.26061 0.1295 0.50717 0.0
Mn769 Mn 0.2173 0.14542 0.4889 0.0
C770 C 0.23197 0.11012 0.50977 0.0
C771 C 0.29032 0.11288 0.50462 0.0
C772 C 0.23492 0.16062 0.52755 0.0
O773 O 0.26972 0.15109 0.48826 0.0
O774 O 0.23988 0.16095 0.47788 0.0
C775 C 0.22293 0.13208 0.44754 0.0
N776 N 0.21196 0.13203 0.46427 0.0
C777 C 0.1868 0.11098 0.44882 0.0
C778 C 0.19778 0.1109 0.43139 0.0
C779 C 0.21594 0.12145 0.43077 0.0
C780 C 0.19453 0.12182 0.46507 0.0
H781 H 0.2369 0.14015 0.44701 0.0
C782 C 0.25878 0.16225 0.47811 0.0
O783 O 0.28792 0.12684 0.51769 0.0
O784 O 0.27567 0.10897 0.49254 0.0
N785 N 0.19401 0.13191 0.49805 0.0
C786 C 0.18549 0.13308 0.51616 0.0
C787 C 0.16724 0.12329 0.51928 0.0
C788 C 0.15784 0.1126 0.50372 0.0
C789 C 0.16678 0.11178 0.48517 0.0
C790 C 0.18489 0.12198 0.48289 0.0
H791 H 0.19259 0.14137 0.52814 0.0
O792 O 0.24663 0.10787 0.5219 0.0
O793 O 0.23439 0.12369 0.49656 0.0
O794 O 0.25055 0.15057 0.52656 0.0
O795 O 0.22129 0.1596 0.5144 0.0
C796 C 0.15857 0.10103 0.46893 0.0
C797 C 0.16862 0.10056 0.45079 0.0
H798 H 0.19245 0.1027 0.41842 0.0
H799 H 0.22454 0.12139 0.41739 0.0
H800 H 0.16043 0.124 0.53364 0.0
H801 H 0.14378 0.10504 0.50619 0.0
H802 H 0.14466 0.09287 0.4703 0.0
H803 H 0.16227 0.09205 0.43848 0.0
Mn804 Mn 0.37891 0.514 0.75782 0.0
Mn805 Mn 0.3956 0.46725 0.75625 0.0
C806 C 0.36007 0.48868 0.74301 0.0
C807 C 0.36178 0.53984 0.77246 0.0
C808 C 0.41077 0.49962 0.7295 0.0
O809 O 0.40039 0.51473 0.77926 0.0
O810 O 0.40977 0.48288 0.77739 0.0
C811 C 0.38077 0.45387 0.79489 0.0
N812 N 0.38148 0.45152 0.77492 0.0
C813 C 0.35998 0.42253 0.77579 0.0
C814 C 0.35912 0.42456 0.79638 0.0
C815 C 0.36954 0.44032 0.80596 0.0
C816 C 0.37148 0.43644 0.76554 0.0
H817 H 0.38869 0.466 0.80231 0.0
C818 C 0.41088 0.50041 0.78499 0.0
O819 O 0.37559 0.54311 0.75971 0.0
O820 O 0.35848 0.52154 0.77743 0.0
N821 N 0.38297 0.45047 0.73655 0.0
C822 C 0.38461 0.45115 0.71655 0.0
C823 C 0.37474 0.43664 0.70473 0.0
C824 C 0.36339 0.42155 0.71358 0.0
C825 C 0.36207 0.42105 0.7342 0.0
C826 C 0.37239 0.4358 0.74523 0.0
H827 H 0.3933 0.46272 0.70966 0.0
O828 O 0.35743 0.50696 0.73825 0.0
O829 O 0.37372 0.48576 0.75615 0.0
O830 O 0.39957 0.51302 0.73603 0.0
O831 O 0.41078 0.48205 0.73619 0.0
C832 C 0.35065 0.40671 0.74421 0.0
C833 C 0.34957 0.40748 0.76499 0.0
H834 H 0.35039 0.41421 0.80497 0.0
H835 H 0.36887 0.44204 0.82185 0.0
H836 H 0.37581 0.43714 0.68882 0.0
H837 H 0.35565 0.41049 0.7044 0.0
H838 H 0.34241 0.39521 0.73607 0.0
H839 H 0.34053 0.39653 0.77251 0.0
Mn840 Mn 0.75439 0.37863 0.50958 0.0
Mn841 Mn 0.75137 0.39483 0.4628 0.0
C842 C 0.73856 0.35938 0.48533 0.0
C843 C 0.76991 0.36139 0.53464 0.0
C844 C 0.72559 0.41001 0.49562 0.0
O845 O 0.77614 0.40015 0.50905 0.0
O846 O 0.77258 0.40999 0.47756 0.0
C847 C 0.79009 0.38115 0.44895 0.0
N848 N 0.77006 0.38114 0.44705 0.0
C849 C 0.77084 0.3591 0.41877 0.0
C850 C 0.79149 0.359 0.42036 0.0
C851 C 0.80114 0.37004 0.43554 0.0
C852 C 0.76062 0.37052 0.43252 0.0
H853 H 0.79757 0.38955 0.46064 0.0
C854 C 0.78101 0.41109 0.49458 0.0
O855 O 0.75763 0.37529 0.53858 0.0
O856 O 0.7738 0.3581 0.51618 0.0
N857 N 0.73164 0.38129 0.44679 0.0
C858 C 0.71161 0.3823 0.44782 0.0
C859 C 0.69974 0.37179 0.43388 0.0
C860 C 0.70856 0.36046 0.41898 0.0
C861 C 0.72919 0.35978 0.41812 0.0
C862 C 0.74028 0.37073 0.4323 0.0
H863 H 0.70475 0.39096 0.45926 0.0
O864 O 0.73421 0.35697 0.50376 0.0
O865 O 0.75174 0.37315 0.48168 0.0
O866 O 0.73306 0.39961 0.50918 0.0
O867 O 0.73128 0.40931 0.47772 0.0
C868 C 0.73919 0.34843 0.40395 0.0
C869 C 0.75999 0.34805 0.40431 0.0
H870 H 0.80006 0.35036 0.4101 0.0
H871 H 0.81706 0.36995 0.43692 0.0
H872 H 0.68382 0.37236 0.43466 0.0
H873 H 0.69934 0.35223 0.40837 0.0
H874 H 0.731 0.33971 0.39289 0.0
H875 H 0.7675 0.33906 0.3935 0.0
Mn876 Mn 0.64047 0.00618 0.75729 0.0
Mn877 Mn 0.62015 0.05135 0.75662 0.0
C878 C 0.65703 0.03259 0.74282 0.0
C879 C 0.65993 0.98232 0.77186 0.0
C880 C 0.60699 0.0176 0.72916 0.0
O881 O 0.6195 1.00408 0.77871 0.0
O882 O 0.60743 0.03488 0.77721 0.0
C883 C 0.63425 0.06626 0.79576 0.0
N884 N 0.6331 0.06835 0.77583 0.0
C885 C 0.65131 0.09949 0.7777 0.0
C886 C 0.6526 0.09773 0.79826 0.0
C887 C 0.64409 0.08101 0.80731 0.0
C888 C 0.64134 0.08431 0.76696 0.0
H889 H 0.62772 0.05344 0.80276 0.0
C890 C 0.60782 0.0175 0.78449 0.0
O891 O 0.64618 0.97747 0.75907 0.0
O892 O 0.66191 1.00097 0.77673 0.0
N893 N 0.63113 0.06889 0.73748 0.0
C894 C 0.62955 0.06777 0.71743 0.0
C895 C 0.63785 0.08304 0.70608 0.0
C896 C 0.64748 0.09939 0.71546 0.0
C897 C 0.64872 0.10032 0.73612 0.0
C898 C 0.64018 0.08466 0.74665 0.0
H899 H 0.6221 0.05526 0.71016 0.0
O900 O 0.66095 0.0145 0.73778 0.0
O901 O 0.64347 0.0347 0.75607 0.0
O902 O 0.61917 0.00507 0.73549 0.0
O903 O 0.60601 0.03523 0.73613 0.0
C904 C 0.65833 0.11604 0.74666 0.0
C905 C 0.65973 0.11557 0.76743 0.0
H906 H 0.6602 0.10906 0.80722 0.0
H907 H 0.64509 0.07951 0.82315 0.0
H908 H 0.63684 0.0822 0.69015 0.0
H909 H 0.65395 0.1111 0.70666 0.0
H910 H 0.66496 0.12842 0.73891 0.0
H911 H 0.66747 0.12758 0.77534 0.0
Mn912 Mn 0.00904 0.25662 0.87649 0.0
Mn913 Mn 0.96264 0.25558 0.89444 0.0
C914 C 0.98334 0.24218 0.85815 0.0
C915 C 0.035 0.27111 0.85889 0.0
C916 C 0.9944 0.22843 0.90861 0.0
O917 O 0.01037 0.27816 0.8981 0.0
O918 O 0.97867 0.27681 0.90825 0.0
C919 C 0.94979 0.29445 0.88025 0.0
N920 N 0.94718 0.27438 0.88085 0.0
C921 C 0.91823 0.27532 0.86009 0.0
C922 C 0.92054 0.29602 0.85935 0.0
C923 C 0.93641 0.30561 0.86945 0.0
C924 C 0.93196 0.265 0.87119 0.0
H925 H 0.96202 0.30187 0.88792 0.0
C926 C 0.99631 0.28423 0.90891 0.0
O927 O 0.03802 0.25818 0.87245 0.0
O928 O 0.01689 0.2763 0.85606 0.0
N929 N 0.94558 0.23583 0.88208 0.0
C930 C 0.9461 0.21572 0.88337 0.0
C931 C 0.93154 0.20387 0.87362 0.0
C932 C 0.91658 0.2128 0.86273 0.0
C933 C 0.91627 0.23353 0.86175 0.0
C934 C 0.93106 0.24458 0.87192 0.0
H935 H 0.95759 0.20877 0.89167 0.0
O936 O 1.00138 0.2371 0.85499 0.0
O937 O 0.9809 0.25534 0.87207 0.0
O938 O 0.00773 0.23474 0.89698 0.0
O939 O 0.9771 0.23539 0.90918 0.0
C940 C 0.90209 0.24363 0.85075 0.0
C941 C 0.90308 0.26451 0.84991 0.0
H942 H 0.91032 0.30467 0.85093 0.0
H943 H 0.93835 0.32156 0.86886 0.0
H944 H 0.93191 0.18788 0.87441 0.0
H945 H 0.90551 0.2036 0.85505 0.0
H946 H 0.89055 0.23547 0.84264 0.0
H947 H 0.89227 0.2721 0.84117 0.0
Mn948 Mn 0.50739 0.7547 0.37737 0.0
Mn949 Mn 0.46028 0.75025 0.39289 0.0
C950 C 0.48338 0.73855 0.35781 0.0
C951 C 0.53299 0.77078 0.36054 0.0
C952 C 0.49327 0.72553 0.40882 0.0
O953 O 0.50635 0.77627 0.39898 0.0
O954 O 0.47428 0.77247 0.4072 0.0
C955 C 0.44531 0.78817 0.37832 0.0
N956 N 0.44409 0.768 0.37875 0.0
C957 C 0.41518 0.7671 0.35783 0.0
C958 C 0.41607 0.78787 0.35724 0.0
C959 C 0.43125 0.79844 0.36747 0.0
C960 C 0.42964 0.75768 0.36884 0.0
H961 H 0.45691 0.79637 0.38621 0.0
C962 C 0.49123 0.78135 0.40886 0.0
O963 O 0.53642 0.75828 0.37439 0.0
O964 O 0.51464 0.77473 0.35709 0.0
N965 N 0.44506 0.7295 0.37983 0.0
C966 C 0.44695 0.7095 0.38099 0.0
C967 C 0.43331 0.69677 0.371 0.0
C968 C 0.41778 0.70471 0.3601 0.0
C969 C 0.41606 0.72534 0.35925 0.0
C970 C 0.43011 0.73729 0.36947 0.0
H971 H 0.45883 0.70331 0.38939 0.0
O972 O 0.50187 0.73464 0.35559 0.0
O973 O 0.47954 0.75144 0.37155 0.0
O974 O 0.5068 0.73302 0.3981 0.0
O975 O 0.4754 0.73098 0.40814 0.0
C976 C 0.40108 0.73451 0.34849 0.0
C977 C 0.40066 0.75538 0.34776 0.0
H978 H 0.40526 0.79585 0.34888 0.0
H979 H 0.43208 0.81447 0.36702 0.0
H980 H 0.43476 0.68087 0.37171 0.0
H981 H 0.40733 0.69485 0.35235 0.0
H982 H 0.38998 0.72565 0.34047 0.0
H983 H 0.38923 0.76225 0.33918 0.0
Mn984 Mn 0.00825 0.75861 0.63145 0.0
Mn985 Mn 0.98777 0.71598 0.6484 0.0
C986 C 0.00849 0.72986 0.61217 0.0
C987 C 0.00658 0.78875 0.61511 0.0
C988 C 0.02749 0.73283 0.66252 0.0
O989 O 0.99104 0.76817 0.65427 0.0
O990 O 0.97657 0.73899 0.66246 0.0
C991 C 0.94676 0.72064 0.63419 0.0
N992 N 0.96345 0.7099 0.63484 0.0
C993 C 0.94807 0.68339 0.61552 0.0
C994 C 0.93067 0.69412 0.61469 0.0
C995 C 0.93005 0.71286 0.62399 0.0
C996 C 0.96428 0.69196 0.62577 0.0
H997 H 0.94621 0.735 0.64142 0.0
C998 C 0.97881 0.75785 0.66443 0.0
O999 O 0.02028 0.7855 0.62805 0.0
O1000 O 0.9933 0.77471 0.61213 0.0
N1001 N 0.99716 0.69241 0.63603 0.0
C1002 C 0.01533 0.68438 0.63749 0.0
C1003 C 0.01859 0.66585 0.62854 0.0
C1004 C 1.00308 0.65564 0.61849 0.0
C1005 C 0.98444 0.66407 0.61744 0.0
C1006 C 0.98209 0.68262 0.62654 0.0
H1007 H 0.02725 0.69208 0.64537 0.0
O1008 O 0.02104 0.74432 0.60902 0.0
O1009 O 0.99604 0.7327 0.62634 0.0
O1010 O 0.02817 0.74749 0.65093 0.0
O1011 O 0.01285 0.72053 0.66319 0.0
C1012 C 0.96813 0.65487 0.60759 0.0
C1013 C 0.95 0.66459 0.60649 0.0
H1014 H 0.91774 0.68815 0.60688 0.0
H1015 H 0.9167 0.72125 0.62337 0.0
H1016 H 0.03301 0.65943 0.62945 0.0
H1017 H 0.00566 0.64137 0.61157 0.0
H1018 H 0.96946 0.64044 0.60056 0.0
H1019 H 0.93768 0.65751 0.59855 0.0
Mn1020 Mn 0.50795 0.25904 0.13211 0.0
Mn1021 Mn 0.48714 0.21712 0.15041 0.0
C1022 C 0.50805 0.22969 0.11388 0.0
C1023 C 0.50691 0.28866 0.1148 0.0
C1024 C 0.52736 0.23318 0.16341 0.0
O1025 O 0.49051 0.26973 0.15397 0.0
O1026 O 0.47788 0.24079 0.16515 0.0
C1027 C 0.4459 0.2242 0.13823 0.0
N1028 N 0.4619 0.21245 0.13814 0.0
C1029 C 0.44412 0.18686 0.11959 0.0
C1030 C 0.42741 0.19864 0.11957 0.0
C1031 C 0.42834 0.21744 0.12885 0.0
C1032 C 0.46124 0.19446 0.12904 0.0
H1033 H 0.44653 0.23862 0.14542 0.0
C1034 C 0.4796 0.25975 0.16567 0.0
O1035 O 0.5204 0.28563 0.12801 0.0
O1036 O 0.4936 0.27462 0.11192 0.0
N1037 N 0.49445 0.1929 0.13775 0.0
C1038 C 0.51206 0.18367 0.13852 0.0
C1039 C 0.51374 0.16487 0.12957 0.0
C1040 C 0.49723 0.15561 0.12025 0.0
C1041 C 0.47918 0.16525 0.11996 0.0
C1042 C 0.47842 0.184 0.12903 0.0
H1043 H 0.52475 0.19064 0.14581 0.0
O1044 O 0.52096 0.24379 0.11056 0.0
O1045 O 0.49536 0.23313 0.12773 0.0
O1046 O 0.52731 0.24846 0.15261 0.0
O1047 O 0.51316 0.22034 0.16361 0.0
C1048 C 0.46194 0.15704 0.11091 0.0
C1049 C 0.44448 0.16791 0.11055 0.0
H1050 H 0.41381 0.19345 0.11241 0.0
H1051 H 0.41553 0.22664 0.12884 0.0
H1052 H 0.52772 0.15752 0.12989 0.0
H1053 H 0.4986 0.14114 0.11331 0.0
H1054 H 0.46203 0.14247 0.10396 0.0
H1055 H 0.43141 0.16157 0.10325 0.0
H1056 H 0.18811 0.78971 0.88933 0.0
H1057 H 0.23772 0.75616 0.90904 0.0
H1058 H 0.1943 0.81374 0.91617 0.0
H1059 H 0.24338 0.77972 0.93626 0.0
H1060 H 0.26307 0.83949 0.96464 0.0
H1061 H 0.25554 0.81374 0.93981 0.0
H1062 H 0.19336 0.8179 0.95239 0.0
H1063 H 0.2011 0.84404 0.97718 0.0
C1064 C 0.20026 0.78739 0.89944 0.0
C1065 C 0.21246 0.77103 0.89696 0.0
C1066 C 0.20366 0.80104 0.91495 0.0
C1067 C 0.21935 0.79866 0.92833 0.0
C1068 C 0.23129 0.7821 0.92609 0.0
C1069 C 0.2279 0.76846 0.9106 0.0
C1070 C 0.24779 0.83494 0.96197 0.0
C1071 C 0.23257 0.84411 0.97221 0.0
C1072 C 0.24348 0.82002 0.94796 0.0
C1073 C 0.22383 0.81383 0.94403 0.0
C1074 C 0.20862 0.82257 0.95486 0.0
C1075 C 0.213 0.83744 0.96905 0.0
H1076 H 0.02532 0.54923 0.3699 0.0
H1077 H 0.04774 0.49483 0.3929 0.0
H1078 H 0.04417 0.54467 0.34025 0.0
H1079 H 0.06531 0.48928 0.36221 0.0
H1080 H 0.11337 0.49965 0.31474 0.0
H1081 H 0.09271 0.49969 0.34409 0.0
H1082 H 0.04656 0.52755 0.31091 0.0
H1083 H 0.06785 0.52867 0.28223 0.0
C1084 C 0.03422 0.53621 0.36867 0.0
C1085 C 0.03511 0.52257 0.38408 0.0
C1086 C 0.04478 0.53334 0.35133 0.0
C1087 C 0.05625 0.51647 0.34856 0.0
C1088 C 0.05685 0.50257 0.36379 0.0
C1089 C 0.04651 0.50563 0.38136 0.0
C1090 C 0.09865 0.50542 0.31374 0.0
C1091 C 0.0922 0.51426 0.29633 0.0
C1092 C 0.08674 0.50545 0.33055 0.0
C1093 C 0.06799 0.514 0.33013 0.0
C1094 C 0.06111 0.52147 0.31213 0.0
C1095 C 0.07319 0.52189 0.29556 0.0
H1096 H 0.78381 0.72745 0.86889 0.0
H1097 H 0.81851 0.76036 0.9128 0.0
H1098 H 0.77426 0.7033 0.89355 0.0
H1099 H 0.80894 0.73596 0.93761 0.0
H1100 H 0.79591 0.67668 0.97218 0.0
H1101 H 0.81024 0.6993 0.94773 0.0
H1102 H 0.75232 0.70667 0.92233 0.0
H1103 H 0.73814 0.68444 0.94619 0.0
C1104 C 0.78944 0.72952 0.88381 0.0
C1105 C 0.80162 0.74604 0.88894 0.0
C1106 C 0.78401 0.71564 0.89794 0.0
C1107 C 0.79061 0.71788 0.9176 0.0
C1108 C 0.80367 0.7338 0.92257 0.0
C1109 C 0.80912 0.74777 0.90836 0.0
C1110 C 0.78628 0.68318 0.96139 0.0
C1111 C 0.76586 0.67861 0.96121 0.0
C1112 C 0.79447 0.69615 0.94744 0.0
C1113 C 0.78243 0.70454 0.93294 0.0
C1114 C 0.76207 0.70016 0.93302 0.0
C1115 C 0.75392 0.68745 0.94691 0.0
H1116 H 0.99362 0.96442 0.37394 0.0
H1117 H 0.9707 0.01767 0.39991 0.0
H1118 H 0.97406 0.96924 0.34429 0.0
H1119 H 0.95185 0.02339 0.36971 0.0
H1120 H 0.90395 0.01463 0.32096 0.0
H1121 H 0.9247 0.01343 0.35056 0.0
H1122 H 0.97078 0.98697 0.31603 0.0
H1123 H 0.94939 0.98697 0.28701 0.0
C1124 C 0.98456 0.97736 0.37312 0.0
C1125 C 0.98366 0.99067 0.38917 0.0
C1126 C 0.97344 0.98029 0.35602 0.0
C1127 C 0.96141 0.99689 0.3543 0.0
C1128 C 0.96066 0.0103 0.37045 0.0
C1129 C 0.97152 0.00711 0.38775 0.0
C1130 C 0.91868 0.00892 0.31975 0.0
C1131 C 0.92509 1.00084 0.30179 0.0
C1132 C 0.93063 0.0082 0.33671 0.0
C1133 C 0.94942 0.99974 0.33594 0.0
C1134 C 0.95622 0.99296 0.31751 0.0
C1135 C 0.94408 0.99321 0.30075 0.0
H1136 H 0.247 0.2537 0.61759 0.0
H1137 H 0.19202 0.2232 0.63147 0.0
H1138 H 0.25174 0.23056 0.59017 0.0
H1139 H 0.19661 0.20037 0.60371 0.0
H1140 H 0.2014 0.17941 0.53871 0.0
H1141 H 0.1971 0.20166 0.56693 0.0
H1142 H 0.25802 0.19464 0.58394 0.0
H1143 H 0.26245 0.17239 0.55565 0.0
C1144 C 0.23601 0.24196 0.61496 0.0
C1145 C 0.21911 0.24037 0.62683 0.0
C1146 C 0.23872 0.22872 0.59918 0.0
C1147 C 0.22454 0.21366 0.59476 0.0
C1148 C 0.20768 0.212 0.6066 0.0
C1149 C 0.20503 0.22513 0.62248 0.0
C1150 C 0.21392 0.18257 0.54843 0.0
C1151 C 0.2323 0.17408 0.54484 0.0
C1152 C 0.21139 0.19525 0.56469 0.0
C1153 C 0.2272 0.1999 0.57767 0.0
C1154 C 0.24559 0.19147 0.5741 0.0
C1155 C 0.24809 0.17863 0.55794 0.0
H1156 H 0.4597 0.52004 0.61362 0.0
H1157 H 0.50898 0.53227 0.6532 0.0
H1158 H 0.43853 0.5127 0.6419 0.0
H1159 H 0.48791 0.52442 0.68147 0.0
H1160 H 0.44587 0.48288 0.7202 0.0
H1161 H 0.46751 0.49087 0.69248 0.0
H1162 H 0.42699 0.53494 0.67334 0.0
H1163 H 0.40558 0.52739 0.70126 0.0
C1164 C 0.46597 0.52105 0.62838 0.0
C1165 C 0.48591 0.52673 0.6313 0.0
C1166 C 0.45389 0.51694 0.64451 0.0
C1167 C 0.46165 0.51799 0.6638 0.0
C1168 C 0.48164 0.52344 0.66672 0.0
C1169 C 0.49362 0.528 0.65061 0.0
C1170 C 0.44163 0.49432 0.71012 0.0
C1171 C 0.42405 0.50454 0.71294 0.0
C1172 C 0.45403 0.49892 0.69434 0.0
C1173 C 0.44884 0.51348 0.68083 0.0
C1174 C 0.43124 0.5236 0.68354 0.0
C1175 C 0.41908 0.51934 0.69956 0.0
H1176 H 0.77842 0.25981 0.60722 0.0
H1177 H 0.81599 0.30248 0.63922 0.0
H1178 H 0.7736 0.28385 0.58141 0.0
H1179 H 0.81018 0.32681 0.61371 0.0
H1180 H 0.76971 0.36803 0.57458 0.0
H1181 H 0.77887 0.34495 0.60039 0.0
H1182 H 0.79573 0.30242 0.55583 0.0
H1183 H 0.78691 0.32552 0.53004 0.0
C1184 C 0.78583 0.27419 0.60875 0.0
C1185 C 0.79769 0.27905 0.62541 0.0
C1186 C 0.78295 0.28801 0.59395 0.0
C1187 C 0.79156 0.30715 0.59556 0.0
C1188 C 0.80328 0.31217 0.61219 0.0
C1189 C 0.80647 0.29823 0.62686 0.0
C1190 C 0.77566 0.35387 0.57031 0.0
C1191 C 0.77755 0.34857 0.55029 0.0
C1192 C 0.78094 0.34071 0.58507 0.0
C1193 C 0.78786 0.32187 0.58006 0.0
C1194 C 0.79027 0.31679 0.56006 0.0
C1195 C 0.78534 0.33007 0.54533 0.0
H1196 H 0.55955 0.99878 0.61166 0.0
H1197 H 0.50931 0.98563 0.64868 0.0
H1198 H 0.58021 1.00395 0.641 0.0
H1199 H 0.52994 0.99202 0.67792 0.0
H1200 H 0.57097 0.03243 0.72041 0.0
H1201 H 0.54967 0.02419 0.69193 0.0
H1202 H 0.59176 0.98199 0.6713 0.0
H1203 H 0.61297 0.98987 0.70004 0.0
C1204 C 0.55286 0.9968 0.62595 0.0
C1205 C 0.53263 0.99171 0.62762 0.0
C1206 C 0.56475 0.99988 0.64277 0.0
C1207 C 0.55665 0.99837 0.66168 0.0
C1208 C 0.5365 0.99341 0.66348 0.0
C1209 C 0.52467 0.98992 0.64667 0.0
C1210 C 0.57562 0.02127 0.70988 0.0
C1211 C 0.59365 0.01179 0.71247 0.0
C1212 C 0.56339 0.01652 0.69365 0.0
C1213 C 0.56912 1.0025 0.67945 0.0
C1214 C 0.58707 0.99291 0.68204 0.0
C1215 C 0.59912 0.99734 0.69852 0.0
H1216 H 0.90393 0.24552 0.75709 0.0
H1217 H 0.88283 0.19513 0.79009 0.0
H1218 H 0.93108 0.25075 0.78057 0.0
H1219 H 0.90992 0.20052 0.81382 0.0
H1220 H 0.97161 0.20598 0.84282 0.0
H1221 H 0.94591 0.19914 0.81761 0.0
H1222 H 0.93577 0.26195 0.81417 0.0
H1223 H 0.96157 0.26857 0.83889 0.0
C1224 C 0.90503 0.23563 0.76945 0.0
C1225 C 0.89117 0.21997 0.77178 0.0
C1226 C 0.92059 0.23863 0.78292 0.0
C1227 C 0.92265 0.2261 0.79913 0.0
C1228 C 0.90893 0.21027 0.80134 0.0
C1229 C 0.89339 0.20721 0.78778 0.0
C1230 C 0.96379 0.21821 0.83658 0.0
C1231 C 0.96798 0.2377 0.84314 0.0
C1232 C 0.94907 0.21434 0.82226 0.0
C1233 C 0.93867 0.22999 0.81396 0.0
C1234 C 0.94355 0.24955 0.8201 0.0
C1235 C 0.95812 0.25335 0.83444 0.0
H1236 H 0.46263 0.89456 0.45827 0.0
H1237 H 0.51416 0.88061 0.49287 0.0
H1238 H 0.46598 0.86402 0.43915 0.0
H1239 H 0.51774 0.85016 0.4732 0.0
H1240 H 0.52351 0.80628 0.41743 0.0
H1241 H 0.52372 0.83739 0.43685 0.0
H1242 H 0.4618 0.82802 0.449 0.0
H1243 H 0.46143 0.79733 0.43003 0.0
C1244 C 0.47467 0.885 0.46184 0.0
C1245 C 0.48792 0.88996 0.47737 0.0
C1246 C 0.47664 0.86754 0.45079 0.0
C1247 C 0.49201 0.85462 0.45482 0.0
C1248 C 0.50581 0.8599 0.46972 0.0
C1249 C 0.50375 0.87736 0.48095 0.0
C1250 C 0.51001 0.81078 0.42442 0.0
C1251 C 0.49245 0.79927 0.42199 0.0
C1252 C 0.51015 0.82856 0.43553 0.0
C1253 C 0.49269 0.83524 0.44417 0.0
C1254 C 0.47538 0.82344 0.44222 0.0
C1255 C 0.47526 0.80572 0.43138 0.0
H1256 H 0.14742 0.29449 0.80071 0.0
H1257 H 0.1028 0.3056 0.75658 0.0
H1258 H 0.12193 0.28954 0.82511 0.0
H1259 H 0.07719 0.29901 0.78065 0.0
H1260 H 0.03456 0.30067 0.83162 0.0
H1261 H 0.06088 0.31033 0.80904 0.0
H1262 H 0.09806 0.26601 0.83407 0.0
H1263 H 0.07221 0.25715 0.85708 0.0
C1264 C 0.13219 0.29596 0.79615 0.0
C1265 C 0.1273 0.30046 0.77654 0.0
C1266 C 0.11747 0.29278 0.81015 0.0
C1267 C 0.09738 0.29368 0.80492 0.0
C1268 C 0.09246 0.2984 0.78537 0.0
C1269 C 0.10721 0.30185 0.77141 0.0
C1270 C 0.04847 0.29322 0.83243 0.0
C1271 C 0.05131 0.27818 0.84616 0.0
C1272 C 0.06353 0.29861 0.81936 0.0
C1273 C 0.08167 0.28892 0.81958 0.0
C1274 C 0.08451 0.27411 0.83361 0.0
C1275 C 0.06959 0.26892 0.84679 0.0
H1276 H 0.50236 0.61313 0.46848 0.0
H1277 H 0.54388 0.652 0.50009 0.0
H1278 H 0.49365 0.64038 0.44707 0.0
H1279 H 0.53506 0.67932 0.47873 0.0
H1280 H 0.53016 0.71481 0.42077 0.0
H1281 H 0.53868 0.68808 0.44282 0.0
H1282 H 0.47682 0.67312 0.44994 0.0
H1283 H 0.4682 0.69985 0.42793 0.0
C1284 C 0.50966 0.62749 0.47081 0.0
C1285 C 0.52383 0.63042 0.48594 0.0
C1286 C 0.50455 0.64312 0.45866 0.0
C1287 C 0.51366 0.66199 0.46123 0.0
C1288 C 0.52788 0.66491 0.47632 0.0
C1289 C 0.53282 0.64933 0.48863 0.0
C1290 C 0.51835 0.70586 0.42704 0.0
C1291 C 0.49848 0.7095 0.42253 0.0
C1292 C 0.52325 0.69061 0.43977 0.0
C1293 C 0.50843 0.67849 0.44809 0.0
C1294 C 0.48857 0.68211 0.44361 0.0
C1295 C 0.48365 0.69751 0.43108 0.0
H1296 H 0.8947 0.82963 0.72913 0.0
H1297 H 0.91138 0.78367 0.76912 0.0
H1298 H 0.91872 0.81781 0.70525 0.0
H1299 H 0.93579 0.77253 0.74575 0.0
H1300 H 0.95331 0.73998 0.68986 0.0
H1301 H 0.9325 0.75509 0.71423 0.0
H1302 H 0.95464 0.81317 0.69807 0.0
H1303 H 0.97567 0.79791 0.67307 0.0
C1304 C 0.9036 0.81716 0.73293 0.0
C1305 C 0.90093 0.80752 0.75103 0.0
C1306 C 0.91752 0.81054 0.71933 0.0
C1307 C 0.92903 0.7941 0.7235 0.0
C1308 C 0.92695 0.78505 0.74193 0.0
C1309 C 0.91308 0.79162 0.75547 0.0
C1310 C 0.95393 0.75599 0.69139 0.0
C1311 C 0.96633 0.76769 0.67943 0.0
C1312 C 0.94201 0.76466 0.70556 0.0
C1313 C 0.94205 0.78532 0.70829 0.0
C1314 C 0.95427 0.79718 0.69629 0.0
C1315 C 0.96637 0.78844 0.68204 0.0
H1316 H 0.99258 0.9001 0.55171 0.0
H1317 H 0.04428 0.8721 0.52842 0.0
H1318 H 0.98694 0.87191 0.57338 0.0
H1319 H 0.03909 0.84469 0.5508 0.0
H1320 H 0.03726 0.81534 0.61188 0.0
H1321 H 0.03991 0.84361 0.59005 0.0
H1322 H 0.98022 0.83191 0.56942 0.0
H1323 H 0.9776 0.80314 0.59108 0.0
C1324 C 1.00266 0.88796 0.55102 0.0
C1325 C 0.01906 0.88863 0.53837 0.0
C1326 C 0.99944 0.87187 0.56353 0.0
C1327 C 0.01271 0.85628 0.56389 0.0
C1328 C 0.02881 0.8567 0.55103 0.0
C1329 C 0.03184 0.87253 0.5383 0.0
C1330 C 0.0246 0.81884 0.60285 0.0
C1331 C 0.00723 0.80695 0.60317 0.0
C1332 C 0.02618 0.83498 0.59028 0.0
C1333 C 0.01032 0.83984 0.57799 0.0
C1334 C 0.99264 0.82846 0.5788 0.0
C1335 C 0.99117 0.81202 0.59115 0.0
H1336 H 0.1078 0.73128 0.76281 0.0
H1337 H 0.14023 0.70331 0.716 0.0
H1338 H 0.07976 0.73523 0.74024 0.0
H1339 H 0.1123 0.70767 0.69327 0.0
H1340 H 0.06597 0.74477 0.65725 0.0
H1341 H 0.09412 0.73979 0.67939 0.0
H1342 H 0.05568 0.70958 0.72019 0.0
H1343 H 0.02758 0.71411 0.69793 0.0
C1344 C 0.10892 0.72608 0.74766 0.0
C1345 C 0.12612 0.71701 0.74109 0.0
C1346 C 0.09289 0.72824 0.73482 0.0
C1347 C 0.09393 0.72175 0.71507 0.0
C1348 C 0.1112 0.71285 0.70843 0.0
C1349 C 0.12709 0.71029 0.7214 0.0
C1350 C 0.06353 0.73705 0.67093 0.0
C1351 C 0.04455 0.72986 0.67587 0.0
C1352 C 0.07964 0.73412 0.68351 0.0
C1353 C 0.077 0.72433 0.70145 0.0
C1354 C 0.05805 0.71724 0.70646 0.0
C1355 C 0.04202 0.71978 0.69369 0.0
H1356 H 0.96551 0.62678 0.54561 0.0
H1357 H 0.02362 0.63743 0.52178 0.0
H1358 H 0.96957 0.65618 0.56654 0.0
H1359 H 0.02776 0.66711 0.54274 0.0
H1360 H 0.03694 0.70523 0.59934 0.0
H1361 H 0.03303 0.67724 0.57604 0.0
H1362 H 0.97149 0.69081 0.56804 0.0
H1363 H 0.97546 0.71814 0.59194 0.0
C1364 C 0.97924 0.63538 0.54496 0.0
C1365 C 0.99432 0.62967 0.53219 0.0
C1366 C 0.98155 0.65237 0.55692 0.0
C1367 C 0.99915 0.66397 0.55667 0.0
C1368 C 0.01416 0.65837 0.54366 0.0
C1369 C 0.01173 0.64146 0.53149 0.0
C1370 C 0.02262 0.70207 0.59257 0.0
C1371 C 0.00633 0.71325 0.59786 0.0
C1372 C 0.02037 0.68619 0.57909 0.0
C1373 C 1.00187 0.68155 0.57022 0.0
C1374 C 0.98583 0.69353 0.5749 0.0
C1375 C 0.98806 0.70921 0.58856 0.0
H1376 H 0.75983 0.91358 0.19655 0.0
H1377 H 0.78796 0.87653 0.2391 0.0
H1378 H 0.7843 0.94016 0.20385 0.0
H1379 H 0.81229 0.90289 0.2464 0.0
H1380 H 0.84061 0.96055 0.26943 0.0
H1381 H 0.81534 0.93502 0.26183 0.0
H1382 H 0.81915 0.9489 0.19993 0.0
H1383 H 0.84429 0.9748 0.20782 0.0
C1384 C 0.77126 0.91114 0.20744 0.0
C1385 C 0.77207 0.89295 0.21718 0.0
C1386 C 0.78537 0.92628 0.21151 0.0
C1387 C 0.80041 0.92363 0.2256 0.0
C1388 C 0.80102 0.90547 0.23543 0.0
C1389 C 0.78712 0.89029 0.23118 0.0
C1390 C 0.83615 0.95795 0.25419 0.0
C1391 C 0.84479 0.96907 0.2391 0.0
C1392 C 0.82166 0.94336 0.24981 0.0
C1393 C 0.81536 0.9397 0.23022 0.0
C1394 C 0.8236 0.95137 0.21518 0.0
C1395 C 0.83805 0.96608 0.21962 0.0
H1396 H 0.75789 0.10172 0.30589 0.0
H1397 H 0.80215 0.14762 0.29517 0.0
H1398 H 0.7822 0.07661 0.29982 0.0
H1399 H 0.82675 0.12261 0.29074 0.0
H1400 H 0.85953 0.07356 0.2592 0.0
H1401 H 0.83638 0.099 0.26766 0.0
H1402 H 0.81035 0.06076 0.31151 0.0
H1403 H 0.83309 0.03484 0.30225 0.0
C1404 C 0.7728 0.10652 0.30233 0.0
C1405 C 0.7779 0.12681 0.3009 0.0
C1406 C 0.78689 0.09205 0.29919 0.0
C1407 C 0.80655 0.09746 0.29473 0.0
C1408 C 0.81174 0.11777 0.29379 0.0
C1409 C 0.79761 0.13221 0.29666 0.0
C1410 C 0.849 0.07062 0.27079 0.0
C1411 C 0.84814 0.05214 0.28002 0.0
C1412 C 0.83573 0.08531 0.27575 0.0
C1413 C 0.82136 0.08205 0.2903 0.0
C1414 C 0.82092 0.06373 0.29998 0.0
C1415 C 0.83409 0.04891 0.29482 0.0
H1416 H 0.37305 0.99153 0.96237 0.0
H1417 H 0.39486 0.97135 0.01849 0.0
H1418 H 0.34288 0.97227 0.96667 0.0
H1419 H 0.3637 0.95365 0.02374 0.0
H1420 H 0.31453 0.90535 0.01603 0.0
H1421 H 0.34473 0.92587 0.01478 0.0
H1422 H 0.31329 0.97004 0.98246 0.0
H1423 H 0.2837 0.94877 0.98258 0.0
C1424 C 0.37147 0.98304 0.9757 0.0
C1425 C 0.38668 0.98298 0.98996 0.0
C1426 C 0.35383 0.97226 0.9784 0.0
C1427 C 0.35055 0.9614 0.99568 0.0
C1428 C 0.36564 0.96157 0.01012 0.0
C1429 C 0.38349 0.97206 0.00723 0.0
C1430 C 0.31411 0.91961 0.00894 0.0
C1431 C 0.29687 0.92546 0.99931 0.0
C1432 C 0.33142 0.93144 0.00823 0.0
C1433 C 0.33172 0.94961 0.99821 0.0
C1434 C 0.31397 0.95592 0.98971 0.0
C1435 C 0.29688 0.94386 0.98999 0.0
H1436 H 0.22669 0.39073 0.32451 0.0
H1437 H 0.24911 0.39639 0.26543 0.0
H1438 H 0.20218 0.41589 0.31762 0.0
H1439 H 0.22438 0.42116 0.25842 0.0
H1440 H 0.16133 0.44478 0.24847 0.0
H1441 H 0.18484 0.41948 0.25714 0.0
H1442 H 0.20427 0.45475 0.30774 0.0
H1443 H 0.18102 0.48042 0.29883 0.0
C1444 C 0.22631 0.39734 0.31007 0.0
C1445 C 0.23977 0.39168 0.2955 0.0
C1446 C 0.21239 0.41174 0.30617 0.0
C1447 C 0.21139 0.42037 0.28748 0.0
C1448 C 0.22479 0.41463 0.27291 0.0
C1449 C 0.23897 0.40058 0.27694 0.0
C1450 C 0.17047 0.44709 0.26155 0.0
C1451 C 0.16936 0.46461 0.27296 0.0
C1452 C 0.18398 0.43265 0.26643 0.0
C1453 C 0.19639 0.43525 0.28303 0.0
C1454 C 0.19481 0.45241 0.29488 0.0
C1455 C 0.18156 0.46707 0.28977 0.0
H1456 H 0.14883 0.01365 0.47653 0.0
H1457 H 0.11771 0.05167 0.51678 0.0
H1458 H 0.17896 0.03361 0.48215 0.0
H1459 H 0.14783 0.07161 0.52246 0.0
H1460 H 0.20853 0.09657 0.53944 0.0
H1461 H 0.18065 0.07264 0.53654 0.0
H1462 H 0.19204 0.0656 0.47418 0.0
H1463 H 0.21997 0.08908 0.47737 0.0
C1464 C 0.14838 0.02633 0.48651 0.0
C1465 C 0.13079 0.03112 0.4961 0.0
C1466 C 0.16568 0.03778 0.48976 0.0
C1467 C 0.16585 0.05433 0.50268 0.0
C1468 C 0.14835 0.05886 0.51258 0.0
C1469 C 0.13104 0.04742 0.50932 0.0
C1470 C 0.20503 0.08973 0.5252 0.0
C1471 C 0.21578 0.09511 0.50847 0.0
C1472 C 0.18906 0.07613 0.52349 0.0
C1473 C 0.18388 0.06737 0.50506 0.0
C1474 C 0.19558 0.07192 0.48862 0.0
C1475 C 0.21141 0.08558 0.49035 0.0
H1476 H 0.75271 0.10551 0.6947 0.0
H1477 H 0.72373 0.14386 0.73625 0.0
H1478 H 0.72902 0.07864 0.70206 0.0
H1479 H 0.70016 0.11714 0.74363 0.0
H1480 H 0.67041 0.0421 0.70627 0.0
H1481 H 0.69396 0.06891 0.69797 0.0
H1482 H 0.69925 0.08531 0.75976 0.0
H1483 H 0.67567 0.0587 0.76782 0.0
C1484 C 0.74124 0.10818 0.70537 0.0
C1485 C 0.74001 0.12679 0.71485 0.0
C1486 C 0.72759 0.09287 0.70947 0.0
C1487 C 0.71258 0.09577 0.72334 0.0
C1488 C 0.71146 0.11438 0.73284 0.0
C1489 C 0.72491 0.12974 0.72854 0.0
C1490 C 0.67659 0.05158 0.71797 0.0
C1491 C 0.67077 0.04891 0.73756 0.0
C1492 C 0.69013 0.06682 0.71328 0.0
C1493 C 0.69835 0.0794 0.72818 0.0
C1494 C 0.6929 0.07621 0.74787 0.0
C1495 C 0.67937 0.06103 0.7525 0.0
H1496 H 0.36856 0.01801 0.52846 0.0
H1497 H 0.40873 0.06354 0.50739 0.0
H1498 H 0.34064 0.03927 0.52189 0.0
H1499 H 0.38079 0.08495 0.50108 0.0
H1500 H 0.32615 0.12271 0.52138 0.0
H1501 H 0.35499 0.10189 0.52404 0.0
H1502 H 0.32394 0.05517 0.49115 0.0
H1503 H 0.29517 0.07611 0.48814 0.0
C1504 C 0.37139 0.03257 0.52243 0.0
C1505 C 0.39079 0.03916 0.51846 0.0
C1506 C 0.35543 0.04466 0.51854 0.0
C1507 C 0.35857 0.06373 0.51095 0.0
C1508 C 0.37797 0.07033 0.50697 0.0
C1509 C 0.39391 0.05807 0.5105 0.0
C1510 C 0.32557 0.10809 0.51449 0.0
C1511 C 0.30839 0.10104 0.50455 0.0
C1512 C 0.3421 0.09622 0.51597 0.0
C1513 C 0.34165 0.0769 0.50788 0.0
C1514 C 0.32462 0.06997 0.49762 0.0
C1515 C 0.30822 0.08199 0.4958 0.0
H1516 H 0.61341 0.46917 0.5 0.0
H1517 H 0.64782 0.49744 0.54716 0.0
H1518 H 0.64111 0.44831 0.49206 0.0
H1519 H 0.67537 0.47629 0.53939 0.0
H1520 H 0.71173 0.41969 0.53239 0.0
H1521 H 0.68426 0.44087 0.54051 0.0
H1522 H 0.67482 0.45162 0.47857 0.0
H1523 H 0.70211 0.43038 0.47037 0.0
C1524 C 0.62691 0.47107 0.50859 0.0
C1525 C 0.62833 0.48506 0.52422 0.0
C1526 C 0.64278 0.45906 0.50405 0.0
C1527 C 0.66045 0.46065 0.51509 0.0
C1528 C 0.66187 0.47453 0.53077 0.0
C1529 C 0.64604 0.48663 0.53524 0.0
C1530 C 0.70383 0.42657 0.52048 0.0
C1531 C 0.70918 0.42327 0.50071 0.0
C1532 C 0.68814 0.4388 0.52516 0.0
C1533 C 0.67733 0.4479 0.51018 0.0
C1534 C 0.6827 0.44465 0.49044 0.0
C1535 C 0.69846 0.43256 0.48576 0.0
H1536 H 0.7385 0.2554 0.40804 0.0
H1537 H 0.6897 0.28951 0.38734 0.0
H1538 H 0.74402 0.27901 0.43526 0.0
H1539 H 0.69567 0.31352 0.41429 0.0
H1540 H 0.70204 0.34356 0.47573 0.0
H1541 H 0.69429 0.31743 0.45088 0.0
H1542 H 0.75647 0.31321 0.43837 0.0
H1543 H 0.764 0.339 0.46316 0.0
C1544 C 0.72882 0.26783 0.40939 0.0
C1545 C 0.71366 0.27056 0.39549 0.0
C1546 C 0.73212 0.28148 0.42488 0.0
C1547 C 0.72033 0.29818 0.42689 0.0
C1548 C 0.7049 0.30072 0.41324 0.0
C1549 C 0.70163 0.28708 0.39768 0.0
C1550 C 0.71394 0.33693 0.46761 0.0
C1551 C 0.73351 0.3436 0.47077 0.0
C1552 C 0.70955 0.32208 0.4534 0.0
C1553 C 0.72476 0.31334 0.44258 0.0
C1554 C 0.74442 0.31951 0.44652 0.0
C1555 C 0.74873 0.33443 0.46051 0.0
H1556 H 0.52608 0.04733 0.8737 0.0
H1557 H 0.55002 0.99409 0.89773 0.0
H1558 H 0.54533 0.04295 0.84427 0.0
H1559 H 0.56817 0.98874 0.8673 0.0
H1560 H 0.6162 1.00035 0.81973 0.0
H1561 H 0.59551 1.00014 0.84912 0.0
H1562 H 0.54807 0.02502 0.81528 0.0
H1563 H 0.56926 0.02637 0.78655 0.0
C1564 C 0.53542 0.03461 0.87274 0.0
C1565 C 0.53659 0.02123 0.88835 0.0
C1566 C 0.54623 0.03184 0.85554 0.0
C1567 C 0.55828 0.01534 0.85315 0.0
C1568 C 0.55923 1.00172 0.86861 0.0
C1569 C 0.54858 0.00466 0.88601 0.0
C1570 C 0.60121 0.00542 0.81862 0.0
C1571 C 0.59433 0.01351 0.801 0.0
C1572 C 0.5893 0.0053 0.83544 0.0
C1573 C 0.57016 0.01296 0.83481 0.0
C1574 C 0.56292 0.01966 0.81663 0.0
C1575 C 0.57495 0.02021 0.80005 0.0
H1576 H 0.26281 0.25368 0.39282 0.0
H1577 H 0.32287 0.23385 0.39091 0.0
H1578 H 0.25553 0.23061 0.41874 0.0
H1579 H 0.316 0.21186 0.41829 0.0
H1580 H 0.28921 0.1583 0.45221 0.0
H1581 H 0.2999 0.1822 0.42743 0.0
H1582 H 0.25981 0.22477 0.45176 0.0
H1583 H 0.2484 0.20041 0.4754 0.0
C1584 C 0.27454 0.24443 0.39791 0.0
C1585 C 0.29342 0.24563 0.38949 0.0
C1586 C 0.27045 0.2314 0.4132 0.0
C1587 C 0.2852 0.21939 0.42094 0.0
C1588 C 0.30418 0.2207 0.41268 0.0
C1589 C 0.3082 0.23357 0.39711 0.0
C1590 C 0.28298 0.1729 0.45233 0.0
C1591 C 0.26791 0.17753 0.46554 0.0
C1592 C 0.28909 0.18665 0.43816 0.0
C1593 C 0.28047 0.20541 0.43723 0.0
C1594 C 0.26633 0.21031 0.45146 0.0
C1595 C 0.25993 0.19645 0.46521 0.0
H1596 H 0.45441 0.48068 0.90046 0.0
H1597 H 0.50609 0.50725 0.87331 0.0
H1598 H 0.43493 0.48791 0.87119 0.0
H1599 H 0.48666 0.51324 0.84366 0.0
H1600 H 0.44774 0.48637 0.78907 0.0
H1601 H 0.46826 0.48661 0.81895 0.0
H1602 H 0.4245 0.52007 0.84982 0.0
H1603 H 0.40413 0.52037 0.8196 0.0
C1604 C 0.46164 0.48827 0.88847 0.0
C1605 C 0.482 0.49322 0.88939 0.0
C1606 C 0.45042 0.49235 0.87165 0.0
C1607 C 0.45931 0.50112 0.85522 0.0
C1608 C 0.47949 0.50636 0.85613 0.0
C1609 C 0.49064 0.50269 0.87309 0.0
C1610 C 0.44273 0.49418 0.80211 0.0
C1611 C 0.42443 0.50344 0.80204 0.0
C1612 C 0.45446 0.49432 0.81917 0.0
C1613 C 0.4479 0.50329 0.83666 0.0
C1614 C 0.42984 0.51304 0.83649 0.0
C1615 C 0.4183 0.51335 0.81922 0.0
H1616 H 0.73097 0.72133 0.14095 0.0
H1617 H 0.69505 0.758 0.1044 0.0
H1618 H 0.73601 0.69896 0.11292 0.0
H1619 H 0.70045 0.73598 0.07622 0.0
H1620 H 0.69818 0.68262 0.03429 0.0
H1621 H 0.69251 0.70414 0.06269 0.0
H1622 H 0.75263 0.69657 0.08239 0.0
H1623 H 0.75808 0.67445 0.05435 0.0
C1624 C 0.72426 0.72467 0.12687 0.0
C1625 C 0.71259 0.74141 0.1249 0.0
C1626 C 0.72721 0.71189 0.11075 0.0
C1627 C 0.7187 0.71563 0.09221 0.0
C1628 C 0.70697 0.73239 0.0903 0.0
C1629 C 0.70389 0.74506 0.10646 0.0
C1630 C 0.71022 0.68554 0.04466 0.0
C1631 C 0.7286 0.67675 0.04198 0.0
C1632 C 0.70699 0.698 0.06094 0.0
C1633 C 0.7221 0.70218 0.07491 0.0
C1634 C 0.74052 0.69346 0.07217 0.0
C1635 C 0.74369 0.68085 0.05597 0.0
H1636 H 1.00216 1.00179 0.14054 0.0
H1637 H 0.96147 0.04668 0.12363 0.0
H1638 H 0.9818 0.99393 0.16898 0.0
H1639 H 0.94087 0.03862 0.15185 0.0
H1640 H 0.91877 0.03298 0.21482 0.0
H1641 H 0.93979 0.04111 0.187 0.0
H1642 H 0.9509 0.97891 0.17778 0.0
H1643 H 0.93037 0.97082 0.20593 0.0
C1644 C 0.98875 0.00985 0.1428 0.0
C1645 C 0.98344 0.02486 0.12982 0.0
C1646 C 0.97704 0.00532 0.1591 0.0
C1647 C 0.95964 0.01562 0.16277 0.0
C1648 C 0.95433 0.03061 0.14972 0.0
C1649 C 0.96611 0.03521 0.1335 0.0
C1650 C 0.92572 0.02102 0.2069 0.0
C1651 C 0.92286 1.00123 0.2127 0.0
C1652 C 0.9377 0.02568 0.19083 0.0
C1653 C 0.94706 0.01068 0.18006 0.0
C1654 C 0.94421 0.9909 0.18588 0.0
C1655 C 0.93232 0.98624 0.20201 0.0
H1656 H 0.32854 0.78766 0.12202 0.0
H1657 H 0.26701 0.76923 0.12138 0.0
H1658 H 0.32147 0.8134 0.098 0.0
H1659 H 0.2599 0.79511 0.09767 0.0
H1660 H 0.2529 0.85814 0.07386 0.0
H1661 H 0.2621 0.83422 0.09873 0.0
H1662 H 0.30808 0.8131 0.06085 0.0
H1663 H 0.29867 0.83681 0.03569 0.0
C1664 C 0.31352 0.78919 0.11678 0.0
C1665 C 0.29831 0.77648 0.12348 0.0
C1666 C 0.30951 0.80382 0.10302 0.0
C1667 C 0.29015 0.80625 0.09609 0.0
C1668 C 0.27493 0.79363 0.10292 0.0
C1669 C 0.27901 0.77876 0.11634 0.0
C1670 C 0.26514 0.84858 0.07091 0.0
C1671 C 0.27503 0.84931 0.05279 0.0
C1672 C 0.2703 0.83482 0.0851 0.0
C1673 C 0.2857 0.82177 0.08162 0.0
C1674 C 0.29619 0.82306 0.06389 0.0
C1675 C 0.29078 0.83659 0.04951 0.0
H1676 H 0.01587 0.47647 0.14193 0.0
H1677 H 0.05062 0.51892 0.10906 0.0
H1678 H 0.03703 0.48299 0.17098 0.0
H1679 H 0.07173 0.52542 0.13805 0.0
H1680 H 0.08889 0.54785 0.20087 0.0
H1681 H 0.06763 0.5408 0.17226 0.0
H1682 H 0.07316 0.47801 0.18103 0.0
H1683 H 0.09464 0.48497 0.20969 0.0
C1684 C 0.02799 0.48724 0.14096 0.0
C1685 C 0.0316 0.4972 0.12325 0.0
C1686 C 0.04017 0.49085 0.15751 0.0
C1687 C 0.05602 0.50472 0.15677 0.0
C1688 C 0.05955 0.51475 0.13909 0.0
C1689 C 0.04755 0.51094 0.12247 0.0
C1690 C 0.0856 0.53252 0.19677 0.0
C1691 C 0.09355 0.51698 0.2076 0.0
C1692 C 0.07349 0.52851 0.18029 0.0
C1693 C 0.06878 0.50887 0.17439 0.0
C1694 C 0.07646 0.4933 0.18533 0.0
C1695 C 0.08884 0.4973 0.20167 0.0
H1696 H 0.41564 0.69187 0.25545 0.0
H1697 H 0.38037 0.73709 0.28235 0.0
H1698 H 0.44101 0.69769 0.28096 0.0
H1699 H 0.40562 0.74312 0.30735 0.0
H1700 H 0.46153 0.76421 0.33781 0.0
H1701 H 0.43752 0.75707 0.31157 0.0
H1702 H 0.4491 0.69456 0.31542 0.0
H1703 H 0.47386 0.70207 0.3414 0.0
C1704 C 0.41321 0.70292 0.26688 0.0
C1705 C 0.39604 0.71415 0.26671 0.0
C1706 C 0.42775 0.70625 0.28152 0.0
C1707 C 0.42545 0.72092 0.29627 0.0
C1708 C 0.40811 0.73187 0.29618 0.0
C1709 C 0.3936 0.72848 0.28171 0.0
C1710 C 0.45884 0.74894 0.33306 0.0
C1711 C 0.46901 0.7336 0.34194 0.0
C1712 C 0.44505 0.74481 0.31806 0.0
C1713 C 0.44105 0.72517 0.31155 0.0
C1714 C 0.45183 0.70985 0.32 0.0
C1715 C 0.46588 0.71408 0.33493 0.0
H1716 H 0.00615 0.37729 1.00093 0.0
H1717 H 0.97791 0.40158 0.9498 0.0
H1718 H 0.01168 0.3464 0.98233 0.0
H1719 H 0.98397 0.37094 0.93104 0.0
H1720 H 0.01692 0.31846 0.90092 0.0
H1721 H 0.01717 0.34955 0.92039 0.0
H1722 H 0.98333 0.32048 0.96568 0.0
H1723 H 0.98249 0.28969 0.946 0.0
C1724 C 1.0014 0.37608 0.98563 0.0
C1725 C 0.99157 0.39171 0.97676 0.0
C1726 C 0.00455 0.35848 0.97505 0.0
C1727 C 0.99836 0.35643 0.95527 0.0
C1728 C 0.98905 0.37228 0.94622 0.0
C1729 C 0.98547 0.3897 0.95695 0.0
C1730 C 0.00994 0.31865 0.91523 0.0
C1731 C 0.99974 0.30171 0.92202 0.0
C1732 C 0.00996 0.33642 0.92626 0.0
C1733 C 1.00024 0.33732 0.94447 0.0
C1734 C 0.99101 0.32009 0.95173 0.0
C1735 C 0.99053 0.30252 0.94049 0.0
H1736 H 0.59853 0.80605 0.25733 0.0
H1737 H 0.64424 0.79604 0.30066 0.0
H1738 H 0.57355 0.79931 0.28196 0.0
H1739 H 0.61936 0.79108 0.32563 0.0
H1740 H 0.57078 0.75831 0.35902 0.0
H1741 H 0.59617 0.7676 0.33569 0.0
H1742 H 0.55741 0.81034 0.3103 0.0
H1743 H 0.53155 0.80016 0.33316 0.0
C1744 C 0.60332 0.80252 0.2721 0.0
C1745 C 0.62354 0.80148 0.27682 0.0
C1746 C 0.58892 0.799 0.2864 0.0
C1747 C 0.5943 0.79459 0.30592 0.0
C1748 C 0.61453 0.79406 0.31074 0.0
C1749 C 0.6289 0.79727 0.29639 0.0
C1750 C 0.56773 0.76985 0.34861 0.0
C1751 C 0.54912 0.77846 0.34792 0.0
C1752 C 0.58239 0.77529 0.33522 0.0
C1753 C 0.57896 0.78974 0.32094 0.0
C1754 C 0.56052 0.79888 0.32077 0.0
C1755 C 0.54573 0.79321 0.33402 0.0
H1756 H 0.05209 0.13565 0.97407 0.0
H1757 H 0.99155 0.13182 0.99293 0.0
H1758 H 0.04444 0.16355 0.95326 0.0
H1759 H 0.98339 0.15894 0.97127 0.0
H1760 H 0.97762 0.2194 0.94402 0.0
H1761 H 0.98585 0.19264 0.96601 0.0
H1762 H 0.02937 0.17269 0.92438 0.0
H1763 H 0.02189 0.20016 0.90312 0.0
C1764 C 0.03707 0.1407 0.97354 0.0
C1765 C 0.02241 0.13164 0.98508 0.0
C1766 C 0.03259 0.15662 0.9615 0.0
C1767 C 0.01321 0.16361 0.96037 0.0
C1768 C 0.99855 0.15436 0.97194 0.0
C1769 C 1.00315 0.1387 0.98429 0.0
C1770 C 0.98898 0.2093 0.93964 0.0
C1771 C 0.99916 0.21197 0.92189 0.0
C1772 C 0.99364 0.19382 0.95219 0.0
C1773 C 0.00833 0.18033 0.94711 0.0
C1774 C 0.01831 0.18294 0.92915 0.0
C1775 C 0.01393 0.19866 0.91683 0.0
H1776 H 0.3739 0.29601 0.21938 0.0
H1777 H 0.41627 0.30921 0.26634 0.0
H1778 H 0.40084 0.28852 0.1972 0.0
H1779 H 0.44297 0.30031 0.24427 0.0
H1780 H 0.47213 0.24922 0.20336 0.0
H1781 H 0.44851 0.26381 0.22607 0.0
H1782 H 0.43476 0.30772 0.18293 0.0
H1783 H 0.45899 0.29349 0.16033 0.0
C1784 C 0.38887 0.29765 0.225 0.0
C1785 C 0.39272 0.30319 0.24485 0.0
C1786 C 0.4043 0.29325 0.21223 0.0
C1787 C 0.42391 0.29387 0.21907 0.0
C1788 C 0.42792 0.29967 0.2387 0.0
C1789 C 0.41254 0.30454 0.25138 0.0
C1790 C 0.46437 0.26225 0.1989 0.0
C1791 C 0.46739 0.27029 0.18015 0.0
C1792 C 0.45092 0.27059 0.21189 0.0
C1793 C 0.43986 0.28683 0.20618 0.0
C1794 C 0.44317 0.2952 0.18762 0.0
C1795 C 0.45706 0.28716 0.17479 0.0
H1796 H 0.53512 0.40405 0.06463 0.0
H1797 H 0.49831 0.37437 0.02039 0.0
H1798 H 0.52961 0.37652 0.08687 0.0
H1799 H 0.49354 0.34614 0.04213 0.0
H1800 H 0.47792 0.30287 0.09073 0.0
H1801 H 0.47961 0.33259 0.07063 0.0
H1802 H 0.53952 0.34442 0.09115 0.0
H1803 H 0.53734 0.31552 0.11183 0.0
C1804 C 0.52588 0.39152 0.05969 0.0
C1805 C 0.51722 0.39125 0.0408 0.0
C1806 C 0.52281 0.37563 0.07235 0.0
C1807 C 0.51135 0.35882 0.0663 0.0
C1808 C 0.50227 0.35884 0.04749 0.0
C1809 C 0.50506 0.37496 0.03495 0.0
C1810 C 0.49135 0.31198 0.09103 0.0
C1811 C 0.50745 0.3069 0.10294 0.0
C1812 C 0.4924 0.32896 0.07939 0.0
C1813 C 0.5097 0.34109 0.0792 0.0
C1814 C 0.52575 0.33586 0.09117 0.0
C1815 C 0.52458 0.31913 0.10298 0.0
H1816 H 0.60674 0.19688 0.257 0.0
H1817 H 0.64356 0.23444 0.22082 0.0
H1818 H 0.57876 0.20197 0.23503 0.0
H1819 H 0.61575 0.23913 0.19841 0.0
H1820 H 0.55703 0.25995 0.17384 0.0
H1821 H 0.58514 0.25493 0.19565 0.0
H1822 H 0.56565 0.19403 0.20346 0.0
H1823 H 0.53718 0.19928 0.18233 0.0
C1824 C 0.6089 0.20602 0.24417 0.0
C1825 C 0.62734 0.21524 0.24063 0.0
C1826 C 0.59286 0.20891 0.23151 0.0
C1827 C 0.59491 0.22095 0.21485 0.0
C1828 C 0.61347 0.23004 0.21125 0.0
C1829 C 0.62945 0.2273 0.22404 0.0
C1830 C 0.55875 0.24548 0.18021 0.0
C1831 C 0.54476 0.23006 0.17636 0.0
C1832 C 0.57497 0.24255 0.19264 0.0
C1833 C 0.57775 0.22406 0.2014 0.0
C1834 C 0.56385 0.20858 0.19733 0.0
C1835 C 0.54754 0.21157 0.18508 0.0
H1836 H 0.52301 0.13648 0.02438 0.0
H1837 H 0.46572 0.12483 0.0497 0.0
H1838 H 0.52708 0.16634 0.04509 0.0
H1839 H 0.46979 0.15439 0.07047 0.0
H1840 H 0.47488 0.21719 0.09423 0.0
H1841 H 0.47098 0.18932 0.07093 0.0
H1842 H 0.53278 0.17669 0.07849 0.0
H1843 H 0.53661 0.2051 0.10127 0.0
C1844 C 0.51129 0.14032 0.03437 0.0
C1845 C 0.49411 0.12822 0.03552 0.0
C1846 C 0.51368 0.15733 0.04638 0.0
C1847 C 0.49887 0.16272 0.05971 0.0
C1848 C 0.48156 0.15075 0.06052 0.0
C1849 C 0.47926 0.13368 0.04868 0.0
C1850 C 0.48755 0.20832 0.09092 0.0
C1851 C 0.50587 0.21275 0.09997 0.0
C1852 C 0.48536 0.19236 0.07759 0.0
C1853 C 0.5015 0.18051 0.07297 0.0
C1854 C 0.52005 0.18552 0.08154 0.0
C1855 C 0.52225 0.20166 0.09472 0.0
H1856 H 0.29304 0.38857 0.6925 0.0
H1857 H 0.25729 0.40869 0.74091 0.0
H1858 H 0.31688 0.41573 0.69937 0.0
H1859 H 0.28073 0.43615 0.74731 0.0
H1860 H 0.33934 0.46591 0.76821 0.0
H1861 H 0.3143 0.4402 0.76028 0.0
H1862 H 0.32059 0.4524 0.69823 0.0
H1863 H 0.34594 0.4781 0.70637 0.0
C1864 C 0.29023 0.39882 0.70455 0.0
C1865 C 0.27326 0.39642 0.71617 0.0
C1866 C 0.30378 0.4145 0.70834 0.0
C1867 C 0.3007 0.42809 0.72388 0.0
C1868 C 0.28363 0.42583 0.73534 0.0
C1869 C 0.27007 0.4102 0.73153 0.0
C1870 C 0.33541 0.46295 0.75288 0.0
C1871 C 0.34493 0.47338 0.73782 0.0
C1872 C 0.32092 0.44844 0.74834 0.0
C1873 C 0.31554 0.44416 0.7286 0.0
C1874 C 0.32465 0.45514 0.71355 0.0
C1875 C 0.33906 0.46984 0.71816 0.0
H1876 H 0.30304 0.65155 0.79459 0.0
H1877 H 0.25871 0.60545 0.80424 0.0
H1878 H 0.32779 0.62661 0.79038 0.0
H1879 H 0.28316 0.58045 0.79845 0.0
H1880 H 0.33382 0.53869 0.80145 0.0
H1881 H 0.31113 0.56467 0.81063 0.0
H1882 H 0.33781 0.60308 0.7673 0.0
H1883 H 0.36092 0.57754 0.7589 0.0
C1884 C 0.29852 0.63611 0.79589 0.0
C1885 C 0.27874 0.63063 0.79974 0.0
C1886 C 0.31273 0.62173 0.79316 0.0
C1887 C 0.30756 0.6014 0.79391 0.0
C1888 C 0.28784 0.59591 0.79798 0.0
C1889 C 0.27367 0.61031 0.80096 0.0
C1890 C 0.33498 0.55281 0.79412 0.0
C1891 C 0.34917 0.55605 0.77946 0.0
C1892 C 0.32185 0.56766 0.79924 0.0
C1893 C 0.32245 0.58603 0.78964 0.0
C1894 C 0.33701 0.58933 0.7753 0.0
C1895 C 0.35026 0.5746 0.77038 0.0
H1896 H 0.87273 0.49278 0.45971 0.0
H1897 H 0.89545 0.47246 0.51542 0.0
H1898 H 0.84291 0.473 0.46413 0.0
H1899 H 0.86463 0.45421 0.52082 0.0
H1900 H 0.81619 0.40518 0.51316 0.0
H1901 H 0.84606 0.42619 0.51176 0.0
H1902 H 0.81352 0.47011 0.48019 0.0
H1903 H 0.78427 0.44837 0.48046 0.0
C1904 C 0.87142 0.48416 0.47298 0.0
C1905 C 0.88679 0.4842 0.48708 0.0
C1906 C 0.85398 0.47307 0.47575 0.0
C1907 C 0.85107 0.46199 0.49296 0.0
C1908 C 0.86629 0.46229 0.50725 0.0
C1909 C 0.88395 0.47309 0.50428 0.0
C1910 C 0.81547 0.41947 0.50619 0.0
C1911 C 0.79802 0.42513 0.49681 0.0
C1912 C 0.83258 0.4316 0.50539 0.0
C1913 C 0.83246 0.44985 0.49555 0.0
C1914 C 0.81452 0.45593 0.4873 0.0
C1915 C 0.79762 0.4436 0.48765 0.0
H1916 H 0.76496 0.9152 0.78364 0.0
H1917 H 0.72276 0.88075 0.81733 0.0
H1918 H 0.74018 0.93998 0.77811 0.0
H1919 H 0.69779 0.9052 0.81087 0.0
H1920 H 0.65553 0.94194 0.77017 0.0
H1921 H 0.67976 0.91751 0.77952 0.0
H1922 H 0.72005 0.96475 0.79893 0.0
H1923 H 0.69575 0.9892 0.78986 0.0
C1924 C 0.75052 0.91292 0.79006 0.0
C1925 C 0.746 0.89584 0.80098 0.0
C1926 C 0.73629 0.92714 0.78678 0.0
C1927 C 0.71707 0.92451 0.79407 0.0
C1928 C 0.71245 0.9075 0.80494 0.0
C1929 C 0.72677 0.89343 0.80851 0.0
C1930 C 0.66946 0.94709 0.77666 0.0
C1931 C 0.67374 0.96749 0.77926 0.0
C1932 C 0.68329 0.93311 0.78206 0.0
C1933 C 0.70182 0.93926 0.78984 0.0
C1934 C 0.70594 0.95963 0.79281 0.0
C1935 C 0.69198 0.97359 0.78774 0.0
H1936 H 0.63764 0.5197 0.02035 0.0
H1937 H 0.63037 0.54268 0.9617 0.0
H1938 H 0.66684 0.54119 0.02539 0.0
H1939 H 0.65966 0.56351 0.96646 0.0
H1940 H 0.72004 0.59099 0.97389 0.0
H1941 H 0.69357 0.56607 0.96952 0.0
H1942 H 0.67747 0.57428 0.03069 0.0
H1943 H 0.70484 0.59848 0.03508 0.0
C1944 C 0.64217 0.52941 0.00857 0.0
C1945 C 0.63152 0.52945 0.99063 0.0
C1946 C 0.65897 0.54176 0.01146 0.0
C1947 C 0.66561 0.55442 0.99646 0.0
C1948 C 0.65515 0.55409 0.97842 0.0
C1949 C 0.6383 0.54194 0.97561 0.0
C1950 C 0.7108 0.58737 0.98636 0.0
C1951 C 0.71398 0.59699 0.00465 0.0
C1952 C 0.69556 0.57313 0.98389 0.0
C1953 C 0.68302 0.56828 0.99965 0.0
C1954 C 0.68684 0.57742 0.01822 0.0
C1955 C 0.70238 0.59142 0.02075 0.0
H1956 H 0.22812 0.64126 0.23594 0.0
H1957 H 0.25453 0.60309 0.19245 0.0
H1958 H 0.20385 0.61513 0.2432 0.0
H1959 H 0.23026 0.5768 0.1998 0.0
H1960 H 0.17064 0.54236 0.20391 0.0
H1961 H 0.19521 0.56838 0.19615 0.0
H1962 H 0.20145 0.58299 0.25829 0.0
H1963 H 0.17675 0.5572 0.26581 0.0
C1964 C 0.22862 0.62731 0.22783 0.0
C1965 C 0.24319 0.62425 0.21358 0.0
C1966 C 0.21478 0.61228 0.23207 0.0
C1967 C 0.21498 0.59389 0.222 0.0
C1968 C 0.22951 0.59086 0.20766 0.0
C1969 C 0.24352 0.60585 0.20357 0.0
C1970 C 0.17727 0.55127 0.21581 0.0
C1971 C 0.17138 0.54838 0.23535 0.0
C1972 C 0.1914 0.56605 0.21143 0.0
C1973 C 0.20018 0.57793 0.22658 0.0
C1974 C 0.19469 0.57445 0.24622 0.0
C1975 C 0.18053 0.55974 0.25054 0.0
H1976 H 0.89902 0.55299 0.99046 0.0
H1977 H 0.87021 0.5304 0.04252 0.0
H1978 H 0.87129 0.57463 0.98482 0.0
H1979 H 0.84328 0.55287 0.03735 0.0
H1980 H 0.81436 0.61424 0.03436 0.0
H1981 H 0.84233 0.5925 0.03744 0.0
H1982 H 0.8315 0.56995 0.97828 0.0
H1983 H 0.80303 0.59147 0.97525 0.0
C1984 C 0.88681 0.55244 1.00064 0.0
C1985 C 0.8871 0.53991 0.01708 0.0
C1986 C 0.87098 0.56496 0.99742 0.0
C1987 C 0.85527 0.56552 0.01074 0.0
C1988 C 0.85537 0.55292 0.027 0.0
C1989 C 0.87094 0.54014 0.03001 0.0
C1990 C 0.818 0.60481 0.0219 0.0
C1991 C 0.80644 0.60456 0.00456 0.0
C1992 C 0.83395 0.59229 0.02374 0.0
C1993 C 0.83898 0.5795 0.00815 0.0
C1994 C 0.82793 0.57972 0.9905 0.0
C1995 C 0.81165 0.59199 0.98879 0.0
H1996 H 0.11351 0.9723 1.00059 0.0
H1997 H 0.1481 0.9996 0.04816 0.0
H1998 H 0.14076 0.95084 0.99277 0.0
H1999 H 0.17522 0.97783 0.04049 0.0
H2000 H 0.21022 0.92035 0.03359 0.0
H2001 H 0.18323 0.94218 0.04153 0.0
H2002 H 0.17461 0.9533 0.97955 0.0
H2003 H 0.20144 0.93139 0.97152 0.0
C2004 C 0.12697 0.97388 0.00929 0.0
C2005 C 0.12857 0.98778 0.02499 0.0
C2006 C 0.14258 0.96152 0.00481 0.0
C2007 C 0.16017 0.96264 0.01599 0.0
C2008 C 0.16177 0.97643 0.03175 0.0
C2009 C 0.14619 0.98889 0.03616 0.0
C2010 C 0.20259 0.92743 0.02163 0.0
C2011 C 0.20805 0.92405 1.0019 0.0
C2012 C 0.18719 0.94005 0.02621 0.0
C2013 C 0.17676 0.94947 0.01118 0.0
C2014 C 0.18221 0.9461 0.99147 0.0
C2015 C 0.19769 0.93362 0.98689 0.0
loop_
_geom_bond_atom_site_label_1
_geom_bond_atom_site_label_2
_geom_bond_distance
_geom_bond_site_symmetry_2
_ccdc_geom_bond_type
C0 C1 1.386 . S
C0 C2 1.397 . S
C0 H24 0.931 . S
C1 C0 1.386 . S
C1 C5 1.397 1_556 S
C2 C0 1.397 . S
C2 C3 1.384 1_556 S
C2 H25 0.930 . S
C3 C2 1.384 1_554 S
C3 C4 1.377 . S
C3 C6 1.481 . S
C4 C3 1.377 . S
C4 C5 1.389 . S
C4 H26 0.929 . S
C5 C1 1.397 1_554 S
C5 C4 1.389 . S
C5 H27 0.931 . S
C6 C3 1.481 . S
C6 C7 1.387 . S
C6 C11 1.390 . S
C7 C6 1.387 . S
C7 C8 1.401 . S
C7 H28 0.930 . S
C8 C7 1.401 . S
C8 C9 1.376 . S
C8 C17 1.511 . S
C9 C8 1.376 . S
C9 C10 1.392 . S
C9 H30 0.931 . S
C10 C9 1.392 . S
C10 C11 1.361 . S
C10 C12 1.500 . S
C11 C6 1.390 . S
C11 C10 1.361 . S
C11 H29 0.931 . S
C12 C10 1.500 . S
C12 C13 1.371 . S
C12 C14 1.362 . S
C13 C12 1.371 . S
C13 C23 1.386 1_455 S
C13 H31 0.935 1_545 S
C14 C12 1.362 . S
C14 C15 1.413 1_455 S
C14 H32 0.928 . S
C15 C14 1.413 1_655 S
C15 C16 1.380 . S
C15 H33 0.930 . S
C16 C15 1.380 . S
C16 C23 1.357 . S
C17 C8 1.511 . S
C17 C18 1.341 . S
C17 C19 1.371 1_545 S
C18 C17 1.341 . S
C18 C22 1.394 1_545 S
C18 H34 0.928 . S
C19 C17 1.371 1_565 S
C19 C20 1.392 . S
C19 H35 0.931 . S
C20 C19 1.392 . S
C20 C21 1.331 . S
C20 H38 0.932 . S
C21 C20 1.331 . S
C21 C22 1.336 . S
C22 C18 1.394 1_565 S
C22 C21 1.336 . S
C22 H37 0.929 1_554 S
C23 C13 1.386 1_655 S
C23 C16 1.357 . S
C23 H36 0.928 1_545 S
H24 C0 0.931 . S
H25 C2 0.930 . S
H26 C4 0.929 . S
H27 C5 0.931 . S
H28 C7 0.930 . S
H29 C11 0.931 . S
H30 C9 0.931 . S
H31 C13 0.935 1_565 S
H32 C14 0.928 . S
H33 C15 0.930 . S
H34 C18 0.928 . S
H35 C19 0.931 . S
H36 C23 0.928 1_565 S
H37 C22 0.929 1_556 S
H38 C20 0.932 . S
C39 C40 1.386 . S
C39 C41 1.397 . S
C39 H63 0.931 . S
C40 C39 1.386 . S
C40 C44 1.397 . S
C41 C39 1.397 . S
C41 C42 1.384 . S
C41 H64 0.930 . S
C42 C41 1.384 . S
C42 C43 1.377 . S
C42 C45 1.481 . S
C43 C42 1.377 . S
C43 C44 1.389 . S
C43 H65 0.929 . S
C44 C40 1.397 . S
C44 C43 1.389 . S
C44 H66 0.931 . S
C45 C42 1.481 . S
C45 C46 1.387 . S
C45 C50 1.390 . S
C46 C45 1.387 . S
C46 C47 1.401 . S
C46 H67 0.930 . S
C47 C46 1.401 . S
C47 C48 1.376 . S
C47 C56 1.511 . S
C48 C47 1.376 . S
C48 C49 1.392 . S
C48 H69 0.931 . S
C49 C48 1.392 . S
C49 C50 1.361 . S
C49 C51 1.500 . S
C50 C45 1.390 . S
C50 C49 1.361 . S
C50 H68 0.931 . S
C51 C49 1.500 . S
C51 C52 1.371 . S
C51 C53 1.365 . S
C52 C51 1.371 . S
C52 C62 1.386 . S
C52 H70 0.931 . S
C53 C51 1.365 . S
C53 C54 1.409 . S
C53 H71 0.929 . S
C54 C53 1.409 . S
C54 C55 1.380 . S
C54 H72 0.930 . S
C55 C54 1.380 . S
C55 C62 1.357 . S
C56 C47 1.511 . S
C56 C57 1.341 . S
C56 C58 1.371 . S
C57 C56 1.341 . S
C57 C61 1.394 . S
C57 H73 0.930 . S
C58 C56 1.371 . S
C58 C59 1.392 . S
C58 H74 0.931 . S
C59 C58 1.392 . S
C59 C60 1.331 . S
C59 H77 0.932 . S
C60 C59 1.331 . S
C60 C61 1.336 . S
C61 C57 1.394 . S
C61 C60 1.336 . S
C61 H76 0.929 . S
C62 C52 1.386 . S
C62 C55 1.357 . S
C62 H75 0.928 . S
H63 C39 0.931 . S
H64 C41 0.930 . S
H65 C43 0.929 . S
H66 C44 0.931 . S
H67 C46 0.930 . S
H68 C50 0.931 . S
H69 C48 0.931 . S
H70 C52 0.931 . S
H71 C53 0.929 . S
H72 C54 0.930 . S
H73 C57 0.930 . S
H74 C58 0.931 . S
H75 C62 0.928 . S
H76 C61 0.929 . S
H77 C59 0.932 . S
C78 C79 1.386 1_655 S
C78 C80 1.397 . S
C78 H102 0.931 . S
C79 C78 1.386 1_455 S
C79 C83 1.397 . S
C80 C78 1.397 . S
C80 C81 1.384 . S
C80 H103 0.930 . S
C81 C80 1.384 . S
C81 C82 1.377 1_655 S
C81 C84 1.481 . S
C82 C81 1.377 1_455 S
C82 C83 1.389 . S
C82 H104 0.929 . S
C83 C79 1.397 . S
C83 C82 1.389 . S
C83 H105 0.931 . S
C84 C81 1.481 . S
C84 C85 1.387 . S
C84 C89 1.390 . S
C85 C84 1.387 . S
C85 C86 1.401 . S
C85 H106 0.930 . S
C86 C85 1.401 . S
C86 C87 1.376 . S
C86 C95 1.511 . S
C87 C86 1.376 . S
C87 C88 1.392 . S
C87 H108 0.931 . S
C88 C87 1.392 . S
C88 C89 1.361 . S
C88 C90 1.500 . S
C89 C84 1.390 . S
C89 C88 1.361 . S
C89 H107 0.931 . S
C90 C88 1.500 . S
C90 C91 1.371 1_554 S
C90 C92 1.365 . S
C91 C90 1.371 1_556 S
C91 C101 1.386 . S
C91 H109 0.932 . S
C92 C90 1.365 . S
C92 C93 1.409 1_554 S
C92 H110 0.929 1_655 S
C93 C92 1.409 1_556 S
C93 C94 1.380 . S
C93 H111 0.930 1_655 S
C94 C93 1.380 . S
C94 C101 1.357 . S
C95 C86 1.511 . S
C95 C96 1.341 . S
C95 C97 1.371 . S
C96 C95 1.341 . S
C96 C100 1.394 . S
C96 H112 0.930 . S
C97 C95 1.371 . S
C97 C98 1.392 . S
C97 H113 0.928 1_554 S
C98 C97 1.392 . S
C98 C99 1.331 . S
C98 H116 0.932 1_554 S
C99 C98 1.331 . S
C99 C100 1.336 . S
C100 C96 1.394 . S
C100 C99 1.336 . S
C100 H115 0.929 . S
C101 C91 1.386 . S
C101 C94 1.357 . S
C101 H114 0.928 . S
H102 C78 0.931 . S
H103 C80 0.930 . S
H104 C82 0.929 . S
H105 C83 0.931 . S
H106 C85 0.930 . S
H107 C89 0.931 . S
H108 C87 0.931 . S
H109 C91 0.932 . S
H110 C92 0.929 1_455 S
H111 C93 0.930 1_455 S
H112 C96 0.930 . S
H113 C97 0.928 1_556 S
H114 C101 0.928 . S
H115 C100 0.929 . S
H116 C98 0.932 1_556 S
C117 C118 1.386 . S
C117 C119 1.397 . S
C117 H141 0.931 . S
C118 C117 1.386 . S
C118 C122 1.397 . S
C119 C117 1.397 . S
C119 C120 1.384 . S
C119 H142 0.930 . S
C120 C119 1.384 . S
C120 C121 1.377 . S
C120 C123 1.481 . S
C121 C120 1.377 . S
C121 C122 1.389 . S
C121 H143 0.929 . S
C122 C118 1.397 . S
C122 C121 1.389 . S
C122 H144 0.931 . S
C123 C120 1.481 . S
C123 C124 1.387 . S
C123 C128 1.390 . S
C124 C123 1.387 . S
C124 C125 1.401 . S
C124 H145 0.930 . S
C125 C124 1.401 . S
C125 C126 1.376 . S
C125 C134 1.511 . S
C126 C125 1.376 . S
C126 C127 1.392 . S
C126 H147 0.931 . S
C127 C126 1.392 . S
C127 C128 1.361 . S
C127 C129 1.500 . S
C128 C123 1.390 . S
C128 C127 1.361 . S
C128 H146 0.931 . S
C129 C127 1.500 . S
C129 C130 1.371 . S
C129 C131 1.365 . S
C130 C129 1.371 . S
C130 C140 1.386 . S
C130 H148 0.931 . S
C131 C129 1.365 . S
C131 C132 1.409 . S
C131 H149 0.929 . S
C132 C131 1.409 . S
C132 C133 1.380 . S
C132 H150 0.930 . S
C133 C132 1.380 . S
C133 C140 1.357 . S
C134 C125 1.511 . S
C134 C135 1.341 . S
C134 C136 1.371 . S
C135 C134 1.341 . S
C135 C139 1.394 . S
C135 H151 0.930 . S
C136 C134 1.371 . S
C136 C137 1.392 . S
C136 H152 0.931 . S
C137 C136 1.392 . S
C137 C138 1.331 . S
C137 H155 0.932 . S
C138 C137 1.331 . S
C138 C139 1.336 . S
C139 C135 1.394 . S
C139 C138 1.336 . S
C139 H154 0.929 . S
C140 C130 1.386 . S
C140 C133 1.357 . S
C140 H153 0.928 . S
H141 C117 0.931 . S
H142 C119 0.930 . S
H143 C121 0.929 . S
H144 C122 0.931 . S
H145 C124 0.930 . S
H146 C128 0.931 . S
H147 C126 0.931 . S
H148 C130 0.931 . S
H149 C131 0.929 . S
H150 C132 0.930 . S
H151 C135 0.930 . S
H152 C136 0.931 . S
H153 C140 0.928 . S
H154 C139 0.929 . S
H155 C137 0.932 . S
C156 C157 1.386 . S
C156 C158 1.397 . S
C156 H180 0.931 . S
C157 C156 1.386 . S
C157 C161 1.397 1_655 S
C158 C156 1.397 . S
C158 C159 1.384 1_655 S
C158 H181 0.930 . S
C159 C158 1.384 1_455 S
C159 C160 1.377 . S
C159 C162 1.481 . S
C160 C159 1.377 . S
C160 C161 1.389 . S
C160 H182 0.929 . S
C161 C157 1.397 1_455 S
C161 C160 1.389 . S
C161 H183 0.931 . S
C162 C159 1.481 . S
C162 C163 1.387 . S
C162 C167 1.390 . S
C163 C162 1.387 . S
C163 C164 1.401 . S
C163 H184 0.930 . S
C164 C163 1.401 . S
C164 C165 1.376 . S
C164 C173 1.511 . S
C165 C164 1.376 . S
C165 C166 1.392 . S
C165 H186 0.931 . S
C166 C165 1.392 . S
C166 C167 1.361 . S
C166 C168 1.530 . S
C167 C162 1.390 . S
C167 C166 1.361 . S
C167 H185 0.931 . S
C168 C166 1.530 . S
C168 C169 1.363 1_565 S
C168 C170 1.344 1_565 S
C169 C168 1.363 1_545 S
C169 C179 1.386 . S
C169 H187 0.931 1_545 S
C170 C168 1.344 1_545 S
C170 C171 1.409 . S
C170 H188 0.929 . S
C171 C170 1.409 . S
C171 C172 1.380 . S
C171 H189 0.930 . S
C172 C171 1.380 . S
C172 C179 1.357 . S
C173 C164 1.511 . S
C173 C174 1.341 . S
C173 C175 1.371 . S
C174 C173 1.341 . S
C174 C178 1.394 . S
C174 H190 0.930 . S
C175 C173 1.371 . S
C175 C176 1.392 . S
C175 H191 0.931 . S
C176 C175 1.392 . S
C176 C177 1.331 . S
C176 H194 0.932 . S
C177 C176 1.331 . S
C177 C178 1.336 . S
C178 C174 1.394 . S
C178 C177 1.336 . S
C178 H193 0.929 1_455 S
C179 C169 1.386 . S
C179 C172 1.357 . S
C179 H192 0.928 . S
H180 C156 0.931 . S
H181 C158 0.930 . S
H182 C160 0.929 . S
H183 C161 0.931 . S
H184 C163 0.930 . S
H185 C167 0.931 . S
H186 C165 0.931 . S
H187 C169 0.931 1_565 S
H188 C170 0.929 . S
H189 C171 0.930 . S
H190 C174 0.930 . S
H191 C175 0.931 . S
H192 C179 0.928 . S
H193 C178 0.929 1_655 S
H194 C176 0.932 . S
C195 C196 1.386 . S
C195 C197 1.397 . S
C195 H219 0.931 . S
C196 C195 1.386 . S
C196 C200 1.397 . S
C197 C195 1.397 . S
C197 C198 1.384 . S
C197 H220 0.930 . S
C198 C197 1.384 . S
C198 C199 1.377 . S
C198 C201 1.481 . S
C199 C198 1.377 . S
C199 C200 1.389 . S
C199 H221 0.929 . S
C200 C196 1.397 . S
C200 C199 1.389 . S
C200 H222 0.931 . S
C201 C198 1.481 . S
C201 C202 1.387 . S
C201 C206 1.390 . S
C202 C201 1.387 . S
C202 C203 1.401 . S
C202 H223 0.930 . S
C203 C202 1.401 . S
C203 C204 1.376 . S
C203 C212 1.511 . S
C204 C203 1.376 . S
C204 C205 1.392 . S
C204 H225 0.931 . S
C205 C204 1.392 . S
C205 C206 1.361 . S
C205 C207 1.500 . S
C206 C201 1.390 . S
C206 C205 1.361 . S
C206 H224 0.931 . S
C207 C205 1.500 . S
C207 C208 1.371 . S
C207 C209 1.365 . S
C208 C207 1.371 . S
C208 C218 1.386 . S
C208 H226 0.931 . S
C209 C207 1.365 . S
C209 C210 1.409 . S
C209 H227 0.929 . S
C210 C209 1.409 . S
C210 C211 1.380 . S
C210 H228 0.930 . S
C211 C210 1.380 . S
C211 C218 1.357 . S
C212 C203 1.511 . S
C212 C213 1.341 . S
C212 C214 1.371 . S
C213 C212 1.341 . S
C213 C217 1.394 . S
C213 H229 0.930 . S
C214 C212 1.371 . S
C214 C215 1.392 . S
C214 H230 0.931 . S
C215 C214 1.392 . S
C215 C216 1.331 . S
C215 H233 0.932 . S
C216 C215 1.331 . S
C216 C217 1.336 . S
C217 C213 1.394 . S
C217 C216 1.336 . S
C217 H232 0.929 . S
C218 C208 1.386 . S
C218 C211 1.357 . S
C218 H231 0.928 . S
H219 C195 0.931 . S
H220 C197 0.930 . S
H221 C199 0.929 . S
H222 C200 0.931 . S
H223 C202 0.930 . S
H224 C206 0.931 . S
H225 C204 0.931 . S
H226 C208 0.931 . S
H227 C209 0.929 . S
H228 C210 0.930 . S
H229 C213 0.930 . S
H230 C214 0.931 . S
H231 C218 0.928 . S
H232 C217 0.929 . S
H233 C215 0.932 . S
C234 C235 1.386 . S
C234 C236 1.397 . S
C234 H258 0.931 . S
C235 C234 1.386 . S
C235 C239 1.397 . S
C236 C234 1.397 . S
C236 C237 1.384 . S
C236 H259 0.930 . S
C237 C236 1.384 . S
C237 C238 1.377 . S
C237 C240 1.481 . S
C238 C237 1.377 . S
C238 C239 1.389 . S
C238 H260 0.929 . S
C239 C235 1.397 . S
C239 C238 1.389 . S
C239 H261 0.931 . S
C240 C237 1.481 . S
C240 C241 1.387 . S
C240 C245 1.390 . S
C241 C240 1.387 . S
C241 C242 1.401 . S
C241 H262 0.930 . S
C242 C241 1.401 . S
C242 C243 1.376 . S
C242 C251 1.511 . S
C243 C242 1.376 . S
C243 C244 1.392 . S
C243 H264 0.931 . S
C244 C243 1.392 . S
C244 C245 1.361 . S
C244 C246 1.500 . S
C245 C240 1.390 . S
C245 C244 1.361 . S
C245 H263 0.931 . S
C246 C244 1.500 . S
C246 C247 1.371 . S
C246 C248 1.365 . S
C247 C246 1.371 . S
C247 C257 1.386 . S
C247 H265 0.931 . S
C248 C246 1.365 . S
C248 C249 1.409 . S
C248 H266 0.929 . S
C249 C248 1.409 . S
C249 C250 1.380 . S
C249 H267 0.930 . S
C250 C249 1.380 . S
C250 C257 1.357 . S
C251 C242 1.511 . S
C251 C252 1.341 1_655 S
C251 C253 1.378 . S
C252 C251 1.341 1_455 S
C252 C256 1.394 . S
C252 H268 0.930 . S
C253 C251 1.378 . S
C253 C254 1.358 1_655 S
C253 H269 0.963 . S
C254 C253 1.358 1_455 S
C254 C255 1.331 . S
C254 H272 0.932 . S
C255 C254 1.331 . S
C255 C256 1.336 . S
C256 C252 1.394 . S
C256 C255 1.336 . S
C256 H271 0.929 . S
C257 C247 1.386 . S
C257 C250 1.357 . S
C257 H270 0.928 . S
H258 C234 0.931 . S
H259 C236 0.930 . S
H260 C238 0.929 . S
H261 C239 0.931 . S
H262 C241 0.930 . S
H263 C245 0.931 . S
H264 C243 0.931 . S
H265 C247 0.931 . S
H266 C248 0.929 . S
H267 C249 0.930 . S
H268 C252 0.930 . S
H269 C253 0.963 . S
H270 C257 0.928 . S
H271 C256 0.929 . S
H272 C254 0.932 . S
C273 C274 1.386 . S
C273 C275 1.397 . S
C273 H297 0.931 . S
C274 C273 1.386 . S
C274 C278 1.397 . S
C275 C273 1.397 . S
C275 C276 1.384 . S
C275 H298 0.930 . S
C276 C275 1.384 . S
C276 C277 1.377 . S
C276 C279 1.481 . S
C277 C276 1.377 . S
C277 C278 1.389 . S
C277 H299 0.929 . S
C278 C274 1.397 . S
C278 C277 1.389 . S
C278 H300 0.931 . S
C279 C276 1.481 . S
C279 C280 1.387 . S
C279 C284 1.390 . S
C280 C279 1.387 . S
C280 C281 1.401 . S
C280 H301 0.930 . S
C281 C280 1.401 . S
C281 C282 1.376 . S
C281 C290 1.511 . S
C282 C281 1.376 . S
C282 C283 1.392 . S
C282 H303 0.931 . S
C283 C282 1.392 . S
C283 C284 1.361 . S
C283 C285 1.500 . S
C284 C279 1.390 . S
C284 C283 1.361 . S
C284 H302 0.931 . S
C285 C283 1.500 . S
C285 C286 1.371 . S
C285 C287 1.365 . S
C286 C285 1.371 . S
C286 C296 1.386 . S
C286 H304 0.931 . S
C287 C285 1.365 . S
C287 C288 1.409 . S
C287 H305 0.929 . S
C288 C287 1.409 . S
C288 C289 1.380 . S
C288 H306 0.930 . S
C289 C288 1.380 . S
C289 C296 1.357 . S
C290 C281 1.511 . S
C290 C291 1.341 . S
C290 C292 1.371 . S
C291 C290 1.341 . S
C291 C295 1.394 . S
C291 H307 0.930 . S
C292 C290 1.371 . S
C292 C293 1.392 . S
C292 H308 0.931 . S
C293 C292 1.392 . S
C293 C294 1.331 . S
C293 H311 0.932 . S
C294 C293 1.331 . S
C294 C295 1.336 . S
C295 C291 1.394 . S
C295 C294 1.336 . S
C295 H310 0.929 . S
C296 C286 1.386 . S
C296 C289 1.357 . S
C296 H309 0.928 . S
H297 C273 0.931 . S
H298 C275 0.930 . S
H299 C277 0.929 . S
H300 C278 0.931 . S
H301 C280 0.930 . S
H302 C284 0.931 . S
H303 C282 0.931 . S
H304 C286 0.931 . S
H305 C287 0.929 . S
H306 C288 0.930 . S
H307 C291 0.930 . S
H308 C292 0.931 . S
H309 C296 0.928 . S
H310 C295 0.929 . S
H311 C293 0.932 . S
C312 C313 1.386 . S
C312 C314 1.397 . S
C312 H336 0.931 . S
C313 C312 1.386 . S
C313 C317 1.397 . S
C314 C312 1.397 . S
C314 C315 1.384 . S
C314 H337 0.930 . S
C315 C314 1.384 . S
C315 C316 1.377 . S
C315 C318 1.481 . S
C316 C315 1.377 . S
C316 C317 1.389 . S
C316 H338 0.929 . S
C317 C313 1.397 . S
C317 C316 1.389 . S
C317 H339 0.931 . S
C318 C315 1.481 . S
C318 C319 1.387 . S
C318 C323 1.390 . S
C319 C318 1.387 . S
C319 C320 1.401 . S
C319 H340 0.930 . S
C320 C319 1.401 . S
C320 C321 1.376 . S
C320 C329 1.511 . S
C321 C320 1.376 . S
C321 C322 1.392 . S
C321 H342 0.931 . S
C322 C321 1.392 . S
C322 C323 1.361 . S
C322 C324 1.500 . S
C323 C318 1.390 . S
C323 C322 1.361 . S
C323 H341 0.931 . S
C324 C322 1.500 . S
C324 C325 1.371 . S
C324 C326 1.365 . S
C325 C324 1.371 . S
C325 C335 1.386 . S
C325 H343 0.931 . S
C326 C324 1.365 . S
C326 C327 1.409 . S
C326 H344 0.929 . S
C327 C326 1.409 . S
C327 C328 1.380 . S
C327 H345 0.930 . S
C328 C327 1.380 . S
C328 C335 1.357 . S
C329 C320 1.511 . S
C329 C330 1.341 . S
C329 C331 1.371 . S
C330 C329 1.341 . S
C330 C334 1.394 . S
C330 H346 0.930 . S
C331 C329 1.371 . S
C331 C332 1.392 . S
C331 H347 0.931 . S
C332 C331 1.392 . S
C332 C333 1.331 . S
C332 H350 0.932 . S
C333 C332 1.331 . S
C333 C334 1.336 . S
C334 C330 1.394 . S
C334 C333 1.336 . S
C334 H349 0.929 . S
C335 C325 1.386 . S
C335 C328 1.357 . S
C335 H348 0.928 . S
H336 C312 0.931 . S
H337 C314 0.930 . S
H338 C316 0.929 . S
H339 C317 0.931 . S
H340 C319 0.930 . S
H341 C323 0.931 . S
H342 C321 0.931 . S
H343 C325 0.931 . S
H344 C326 0.929 . S
H345 C327 0.930 . S
H346 C330 0.930 . S
H347 C331 0.931 . S
H348 C335 0.928 . S
H349 C334 0.929 . S
H350 C332 0.932 . S
C351 C352 1.386 . S
C351 C353 1.397 . S
C351 H375 0.931 . S
C352 C351 1.386 . S
C352 C356 1.397 . S
C353 C351 1.397 . S
C353 C354 1.384 . S
C353 H376 0.930 . S
C354 C353 1.384 . S
C354 C355 1.377 . S
C354 C357 1.481 . S
C355 C354 1.377 . S
C355 C356 1.389 . S
C355 H377 0.929 . S
C356 C352 1.397 . S
C356 C355 1.389 . S
C356 H378 0.931 . S
C357 C354 1.481 . S
C357 C358 1.387 . S
C357 C362 1.390 . S
C358 C357 1.387 . S
C358 C359 1.401 . S
C358 H379 0.930 . S
C359 C358 1.401 . S
C359 C360 1.376 . S
C359 C368 1.511 . S
C360 C359 1.376 . S
C360 C361 1.392 . S
C360 H381 0.931 . S
C361 C360 1.392 . S
C361 C362 1.361 . S
C361 C363 1.500 . S
C362 C357 1.390 . S
C362 C361 1.361 . S
C362 H380 0.931 . S
C363 C361 1.500 . S
C363 C364 1.371 . S
C363 C365 1.365 . S
C364 C363 1.371 . S
C364 C374 1.386 . S
C364 H382 0.931 . S
C365 C363 1.365 . S
C365 C366 1.409 . S
C365 H383 0.929 . S
C366 C365 1.409 . S
C366 C367 1.380 . S
C366 H384 0.930 . S
C367 C366 1.380 . S
C367 C374 1.357 . S
C368 C359 1.511 . S
C368 C369 1.341 1_565 S
C368 C370 1.371 . S
C369 C368 1.341 1_545 S
C369 C373 1.394 . S
C369 H385 0.930 . S
C370 C368 1.371 . S
C370 C371 1.392 1_565 S
C370 H386 0.931 . S
C371 C370 1.392 1_545 S
C371 C372 1.331 . S
C371 H389 0.932 . S
C372 C371 1.331 . S
C372 C373 1.336 . S
C373 C369 1.394 . S
C373 C372 1.336 . S
C373 H388 0.929 . S
C374 C364 1.386 . S
C374 C367 1.357 . S
C374 H387 0.928 . S
H375 C351 0.931 . S
H376 C353 0.930 . S
H377 C355 0.929 . S
H378 C356 0.931 . S
H379 C358 0.930 . S
H380 C362 0.931 . S
H381 C360 0.931 . S
H382 C364 0.931 . S
H383 C365 0.929 . S
H384 C366 0.930 . S
H385 C369 0.930 . S
H386 C370 0.931 . S
H387 C374 0.928 . S
H388 C373 0.929 . S
H389 C371 0.932 . S
C390 C391 1.386 . S
C390 C392 1.397 . S
C390 H414 0.931 . S
C391 C390 1.386 . S
C391 C395 1.397 . S
C392 C390 1.397 . S
C392 C393 1.384 . S
C392 H415 0.930 . S
C393 C392 1.384 . S
C393 C394 1.377 . S
C393 C396 1.481 . S
C394 C393 1.377 . S
C394 C395 1.389 . S
C394 H416 0.929 . S
C395 C391 1.397 . S
C395 C394 1.389 . S
C395 H417 0.931 . S
C396 C393 1.481 . S
C396 C397 1.387 . S
C396 C401 1.390 . S
C397 C396 1.387 . S
C397 C398 1.401 . S
C397 H418 0.930 . S
C398 C397 1.401 . S
C398 C399 1.376 . S
C398 C407 1.511 . S
C399 C398 1.376 . S
C399 C400 1.392 . S
C399 H420 0.931 . S
C400 C399 1.392 . S
C400 C401 1.361 . S
C400 C402 1.500 . S
C401 C396 1.390 . S
C401 C400 1.361 . S
C401 H419 0.931 . S
C402 C400 1.500 . S
C402 C403 1.371 . S
C402 C404 1.365 . S
C403 C402 1.371 . S
C403 C413 1.386 . S
C403 H421 0.931 . S
C404 C402 1.365 . S
C404 C405 1.409 . S
C404 H422 0.929 . S
C405 C404 1.409 . S
C405 C406 1.380 . S
C405 H423 0.930 . S
C406 C405 1.380 . S
C406 C413 1.357 . S
C407 C398 1.511 . S
C407 C408 1.341 . S
C407 C409 1.371 . S
C408 C407 1.341 . S
C408 C412 1.394 . S
C408 H424 0.930 . S
C409 C407 1.371 . S
C409 C410 1.392 . S
C409 H425 0.931 . S
C410 C409 1.392 . S
C410 C411 1.331 . S
C410 H428 0.932 . S
C411 C410 1.331 . S
C411 C412 1.336 . S
C412 C408 1.394 . S
C412 C411 1.336 . S
C412 H427 0.929 . S
C413 C403 1.386 . S
C413 C406 1.357 . S
C413 H426 0.928 . S
H414 C390 0.931 . S
H415 C392 0.930 . S
H416 C394 0.929 . S
H417 C395 0.931 . S
H418 C397 0.930 . S
H419 C401 0.931 . S
H420 C399 0.931 . S
H421 C403 0.931 . S
H422 C404 0.929 . S
H423 C405 0.930 . S
H424 C408 0.930 . S
H425 C409 0.931 . S
H426 C413 0.928 . S
H427 C412 0.929 . S
H428 C410 0.932 . S
C429 C430 1.386 . S
C429 C431 1.397 . S
C429 H453 0.931 . S
C430 C429 1.386 . S
C430 C434 1.397 . S
C431 C429 1.397 . S
C431 C432 1.384 . S
C431 H454 0.930 . S
C432 C431 1.384 . S
C432 C433 1.377 . S
C432 C435 1.481 . S
C433 C432 1.377 . S
C433 C434 1.389 . S
C433 H455 0.929 . S
C434 C430 1.397 . S
C434 C433 1.389 . S
C434 H456 0.931 . S
C435 C432 1.481 . S
C435 C436 1.387 . S
C435 C440 1.390 . S
C436 C435 1.387 . S
C436 C437 1.401 . S
C436 H457 0.930 . S
C437 C436 1.401 . S
C437 C438 1.376 . S
C437 C446 1.511 . S
C438 C437 1.376 . S
C438 C439 1.392 . S
C438 H459 0.931 . S
C439 C438 1.392 . S
C439 C440 1.361 . S
C439 C441 1.500 . S
C440 C435 1.390 . S
C440 C439 1.361 . S
C440 H458 0.931 . S
C441 C439 1.500 . S
C441 C442 1.371 . S
C441 C443 1.365 . S
C442 C441 1.371 . S
C442 C452 1.386 . S
C442 H460 0.931 . S
C443 C441 1.365 . S
C443 C444 1.409 . S
C443 H461 0.929 . S
C444 C443 1.409 . S
C444 C445 1.380 . S
C444 H462 0.930 . S
C445 C444 1.380 . S
C445 C452 1.357 . S
C446 C437 1.511 . S
C446 C447 1.341 . S
C446 C448 1.371 . S
C447 C446 1.341 . S
C447 C451 1.394 . S
C447 H463 0.930 . S
C448 C446 1.371 . S
C448 C449 1.392 . S
C448 H464 0.931 . S
C449 C448 1.392 . S
C449 C450 1.331 . S
C449 H467 0.932 . S
C450 C449 1.331 . S
C450 C451 1.336 . S
C451 C447 1.394 . S
C451 C450 1.336 . S
C451 H466 0.929 . S
C452 C442 1.386 . S
C452 C445 1.357 . S
C452 H465 0.928 . S
H453 C429 0.931 . S
H454 C431 0.930 . S
H455 C433 0.929 . S
H456 C434 0.931 . S
H457 C436 0.930 . S
H458 C440 0.931 . S
H459 C438 0.931 . S
H460 C442 0.931 . S
H461 C443 0.929 . S
H462 C444 0.930 . S
H463 C447 0.930 . S
H464 C448 0.931 . S
H465 C452 0.928 . S
H466 C451 0.929 . S
H467 C449 0.932 . S
C468 C469 1.386 . S
C468 C470 1.397 . S
C468 H492 0.931 . S
C469 C468 1.386 . S
C469 C473 1.397 . S
C470 C468 1.397 . S
C470 C471 1.384 . S
C470 H493 0.930 . S
C471 C470 1.384 . S
C471 C472 1.377 . S
C471 C474 1.481 . S
C472 C471 1.377 . S
C472 C473 1.389 . S
C472 H494 0.929 . S
C473 C469 1.397 . S
C473 C472 1.389 . S
C473 H495 0.931 . S
C474 C471 1.481 . S
C474 C475 1.387 . S
C474 C479 1.390 . S
C475 C474 1.387 . S
C475 C476 1.401 . S
C475 H496 0.930 . S
C476 C475 1.401 . S
C476 C477 1.376 . S
C476 C485 1.511 . S
C477 C476 1.376 . S
C477 C478 1.392 . S
C477 H498 0.931 . S
C478 C477 1.392 . S
C478 C479 1.361 . S
C478 C480 1.500 . S
C479 C474 1.390 . S
C479 C478 1.361 . S
C479 H497 0.931 . S
C480 C478 1.500 . S
C480 C481 1.371 . S
C480 C482 1.365 . S
C481 C480 1.371 . S
C481 C491 1.386 . S
C481 H499 0.931 . S
C482 C480 1.365 . S
C482 C483 1.409 . S
C482 H500 0.929 . S
C483 C482 1.409 . S
C483 C484 1.380 . S
C483 H501 0.930 . S
C484 C483 1.380 . S
C484 C491 1.357 . S
C485 C476 1.511 . S
C485 C486 1.341 . S
C485 C487 1.371 . S
C486 C485 1.341 . S
C486 C490 1.394 . S
C486 H502 0.930 . S
C487 C485 1.371 . S
C487 C488 1.392 . S
C487 H503 0.931 . S
C488 C487 1.392 . S
C488 C489 1.331 . S
C488 H506 0.932 . S
C489 C488 1.331 . S
C489 C490 1.336 . S
C490 C486 1.394 . S
C490 C489 1.336 . S
C490 H505 0.929 . S
C491 C481 1.386 . S
C491 C484 1.357 . S
C491 H504 0.928 . S
H492 C468 0.931 . S
H493 C470 0.930 . S
H494 C472 0.929 . S
H495 C473 0.931 . S
H496 C475 0.930 . S
H497 C479 0.931 . S
H498 C477 0.931 . S
H499 C481 0.931 . S
H500 C482 0.929 . S
H501 C483 0.930 . S
H502 C486 0.930 . S
H503 C487 0.931 . S
H504 C491 0.928 . S
H505 C490 0.929 . S
H506 C488 0.932 . S
C507 C508 1.386 . S
C507 C509 1.397 . S
C507 H531 0.931 . S
C508 C507 1.386 . S
C508 C512 1.397 . S
C509 C507 1.397 . S
C509 C510 1.384 . S
C509 H532 0.930 . S
C510 C509 1.384 . S
C510 C511 1.377 . S
C510 C513 1.481 . S
C511 C510 1.377 . S
C511 C512 1.389 . S
C511 H533 0.929 . S
C512 C508 1.397 . S
C512 C511 1.389 . S
C512 H534 0.931 . S
C513 C510 1.481 . S
C513 C514 1.387 . S
C513 C518 1.390 . S
C514 C513 1.387 . S
C514 C515 1.401 . S
C514 H535 0.930 . S
C515 C514 1.401 . S
C515 C516 1.376 . S
C515 C524 1.511 . S
C516 C515 1.376 . S
C516 C517 1.392 . S
C516 H537 0.931 . S
C517 C516 1.392 . S
C517 C518 1.361 . S
C517 C519 1.500 . S
C518 C513 1.390 . S
C518 C517 1.361 . S
C518 H536 0.931 . S
C519 C517 1.500 . S
C519 C520 1.371 . S
C519 C521 1.365 . S
C520 C519 1.371 . S
C520 C530 1.386 . S
C520 H538 0.931 1_556 S
C521 C519 1.365 . S
C521 C522 1.409 . S
C521 H539 0.929 . S
C522 C521 1.409 . S
C522 C523 1.380 . S
C522 H540 0.930 . S
C523 C522 1.380 . S
C523 C530 1.357 . S
C524 C515 1.511 . S
C524 C525 1.341 . S
C524 C526 1.371 1_556 S
C525 C524 1.341 . S
C525 C529 1.394 1_556 S
C525 H541 0.930 . S
C526 C524 1.371 1_554 S
C526 C527 1.392 . S
C526 H542 0.931 . S
C527 C526 1.392 . S
C527 C528 1.331 . S
C527 H545 0.932 . S
C528 C527 1.331 . S
C528 C529 1.336 . S
C529 C525 1.394 1_554 S
C529 C528 1.336 . S
C529 H544 0.929 . S
C530 C520 1.386 . S
C530 C523 1.357 . S
C530 H543 0.928 1_556 S
H531 C507 0.931 . S
H532 C509 0.930 . S
H533 C511 0.929 . S
H534 C512 0.931 . S
H535 C514 0.930 . S
H536 C518 0.931 . S
H537 C516 0.931 . S
H538 C520 0.931 1_554 S
H539 C521 0.929 . S
H540 C522 0.930 . S
H541 C525 0.930 . S
H542 C526 0.931 . S
H543 C530 0.928 1_554 S
H544 C529 0.929 . S
H545 C527 0.932 . S
C546 C547 1.386 . S
C546 C548 1.397 . S
C546 H570 0.931 . S
C547 C546 1.386 . S
C547 C551 1.397 . S
C548 C546 1.397 . S
C548 C549 1.384 . S
C548 H571 0.930 . S
C549 C548 1.384 . S
C549 C550 1.377 . S
C549 C552 1.481 . S
C550 C549 1.377 . S
C550 C551 1.389 . S
C550 H572 0.929 . S
C551 C547 1.397 . S
C551 C550 1.389 . S
C551 H573 0.931 . S
C552 C549 1.481 . S
C552 C553 1.387 . S
C552 C557 1.390 . S
C553 C552 1.387 . S
C553 C554 1.401 . S
C553 H574 0.930 . S
C554 C553 1.401 . S
C554 C555 1.376 . S
C554 C563 1.511 . S
C555 C554 1.376 . S
C555 C556 1.392 . S
C555 H576 0.931 . S
C556 C555 1.392 . S
C556 C557 1.361 . S
C556 C558 1.500 . S
C557 C552 1.390 . S
C557 C556 1.361 . S
C557 H575 0.931 . S
C558 C556 1.500 . S
C558 C559 1.371 . S
C558 C560 1.365 . S
C559 C558 1.371 . S
C559 C569 1.386 . S
C559 H577 0.931 . S
C560 C558 1.365 . S
C560 C561 1.409 . S
C560 H578 0.929 . S
C561 C560 1.409 . S
C561 C562 1.380 . S
C561 H579 0.930 . S
C562 C561 1.380 . S
C562 C569 1.357 . S
C563 C554 1.511 . S
C563 C564 1.341 . S
C563 C565 1.371 . S
C564 C563 1.341 . S
C564 C568 1.394 . S
C564 H580 0.930 . S
C565 C563 1.371 . S
C565 C566 1.392 . S
C565 H581 0.931 . S
C566 C565 1.392 . S
C566 C567 1.331 . S
C566 H584 0.932 . S
C567 C566 1.331 . S
C567 C568 1.336 . S
C568 C564 1.394 . S
C568 C567 1.336 . S
C568 H583 0.929 . S
C569 C559 1.386 . S
C569 C562 1.357 . S
C569 H582 0.928 . S
H570 C546 0.931 . S
H571 C548 0.930 . S
H572 C550 0.929 . S
H573 C551 0.931 . S
H574 C553 0.930 . S
H575 C557 0.931 . S
H576 C555 0.931 . S
H577 C559 0.931 . S
H578 C560 0.929 . S
H579 C561 0.930 . S
H580 C564 0.930 . S
H581 C565 0.931 . S
H582 C569 0.928 . S
H583 C568 0.929 . S
H584 C566 0.932 . S
C585 C586 1.386 . S
C585 C587 1.397 1_554 S
C585 H609 0.931 1_554 S
C586 C585 1.386 . S
C586 C590 1.397 . S
C587 C585 1.397 1_556 S
C587 C588 1.384 . S
C587 H610 0.930 . S
C588 C587 1.384 . S
C588 C589 1.377 1_556 S
C588 C591 1.481 . S
C589 C588 1.377 1_554 S
C589 C590 1.389 . S
C589 H611 0.929 . S
C590 C586 1.397 . S
C590 C589 1.389 . S
C590 H612 0.931 . S
C591 C588 1.481 . S
C591 C592 1.387 . S
C591 C596 1.390 . S
C592 C591 1.387 . S
C592 C593 1.401 . S
C592 H613 0.930 . S
C593 C592 1.401 . S
C593 C594 1.376 . S
C593 C602 1.511 . S
C594 C593 1.376 . S
C594 C595 1.392 . S
C594 H615 0.931 . S
C595 C594 1.392 . S
C595 C596 1.361 . S
C595 C597 1.500 . S
C596 C591 1.390 . S
C596 C595 1.361 . S
C596 H614 0.931 . S
C597 C595 1.500 . S
C597 C598 1.371 . S
C597 C599 1.365 . S
C598 C597 1.371 . S
C598 C608 1.386 1_545 S
C598 H616 0.931 . S
C599 C597 1.365 . S
C599 C600 1.403 1_546 S
C599 H617 0.929 1_556 S
C600 C599 1.403 1_564 S
C600 C601 1.356 1_554 S
C600 H618 0.961 . S
C601 C600 1.356 1_556 S
C601 C608 1.357 . S
C602 C593 1.511 . S
C602 C603 1.341 . S
C602 C604 1.371 . S
C603 C602 1.341 . S
C603 C607 1.394 . S
C603 H619 0.930 . S
C604 C602 1.371 . S
C604 C605 1.392 . S
C604 H620 0.931 . S
C605 C604 1.392 . S
C605 C606 1.331 . S
C605 H623 0.932 1_545 S
C606 C605 1.331 . S
C606 C607 1.336 . S
C607 C603 1.394 . S
C607 C606 1.336 . S
C607 H622 0.929 . S
C608 C598 1.386 1_565 S
C608 C601 1.357 . S
C608 H621 0.928 . S
H609 C585 0.931 1_556 S
H610 C587 0.930 . S
H611 C589 0.929 . S
H612 C590 0.931 . S
H613 C592 0.930 . S
H614 C596 0.931 . S
H615 C594 0.931 . S
H616 C598 0.931 . S
H617 C599 0.929 1_554 S
H618 C600 0.961 . S
H619 C603 0.930 . S
H620 C604 0.931 . S
H621 C608 0.928 . S
H622 C607 0.929 . S
H623 C605 0.932 1_565 S
Mn624 O629 2.095 . S
Mn624 O639 2.162 . S
Mn624 O640 2.297 . S
Mn624 O648 2.381 1_554 S
Mn624 O649 2.209 1_554 S
Mn624 O650 2.094 . S
Mn625 O630 2.121 . S
Mn625 N632 2.257 . S
Mn625 N641 2.282 . S
Mn625 O649 2.215 . S
Mn625 O651 2.117 . S
C626 O648 1.240 . S
C626 O649 1.283 . S
C627 O639 1.281 . S
C627 O640 1.236 . S
C628 O650 1.240 . S
C628 O651 1.264 1_554 S
O629 Mn624 2.095 . S
O629 C638 1.250 . S
O630 Mn625 2.121 . S
O630 C638 1.258 1_556 S
C631 N632 1.326 . S
C631 C635 1.460 . S
C631 H637 0.929 . S
N632 Mn625 2.257 . S
N632 C631 1.326 . S
N632 C636 1.362 . S
C633 C634 1.258 . S
C633 C636 1.431 . S
C633 C653 1.449 . S
C634 C633 1.258 . S
C634 C635 1.477 . S
C634 H654 0.931 . S
C635 C631 1.460 . S
C635 C634 1.477 . S
C635 H655 0.930 . S
C636 N632 1.362 . S
C636 C633 1.431 . S
C636 C646 1.476 . S
H637 C631 0.929 . S
C638 O629 1.250 . S
C638 O630 1.258 1_554 S
O639 Mn624 2.162 . S
O639 C627 1.281 . S
O640 Mn624 2.297 . S
O640 C627 1.236 . S
N641 Mn625 2.282 . S
N641 C642 1.328 . S
N641 C646 1.318 . S
C642 N641 1.328 . S
C642 C643 1.457 . S
C642 H647 0.929 . S
C643 C642 1.457 . S
C643 C644 1.291 . S
C643 H656 0.931 . S
C644 C643 1.291 . S
C644 C645 1.373 . S
C644 H657 0.929 . S
C645 C644 1.373 . S
C645 C646 1.396 . S
C645 C652 1.403 . S
C646 C636 1.476 . S
C646 N641 1.318 . S
C646 C645 1.396 . S
H647 C642 0.929 . S
O648 Mn624 2.381 1_556 S
O648 C626 1.240 . S
O649 Mn624 2.209 1_556 S
O649 Mn625 2.215 . S
O649 C626 1.283 . S
O650 Mn624 2.094 . S
O650 C628 1.240 . S
O651 Mn625 2.117 . S
O651 C628 1.264 1_556 S
C652 C645 1.403 . S
C652 C653 1.399 . S
C652 H658 0.929 . S
C653 C633 1.449 . S
C653 C652 1.399 . S
C653 H659 0.930 . S
H654 C634 0.931 . S
H655 C635 0.930 . S
H656 C643 0.931 . S
H657 C644 0.929 . S
H658 C652 0.929 . S
H659 C653 0.930 . S
Mn660 O665 2.095 . S
Mn660 O675 2.162 . S
Mn660 O676 2.297 . S
Mn660 O684 2.385 . S
Mn660 O685 2.209 . S
Mn660 O686 2.094 . S
Mn661 O666 2.121 . S
Mn661 N668 2.257 . S
Mn661 N677 2.282 . S
Mn661 O685 2.215 . S
Mn661 O687 2.117 . S
C662 O684 1.234 . S
C662 O685 1.283 . S
C663 O675 1.281 . S
C663 O676 1.236 . S
C664 O686 1.240 . S
C664 O687 1.264 . S
O665 Mn660 2.095 . S
O665 C674 1.250 . S
O666 Mn661 2.121 . S
O666 C674 1.258 . S
C667 N668 1.326 . S
C667 C671 1.460 . S
C667 H673 0.929 . S
N668 Mn661 2.257 . S
N668 C667 1.326 . S
N668 C672 1.362 . S
C669 C670 1.258 . S
C669 C672 1.431 . S
C669 C689 1.449 . S
C670 C669 1.258 . S
C670 C671 1.477 . S
C670 H690 0.931 . S
C671 C667 1.460 . S
C671 C670 1.477 . S
C671 H691 0.930 . S
C672 N668 1.362 . S
C672 C669 1.431 . S
C672 C682 1.476 . S
H673 C667 0.929 . S
C674 O665 1.250 . S
C674 O666 1.258 . S
O675 Mn660 2.162 . S
O675 C663 1.281 . S
O676 Mn660 2.297 . S
O676 C663 1.236 . S
N677 Mn661 2.282 . S
N677 C678 1.328 . S
N677 C682 1.318 . S
C678 N677 1.328 . S
C678 C679 1.457 . S
C678 H683 0.929 . S
C679 C678 1.457 . S
C679 C680 1.291 . S
C679 H692 0.931 . S
C680 C679 1.291 . S
C680 C681 1.373 . S
C680 H693 0.929 . S
C681 C680 1.373 . S
C681 C682 1.396 . S
C681 C688 1.403 . S
C682 C672 1.476 . S
C682 N677 1.318 . S
C682 C681 1.396 . S
H683 C678 0.929 . S
O684 Mn660 2.385 . S
O684 C662 1.234 . S
O685 Mn660 2.209 . S
O685 Mn661 2.215 . S
O685 C662 1.283 . S
O686 Mn660 2.094 . S
O686 C664 1.240 . S
O687 Mn661 2.117 . S
O687 C664 1.264 . S
C688 C681 1.403 . S
C688 C689 1.399 . S
C688 H694 0.929 . S
C689 C669 1.449 . S
C689 C688 1.399 . S
C689 H695 0.930 . S
H690 C670 0.931 . S
H691 C671 0.930 . S
H692 C679 0.931 . S
H693 C680 0.929 . S
H694 C688 0.929 . S
H695 C689 0.930 . S
Mn696 O701 2.095 1_554 S
Mn696 O711 2.162 . S
Mn696 O712 2.297 1_554 S
Mn696 O720 2.385 . S
Mn696 O721 2.209 1_554 S
Mn696 O722 2.094 . S
Mn697 O702 2.121 . S
Mn697 N704 2.257 . S
Mn697 N713 2.282 . S
Mn697 O721 2.215 . S
Mn697 O723 2.117 1_556 S
C698 O720 1.232 1_556 S
C698 O721 1.285 . S
C699 O711 1.281 . S
C699 O712 1.236 1_554 S
C700 O722 1.240 . S
C700 O723 1.264 . S
O701 Mn696 2.095 1_556 S
O701 C710 1.250 . S
O702 Mn697 2.121 . S
O702 C710 1.258 . S
C703 N704 1.326 . S
C703 C707 1.460 . S
C703 H709 0.929 . S
N704 Mn697 2.257 . S
N704 C703 1.326 . S
N704 C708 1.362 . S
C705 C706 1.258 . S
C705 C708 1.431 . S
C705 C725 1.449 . S
C706 C705 1.258 . S
C706 C707 1.477 . S
C706 H726 0.931 . S
C707 C703 1.460 . S
C707 C706 1.477 . S
C707 H727 0.930 . S
C708 N704 1.362 . S
C708 C705 1.431 . S
C708 C718 1.476 . S
H709 C703 0.929 . S
C710 O701 1.250 . S
C710 O702 1.258 . S
O711 Mn696 2.162 . S
O711 C699 1.281 . S
O712 Mn696 2.297 1_556 S
O712 C699 1.236 1_556 S
N713 Mn697 2.282 . S
N713 C714 1.328 1_556 S
N713 C718 1.318 . S
C714 N713 1.328 1_554 S
C714 C715 1.457 . S
C714 H719 0.929 . S
C715 C714 1.457 . S
C715 C716 1.291 . S
C715 H728 0.931 . S
C716 C715 1.291 . S
C716 C717 1.373 1_554 S
C716 H729 0.929 . S
C717 C716 1.373 1_556 S
C717 C718 1.396 . S
C717 C724 1.403 . S
C718 C708 1.476 . S
C718 N713 1.318 . S
C718 C717 1.396 . S
H719 C714 0.929 . S
O720 Mn696 2.385 . S
O720 C698 1.232 1_554 S
O721 Mn696 2.209 1_556 S
O721 Mn697 2.215 . S
O721 C698 1.285 . S
O722 Mn696 2.094 . S
O722 C700 1.240 . S
O723 Mn697 2.117 1_554 S
O723 C700 1.264 . S
C724 C717 1.403 . S
C724 C725 1.399 . S
C724 H730 0.929 . S
C725 C705 1.449 . S
C725 C724 1.399 . S
C725 H731 0.930 . S
H726 C706 0.931 . S
H727 C707 0.930 . S
H728 C715 0.931 . S
H729 C716 0.929 . S
H730 C724 0.929 . S
H731 C725 0.930 . S
Mn732 O737 2.095 . S
Mn732 O747 2.162 . S
Mn732 O748 2.297 . S
Mn732 O756 2.379 1_545 S
Mn732 O757 2.209 1_545 S
Mn732 O758 2.094 . S
Mn733 O738 2.121 . S
Mn733 N740 2.257 . S
Mn733 N749 2.282 . S
Mn733 O757 2.215 . S
Mn733 O759 2.117 . S
C734 O756 1.245 . S
C734 O757 1.283 . S
C735 O747 1.281 . S
C735 O748 1.236 . S
C736 O758 1.240 . S
C736 O759 1.264 1_545 S
O737 Mn732 2.095 . S
O737 C746 1.250 . S
O738 Mn733 2.121 . S
O738 C746 1.258 1_565 S
C739 N740 1.326 . S
C739 C743 1.460 . S
C739 H745 0.929 . S
N740 Mn733 2.257 . S
N740 C739 1.326 . S
N740 C744 1.362 . S
C741 C742 1.258 . S
C741 C744 1.431 . S
C741 C761 1.449 . S
C742 C741 1.258 . S
C742 C743 1.477 . S
C742 H762 0.931 . S
C743 C739 1.460 . S
C743 C742 1.477 . S
C743 H763 0.930 . S
C744 N740 1.362 . S
C744 C741 1.431 . S
C744 C754 1.476 . S
H745 C739 0.929 . S
C746 O737 1.250 . S
C746 O738 1.258 1_545 S
O747 Mn732 2.162 . S
O747 C735 1.281 . S
O748 Mn732 2.297 . S
O748 C735 1.236 . S
N749 Mn733 2.282 . S
N749 C750 1.328 . S
N749 C754 1.318 . S
C750 N749 1.328 . S
C750 C751 1.457 . S
C750 H755 0.929 . S
C751 C750 1.457 . S
C751 C752 1.291 . S
C751 H764 0.931 . S
C752 C751 1.291 . S
C752 C753 1.373 . S
C752 H765 0.929 . S
C753 C752 1.373 . S
C753 C754 1.396 . S
C753 C760 1.403 . S
C754 C744 1.476 . S
C754 N749 1.318 . S
C754 C753 1.396 . S
H755 C750 0.929 . S
O756 Mn732 2.379 1_565 S
O756 C734 1.245 . S
O757 Mn732 2.209 1_565 S
O757 Mn733 2.215 . S
O757 C734 1.283 . S
O758 Mn732 2.094 . S
O758 C736 1.240 . S
O759 Mn733 2.117 . S
O759 C736 1.264 1_565 S
C760 C753 1.403 . S
C760 C761 1.399 . S
C760 H766 0.929 . S
C761 C741 1.449 . S
C761 C760 1.399 . S
C761 H767 0.930 . S
H762 C742 0.931 . S
H763 C743 0.930 . S
H764 C751 0.931 . S
H765 C752 0.929 . S
H766 C760 0.929 . S
H767 C761 0.930 . S
Mn768 O773 2.095 . S
Mn768 O783 2.162 . S
Mn768 O784 2.297 . S
Mn768 O792 2.385 . S
Mn768 O793 2.209 . S
Mn768 O794 2.094 . S
Mn769 O774 2.121 . S
Mn769 N776 2.257 . S
Mn769 N785 2.282 . S
Mn769 O793 2.215 . S
Mn769 O795 2.117 . S
C770 O792 1.234 . S
C770 O793 1.283 . S
C771 O783 1.281 . S
C771 O784 1.236 . S
C772 O794 1.240 . S
C772 O795 1.264 . S
O773 Mn768 2.095 . S
O773 C782 1.250 . S
O774 Mn769 2.121 . S
O774 C782 1.258 . S
C775 N776 1.326 . S
C775 C779 1.460 . S
C775 H781 0.929 . S
N776 Mn769 2.257 . S
N776 C775 1.326 . S
N776 C780 1.362 . S
C777 C778 1.258 . S
C777 C780 1.431 . S
C777 C797 1.449 . S
C778 C777 1.258 . S
C778 C779 1.477 . S
C778 H798 0.931 . S
C779 C775 1.460 . S
C779 C778 1.477 . S
C779 H799 0.930 . S
C780 N776 1.362 . S
C780 C777 1.431 . S
C780 C790 1.476 . S
H781 C775 0.929 . S
C782 O773 1.250 . S
C782 O774 1.258 . S
O783 Mn768 2.162 . S
O783 C771 1.281 . S
O784 Mn768 2.297 . S
O784 C771 1.236 . S
N785 Mn769 2.282 . S
N785 C786 1.328 . S
N785 C790 1.318 . S
C786 N785 1.328 . S
C786 C787 1.457 . S
C786 H791 0.929 . S
C787 C786 1.457 . S
C787 C788 1.291 . S
C787 H800 0.931 . S
C788 C787 1.291 . S
C788 C789 1.373 . S
C788 H801 0.929 . S
C789 C788 1.373 . S
C789 C790 1.396 . S
C789 C796 1.403 . S
C790 C780 1.476 . S
C790 N785 1.318 . S
C790 C789 1.396 . S
H791 C786 0.929 . S
O792 Mn768 2.385 . S
O792 C770 1.234 . S
O793 Mn768 2.209 . S
O793 Mn769 2.215 . S
O793 C770 1.283 . S
O794 Mn768 2.094 . S
O794 C772 1.240 . S
O795 Mn769 2.117 . S
O795 C772 1.264 . S
C796 C789 1.403 . S
C796 C797 1.399 . S
C796 H802 0.929 . S
C797 C777 1.449 . S
C797 C796 1.399 . S
C797 H803 0.930 . S
H798 C778 0.931 . S
H799 C779 0.930 . S
H800 C787 0.931 . S
H801 C788 0.929 . S
H802 C796 0.929 . S
H803 C797 0.930 . S
Mn804 O809 2.095 . S
Mn804 O819 2.162 . S
Mn804 O820 2.297 . S
Mn804 O828 2.385 . S
Mn804 O829 2.209 . S
Mn804 O830 2.094 . S
Mn805 O810 2.121 . S
Mn805 N812 2.257 . S
Mn805 N821 2.282 . S
Mn805 O829 2.215 . S
Mn805 O831 2.117 . S
C806 O828 1.234 . S
C806 O829 1.283 . S
C807 O819 1.281 . S
C807 O820 1.236 . S
C808 O830 1.240 . S
C808 O831 1.264 . S
O809 Mn804 2.095 . S
O809 C818 1.250 . S
O810 Mn805 2.121 . S
O810 C818 1.258 . S
C811 N812 1.326 . S
C811 C815 1.460 . S
C811 H817 0.929 . S
N812 Mn805 2.257 . S
N812 C811 1.326 . S
N812 C816 1.362 . S
C813 C814 1.258 . S
C813 C816 1.431 . S
C813 C833 1.449 . S
C814 C813 1.258 . S
C814 C815 1.477 . S
C814 H834 0.931 . S
C815 C811 1.460 . S
C815 C814 1.477 . S
C815 H835 0.930 . S
C816 N812 1.362 . S
C816 C813 1.431 . S
C816 C826 1.476 . S
H817 C811 0.929 . S
C818 O809 1.250 . S
C818 O810 1.258 . S
O819 Mn804 2.162 . S
O819 C807 1.281 . S
O820 Mn804 2.297 . S
O820 C807 1.236 . S
N821 Mn805 2.282 . S
N821 C822 1.328 . S
N821 C826 1.318 . S
C822 N821 1.328 . S
C822 C823 1.457 . S
C822 H827 0.929 . S
C823 C822 1.457 . S
C823 C824 1.291 . S
C823 H836 0.931 . S
C824 C823 1.291 . S
C824 C825 1.373 . S
C824 H837 0.929 . S
C825 C824 1.373 . S
C825 C826 1.396 . S
C825 C832 1.403 . S
C826 C816 1.476 . S
C826 N821 1.318 . S
C826 C825 1.396 . S
H827 C822 0.929 . S
O828 Mn804 2.385 . S
O828 C806 1.234 . S
O829 Mn804 2.209 . S
O829 Mn805 2.215 . S
O829 C806 1.283 . S
O830 Mn804 2.094 . S
O830 C808 1.240 . S
O831 Mn805 2.117 . S
O831 C808 1.264 . S
C832 C825 1.403 . S
C832 C833 1.399 . S
C832 H838 0.929 . S
C833 C813 1.449 . S
C833 C832 1.399 . S
C833 H839 0.930 . S
H834 C814 0.931 . S
H835 C815 0.930 . S
H836 C823 0.931 . S
H837 C824 0.929 . S
H838 C832 0.929 . S
H839 C833 0.930 . S
Mn840 O845 2.095 . S
Mn840 O855 2.162 . S
Mn840 O856 2.297 . S
Mn840 O864 2.385 . S
Mn840 O865 2.209 . S
Mn840 O866 2.094 . S
Mn841 O846 2.121 . S
Mn841 N848 2.257 . S
Mn841 N857 2.282 . S
Mn841 O865 2.215 . S
Mn841 O867 2.117 . S
C842 O864 1.234 . S
C842 O865 1.283 . S
C843 O855 1.281 . S
C843 O856 1.236 . S
C844 O866 1.240 . S
C844 O867 1.264 . S
O845 Mn840 2.095 . S
O845 C854 1.250 . S
O846 Mn841 2.121 . S
O846 C854 1.258 . S
C847 N848 1.326 . S
C847 C851 1.460 . S
C847 H853 0.929 . S
N848 Mn841 2.257 . S
N848 C847 1.326 . S
N848 C852 1.362 . S
C849 C850 1.258 . S
C849 C852 1.431 . S
C849 C869 1.449 . S
C850 C849 1.258 . S
C850 C851 1.477 . S
C850 H870 0.931 . S
C851 C847 1.460 . S
C851 C850 1.477 . S
C851 H871 0.930 . S
C852 N848 1.362 . S
C852 C849 1.431 . S
C852 C862 1.476 . S
H853 C847 0.929 . S
C854 O845 1.250 . S
C854 O846 1.258 . S
O855 Mn840 2.162 . S
O855 C843 1.281 . S
O856 Mn840 2.297 . S
O856 C843 1.236 . S
N857 Mn841 2.282 . S
N857 C858 1.328 . S
N857 C862 1.318 . S
C858 N857 1.328 . S
C858 C859 1.457 . S
C858 H863 0.929 . S
C859 C858 1.457 . S
C859 C860 1.291 . S
C859 H872 0.931 . S
C860 C859 1.291 . S
C860 C861 1.373 . S
C860 H873 0.929 . S
C861 C860 1.373 . S
C861 C862 1.396 . S
C861 C868 1.403 . S
C862 C852 1.476 . S
C862 N857 1.318 . S
C862 C861 1.396 . S
H863 C858 0.929 . S
O864 Mn840 2.385 . S
O864 C842 1.234 . S
O865 Mn840 2.209 . S
O865 Mn841 2.215 . S
O865 C842 1.283 . S
O866 Mn840 2.094 . S
O866 C844 1.240 . S
O867 Mn841 2.117 . S
O867 C844 1.264 . S
C868 C861 1.403 . S
C868 C869 1.399 . S
C868 H874 0.929 . S
C869 C849 1.449 . S
C869 C868 1.399 . S
C869 H875 0.930 . S
H870 C850 0.931 . S
H871 C851 0.930 . S
H872 C859 0.931 . S
H873 C860 0.929 . S
H874 C868 0.929 . S
H875 C869 0.930 . S
Mn876 O881 2.095 . S
Mn876 O891 2.162 . S
Mn876 O892 2.297 . S
Mn876 O900 2.385 1_565 S
Mn876 O901 2.209 1_565 S
Mn876 O902 2.094 . S
Mn877 O882 2.121 . S
Mn877 N884 2.257 . S
Mn877 N893 2.282 . S
Mn877 O901 2.215 . S
Mn877 O903 2.117 . S
C878 O900 1.234 . S
C878 O901 1.283 . S
C879 O891 1.281 . S
C879 O892 1.236 . S
C880 O902 1.221 1_545 S
C880 O903 1.289 . S
O881 Mn876 2.095 . S
O881 C890 1.250 1_565 S
O882 Mn877 2.121 . S
O882 C890 1.258 . S
C883 N884 1.326 . S
C883 C887 1.460 . S
C883 H889 0.929 . S
N884 Mn877 2.257 . S
N884 C883 1.326 . S
N884 C888 1.362 . S
C885 C886 1.258 . S
C885 C888 1.431 . S
C885 C905 1.449 . S
C886 C885 1.258 . S
C886 C887 1.477 . S
C886 H906 0.931 . S
C887 C883 1.460 . S
C887 C886 1.477 . S
C887 H907 0.930 . S
C888 N884 1.362 . S
C888 C885 1.431 . S
C888 C898 1.476 . S
H889 C883 0.929 . S
C890 O881 1.250 1_545 S
C890 O882 1.258 . S
O891 Mn876 2.162 . S
O891 C879 1.281 . S
O892 Mn876 2.297 . S
O892 C879 1.236 . S
N893 Mn877 2.282 . S
N893 C894 1.328 . S
N893 C898 1.318 . S
C894 N893 1.328 . S
C894 C895 1.457 . S
C894 H899 0.929 . S
C895 C894 1.457 . S
C895 C896 1.291 . S
C895 H908 0.931 . S
C896 C895 1.291 . S
C896 C897 1.373 . S
C896 H909 0.929 . S
C897 C896 1.373 . S
C897 C898 1.396 . S
C897 C904 1.403 . S
C898 C888 1.476 . S
C898 N893 1.318 . S
C898 C897 1.396 . S
H899 C894 0.929 . S
O900 Mn876 2.385 1_545 S
O900 C878 1.234 . S
O901 Mn876 2.209 1_545 S
O901 Mn877 2.215 . S
O901 C878 1.283 . S
O902 Mn876 2.094 . S
O902 C880 1.221 1_565 S
O903 Mn877 2.117 . S
O903 C880 1.289 . S
C904 C897 1.403 . S
C904 C905 1.399 . S
C904 H910 0.929 . S
C905 C885 1.449 . S
C905 C904 1.399 . S
C905 H911 0.930 . S
H906 C886 0.931 . S
H907 C887 0.930 . S
H908 C895 0.931 . S
H909 C896 0.929 . S
H910 C904 0.929 . S
H911 C905 0.930 . S
Mn912 O917 2.095 . S
Mn912 O927 2.162 . S
Mn912 O928 2.297 . S
Mn912 O936 2.385 1_455 S
Mn912 O937 2.209 1_455 S
Mn912 O938 2.094 . S
Mn913 O918 2.121 . S
Mn913 N920 2.257 . S
Mn913 N929 2.282 . S
Mn913 O937 2.215 . S
Mn913 O939 2.117 . S
C914 O936 1.234 . S
C914 O937 1.283 . S
C915 O927 1.281 . S
C915 O928 1.236 . S
C916 O938 1.240 . S
C916 O939 1.264 1_455 S
O917 Mn912 2.095 . S
O917 C926 1.250 1_455 S
O918 Mn913 2.121 . S
O918 C926 1.258 . S
C919 N920 1.326 . S
C919 C923 1.460 . S
C919 H925 0.929 . S
N920 Mn913 2.257 . S
N920 C919 1.326 . S
N920 C924 1.362 . S
C921 C922 1.258 . S
C921 C924 1.431 . S
C921 C941 1.449 . S
C922 C921 1.258 . S
C922 C923 1.477 . S
C922 H942 0.931 . S
C923 C919 1.460 . S
C923 C922 1.477 . S
C923 H943 0.930 . S
C924 N920 1.362 . S
C924 C921 1.431 . S
C924 C934 1.476 . S
H925 C919 0.929 . S
C926 O917 1.250 1_655 S
C926 O918 1.258 . S
O927 Mn912 2.162 . S
O927 C915 1.281 . S
O928 Mn912 2.297 . S
O928 C915 1.236 . S
N929 Mn913 2.282 . S
N929 C930 1.328 . S
N929 C934 1.318 . S
C930 N929 1.328 . S
C930 C931 1.457 . S
C930 H935 0.929 . S
C931 C930 1.457 . S
C931 C932 1.291 . S
C931 H944 0.931 . S
C932 C931 1.291 . S
C932 C933 1.373 . S
C932 H945 0.929 . S
C933 C932 1.373 . S
C933 C934 1.396 . S
C933 C940 1.403 . S
C934 C924 1.476 . S
C934 N929 1.318 . S
C934 C933 1.396 . S
H935 C930 0.929 . S
O936 Mn912 2.385 1_655 S
O936 C914 1.234 . S
O937 Mn912 2.209 1_655 S
O937 Mn913 2.215 . S
O937 C914 1.283 . S
O938 Mn912 2.094 . S
O938 C916 1.240 . S
O939 Mn913 2.117 . S
O939 C916 1.264 1_655 S
C940 C933 1.403 . S
C940 C941 1.399 . S
C940 H946 0.929 . S
C941 C921 1.449 . S
C941 C940 1.399 . S
C941 H947 0.930 . S
H942 C922 0.931 . S
H943 C923 0.930 . S
H944 C931 0.931 . S
H945 C932 0.929 . S
H946 C940 0.929 . S
H947 C941 0.930 . S
Mn948 O953 2.095 . S
Mn948 O963 2.162 . S
Mn948 O964 2.297 . S
Mn948 O972 2.385 . S
Mn948 O973 2.209 . S
Mn948 O974 2.094 . S
Mn949 O954 2.121 . S
Mn949 N956 2.257 . S
Mn949 N965 2.282 . S
Mn949 O973 2.215 . S
Mn949 O975 2.117 . S
C950 O972 1.234 . S
C950 O973 1.283 . S
C951 O963 1.281 . S
C951 O964 1.236 . S
C952 O974 1.240 . S
C952 O975 1.264 . S
O953 Mn948 2.095 . S
O953 C962 1.250 . S
O954 Mn949 2.121 . S
O954 C962 1.258 . S
C955 N956 1.326 . S
C955 C959 1.460 . S
C955 H961 0.929 . S
N956 Mn949 2.257 . S
N956 C955 1.326 . S
N956 C960 1.362 . S
C957 C958 1.258 . S
C957 C960 1.431 . S
C957 C977 1.449 . S
C958 C957 1.258 . S
C958 C959 1.477 . S
C958 H978 0.931 . S
C959 C955 1.460 . S
C959 C958 1.477 . S
C959 H979 0.930 . S
C960 N956 1.362 . S
C960 C957 1.431 . S
C960 C970 1.476 . S
H961 C955 0.929 . S
C962 O953 1.250 . S
C962 O954 1.258 . S
O963 Mn948 2.162 . S
O963 C951 1.281 . S
O964 Mn948 2.297 . S
O964 C951 1.236 . S
N965 Mn949 2.282 . S
N965 C966 1.328 . S
N965 C970 1.318 . S
C966 N965 1.328 . S
C966 C967 1.457 . S
C966 H971 0.929 . S
C967 C966 1.457 . S
C967 C968 1.291 . S
C967 H980 0.931 . S
C968 C967 1.291 . S
C968 C969 1.373 . S
C968 H981 0.929 . S
C969 C968 1.373 . S
C969 C970 1.396 . S
C969 C976 1.403 . S
C970 C960 1.476 . S
C970 N965 1.318 . S
C970 C969 1.396 . S
H971 C966 0.929 . S
O972 Mn948 2.385 . S
O972 C950 1.234 . S
O973 Mn948 2.209 . S
O973 Mn949 2.215 . S
O973 C950 1.283 . S
O974 Mn948 2.094 . S
O974 C952 1.240 . S
O975 Mn949 2.117 . S
O975 C952 1.264 . S
C976 C969 1.403 . S
C976 C977 1.399 . S
C976 H982 0.929 . S
C977 C957 1.449 . S
C977 C976 1.399 . S
C977 H983 0.930 . S
H978 C958 0.931 . S
H979 C959 0.930 . S
H980 C967 0.931 . S
H981 C968 0.929 . S
H982 C976 0.929 . S
H983 C977 0.930 . S
Mn984 O989 2.095 1_455 S
Mn984 O999 2.162 . S
Mn984 O1000 2.297 1_455 S
Mn984 O1008 2.385 . S
Mn984 O1009 2.209 1_455 S
Mn984 O1010 2.094 . S
Mn985 O990 2.121 . S
Mn985 N992 2.257 . S
Mn985 N1001 2.282 1_655 S
Mn985 O1009 2.215 . S
Mn985 O1011 2.117 1_655 S
C986 O1008 1.234 . S
C986 O1009 1.283 1_455 S
C987 O999 1.281 . S
C987 O1000 1.236 1_455 S
C988 O1010 1.240 . S
C988 O1011 1.264 . S
O989 Mn984 2.095 1_655 S
O989 C998 1.250 . S
O990 Mn985 2.121 . S
O990 C998 1.258 . S
C991 N992 1.326 . S
C991 C995 1.460 . S
C991 H997 0.929 . S
N992 Mn985 2.257 . S
N992 C991 1.326 . S
N992 C996 1.362 . S
C993 C994 1.258 . S
C993 C996 1.431 . S
C993 C1013 1.449 . S
C994 C993 1.258 . S
C994 C995 1.477 . S
C994 H1014 0.931 . S
C995 C991 1.460 . S
C995 C994 1.477 . S
C995 H1015 0.930 . S
C996 N992 1.362 . S
C996 C993 1.431 . S
C996 C1006 1.476 . S
H997 C991 0.929 . S
C998 O989 1.250 . S
C998 O990 1.258 . S
O999 Mn984 2.162 . S
O999 C987 1.281 . S
O1000 Mn984 2.297 1_655 S
O1000 C987 1.236 1_655 S
N1001 Mn985 2.282 1_455 S
N1001 C1002 1.328 . S
N1001 C1006 1.318 1_455 S
C1002 N1001 1.328 . S
C1002 C1003 1.457 . S
C1002 H1007 0.929 . S
C1003 C1002 1.457 . S
C1003 C1004 1.291 . S
C1003 H1016 0.931 . S
C1004 C1003 1.291 . S
C1004 C1005 1.373 1_455 S
C1004 H1017 0.929 . S
C1005 C1004 1.373 1_655 S
C1005 C1006 1.396 . S
C1005 C1012 1.403 . S
C1006 C996 1.476 . S
C1006 N1001 1.318 1_655 S
C1006 C1005 1.396 . S
H1007 C1002 0.929 . S
O1008 Mn984 2.385 . S
O1008 C986 1.234 . S
O1009 Mn984 2.209 1_655 S
O1009 Mn985 2.215 . S
O1009 C986 1.283 1_655 S
O1010 Mn984 2.094 . S
O1010 C988 1.240 . S
O1011 Mn985 2.117 1_455 S
O1011 C988 1.264 . S
C1012 C1005 1.403 . S
C1012 C1013 1.399 . S
C1012 H1018 0.929 . S
C1013 C993 1.449 . S
C1013 C1012 1.399 . S
C1013 H1019 0.930 . S
H1014 C994 0.931 . S
H1015 C995 0.930 . S
H1016 C1003 0.931 . S
H1017 C1004 0.929 . S
H1018 C1012 0.929 . S
H1019 C1013 0.930 . S
Mn1020 O1025 2.095 . S
Mn1020 O1035 2.162 . S
Mn1020 O1036 2.297 . S
Mn1020 O1044 2.385 . S
Mn1020 O1045 2.209 . S
Mn1020 O1046 2.094 . S
Mn1021 O1026 2.121 . S
Mn1021 N1028 2.257 . S
Mn1021 N1037 2.282 . S
Mn1021 O1045 2.215 . S
Mn1021 O1047 2.117 . S
C1022 O1044 1.234 . S
C1022 O1045 1.283 . S
C1023 O1035 1.281 . S
C1023 O1036 1.236 . S
C1024 O1046 1.240 . S
C1024 O1047 1.264 . S
O1025 Mn1020 2.095 . S
O1025 C1034 1.250 . S
O1026 Mn1021 2.121 . S
O1026 C1034 1.258 . S
C1027 N1028 1.326 . S
C1027 C1031 1.460 . S
C1027 H1033 0.929 . S
N1028 Mn1021 2.257 . S
N1028 C1027 1.326 . S
N1028 C1032 1.362 . S
C1029 C1030 1.258 . S
C1029 C1032 1.431 . S
C1029 C1049 1.449 . S
C1030 C1029 1.258 . S
C1030 C1031 1.477 . S
C1030 H1050 0.931 . S
C1031 C1027 1.460 . S
C1031 C1030 1.477 . S
C1031 H1051 0.930 . S
C1032 N1028 1.362 . S
C1032 C1029 1.431 . S
C1032 C1042 1.476 . S
H1033 C1027 0.929 . S
C1034 O1025 1.250 . S
C1034 O1026 1.258 . S
O1035 Mn1020 2.162 . S
O1035 C1023 1.281 . S
O1036 Mn1020 2.297 . S
O1036 C1023 1.236 . S
N1037 Mn1021 2.282 . S
N1037 C1038 1.328 . S
N1037 C1042 1.318 . S
C1038 N1037 1.328 . S
C1038 C1039 1.457 . S
C1038 H1043 0.929 . S
C1039 C1038 1.457 . S
C1039 C1040 1.291 . S
C1039 H1052 0.931 . S
C1040 C1039 1.291 . S
C1040 C1041 1.373 . S
C1040 H1053 0.929 . S
C1041 C1040 1.373 . S
C1041 C1042 1.396 . S
C1041 C1048 1.403 . S
C1042 C1032 1.476 . S
C1042 N1037 1.318 . S
C1042 C1041 1.396 . S
H1043 C1038 0.929 . S
O1044 Mn1020 2.385 . S
O1044 C1022 1.234 . S
O1045 Mn1020 2.209 . S
O1045 Mn1021 2.215 . S
O1045 C1022 1.283 . S
O1046 Mn1020 2.094 . S
O1046 C1024 1.240 . S
O1047 Mn1021 2.117 . S
O1047 C1024 1.264 . S
C1048 C1041 1.403 . S
C1048 C1049 1.399 . S
C1048 H1054 0.929 . S
C1049 C1029 1.449 . S
C1049 C1048 1.399 . S
C1049 H1055 0.930 . S
H1050 C1030 0.931 . S
H1051 C1031 0.930 . S
H1052 C1039 0.931 . S
H1053 C1040 0.929 . S
H1054 C1048 0.929 . S
H1055 C1049 0.930 . S
H1056 C1064 0.950 . S
H1057 C1069 0.950 . S
H1058 C1066 0.950 . S
H1059 C1068 0.950 . S
H1060 C1070 0.950 . S
H1061 C1072 0.950 . S
H1062 C1074 0.950 . S
H1063 C1075 0.950 . S
C1064 H1056 0.950 . S
C1064 C1065 1.386 . S
C1064 C1066 1.391 . S
C1065 C1064 1.386 . S
C1065 C1069 1.393 . S
C1066 H1058 0.950 . S
C1066 C1064 1.391 . S
C1066 C1067 1.400 . S
C1067 C1066 1.400 . S
C1067 C1068 1.398 . S
C1067 C1073 1.491 . S
C1068 H1059 0.950 . S
C1068 C1067 1.398 . S
C1068 C1069 1.391 . S
C1069 H1057 0.950 . S
C1069 C1065 1.393 . S
C1069 C1068 1.391 . S
C1070 H1060 0.950 . S
C1070 C1071 1.386 . S
C1070 C1072 1.391 . S
C1071 C1070 1.386 . S
C1071 C1075 1.393 . S
C1072 H1061 0.950 . S
C1072 C1070 1.391 . S
C1072 C1073 1.400 . S
C1073 C1067 1.491 . S
C1073 C1072 1.400 . S
C1073 C1074 1.398 . S
C1074 H1062 0.950 . S
C1074 C1073 1.398 . S
C1074 C1075 1.391 . S
C1075 H1063 0.950 . S
C1075 C1071 1.393 . S
C1075 C1074 1.391 . S
H1076 C1084 0.950 . S
H1077 C1089 0.950 . S
H1078 C1086 0.950 . S
H1079 C1088 0.950 . S
H1080 C1090 0.950 . S
H1081 C1092 0.950 . S
H1082 C1094 0.950 . S
H1083 C1095 0.950 . S
C1084 H1076 0.950 . S
C1084 C1085 1.386 . S
C1084 C1086 1.391 . S
C1085 C1084 1.386 . S
C1085 C1089 1.393 . S
C1086 H1078 0.950 . S
C1086 C1084 1.391 . S
C1086 C1087 1.400 . S
C1087 C1086 1.400 . S
C1087 C1088 1.398 . S
C1087 C1093 1.491 . S
C1088 H1079 0.950 . S
C1088 C1087 1.398 . S
C1088 C1089 1.391 . S
C1089 H1077 0.950 . S
C1089 C1085 1.393 . S
C1089 C1088 1.391 . S
C1090 H1080 0.950 . S
C1090 C1091 1.386 . S
C1090 C1092 1.391 . S
C1091 C1090 1.386 . S
C1091 C1095 1.393 . S
C1092 H1081 0.950 . S
C1092 C1090 1.391 . S
C1092 C1093 1.400 . S
C1093 C1087 1.491 . S
C1093 C1092 1.400 . S
C1093 C1094 1.398 . S
C1094 H1082 0.950 . S
C1094 C1093 1.398 . S
C1094 C1095 1.391 . S
C1095 H1083 0.950 . S
C1095 C1091 1.393 . S
C1095 C1094 1.391 . S
H1096 C1104 0.950 . S
H1097 C1109 0.950 . S
H1098 C1106 0.950 . S
H1099 C1108 0.950 . S
H1100 C1110 0.950 . S
H1101 C1112 0.950 . S
H1102 C1114 0.950 . S
H1103 C1115 0.950 . S
C1104 H1096 0.950 . S
C1104 C1105 1.386 . S
C1104 C1106 1.391 . S
C1105 C1104 1.386 . S
C1105 C1109 1.393 . S
C1106 H1098 0.950 . S
C1106 C1104 1.391 . S
C1106 C1107 1.400 . S
C1107 C1106 1.400 . S
C1107 C1108 1.398 . S
C1107 C1113 1.491 . S
C1108 H1099 0.950 . S
C1108 C1107 1.398 . S
C1108 C1109 1.391 . S
C1109 H1097 0.950 . S
C1109 C1105 1.393 . S
C1109 C1108 1.391 . S
C1110 H1100 0.950 . S
C1110 C1111 1.386 . S
C1110 C1112 1.391 . S
C1111 C1110 1.386 . S
C1111 C1115 1.393 . S
C1112 H1101 0.950 . S
C1112 C1110 1.391 . S
C1112 C1113 1.400 . S
C1113 C1107 1.491 . S
C1113 C1112 1.400 . S
C1113 C1114 1.398 . S
C1114 H1102 0.950 . S
C1114 C1113 1.398 . S
C1114 C1115 1.391 . S
C1115 H1103 0.950 . S
C1115 C1111 1.393 . S
C1115 C1114 1.391 . S
H1116 C1124 0.950 . S
H1117 C1129 0.950 1_545 S
H1118 C1126 0.950 . S
H1119 C1128 0.970 . S
H1120 C1130 0.950 . S
H1121 C1132 0.950 . S
H1122 C1134 0.950 . S
H1123 C1135 0.950 . S
C1124 H1116 0.950 . S
C1124 C1125 1.386 . S
C1124 C1126 1.391 . S
C1125 C1124 1.386 . S
C1125 C1129 1.393 . S
C1126 H1118 0.950 . S
C1126 C1124 1.391 . S
C1126 C1127 1.400 . S
C1127 C1126 1.400 . S
C1127 C1128 1.386 1_565 S
C1127 C1133 1.491 . S
C1128 H1119 0.970 . S
C1128 C1127 1.386 1_545 S
C1128 C1129 1.385 1_545 S
C1129 H1117 0.950 1_565 S
C1129 C1125 1.393 . S
C1129 C1128 1.385 1_565 S
C1130 H1120 0.950 . S
C1130 C1131 1.386 . S
C1130 C1132 1.391 . S
C1131 C1130 1.386 . S
C1131 C1135 1.393 1_545 S
C1132 H1121 0.950 . S
C1132 C1130 1.391 . S
C1132 C1133 1.400 1_545 S
C1133 C1127 1.491 . S
C1133 C1132 1.400 1_565 S
C1133 C1134 1.398 . S
C1134 H1122 0.950 . S
C1134 C1133 1.398 . S
C1134 C1135 1.391 . S
C1135 H1123 0.950 . S
C1135 C1131 1.393 1_565 S
C1135 C1134 1.391 . S
H1136 C1144 0.950 . S
H1137 C1149 0.950 . S
H1138 C1146 0.950 . S
H1139 C1148 0.950 . S
H1140 C1150 0.950 . S
H1141 C1152 0.950 . S
H1142 C1154 0.950 . S
H1143 C1155 0.950 . S
C1144 H1136 0.950 . S
C1144 C1145 1.386 . S
C1144 C1146 1.391 . S
C1145 C1144 1.386 . S
C1145 C1149 1.393 . S
C1146 H1138 0.950 . S
C1146 C1144 1.391 . S
C1146 C1147 1.400 . S
C1147 C1146 1.400 . S
C1147 C1148 1.398 . S
C1147 C1153 1.491 . S
C1148 H1139 0.950 . S
C1148 C1147 1.398 . S
C1148 C1149 1.391 . S
C1149 H1137 0.950 . S
C1149 C1145 1.393 . S
C1149 C1148 1.391 . S
C1150 H1140 0.950 . S
C1150 C1151 1.386 . S
C1150 C1152 1.391 . S
C1151 C1150 1.386 . S
C1151 C1155 1.393 . S
C1152 H1141 0.950 . S
C1152 C1150 1.391 . S
C1152 C1153 1.400 . S
C1153 C1147 1.491 . S
C1153 C1152 1.400 . S
C1153 C1154 1.398 . S
C1154 H1142 0.950 . S
C1154 C1153 1.398 . S
C1154 C1155 1.391 . S
C1155 H1143 0.950 . S
C1155 C1151 1.393 . S
C1155 C1154 1.391 . S
H1156 C1164 0.950 . S
H1157 C1169 0.950 . S
H1158 C1166 0.950 . S
H1159 C1168 0.950 . S
H1160 C1170 0.950 . S
H1161 C1172 0.950 . S
H1162 C1174 0.950 . S
H1163 C1175 0.950 . S
C1164 H1156 0.950 . S
C1164 C1165 1.386 . S
C1164 C1166 1.391 . S
C1165 C1164 1.386 . S
C1165 C1169 1.393 . S
C1166 H1158 0.950 . S
C1166 C1164 1.391 . S
C1166 C1167 1.400 . S
C1167 C1166 1.400 . S
C1167 C1168 1.398 . S
C1167 C1173 1.491 . S
C1168 H1159 0.950 . S
C1168 C1167 1.398 . S
C1168 C1169 1.391 . S
C1169 H1157 0.950 . S
C1169 C1165 1.393 . S
C1169 C1168 1.391 . S
C1170 H1160 0.950 . S
C1170 C1171 1.386 . S
C1170 C1172 1.391 . S
C1171 C1170 1.386 . S
C1171 C1175 1.393 . S
C1172 H1161 0.950 . S
C1172 C1170 1.391 . S
C1172 C1173 1.400 . S
C1173 C1167 1.491 . S
C1173 C1172 1.400 . S
C1173 C1174 1.398 . S
C1174 H1162 0.950 . S
C1174 C1173 1.398 . S
C1174 C1175 1.391 . S
C1175 H1163 0.950 . S
C1175 C1171 1.393 . S
C1175 C1174 1.391 . S
H1176 C1184 0.950 . S
H1177 C1189 0.950 . S
H1178 C1186 0.950 . S
H1179 C1188 0.950 . S
H1180 C1190 0.950 . S
H1181 C1192 0.950 . S
H1182 C1194 0.950 . S
H1183 C1195 0.950 . S
C1184 H1176 0.950 . S
C1184 C1185 1.386 . S
C1184 C1186 1.391 . S
C1185 C1184 1.386 . S
C1185 C1189 1.393 . S
C1186 H1178 0.950 . S
C1186 C1184 1.391 . S
C1186 C1187 1.400 . S
C1187 C1186 1.400 . S
C1187 C1188 1.398 . S
C1187 C1193 1.491 . S
C1188 H1179 0.950 . S
C1188 C1187 1.398 . S
C1188 C1189 1.391 . S
C1189 H1177 0.950 . S
C1189 C1185 1.393 . S
C1189 C1188 1.391 . S
C1190 H1180 0.950 . S
C1190 C1191 1.386 . S
C1190 C1192 1.391 . S
C1191 C1190 1.386 . S
C1191 C1195 1.393 . S
C1192 H1181 0.950 . S
C1192 C1190 1.391 . S
C1192 C1193 1.400 . S
C1193 C1187 1.491 . S
C1193 C1192 1.400 . S
C1193 C1194 1.398 . S
C1194 H1182 0.950 . S
C1194 C1193 1.398 . S
C1194 C1195 1.391 . S
C1195 H1183 0.950 . S
C1195 C1191 1.393 . S
C1195 C1194 1.391 . S
H1196 C1204 0.950 . S
H1197 C1209 0.950 . S
H1198 C1206 0.950 . S
H1199 C1208 0.950 . S
H1200 C1210 0.950 . S
H1201 C1212 0.950 . S
H1202 C1214 0.950 . S
H1203 C1215 0.938 1_545 S
C1204 H1196 0.950 . S
C1204 C1205 1.386 . S
C1204 C1206 1.391 . S
C1205 C1204 1.386 . S
C1205 C1209 1.393 . S
C1206 H1198 0.950 . S
C1206 C1204 1.391 . S
C1206 C1207 1.400 . S
C1207 C1206 1.400 . S
C1207 C1208 1.398 . S
C1207 C1213 1.491 . S
C1208 H1199 0.950 . S
C1208 C1207 1.398 . S
C1208 C1209 1.391 . S
C1209 H1197 0.950 . S
C1209 C1205 1.393 . S
C1209 C1208 1.391 . S
C1210 H1200 0.950 . S
C1210 C1211 1.386 . S
C1210 C1212 1.391 . S
C1211 C1210 1.386 . S
C1211 C1215 1.402 . S
C1212 H1201 0.950 . S
C1212 C1210 1.391 . S
C1212 C1213 1.400 . S
C1213 C1207 1.491 . S
C1213 C1212 1.400 . S
C1213 C1214 1.398 . S
C1214 H1202 0.950 . S
C1214 C1213 1.398 . S
C1214 C1215 1.396 . S
C1215 H1203 0.938 1_565 S
C1215 C1211 1.402 . S
C1215 C1214 1.396 . S
H1216 C1224 0.950 . S
H1217 C1229 0.950 . S
H1218 C1226 0.950 . S
H1219 C1228 0.950 . S
H1220 C1230 0.950 . S
H1221 C1232 0.950 . S
H1222 C1234 0.950 . S
H1223 C1235 0.950 . S
C1224 H1216 0.950 . S
C1224 C1225 1.386 . S
C1224 C1226 1.391 . S
C1225 C1224 1.386 . S
C1225 C1229 1.393 . S
C1226 H1218 0.950 . S
C1226 C1224 1.391 . S
C1226 C1227 1.400 . S
C1227 C1226 1.400 . S
C1227 C1228 1.398 . S
C1227 C1233 1.491 . S
C1228 H1219 0.950 . S
C1228 C1227 1.398 . S
C1228 C1229 1.391 . S
C1229 H1217 0.950 . S
C1229 C1225 1.393 . S
C1229 C1228 1.391 . S
C1230 H1220 0.950 . S
C1230 C1231 1.386 . S
C1230 C1232 1.391 . S
C1231 C1230 1.386 . S
C1231 C1235 1.393 . S
C1232 H1221 0.950 . S
C1232 C1230 1.391 . S
C1232 C1233 1.400 . S
C1233 C1227 1.491 . S
C1233 C1232 1.400 . S
C1233 C1234 1.398 . S
C1234 H1222 0.950 . S
C1234 C1233 1.398 . S
C1234 C1235 1.391 . S
C1235 H1223 0.950 . S
C1235 C1231 1.393 . S
C1235 C1234 1.391 . S
H1236 C1244 0.950 . S
H1237 C1249 0.950 . S
H1238 C1246 0.950 . S
H1239 C1248 0.950 . S
H1240 C1250 0.950 . S
H1241 C1252 0.950 . S
H1242 C1254 0.950 . S
H1243 C1255 0.950 . S
C1244 H1236 0.950 . S
C1244 C1245 1.386 . S
C1244 C1246 1.391 . S
C1245 C1244 1.386 . S
C1245 C1249 1.393 . S
C1246 H1238 0.950 . S
C1246 C1244 1.391 . S
C1246 C1247 1.400 . S
C1247 C1246 1.400 . S
C1247 C1248 1.398 . S
C1247 C1253 1.491 . S
C1248 H1239 0.950 . S
C1248 C1247 1.398 . S
C1248 C1249 1.391 . S
C1249 H1237 0.950 . S
C1249 C1245 1.393 . S
C1249 C1248 1.391 . S
C1250 H1240 0.950 . S
C1250 C1251 1.386 . S
C1250 C1252 1.391 . S
C1251 C1250 1.386 . S
C1251 C1255 1.393 . S
C1252 H1241 0.950 . S
C1252 C1250 1.391 . S
C1252 C1253 1.400 . S
C1253 C1247 1.491 . S
C1253 C1252 1.400 . S
C1253 C1254 1.398 . S
C1254 H1242 0.950 . S
C1254 C1253 1.398 . S
C1254 C1255 1.391 . S
C1255 H1243 0.950 . S
C1255 C1251 1.393 . S
C1255 C1254 1.391 . S
H1256 C1264 0.950 . S
H1257 C1269 0.950 . S
H1258 C1266 0.950 . S
H1259 C1268 0.950 . S
H1260 C1270 0.950 . S
H1261 C1272 0.950 . S
H1262 C1274 0.950 . S
H1263 C1275 0.950 . S
C1264 H1256 0.950 . S
C1264 C1265 1.386 . S
C1264 C1266 1.391 . S
C1265 C1264 1.386 . S
C1265 C1269 1.393 . S
C1266 H1258 0.950 . S
C1266 C1264 1.391 . S
C1266 C1267 1.400 . S
C1267 C1266 1.400 . S
C1267 C1268 1.398 . S
C1267 C1273 1.491 . S
C1268 H1259 0.950 . S
C1268 C1267 1.398 . S
C1268 C1269 1.391 . S
C1269 H1257 0.950 . S
C1269 C1265 1.393 . S
C1269 C1268 1.391 . S
C1270 H1260 0.950 . S
C1270 C1271 1.386 . S
C1270 C1272 1.391 . S
C1271 C1270 1.386 . S
C1271 C1275 1.393 . S
C1272 H1261 0.950 . S
C1272 C1270 1.391 . S
C1272 C1273 1.400 . S
C1273 C1267 1.491 . S
C1273 C1272 1.400 . S
C1273 C1274 1.398 . S
C1274 H1262 0.950 . S
C1274 C1273 1.398 . S
C1274 C1275 1.391 . S
C1275 H1263 0.950 . S
C1275 C1271 1.393 . S
C1275 C1274 1.391 . S
H1276 C1284 0.950 . S
H1277 C1289 0.950 . S
H1278 C1286 0.950 . S
H1279 C1288 0.950 . S
H1280 C1290 0.950 . S
H1281 C1292 0.950 . S
H1282 C1294 0.950 . S
H1283 C1295 0.950 . S
C1284 H1276 0.950 . S
C1284 C1285 1.386 . S
C1284 C1286 1.391 . S
C1285 C1284 1.386 . S
C1285 C1289 1.393 . S
C1286 H1278 0.950 . S
C1286 C1284 1.391 . S
C1286 C1287 1.400 . S
C1287 C1286 1.400 . S
C1287 C1288 1.398 . S
C1287 C1293 1.491 . S
C1288 H1279 0.950 . S
C1288 C1287 1.398 . S
C1288 C1289 1.391 . S
C1289 H1277 0.950 . S
C1289 C1285 1.393 . S
C1289 C1288 1.391 . S
C1290 H1280 0.950 . S
C1290 C1291 1.386 . S
C1290 C1292 1.391 . S
C1291 C1290 1.386 . S
C1291 C1295 1.393 . S
C1292 H1281 0.950 . S
C1292 C1290 1.391 . S
C1292 C1293 1.400 . S
C1293 C1287 1.491 . S
C1293 C1292 1.400 . S
C1293 C1294 1.398 . S
C1294 H1282 0.950 . S
C1294 C1293 1.398 . S
C1294 C1295 1.391 . S
C1295 H1283 0.950 . S
C1295 C1291 1.393 . S
C1295 C1294 1.391 . S
H1296 C1304 0.950 . S
H1297 C1309 0.950 . S
H1298 C1306 0.950 . S
H1299 C1308 0.950 . S
H1300 C1310 0.950 . S
H1301 C1312 0.950 . S
H1302 C1314 0.950 . S
H1303 C1315 0.950 . S
C1304 H1296 0.950 . S
C1304 C1305 1.386 . S
C1304 C1306 1.391 . S
C1305 C1304 1.386 . S
C1305 C1309 1.393 . S
C1306 H1298 0.950 . S
C1306 C1304 1.391 . S
C1306 C1307 1.400 . S
C1307 C1306 1.400 . S
C1307 C1308 1.398 . S
C1307 C1313 1.491 . S
C1308 H1299 0.950 . S
C1308 C1307 1.398 . S
C1308 C1309 1.391 . S
C1309 H1297 0.950 . S
C1309 C1305 1.393 . S
C1309 C1308 1.391 . S
C1310 H1300 0.950 . S
C1310 C1311 1.386 . S
C1310 C1312 1.391 . S
C1311 C1310 1.386 . S
C1311 C1315 1.393 . S
C1312 H1301 0.950 . S
C1312 C1310 1.391 . S
C1312 C1313 1.400 . S
C1313 C1307 1.491 . S
C1313 C1312 1.400 . S
C1313 C1314 1.398 . S
C1314 H1302 0.950 . S
C1314 C1313 1.398 . S
C1314 C1315 1.391 . S
C1315 H1303 0.950 . S
C1315 C1311 1.393 . S
C1315 C1314 1.391 . S
H1316 C1324 0.950 1_655 S
H1317 C1329 0.950 . S
H1318 C1326 0.950 1_655 S
H1319 C1328 0.950 . S
H1320 C1330 0.950 . S
H1321 C1332 0.950 . S
H1322 C1334 0.950 . S
H1323 C1335 0.950 . S
C1324 H1316 0.950 1_455 S
C1324 C1325 1.386 . S
C1324 C1326 1.391 . S
C1325 C1324 1.386 . S
C1325 C1329 1.393 . S
C1326 H1318 0.950 1_455 S
C1326 C1324 1.391 . S
C1326 C1327 1.400 . S
C1327 C1326 1.400 . S
C1327 C1328 1.398 . S
C1327 C1333 1.491 . S
C1328 H1319 0.950 . S
C1328 C1327 1.398 . S
C1328 C1329 1.391 . S
C1329 H1317 0.950 . S
C1329 C1325 1.393 . S
C1329 C1328 1.391 . S
C1330 H1320 0.950 . S
C1330 C1331 1.386 . S
C1330 C1332 1.391 . S
C1331 C1330 1.386 . S
C1331 C1335 1.393 1_455 S
C1332 H1321 0.950 . S
C1332 C1330 1.391 . S
C1332 C1333 1.400 . S
C1333 C1327 1.491 . S
C1333 C1332 1.400 . S
C1333 C1334 1.398 1_455 S
C1334 H1322 0.950 . S
C1334 C1333 1.398 1_655 S
C1334 C1335 1.391 . S
C1335 H1323 0.950 . S
C1335 C1331 1.393 1_655 S
C1335 C1334 1.391 . S
H1336 C1344 0.950 . S
H1337 C1349 0.950 . S
H1338 C1346 0.950 . S
H1339 C1348 0.950 . S
H1340 C1350 0.950 . S
H1341 C1352 0.950 . S
H1342 C1354 0.950 . S
H1343 C1355 0.950 . S
C1344 H1336 0.950 . S
C1344 C1345 1.386 . S
C1344 C1346 1.391 . S
C1345 C1344 1.386 . S
C1345 C1349 1.393 . S
C1346 H1338 0.950 . S
C1346 C1344 1.391 . S
C1346 C1347 1.400 . S
C1347 C1346 1.400 . S
C1347 C1348 1.398 . S
C1347 C1353 1.491 . S
C1348 H1339 0.950 . S
C1348 C1347 1.398 . S
C1348 C1349 1.391 . S
C1349 H1337 0.950 . S
C1349 C1345 1.393 . S
C1349 C1348 1.391 . S
C1350 H1340 0.950 . S
C1350 C1351 1.386 . S
C1350 C1352 1.391 . S
C1351 C1350 1.386 . S
C1351 C1355 1.393 . S
C1352 H1341 0.950 . S
C1352 C1350 1.391 . S
C1352 C1353 1.400 . S
C1353 C1347 1.491 . S
C1353 C1352 1.400 . S
C1353 C1354 1.398 . S
C1354 H1342 0.950 . S
C1354 C1353 1.398 . S
C1354 C1355 1.391 . S
C1355 H1343 0.950 . S
C1355 C1351 1.393 . S
C1355 C1354 1.391 . S
H1356 C1364 0.950 . S
H1357 C1369 0.950 1_455 S
H1358 C1366 0.950 . S
H1359 C1368 0.976 . S
H1360 C1370 0.950 . S
H1361 C1372 0.950 . S
H1362 C1374 0.950 . S
H1363 C1375 0.950 . S
C1364 H1356 0.950 . S
C1364 C1365 1.386 . S
C1364 C1366 1.391 . S
C1365 C1364 1.386 . S
C1365 C1369 1.393 . S
C1366 H1358 0.950 . S
C1366 C1364 1.391 . S
C1366 C1367 1.400 . S
C1367 C1366 1.400 . S
C1367 C1368 1.379 1_655 S
C1367 C1373 1.491 . S
C1368 H1359 0.976 . S
C1368 C1367 1.379 1_455 S
C1368 C1369 1.387 1_455 S
C1369 H1357 0.950 1_655 S
C1369 C1365 1.393 . S
C1369 C1368 1.387 1_655 S
C1370 H1360 0.950 . S
C1370 C1371 1.371 1_455 S
C1370 C1372 1.391 . S
C1371 C1370 1.371 1_655 S
C1371 C1375 1.412 . S
C1372 H1361 0.950 . S
C1372 C1370 1.391 . S
C1372 C1373 1.400 1_455 S
C1373 C1367 1.491 . S
C1373 C1372 1.400 1_655 S
C1373 C1374 1.398 . S
C1374 H1362 0.950 . S
C1374 C1373 1.398 . S
C1374 C1375 1.391 . S
C1375 H1363 0.950 . S
C1375 C1371 1.412 . S
C1375 C1374 1.391 . S
H1376 C1384 0.950 . S
H1377 C1389 0.950 . S
H1378 C1386 0.950 . S
H1379 C1388 0.950 . S
H1380 C1390 0.950 . S
H1381 C1392 0.950 . S
H1382 C1394 0.950 . S
H1383 C1395 0.950 . S
C1384 H1376 0.950 . S
C1384 C1385 1.386 . S
C1384 C1386 1.391 . S
C1385 C1384 1.386 . S
C1385 C1389 1.393 . S
C1386 H1378 0.950 . S
C1386 C1384 1.391 . S
C1386 C1387 1.400 . S
C1387 C1386 1.400 . S
C1387 C1388 1.398 . S
C1387 C1393 1.491 . S
C1388 H1379 0.950 . S
C1388 C1387 1.398 . S
C1388 C1389 1.391 . S
C1389 H1377 0.950 . S
C1389 C1385 1.393 . S
C1389 C1388 1.391 . S
C1390 H1380 0.950 . S
C1390 C1391 1.386 . S
C1390 C1392 1.391 . S
C1391 C1390 1.386 . S
C1391 C1395 1.393 . S
C1392 H1381 0.950 . S
C1392 C1390 1.391 . S
C1392 C1393 1.400 . S
C1393 C1387 1.491 . S
C1393 C1392 1.400 . S
C1393 C1394 1.398 . S
C1394 H1382 0.950 . S
C1394 C1393 1.398 . S
C1394 C1395 1.391 . S
C1395 H1383 0.950 . S
C1395 C1391 1.393 . S
C1395 C1394 1.391 . S
H1396 C1404 0.950 . S
H1397 C1409 0.950 . S
H1398 C1406 0.950 . S
H1399 C1408 0.950 . S
H1400 C1410 0.950 . S
H1401 C1412 0.950 . S
H1402 C1414 0.950 . S
H1403 C1415 0.950 . S
C1404 H1396 0.950 . S
C1404 C1405 1.386 . S
C1404 C1406 1.391 . S
C1405 C1404 1.386 . S
C1405 C1409 1.393 . S
C1406 H1398 0.950 . S
C1406 C1404 1.391 . S
C1406 C1407 1.400 . S
C1407 C1406 1.400 . S
C1407 C1408 1.398 . S
C1407 C1413 1.491 . S
C1408 H1399 0.950 . S
C1408 C1407 1.398 . S
C1408 C1409 1.391 . S
C1409 H1397 0.950 . S
C1409 C1405 1.393 . S
C1409 C1408 1.391 . S
C1410 H1400 0.950 . S
C1410 C1411 1.386 . S
C1410 C1412 1.391 . S
C1411 C1410 1.386 . S
C1411 C1415 1.393 . S
C1412 H1401 0.950 . S
C1412 C1410 1.391 . S
C1412 C1413 1.400 . S
C1413 C1407 1.491 . S
C1413 C1412 1.400 . S
C1413 C1414 1.398 . S
C1414 H1402 0.950 . S
C1414 C1413 1.398 . S
C1414 C1415 1.391 . S
C1415 H1403 0.950 . S
C1415 C1411 1.393 . S
C1415 C1414 1.391 . S
H1416 C1424 0.950 . S
H1417 C1429 0.978 . S
H1418 C1426 0.950 . S
H1419 C1428 0.950 . S
H1420 C1430 0.950 . S
H1421 C1432 0.950 . S
H1422 C1434 0.950 . S
H1423 C1435 0.950 . S
C1424 H1416 0.950 . S
C1424 C1425 1.386 . S
C1424 C1426 1.391 . S
C1425 C1424 1.386 . S
C1425 C1429 1.358 1_556 S
C1426 H1418 0.950 . S
C1426 C1424 1.391 . S
C1426 C1427 1.400 . S
C1427 C1426 1.400 . S
C1427 C1428 1.398 1_556 S
C1427 C1433 1.491 . S
C1428 H1419 0.950 . S
C1428 C1427 1.398 1_554 S
C1428 C1429 1.400 . S
C1429 H1417 0.978 . S
C1429 C1425 1.358 1_554 S
C1429 C1428 1.400 . S
C1430 H1420 0.950 . S
C1430 C1431 1.386 . S
C1430 C1432 1.391 . S
C1431 C1430 1.386 . S
C1431 C1435 1.393 1_554 S
C1432 H1421 0.950 . S
C1432 C1430 1.391 . S
C1432 C1433 1.400 1_554 S
C1433 C1427 1.491 . S
C1433 C1432 1.400 1_556 S
C1433 C1434 1.398 . S
C1434 H1422 0.950 . S
C1434 C1433 1.398 . S
C1434 C1435 1.391 . S
C1435 H1423 0.950 . S
C1435 C1431 1.393 1_556 S
C1435 C1434 1.391 . S
H1436 C1444 0.950 . S
H1437 C1449 0.950 . S
H1438 C1446 0.950 . S
H1439 C1448 0.950 . S
H1440 C1450 0.950 . S
H1441 C1452 0.950 . S
H1442 C1454 0.950 . S
H1443 C1455 0.950 . S
C1444 H1436 0.950 . S
C1444 C1445 1.386 . S
C1444 C1446 1.391 . S
C1445 C1444 1.386 . S
C1445 C1449 1.393 . S
C1446 H1438 0.950 . S
C1446 C1444 1.391 . S
C1446 C1447 1.400 . S
C1447 C1446 1.400 . S
C1447 C1448 1.398 . S
C1447 C1453 1.491 . S
C1448 H1439 0.950 . S
C1448 C1447 1.398 . S
C1448 C1449 1.391 . S
C1449 H1437 0.950 . S
C1449 C1445 1.393 . S
C1449 C1448 1.391 . S
C1450 H1440 0.950 . S
C1450 C1451 1.386 . S
C1450 C1452 1.391 . S
C1451 C1450 1.386 . S
C1451 C1455 1.393 . S
C1452 H1441 0.950 . S
C1452 C1450 1.391 . S
C1452 C1453 1.400 . S
C1453 C1447 1.491 . S
C1453 C1452 1.400 . S
C1453 C1454 1.398 . S
C1454 H1442 0.950 . S
C1454 C1453 1.398 . S
C1454 C1455 1.391 . S
C1455 H1443 0.950 . S
C1455 C1451 1.393 . S
C1455 C1454 1.391 . S
H1456 C1464 0.950 . S
H1457 C1469 0.950 . S
H1458 C1466 0.950 . S
H1459 C1468 0.950 . S
H1460 C1470 0.950 . S
H1461 C1472 0.950 . S
H1462 C1474 0.950 . S
H1463 C1475 0.950 . S
C1464 H1456 0.950 . S
C1464 C1465 1.386 . S
C1464 C1466 1.391 . S
C1465 C1464 1.386 . S
C1465 C1469 1.393 . S
C1466 H1458 0.950 . S
C1466 C1464 1.391 . S
C1466 C1467 1.400 . S
C1467 C1466 1.400 . S
C1467 C1468 1.398 . S
C1467 C1473 1.491 . S
C1468 H1459 0.950 . S
C1468 C1467 1.398 . S
C1468 C1469 1.391 . S
C1469 H1457 0.950 . S
C1469 C1465 1.393 . S
C1469 C1468 1.391 . S
C1470 H1460 0.950 . S
C1470 C1471 1.386 . S
C1470 C1472 1.391 . S
C1471 C1470 1.386 . S
C1471 C1475 1.393 . S
C1472 H1461 0.950 . S
C1472 C1470 1.391 . S
C1472 C1473 1.400 . S
C1473 C1467 1.491 . S
C1473 C1472 1.400 . S
C1473 C1474 1.398 . S
C1474 H1462 0.950 . S
C1474 C1473 1.398 . S
C1474 C1475 1.391 . S
C1475 H1463 0.950 . S
C1475 C1471 1.393 . S
C1475 C1474 1.391 . S
H1476 C1484 0.950 . S
H1477 C1489 0.950 . S
H1478 C1486 0.950 . S
H1479 C1488 0.950 . S
H1480 C1490 0.950 . S
H1481 C1492 0.950 . S
H1482 C1494 0.950 . S
H1483 C1495 0.950 . S
C1484 H1476 0.950 . S
C1484 C1485 1.386 . S
C1484 C1486 1.391 . S
C1485 C1484 1.386 . S
C1485 C1489 1.393 . S
C1486 H1478 0.950 . S
C1486 C1484 1.391 . S
C1486 C1487 1.400 . S
C1487 C1486 1.400 . S
C1487 C1488 1.398 . S
C1487 C1493 1.491 . S
C1488 H1479 0.950 . S
C1488 C1487 1.398 . S
C1488 C1489 1.391 . S
C1489 H1477 0.950 . S
C1489 C1485 1.393 . S
C1489 C1488 1.391 . S
C1490 H1480 0.950 . S
C1490 C1491 1.386 . S
C1490 C1492 1.391 . S
C1491 C1490 1.386 . S
C1491 C1495 1.393 . S
C1492 H1481 0.950 . S
C1492 C1490 1.391 . S
C1492 C1493 1.400 . S
C1493 C1487 1.491 . S
C1493 C1492 1.400 . S
C1493 C1494 1.398 . S
C1494 H1482 0.950 . S
C1494 C1493 1.398 . S
C1494 C1495 1.391 . S
C1495 H1483 0.950 . S
C1495 C1491 1.393 . S
C1495 C1494 1.391 . S
H1496 C1504 0.950 . S
H1497 C1509 0.950 . S
H1498 C1506 0.950 . S
H1499 C1508 0.950 . S
H1500 C1510 0.950 . S
H1501 C1512 0.950 . S
H1502 C1514 0.950 . S
H1503 C1515 0.950 . S
C1504 H1496 0.950 . S
C1504 C1505 1.386 . S
C1504 C1506 1.391 . S
C1505 C1504 1.386 . S
C1505 C1509 1.393 . S
C1506 H1498 0.950 . S
C1506 C1504 1.391 . S
C1506 C1507 1.400 . S
C1507 C1506 1.400 . S
C1507 C1508 1.398 . S
C1507 C1513 1.491 . S
C1508 H1499 0.950 . S
C1508 C1507 1.398 . S
C1508 C1509 1.391 . S
C1509 H1497 0.950 . S
C1509 C1505 1.393 . S
C1509 C1508 1.391 . S
C1510 H1500 0.950 . S
C1510 C1511 1.386 . S
C1510 C1512 1.391 . S
C1511 C1510 1.386 . S
C1511 C1515 1.393 . S
C1512 H1501 0.950 . S
C1512 C1510 1.391 . S
C1512 C1513 1.400 . S
C1513 C1507 1.491 . S
C1513 C1512 1.400 . S
C1513 C1514 1.398 . S
C1514 H1502 0.950 . S
C1514 C1513 1.398 . S
C1514 C1515 1.391 . S
C1515 H1503 0.950 . S
C1515 C1511 1.393 . S
C1515 C1514 1.391 . S
H1516 C1524 0.950 . S
H1517 C1529 0.950 . S
H1518 C1526 0.950 . S
H1519 C1528 0.950 . S
H1520 C1530 0.950 . S
H1521 C1532 0.950 . S
H1522 C1534 0.950 . S
H1523 C1535 0.950 . S
C1524 H1516 0.950 . S
C1524 C1525 1.386 . S
C1524 C1526 1.391 . S
C1525 C1524 1.386 . S
C1525 C1529 1.393 . S
C1526 H1518 0.950 . S
C1526 C1524 1.391 . S
C1526 C1527 1.400 . S
C1527 C1526 1.400 . S
C1527 C1528 1.398 . S
C1527 C1533 1.491 . S
C1528 H1519 0.950 . S
C1528 C1527 1.398 . S
C1528 C1529 1.391 . S
C1529 H1517 0.950 . S
C1529 C1525 1.393 . S
C1529 C1528 1.391 . S
C1530 H1520 0.950 . S
C1530 C1531 1.386 . S
C1530 C1532 1.391 . S
C1531 C1530 1.386 . S
C1531 C1535 1.393 . S
C1532 H1521 0.950 . S
C1532 C1530 1.391 . S
C1532 C1533 1.400 . S
C1533 C1527 1.491 . S
C1533 C1532 1.400 . S
C1533 C1534 1.398 . S
C1534 H1522 0.950 . S
C1534 C1533 1.398 . S
C1534 C1535 1.391 . S
C1535 H1523 0.950 . S
C1535 C1531 1.393 . S
C1535 C1534 1.391 . S
H1536 C1544 0.950 . S
H1537 C1549 0.950 . S
H1538 C1546 0.950 . S
H1539 C1548 0.950 . S
H1540 C1550 0.950 . S
H1541 C1552 0.950 . S
H1542 C1554 0.950 . S
H1543 C1555 0.950 . S
C1544 H1536 0.950 . S
C1544 C1545 1.386 . S
C1544 C1546 1.391 . S
C1545 C1544 1.386 . S
C1545 C1549 1.393 . S
C1546 H1538 0.950 . S
C1546 C1544 1.391 . S
C1546 C1547 1.400 . S
C1547 C1546 1.400 . S
C1547 C1548 1.398 . S
C1547 C1553 1.491 . S
C1548 H1539 0.950 . S
C1548 C1547 1.398 . S
C1548 C1549 1.391 . S
C1549 H1537 0.950 . S
C1549 C1545 1.393 . S
C1549 C1548 1.391 . S
C1550 H1540 0.950 . S
C1550 C1551 1.386 . S
C1550 C1552 1.391 . S
C1551 C1550 1.386 . S
C1551 C1555 1.393 . S
C1552 H1541 0.950 . S
C1552 C1550 1.391 . S
C1552 C1553 1.400 . S
C1553 C1547 1.491 . S
C1553 C1552 1.400 . S
C1553 C1554 1.398 . S
C1554 H1542 0.950 . S
C1554 C1553 1.398 . S
C1554 C1555 1.391 . S
C1555 H1543 0.950 . S
C1555 C1551 1.393 . S
C1555 C1554 1.391 . S
H1556 C1564 0.950 . S
H1557 C1569 0.950 . S
H1558 C1566 0.950 . S
H1559 C1568 0.950 . S
H1560 C1570 0.950 . S
H1561 C1572 0.950 1_565 S
H1562 C1574 0.950 . S
H1563 C1575 0.950 . S
C1564 H1556 0.950 . S
C1564 C1565 1.386 . S
C1564 C1566 1.391 . S
C1565 C1564 1.386 . S
C1565 C1569 1.393 . S
C1566 H1558 0.950 . S
C1566 C1564 1.391 . S
C1566 C1567 1.400 . S
C1567 C1566 1.400 . S
C1567 C1568 1.398 . S
C1567 C1573 1.491 . S
C1568 H1559 0.950 . S
C1568 C1567 1.398 . S
C1568 C1569 1.391 . S
C1569 H1557 0.950 . S
C1569 C1565 1.393 . S
C1569 C1568 1.391 . S
C1570 H1560 0.950 . S
C1570 C1571 1.386 1_565 S
C1570 C1572 1.391 1_565 S
C1571 C1570 1.386 1_545 S
C1571 C1575 1.393 . S
C1572 H1561 0.950 1_545 S
C1572 C1570 1.391 1_545 S
C1572 C1573 1.400 . S
C1573 C1567 1.491 . S
C1573 C1572 1.400 . S
C1573 C1574 1.398 . S
C1574 H1562 0.950 . S
C1574 C1573 1.398 . S
C1574 C1575 1.391 . S
C1575 H1563 0.950 . S
C1575 C1571 1.393 . S
C1575 C1574 1.391 . S
H1576 C1584 0.950 . S
H1577 C1589 0.950 . S
H1578 C1586 0.950 . S
H1579 C1588 0.950 . S
H1580 C1590 0.950 . S
H1581 C1592 0.950 . S
H1582 C1594 0.950 . S
H1583 C1595 0.950 . S
C1584 H1576 0.950 . S
C1584 C1585 1.386 . S
C1584 C1586 1.391 . S
C1585 C1584 1.386 . S
C1585 C1589 1.393 . S
C1586 H1578 0.950 . S
C1586 C1584 1.391 . S
C1586 C1587 1.400 . S
C1587 C1586 1.400 . S
C1587 C1588 1.398 . S
C1587 C1593 1.491 . S
C1588 H1579 0.950 . S
C1588 C1587 1.398 . S
C1588 C1589 1.391 . S
C1589 H1577 0.950 . S
C1589 C1585 1.393 . S
C1589 C1588 1.391 . S
C1590 H1580 0.950 . S
C1590 C1591 1.386 . S
C1590 C1592 1.391 . S
C1591 C1590 1.386 . S
C1591 C1595 1.393 . S
C1592 H1581 0.950 . S
C1592 C1590 1.391 . S
C1592 C1593 1.400 . S
C1593 C1587 1.491 . S
C1593 C1592 1.400 . S
C1593 C1594 1.398 . S
C1594 H1582 0.950 . S
C1594 C1593 1.398 . S
C1594 C1595 1.391 . S
C1595 H1583 0.950 . S
C1595 C1591 1.393 . S
C1595 C1594 1.391 . S
H1596 C1604 0.950 . S
H1597 C1609 0.950 . S
H1598 C1606 0.950 . S
H1599 C1608 0.950 . S
H1600 C1610 0.950 . S
H1601 C1612 0.950 . S
H1602 C1614 0.950 . S
H1603 C1615 0.950 . S
C1604 H1596 0.950 . S
C1604 C1605 1.386 . S
C1604 C1606 1.391 . S
C1605 C1604 1.386 . S
C1605 C1609 1.393 . S
C1606 H1598 0.950 . S
C1606 C1604 1.391 . S
C1606 C1607 1.400 . S
C1607 C1606 1.400 . S
C1607 C1608 1.398 . S
C1607 C1613 1.491 . S
C1608 H1599 0.950 . S
C1608 C1607 1.398 . S
C1608 C1609 1.391 . S
C1609 H1597 0.950 . S
C1609 C1605 1.393 . S
C1609 C1608 1.391 . S
C1610 H1600 0.950 . S
C1610 C1611 1.386 . S
C1610 C1612 1.391 . S
C1611 C1610 1.386 . S
C1611 C1615 1.393 . S
C1612 H1601 0.950 . S
C1612 C1610 1.391 . S
C1612 C1613 1.400 . S
C1613 C1607 1.491 . S
C1613 C1612 1.400 . S
C1613 C1614 1.398 . S
C1614 H1602 0.950 . S
C1614 C1613 1.398 . S
C1614 C1615 1.391 . S
C1615 H1603 0.950 . S
C1615 C1611 1.393 . S
C1615 C1614 1.391 . S
H1616 C1624 0.950 . S
H1617 C1629 0.950 . S
H1618 C1626 0.950 . S
H1619 C1628 0.950 . S
H1620 C1630 0.950 . S
H1621 C1632 0.950 . S
H1622 C1634 0.950 . S
H1623 C1635 0.950 . S
C1624 H1616 0.950 . S
C1624 C1625 1.386 . S
C1624 C1626 1.391 . S
C1625 C1624 1.386 . S
C1625 C1629 1.393 . S
C1626 H1618 0.950 . S
C1626 C1624 1.391 . S
C1626 C1627 1.400 . S
C1627 C1626 1.400 . S
C1627 C1628 1.398 . S
C1627 C1633 1.491 . S
C1628 H1619 0.950 . S
C1628 C1627 1.398 . S
C1628 C1629 1.391 . S
C1629 H1617 0.950 . S
C1629 C1625 1.393 . S
C1629 C1628 1.391 . S
C1630 H1620 0.950 . S
C1630 C1631 1.386 . S
C1630 C1632 1.391 . S
C1631 C1630 1.386 . S
C1631 C1635 1.393 . S
C1632 H1621 0.950 . S
C1632 C1630 1.391 . S
C1632 C1633 1.400 . S
C1633 C1627 1.491 . S
C1633 C1632 1.400 . S
C1633 C1634 1.398 . S
C1634 H1622 0.950 . S
C1634 C1633 1.398 . S
C1634 C1635 1.391 . S
C1635 H1623 0.950 . S
C1635 C1631 1.393 . S
C1635 C1634 1.391 . S
H1636 C1644 0.950 1_565 S
H1637 C1649 0.950 . S
H1638 C1646 0.950 1_565 S
H1639 C1648 0.950 . S
H1640 C1650 0.950 . S
H1641 C1652 0.950 . S
H1642 C1654 0.950 . S
H1643 C1655 0.950 . S
C1644 H1636 0.950 1_545 S
C1644 C1645 1.386 . S
C1644 C1646 1.391 . S
C1645 C1644 1.386 . S
C1645 C1649 1.393 . S
C1646 H1638 0.950 1_545 S
C1646 C1644 1.391 . S
C1646 C1647 1.400 . S
C1647 C1646 1.400 . S
C1647 C1648 1.398 . S
C1647 C1653 1.491 . S
C1648 H1639 0.950 . S
C1648 C1647 1.398 . S
C1648 C1649 1.391 . S
C1649 H1637 0.950 . S
C1649 C1645 1.393 . S
C1649 C1648 1.391 . S
C1650 H1640 0.950 . S
C1650 C1651 1.386 . S
C1650 C1652 1.391 . S
C1651 C1650 1.386 . S
C1651 C1655 1.393 1_545 S
C1652 H1641 0.950 . S
C1652 C1650 1.391 . S
C1652 C1653 1.400 . S
C1653 C1647 1.491 . S
C1653 C1652 1.400 . S
C1653 C1654 1.398 1_545 S
C1654 H1642 0.950 . S
C1654 C1653 1.398 1_565 S
C1654 C1655 1.391 . S
C1655 H1643 0.950 . S
C1655 C1651 1.393 1_565 S
C1655 C1654 1.391 . S
H1656 C1664 0.950 . S
H1657 C1669 0.950 . S
H1658 C1666 0.950 . S
H1659 C1668 0.950 . S
H1660 C1670 0.950 . S
H1661 C1672 0.950 . S
H1662 C1674 0.950 . S
H1663 C1675 0.950 . S
C1664 H1656 0.950 . S
C1664 C1665 1.386 . S
C1664 C1666 1.391 . S
C1665 C1664 1.386 . S
C1665 C1669 1.393 . S
C1666 H1658 0.950 . S
C1666 C1664 1.391 . S
C1666 C1667 1.400 . S
C1667 C1666 1.400 . S
C1667 C1668 1.398 . S
C1667 C1673 1.491 . S
C1668 H1659 0.950 . S
C1668 C1667 1.398 . S
C1668 C1669 1.391 . S
C1669 H1657 0.950 . S
C1669 C1665 1.393 . S
C1669 C1668 1.391 . S
C1670 H1660 0.950 . S
C1670 C1671 1.386 . S
C1670 C1672 1.391 . S
C1671 C1670 1.386 . S
C1671 C1675 1.393 . S
C1672 H1661 0.950 . S
C1672 C1670 1.391 . S
C1672 C1673 1.400 . S
C1673 C1667 1.491 . S
C1673 C1672 1.400 . S
C1673 C1674 1.398 . S
C1674 H1662 0.950 . S
C1674 C1673 1.398 . S
C1674 C1675 1.391 . S
C1675 H1663 0.950 . S
C1675 C1671 1.393 . S
C1675 C1674 1.391 . S
H1676 C1684 0.950 . S
H1677 C1689 0.950 . S
H1678 C1686 0.950 . S
H1679 C1688 0.950 . S
H1680 C1690 0.950 . S
H1681 C1692 0.950 . S
H1682 C1694 0.950 . S
H1683 C1695 0.950 . S
C1684 H1676 0.950 . S
C1684 C1685 1.386 . S
C1684 C1686 1.391 . S
C1685 C1684 1.386 . S
C1685 C1689 1.393 . S
C1686 H1678 0.950 . S
C1686 C1684 1.391 . S
C1686 C1687 1.400 . S
C1687 C1686 1.400 . S
C1687 C1688 1.398 . S
C1687 C1693 1.491 . S
C1688 H1679 0.950 . S
C1688 C1687 1.398 . S
C1688 C1689 1.391 . S
C1689 H1677 0.950 . S
C1689 C1685 1.393 . S
C1689 C1688 1.391 . S
C1690 H1680 0.950 . S
C1690 C1691 1.386 . S
C1690 C1692 1.391 . S
C1691 C1690 1.386 . S
C1691 C1695 1.393 . S
C1692 H1681 0.950 . S
C1692 C1690 1.391 . S
C1692 C1693 1.400 . S
C1693 C1687 1.491 . S
C1693 C1692 1.400 . S
C1693 C1694 1.398 . S
C1694 H1682 0.950 . S
C1694 C1693 1.398 . S
C1694 C1695 1.391 . S
C1695 H1683 0.950 . S
C1695 C1691 1.393 . S
C1695 C1694 1.391 . S
H1696 C1704 0.950 . S
H1697 C1709 0.950 . S
H1698 C1706 0.950 . S
H1699 C1708 0.950 . S
H1700 C1710 0.950 . S
H1701 C1712 0.950 . S
H1702 C1714 0.950 . S
H1703 C1715 0.950 . S
C1704 H1696 0.950 . S
C1704 C1705 1.386 . S
C1704 C1706 1.391 . S
C1705 C1704 1.386 . S
C1705 C1709 1.393 . S
C1706 H1698 0.950 . S
C1706 C1704 1.391 . S
C1706 C1707 1.400 . S
C1707 C1706 1.400 . S
C1707 C1708 1.398 . S
C1707 C1713 1.491 . S
C1708 H1699 0.950 . S
C1708 C1707 1.398 . S
C1708 C1709 1.391 . S
C1709 H1697 0.950 . S
C1709 C1705 1.393 . S
C1709 C1708 1.391 . S
C1710 H1700 0.950 . S
C1710 C1711 1.386 . S
C1710 C1712 1.391 . S
C1711 C1710 1.386 . S
C1711 C1715 1.393 . S
C1712 H1701 0.950 . S
C1712 C1710 1.391 . S
C1712 C1713 1.400 . S
C1713 C1707 1.491 . S
C1713 C1712 1.400 . S
C1713 C1714 1.398 . S
C1714 H1702 0.950 . S
C1714 C1713 1.398 . S
C1714 C1715 1.391 . S
C1715 H1703 0.950 . S
C1715 C1711 1.393 . S
C1715 C1714 1.391 . S
H1716 C1724 0.950 . S
H1717 C1729 0.950 . S
H1718 C1726 0.929 1_455 S
H1719 C1728 0.950 . S
H1720 C1730 0.950 . S
H1721 C1732 0.950 . S
H1722 C1734 0.950 . S
H1723 C1735 0.950 . S
C1724 H1716 0.950 . S
C1724 C1725 1.386 . S
C1724 C1726 1.391 . S
C1725 C1724 1.386 . S
C1725 C1729 1.393 . S
C1726 H1718 0.929 1_655 S
C1726 C1724 1.391 . S
C1726 C1727 1.400 . S
C1727 C1726 1.400 . S
C1727 C1728 1.398 . S
C1727 C1733 1.491 . S
C1728 H1719 0.950 . S
C1728 C1727 1.398 . S
C1728 C1729 1.391 . S
C1729 H1717 0.950 . S
C1729 C1725 1.393 . S
C1729 C1728 1.391 . S
C1730 H1720 0.950 . S
C1730 C1731 1.386 . S
C1730 C1732 1.391 . S
C1731 C1730 1.386 . S
C1731 C1735 1.393 1_655 S
C1732 H1721 0.950 . S
C1732 C1730 1.391 . S
C1732 C1733 1.400 . S
C1733 C1727 1.491 . S
C1733 C1732 1.400 . S
C1733 C1734 1.398 1_655 S
C1734 H1722 0.950 . S
C1734 C1733 1.398 1_455 S
C1734 C1735 1.391 . S
C1735 H1723 0.950 . S
C1735 C1731 1.393 1_455 S
C1735 C1734 1.391 . S
H1736 C1744 0.950 . S
H1737 C1749 0.950 . S
H1738 C1746 0.950 . S
H1739 C1748 0.950 . S
H1740 C1750 0.950 . S
H1741 C1752 0.950 . S
H1742 C1754 0.950 . S
H1743 C1755 0.950 . S
C1744 H1736 0.950 . S
C1744 C1745 1.386 . S
C1744 C1746 1.391 . S
C1745 C1744 1.386 . S
C1745 C1749 1.393 . S
C1746 H1738 0.950 . S
C1746 C1744 1.391 . S
C1746 C1747 1.400 . S
C1747 C1746 1.400 . S
C1747 C1748 1.398 . S
C1747 C1753 1.491 . S
C1748 H1739 0.950 . S
C1748 C1747 1.398 . S
C1748 C1749 1.391 . S
C1749 H1737 0.950 . S
C1749 C1745 1.393 . S
C1749 C1748 1.391 . S
C1750 H1740 0.950 . S
C1750 C1751 1.386 . S
C1750 C1752 1.391 . S
C1751 C1750 1.386 . S
C1751 C1755 1.393 . S
C1752 H1741 0.950 . S
C1752 C1750 1.391 . S
C1752 C1753 1.400 . S
C1753 C1747 1.491 . S
C1753 C1752 1.400 . S
C1753 C1754 1.398 . S
C1754 H1742 0.950 . S
C1754 C1753 1.398 . S
C1754 C1755 1.391 . S
C1755 H1743 0.950 . S
C1755 C1751 1.393 . S
C1755 C1754 1.391 . S
H1756 C1764 0.950 . S
H1757 C1769 0.950 . S
H1758 C1766 0.950 . S
H1759 C1768 0.967 . S
H1760 C1770 0.950 1_655 S
H1761 C1772 0.934 1_655 S
H1762 C1774 0.950 . S
H1763 C1775 0.950 . S
C1764 H1756 0.950 . S
C1764 C1765 1.386 . S
C1764 C1766 1.391 . S
C1765 C1764 1.386 . S
C1765 C1769 1.393 . S
C1766 H1758 0.950 . S
C1766 C1764 1.391 . S
C1766 C1767 1.400 . S
C1767 C1766 1.400 . S
C1767 C1768 1.398 . S
C1767 C1773 1.491 . S
C1768 H1759 0.967 . S
C1768 C1767 1.398 . S
C1768 C1769 1.391 . S
C1769 H1757 0.950 . S
C1769 C1765 1.393 . S
C1769 C1768 1.391 . S
C1770 H1760 0.950 1_455 S
C1770 C1771 1.386 . S
C1770 C1772 1.391 . S
C1771 C1770 1.386 . S
C1771 C1775 1.393 . S
C1772 H1761 0.934 1_455 S
C1772 C1770 1.391 . S
C1772 C1773 1.400 . S
C1773 C1767 1.491 . S
C1773 C1772 1.400 . S
C1773 C1774 1.398 . S
C1774 H1762 0.950 . S
C1774 C1773 1.398 . S
C1774 C1775 1.391 . S
C1775 H1763 0.950 . S
C1775 C1771 1.393 . S
C1775 C1774 1.391 . S
H1776 C1784 0.950 . S
H1777 C1789 0.950 . S
H1778 C1786 0.950 . S
H1779 C1788 0.950 . S
H1780 C1790 0.950 . S
H1781 C1792 0.950 . S
H1782 C1794 0.950 . S
H1783 C1795 0.950 . S
C1784 H1776 0.950 . S
C1784 C1785 1.386 . S
C1784 C1786 1.391 . S
C1785 C1784 1.386 . S
C1785 C1789 1.393 . S
C1786 H1778 0.950 . S
C1786 C1784 1.391 . S
C1786 C1787 1.400 . S
C1787 C1786 1.400 . S
C1787 C1788 1.398 . S
C1787 C1793 1.491 . S
C1788 H1779 0.950 . S
C1788 C1787 1.398 . S
C1788 C1789 1.391 . S
C1789 H1777 0.950 . S
C1789 C1785 1.393 . S
C1789 C1788 1.391 . S
C1790 H1780 0.950 . S
C1790 C1791 1.386 . S
C1790 C1792 1.391 . S
C1791 C1790 1.386 . S
C1791 C1795 1.393 . S
C1792 H1781 0.950 . S
C1792 C1790 1.391 . S
C1792 C1793 1.400 . S
C1793 C1787 1.491 . S
C1793 C1792 1.400 . S
C1793 C1794 1.398 . S
C1794 H1782 0.950 . S
C1794 C1793 1.398 . S
C1794 C1795 1.391 . S
C1795 H1783 0.950 . S
C1795 C1791 1.393 . S
C1795 C1794 1.391 . S
H1796 C1804 0.950 . S
H1797 C1809 0.950 . S
H1798 C1806 0.950 . S
H1799 C1808 0.950 . S
H1800 C1810 0.950 . S
H1801 C1812 0.950 . S
H1802 C1814 0.950 . S
H1803 C1815 0.950 . S
C1804 H1796 0.950 . S
C1804 C1805 1.386 . S
C1804 C1806 1.391 . S
C1805 C1804 1.386 . S
C1805 C1809 1.393 . S
C1806 H1798 0.950 . S
C1806 C1804 1.391 . S
C1806 C1807 1.400 . S
C1807 C1806 1.400 . S
C1807 C1808 1.398 . S
C1807 C1813 1.491 . S
C1808 H1799 0.950 . S
C1808 C1807 1.398 . S
C1808 C1809 1.391 . S
C1809 H1797 0.950 . S
C1809 C1805 1.393 . S
C1809 C1808 1.391 . S
C1810 H1800 0.950 . S
C1810 C1811 1.386 . S
C1810 C1812 1.391 . S
C1811 C1810 1.386 . S
C1811 C1815 1.393 . S
C1812 H1801 0.950 . S
C1812 C1810 1.391 . S
C1812 C1813 1.400 . S
C1813 C1807 1.491 . S
C1813 C1812 1.400 . S
C1813 C1814 1.398 . S
C1814 H1802 0.950 . S
C1814 C1813 1.398 . S
C1814 C1815 1.391 . S
C1815 H1803 0.950 . S
C1815 C1811 1.393 . S
C1815 C1814 1.391 . S
H1816 C1824 0.950 . S
H1817 C1829 0.950 . S
H1818 C1826 0.950 . S
H1819 C1828 0.950 . S
H1820 C1830 0.950 . S
H1821 C1832 0.950 . S
H1822 C1834 0.950 . S
H1823 C1835 0.950 . S
C1824 H1816 0.950 . S
C1824 C1825 1.386 . S
C1824 C1826 1.391 . S
C1825 C1824 1.386 . S
C1825 C1829 1.393 . S
C1826 H1818 0.950 . S
C1826 C1824 1.391 . S
C1826 C1827 1.400 . S
C1827 C1826 1.400 . S
C1827 C1828 1.398 . S
C1827 C1833 1.491 . S
C1828 H1819 0.950 . S
C1828 C1827 1.398 . S
C1828 C1829 1.391 . S
C1829 H1817 0.950 . S
C1829 C1825 1.393 . S
C1829 C1828 1.391 . S
C1830 H1820 0.950 . S
C1830 C1831 1.386 . S
C1830 C1832 1.391 . S
C1831 C1830 1.386 . S
C1831 C1835 1.393 . S
C1832 H1821 0.950 . S
C1832 C1830 1.391 . S
C1832 C1833 1.400 . S
C1833 C1827 1.491 . S
C1833 C1832 1.400 . S
C1833 C1834 1.398 . S
C1834 H1822 0.950 . S
C1834 C1833 1.398 . S
C1834 C1835 1.391 . S
C1835 H1823 0.950 . S
C1835 C1831 1.393 . S
C1835 C1834 1.391 . S
H1836 C1844 0.950 . S
H1837 C1849 0.950 . S
H1838 C1846 0.950 . S
H1839 C1848 0.950 . S
H1840 C1850 0.950 . S
H1841 C1852 0.950 . S
H1842 C1854 0.950 . S
H1843 C1855 0.950 . S
C1844 H1836 0.950 . S
C1844 C1845 1.386 . S
C1844 C1846 1.391 . S
C1845 C1844 1.386 . S
C1845 C1849 1.393 . S
C1846 H1838 0.950 . S
C1846 C1844 1.391 . S
C1846 C1847 1.400 . S
C1847 C1846 1.400 . S
C1847 C1848 1.398 . S
C1847 C1853 1.491 . S
C1848 H1839 0.950 . S
C1848 C1847 1.398 . S
C1848 C1849 1.391 . S
C1849 H1837 0.950 . S
C1849 C1845 1.393 . S
C1849 C1848 1.391 . S
C1850 H1840 0.950 . S
C1850 C1851 1.386 . S
C1850 C1852 1.391 . S
C1851 C1850 1.386 . S
C1851 C1855 1.393 . S
C1852 H1841 0.950 . S
C1852 C1850 1.391 . S
C1852 C1853 1.400 . S
C1853 C1847 1.491 . S
C1853 C1852 1.400 . S
C1853 C1854 1.398 . S
C1854 H1842 0.950 . S
C1854 C1853 1.398 . S
C1854 C1855 1.391 . S
C1855 H1843 0.950 . S
C1855 C1851 1.393 . S
C1855 C1854 1.391 . S
H1856 C1864 0.950 . S
H1857 C1869 0.950 . S
H1858 C1866 0.950 . S
H1859 C1868 0.950 . S
H1860 C1870 0.950 . S
H1861 C1872 0.950 . S
H1862 C1874 0.950 . S
H1863 C1875 0.950 . S
C1864 H1856 0.950 . S
C1864 C1865 1.386 . S
C1864 C1866 1.391 . S
C1865 C1864 1.386 . S
C1865 C1869 1.393 . S
C1866 H1858 0.950 . S
C1866 C1864 1.391 . S
C1866 C1867 1.400 . S
C1867 C1866 1.400 . S
C1867 C1868 1.398 . S
C1867 C1873 1.491 . S
C1868 H1859 0.950 . S
C1868 C1867 1.398 . S
C1868 C1869 1.391 . S
C1869 H1857 0.950 . S
C1869 C1865 1.393 . S
C1869 C1868 1.391 . S
C1870 H1860 0.950 . S
C1870 C1871 1.386 . S
C1870 C1872 1.391 . S
C1871 C1870 1.386 . S
C1871 C1875 1.393 . S
C1872 H1861 0.950 . S
C1872 C1870 1.391 . S
C1872 C1873 1.400 . S
C1873 C1867 1.491 . S
C1873 C1872 1.400 . S
C1873 C1874 1.398 . S
C1874 H1862 0.950 . S
C1874 C1873 1.398 . S
C1874 C1875 1.391 . S
C1875 H1863 0.950 . S
C1875 C1871 1.393 . S
C1875 C1874 1.391 . S
H1876 C1884 0.950 . S
H1877 C1889 0.950 . S
H1878 C1886 0.950 . S
H1879 C1888 0.950 . S
H1880 C1890 0.950 . S
H1881 C1892 0.950 . S
H1882 C1894 0.950 . S
H1883 C1895 0.950 . S
C1884 H1876 0.950 . S
C1884 C1885 1.386 . S
C1884 C1886 1.391 . S
C1885 C1884 1.386 . S
C1885 C1889 1.393 . S
C1886 H1878 0.950 . S
C1886 C1884 1.391 . S
C1886 C1887 1.400 . S
C1887 C1886 1.400 . S
C1887 C1888 1.398 . S
C1887 C1893 1.491 . S
C1888 H1879 0.950 . S
C1888 C1887 1.398 . S
C1888 C1889 1.391 . S
C1889 H1877 0.950 . S
C1889 C1885 1.393 . S
C1889 C1888 1.391 . S
C1890 H1880 0.950 . S
C1890 C1891 1.386 . S
C1890 C1892 1.391 . S
C1891 C1890 1.386 . S
C1891 C1895 1.393 . S
C1892 H1881 0.950 . S
C1892 C1890 1.391 . S
C1892 C1893 1.400 . S
C1893 C1887 1.491 . S
C1893 C1892 1.400 . S
C1893 C1894 1.398 . S
C1894 H1882 0.950 . S
C1894 C1893 1.398 . S
C1894 C1895 1.391 . S
C1895 H1883 0.950 . S
C1895 C1891 1.393 . S
C1895 C1894 1.391 . S
H1896 C1904 0.950 . S
H1897 C1909 0.950 . S
H1898 C1906 0.950 . S
H1899 C1908 0.950 . S
H1900 C1910 0.950 . S
H1901 C1912 0.950 . S
H1902 C1914 0.950 . S
H1903 C1915 0.950 . S
C1904 H1896 0.950 . S
C1904 C1905 1.386 . S
C1904 C1906 1.391 . S
C1905 C1904 1.386 . S
C1905 C1909 1.393 . S
C1906 H1898 0.950 . S
C1906 C1904 1.391 . S
C1906 C1907 1.400 . S
C1907 C1906 1.400 . S
C1907 C1908 1.398 . S
C1907 C1913 1.491 . S
C1908 H1899 0.950 . S
C1908 C1907 1.398 . S
C1908 C1909 1.391 . S
C1909 H1897 0.950 . S
C1909 C1905 1.393 . S
C1909 C1908 1.391 . S
C1910 H1900 0.950 . S
C1910 C1911 1.386 . S
C1910 C1912 1.391 . S
C1911 C1910 1.386 . S
C1911 C1915 1.393 . S
C1912 H1901 0.950 . S
C1912 C1910 1.391 . S
C1912 C1913 1.400 . S
C1913 C1907 1.491 . S
C1913 C1912 1.400 . S
C1913 C1914 1.398 . S
C1914 H1902 0.950 . S
C1914 C1913 1.398 . S
C1914 C1915 1.391 . S
C1915 H1903 0.950 . S
C1915 C1911 1.393 . S
C1915 C1914 1.391 . S
H1916 C1924 0.950 . S
H1917 C1929 0.950 . S
H1918 C1926 0.950 . S
H1919 C1928 0.950 . S
H1920 C1930 0.950 . S
H1921 C1932 0.950 . S
H1922 C1934 0.950 . S
H1923 C1935 0.950 . S
C1924 H1916 0.950 . S
C1924 C1925 1.386 . S
C1924 C1926 1.391 . S
C1925 C1924 1.386 . S
C1925 C1929 1.393 . S
C1926 H1918 0.950 . S
C1926 C1924 1.391 . S
C1926 C1927 1.400 . S
C1927 C1926 1.400 . S
C1927 C1928 1.398 . S
C1927 C1933 1.491 . S
C1928 H1919 0.950 . S
C1928 C1927 1.398 . S
C1928 C1929 1.391 . S
C1929 H1917 0.950 . S
C1929 C1925 1.393 . S
C1929 C1928 1.391 . S
C1930 H1920 0.950 . S
C1930 C1931 1.386 . S
C1930 C1932 1.391 . S
C1931 C1930 1.386 . S
C1931 C1935 1.393 . S
C1932 H1921 0.950 . S
C1932 C1930 1.391 . S
C1932 C1933 1.400 . S
C1933 C1927 1.491 . S
C1933 C1932 1.400 . S
C1933 C1934 1.398 . S
C1934 H1922 0.950 . S
C1934 C1933 1.398 . S
C1934 C1935 1.391 . S
C1935 H1923 0.950 . S
C1935 C1931 1.393 . S
C1935 C1934 1.391 . S
H1936 C1944 0.950 . S
H1937 C1949 0.950 . S
H1938 C1946 0.950 1_554 S
H1939 C1948 0.950 . S
H1940 C1950 0.950 . S
H1941 C1952 0.950 . S
H1942 C1954 0.950 . S
H1943 C1955 0.950 . S
C1944 H1936 0.950 . S
C1944 C1945 1.386 . S
C1944 C1946 1.391 . S
C1945 C1944 1.386 . S
C1945 C1949 1.393 . S
C1946 H1938 0.950 1_556 S
C1946 C1944 1.391 . S
C1946 C1947 1.400 . S
C1947 C1946 1.400 . S
C1947 C1948 1.398 . S
C1947 C1953 1.491 . S
C1948 H1939 0.950 . S
C1948 C1947 1.398 . S
C1948 C1949 1.391 . S
C1949 H1937 0.950 . S
C1949 C1945 1.393 . S
C1949 C1948 1.391 . S
C1950 H1940 0.950 . S
C1950 C1951 1.386 . S
C1950 C1952 1.391 . S
C1951 C1950 1.386 . S
C1951 C1955 1.393 1_556 S
C1952 H1941 0.950 . S
C1952 C1950 1.391 . S
C1952 C1953 1.400 . S
C1953 C1947 1.491 . S
C1953 C1952 1.400 . S
C1953 C1954 1.398 1_556 S
C1954 H1942 0.950 . S
C1954 C1953 1.398 1_554 S
C1954 C1955 1.391 . S
C1955 H1943 0.950 . S
C1955 C1951 1.393 1_554 S
C1955 C1954 1.391 . S
H1956 C1964 0.950 . S
H1957 C1969 0.950 . S
H1958 C1966 0.950 . S
H1959 C1968 0.950 . S
H1960 C1970 0.950 . S
H1961 C1972 0.950 . S
H1962 C1974 0.950 . S
H1963 C1975 0.950 . S
C1964 H1956 0.950 . S
C1964 C1965 1.386 . S
C1964 C1966 1.391 . S
C1965 C1964 1.386 . S
C1965 C1969 1.393 . S
C1966 H1958 0.950 . S
C1966 C1964 1.391 . S
C1966 C1967 1.400 . S
C1967 C1966 1.400 . S
C1967 C1968 1.398 . S
C1967 C1973 1.491 . S
C1968 H1959 0.950 . S
C1968 C1967 1.398 . S
C1968 C1969 1.391 . S
C1969 H1957 0.950 . S
C1969 C1965 1.393 . S
C1969 C1968 1.391 . S
C1970 H1960 0.950 . S
C1970 C1971 1.386 . S
C1970 C1972 1.391 . S
C1971 C1970 1.386 . S
C1971 C1975 1.393 . S
C1972 H1961 0.950 . S
C1972 C1970 1.391 . S
C1972 C1973 1.400 . S
C1973 C1967 1.491 . S
C1973 C1972 1.400 . S
C1973 C1974 1.398 . S
C1974 H1962 0.950 . S
C1974 C1973 1.398 . S
C1974 C1975 1.391 . S
C1975 H1963 0.950 . S
C1975 C1971 1.393 . S
C1975 C1974 1.391 . S
H1976 C1984 0.941 1_556 S
H1977 C1989 0.950 . S
H1978 C1986 0.950 . S
H1979 C1988 0.950 . S
H1980 C1990 0.950 . S
H1981 C1992 0.950 . S
H1982 C1994 0.950 . S
H1983 C1995 0.950 . S
C1984 H1976 0.941 1_554 S
C1984 C1985 1.396 . S
C1984 C1986 1.390 1_554 S
C1985 C1984 1.396 . S
C1985 C1989 1.393 . S
C1986 H1978 0.950 . S
C1986 C1984 1.390 1_556 S
C1986 C1987 1.400 1_556 S
C1987 C1986 1.400 1_554 S
C1987 C1988 1.398 . S
C1987 C1993 1.491 . S
C1988 H1979 0.950 . S
C1988 C1987 1.398 . S
C1988 C1989 1.391 . S
C1989 H1977 0.950 . S
C1989 C1985 1.393 . S
C1989 C1988 1.391 . S
C1990 H1980 0.950 . S
C1990 C1991 1.386 . S
C1990 C1992 1.391 . S
C1991 C1990 1.386 . S
C1991 C1995 1.393 1_554 S
C1992 H1981 0.950 . S
C1992 C1990 1.391 . S
C1992 C1993 1.400 . S
C1993 C1987 1.491 . S
C1993 C1992 1.400 . S
C1993 C1994 1.398 1_554 S
C1994 H1982 0.950 . S
C1994 C1993 1.398 1_556 S
C1994 C1995 1.391 . S
C1995 H1983 0.950 . S
C1995 C1991 1.393 1_556 S
C1995 C1994 1.391 . S
H1996 C2004 0.950 1_556 S
H1997 C2009 0.950 . S
H1998 C2006 0.950 1_556 S
H1999 C2008 0.950 . S
H2000 C2010 0.950 . S
H2001 C2012 0.950 . S
H2002 C2014 0.927 1_556 S
H2003 C2015 0.950 . S
C2004 H1996 0.950 1_554 S
C2004 C2005 1.386 . S
C2004 C2006 1.391 . S
C2005 C2004 1.386 . S
C2005 C2009 1.393 . S
C2006 H1998 0.950 1_554 S
C2006 C2004 1.391 . S
C2006 C2007 1.400 . S
C2007 C2006 1.400 . S
C2007 C2008 1.398 . S
C2007 C2013 1.491 . S
C2008 H1999 0.950 . S
C2008 C2007 1.398 . S
C2008 C2009 1.391 . S
C2009 H1997 0.950 . S
C2009 C2005 1.393 . S
C2009 C2008 1.391 . S
C2010 H2000 0.950 . S
C2010 C2011 1.386 . S
C2010 C2012 1.391 . S
C2011 C2010 1.386 . S
C2011 C2015 1.393 1_554 S
C2012 H2001 0.950 . S
C2012 C2010 1.391 . S
C2012 C2013 1.400 . S
C2013 C2007 1.491 . S
C2013 C2012 1.400 . S
C2013 C2014 1.425 . S
C2014 H2002 0.927 1_554 S
C2014 C2013 1.425 . S
C2014 C2015 1.388 1_554 S
C2015 H2003 0.950 . S
C2015 C2011 1.393 1_556 S
C2015 C2014 1.388 1_556 S
C1071 C626 1.447 . S
C1065 C211 1.453 . S
C1091 C674 1.619 . S
C1085 C255 1.677 . S
C1105 C274 1.427 . S
C1111 C710 1.358 . S
C1131 C746 1.586 . S
C1125 C157 1.635 . S
C1151 C772 1.474 . S
C1145 C391 1.474 . S
C1171 C808 1.590 . S
C1165 C484 1.590 . S
C1185 C450 1.482 . S
C1191 C843 1.501 . S
C1211 C880 1.609 1_565 S
C1205 C352 1.615 . S
C1225 C430 1.433 . S
C1231 C914 1.425 . S
C1251 C962 1.558 . S
C1245 C367 1.617 . S
C1265 C411 1.469 . S
C1271 C915 1.477 . S
C1291 C952 1.615 . S
C1285 C469 1.617 . S
C1305 C294 1.469 . S
C1311 C998 1.414 . S
C1325 C177 1.633 . S
C1331 C987 1.624 . S
C1345 C196 1.490 . S
C1351 C988 1.487 . S
C1365 C235 1.653 . S
C1371 C986 1.642 1_655 S
C1385 C133 1.457 . S
C1391 C734 1.448 . S
C1405 C567 1.439 . S
C1411 C735 1.449 . S
C1431 C638 1.602 . S
C1425 C601 1.652 . S
C1451 C663 1.472 . S
C1445 C328 1.469 . S
C1465 C172 1.632 . S
C1471 C770 1.623 . S
C1491 C878 1.469 . S
C1485 C445 1.478 . S
C1511 C771 1.612 . S
C1505 C372 1.613 . S
C1531 C844 1.607 . S
C1525 C489 1.614 . S
C1551 C842 1.431 . S
C1545 C562 1.439 . S
C1565 C606 1.675 . S
C1571 C890 1.628 . S
C1585 C313 1.425 . S
C1591 C782 1.370 . S
C1611 C818 1.573 . S
C1605 C508 1.634 . S
C1625 C118 1.476 . S
C1631 C700 1.476 . S
C1651 C736 1.583 . S
C1645 C16 1.586 . S
C1671 C627 1.503 . S
C1665 C60 1.491 . S
C1691 C664 1.613 . S
C1685 C79 1.616 . S
C1705 C40 1.435 . S
C1711 C950 1.428 . S
C1725 C94 1.615 . S
C1731 C926 1.578 . S
C1745 C138 1.465 . S
C1751 C951 1.478 . S
C1765 C1 1.620 . S
C1771 C916 1.619 . S
C1791 C1034 1.394 . S
C1785 C333 1.467 . S
C1811 C1023 1.626 . S
C1805 C528 1.633 . S
C1831 C1024 1.494 . S
C1825 C547 1.498 . S
C1845 C586 1.649 . S
C1851 C1022 1.643 . S
C1865 C406 1.469 . S
C1871 C806 1.462 . S
C1891 C807 1.446 . S
C1885 C216 1.440 . S
C1911 C854 1.605 . S
C1905 C250 1.652 . S
C1931 C879 1.471 . S
C1925 C289 1.464 . S
C1945 C523 1.630 . S
C1951 C698 1.623 . S
C1971 C662 1.480 . S
C1965 C55 1.489 . S
C1985 C99 1.610 . S
C1991 C699 1.606 . S
C2011 C628 1.610 . S
C2005 C21 1.615 . S
