# Generated by pormake.
# Topology pyr, (3,6)-cn, num edge types: 1
# Building blocks:
#     Node 0, Type 0, BuildingBlock: INOVEN_clean_linker_0, # of connection points: 3
#     Node 1, Type 0, BuildingBlock: INOVEN_clean_linker_0, # of connection points: 3
#     Node 2, Type 0, BuildingBlock: INOVEN_clean_linker_0, # of connection points: 3
#     Node 3, Type 0, BuildingBlock: INOVEN_clean_linker_0, # of connection points: 3
#     Node 4, Type 0, BuildingBlock: INOVEN_clean_linker_0, # of connection points: 3
#     Node 5, Type 0, BuildingBlock: INOVEN_clean_linker_0, # of connection points: 3
#     Node 6, Type 0, BuildingBlock: INOVEN_clean_linker_0, # of connection points: 3
#     Node 7, Type 0, BuildingBlock: INOVEN_clean_linker_0, # of connection points: 3
#     Node 8, Type 1, BuildingBlock: PAMTOO_clean_sbu_0, # of connection points: 6
#     Node 9, Type 1, BuildingBlock: PAMTOO_clean_sbu_0, # of connection points: 6
#     Node 10, Type 1, BuildingBlock: PAMTOO_clean_sbu_0, # of connection points: 6
#     Node 11, Type 1, BuildingBlock: PAMTOO_clean_sbu_0, # of connection points: 6
#     Edge 12, Type (0, 1), None
#     Edge 13, Type (0, 1), None
#     Edge 14, Type (0, 1), None
#     Edge 15, Type (0, 1), None
#     Edge 16, Type (0, 1), None
#     Edge 17, Type (0, 1), None
#     Edge 18, Type (0, 1), None
#     Edge 19, Type (0, 1), None
#     Edge 20, Type (0, 1), None
#     Edge 21, Type (0, 1), None
#     Edge 22, Type (0, 1), None
#     Edge 23, Type (0, 1), None
#     Edge 24, Type (0, 1), None
#     Edge 25, Type (0, 1), None
#     Edge 26, Type (0, 1), None
#     Edge 27, Type (0, 1), None
#     Edge 28, Type (0, 1), None
#     Edge 29, Type (0, 1), None
#     Edge 30, Type (0, 1), None
#     Edge 31, Type (0, 1), None
#     Edge 32, Type (0, 1), None
#     Edge 33, Type (0, 1), None
#     Edge 34, Type (0, 1), None
#     Edge 35, Type (0, 1), None
# Relax obj value: 0.417
# Max RMSD: 0.246
# Mean RMSD: 0.144
data_MOF--net-pyr--node1-PAMTOO_clean_sbu_0--node2-INOVEN_clean_linker_0--edge1-none
_symmetry_space_group_name_H-M    P1
_symmetry_Int_Tables_number       1
_symmetry_cell_setting            triclinic
loop_
_symmetry_equiv_pos_as_xyz
'x, y, z'
_cell_length_a     16.260266
_cell_length_b     17.430445
_cell_length_c     17.649269
_cell_angle_alpha  90.020193
_cell_angle_beta   90.125042
_cell_angle_gamma 112.66392
loop_
_atom_site_label
_atom_site_type_symbol
_atom_site_fract_x
_atom_site_fract_y
_atom_site_fract_z
_atom_type_partial_charge
H0 H 0.43607 0.31046 0.47242 0.0
H1 H 0.61337 0.19616 0.40023 0.0
H2 H 0.57494 0.38507 0.2634 0.0
N3 N 0.442 0.39142 0.34128 0.0
N4 N 0.38461 0.39984 0.38364 0.0
C5 C 0.48777 0.3101 0.43385 0.0
C6 C 0.5301 0.25454 0.44673 0.0
C7 C 0.50325 0.35667 0.36712 0.0
C8 C 0.56638 0.3513 0.31632 0.0
C9 C 0.60452 0.29134 0.32613 0.0
C10 C 0.589 0.24556 0.39339 0.0
H11 H 0.11262 0.84405 0.77081 0.0
H12 H 0.29314 0.97708 0.94855 0.0
H13 H 1.03663 0.9925 0.92865 0.0
N14 N 0.97723 0.88582 0.81701 0.0
N15 N 0.93958 0.93152 0.79237 0.0
C16 C 0.12824 0.88524 0.81941 0.0
C17 C 0.2118 0.90925 0.8553 0.0
C18 C 0.06523 0.91566 0.84632 0.0
C19 C 0.08579 0.96972 0.90818 0.0
C20 C 0.166 0.98938 0.9469 0.0
C21 C 0.22931 0.9596 0.92002 0.0
H22 H 0.60607 0.36774 0.92788 0.0
H23 H 0.79345 0.40339 1.10977 0.0
H24 H 0.80728 0.61216 0.97188 0.0
N25 N 0.66722 0.52267 0.87525 0.0
N26 N 0.68027 0.59703 0.85919 0.0
C27 C 0.66237 0.4085 0.96066 0.0
C28 C 0.69519 0.37463 1.02114 0.0
C29 C 0.70175 0.49449 0.94137 0.0
C30 C 0.77555 0.54699 0.98607 0.0
C31 C 0.80983 0.51404 1.04752 0.0
C32 C 0.76857 0.42851 1.06295 0.0
H33 H 0.80985 0.70726 0.47504 0.0
H34 H 0.8298 0.90797 0.62756 0.0
H35 H 1.02986 0.94548 0.4571 0.0
N36 N 0.96001 0.79592 0.38972 0.0
N37 N 0.93804 0.72181 0.36704 0.0
C38 C 0.84485 0.7705 0.49452 0.0
C39 C 0.8098 0.80109 0.55689 0.0
C40 C 0.92417 0.82239 0.45637 0.0
C41 C 0.9685 0.90548 0.48401 0.0
C42 C 0.93458 0.93748 0.54564 0.0
C43 C 0.85516 0.88441 0.58 0.0
H44 H 0.52767 0.98205 0.89494 0.0
H45 H 0.79201 0.98565 0.87051 0.0
H46 H 0.62216 0.84426 1.05012 0.0
N47 N 0.48055 0.87971 1.01032 0.0
N48 N 0.44588 0.92541 1.03994 0.0
C49 C 0.58037 0.96298 0.91392 0.0
C50 C 0.66003 0.98764 0.87396 0.0
C51 C 0.56574 0.9099 0.97599 0.0
C52 C 0.63325 0.88435 1.00108 0.0
C53 C 0.71623 0.91378 0.9642 0.0
C54 C 0.72853 0.96391 0.89975 0.0
H55 H 0.94542 0.41117 0.40296 0.0
H56 H 0.04993 0.21977 0.44275 0.0
H57 H 0.09906 0.42062 0.59893 0.0
N58 N 1.01937 0.50112 0.52225 0.0
N59 N 0.95701 0.52681 0.52041 0.0
C60 C 0.97946 0.3812 0.43681 0.0
C61 C 0.99636 0.31182 0.40979 0.0
C62 C 1.0151 0.41968 0.50529 0.0
C63 C 0.06869 0.38879 0.54705 0.0
C64 C 0.08076 0.31597 0.52484 0.0
C65 C 0.04421 0.27787 0.45664 0.0
H66 H 0.54136 0.93393 0.36743 0.0
H67 H 0.33799 0.90878 0.2025 0.0
H68 H 0.3084 0.70482 0.35416 0.0
N69 N 0.46343 0.78635 0.4372 0.0
N70 N 0.44011 0.71183 0.45924 0.0
C71 C 0.47761 0.8968 0.34216 0.0
C72 C 0.44455 0.93131 0.28171 0.0
C73 C 0.42905 0.81493 0.37071 0.0
C74 C 0.3467 0.76715 0.33415 0.0
C75 C 0.31298 0.8009 0.27281 0.0
C76 C 0.36226 0.88286 0.24924 0.0
H77 H 0.10431 0.37355 0.90846 0.0
H78 H 0.28883 0.3968 0.72718 0.0
H79 H 0.31179 0.61273 0.85875 0.0
N80 N 0.17057 0.52838 0.9579 0.0
N81 N 0.18343 0.60296 0.97281 0.0
C82 C 0.16135 0.41171 0.87522 0.0
C83 C 0.19148 0.37425 0.81621 0.0
C84 C 0.20374 0.49783 0.89243 0.0
C85 C 0.27808 0.54714 0.84643 0.0
C86 C 0.31013 0.51036 0.78589 0.0
C87 C 0.26594 0.42457 0.77323 0.0
Dy88 Dy 0.15129 0.13919 0.67513 0.0
Dy89 Dy 0.97368 0.17657 0.69492 0.0
C90 C 0.14368 0.28482 0.79198 0.0
O91 O 0.06946 1.05001 0.76356 0.0
O92 O 0.93144 1.05669 0.75519 0.0
O93 O 0.29388 0.19263 0.68511 0.0
O94 O 0.22573 1.05982 0.67048 0.0
O95 O 0.93914 1.06107 0.61722 0.0
O96 O 0.0713 1.04845 0.58794 0.0
O97 O 0.08795 0.2803 0.64947 0.0
O98 O 0.13114 0.20642 0.56999 0.0
O99 O 0.88026 0.20534 0.62388 0.0
O100 O 0.87981 0.21858 0.74671 0.0
C101 C 0.98264 1.01772 0.77472 0.0
O102 O 0.18911 0.25369 0.74862 0.0
O103 O 0.05588 0.24975 0.79358 0.0
C104 C 0.37139 0.12548 0.62163 0.0
C105 C 0.49206 0.19177 0.50515 0.0
C106 C 0.52005 0.21117 0.58015 0.0
C107 C 0.45973 0.17732 0.6387 0.0
C108 C 0.34816 0.09576 0.54764 0.0
C109 C 0.40913 0.12831 0.48941 0.0
C110 C 0.30249 0.122 0.6757 0.0
C111 C 0.98443 1.02213 0.58163 0.0
C112 C 0.11252 0.27229 0.58223 0.0
C113 C 0.74391 0.15241 0.69041 0.0
C114 C 0.67152 1.03743 0.80472 0.0
C115 C 0.70351 1.01374 0.73879 0.0
C116 C 0.73417 1.06958 0.67929 0.0
C117 C 0.69297 0.16966 0.74707 0.0
C118 C 0.658 0.11231 0.80553 0.0
C119 C 0.83553 0.21252 0.68344 0.0
H120 H 0.58406 0.25959 0.59281 0.0
H121 H 0.47866 0.19996 0.69592 0.0
H122 H 0.28038 1.05534 0.53344 0.0
H123 H 0.38694 0.113 0.43135 0.0
H124 H 0.71129 0.9548 0.73568 0.0
H125 H 0.76834 1.05322 0.63328 0.0
H126 H 0.69634 0.23248 0.75487 0.0
H127 H 0.63038 0.1305 0.85494 0.0
Dy128 Dy 0.4879 0.17272 0.14235 0.0
Dy129 Dy 0.6643 0.13166 0.14855 0.0
C130 C 0.49753 1.01322 0.24404 0.0
O131 O 0.59964 0.27452 0.19523 0.0
O132 O 0.65102 0.19276 0.25858 0.0
O133 O 0.3891 0.19693 0.21008 0.0
O134 O 0.39842 0.21933 1.08876 0.0
O135 O 0.69992 0.25705 1.09189 0.0
O136 O 0.56641 0.2435 1.04178 0.0
O137 O 0.57885 1.04396 1.0613 0.0
O138 O 0.44251 1.05002 1.0847 0.0
O139 O 0.7919 0.15587 1.09536 0.0
O140 O 0.75459 1.08122 0.19693 0.0
C141 C 0.6316 0.25905 0.25754 0.0
O142 O 0.45905 1.06678 0.22938 0.0
O143 O 0.57413 1.02199 0.21361 0.0
C144 C 0.25878 0.14872 0.135 0.0
C145 C 0.18274 1.03866 1.01699 0.0
C146 C 0.21475 1.01171 1.08124 0.0
C147 C 0.24807 1.06519 0.1421 0.0
C148 C 0.21053 0.17035 1.07867 0.0
C149 C 0.17313 0.11532 1.01886 0.0
C150 C 0.34909 0.20844 0.14922 0.0
C151 C 0.65297 0.28497 1.04669 0.0
C152 C 0.49108 1.01153 1.05742 0.0
C153 C 0.88826 0.1916 0.19895 0.0
C154 C 0.96462 0.27504 0.33336 0.0
C155 C 0.89931 0.29407 0.29438 0.0
C156 C 0.86512 0.25581 0.22641 0.0
C157 C 0.95769 0.17593 0.23289 0.0
C158 C 0.99815 0.21984 0.29816 0.0
C159 C 0.82007 0.12842 0.1547 0.0
H160 H 0.21991 0.95155 1.08217 0.0
H161 H 0.28187 1.04594 0.18669 0.0
H162 H 0.21622 0.23413 1.07319 0.0
H163 H 0.1461 0.13629 0.97062 0.0
H164 H 0.86963 0.33495 0.31668 0.0
H165 H 0.81193 0.26934 0.20045 0.0
H166 H 0.97665 0.12662 0.21199 0.0
H167 H 0.05269 0.20696 0.32199 0.0
Dy168 Dy 0.55439 0.56874 0.61987 0.0
Dy169 Dy 0.5563 0.73505 0.70119 0.0
C170 C 0.64239 0.61846 0.79146 0.0
O171 O 0.42456 0.5192 0.68838 0.0
O172 O 0.42866 0.63914 0.74527 0.0
O173 O 0.57261 0.45173 0.62739 0.0
O174 O 0.56473 0.50242 0.51821 0.0
O175 O 0.51747 0.74657 0.57862 0.0
O176 O 0.46861 0.6114 0.53939 0.0
O177 O 0.69414 0.7834 0.65193 0.0
O178 O 0.68024 0.67151 0.57706 0.0
O179 O 0.53495 0.84902 0.68614 0.0
O180 O 0.55144 0.80828 0.79875 0.0
C181 C 0.39129 0.55842 0.7369 0.0
O182 O 0.61353 0.564 0.73591 0.0
O183 O 0.63595 0.69184 0.78638 0.0
C184 C 0.6801 0.44991 0.53584 0.0
C185 C 0.86358 0.4791 0.51355 0.0
C186 C 0.81672 0.43257 0.57582 0.0
C187 C 0.72631 0.41862 0.58714 0.0
C188 C 0.72507 0.48904 0.46966 0.0
C189 C 0.81571 0.50435 0.45943 0.0
C190 C 0.59068 0.45123 0.55566 0.0
C191 C 0.47662 0.68929 0.52765 0.0
C192 C 0.7245 0.7491 0.59778 0.0
C193 C 0.43988 0.86435 0.78066 0.0
C194 C 0.28371 0.88641 0.82468 0.0
C195 C 0.31047 0.82941 0.86311 0.0
C196 C 0.3873 0.81757 0.84064 0.0
C197 C 0.4121 0.92053 0.74185 0.0
C198 C 0.33436 0.93091 0.76335 0.0
C199 C 0.524 0.8564 0.7583 0.0
H200 H 0.85239 0.41493 0.61994 0.0
H201 H 0.69459 0.38849 0.63898 0.0
H202 H 0.69231 0.51361 0.42837 0.0
H203 H 0.85065 0.54246 0.41216 0.0
H204 H 0.2731 0.79559 0.91155 0.0
H205 H 0.40675 0.77361 0.87162 0.0
H206 H 0.45143 0.95755 0.69566 0.0
H207 H 0.31573 0.9762 0.73406 0.0
Dy208 Dy 0.05816 0.7427 0.12745 0.0
Dy209 Dy 0.05339 0.57816 0.20999 0.0
C210 C 0.97569 0.69988 0.29921 0.0
O211 O 0.19568 0.78905 0.17975 0.0
O212 O 0.18073 0.67586 0.25285 0.0
O213 O 1.0376 0.85754 0.13979 0.0
O214 O 0.056 0.81505 1.02852 0.0
O215 O 0.11427 0.57083 1.09531 0.0
O216 O 0.13897 0.69875 1.04415 0.0
O217 O 0.92404 0.52724 0.14411 0.0
O218 O 0.92975 0.64542 1.08339 0.0
O219 O 0.06393 0.45787 0.2074 0.0
O220 O 0.06086 0.51675 0.31431 0.0
C221 C 0.22586 0.75295 0.23287 0.0
O222 O 1.01871 0.75719 0.24919 0.0
O223 O 0.96641 0.62194 0.28705 0.0
C224 C 0.9474 0.87486 1.04199 0.0
C225 C 0.7925 0.89724 0.9944 0.0
C226 C 0.80625 0.82554 0.97324 0.0
C227 C 0.88327 0.81443 0.99684 0.0
C228 C 0.93286 0.94608 1.06358 0.0
C229 C 0.85637 0.95743 1.03945 0.0
C230 C 1.02949 0.86495 1.06722 0.0
C231 C 0.14498 0.62511 1.03985 0.0
C232 C 0.89123 0.565 1.09448 0.0
C233 C 0.16245 0.44858 0.30456 0.0
C234 C 0.31493 0.42172 0.3545 0.0
C235 C 0.28028 0.39742 0.28124 0.0
C236 C 0.20427 0.40989 0.25688 0.0
C237 C 0.19913 0.4749 0.37698 0.0
C238 C 0.27347 0.46014 0.40209 0.0
C239 C 0.08003 0.45971 0.27983 0.0
H240 H 0.7584 0.77914 0.93732 0.0
H241 H 0.8932 0.75925 0.97903 0.0
H242 H 0.98151 0.99363 1.09803 0.0
H243 H 0.84764 1.01388 1.05489 0.0
H244 H 0.3098 0.36579 0.24394 0.0
H245 H 0.17767 0.38823 0.20103 0.0
H246 H 0.1695 0.50569 0.41498 0.0
H247 H 0.29845 0.47827 0.45902 0.0
loop_
_geom_bond_atom_site_label_1
_geom_bond_atom_site_label_2
_geom_bond_distance
_geom_bond_site_symmetry_2
_ccdc_geom_bond_type
H0 C5 0.929 . S
H1 C10 0.931 . S
H2 C8 0.930 . S
N3 N4 1.234 . S
N3 C7 1.453 . S
N4 N3 1.234 . S
C5 H0 0.929 . S
C5 C6 1.373 . S
C5 C7 1.368 . S
C6 C5 1.373 . S
C6 C10 1.397 . S
C7 N3 1.453 . S
C7 C5 1.368 . S
C7 C8 1.373 . S
C8 H2 0.930 . S
C8 C7 1.373 . S
C8 C9 1.371 . S
C9 C8 1.371 . S
C9 C10 1.383 . S
C10 H1 0.931 . S
C10 C6 1.397 . S
C10 C9 1.383 . S
H11 C16 0.929 . S
H12 C21 0.931 . S
H13 C19 0.930 1_655 S
N14 N15 1.234 . S
N14 C18 1.453 . S
N15 N14 1.234 . S
C16 H11 0.929 . S
C16 C17 1.373 . S
C16 C18 1.368 1_455 S
C17 C16 1.373 . S
C17 C21 1.397 . S
C18 N14 1.453 . S
C18 C16 1.368 1_655 S
C18 C19 1.373 1_655 S
C19 H13 0.930 1_455 S
C19 C18 1.373 1_455 S
C19 C20 1.371 . S
C20 C19 1.371 . S
C20 C21 1.383 . S
C21 H12 0.931 . S
C21 C17 1.397 . S
C21 C20 1.383 . S
H22 C27 0.929 . S
H23 C32 0.931 1_554 S
H24 C30 0.930 . S
N25 N26 1.234 . S
N25 C29 1.453 . S
N26 N25 1.234 . S
C27 H22 0.929 . S
C27 C28 1.373 . S
C27 C29 1.368 . S
C28 C27 1.373 . S
C28 C32 1.397 . S
C29 N25 1.453 . S
C29 C27 1.368 . S
C29 C30 1.373 . S
C30 H24 0.930 . S
C30 C29 1.373 . S
C30 C31 1.371 . S
C31 C30 1.371 . S
C31 C32 1.383 . S
C32 H23 0.931 1_556 S
C32 C28 1.397 . S
C32 C31 1.383 . S
H33 C38 0.929 . S
H34 C43 0.931 . S
H35 C41 0.930 . S
N36 N37 1.234 . S
N36 C40 1.453 . S
N37 N36 1.234 . S
C38 H33 0.929 . S
C38 C39 1.373 . S
C38 C40 1.368 . S
C39 C38 1.373 . S
C39 C43 1.397 . S
C40 N36 1.453 . S
C40 C38 1.368 . S
C40 C41 1.373 . S
C41 H35 0.930 . S
C41 C40 1.373 . S
C41 C42 1.371 . S
C42 C41 1.371 . S
C42 C43 1.383 . S
C43 H34 0.931 . S
C43 C39 1.397 . S
C43 C42 1.383 . S
H44 C49 0.929 . S
H45 C54 0.931 . S
H46 C52 0.930 . S
N47 N48 1.234 . S
N47 C51 1.453 . S
N48 N47 1.234 . S
C49 H44 0.929 . S
C49 C50 1.373 . S
C49 C51 1.368 . S
C50 C49 1.373 . S
C50 C54 1.397 . S
C51 N47 1.453 . S
C51 C49 1.368 . S
C51 C52 1.373 . S
C52 H46 0.930 . S
C52 C51 1.373 . S
C52 C53 1.371 . S
C53 C52 1.371 . S
C53 C54 1.383 . S
C54 H45 0.931 . S
C54 C50 1.397 . S
C54 C53 1.383 . S
H55 C60 0.929 . S
H56 C65 0.931 . S
H57 C63 0.930 . S
N58 N59 1.234 . S
N58 C62 1.453 . S
N59 N58 1.234 . S
C60 H55 0.929 . S
C60 C61 1.373 . S
C60 C62 1.368 . S
C61 C60 1.373 . S
C61 C65 1.397 1_655 S
C62 N58 1.453 . S
C62 C60 1.368 . S
C62 C63 1.373 1_655 S
C63 H57 0.930 . S
C63 C62 1.373 1_455 S
C63 C64 1.371 . S
C64 C63 1.371 . S
C64 C65 1.383 . S
C65 H56 0.931 . S
C65 C61 1.397 1_455 S
C65 C64 1.383 . S
H66 C71 0.929 . S
H67 C76 0.931 . S
H68 C74 0.930 . S
N69 N70 1.234 . S
N69 C73 1.453 . S
N70 N69 1.234 . S
C71 H66 0.929 . S
C71 C72 1.373 . S
C71 C73 1.368 . S
C72 C71 1.373 . S
C72 C76 1.397 . S
C73 N69 1.453 . S
C73 C71 1.368 . S
C73 C74 1.373 . S
C74 H68 0.930 . S
C74 C73 1.373 . S
C74 C75 1.371 . S
C75 C74 1.371 . S
C75 C76 1.383 . S
C76 H67 0.931 . S
C76 C72 1.397 . S
C76 C75 1.383 . S
H77 C82 0.929 . S
H78 C87 0.931 . S
H79 C85 0.930 . S
N80 N81 1.234 . S
N80 C84 1.453 . S
N81 N80 1.234 . S
C82 H77 0.929 . S
C82 C83 1.373 . S
C82 C84 1.368 . S
C83 C82 1.373 . S
C83 C87 1.397 . S
C84 N80 1.453 . S
C84 C82 1.368 . S
C84 C85 1.373 . S
C85 H79 0.930 . S
C85 C84 1.373 . S
C85 C86 1.371 . S
C86 C85 1.371 . S
C86 C87 1.383 . S
C87 H78 0.931 . S
C87 C83 1.397 . S
C87 C86 1.383 . S
Dy88 O91 2.307 1_545 S
Dy88 O93 2.395 . S
Dy88 O94 2.379 . S
Dy88 O96 2.339 1_545 S
Dy88 O98 2.298 . S
Dy88 O102 2.275 . S
Dy88 C110 2.738 . S
Dy89 O92 2.298 1_545 S
Dy89 O95 2.275 1_545 S
Dy89 O97 2.307 . S
Dy89 O99 2.395 1_545 S
Dy89 O100 2.379 1_545 S
Dy89 O103 2.339 . S
Dy89 C119 2.738 1_545 S
C90 O102 1.254 . S
C90 O103 1.257 1_455 S
O91 Dy88 2.307 1_565 S
O91 C101 1.266 . S
O92 Dy89 2.298 1_565 S
O92 C101 1.236 1_655 S
O93 Dy88 2.395 . S
O93 C110 1.255 . S
O94 Dy88 2.379 . S
O94 C110 1.249 . S
O95 Dy89 2.275 1_565 S
O95 C111 1.254 . S
O96 Dy88 2.339 1_565 S
O96 C111 1.257 1_455 S
O97 Dy89 2.307 . S
O97 C112 1.266 . S
O98 Dy88 2.298 . S
O98 C112 1.236 1_455 S
O99 Dy89 2.395 1_565 S
O99 C119 1.255 . S
O100 Dy89 2.379 1_565 S
O100 C119 1.249 . S
C101 O91 1.266 . S
C101 O92 1.236 1_455 S
O102 Dy88 2.275 . S
O102 C90 1.254 . S
O103 Dy89 2.339 . S
O103 C90 1.257 1_655 S
C104 C107 1.344 . S
C104 C108 1.328 . S
C104 C110 1.516 . S
C105 C106 1.304 . S
C105 C109 1.323 . S
C106 C105 1.304 . S
C106 C107 1.371 . S
C106 H120 0.930 . S
C107 C104 1.344 . S
C107 C106 1.371 . S
C107 H121 0.931 . S
C108 C104 1.328 . S
C108 C109 1.433 . S
C108 H122 0.931 . S
C109 C105 1.323 . S
C109 C108 1.433 . S
C109 H123 0.933 . S
C110 Dy88 2.738 . S
C110 O93 1.255 . S
C110 O94 1.249 . S
C110 C104 1.516 . S
C111 O95 1.254 . S
C111 O96 1.257 1_655 S
C112 O97 1.266 . S
C112 O98 1.236 1_655 S
C113 C116 1.344 . S
C113 C117 1.328 . S
C113 C119 1.516 . S
C114 C115 1.304 . S
C114 C118 1.323 . S
C115 C114 1.304 . S
C115 C116 1.371 . S
C115 H124 0.930 . S
C116 C113 1.344 . S
C116 C115 1.371 . S
C116 H125 0.931 . S
C117 C113 1.328 . S
C117 C118 1.433 . S
C117 H126 0.931 . S
C118 C114 1.323 . S
C118 C117 1.433 . S
C118 H127 0.933 . S
C119 Dy89 2.738 1_565 S
C119 O99 1.255 . S
C119 O100 1.249 . S
C119 C113 1.516 . S
H120 C106 0.930 . S
H121 C107 0.931 . S
H122 C108 0.931 . S
H123 C109 0.933 . S
H124 C115 0.930 . S
H125 C116 0.931 . S
H126 C117 0.931 . S
H127 C118 0.933 . S
Dy128 O131 2.307 . S
Dy128 O133 2.395 1_544 S
Dy128 O134 2.379 1_544 S
Dy128 O136 2.339 1_554 S
Dy128 O138 2.298 1_544 S
Dy128 O142 2.275 1_545 S
Dy128 C150 2.738 1_544 S
Dy129 O132 2.298 . S
Dy129 O135 2.275 . S
Dy129 O137 2.307 1_545 S
Dy129 O139 2.395 . S
Dy129 O140 2.379 . S
Dy129 O143 2.339 1_545 S
Dy129 C159 2.738 . S
C130 O142 1.254 . S
C130 O143 1.257 . S
O131 Dy128 2.307 . S
O131 C141 1.266 . S
O132 Dy129 2.298 . S
O132 C141 1.236 . S
O133 Dy128 2.395 1_566 S
O133 C150 1.255 . S
O134 Dy128 2.379 1_566 S
O134 C150 1.249 . S
O135 Dy129 2.275 . S
O135 C151 1.254 1_554 S
O136 Dy128 2.339 1_556 S
O136 C151 1.257 . S
O137 Dy129 2.307 1_565 S
O137 C152 1.266 1_554 S
O138 Dy128 2.298 1_566 S
O138 C152 1.236 . S
O139 Dy129 2.395 . S
O139 C159 1.255 . S
O140 Dy129 2.379 . S
O140 C159 1.249 . S
C141 O131 1.266 . S
C141 O132 1.236 . S
O142 Dy128 2.275 1_565 S
O142 C130 1.254 . S
O143 Dy129 2.339 1_565 S
O143 C130 1.257 . S
C144 C147 1.344 . S
C144 C148 1.328 . S
C144 C150 1.516 . S
C145 C146 1.304 . S
C145 C149 1.323 . S
C146 C145 1.304 . S
C146 C147 1.371 . S
C146 H160 0.930 . S
C147 C144 1.344 . S
C147 C146 1.371 . S
C147 H161 0.931 . S
C148 C144 1.328 . S
C148 C149 1.433 . S
C148 H162 0.931 . S
C149 C145 1.323 . S
C149 C148 1.433 . S
C149 H163 0.933 . S
C150 Dy128 2.738 1_566 S
C150 O133 1.255 . S
C150 O134 1.249 . S
C150 C144 1.516 . S
C151 O135 1.254 1_556 S
C151 O136 1.257 . S
C152 O137 1.266 1_556 S
C152 O138 1.236 . S
C153 C156 1.344 . S
C153 C157 1.328 . S
C153 C159 1.516 . S
C154 C155 1.304 . S
C154 C158 1.323 . S
C155 C154 1.304 . S
C155 C156 1.371 . S
C155 H164 0.930 . S
C156 C153 1.344 . S
C156 C155 1.371 . S
C156 H165 0.931 . S
C157 C153 1.328 . S
C157 C158 1.433 . S
C157 H166 0.931 . S
C158 C154 1.323 . S
C158 C157 1.433 . S
C158 H167 0.933 . S
C159 Dy129 2.738 . S
C159 O139 1.255 . S
C159 O140 1.249 . S
C159 C153 1.516 . S
H160 C146 0.930 . S
H161 C147 0.931 . S
H162 C148 0.931 . S
H163 C149 0.933 . S
H164 C155 0.930 . S
H165 C156 0.931 . S
H166 C157 0.931 . S
H167 C158 0.933 . S
Dy168 O171 2.307 . S
Dy168 O173 2.395 . S
Dy168 O174 2.379 . S
Dy168 O176 2.339 . S
Dy168 O178 2.298 . S
Dy168 O182 2.275 . S
Dy168 C190 2.738 . S
Dy169 O172 2.298 . S
Dy169 O175 2.275 . S
Dy169 O177 2.307 . S
Dy169 O179 2.395 . S
Dy169 O180 2.379 . S
Dy169 O183 2.339 . S
Dy169 C199 2.738 . S
C170 O182 1.254 . S
C170 O183 1.257 . S
O171 Dy168 2.307 . S
O171 C181 1.266 . S
O172 Dy169 2.298 . S
O172 C181 1.236 . S
O173 Dy168 2.395 . S
O173 C190 1.255 . S
O174 Dy168 2.379 . S
O174 C190 1.249 . S
O175 Dy169 2.275 . S
O175 C191 1.254 . S
O176 Dy168 2.339 . S
O176 C191 1.257 . S
O177 Dy169 2.307 . S
O177 C192 1.266 . S
O178 Dy168 2.298 . S
O178 C192 1.236 . S
O179 Dy169 2.395 . S
O179 C199 1.255 . S
O180 Dy169 2.379 . S
O180 C199 1.249 . S
C181 O171 1.266 . S
C181 O172 1.236 . S
O182 Dy168 2.275 . S
O182 C170 1.254 . S
O183 Dy169 2.339 . S
O183 C170 1.257 . S
C184 C187 1.344 . S
C184 C188 1.328 . S
C184 C190 1.516 . S
C185 C186 1.304 . S
C185 C189 1.323 . S
C186 C185 1.304 . S
C186 C187 1.371 . S
C186 H200 0.930 . S
C187 C184 1.344 . S
C187 C186 1.371 . S
C187 H201 0.931 . S
C188 C184 1.328 . S
C188 C189 1.433 . S
C188 H202 0.931 . S
C189 C185 1.323 . S
C189 C188 1.433 . S
C189 H203 0.933 . S
C190 Dy168 2.738 . S
C190 O173 1.255 . S
C190 O174 1.249 . S
C190 C184 1.516 . S
C191 O175 1.254 . S
C191 O176 1.257 . S
C192 O177 1.266 . S
C192 O178 1.236 . S
C193 C196 1.344 . S
C193 C197 1.328 . S
C193 C199 1.516 . S
C194 C195 1.304 . S
C194 C198 1.323 . S
C195 C194 1.304 . S
C195 C196 1.371 . S
C195 H204 0.930 . S
C196 C193 1.344 . S
C196 C195 1.371 . S
C196 H205 0.931 . S
C197 C193 1.328 . S
C197 C198 1.433 . S
C197 H206 0.931 . S
C198 C194 1.323 . S
C198 C197 1.433 . S
C198 H207 0.933 . S
C199 Dy169 2.738 . S
C199 O179 1.255 . S
C199 O180 1.249 . S
C199 C193 1.516 . S
H200 C186 0.930 . S
H201 C187 0.931 . S
H202 C188 0.931 . S
H203 C189 0.933 . S
H204 C195 0.930 . S
H205 C196 0.931 . S
H206 C197 0.931 . S
H207 C198 0.933 . S
Dy208 O211 2.307 1_556 S
Dy208 O213 2.395 1_455 S
Dy208 O214 2.379 1_455 S
Dy208 O216 2.339 . S
Dy208 O218 2.298 1_455 S
Dy208 O222 2.275 1_556 S
Dy208 C230 2.738 1_455 S
Dy209 O212 2.298 . S
Dy209 O215 2.275 1_554 S
Dy209 O217 2.307 1_455 S
Dy209 O219 2.395 . S
Dy209 O220 2.379 . S
Dy209 O223 2.339 1_455 S
Dy209 C239 2.738 . S
C210 O222 1.254 1_655 S
C210 O223 1.257 . S
O211 Dy208 2.307 1_554 S
O211 C221 1.266 . S
O212 Dy209 2.298 . S
O212 C221 1.236 . S
O213 Dy208 2.395 1_655 S
O213 C230 1.255 . S
O214 Dy208 2.379 1_655 S
O214 C230 1.249 . S
O215 Dy209 2.275 1_556 S
O215 C231 1.254 . S
O216 Dy208 2.339 . S
O216 C231 1.257 . S
O217 Dy209 2.307 1_655 S
O217 C232 1.266 1_554 S
O218 Dy208 2.298 1_655 S
O218 C232 1.236 . S
O219 Dy209 2.395 . S
O219 C239 1.255 . S
O220 Dy209 2.379 . S
O220 C239 1.249 . S
C221 O211 1.266 . S
C221 O212 1.236 . S
O222 Dy208 2.275 1_554 S
O222 C210 1.254 1_455 S
O223 Dy209 2.339 1_655 S
O223 C210 1.257 . S
C224 C227 1.344 . S
C224 C228 1.328 . S
C224 C230 1.516 . S
C225 C226 1.304 . S
C225 C229 1.323 . S
C226 C225 1.304 . S
C226 C227 1.371 . S
C226 H240 0.930 . S
C227 C224 1.344 . S
C227 C226 1.371 . S
C227 H241 0.931 . S
C228 C224 1.328 . S
C228 C229 1.433 . S
C228 H242 0.931 . S
C229 C225 1.323 . S
C229 C228 1.433 . S
C229 H243 0.933 . S
C230 Dy208 2.738 1_655 S
C230 O213 1.255 . S
C230 O214 1.249 . S
C230 C224 1.516 . S
C231 O215 1.254 . S
C231 O216 1.257 . S
C232 O217 1.266 1_556 S
C232 O218 1.236 . S
C233 C236 1.344 . S
C233 C237 1.328 . S
C233 C239 1.516 . S
C234 C235 1.304 . S
C234 C238 1.323 . S
C235 C234 1.304 . S
C235 C236 1.371 . S
C235 H244 0.930 . S
C236 C233 1.344 . S
C236 C235 1.371 . S
C236 H245 0.931 . S
C237 C233 1.328 . S
C237 C238 1.433 . S
C237 H246 0.931 . S
C238 C234 1.323 . S
C238 C237 1.433 . S
C238 H247 0.933 . S
C239 Dy209 2.738 . S
C239 O219 1.255 . S
C239 O220 1.249 . S
C239 C233 1.516 . S
H240 C226 0.930 . S
H241 C227 0.931 . S
H242 C228 0.931 . S
H243 C229 0.933 . S
H244 C235 0.930 . S
H245 C236 0.931 . S
H246 C237 0.931 . S
H247 C238 0.933 . S
C6 C105 1.291 . S
C20 C145 1.041 . S
C170 N26 3.386 . S
N37 C210 3.578 . S
C141 C9 2.658 . S
C101 N15 2.677 1_455 S
C232 C31 2.525 . S
C192 C39 2.656 . S
N4 C234 2.164 . S
C151 C28 3.604 . S
C42 C111 2.922 . S
C17 C194 3.100 . S
C114 C50 0.964 . S
C61 C154 1.154 . S
N70 C191 3.568 . S
N81 C231 3.479 . S
N48 C152 2.761 . S
C112 C64 2.624 1_655 S
C221 C75 2.690 . S
C181 C86 2.513 . S
C53 C225 3.140 . S
C130 C72 2.752 . S
C90 C83 3.604 . S
N59 C185 2.221 . S
