# Generated by pormake.
# Topology nom, (4,4)-cn, num edge types: 1
# Building blocks:
#     Node 0, Type 0, BuildingBlock: NAWXER_clean_linker_0, # of connection points: 4
#     Node 1, Type 0, BuildingBlock: NAWXER_clean_linker_0, # of connection points: 4
#     Node 2, Type 0, BuildingBlock: NAWXER_clean_linker_0, # of connection points: 4
#     Node 3, Type 0, BuildingBlock: NAWXER_clean_linker_0, # of connection points: 4
#     Node 4, Type 0, BuildingBlock: NAWXER_clean_linker_0, # of connection points: 4
#     Node 5, Type 0, BuildingBlock: NAWXER_clean_linker_0, # of connection points: 4
#     Node 6, Type 1, BuildingBlock: GALJAG_clean_sbu_0, # of connection points: 4
#     Node 7, Type 1, BuildingBlock: GALJAG_clean_sbu_0, # of connection points: 4
#     Node 8, Type 1, BuildingBlock: GALJAG_clean_sbu_0, # of connection points: 4
#     Node 9, Type 1, BuildingBlock: GALJAG_clean_sbu_0, # of connection points: 4
#     Node 10, Type 1, BuildingBlock: GALJAG_clean_sbu_0, # of connection points: 4
#     Node 11, Type 1, BuildingBlock: GALJAG_clean_sbu_0, # of connection points: 4
#     Edge 12, Type (0, 1), BuildingBlock: MIFKUJ_clean_linker_0, # of connection points: 2
#     Edge 13, Type (0, 1), BuildingBlock: MIFKUJ_clean_linker_0, # of connection points: 2
#     Edge 14, Type (0, 1), BuildingBlock: MIFKUJ_clean_linker_0, # of connection points: 2
#     Edge 15, Type (0, 1), BuildingBlock: MIFKUJ_clean_linker_0, # of connection points: 2
#     Edge 16, Type (0, 1), BuildingBlock: MIFKUJ_clean_linker_0, # of connection points: 2
#     Edge 17, Type (0, 1), BuildingBlock: MIFKUJ_clean_linker_0, # of connection points: 2
#     Edge 18, Type (0, 1), BuildingBlock: MIFKUJ_clean_linker_0, # of connection points: 2
#     Edge 19, Type (0, 1), BuildingBlock: MIFKUJ_clean_linker_0, # of connection points: 2
#     Edge 20, Type (0, 1), BuildingBlock: MIFKUJ_clean_linker_0, # of connection points: 2
#     Edge 21, Type (0, 1), BuildingBlock: MIFKUJ_clean_linker_0, # of connection points: 2
#     Edge 22, Type (0, 1), BuildingBlock: MIFKUJ_clean_linker_0, # of connection points: 2
#     Edge 23, Type (0, 1), BuildingBlock: MIFKUJ_clean_linker_0, # of connection points: 2
#     Edge 24, Type (0, 1), BuildingBlock: MIFKUJ_clean_linker_0, # of connection points: 2
#     Edge 25, Type (0, 1), BuildingBlock: MIFKUJ_clean_linker_0, # of connection points: 2
#     Edge 26, Type (0, 1), BuildingBlock: MIFKUJ_clean_linker_0, # of connection points: 2
#     Edge 27, Type (0, 1), BuildingBlock: MIFKUJ_clean_linker_0, # of connection points: 2
#     Edge 28, Type (0, 1), BuildingBlock: MIFKUJ_clean_linker_0, # of connection points: 2
#     Edge 29, Type (0, 1), BuildingBlock: MIFKUJ_clean_linker_0, # of connection points: 2
#     Edge 30, Type (0, 1), BuildingBlock: MIFKUJ_clean_linker_0, # of connection points: 2
#     Edge 31, Type (0, 1), BuildingBlock: MIFKUJ_clean_linker_0, # of connection points: 2
#     Edge 32, Type (0, 1), BuildingBlock: MIFKUJ_clean_linker_0, # of connection points: 2
#     Edge 33, Type (0, 1), BuildingBlock: MIFKUJ_clean_linker_0, # of connection points: 2
#     Edge 34, Type (0, 1), BuildingBlock: MIFKUJ_clean_linker_0, # of connection points: 2
#     Edge 35, Type (0, 1), BuildingBlock: MIFKUJ_clean_linker_0, # of connection points: 2
# Relax obj value: 0.004
# Max RMSD: 0.115
# Mean RMSD: 0.086
data_MOF--net-nom--node1-GALJAG_clean_sbu_0--node2-NAWXER_clean_linker_0--edge1-MIFKUJ_clean_linker_0
_symmetry_space_group_name_H-M    P1
_symmetry_Int_Tables_number       1
_symmetry_cell_setting            triclinic
loop_
_symmetry_equiv_pos_as_xyz
'x, y, z'
_cell_length_a     65.023671
_cell_length_b     64.901959
_cell_length_c     74.357878
_cell_angle_alpha  90.039885
_cell_angle_beta   89.994787
_cell_angle_gamma 120.05965
loop_
_atom_site_label
_atom_site_type_symbol
_atom_site_fract_x
_atom_site_fract_y
_atom_site_fract_z
_atom_type_partial_charge
C0 C 0.93017 0.53188 0.33603 0.0
C1 C 0.92106 0.51557 0.35032 0.0
C2 C 0.95356 0.54088 0.33026 0.0
C3 C 0.96819 0.53335 0.33841 0.0
C4 C 0.93577 0.50828 0.35863 0.0
C5 C 0.95912 0.51711 0.35274 0.0
C6 C 0.99342 0.54371 0.33304 0.0
C7 C 0.9521 0.50447 0.28404 0.0
C8 C 0.95622 0.51826 0.26845 0.0
C9 C 0.96645 0.51412 0.29923 0.0
C10 C 0.98497 0.53794 0.29932 0.0
C11 C 0.97487 0.54207 0.26854 0.0
C12 C 0.98911 0.55176 0.28379 0.0
C13 C 0.00122 0.54795 0.31495 0.0
C14 C 0.10647 0.58783 0.31844 0.0
C15 C 0.11484 0.61008 0.31015 0.0
C16 C 0.08255 0.5741 0.32336 0.0
C17 C 0.06671 0.58236 0.31982 0.0
C18 C 0.09887 0.61815 0.30651 0.0
C19 C 0.07494 0.60426 0.31112 0.0
C20 C 0.04149 0.56838 0.325 0.0
C21 C 0.08476 0.59706 0.37579 0.0
C22 C 0.07965 0.57974 0.38905 0.0
C23 C 0.06987 0.59181 0.36084 0.0
C24 C 0.05006 0.5689 0.3586 0.0
C25 C 0.05954 0.55707 0.38705 0.0
C26 C 0.04493 0.5517 0.37196 0.0
C27 C 0.03376 0.56269 0.343 0.0
H28 H 0.91938 0.53818 0.32962 0.0
H29 H 0.96033 0.5541 0.31968 0.0
H30 H 0.92918 0.49563 0.36962 0.0
H31 H 0.97012 0.51125 0.35939 0.0
H32 H 0.93781 0.48614 0.28452 0.0
H33 H 0.96331 0.50276 0.31077 0.0
H34 H 0.97885 0.5531 0.25668 0.0
H35 H 0.0035 0.57006 0.2834 0.0
H36 H 0.1185 0.58128 0.32138 0.0
H37 H 0.07641 0.5571 0.32992 0.0
H38 H 0.10489 0.63513 0.29997 0.0
H39 H 0.06291 0.61081 0.3082 0.0
H40 H 0.09994 0.61481 0.37722 0.0
H41 H 0.0737 0.60581 0.35125 0.0
H42 H 0.05525 0.5434 0.39707 0.0
H43 H 0.02964 0.53399 0.37069 0.0
N44 N 0.01 0.55077 0.34628 0.0
N45 N 0.02496 0.56062 0.31169 0.0
C46 C 0.41084 0.93274 0.50328 0.0
C47 C 0.41981 0.92326 0.51601 0.0
C48 C 0.42482 0.95611 0.49719 0.0
C49 C 0.44807 0.97042 0.50369 0.0
C50 C 0.44308 0.93761 0.52249 0.0
C51 C 0.457 0.96105 0.51649 0.0
C52 C 0.4625 0.99557 0.49804 0.0
C53 C 0.4576 0.95341 0.44882 0.0
C54 C 0.44774 0.95767 0.4334 0.0
C55 C 0.46273 0.96777 0.46406 0.0
C56 C 0.45761 0.9864 0.46442 0.0
C57 C 0.44258 0.97629 0.43381 0.0
C58 C 0.44751 0.99051 0.44914 0.0
C59 C 0.46483 0.003 0.47994 0.0
C60 C 0.52941 0.10941 0.48328 0.0
C61 C 0.51618 0.11645 0.47253 0.0
C62 C 0.51957 0.08574 0.48885 0.0
C63 C 0.49624 0.06878 0.48395 0.0
C64 C 0.49303 0.09925 0.46734 0.0
C65 C 0.48323 0.07568 0.47295 0.0
C66 C 0.4853 0.0436 0.48953 0.0
C67 C 0.50146 0.08701 0.54063 0.0
C68 C 0.5149 0.08252 0.5532 0.0
C69 C 0.49131 0.072 0.52577 0.0
C70 C 0.49502 0.05268 0.52296 0.0
C71 C 0.51817 0.06293 0.55055 0.0
C72 C 0.50835 0.04819 0.53559 0.0
C73 C 0.4843 0.03617 0.50755 0.0
H74 H 0.39302 0.92206 0.49798 0.0
H75 H 0.41732 0.96311 0.48763 0.0
H76 H 0.45035 0.93087 0.53247 0.0
H77 H 0.47477 0.97187 0.52185 0.0
H78 H 0.46161 0.93911 0.44908 0.0
H79 H 0.47132 0.96465 0.47535 0.0
H80 H 0.43537 0.98037 0.4221 0.0
H81 H 0.44373 0.00498 0.44895 0.0
H82 H 0.54726 0.12224 0.48754 0.0
H83 H 0.53018 0.08069 0.49696 0.0
H84 H 0.48255 0.10394 0.45876 0.0
H85 H 0.46532 0.06281 0.46878 0.0
H86 H 0.49837 0.10178 0.54254 0.0
H87 H 0.48036 0.07536 0.51664 0.0
H88 H 0.52854 0.05914 0.55998 0.0
H89 H 0.51128 0.03329 0.53383 0.0
N90 N 0.47274 0.01242 0.51106 0.0
N91 N 0.47571 0.02672 0.47646 0.0
C92 C 0.52716 0.46114 0.61628 0.0
C93 C 0.51287 0.44932 0.6013 0.0
C94 C 0.51751 0.46616 0.6313 0.0
C95 C 0.49332 0.45934 0.63173 0.0
C96 C 0.48858 0.44229 0.60185 0.0
C97 C 0.47896 0.44742 0.61686 0.0
C98 C 0.48354 0.4665 0.64694 0.0
C99 C 0.49848 0.41214 0.6707 0.0
C100 C 0.51694 0.42093 0.68341 0.0
C101 C 0.48959 0.42645 0.66451 0.0
C102 C 0.499 0.44984 0.67089 0.0
C103 C 0.52638 0.44436 0.68977 0.0
C104 C 0.51731 0.45861 0.68368 0.0
C105 C 0.48861 0.46449 0.66511 0.0
C106 C 0.43516 0.50205 0.70705 0.0
C107 C 0.45345 0.51842 0.71833 0.0
C108 C 0.44031 0.49155 0.6926 0.0
C109 C 0.46384 0.4973 0.68917 0.0
C110 C 0.47692 0.52388 0.71495 0.0
C111 C 0.48202 0.5133 0.70059 0.0
C112 C 0.4698 0.48631 0.67413 0.0
C113 C 0.44189 0.53105 0.64937 0.0
C114 C 0.42161 0.51774 0.63863 0.0
C115 C 0.45559 0.52118 0.65509 0.0
C116 C 0.44906 0.49773 0.65037 0.0
C117 C 0.41539 0.4944 0.63372 0.0
C118 C 0.42905 0.48457 0.63946 0.0
C119 C 0.46328 0.48688 0.65608 0.0
H120 H 0.54601 0.46727 0.6162 0.0
H121 H 0.52918 0.47609 0.64232 0.0
H122 H 0.477 0.43291 0.59064 0.0
H123 H 0.4603 0.44214 0.61683 0.0
H124 H 0.49095 0.39419 0.6655 0.0
H125 H 0.47504 0.41905 0.65497 0.0
H126 H 0.54045 0.45149 0.69971 0.0
H127 H 0.52462 0.4765 0.68895 0.0
H128 H 0.41691 0.49752 0.70932 0.0
H129 H 0.42592 0.47887 0.68417 0.0
H130 H 0.49133 0.53609 0.72358 0.0
H131 H 0.50025 0.51777 0.6983 0.0
H132 H 0.44739 0.54921 0.65312 0.0
H133 H 0.47136 0.53194 0.66306 0.0
H134 H 0.39974 0.48358 0.62565 0.0
H135 H 0.42379 0.4665 0.63556 0.0
N136 N 0.47062 0.47716 0.64317 0.0
N137 N 0.48202 0.47492 0.67796 0.0
C138 C 0.93092 0.40927 0.82155 0.0
C139 C 0.92059 0.41653 0.80822 0.0
C140 C 0.95447 0.42423 0.82682 0.0
C141 C 0.9681 0.44673 0.81886 0.0
C142 C 0.93425 0.43907 0.8003 0.0
C143 C 0.95787 0.45394 0.80546 0.0
C144 C 0.99343 0.46208 0.8236 0.0
C145 C 0.95298 0.46211 0.8724 0.0
C146 C 0.95766 0.45345 0.8883 0.0
C147 C 0.96703 0.46625 0.85713 0.0
C148 C 0.98582 0.46141 0.85728 0.0
C149 C 0.97655 0.44873 0.88845 0.0
C150 C 0.99052 0.45275 0.87312 0.0
C151 C 0.00173 0.46709 0.8415 0.0
C152 C 0.10802 0.53133 0.83312 0.0
C153 C 0.1156 0.52038 0.84578 0.0
C154 C 0.08401 0.52084 0.82841 0.0
C155 C 0.06722 0.49887 0.83588 0.0
C156 C 0.09849 0.49895 0.8538 0.0
C157 C 0.07464 0.48833 0.84888 0.0
C158 C 0.04178 0.4868 0.83083 0.0
C159 C 0.08311 0.49642 0.77958 0.0
C160 C 0.0777 0.50771 0.76578 0.0
C161 C 0.06859 0.48783 0.79482 0.0
C162 C 0.049 0.49126 0.7968 0.0
C163 C 0.05761 0.51028 0.76744 0.0
C164 C 0.04346 0.5022 0.78281 0.0
C165 C 0.03341 0.48284 0.81286 0.0
H166 H 0.92077 0.39203 0.82793 0.0
H167 H 0.96215 0.41805 0.8369 0.0
H168 H 0.92681 0.445 0.78984 0.0
H169 H 0.96816 0.47111 0.79899 0.0
H170 H 0.93849 0.46579 0.87175 0.0
H171 H 0.96346 0.47372 0.84533 0.0
H172 H 0.98093 0.44245 0.90054 0.0
H173 H 0.00512 0.44923 0.87368 0.0
H174 H 0.12064 0.54781 0.82664 0.0
H175 H 0.07863 0.52977 0.81881 0.0
H176 H 0.10346 0.49035 0.864 0.0
H177 H 0.06196 0.47164 0.85512 0.0
H178 H 0.09837 0.49398 0.77844 0.0
H179 H 0.07272 0.47856 0.80503 0.0
H180 H 0.05313 0.51897 0.75697 0.0
H181 H 0.02827 0.50478 0.78388 0.0
N182 N 0.00955 0.47052 0.81003 0.0
N183 N 0.02556 0.47886 0.84439 0.0
C184 C 0.53326 0.93267 0.98569 0.0
C185 C 0.51417 0.92283 0.97352 0.0
C186 C 0.54264 0.95605 0.99173 0.0
C187 C 0.53314 0.97006 0.98568 0.0
C188 C 0.50454 0.93678 0.96758 0.0
C189 C 0.51413 0.9603 0.97347 0.0
C190 C 0.54407 0.99529 0.99118 0.0
C191 C 0.50636 0.9545 0.04053 0.0
C192 C 0.52124 0.95587 0.05478 0.0
C193 C 0.51566 0.96935 0.02558 0.0
C194 C 0.54004 0.98596 0.02452 0.0
C195 C 0.54573 0.97243 0.05358 0.0
C196 C 0.55499 0.98748 0.03867 0.0
C197 C 0.54954 0.00275 0.00923 0.0
C198 C 0.58863 0.10829 0.0067 0.0
C199 C 0.61062 0.1166 0.01536 0.0
C200 C 0.57506 0.08439 0.00157 0.0
C201 C 0.58325 0.06848 0.00515 0.0
C202 C 0.61855 0.10052 0.01912 0.0
C203 C 0.60486 0.07662 0.01422 0.0
C204 C 0.56941 0.04326 0.9997 0.0
C205 C 0.59657 0.08707 0.94898 0.0
C206 C 0.57899 0.08214 0.93601 0.0
C207 C 0.59157 0.0721 0.96385 0.0
C208 C 0.56866 0.0524 0.96631 0.0
C209 C 0.55628 0.0622 0.93827 0.0
C210 C 0.55116 0.04753 0.95328 0.0
C211 C 0.56282 0.03582 0.98169 0.0
H212 H 0.54094 0.92226 0.99054 0.0
H213 H 0.55766 0.96335 0.00084 0.0
H214 H 0.48995 0.92967 0.95808 0.0
H215 H 0.50672 0.97089 0.9685 0.0
H216 H 0.48736 0.94243 0.04112 0.0
H217 H 0.50364 0.9683 0.01506 0.0
H218 H 0.5578 0.9738 0.06415 0.0
H219 H 0.57384 0.00028 0.03816 0.0
H220 H 0.58216 0.12036 0.00363 0.0
H221 H 0.55825 0.07834 0.99479 0.0
H222 H 0.63529 0.10642 0.02598 0.0
H223 H 0.61135 0.06454 0.01722 0.0
H224 H 0.61433 0.10213 0.94735 0.0
H225 H 0.60576 0.07574 0.97319 0.0
H226 H 0.54241 0.05807 0.92846 0.0
H227 H 0.53344 0.03233 0.95473 0.0
N228 N 0.55055 0.01207 0.97815 0.0
N229 N 0.56238 0.02644 0.01279 0.0
C230 C 0.53068 0.61998 0.16912 0.0
C231 C 0.51159 0.61059 0.18129 0.0
C232 C 0.54017 0.60609 0.16311 0.0
C233 C 0.53078 0.58259 0.16919 0.0
C234 C 0.50205 0.58699 0.18723 0.0
C235 C 0.51175 0.57319 0.18137 0.0
C236 C 0.542 0.56852 0.1639 0.0
C237 C 0.50511 0.57132 0.11386 0.0
C238 C 0.52015 0.58403 0.09947 0.0
C239 C 0.51417 0.56619 0.12915 0.0
C240 C 0.53849 0.57369 0.13039 0.0
C241 C 0.54453 0.59178 0.10081 0.0
C242 C 0.55357 0.58645 0.11607 0.0
C243 C 0.54777 0.56657 0.14593 0.0
C244 C 0.59253 0.50441 0.1518 0.0
C245 C 0.61156 0.51683 0.13976 0.0
C246 C 0.57817 0.51379 0.15691 0.0
C247 C 0.58299 0.53617 0.15057 0.0
C248 C 0.61571 0.5388 0.13292 0.0
C249 C 0.60165 0.54835 0.13831 0.0
C250 C 0.56833 0.5468 0.15586 0.0
C251 C 0.59642 0.53403 0.20787 0.0
C252 C 0.57812 0.51758 0.2191 0.0
C253 C 0.59119 0.54397 0.19311 0.0
C254 C 0.56755 0.53749 0.18927 0.0
C255 C 0.55456 0.51152 0.21536 0.0
C256 C 0.54936 0.52149 0.20066 0.0
C257 C 0.56144 0.54765 0.17378 0.0
H258 H 0.53829 0.63808 0.16428 0.0
H259 H 0.55521 0.61393 0.15403 0.0
H260 H 0.48747 0.57942 0.19674 0.0
H261 H 0.50444 0.55518 0.18638 0.0
H262 H 0.48627 0.56521 0.11323 0.0
H263 H 0.50204 0.55579 0.13981 0.0
H264 H 0.55649 0.60136 0.08984 0.0
H265 H 0.57233 0.59217 0.11664 0.0
H266 H 0.58877 0.4875 0.15744 0.0
H267 H 0.5633 0.50348 0.1658 0.0
H268 H 0.62969 0.54862 0.12323 0.0
H269 H 0.60547 0.56542 0.13292 0.0
H270 H 0.61475 0.53902 0.2104 0.0
H271 H 0.60555 0.55667 0.18469 0.0
H272 H 0.54012 0.49927 0.22394 0.0
H273 H 0.53104 0.51649 0.19807 0.0
N274 N 0.54867 0.55861 0.17709 0.0
N275 N 0.56105 0.55617 0.14264 0.0
In276 In 0.63184 0.40651 0.41015 0.0
O277 O 0.67102 0.43021 0.41774 0.0
O278 O 0.6627 0.41178 0.39273 0.0
C279 C 0.61848 0.41989 0.44042 0.0
C280 C 0.62033 0.42277 0.38066 0.0
C281 C 0.61221 0.3589 0.41469 0.0
O282 O 0.63477 0.41472 0.44032 0.0
O283 O 0.60942 0.41889 0.42524 0.0
O284 O 0.59985 0.36869 0.41244 0.0
O285 O 0.63429 0.37299 0.41428 0.0
C286 C 0.67863 0.42585 0.40342 0.0
O287 O 0.61169 0.40082 0.38372 0.0
O288 O 0.63431 0.43638 0.39263 0.0
In289 In 0.24645 0.63328 0.57891 0.0
O290 O 0.25982 0.60727 0.57323 0.0
O291 O 0.27347 0.62996 0.59605 0.0
C292 C 0.22007 0.62157 0.54858 0.0
C293 C 0.21774 0.6157 0.60778 0.0
C294 C 0.27462 0.68059 0.57339 0.0
O295 O 0.23981 0.62228 0.54928 0.0
O296 O 0.21354 0.62639 0.56318 0.0
O297 O 0.25407 0.67183 0.58002 0.0
O298 O 0.28093 0.6656 0.56984 0.0
C299 C 0.27346 0.61372 0.58673 0.0
O300 O 0.23505 0.63676 0.60726 0.0
O301 O 0.21464 0.60374 0.59362 0.0
In302 In 0.6311 0.24533 0.74454 0.0
O303 O 0.66904 0.25138 0.74349 0.0
O304 O 0.66364 0.27799 0.7555 0.0
C305 C 0.61702 0.21978 0.71375 0.0
C306 C 0.61863 0.21941 0.77511 0.0
C307 C 0.61115 0.27245 0.73836 0.0
O308 O 0.63569 0.23987 0.71469 0.0
O309 O 0.60581 0.21247 0.72834 0.0
O310 O 0.59989 0.25238 0.74594 0.0
O311 O 0.63223 0.27868 0.73411 0.0
C312 C 0.67815 0.27128 0.75136 0.0
O313 O 0.61929 0.23914 0.774 0.0
O314 O 0.62379 0.21264 0.76077 0.0
In315 In 0.4048 0.63398 0.90923 0.0
O316 O 0.36548 0.60595 0.91154 0.0
O317 O 0.37495 0.63676 0.89573 0.0
C318 C 0.42123 0.62142 0.93821 0.0
C319 C 0.41498 0.6178 0.87899 0.0
C320 C 0.4223 0.68042 0.917 0.0
O321 O 0.40069 0.61886 0.93767 0.0
O322 O 0.43322 0.62985 0.92406 0.0
O323 O 0.43301 0.67339 0.90672 0.0
O324 O 0.40289 0.6641 0.92321 0.0
C325 C 0.35859 0.6171 0.9016 0.0
O326 O 0.42331 0.63973 0.88197 0.0
O327 O 0.40201 0.60425 0.89136 0.0
In328 In 0.79071 0.40673 0.07728 0.0
O329 O 0.80742 0.4009 0.10256 0.0
O330 O 0.8167 0.43626 0.09579 0.0
C331 C 0.76011 0.36107 0.06848 0.0
C332 C 0.76051 0.42296 0.08414 0.0
C333 C 0.82094 0.41851 0.04922 0.0
O334 O 0.77066 0.36691 0.08349 0.0
O335 O 0.76487 0.37826 0.05808 0.0
O336 O 0.80713 0.42675 0.0511 0.0
O337 O 0.81984 0.40478 0.06166 0.0
C338 C 0.8191 0.4227 0.10662 0.0
O339 O 0.77865 0.43417 0.07433 0.0
O340 O 0.75747 0.40351 0.09024 0.0
In341 In 0.40284 0.79021 0.24479 0.0
O342 O 0.43126 0.77934 0.24792 0.0
O343 O 0.40043 0.75693 0.23265 0.0
C344 C 0.41347 0.82037 0.27269 0.0
C345 C 0.41832 0.81793 0.21508 0.0
C346 C 0.35742 0.76073 0.25448 0.0
O347 O 0.42278 0.80745 0.27077 0.0
O348 O 0.39919 0.81834 0.26038 0.0
O349 O 0.36283 0.77332 0.24041 0.0
O350 O 0.37488 0.76296 0.26348 0.0
C351 C 0.42012 0.76066 0.23861 0.0
O352 O 0.39774 0.79999 0.21614 0.0
O353 O 0.43079 0.82203 0.22902 0.0
H354 H 0.14192 0.59747 0.2901 0.0
H355 H 0.18337 0.62293 0.2809 0.0
H356 H 0.18629 0.68153 0.31064 0.0
H357 H 0.14458 0.65636 0.31912 0.0
H358 H 0.2069 0.6976 0.28082 0.0
H359 H 0.21287 0.64836 0.32576 0.0
H360 H 0.2037 0.61082 0.34074 0.0
H361 H 0.22783 0.5897 0.29425 0.0
H362 H 0.23685 0.62699 0.27889 0.0
H363 H 0.34214 0.73869 0.28684 0.0
H364 H 0.30119 0.71327 0.29683 0.0
H365 H 0.27582 0.72076 0.24497 0.0
H366 H 0.31682 0.74695 0.23514 0.0
H367 H 0.26703 0.67237 0.28712 0.0
H368 H 0.22326 0.71872 0.24904 0.0
H369 H 0.23389 0.75883 0.23833 0.0
H370 H 0.28802 0.79036 0.27887 0.0
H371 H 0.27751 0.75047 0.28996 0.0
C372 C 0.15154 0.61576 0.29472 0.0
C373 C 0.14018 0.62501 0.30531 0.0
C374 C 0.17522 0.63028 0.28953 0.0
C375 C 0.18813 0.65412 0.29525 0.0
C376 C 0.17675 0.66325 0.30598 0.0
C377 C 0.15297 0.64888 0.31087 0.0
C378 C 0.21332 0.66973 0.28979 0.0
C379 C 0.22002 0.69205 0.28222 0.0
C380 C 0.23065 0.66279 0.29191 0.0
C381 C 0.22533 0.64037 0.30112 0.0
C382 C 0.21606 0.63564 0.31869 0.0
C383 C 0.21092 0.61441 0.32725 0.0
C384 C 0.21512 0.59786 0.31843 0.0
C385 C 0.22455 0.60252 0.30105 0.0
C386 C 0.22971 0.62371 0.29242 0.0
C387 C 0.32782 0.73493 0.27757 0.0
C388 C 0.33263 0.74488 0.26024 0.0
C389 C 0.30442 0.72034 0.28328 0.0
C390 C 0.28537 0.71528 0.27174 0.0
C391 C 0.29018 0.72479 0.25425 0.0
C392 C 0.31361 0.73966 0.24862 0.0
C393 C 0.26052 0.70013 0.27807 0.0
C394 C 0.25388 0.67789 0.28573 0.0
C395 C 0.24345 0.70751 0.27667 0.0
C396 C 0.24975 0.73159 0.27019 0.0
C397 C 0.23738 0.73422 0.2557 0.0
C398 C 0.24339 0.75691 0.24956 0.0
C399 C 0.26167 0.77713 0.25787 0.0
C400 C 0.27392 0.77469 0.27239 0.0
C401 C 0.26797 0.75204 0.2786 0.0
H402 H 0.2663 0.79468 0.25309 0.0
H403 H 0.21113 0.58144 0.32509 0.0
H404 H 0.56143 0.14693 0.46068 0.0
H405 H 0.57775 0.18794 0.45025 0.0
H406 H 0.51033 0.18361 0.46014 0.0
H407 H 0.49397 0.14275 0.4708 0.0
H408 H 0.52854 0.20311 0.42737 0.0
H409 H 0.55579 0.21372 0.48862 0.0
H410 H 0.57574 0.20798 0.51474 0.0
H411 H 0.64159 0.23948 0.48562 0.0
H412 H 0.62194 0.2451 0.45922 0.0
H413 H 0.56583 0.32641 0.42196 0.0
H414 H 0.54949 0.28479 0.43081 0.0
H415 H 0.61883 0.29196 0.42491 0.0
H416 H 0.63535 0.33373 0.41657 0.0
H417 H 0.59975 0.27063 0.45527 0.0
H418 H 0.57305 0.2606 0.3941 0.0
H419 H 0.55328 0.26605 0.36773 0.0
H420 H 0.48685 0.23332 0.39611 0.0
H421 H 0.50629 0.22794 0.42275 0.0
C422 C 0.55016 0.1548 0.46085 0.0
C423 C 0.52639 0.14156 0.46658 0.0
C424 C 0.55948 0.1782 0.45482 0.0
C425 C 0.54526 0.18884 0.4545 0.0
C426 C 0.52156 0.17569 0.4602 0.0
C427 C 0.51224 0.15232 0.46624 0.0
C428 C 0.55503 0.21365 0.44813 0.0
C429 C 0.54395 0.21795 0.43358 0.0
C430 C 0.57546 0.23286 0.45598 0.0
C431 C 0.58733 0.22961 0.47188 0.0
C432 C 0.57448 0.21925 0.48774 0.0
C433 C 0.58574 0.21605 0.5026 0.0
C434 C 0.6099 0.2233 0.50183 0.0
C435 C 0.62287 0.23384 0.4862 0.0
C436 C 0.61168 0.23705 0.47128 0.0
C437 C 0.57752 0.31902 0.42238 0.0
C438 C 0.60185 0.33329 0.41857 0.0
C439 C 0.56816 0.29521 0.42738 0.0
C440 C 0.58289 0.28516 0.42838 0.0
C441 C 0.60712 0.29933 0.42427 0.0
C442 C 0.61652 0.32316 0.41943 0.0
C443 C 0.57331 0.26019 0.43443 0.0
C444 C 0.5844 0.25584 0.44896 0.0
C445 C 0.55294 0.24092 0.42651 0.0
C446 C 0.54118 0.24407 0.41048 0.0
C447 C 0.55427 0.25472 0.39477 0.0
C448 C 0.54311 0.25777 0.37976 0.0
C449 C 0.51884 0.25009 0.38026 0.0
C450 C 0.50566 0.23928 0.39575 0.0
C451 C 0.51673 0.23621 0.4108 0.0
H452 H 0.51024 0.25247 0.36863 0.0
H453 H 0.61859 0.22081 0.51335 0.0
H454 H 0.40822 0.54485 0.65816 0.0
H455 H 0.38299 0.56075 0.64845 0.0
H456 H 0.37578 0.52917 0.59608 0.0
H457 H 0.40168 0.51391 0.60549 0.0
H458 H 0.38274 0.57334 0.59318 0.0
H459 H 0.33134 0.50328 0.62669 0.0
H460 H 0.31847 0.47607 0.65269 0.0
H461 H 0.31777 0.52992 0.68584 0.0
H462 H 0.33098 0.55759 0.66009 0.0
H463 H 0.28243 0.5839 0.56641 0.0
H464 H 0.30759 0.56707 0.57449 0.0
H465 H 0.32273 0.60278 0.62581 0.0
H466 H 0.29785 0.61975 0.61781 0.0
H467 H 0.31069 0.55508 0.62834 0.0
H468 H 0.36324 0.62535 0.59448 0.0
H469 H 0.37565 0.65196 0.56814 0.0
H470 H 0.37322 0.59648 0.53511 0.0
H471 H 0.36044 0.5694 0.56122 0.0
C472 C 0.40151 0.54153 0.64451 0.0
C473 C 0.40685 0.52801 0.63262 0.0
C474 C 0.3869 0.55043 0.63903 0.0
C475 C 0.37722 0.54583 0.62162 0.0
C476 C 0.38295 0.53281 0.6096 0.0
C477 C 0.39759 0.52394 0.61505 0.0
C478 C 0.361 0.55451 0.616 0.0
C479 C 0.3668 0.56906 0.60072 0.0
C480 C 0.34038 0.54919 0.62599 0.0
C481 C 0.33237 0.53258 0.6415 0.0
C482 C 0.32863 0.50939 0.63956 0.0
C483 C 0.32124 0.49387 0.65425 0.0
C484 C 0.31736 0.50128 0.67092 0.0
C485 C 0.32081 0.52421 0.67293 0.0
C486 C 0.32823 0.53981 0.65829 0.0
C487 C 0.29112 0.58812 0.57941 0.0
C488 C 0.28826 0.60318 0.59146 0.0
C489 C 0.30551 0.57856 0.58397 0.0
C490 C 0.31708 0.5838 0.6007 0.0
C491 C 0.31394 0.59853 0.61284 0.0
C492 C 0.2998 0.60828 0.60822 0.0
C493 C 0.33256 0.57402 0.60564 0.0
C494 C 0.32658 0.55925 0.62078 0.0
C495 C 0.35292 0.57901 0.59547 0.0
C496 C 0.36062 0.59527 0.57976 0.0
C497 C 0.36513 0.61875 0.58156 0.0
C498 C 0.37228 0.63393 0.56668 0.0
C499 C 0.37515 0.62589 0.54995 0.0
C500 C 0.37094 0.60267 0.54807 0.0
C501 C 0.36376 0.5874 0.56291 0.0
H502 H 0.38069 0.63768 0.53844 0.0
H503 H 0.31164 0.48924 0.68227 0.0
H504 H 0.88578 0.42777 0.80319 0.0
H505 H 0.84479 0.40132 0.7934 0.0
H506 H 0.85832 0.34279 0.79032 0.0
H507 H 0.89943 0.36921 0.8 0.0
H508 H 0.83416 0.3464 0.7602 0.0
H509 H 0.828 0.34441 0.82451 0.0
H510 H 0.83424 0.36175 0.85491 0.0
H511 H 0.7945 0.39586 0.84069 0.0
H512 H 0.7883 0.379 0.8101 0.0
H513 H 0.71165 0.25752 0.75024 0.0
H514 H 0.75326 0.28071 0.75979 0.0
H515 H 0.74356 0.34029 0.77215 0.0
H516 H 0.70195 0.317 0.7632 0.0
H517 H 0.76628 0.33398 0.79836 0.0
H518 H 0.77404 0.33823 0.73386 0.0
H519 H 0.76839 0.32215 0.70306 0.0
H520 H 0.80541 0.28515 0.71704 0.0
H521 H 0.81102 0.30078 0.74801 0.0
C522 C 0.88003 0.40929 0.80035 0.0
C523 C 0.89574 0.40051 0.8024 0.0
C524 C 0.85662 0.39419 0.79486 0.0
C525 C 0.84853 0.37009 0.79127 0.0
C526 C 0.86424 0.36133 0.79307 0.0
C527 C 0.88762 0.37638 0.79872 0.0
C528 C 0.82363 0.35409 0.78563 0.0
C529 C 0.81926 0.34336 0.76862 0.0
C530 C 0.80432 0.35056 0.79653 0.0
C531 C 0.80787 0.3606 0.81496 0.0
C532 C 0.82075 0.35576 0.82782 0.0
C533 C 0.82425 0.36547 0.84509 0.0
C534 C 0.81482 0.37994 0.84972 0.0
C535 C 0.80181 0.38467 0.83708 0.0
C536 C 0.79828 0.37501 0.81978 0.0
C537 C 0.7185 0.27562 0.75489 0.0
C538 C 0.70361 0.28547 0.75598 0.0
C539 C 0.74227 0.28888 0.76029 0.0
C540 C 0.75162 0.31234 0.76657 0.0
C541 C 0.73676 0.32222 0.76743 0.0
C542 C 0.713 0.30892 0.76224 0.0
C543 C 0.77666 0.32652 0.77272 0.0
C544 C 0.78111 0.33689 0.7899 0.0
C545 C 0.79603 0.32984 0.76191 0.0
C546 C 0.79272 0.32046 0.7433 0.0
C547 C 0.78081 0.32651 0.73041 0.0
C548 C 0.77765 0.31751 0.71291 0.0
C549 C 0.78647 0.30258 0.70811 0.0
C550 C 0.79855 0.29668 0.72079 0.0
C551 C 0.80174 0.30562 0.73831 0.0
H552 H 0.78401 0.29562 0.69456 0.0
H553 H 0.81756 0.38745 0.8631 0.0
H554 H 0.46774 0.88752 0.97152 0.0
H555 H 0.45221 0.8465 0.96104 0.0
H556 H 0.52358 0.86173 0.9499 0.0
H557 H 0.5392 0.90272 0.96039 0.0
H558 H 0.49015 0.83636 0.922 0.0
H559 H 0.49913 0.83278 0.98611 0.0
H560 H 0.49308 0.83946 0.01785 0.0
H561 H 0.41755 0.79604 0.01117 0.0
H562 H 0.42315 0.78939 0.9793 0.0
H563 H 0.46707 0.7178 0.91122 0.0
H564 H 0.48279 0.75936 0.9201 0.0
H565 H 0.41422 0.7416 0.94169 0.0
H566 H 0.39875 0.69996 0.93347 0.0
H567 H 0.44658 0.76889 0.96415 0.0
H568 H 0.43623 0.77206 0.90064 0.0
H569 H 0.44089 0.76579 0.86853 0.0
H570 H 0.51659 0.81002 0.87325 0.0
H571 H 0.51241 0.81631 0.90546 0.0
C572 C 0.48006 0.88212 0.96672 0.0
C573 C 0.50465 0.8982 0.96683 0.0
C574 C 0.47121 0.85872 0.96083 0.0
C575 C 0.48679 0.85112 0.9548 0.0
C576 C 0.5113 0.86729 0.95452 0.0
C577 C 0.52018 0.89059 0.96062 0.0
C578 C 0.47755 0.82616 0.94911 0.0
C579 C 0.48085 0.82157 0.93122 0.0
C580 C 0.46494 0.80695 0.96108 0.0
C581 C 0.46155 0.81079 0.98027 0.0
C582 C 0.48122 0.82482 0.99137 0.0
C583 C 0.47788 0.82857 0.00939 0.0
C584 C 0.45494 0.81823 0.01651 0.0
C585 C 0.43531 0.80406 0.00563 0.0
C586 C 0.43856 0.80028 0.98759 0.0
C587 C 0.45536 0.72283 0.91779 0.0
C588 C 0.4317 0.70569 0.92165 0.0
C589 C 0.46431 0.7466 0.92278 0.0
C590 C 0.44961 0.75372 0.93137 0.0
C591 C 0.42592 0.73658 0.93511 0.0
C592 C 0.41708 0.71279 0.93036 0.0
C593 C 0.45899 0.77888 0.93691 0.0
C594 C 0.45579 0.78358 0.95483 0.0
C595 C 0.47144 0.79817 0.92488 0.0
C596 C 0.47402 0.79446 0.90551 0.0
C597 C 0.45388 0.7803 0.89486 0.0
C598 C 0.45644 0.77677 0.87664 0.0
C599 C 0.47902 0.78745 0.86886 0.0
C600 C 0.49911 0.80173 0.87929 0.0
C601 C 0.49666 0.80531 0.89753 0.0
H602 H 0.48096 0.78469 0.85475 0.0
H603 H 0.45239 0.82116 0.03046 0.0
H604 H 0.59868 0.46992 0.13426 0.0
H605 H 0.62413 0.45402 0.12516 0.0
H606 H 0.68431 0.52514 0.12254 0.0
H607 H 0.65947 0.54125 0.13263 0.0
H608 H 0.67573 0.49388 0.09085 0.0
H609 H 0.68459 0.49681 0.15547 0.0
H610 H 0.66975 0.48831 0.18665 0.0
H611 H 0.63491 0.41325 0.17594 0.0
H612 H 0.64926 0.42132 0.14459 0.0
H613 H 0.76885 0.46827 0.07997 0.0
H614 H 0.74328 0.48399 0.08923 0.0
H615 H 0.69039 0.4141 0.10756 0.0
H616 H 0.71638 0.39858 0.09904 0.0
H617 H 0.6945 0.44468 0.13123 0.0
H618 H 0.68469 0.44008 0.06734 0.0
H619 H 0.69727 0.44697 0.03558 0.0
H620 H 0.73077 0.5225 0.04373 0.0
H621 H 0.71866 0.51606 0.07561 0.0
C622 C 0.6174 0.48223 0.13209 0.0
C623 C 0.62693 0.50694 0.13421 0.0
C624 C 0.63185 0.47308 0.12673 0.0
C625 C 0.65602 0.48845 0.12316 0.0
C626 C 0.66563 0.51305 0.12513 0.0
C627 C 0.65131 0.5222 0.13079 0.0
C628 C 0.67129 0.47884 0.11731 0.0
C629 C 0.68013 0.48335 0.09969 0.0
C630 C 0.67632 0.46457 0.12875 0.0
C631 C 0.66778 0.45968 0.14762 0.0
C632 C 0.67357 0.4785 0.15971 0.0
C633 C 0.66529 0.47376 0.17743 0.0
C634 C 0.65134 0.45026 0.18326 0.0
C635 C 0.64569 0.43145 0.17139 0.0
C636 C 0.65391 0.43609 0.15365 0.0
C637 C 0.75169 0.45625 0.08587 0.0
C638 C 0.74455 0.4322 0.08874 0.0
C639 C 0.73703 0.46522 0.09109 0.0
C640 C 0.7147 0.45017 0.09888 0.0
C641 C 0.70751 0.42608 0.10161 0.0
C642 C 0.72234 0.4172 0.09666 0.0
C643 C 0.69912 0.45964 0.10462 0.0
C644 C 0.69015 0.45513 0.12227 0.0
C645 C 0.69368 0.47365 0.09309 0.0
C646 C 0.70096 0.47759 0.07391 0.0
C647 C 0.69489 0.45816 0.06239 0.0
C648 C 0.70191 0.46199 0.04436 0.0
C649 C 0.71486 0.48516 0.03765 0.0
C650 C 0.72077 0.50456 0.04895 0.0
C651 C 0.71381 0.50083 0.067 0.0
H652 H 0.72028 0.48808 0.02369 0.0
H653 H 0.64495 0.44663 0.19698 0.0
H654 H 0.43244 0.88928 0.52051 0.0
H655 H 0.40752 0.84844 0.53131 0.0
H656 H 0.34848 0.86064 0.53725 0.0
H657 H 0.37339 0.90161 0.52666 0.0
H658 H 0.35405 0.83719 0.5666 0.0
H659 H 0.34952 0.83035 0.50218 0.0
H660 H 0.3657 0.83632 0.47142 0.0
H661 H 0.40078 0.79718 0.48466 0.0
H662 H 0.38509 0.79127 0.5156 0.0
H663 H 0.26289 0.71556 0.57513 0.0
H664 H 0.28762 0.75738 0.56644 0.0
H665 H 0.34543 0.74506 0.55403 0.0
H666 H 0.32064 0.70323 0.56225 0.0
H667 H 0.34005 0.76902 0.52795 0.0
H668 H 0.34534 0.77589 0.59222 0.0
H669 H 0.3301 0.77024 0.62326 0.0
H670 H 0.29474 0.80937 0.61088 0.0
H671 H 0.30952 0.81499 0.57968 0.0
C672 C 0.4142 0.8833 0.52424 0.0
C673 C 0.40482 0.89858 0.52267 0.0
C674 C 0.39996 0.85995 0.5303 0.0
C675 C 0.37612 0.85151 0.53493 0.0
C676 C 0.36682 0.86683 0.5337 0.0
C677 C 0.381 0.89013 0.52751 0.0
C678 C 0.36082 0.82656 0.54087 0.0
C679 C 0.3507 0.82224 0.5581 0.0
C680 C 0.35695 0.80715 0.52988 0.0
C681 C 0.36632 0.81058 0.51126 0.0
C682 C 0.36084 0.82319 0.49858 0.0
C683 C 0.3699 0.82653 0.4811 0.0
C684 C 0.38431 0.81719 0.4761 0.0
C685 C 0.38964 0.80443 0.48856 0.0
C686 C 0.38066 0.80107 0.50606 0.0
C687 C 0.28094 0.72186 0.57069 0.0
C688 C 0.28985 0.70616 0.56936 0.0
C689 C 0.29508 0.74576 0.56578 0.0
C690 C 0.31847 0.75442 0.55971 0.0
C691 C 0.32744 0.73879 0.55864 0.0
C692 C 0.31328 0.7149 0.56339 0.0
C693 C 0.33335 0.77952 0.55381 0.0
C694 C 0.34337 0.78391 0.53652 0.0
C695 C 0.33723 0.79897 0.5648 0.0
C696 C 0.32834 0.79564 0.58356 0.0
C697 C 0.33415 0.78312 0.59607 0.0
C698 C 0.32563 0.77996 0.6137 0.0
C699 C 0.31141 0.78938 0.61902 0.0
C700 C 0.30573 0.80205 0.60673 0.0
C701 C 0.31419 0.80525 0.58908 0.0
H702 H 0.30483 0.78692 0.63268 0.0
H703 H 0.3913 0.81979 0.46257 0.0
H704 H 0.49126 0.37477 0.69466 0.0
H705 H 0.50639 0.34906 0.70507 0.0
H706 H 0.57828 0.40659 0.69774 0.0
H707 H 0.56324 0.43237 0.68721 0.0
H708 H 0.56971 0.36344 0.68279 0.0
H709 H 0.55675 0.39265 0.73883 0.0
H710 H 0.53316 0.40026 0.76102 0.0
H711 H 0.48385 0.32524 0.76498 0.0
H712 H 0.50698 0.31719 0.74261 0.0
H713 H 0.63402 0.31807 0.72632 0.0
H714 H 0.6167 0.34249 0.71805 0.0
H715 H 0.54706 0.28504 0.73232 0.0
H716 H 0.56449 0.26063 0.74112 0.0
H717 H 0.55259 0.32658 0.74342 0.0
H718 H 0.56451 0.29645 0.6883 0.0
H719 H 0.58664 0.28756 0.66562 0.0
H720 H 0.63564 0.36227 0.65893 0.0
H721 H 0.614 0.37161 0.68178 0.0
C722 C 0.51029 0.3819 0.69524 0.0
C723 C 0.5261 0.40555 0.69012 0.0
C724 C 0.51889 0.36726 0.70129 0.0
C725 C 0.54344 0.376 0.70226 0.0
C726 C 0.55927 0.39957 0.69712 0.0
C727 C 0.55068 0.41429 0.69122 0.0
C728 C 0.55263 0.36037 0.70823 0.0
C729 C 0.56626 0.35562 0.69612 0.0
C730 C 0.54734 0.34953 0.7254 0.0
C731 C 0.53347 0.35434 0.7389 0.0
C732 C 0.54076 0.37779 0.74431 0.0
C733 C 0.5275 0.38218 0.75695 0.0
C734 C 0.50698 0.36325 0.76437 0.0
C735 C 0.49973 0.33988 0.7592 0.0
C736 C 0.51292 0.3354 0.74656 0.0
C737 C 0.61502 0.31065 0.72777 0.0
C738 C 0.60056 0.28739 0.73424 0.0
C739 C 0.60513 0.32459 0.72297 0.0
C740 C 0.58052 0.31543 0.72422 0.0
C741 C 0.56609 0.29242 0.73116 0.0
C742 C 0.57604 0.27849 0.73615 0.0
C743 C 0.57 0.32987 0.71805 0.0
C744 C 0.55604 0.33434 0.73007 0.0
C745 C 0.57473 0.34025 0.7007 0.0
C746 C 0.58775 0.33472 0.68687 0.0
C747 C 0.58011 0.31098 0.68209 0.0
C748 C 0.59255 0.30586 0.66919 0.0
C749 C 0.61257 0.32433 0.66087 0.0
C750 C 0.62015 0.34798 0.6654 0.0
C751 C 0.60779 0.3532 0.67831 0.0
H752 H 0.62218 0.32033 0.65088 0.0
H753 H 0.49673 0.36669 0.77415 0.0
H754 H 0.14019 0.49727 0.85326 0.0
H755 H 0.18141 0.51461 0.86299 0.0
H756 H 0.1908 0.58499 0.85827 0.0
H757 H 0.14916 0.56784 0.84934 0.0
H758 H 0.22836 0.57724 0.84229 0.0
H759 H 0.18443 0.56612 0.89748 0.0
H760 H 0.15234 0.54256 0.9191 0.0
H761 H 0.17831 0.49379 0.92534 0.0
H762 H 0.21035 0.51688 0.90353 0.0
H763 H 0.33882 0.64119 0.8863 0.0
H764 H 0.29756 0.6253 0.87701 0.0
H765 H 0.2806 0.5556 0.89578 0.0
H766 H 0.32173 0.57169 0.90575 0.0
H767 H 0.24635 0.56299 0.90439 0.0
H768 H 0.28928 0.57146 0.85038 0.0
H769 H 0.32099 0.59207 0.8279 0.0
H770 H 0.29675 0.64152 0.81769 0.0
H771 H 0.26516 0.6215 0.8404 0.0
C772 C 0.15084 0.51643 0.85449 0.0
C773 C 0.14116 0.53111 0.85069 0.0
C774 C 0.17446 0.52629 0.85991 0.0
C775 C 0.189 0.55102 0.86143 0.0
C776 C 0.17978 0.56583 0.85713 0.0
C777 C 0.156 0.55598 0.85194 0.0
C778 C 0.21371 0.56129 0.86792 0.0
C779 C 0.2324 0.57449 0.85593 0.0
C780 C 0.21877 0.55687 0.88551 0.0
C781 C 0.19964 0.5431 0.89874 0.0
C782 C 0.18317 0.55026 0.90334 0.0
C783 C 0.16502 0.53701 0.91565 0.0
C784 C 0.16325 0.51666 0.92355 0.0
C785 C 0.17968 0.50955 0.91919 0.0
C786 C 0.19785 0.52272 0.90687 0.0
C787 C 0.32626 0.6225 0.88851 0.0
C788 C 0.33346 0.60762 0.89666 0.0
C789 C 0.30271 0.6134 0.8831 0.0
C790 C 0.28605 0.58913 0.88535 0.0
C791 C 0.29313 0.57436 0.89385 0.0
C792 C 0.31663 0.58355 0.89952 0.0
C793 C 0.26127 0.57916 0.87879 0.0
C794 C 0.24248 0.5659 0.89074 0.0
C795 C 0.25612 0.58312 0.86101 0.0
C796 C 0.27499 0.59511 0.84723 0.0
C797 C 0.29081 0.58684 0.84344 0.0
C798 C 0.30875 0.5984 0.83064 0.0
C799 C 0.3109 0.6181 0.82138 0.0
C800 C 0.29508 0.62627 0.82489 0.0
C801 C 0.27715 0.61482 0.83773 0.0
H802 H 0.3248 0.62702 0.81147 0.0
H803 H 0.14918 0.50642 0.93307 0.0
H804 H 0.59686 0.1444 0.03337 0.0
H805 H 0.62177 0.18605 0.04245 0.0
H806 H 0.68248 0.18771 0.01738 0.0
H807 H 0.65777 0.1459 0.00882 0.0
H808 H 0.69551 0.20887 0.04782 0.0
H809 H 0.65186 0.214 0.99797 0.0
H810 H 0.61618 0.20468 0.98024 0.0
H811 H 0.59115 0.23107 0.02292 0.0
H812 H 0.62655 0.24026 0.04102 0.0
H813 H 0.74092 0.34433 0.03544 0.0
H814 H 0.71527 0.30292 0.02636 0.0
H815 H 0.71618 0.28004 0.0807 0.0
H816 H 0.74252 0.32145 0.08972 0.0
H817 H 0.67285 0.26984 0.03482 0.0
H818 H 0.71303 0.22649 0.0805 0.0
H819 H 0.75145 0.23687 0.09447 0.0
H820 H 0.78838 0.28893 0.0533 0.0
H821 H 0.75021 0.27864 0.03896 0.0
C822 C 0.61549 0.15376 0.02973 0.0
C823 C 0.62542 0.142 0.0204 0.0
C824 C 0.62971 0.17755 0.03488 0.0
C825 C 0.65399 0.19015 0.03044 0.0
C826 C 0.66385 0.17838 0.02104 0.0
C827 C 0.64973 0.15452 0.01613 0.0
C828 C 0.66924 0.2155 0.03574 0.0
C829 C 0.69051 0.22217 0.04498 0.0
C830 C 0.66301 0.23302 0.03178 0.0
C831 C 0.64174 0.2276 0.02092 0.0
C832 C 0.63866 0.21766 0.00363 0.0
C833 C 0.61851 0.21243 0.9935 0.0
C834 C 0.60138 0.21723 0.00046 0.0
C835 C 0.60441 0.22733 0.01755 0.0
C836 C 0.62453 0.23258 0.02774 0.0
C837 C 0.73564 0.33047 0.04546 0.0
C838 C 0.74384 0.33608 0.06326 0.0
C839 C 0.72091 0.30681 0.04026 0.0
C840 C 0.71399 0.28831 0.05278 0.0
C841 C 0.72165 0.29395 0.07071 0.0
C842 C 0.73662 0.31762 0.07587 0.0
C843 C 0.69903 0.26314 0.04697 0.0
C844 C 0.67778 0.2565 0.0377 0.0
C845 C 0.70567 0.2458 0.05036 0.0
C846 C 0.72874 0.25196 0.05879 0.0
C847 C 0.72935 0.2401 0.07441 0.0
C848 C 0.75109 0.24597 0.08239 0.0
C849 C 0.77234 0.26361 0.07482 0.0
C850 C 0.77191 0.27534 0.0592 0.0
C851 C 0.75023 0.26951 0.05115 0.0
H852 H 0.78914 0.26814 0.08103 0.0
H853 H 0.58578 0.21316 0.99261 0.0
H854 H 0.53658 0.65581 0.19447 0.0
H855 H 0.52089 0.68085 0.20541 0.0
H856 H 0.44953 0.6244 0.19427 0.0
H857 H 0.46514 0.59922 0.18334 0.0
H858 H 0.46038 0.66988 0.18106 0.0
H859 H 0.46653 0.6337 0.23584 0.0
H860 H 0.48722 0.62272 0.25833 0.0
H861 H 0.53739 0.6966 0.26762 0.0
H862 H 0.51719 0.70802 0.24497 0.0
H863 H 0.39626 0.71659 0.22359 0.0
H864 H 0.41203 0.69087 0.21507 0.0
H865 H 0.48115 0.74318 0.235 0.0
H866 H 0.46518 0.76874 0.24411 0.0
H867 H 0.47226 0.70016 0.24372 0.0
H868 H 0.46794 0.73727 0.18956 0.0
H869 H 0.44926 0.74983 0.16648 0.0
H870 H 0.39856 0.67672 0.155 0.0
H871 H 0.41673 0.66371 0.17821 0.0
C872 C 0.51755 0.64879 0.19432 0.0
C873 C 0.50205 0.62561 0.18805 0.0
C874 C 0.50863 0.66303 0.20067 0.0
C875 C 0.48407 0.65439 0.20072 0.0
C876 C 0.46855 0.63133 0.19436 0.0
C877 C 0.47745 0.61696 0.18822 0.0
C878 C 0.47463 0.66963 0.20712 0.0
C879 C 0.46265 0.67625 0.19482 0.0
C880 C 0.47837 0.67854 0.2249 0.0
C881 C 0.49049 0.6717 0.23857 0.0
C882 C 0.4821 0.6476 0.24256 0.0
C883 C 0.49371 0.6413 0.25536 0.0
C884 C 0.51365 0.65895 0.26437 0.0
C885 C 0.52197 0.68295 0.26062 0.0
C886 C 0.51043 0.68934 0.24781 0.0
C887 C 0.41479 0.72257 0.22624 0.0
C888 C 0.42955 0.74473 0.23439 0.0
C889 C 0.42382 0.7079 0.22129 0.0
C890 C 0.4479 0.7153 0.22404 0.0
C891 C 0.46254 0.73715 0.23266 0.0
C892 C 0.45342 0.75175 0.23783 0.0
C893 C 0.45778 0.70034 0.21768 0.0
C894 C 0.46993 0.69382 0.22995 0.0
C895 C 0.4545 0.69178 0.19977 0.0
C896 C 0.44356 0.69952 0.18575 0.0
C897 C 0.45269 0.72387 0.18221 0.0
C898 C 0.44221 0.73107 0.16909 0.0
C899 C 0.4227 0.71408 0.15931 0.0
C900 C 0.41366 0.68986 0.1626 0.0
C901 C 0.42405 0.68256 0.17573 0.0
H902 H 0.41461 0.71969 0.14916 0.0
H903 H 0.52261 0.65403 0.27428 0.0
H904 H 0.90576 0.51169 0.38504 0.0
H905 H 0.86523 0.49771 0.39557 0.0
H906 H 0.84029 0.48513 0.34067 0.0
H907 H 0.88085 0.49946 0.33009 0.0
H908 H 0.82103 0.50621 0.35822 0.0
H909 H 0.83148 0.43923 0.36948 0.0
H910 H 0.85108 0.41818 0.38183 0.0
H911 H 0.84135 0.43638 0.43545 0.0
H912 H 0.82197 0.45784 0.4234 0.0
H913 H 0.69828 0.42619 0.37112 0.0
H914 H 0.7404 0.44337 0.36394 0.0
H915 H 0.75876 0.46609 0.41901 0.0
H916 H 0.71645 0.44914 0.4263 0.0
H917 H 0.78188 0.44182 0.40348 0.0
H918 H 0.76866 0.50681 0.39109 0.0
H919 H 0.7477 0.5259 0.37771 0.0
H920 H 0.7614 0.50909 0.32478 0.0
H921 H 0.78215 0.48957 0.33787 0.0
C922 C 0.89158 0.50574 0.37525 0.0
C923 C 0.89643 0.50659 0.35675 0.0
C924 C 0.86843 0.49776 0.38127 0.0
C925 C 0.84965 0.49012 0.36892 0.0
C926 C 0.8545 0.49099 0.35044 0.0
C927 C 0.87766 0.49918 0.34441 0.0
C928 C 0.82497 0.48147 0.37519 0.0
C929 C 0.81243 0.49196 0.36798 0.0
C930 C 0.81388 0.46326 0.38825 0.0
C931 C 0.82552 0.45037 0.39553 0.0
C932 C 0.8337 0.43892 0.3839 0.0
C933 C 0.84474 0.42688 0.39084 0.0
C934 C 0.84753 0.42601 0.40941 0.0
C935 C 0.83922 0.43712 0.42107 0.0
C936 C 0.82819 0.4492 0.41419 0.0
C937 C 0.71127 0.43486 0.38171 0.0
C938 C 0.70413 0.43638 0.39927 0.0
C939 C 0.7353 0.44471 0.37757 0.0
C940 C 0.75262 0.45607 0.39093 0.0
C941 C 0.74559 0.4574 0.40854 0.0
C942 C 0.7215 0.44781 0.41265 0.0
C943 C 0.77803 0.46638 0.38634 0.0
C944 C 0.79065 0.4562 0.39384 0.0
C945 C 0.78911 0.48466 0.3734 0.0
C946 C 0.77679 0.49654 0.36548 0.0
C947 C 0.76704 0.50701 0.37661 0.0
C948 C 0.75522 0.51794 0.36907 0.0
C949 C 0.75317 0.51866 0.35041 0.0
C950 C 0.76299 0.5085 0.33924 0.0
C951 C 0.7748 0.49752 0.34671 0.0
H952 H 0.74402 0.52713 0.3446 0.0
H953 H 0.85607 0.41667 0.41476 0.0
H954 H 0.12785 0.59933 0.39005 0.0
H955 H 0.15298 0.60708 0.41674 0.0
H956 H 0.09115 0.58065 0.45076 0.0
H957 H 0.06596 0.57257 0.42415 0.0
H958 H 0.13217 0.62557 0.46186 0.0
H959 H 0.11048 0.54541 0.44388 0.0
H960 H 0.10743 0.51513 0.4223 0.0
H961 H 0.18322 0.55323 0.41564 0.0
H962 H 0.18669 0.58394 0.437 0.0
H963 H 0.17425 0.61148 0.54521 0.0
H964 H 0.15157 0.60483 0.51752 0.0
H965 H 0.21183 0.61447 0.48644 0.0
H966 H 0.23431 0.62023 0.51423 0.0
H967 H 0.17345 0.57984 0.4726 0.0
H968 H 0.19681 0.65907 0.49047 0.0
H969 H 0.2017 0.69119 0.51086 0.0
H970 H 0.12595 0.65819 0.51619 0.0
H971 H 0.1206 0.62567 0.49602 0.0
C972 C 0.1197 0.59532 0.40325 0.0
C973 C 0.09501 0.58529 0.4051 0.0
C974 C 0.13401 0.59965 0.41843 0.0
C975 C 0.12385 0.59433 0.43567 0.0
C976 C 0.09928 0.58485 0.43756 0.0
C977 C 0.08493 0.58014 0.42239 0.0
C978 C 0.13875 0.59833 0.45178 0.0
C979 C 0.14103 0.61544 0.46435 0.0
C980 C 0.15088 0.58562 0.45463 0.0
C981 C 0.14881 0.56711 0.44187 0.0
C982 C 0.12648 0.54745 0.43768 0.0
C983 C 0.12467 0.53018 0.42552 0.0
C984 C 0.14511 0.53229 0.41756 0.0
C985 C 0.1674 0.55164 0.4218 0.0
C986 C 0.1693 0.56897 0.43394 0.0
C987 C 0.18263 0.61207 0.53248 0.0
C988 C 0.20608 0.61649 0.53186 0.0
C989 C 0.1697 0.60842 0.51664 0.0
C990 C 0.18015 0.60967 0.49983 0.0
C991 C 0.20341 0.61353 0.49922 0.0
C992 C 0.21625 0.61684 0.5151 0.0
C993 C 0.16676 0.60698 0.48295 0.0
C994 C 0.16476 0.59013 0.47017 0.0
C995 C 0.1552 0.62024 0.47976 0.0
C996 C 0.15832 0.63981 0.49186 0.0
C997 C 0.1812 0.65856 0.49609 0.0
C998 C 0.18405 0.67686 0.50759 0.0
C999 C 0.16415 0.6767 0.51485 0.0
C1000 C 0.14135 0.65828 0.51058 0.0
C1001 C 0.1384 0.63992 0.4991 0.0
H1002 H 0.1664 0.69089 0.52375 0.0
H1003 H 0.14368 0.51891 0.40815 0.0
H1004 H 0.51209 0.06853 0.58805 0.0
H1005 H 0.53002 0.09371 0.61453 0.0
H1006 H 0.55917 0.15632 0.58104 0.0
H1007 H 0.54109 0.13113 0.55443 0.0
H1008 H 0.59222 0.15449 0.6061 0.0
H1009 H 0.51449 0.14625 0.60513 0.0
H1010 H 0.47072 0.12396 0.60367 0.0
H1011 H 0.46787 0.08667 0.65213 0.0
H1012 H 0.51166 0.10849 0.65374 0.0
H1013 H 0.63011 0.23624 0.67946 0.0
H1014 H 0.61335 0.21443 0.65143 0.0
H1015 H 0.56786 0.15092 0.68183 0.0
H1016 H 0.5838 0.17298 0.70983 0.0
H1017 H 0.54313 0.15504 0.65697 0.0
H1018 H 0.61936 0.16016 0.65786 0.0
H1019 H 0.66306 0.18011 0.65961 0.0
H1020 H 0.66902 0.22036 0.61213 0.0
H1021 H 0.62533 0.20086 0.61023 0.0
C1022 C 0.52233 0.08766 0.58635 0.0
C1023 C 0.52523 0.09791 0.56922 0.0
C1024 C 0.53247 0.10201 0.60146 0.0
C1025 C 0.54583 0.12685 0.59971 0.0
C1026 C 0.54888 0.13717 0.58263 0.0
C1027 C 0.53845 0.12282 0.56751 0.0
C1028 C 0.55672 0.1419 0.6158 0.0
C1029 C 0.58156 0.15498 0.61714 0.0
C1030 C 0.54271 0.1419 0.63034 0.0
C1031 C 0.51637 0.12887 0.62946 0.0
C1032 C 0.50454 0.13316 0.6154 0.0
C1033 C 0.47973 0.12063 0.61456 0.0
C1034 C 0.46653 0.10387 0.62778 0.0
C1035 C 0.47812 0.09964 0.64189 0.0
C1036 C 0.50294 0.1121 0.64278 0.0
C1037 C 0.61667 0.21758 0.68012 0.0
C1038 C 0.60827 0.20627 0.6968 0.0
C1039 C 0.60715 0.20508 0.66409 0.0
C1040 C 0.58949 0.1809 0.66445 0.0
C1041 C 0.5814 0.16956 0.68115 0.0
C1042 C 0.59059 0.18215 0.69716 0.0
C1043 C 0.57882 0.16752 0.64752 0.0
C1044 C 0.55393 0.15473 0.64597 0.0
C1045 C 0.59282 0.1675 0.63291 0.0
C1046 C 0.61908 0.17923 0.63402 0.0
C1047 C 0.62999 0.1734 0.64787 0.0
C1048 C 0.65476 0.1846 0.64888 0.0
C1049 C 0.66881 0.20154 0.63602 0.0
C1050 C 0.65811 0.20726 0.6221 0.0
C1051 C 0.63335 0.19613 0.62104 0.0
H1052 H 0.68798 0.21019 0.63682 0.0
H1053 H 0.44731 0.09419 0.62711 0.0
H1054 H 0.47763 0.56507 0.72871 0.0
H1055 H 0.47055 0.58294 0.75521 0.0
H1056 H 0.41054 0.51485 0.76949 0.0
H1057 H 0.41743 0.4969 0.74287 0.0
H1058 H 0.40049 0.54941 0.77498 0.0
H1059 H 0.46435 0.53604 0.79034 0.0
H1060 H 0.50323 0.53856 0.7866 0.0
H1061 H 0.53825 0.61483 0.78941 0.0
H1062 H 0.49953 0.61278 0.7929 0.0
H1063 H 0.39297 0.57173 0.86766 0.0
H1064 H 0.39909 0.55628 0.8394 0.0
H1065 H 0.45268 0.62722 0.82392 0.0
H1066 H 0.4465 0.6429 0.85219 0.0
H1067 H 0.4661 0.59243 0.81872 0.0
H1068 H 0.40072 0.60451 0.8049 0.0
H1069 H 0.36129 0.6004 0.80957 0.0
H1070 H 0.32847 0.52442 0.80512 0.0
H1071 H 0.36776 0.52804 0.80069 0.0
C1072 C 0.46294 0.5539 0.73751 0.0
C1073 C 0.44821 0.52953 0.7338 0.0
C1074 C 0.4589 0.56414 0.75264 0.0
C1075 C 0.44025 0.55015 0.76451 0.0
C1076 C 0.42506 0.52597 0.76054 0.0
C1077 C 0.42899 0.51575 0.74532 0.0
C1078 C 0.43696 0.56063 0.78127 0.0
C1079 C 0.41476 0.55858 0.78463 0.0
C1080 C 0.4557 0.57296 0.79374 0.0
C1081 C 0.47902 0.57426 0.79169 0.0
C1082 C 0.48033 0.55336 0.79001 0.0
C1083 C 0.50234 0.5547 0.78796 0.0
C1084 C 0.52319 0.57684 0.78772 0.0
C1085 C 0.52208 0.59769 0.78957 0.0
C1086 C 0.50011 0.59645 0.7916 0.0
C1087 C 0.40609 0.58405 0.85826 0.0
C1088 C 0.41926 0.60853 0.86211 0.0
C1089 C 0.40948 0.5752 0.84209 0.0
C1090 C 0.42618 0.59065 0.82953 0.0
C1091 C 0.43965 0.61505 0.83345 0.0
C1092 C 0.43609 0.62397 0.84956 0.0
C1093 C 0.42968 0.58117 0.81238 0.0
C1094 C 0.4519 0.58337 0.80899 0.0
C1095 C 0.41089 0.56875 0.80001 0.0
C1096 C 0.38723 0.56654 0.80263 0.0
C1097 C 0.38513 0.5869 0.80507 0.0
C1098 C 0.36279 0.58467 0.80765 0.0
C1099 C 0.3424 0.56215 0.80768 0.0
C1100 C 0.34429 0.54184 0.80511 0.0
C1101 C 0.36658 0.54398 0.80255 0.0
H1102 H 0.32511 0.56044 0.80964 0.0
H1103 H 0.54022 0.57784 0.78614 0.0
H1104 H 0.94207 0.41724 0.91294 0.0
H1105 H 0.91925 0.4121 0.94032 0.0
H1106 H 0.91711 0.47597 0.9281 0.0
H1107 H 0.94088 0.48186 0.90115 0.0
H1108 H 0.92645 0.47542 0.9624 0.0
H1109 H 0.86835 0.4202 0.92156 0.0
H1110 H 0.85095 0.38727 0.89962 0.0
H1111 H 0.85118 0.33943 0.93939 0.0
H1112 H 0.86888 0.37217 0.9615 0.0
H1113 H 0.8313 0.45198 0.02315 0.0
H1114 H 0.85518 0.45862 0.99596 0.0
H1115 H 0.86827 0.4023 0.0118 0.0
H1116 H 0.84471 0.39576 0.03909 0.0
H1117 H 0.85277 0.39929 0.97559 0.0
H1118 H 0.91132 0.45634 0.01636 0.0
H1119 H 0.92743 0.48993 0.03771 0.0
H1120 H 0.92434 0.53514 0.99696 0.0
H1121 H 0.90788 0.50169 0.97542 0.0
C1122 C 0.93693 0.43032 0.91614 0.0
C1123 C 0.94327 0.44993 0.90478 0.0
C1124 C 0.92365 0.42721 0.93171 0.0
C1125 C 0.91617 0.44347 0.93616 0.0
C1126 C 0.92258 0.46313 0.92492 0.0
C1127 C 0.93598 0.46633 0.9094 0.0
C1128 C 0.90194 0.44015 0.95265 0.0
C1129 C 0.91016 0.45888 0.96514 0.0
C1130 C 0.88085 0.41846 0.95639 0.0
C1131 C 0.87016 0.3987 0.94314 0.0
C1132 C 0.86487 0.4027 0.92559 0.0
C1133 C 0.85492 0.38406 0.91313 0.0
C1134 C 0.85002 0.36129 0.9181 0.0
C1135 C 0.85501 0.35709 0.93555 0.0
C1136 C 0.86498 0.37568 0.94806 0.0
C1137 C 0.83942 0.44114 0.02089 0.0
C1138 C 0.83621 0.42339 0.03324 0.0
C1139 C 0.85305 0.44496 0.00538 0.0
C1140 C 0.86349 0.43096 0.00192 0.0
C1141 C 0.86033 0.41326 0.01424 0.0
C1142 C 0.84697 0.40964 0.02985 0.0
C1143 C 0.87739 0.43448 0.98528 0.0
C1144 C 0.86906 0.4158 0.97278 0.0
C1145 C 0.89818 0.45631 0.98142 0.0
C1146 C 0.90813 0.47644 0.99434 0.0
C1147 C 0.91387 0.47338 0.012 0.0
C1148 C 0.92311 0.49241 0.02413 0.0
C1149 C 0.92684 0.51463 0.01871 0.0
C1150 C 0.9214 0.5179 0.00114 0.0
C1151 C 0.91214 0.49892 0.98896 0.0
H1152 H 0.934 0.52935 0.02812 0.0
H1153 H 0.84232 0.34688 0.90843 0.0
H1154 H 0.53442 0.96778 0.09004 0.0
H1155 H 0.51677 0.94324 0.11671 0.0
H1156 H 0.46659 0.88549 0.08337 0.0
H1157 H 0.48471 0.9095 0.05649 0.0
H1158 H 0.44595 0.89648 0.11312 0.0
H1159 H 0.50903 0.88024 0.10057 0.0
H1160 H 0.55043 0.89083 0.09435 0.0
H1161 H 0.57238 0.92694 0.14515 0.0
H1162 H 0.53114 0.91685 0.15157 0.0
H1163 H 0.39887 0.80773 0.18139 0.0
H1164 H 0.41589 0.83061 0.15383 0.0
H1165 H 0.47556 0.88386 0.18414 0.0
H1166 H 0.45903 0.86063 0.21157 0.0
H1167 H 0.49109 0.87445 0.1551 0.0
H1168 H 0.42967 0.89259 0.1679 0.0
H1169 H 0.38897 0.88401 0.17455 0.0
H1170 H 0.36461 0.84703 0.12425 0.0
H1171 H 0.40512 0.85512 0.1174 0.0
C1172 C 0.51995 0.94972 0.08828 0.0
C1173 C 0.51104 0.94067 0.07104 0.0
C1174 C 0.50977 0.93578 0.10358 0.0
C1175 C 0.49041 0.91258 0.10198 0.0
C1176 C 0.48146 0.90342 0.08486 0.0
C1177 C 0.49179 0.91724 0.06953 0.0
C1178 C 0.47928 0.89804 0.11823 0.0
C1179 C 0.45565 0.89133 0.1222 0.0
C1180 C 0.49223 0.89197 0.13026 0.0
C1181 C 0.51703 0.89799 0.12646 0.0
C1182 C 0.52271 0.89062 0.11035 0.0
C1183 C 0.54615 0.89649 0.1068 0.0
C1184 C 0.56403 0.9096 0.11933 0.0
C1185 C 0.55851 0.91681 0.13545 0.0
C1186 C 0.53511 0.911 0.13906 0.0
C1187 C 0.41552 0.82441 0.18217 0.0
C1188 C 0.42762 0.83243 0.19861 0.0
C1189 C 0.4252 0.83753 0.16642 0.0
C1190 C 0.44692 0.85912 0.1669 0.0
C1191 C 0.45883 0.86725 0.1834 0.0
C1192 C 0.44932 0.85401 0.19908 0.0
C1193 C 0.45766 0.87293 0.15018 0.0
C1194 C 0.48127 0.87952 0.14608 0.0
C1195 C 0.44476 0.87915 0.13814 0.0
C1196 C 0.42038 0.87424 0.14223 0.0
C1197 C 0.41559 0.88246 0.15832 0.0
C1198 C 0.39257 0.87771 0.16211 0.0
C1199 C 0.3742 0.86492 0.14985 0.0
C1200 C 0.37884 0.8569 0.13375 0.0
C1201 C 0.40184 0.86158 0.1299 0.0
H1202 H 0.35639 0.86127 0.15281 0.0
H1203 H 0.58216 0.91413 0.11656 0.0
H1204 H 0.61401 0.53993 0.24367 0.0
H1205 H 0.62149 0.52263 0.27035 0.0
H1206 H 0.56169 0.45399 0.25682 0.0
H1207 H 0.55411 0.47119 0.23015 0.0
H1208 H 0.56038 0.46342 0.2913 0.0
H1209 H 0.61877 0.46567 0.25122 0.0
H1210 H 0.65213 0.48356 0.22975 0.0
H1211 H 0.69685 0.53297 0.27022 0.0
H1212 H 0.66365 0.51558 0.29187 0.0
H1213 H 0.58776 0.39751 0.3545 0.0
H1214 H 0.58064 0.41289 0.32651 0.0
H1215 H 0.6349 0.48397 0.34114 0.0
H1216 H 0.64203 0.46878 0.36915 0.0
H1217 H 0.63881 0.47199 0.30567 0.0
H1218 H 0.57891 0.46931 0.3454 0.0
H1219 H 0.54515 0.45019 0.36645 0.0
H1220 H 0.50284 0.39968 0.32573 0.0
H1221 H 0.53648 0.41831 0.3045 0.0
C1222 C 0.60267 0.52108 0.24625 0.0
C1223 C 0.58345 0.50693 0.23482 0.0
C1224 C 0.60694 0.51122 0.26151 0.0
C1225 C 0.59225 0.48696 0.26552 0.0
C1226 C 0.57321 0.47276 0.25403 0.0
C1227 C 0.56887 0.48262 0.23882 0.0
C1228 C 0.59624 0.47658 0.28203 0.0
C1229 C 0.57744 0.46498 0.29429 0.0
C1230 C 0.6186 0.47896 0.2861 0.0
C1231 C 0.63864 0.48946 0.27312 0.0
C1232 C 0.63566 0.48048 0.25551 0.0
C1233 C 0.65455 0.4905 0.24331 0.0
C1234 C 0.67657 0.50943 0.24861 0.0
C1235 C 0.67977 0.51833 0.26613 0.0
C1236 C 0.66092 0.50838 0.27838 0.0
C1237 C 0.59808 0.41642 0.35178 0.0
C1238 C 0.61538 0.43196 0.36403 0.0
C1239 C 0.59399 0.42518 0.33581 0.0
C1240 C 0.6072 0.44957 0.3318 0.0
C1241 C 0.62455 0.46508 0.34398 0.0
C1242 C 0.6285 0.45639 0.36001 0.0
C1243 C 0.603 0.45898 0.3149 0.0
C1244 C 0.62176 0.47039 0.30259 0.0
C1245 C 0.58055 0.45623 0.3107 0.0
C1246 C 0.56029 0.44505 0.32343 0.0
C1247 C 0.56247 0.454 0.34099 0.0
C1248 C 0.54335 0.44328 0.35294 0.0
C1249 C 0.52189 0.42369 0.34745 0.0
C1250 C 0.51949 0.41483 0.32997 0.0
C1251 C 0.53857 0.42547 0.31797 0.0
H1252 H 0.5071 0.41542 0.35672 0.0
H1253 H 0.69118 0.51717 0.23915 0.0
H1254 H 0.47594 0.94127 0.41952 0.0
H1255 H 0.46978 0.91827 0.39214 0.0
H1256 H 0.40534 0.91979 0.38148 0.0
H1257 H 0.41067 0.94172 0.40946 0.0
H1258 H 0.39859 0.87728 0.37441 0.0
H1259 H 0.45788 0.95643 0.35878 0.0
H1260 H 0.49536 0.9946 0.3618 0.0
H1261 H 0.53514 0.95844 0.3565 0.0
H1262 H 0.49787 0.91998 0.35369 0.0
H1263 H 0.3899 0.8435 0.28238 0.0
H1264 H 0.39594 0.8674 0.30942 0.0
H1265 H 0.4532 0.85614 0.32576 0.0
H1266 H 0.44714 0.83201 0.29877 0.0
H1267 H 0.46324 0.90403 0.32929 0.0
H1268 H 0.40222 0.82444 0.34514 0.0
H1269 H 0.36407 0.78725 0.34089 0.0
H1270 H 0.32674 0.82608 0.3444 0.0
H1271 H 0.36473 0.86358 0.3484 0.0
C1272 C 0.46023 0.93643 0.41154 0.0
C1273 C 0.44379 0.9434 0.41675 0.0
C1274 C 0.45692 0.92353 0.39572 0.0
C1275 C 0.43732 0.91765 0.38456 0.0
C1276 C 0.42068 0.92425 0.38981 0.0
C1277 C 0.42387 0.93699 0.40574 0.0
C1278 C 0.43418 0.9045 0.36747 0.0
C1279 C 0.41262 0.88335 0.36444 0.0
C1280 C 0.45259 0.91219 0.35454 0.0
C1281 C 0.47506 0.93529 0.3562 0.0
C1282 C 0.47461 0.95659 0.3584 0.0
C1283 C 0.49582 0.97828 0.36005 0.0
C1284 C 0.51761 0.97894 0.35939 0.0
C1285 C 0.51824 0.9579 0.35703 0.0
C1286 C 0.49708 0.93615 0.35539 0.0
C1287 C 0.40387 0.84623 0.29167 0.0
C1288 C 0.41802 0.83584 0.28851 0.0
C1289 C 0.40724 0.85981 0.30713 0.0
C1290 C 0.42488 0.86335 0.31962 0.0
C1291 C 0.43947 0.85356 0.31626 0.0
C1292 C 0.43595 0.83976 0.30089 0.0
C1293 C 0.42779 0.87689 0.33637 0.0
C1294 C 0.44926 0.89808 0.33929 0.0
C1295 C 0.40921 0.86941 0.34908 0.0
C1296 C 0.38634 0.84684 0.34689 0.0
C1297 C 0.38589 0.82507 0.34486 0.0
C1298 C 0.36429 0.80393 0.34252 0.0
C1299 C 0.343 0.80431 0.34232 0.0
C1300 C 0.34325 0.82582 0.34453 0.0
C1301 C 0.36481 0.84702 0.34685 0.0
H1302 H 0.32629 0.78792 0.3405 0.0
H1303 H 0.53402 0.99576 0.36067 0.0
H1304 H 0.50323 0.4536 0.56608 0.0
H1305 H 0.52163 0.44822 0.53922 0.0
H1306 H 0.56561 0.43137 0.57237 0.0
H1307 H 0.54694 0.43622 0.59937 0.0
H1308 H 0.59113 0.46376 0.5458 0.0
H1309 H 0.51997 0.38784 0.55042 0.0
H1310 H 0.47686 0.36041 0.55346 0.0
H1311 H 0.46452 0.38676 0.50408 0.0
H1312 H 0.50755 0.4146 0.50087 0.0
H1313 H 0.63261 0.41947 0.47498 0.0
H1314 H 0.61551 0.42505 0.50261 0.0
H1315 H 0.56711 0.43762 0.47114 0.0
H1316 H 0.58386 0.43167 0.44351 0.0
H1317 H 0.5441 0.40683 0.49741 0.0
H1318 H 0.61487 0.48317 0.49287 0.0
H1319 H 0.65788 0.51108 0.48979 0.0
H1320 H 0.67093 0.48457 0.5388 0.0
H1321 H 0.628 0.45625 0.54206 0.0
C1322 C 0.51652 0.44835 0.56769 0.0
C1323 C 0.52352 0.44525 0.58492 0.0
C1324 C 0.52711 0.44541 0.55231 0.0
C1325 C 0.54489 0.43927 0.5538 0.0
C1326 C 0.55197 0.43618 0.57093 0.0
C1327 C 0.54132 0.43903 0.58634 0.0
C1328 C 0.55629 0.43641 0.53746 0.0
C1329 C 0.58093 0.45107 0.53532 0.0
C1330 C 0.54286 0.42025 0.52363 0.0
C1331 C 0.51697 0.40347 0.52549 0.0
C1332 C 0.50805 0.38793 0.54028 0.0
C1333 C 0.48363 0.37228 0.54203 0.0
C1334 C 0.46795 0.37188 0.529 0.0
C1335 C 0.47668 0.3871 0.51417 0.0
C1336 C 0.50109 0.40281 0.51237 0.0
C1337 C 0.61849 0.42366 0.47396 0.0
C1338 C 0.60958 0.42515 0.45709 0.0
C1339 C 0.60877 0.4269 0.48975 0.0
C1340 C 0.59011 0.4319 0.48895 0.0
C1341 C 0.58146 0.43374 0.47209 0.0
C1342 C 0.59112 0.43044 0.45631 0.0
C1343 C 0.57897 0.43431 0.50565 0.0
C1344 C 0.55435 0.41952 0.50788 0.0
C1345 C 0.59242 0.45041 0.51952 0.0
C1346 C 0.61824 0.46742 0.5176 0.0
C1347 C 0.62693 0.48315 0.50291 0.0
C1348 C 0.65129 0.49907 0.50115 0.0
C1349 C 0.66713 0.49955 0.51406 0.0
C1350 C 0.65864 0.48415 0.5288 0.0
C1351 C 0.63429 0.46817 0.53061 0.0
H1352 H 0.68599 0.5119 0.51268 0.0
H1353 H 0.44905 0.35975 0.53037 0.0
H1354 H 0.12526 0.53921 0.76477 0.0
H1355 H 0.14993 0.55746 0.73798 0.0
H1356 H 0.08924 0.51555 0.70399 0.0
H1357 H 0.06441 0.49771 0.73073 0.0
H1358 H 0.13543 0.51824 0.694 0.0
H1359 H 0.10008 0.56667 0.70884 0.0
H1360 H 0.09093 0.59081 0.72941 0.0
H1361 H 0.16546 0.63889 0.73755 0.0
H1362 H 0.17505 0.61479 0.71723 0.0
H1363 H 0.175 0.57473 0.61019 0.0
H1364 H 0.15175 0.55638 0.63731 0.0
H1365 H 0.20472 0.61423 0.66927 0.0
H1366 H 0.22749 0.63316 0.64202 0.0
H1367 H 0.16356 0.60337 0.68135 0.0
H1368 H 0.20048 0.55794 0.6668 0.0
H1369 H 0.21197 0.53421 0.64778 0.0
H1370 H 0.13854 0.48114 0.64097 0.0
H1371 H 0.12658 0.50472 0.65976 0.0
C1372 C 0.11732 0.53376 0.75156 0.0
C1373 C 0.09301 0.51714 0.74972 0.0
C1374 C 0.13135 0.5442 0.73632 0.0
C1375 C 0.12131 0.53785 0.71908 0.0
C1376 C 0.09724 0.52062 0.71721 0.0
C1377 C 0.08312 0.51054 0.73243 0.0
C1378 C 0.13567 0.54986 0.70298 0.0
C1379 C 0.14142 0.53678 0.69107 0.0
C1380 C 0.14403 0.5742 0.69958 0.0
C1381 C 0.13827 0.58878 0.71169 0.0
C1382 C 0.11451 0.58226 0.71516 0.0
C1383 C 0.10925 0.59596 0.72674 0.0
C1384 C 0.1276 0.61633 0.73483 0.0
C1385 C 0.15126 0.62308 0.7313 0.0
C1386 C 0.15662 0.60941 0.71975 0.0
C1387 C 0.18159 0.58359 0.62299 0.0
C1388 C 0.20308 0.60531 0.62403 0.0
C1389 C 0.16839 0.57301 0.63852 0.0
C1390 C 0.17673 0.58362 0.65543 0.0
C1391 C 0.19794 0.60563 0.65641 0.0
C1392 C 0.21095 0.61643 0.64083 0.0
C1393 C 0.16335 0.57175 0.67208 0.0
C1394 C 0.15775 0.58485 0.68418 0.0
C1395 C 0.15552 0.5475 0.67583 0.0
C1396 C 0.16263 0.53321 0.66455 0.0
C1397 C 0.18677 0.54129 0.66114 0.0
C1398 C 0.19337 0.52785 0.65042 0.0
C1399 C 0.17599 0.50621 0.64314 0.0
C1400 C 0.15198 0.49793 0.6466 0.0
C1401 C 0.14528 0.51131 0.6573 0.0
H1402 H 0.18114 0.49583 0.63484 0.0
H1403 H 0.12349 0.62692 0.74379 0.0
H1404 H 0.59864 0.13044 0.93482 0.0
H1405 H 0.60607 0.15536 0.908 0.0
H1406 H 0.57911 0.09303 0.8743 0.0
H1407 H 0.5713 0.06806 0.90102 0.0
H1408 H 0.6242 0.13426 0.86307 0.0
H1409 H 0.54404 0.11219 0.88119 0.0
H1410 H 0.51399 0.10932 0.90284 0.0
H1411 H 0.55182 0.18536 0.90888 0.0
H1412 H 0.5823 0.18863 0.88744 0.0
H1413 H 0.60857 0.17363 0.77923 0.0
H1414 H 0.6023 0.15174 0.80729 0.0
H1415 H 0.61178 0.21285 0.83732 0.0
H1416 H 0.61716 0.23453 0.80915 0.0
H1417 H 0.57769 0.17459 0.85184 0.0
H1418 H 0.65666 0.19846 0.83367 0.0
H1419 H 0.68866 0.20333 0.81323 0.0
H1420 H 0.65665 0.12741 0.80893 0.0
H1421 H 0.62425 0.12207 0.82914 0.0
C1422 C 0.59443 0.12215 0.92166 0.0
C1423 C 0.58433 0.09738 0.91992 0.0
C1424 C 0.59859 0.13633 0.90642 0.0
C1425 C 0.59305 0.12596 0.88924 0.0
C1426 C 0.58348 0.10131 0.88746 0.0
C1427 C 0.57894 0.0871 0.90269 0.0
C1428 C 0.59687 0.14068 0.87306 0.0
C1429 C 0.61391 0.14292 0.86048 0.0
C1430 C 0.58397 0.15258 0.87009 0.0
C1431 C 0.56559 0.15063 0.88288 0.0
C1432 C 0.54607 0.12828 0.88726 0.0
C1433 C 0.52893 0.12658 0.89947 0.0
C1434 C 0.53103 0.14714 0.90727 0.0
C1435 C 0.55024 0.16944 0.90285 0.0
C1436 C 0.56744 0.17123 0.89066 0.0
C1437 C 0.60917 0.18234 0.79181 0.0
C1438 C 0.61347 0.20581 0.79203 0.0
C1439 C 0.60575 0.16988 0.80786 0.0
C1440 C 0.60712 0.18082 0.82447 0.0
C1441 C 0.61077 0.20406 0.82469 0.0
C1442 C 0.61385 0.21644 0.80859 0.0
C1443 C 0.60487 0.16799 0.84157 0.0
C1444 C 0.58815 0.16611 0.85439 0.0
C1445 C 0.6184 0.15676 0.84492 0.0
C1446 C 0.6379 0.15987 0.8328 0.0
C1447 C 0.65634 0.1828 0.82826 0.0
C1448 C 0.67457 0.18565 0.81673 0.0
C1449 C 0.67466 0.1657 0.80975 0.0
C1450 C 0.65654 0.14285 0.81433 0.0
C1451 C 0.63825 0.1399 0.82584 0.0
H1452 H 0.68879 0.16794 0.80083 0.0
H1453 H 0.51774 0.14579 0.91672 0.0
H1454 H 0.4806 0.55226 0.08098 0.0
H1455 H 0.46455 0.5591 0.05331 0.0
H1456 H 0.52133 0.63222 0.05264 0.0
H1457 H 0.53744 0.62552 0.08045 0.0
H1458 H 0.47694 0.62723 0.0455 0.0
H1459 H 0.52505 0.59506 0.02524 0.0
H1460 H 0.53903 0.56609 0.0244 0.0
H1461 H 0.46956 0.51105 0.00827 0.0
H1462 H 0.45506 0.53963 0.00927 0.0
H1463 H 0.46426 0.62417 0.94174 0.0
H1464 H 0.48157 0.61802 0.96899 0.0
H1465 H 0.41778 0.60081 0.99844 0.0
H1466 H 0.40039 0.60707 0.97123 0.0
H1467 H 0.46811 0.57975 0.9907 0.0
H1468 H 0.4344 0.62418 0.04097 0.0
H1469 H 0.42288 0.65508 0.04121 0.0
H1470 H 0.46851 0.68946 0.99604 0.0
H1471 H 0.48055 0.65896 0.99569 0.0
C1472 C 0.48955 0.56985 0.07502 0.0
C1473 C 0.51027 0.58837 0.08287 0.0
C1474 C 0.48046 0.57368 0.05916 0.0
C1475 C 0.49185 0.59612 0.05089 0.0
C1476 C 0.51231 0.61477 0.05883 0.0
C1477 C 0.52156 0.61089 0.07462 0.0
C1478 C 0.48246 0.59999 0.03386 0.0
C1479 C 0.47498 0.61685 0.03352 0.0
C1480 C 0.48024 0.58666 0.01818 0.0
C1481 C 0.48891 0.56944 0.0175 0.0
C1482 C 0.5127 0.57674 0.02166 0.0
C1483 C 0.52073 0.56039 0.02113 0.0
C1484 C 0.50518 0.53673 0.01633 0.0
C1485 C 0.48157 0.52938 0.012 0.0
C1486 C 0.47344 0.54565 0.01254 0.0
C1487 C 0.45386 0.61894 0.95399 0.0
C1488 C 0.43101 0.61619 0.95438 0.0
C1489 C 0.46376 0.61538 0.96953 0.0
C1490 C 0.45106 0.6092 0.98577 0.0
C1491 C 0.42799 0.60587 0.98609 0.0
C1492 C 0.41805 0.60936 0.97053 0.0
C1493 C 0.46217 0.6067 0.00241 0.0
C1494 C 0.46998 0.59009 0.00269 0.0
C1495 C 0.465 0.62049 0.01796 0.0
C1496 C 0.45817 0.63914 0.0182 0.0
C1497 C 0.44204 0.63838 0.03114 0.0
C1498 C 0.43541 0.65582 0.03128 0.0
C1499 C 0.44489 0.67417 0.01861 0.0
C1500 C 0.4611 0.67518 0.0058 0.0
C1501 C 0.46781 0.65781 0.00562 0.0
H1502 H 0.43972 0.68764 0.01873 0.0
H1503 H 0.51143 0.52411 0.01592 0.0
H1504 H 0.93931 0.47333 0.25482 0.0
H1505 H 0.9155 0.45615 0.22778 0.0
H1506 H 0.91705 0.52227 0.21724 0.0
H1507 H 0.93985 0.53922 0.24479 0.0
H1508 H 0.87418 0.48629 0.21125 0.0
H1509 H 0.95294 0.50577 0.19409 0.0
H1510 H 0.9907 0.50565 0.19646 0.0
H1511 H 0.95329 0.42957 0.19078 0.0
H1512 H 0.91524 0.42921 0.18862 0.0
H1513 H 0.84146 0.4681 0.11941 0.0
H1514 H 0.86436 0.48301 0.14717 0.0
H1515 H 0.85282 0.4129 0.15881 0.0
H1516 H 0.82975 0.39777 0.13095 0.0
H1517 H 0.89994 0.44947 0.16444 0.0
H1518 H 0.82099 0.43105 0.18061 0.0
H1519 H 0.78398 0.43247 0.17737 0.0
H1520 H 0.82298 0.5084 0.18398 0.0
H1521 H 0.8603 0.50748 0.187 0.0
C1522 C 0.93433 0.48415 0.24691 0.0
C1523 C 0.94156 0.50771 0.25201 0.0
C1524 C 0.92095 0.47437 0.23131 0.0
C1525 C 0.91479 0.48803 0.22031 0.0
C1526 C 0.92169 0.51142 0.22547 0.0
C1527 C 0.93493 0.52117 0.24114 0.0
C1528 C 0.90108 0.47791 0.20346 0.0
C1529 C 0.87999 0.47851 0.20093 0.0
C1530 C 0.90836 0.46728 0.19013 0.0
C1531 C 0.93122 0.46745 0.19138 0.0
C1532 C 0.95274 0.489 0.19349 0.0
C1533 C 0.9742 0.48902 0.19477 0.0
C1534 C 0.97439 0.46761 0.19382 0.0
C1535 C 0.95312 0.44614 0.19154 0.0
C1536 C 0.9316 0.44602 0.19028 0.0
C1537 C 0.84385 0.45585 0.12783 0.0
C1538 C 0.83375 0.43174 0.12305 0.0
C1539 C 0.85687 0.46439 0.14371 0.0
C1540 C 0.86006 0.449 0.15511 0.0
C1541 C 0.85049 0.42503 0.15019 0.0
C1542 C 0.83729 0.41642 0.13432 0.0
C1543 C 0.87321 0.45801 0.17226 0.0
C1544 C 0.89415 0.45719 0.17482 0.0
C1545 C 0.86592 0.46863 0.18554 0.0
C1546 C 0.84348 0.46921 0.18387 0.0
C1547 C 0.82171 0.44807 0.18123 0.0
C1548 C 0.80067 0.44878 0.17946 0.0
C1549 C 0.80114 0.47052 0.18043 0.0
C1550 C 0.82265 0.49158 0.18322 0.0
C1551 C 0.84375 0.49097 0.18498 0.0
H1552 H 0.78483 0.47103 0.17905 0.0
H1553 H 0.99102 0.46767 0.19481 0.0
loop_
_geom_bond_atom_site_label_1
_geom_bond_atom_site_label_2
_geom_bond_distance
_geom_bond_site_symmetry_2
_ccdc_geom_bond_type
C0 C1 1.384 . S
C0 C2 1.384 . S
C0 H28 0.931 . S
C1 C0 1.384 . S
C1 C4 1.382 . S
C2 C0 1.384 . S
C2 C3 1.381 . S
C2 H29 0.930 . S
C3 C2 1.381 . S
C3 C5 1.381 . S
C3 C6 1.487 . S
C4 C1 1.382 . S
C4 C5 1.387 . S
C4 H30 0.930 . S
C5 C3 1.381 . S
C5 C4 1.387 . S
C5 H31 0.931 . S
C6 C3 1.487 . S
C6 C13 1.399 1_655 S
C6 N44 1.343 1_655 S
C7 C8 1.384 . S
C7 C9 1.384 . S
C7 H32 0.931 . S
C8 C7 1.384 . S
C8 C11 1.382 . S
C9 C7 1.384 . S
C9 C10 1.381 . S
C9 H33 0.930 . S
C10 C9 1.381 . S
C10 C12 1.381 . S
C10 C13 1.487 1_655 S
C11 C8 1.382 . S
C11 C12 1.387 . S
C11 H34 0.930 . S
C12 C10 1.381 . S
C12 C11 1.387 . S
C12 H35 0.931 1_655 S
C13 C6 1.399 1_455 S
C13 C10 1.487 1_455 S
C13 N45 1.343 . S
C14 C15 1.384 . S
C14 C16 1.384 . S
C14 H36 0.931 . S
C15 C14 1.384 . S
C15 C18 1.382 . S
C16 C14 1.384 . S
C16 C17 1.381 . S
C16 H37 0.930 . S
C17 C16 1.381 . S
C17 C19 1.381 . S
C17 C20 1.487 . S
C18 C15 1.382 . S
C18 C19 1.387 . S
C18 H38 0.930 . S
C19 C17 1.381 . S
C19 C18 1.387 . S
C19 H39 0.931 . S
C20 C17 1.487 . S
C20 C27 1.399 . S
C20 N45 1.343 . S
C21 C22 1.384 . S
C21 C23 1.384 . S
C21 H40 0.931 . S
C22 C21 1.384 . S
C22 C25 1.382 . S
C23 C21 1.384 . S
C23 C24 1.381 . S
C23 H41 0.930 . S
C24 C23 1.381 . S
C24 C26 1.381 . S
C24 C27 1.487 . S
C25 C22 1.382 . S
C25 C26 1.387 . S
C25 H42 0.930 . S
C26 C24 1.381 . S
C26 C25 1.387 . S
C26 H43 0.931 . S
C27 C20 1.399 . S
C27 C24 1.487 . S
C27 N44 1.343 . S
H28 C0 0.931 . S
H29 C2 0.930 . S
H30 C4 0.930 . S
H31 C5 0.931 . S
H32 C7 0.931 . S
H33 C9 0.930 . S
H34 C11 0.930 . S
H35 C12 0.931 1_455 S
H36 C14 0.931 . S
H37 C16 0.930 . S
H38 C18 0.930 . S
H39 C19 0.931 . S
H40 C21 0.931 . S
H41 C23 0.930 . S
H42 C25 0.930 . S
H43 C26 0.931 . S
N44 C6 1.343 1_455 S
N44 C27 1.343 . S
N45 C13 1.343 . S
N45 C20 1.343 . S
C46 C47 1.384 . S
C46 C48 1.384 . S
C46 H74 0.931 . S
C47 C46 1.384 . S
C47 C50 1.382 . S
C48 C46 1.384 . S
C48 C49 1.381 . S
C48 H75 0.930 . S
C49 C48 1.381 . S
C49 C51 1.381 . S
C49 C52 1.487 . S
C50 C47 1.382 . S
C50 C51 1.387 . S
C50 H76 0.930 . S
C51 C49 1.381 . S
C51 C50 1.387 . S
C51 H77 0.931 . S
C52 C49 1.487 . S
C52 C59 1.399 1_565 S
C52 N90 1.343 1_565 S
C53 C54 1.384 . S
C53 C55 1.384 . S
C53 H78 0.931 . S
C54 C53 1.384 . S
C54 C57 1.382 . S
C55 C53 1.384 . S
C55 C56 1.381 . S
C55 H79 0.930 . S
C56 C55 1.381 . S
C56 C58 1.381 . S
C56 C59 1.487 1_565 S
C57 C54 1.382 . S
C57 C58 1.387 . S
C57 H80 0.930 . S
C58 C56 1.381 . S
C58 C57 1.387 . S
C58 H81 0.931 1_565 S
C59 C52 1.399 1_545 S
C59 C56 1.487 1_545 S
C59 N91 1.343 . S
C60 C61 1.384 . S
C60 C62 1.384 . S
C60 H82 0.931 . S
C61 C60 1.384 . S
C61 C64 1.382 . S
C62 C60 1.384 . S
C62 C63 1.381 . S
C62 H83 0.930 . S
C63 C62 1.381 . S
C63 C65 1.381 . S
C63 C66 1.487 . S
C64 C61 1.382 . S
C64 C65 1.387 . S
C64 H84 0.930 . S
C65 C63 1.381 . S
C65 C64 1.387 . S
C65 H85 0.931 . S
C66 C63 1.487 . S
C66 C73 1.399 . S
C66 N91 1.343 . S
C67 C68 1.384 . S
C67 C69 1.384 . S
C67 H86 0.931 . S
C68 C67 1.384 . S
C68 C71 1.382 . S
C69 C67 1.384 . S
C69 C70 1.381 . S
C69 H87 0.930 . S
C70 C69 1.381 . S
C70 C72 1.381 . S
C70 C73 1.487 . S
C71 C68 1.382 . S
C71 C72 1.387 . S
C71 H88 0.930 . S
C72 C70 1.381 . S
C72 C71 1.387 . S
C72 H89 0.931 . S
C73 C66 1.399 . S
C73 C70 1.487 . S
C73 N90 1.343 . S
H74 C46 0.931 . S
H75 C48 0.930 . S
H76 C50 0.930 . S
H77 C51 0.931 . S
H78 C53 0.931 . S
H79 C55 0.930 . S
H80 C57 0.930 . S
H81 C58 0.931 1_545 S
H82 C60 0.931 . S
H83 C62 0.930 . S
H84 C64 0.930 . S
H85 C65 0.931 . S
H86 C67 0.931 . S
H87 C69 0.930 . S
H88 C71 0.930 . S
H89 C72 0.931 . S
N90 C52 1.343 1_545 S
N90 C73 1.343 . S
N91 C59 1.343 . S
N91 C66 1.343 . S
C92 C93 1.384 . S
C92 C94 1.384 . S
C92 H120 0.931 . S
C93 C92 1.384 . S
C93 C96 1.382 . S
C94 C92 1.384 . S
C94 C95 1.381 . S
C94 H121 0.930 . S
C95 C94 1.381 . S
C95 C97 1.381 . S
C95 C98 1.487 . S
C96 C93 1.382 . S
C96 C97 1.387 . S
C96 H122 0.930 . S
C97 C95 1.381 . S
C97 C96 1.387 . S
C97 H123 0.931 . S
C98 C95 1.487 . S
C98 C105 1.399 . S
C98 N136 1.343 . S
C99 C100 1.384 . S
C99 C101 1.384 . S
C99 H124 0.931 . S
C100 C99 1.384 . S
C100 C103 1.382 . S
C101 C99 1.384 . S
C101 C102 1.381 . S
C101 H125 0.930 . S
C102 C101 1.381 . S
C102 C104 1.381 . S
C102 C105 1.487 . S
C103 C100 1.382 . S
C103 C104 1.387 . S
C103 H126 0.930 . S
C104 C102 1.381 . S
C104 C103 1.387 . S
C104 H127 0.931 . S
C105 C98 1.399 . S
C105 C102 1.487 . S
C105 N137 1.343 . S
C106 C107 1.384 . S
C106 C108 1.384 . S
C106 H128 0.931 . S
C107 C106 1.384 . S
C107 C110 1.382 . S
C108 C106 1.384 . S
C108 C109 1.381 . S
C108 H129 0.930 . S
C109 C108 1.381 . S
C109 C111 1.381 . S
C109 C112 1.487 . S
C110 C107 1.382 . S
C110 C111 1.387 . S
C110 H130 0.930 . S
C111 C109 1.381 . S
C111 C110 1.387 . S
C111 H131 0.931 . S
C112 C109 1.487 . S
C112 C119 1.399 . S
C112 N137 1.343 . S
C113 C114 1.384 . S
C113 C115 1.384 . S
C113 H132 0.931 . S
C114 C113 1.384 . S
C114 C117 1.382 . S
C115 C113 1.384 . S
C115 C116 1.381 . S
C115 H133 0.930 . S
C116 C115 1.381 . S
C116 C118 1.381 . S
C116 C119 1.487 . S
C117 C114 1.382 . S
C117 C118 1.387 . S
C117 H134 0.930 . S
C118 C116 1.381 . S
C118 C117 1.387 . S
C118 H135 0.931 . S
C119 C112 1.399 . S
C119 C116 1.487 . S
C119 N136 1.343 . S
H120 C92 0.931 . S
H121 C94 0.930 . S
H122 C96 0.930 . S
H123 C97 0.931 . S
H124 C99 0.931 . S
H125 C101 0.930 . S
H126 C103 0.930 . S
H127 C104 0.931 . S
H128 C106 0.931 . S
H129 C108 0.930 . S
H130 C110 0.930 . S
H131 C111 0.931 . S
H132 C113 0.931 . S
H133 C115 0.930 . S
H134 C117 0.930 . S
H135 C118 0.931 . S
N136 C98 1.343 . S
N136 C119 1.343 . S
N137 C105 1.343 . S
N137 C112 1.343 . S
C138 C139 1.384 . S
C138 C140 1.384 . S
C138 H166 0.931 . S
C139 C138 1.384 . S
C139 C142 1.382 . S
C140 C138 1.384 . S
C140 C141 1.381 . S
C140 H167 0.930 . S
C141 C140 1.381 . S
C141 C143 1.381 . S
C141 C144 1.487 . S
C142 C139 1.382 . S
C142 C143 1.387 . S
C142 H168 0.930 . S
C143 C141 1.381 . S
C143 C142 1.387 . S
C143 H169 0.931 . S
C144 C141 1.487 . S
C144 C151 1.399 1_655 S
C144 N182 1.343 1_655 S
C145 C146 1.384 . S
C145 C147 1.384 . S
C145 H170 0.931 . S
C146 C145 1.384 . S
C146 C149 1.382 . S
C147 C145 1.384 . S
C147 C148 1.381 . S
C147 H171 0.930 . S
C148 C147 1.381 . S
C148 C150 1.381 . S
C148 C151 1.487 1_655 S
C149 C146 1.382 . S
C149 C150 1.387 . S
C149 H172 0.930 . S
C150 C148 1.381 . S
C150 C149 1.387 . S
C150 H173 0.931 1_655 S
C151 C144 1.399 1_455 S
C151 C148 1.487 1_455 S
C151 N183 1.343 . S
C152 C153 1.384 . S
C152 C154 1.384 . S
C152 H174 0.931 . S
C153 C152 1.384 . S
C153 C156 1.382 . S
C154 C152 1.384 . S
C154 C155 1.381 . S
C154 H175 0.930 . S
C155 C154 1.381 . S
C155 C157 1.381 . S
C155 C158 1.487 . S
C156 C153 1.382 . S
C156 C157 1.387 . S
C156 H176 0.930 . S
C157 C155 1.381 . S
C157 C156 1.387 . S
C157 H177 0.931 . S
C158 C155 1.487 . S
C158 C165 1.399 . S
C158 N183 1.343 . S
C159 C160 1.384 . S
C159 C161 1.384 . S
C159 H178 0.931 . S
C160 C159 1.384 . S
C160 C163 1.382 . S
C161 C159 1.384 . S
C161 C162 1.381 . S
C161 H179 0.930 . S
C162 C161 1.381 . S
C162 C164 1.381 . S
C162 C165 1.487 . S
C163 C160 1.382 . S
C163 C164 1.387 . S
C163 H180 0.930 . S
C164 C162 1.381 . S
C164 C163 1.387 . S
C164 H181 0.931 . S
C165 C158 1.399 . S
C165 C162 1.487 . S
C165 N182 1.343 . S
H166 C138 0.931 . S
H167 C140 0.930 . S
H168 C142 0.930 . S
H169 C143 0.931 . S
H170 C145 0.931 . S
H171 C147 0.930 . S
H172 C149 0.930 . S
H173 C150 0.931 1_455 S
H174 C152 0.931 . S
H175 C154 0.930 . S
H176 C156 0.930 . S
H177 C157 0.931 . S
H178 C159 0.931 . S
H179 C161 0.930 . S
H180 C163 0.930 . S
H181 C164 0.931 . S
N182 C144 1.343 1_455 S
N182 C165 1.343 . S
N183 C151 1.343 . S
N183 C158 1.343 . S
C184 C185 1.384 . S
C184 C186 1.384 . S
C184 H212 0.931 . S
C185 C184 1.384 . S
C185 C188 1.382 . S
C186 C184 1.384 . S
C186 C187 1.381 . S
C186 H213 0.908 1_556 S
C187 C186 1.381 . S
C187 C189 1.381 . S
C187 C190 1.487 . S
C188 C185 1.382 . S
C188 C189 1.387 . S
C188 H214 0.930 . S
C189 C187 1.381 . S
C189 C188 1.387 . S
C189 H215 0.931 . S
C190 C187 1.487 . S
C190 C197 1.399 1_566 S
C190 N228 1.343 1_565 S
C191 C192 1.384 . S
C191 C193 1.384 . S
C191 H216 0.931 . S
C192 C191 1.384 . S
C192 C195 1.382 . S
C193 C191 1.384 . S
C193 C194 1.381 . S
C193 H217 0.930 . S
C194 C193 1.381 . S
C194 C196 1.381 . S
C194 C197 1.487 1_565 S
C195 C192 1.382 . S
C195 C196 1.387 . S
C195 H218 0.930 . S
C196 C194 1.381 . S
C196 C195 1.387 . S
C196 H219 0.931 1_565 S
C197 C190 1.399 1_544 S
C197 C194 1.487 1_545 S
C197 N229 1.343 . S
C198 C199 1.384 . S
C198 C200 1.384 1_554 S
C198 H220 0.931 1_554 S
C199 C198 1.384 . S
C199 C202 1.382 . S
C200 C198 1.384 1_556 S
C200 C201 1.381 1_556 S
C200 H221 0.930 . S
C201 C200 1.381 1_554 S
C201 C203 1.381 . S
C201 C204 1.487 1_554 S
C202 C199 1.382 . S
C202 C203 1.387 . S
C202 H222 0.930 . S
C203 C201 1.381 . S
C203 C202 1.387 . S
C203 H223 0.931 . S
C204 C201 1.487 1_556 S
C204 C211 1.399 . S
C204 N229 1.343 1_556 S
C205 C206 1.384 . S
C205 C207 1.384 . S
C205 H224 0.931 . S
C206 C205 1.384 . S
C206 C209 1.382 . S
C207 C205 1.384 . S
C207 C208 1.381 . S
C207 H225 0.930 . S
C208 C207 1.381 . S
C208 C210 1.381 . S
C208 C211 1.487 . S
C209 C206 1.382 . S
C209 C210 1.387 . S
C209 H226 0.930 . S
C210 C208 1.381 . S
C210 C209 1.387 . S
C210 H227 0.931 . S
C211 C204 1.399 . S
C211 C208 1.487 . S
C211 N228 1.343 . S
H212 C184 0.931 . S
H213 C186 0.908 1_554 S
H214 C188 0.930 . S
H215 C189 0.931 . S
H216 C191 0.931 . S
H217 C193 0.930 . S
H218 C195 0.930 . S
H219 C196 0.931 1_545 S
H220 C198 0.931 1_556 S
H221 C200 0.930 . S
H222 C202 0.930 . S
H223 C203 0.931 . S
H224 C205 0.931 . S
H225 C207 0.930 . S
H226 C209 0.930 . S
H227 C210 0.931 . S
N228 C190 1.343 1_545 S
N228 C211 1.343 . S
N229 C197 1.343 . S
N229 C204 1.343 1_554 S
C230 C231 1.384 . S
C230 C232 1.384 . S
C230 H258 0.931 . S
C231 C230 1.384 . S
C231 C234 1.382 . S
C232 C230 1.384 . S
C232 C233 1.381 . S
C232 H259 0.930 . S
C233 C232 1.381 . S
C233 C235 1.381 . S
C233 C236 1.487 . S
C234 C231 1.382 . S
C234 C235 1.387 . S
C234 H260 0.930 . S
C235 C233 1.381 . S
C235 C234 1.387 . S
C235 H261 0.931 . S
C236 C233 1.487 . S
C236 C243 1.399 . S
C236 N274 1.343 . S
C237 C238 1.384 . S
C237 C239 1.384 . S
C237 H262 0.931 . S
C238 C237 1.384 . S
C238 C241 1.382 . S
C239 C237 1.384 . S
C239 C240 1.381 . S
C239 H263 0.930 . S
C240 C239 1.381 . S
C240 C242 1.381 . S
C240 C243 1.487 . S
C241 C238 1.382 . S
C241 C242 1.387 . S
C241 H264 0.930 . S
C242 C240 1.381 . S
C242 C241 1.387 . S
C242 H265 0.931 . S
C243 C236 1.399 . S
C243 C240 1.487 . S
C243 N275 1.343 . S
C244 C245 1.384 . S
C244 C246 1.384 . S
C244 H266 0.931 . S
C245 C244 1.384 . S
C245 C248 1.382 . S
C246 C244 1.384 . S
C246 C247 1.381 . S
C246 H267 0.930 . S
C247 C246 1.381 . S
C247 C249 1.381 . S
C247 C250 1.487 . S
C248 C245 1.382 . S
C248 C249 1.387 . S
C248 H268 0.930 . S
C249 C247 1.381 . S
C249 C248 1.387 . S
C249 H269 0.931 . S
C250 C247 1.487 . S
C250 C257 1.399 . S
C250 N275 1.343 . S
C251 C252 1.384 . S
C251 C253 1.384 . S
C251 H270 0.931 . S
C252 C251 1.384 . S
C252 C255 1.382 . S
C253 C251 1.384 . S
C253 C254 1.381 . S
C253 H271 0.930 . S
C254 C253 1.381 . S
C254 C256 1.381 . S
C254 C257 1.487 . S
C255 C252 1.382 . S
C255 C256 1.387 . S
C255 H272 0.930 . S
C256 C254 1.381 . S
C256 C255 1.387 . S
C256 H273 0.931 . S
C257 C250 1.399 . S
C257 C254 1.487 . S
C257 N274 1.343 . S
H258 C230 0.931 . S
H259 C232 0.930 . S
H260 C234 0.930 . S
H261 C235 0.931 . S
H262 C237 0.931 . S
H263 C239 0.930 . S
H264 C241 0.930 . S
H265 C242 0.931 . S
H266 C244 0.931 . S
H267 C246 0.930 . S
H268 C248 0.930 . S
H269 C249 0.931 . S
H270 C251 0.931 . S
H271 C253 0.930 . S
H272 C255 0.930 . S
H273 C256 0.931 . S
N274 C236 1.343 . S
N274 C257 1.343 . S
N275 C243 1.343 . S
N275 C250 1.343 . S
In276 O277 2.294 . S
In276 O278 2.326 . S
In276 O282 2.266 . S
In276 O283 2.326 . S
In276 O284 2.266 . S
In276 O285 2.326 . S
In276 O287 2.294 . S
In276 O288 2.326 . S
O277 In276 2.294 . S
O277 C286 1.240 . S
O278 In276 2.326 . S
O278 C286 1.252 . S
C279 O282 1.252 . S
C279 O283 1.260 . S
C280 O287 1.240 . S
C280 O288 1.252 . S
C281 O284 1.252 . S
C281 O285 1.260 . S
O282 In276 2.266 . S
O282 C279 1.252 . S
O283 In276 2.326 . S
O283 C279 1.260 . S
O284 In276 2.266 . S
O284 C281 1.252 . S
O285 In276 2.326 . S
O285 C281 1.260 . S
C286 O277 1.240 . S
C286 O278 1.252 . S
O287 In276 2.294 . S
O287 C280 1.240 . S
O288 In276 2.326 . S
O288 C280 1.252 . S
In289 O290 2.294 . S
In289 O291 2.326 . S
In289 O295 2.266 . S
In289 O296 2.326 . S
In289 O297 2.266 . S
In289 O298 2.326 . S
In289 O300 2.294 . S
In289 O301 2.326 . S
O290 In289 2.294 . S
O290 C299 1.240 . S
O291 In289 2.326 . S
O291 C299 1.252 . S
C292 O295 1.252 . S
C292 O296 1.260 . S
C293 O300 1.240 . S
C293 O301 1.252 . S
C294 O297 1.252 . S
C294 O298 1.260 . S
O295 In289 2.266 . S
O295 C292 1.252 . S
O296 In289 2.326 . S
O296 C292 1.260 . S
O297 In289 2.266 . S
O297 C294 1.252 . S
O298 In289 2.326 . S
O298 C294 1.260 . S
C299 O290 1.240 . S
C299 O291 1.252 . S
O300 In289 2.294 . S
O300 C293 1.240 . S
O301 In289 2.326 . S
O301 C293 1.252 . S
In302 O303 2.294 . S
In302 O304 2.326 . S
In302 O308 2.266 . S
In302 O309 2.326 . S
In302 O310 2.266 . S
In302 O311 2.326 . S
In302 O313 2.294 . S
In302 O314 2.326 . S
O303 In302 2.294 . S
O303 C312 1.240 . S
O304 In302 2.326 . S
O304 C312 1.252 . S
C305 O308 1.252 . S
C305 O309 1.260 . S
C306 O313 1.240 . S
C306 O314 1.252 . S
C307 O310 1.252 . S
C307 O311 1.260 . S
O308 In302 2.266 . S
O308 C305 1.252 . S
O309 In302 2.326 . S
O309 C305 1.260 . S
O310 In302 2.266 . S
O310 C307 1.252 . S
O311 In302 2.326 . S
O311 C307 1.260 . S
C312 O303 1.240 . S
C312 O304 1.252 . S
O313 In302 2.294 . S
O313 C306 1.240 . S
O314 In302 2.326 . S
O314 C306 1.252 . S
In315 O316 2.294 . S
In315 O317 2.326 . S
In315 O321 2.266 . S
In315 O322 2.326 . S
In315 O323 2.266 . S
In315 O324 2.326 . S
In315 O326 2.294 . S
In315 O327 2.326 . S
O316 In315 2.294 . S
O316 C325 1.240 . S
O317 In315 2.326 . S
O317 C325 1.252 . S
C318 O321 1.252 . S
C318 O322 1.260 . S
C319 O326 1.240 . S
C319 O327 1.252 . S
C320 O323 1.252 . S
C320 O324 1.260 . S
O321 In315 2.266 . S
O321 C318 1.252 . S
O322 In315 2.326 . S
O322 C318 1.260 . S
O323 In315 2.266 . S
O323 C320 1.252 . S
O324 In315 2.326 . S
O324 C320 1.260 . S
C325 O316 1.240 . S
C325 O317 1.252 . S
O326 In315 2.294 . S
O326 C319 1.240 . S
O327 In315 2.326 . S
O327 C319 1.252 . S
In328 O329 2.294 . S
In328 O330 2.326 . S
In328 O334 2.266 . S
In328 O335 2.326 . S
In328 O336 2.266 . S
In328 O337 2.326 . S
In328 O339 2.294 . S
In328 O340 2.326 . S
O329 In328 2.294 . S
O329 C338 1.240 . S
O330 In328 2.326 . S
O330 C338 1.252 . S
C331 O334 1.252 . S
C331 O335 1.260 . S
C332 O339 1.240 . S
C332 O340 1.252 . S
C333 O336 1.252 . S
C333 O337 1.260 . S
O334 In328 2.266 . S
O334 C331 1.252 . S
O335 In328 2.326 . S
O335 C331 1.260 . S
O336 In328 2.266 . S
O336 C333 1.252 . S
O337 In328 2.326 . S
O337 C333 1.260 . S
C338 O329 1.240 . S
C338 O330 1.252 . S
O339 In328 2.294 . S
O339 C332 1.240 . S
O340 In328 2.326 . S
O340 C332 1.252 . S
In341 O342 2.294 . S
In341 O343 2.326 . S
In341 O347 2.266 . S
In341 O348 2.326 . S
In341 O349 2.266 . S
In341 O350 2.326 . S
In341 O352 2.294 . S
In341 O353 2.326 . S
O342 In341 2.294 . S
O342 C351 1.240 . S
O343 In341 2.326 . S
O343 C351 1.252 . S
C344 O347 1.252 . S
C344 O348 1.260 . S
C345 O352 1.240 . S
C345 O353 1.252 . S
C346 O349 1.252 . S
C346 O350 1.260 . S
O347 In341 2.266 . S
O347 C344 1.252 . S
O348 In341 2.326 . S
O348 C344 1.260 . S
O349 In341 2.266 . S
O349 C346 1.252 . S
O350 In341 2.326 . S
O350 C346 1.260 . S
C351 O342 1.240 . S
C351 O343 1.252 . S
O352 In341 2.294 . S
O352 C345 1.240 . S
O353 In341 2.326 . S
O353 C345 1.252 . S
H354 C372 0.951 . S
H355 C374 0.951 . S
H356 C376 0.950 . S
H357 C377 0.950 . S
H358 C379 0.950 . S
H359 C382 0.950 . S
H360 C383 0.950 . S
H361 C385 0.950 . S
H362 C386 0.950 . S
H363 C387 0.951 . S
H364 C389 0.951 . S
H365 C391 0.950 . S
H366 C392 0.950 . S
H367 C394 0.950 . S
H368 C397 0.950 . S
H369 C398 0.950 . S
H370 C400 0.950 . S
H371 C401 0.950 . S
C372 H354 0.951 . S
C372 C373 1.366 . S
C372 C374 1.388 . S
C373 C372 1.366 . S
C373 C377 1.385 . S
C374 H355 0.951 . S
C374 C372 1.388 . S
C374 C375 1.366 . S
C375 C374 1.366 . S
C375 C376 1.414 . S
C375 C378 1.499 . S
C376 H356 0.950 . S
C376 C375 1.414 . S
C376 C377 1.374 . S
C377 H357 0.950 . S
C377 C373 1.385 . S
C377 C376 1.374 . S
C378 C375 1.499 . S
C378 C379 1.373 . S
C378 C380 1.389 . S
C379 H358 0.950 . S
C379 C378 1.373 . S
C379 C395 1.377 . S
C380 C378 1.389 . S
C380 C381 1.524 . S
C380 C394 1.377 . S
C381 C380 1.524 . S
C381 C382 1.397 . S
C381 C386 1.363 . S
C382 H359 0.950 . S
C382 C381 1.397 . S
C382 C383 1.334 . S
C383 H360 0.950 . S
C383 C382 1.334 . S
C383 C384 1.287 . S
C384 C383 1.287 . S
C384 C385 1.524 . S
C384 H403 0.913 . S
C385 H361 0.950 . S
C385 C384 1.524 . S
C385 C386 1.415 . S
C386 H362 0.950 . S
C386 C381 1.363 . S
C386 C385 1.415 . S
C387 H363 0.951 . S
C387 C388 1.366 . S
C387 C389 1.388 . S
C388 C387 1.366 . S
C388 C392 1.385 . S
C389 H364 0.951 . S
C389 C387 1.388 . S
C389 C390 1.366 . S
C390 C389 1.366 . S
C390 C391 1.414 . S
C390 C393 1.499 . S
C391 H365 0.950 . S
C391 C390 1.414 . S
C391 C392 1.374 . S
C392 H366 0.950 . S
C392 C388 1.385 . S
C392 C391 1.374 . S
C393 C390 1.499 . S
C393 C394 1.373 . S
C393 C395 1.389 . S
C394 H367 0.950 . S
C394 C380 1.377 . S
C394 C393 1.373 . S
C395 C379 1.377 . S
C395 C393 1.389 . S
C395 C396 1.524 . S
C396 C395 1.524 . S
C396 C397 1.397 . S
C396 C401 1.363 . S
C397 H368 0.950 . S
C397 C396 1.397 . S
C397 C398 1.334 . S
C398 H369 0.950 . S
C398 C397 1.334 . S
C398 C399 1.287 . S
C399 C398 1.287 . S
C399 C400 1.524 . S
C399 H402 0.999 . S
C400 H370 0.950 . S
C400 C399 1.524 . S
C400 C401 1.415 . S
C401 H371 0.950 . S
C401 C396 1.363 . S
C401 C400 1.415 . S
H402 C399 0.999 . S
H403 C384 0.913 . S
H404 C422 0.951 . S
H405 C424 0.951 . S
H406 C426 0.950 . S
H407 C427 0.950 . S
H408 C429 0.950 . S
H409 C432 0.950 . S
H410 C433 0.950 . S
H411 C435 0.950 . S
H412 C436 0.950 . S
H413 C437 0.951 . S
H414 C439 0.951 . S
H415 C441 0.950 . S
H416 C442 0.950 . S
H417 C444 0.950 . S
H418 C447 0.950 . S
H419 C448 0.950 . S
H420 C450 0.950 . S
H421 C451 0.950 . S
C422 H404 0.951 . S
C422 C423 1.366 . S
C422 C424 1.388 . S
C423 C422 1.366 . S
C423 C427 1.385 . S
C424 H405 0.951 . S
C424 C422 1.388 . S
C424 C425 1.366 . S
C425 C424 1.366 . S
C425 C426 1.414 . S
C425 C428 1.499 . S
C426 H406 0.950 . S
C426 C425 1.414 . S
C426 C427 1.374 . S
C427 H407 0.950 . S
C427 C423 1.385 . S
C427 C426 1.374 . S
C428 C425 1.499 . S
C428 C429 1.373 . S
C428 C430 1.389 . S
C429 H408 0.950 . S
C429 C428 1.373 . S
C429 C445 1.377 . S
C430 C428 1.389 . S
C430 C431 1.524 . S
C430 C444 1.377 . S
C431 C430 1.524 . S
C431 C432 1.397 . S
C431 C436 1.363 . S
C432 H409 0.950 . S
C432 C431 1.397 . S
C432 C433 1.334 . S
C433 H410 0.950 . S
C433 C432 1.334 . S
C433 C434 1.287 . S
C434 C433 1.287 . S
C434 C435 1.524 . S
C434 H453 0.913 . S
C435 H411 0.950 . S
C435 C434 1.524 . S
C435 C436 1.415 . S
C436 H412 0.950 . S
C436 C431 1.363 . S
C436 C435 1.415 . S
C437 H413 0.951 . S
C437 C438 1.366 . S
C437 C439 1.388 . S
C438 C437 1.366 . S
C438 C442 1.385 . S
C439 H414 0.951 . S
C439 C437 1.388 . S
C439 C440 1.366 . S
C440 C439 1.366 . S
C440 C441 1.414 . S
C440 C443 1.499 . S
C441 H415 0.950 . S
C441 C440 1.414 . S
C441 C442 1.374 . S
C442 H416 0.950 . S
C442 C438 1.385 . S
C442 C441 1.374 . S
C443 C440 1.499 . S
C443 C444 1.373 . S
C443 C445 1.389 . S
C444 H417 0.950 . S
C444 C430 1.377 . S
C444 C443 1.373 . S
C445 C429 1.377 . S
C445 C443 1.389 . S
C445 C446 1.524 . S
C446 C445 1.524 . S
C446 C447 1.397 . S
C446 C451 1.363 . S
C447 H418 0.950 . S
C447 C446 1.397 . S
C447 C448 1.334 . S
C448 H419 0.950 . S
C448 C447 1.334 . S
C448 C449 1.287 . S
C449 C448 1.287 . S
C449 C450 1.524 . S
C449 H452 0.999 . S
C450 H420 0.950 . S
C450 C449 1.524 . S
C450 C451 1.415 . S
C451 H421 0.950 . S
C451 C446 1.363 . S
C451 C450 1.415 . S
H452 C449 0.999 . S
H453 C434 0.913 . S
H454 C472 0.951 . S
H455 C474 0.951 . S
H456 C476 0.950 . S
H457 C477 0.950 . S
H458 C479 0.950 . S
H459 C482 0.950 . S
H460 C483 0.950 . S
H461 C485 0.950 . S
H462 C486 0.950 . S
H463 C487 0.951 . S
H464 C489 0.951 . S
H465 C491 0.950 . S
H466 C492 0.950 . S
H467 C494 0.950 . S
H468 C497 0.950 . S
H469 C498 0.950 . S
H470 C500 0.950 . S
H471 C501 0.950 . S
C472 H454 0.951 . S
C472 C473 1.366 . S
C472 C474 1.388 . S
C473 C472 1.366 . S
C473 C477 1.385 . S
C474 H455 0.951 . S
C474 C472 1.388 . S
C474 C475 1.366 . S
C475 C474 1.366 . S
C475 C476 1.414 . S
C475 C478 1.499 . S
C476 H456 0.950 . S
C476 C475 1.414 . S
C476 C477 1.374 . S
C477 H457 0.950 . S
C477 C473 1.385 . S
C477 C476 1.374 . S
C478 C475 1.499 . S
C478 C479 1.373 . S
C478 C480 1.389 . S
C479 H458 0.950 . S
C479 C478 1.373 . S
C479 C495 1.377 . S
C480 C478 1.389 . S
C480 C481 1.524 . S
C480 C494 1.377 . S
C481 C480 1.524 . S
C481 C482 1.397 . S
C481 C486 1.363 . S
C482 H459 0.950 . S
C482 C481 1.397 . S
C482 C483 1.334 . S
C483 H460 0.950 . S
C483 C482 1.334 . S
C483 C484 1.287 . S
C484 C483 1.287 . S
C484 C485 1.524 . S
C484 H503 0.913 . S
C485 H461 0.950 . S
C485 C484 1.524 . S
C485 C486 1.415 . S
C486 H462 0.950 . S
C486 C481 1.363 . S
C486 C485 1.415 . S
C487 H463 0.951 . S
C487 C488 1.366 . S
C487 C489 1.388 . S
C488 C487 1.366 . S
C488 C492 1.385 . S
C489 H464 0.951 . S
C489 C487 1.388 . S
C489 C490 1.366 . S
C490 C489 1.366 . S
C490 C491 1.414 . S
C490 C493 1.499 . S
C491 H465 0.950 . S
C491 C490 1.414 . S
C491 C492 1.374 . S
C492 H466 0.950 . S
C492 C488 1.385 . S
C492 C491 1.374 . S
C493 C490 1.499 . S
C493 C494 1.373 . S
C493 C495 1.389 . S
C494 H467 0.950 . S
C494 C480 1.377 . S
C494 C493 1.373 . S
C495 C479 1.377 . S
C495 C493 1.389 . S
C495 C496 1.524 . S
C496 C495 1.524 . S
C496 C497 1.397 . S
C496 C501 1.363 . S
C497 H468 0.950 . S
C497 C496 1.397 . S
C497 C498 1.334 . S
C498 H469 0.950 . S
C498 C497 1.334 . S
C498 C499 1.287 . S
C499 C498 1.287 . S
C499 C500 1.524 . S
C499 H502 0.999 . S
C500 H470 0.950 . S
C500 C499 1.524 . S
C500 C501 1.415 . S
C501 H471 0.950 . S
C501 C496 1.363 . S
C501 C500 1.415 . S
H502 C499 0.999 . S
H503 C484 0.913 . S
H504 C522 0.951 . S
H505 C524 0.951 . S
H506 C526 0.950 . S
H507 C527 0.950 . S
H508 C529 0.950 . S
H509 C532 0.950 . S
H510 C533 0.950 . S
H511 C535 0.950 . S
H512 C536 0.950 . S
H513 C537 0.951 . S
H514 C539 0.951 . S
H515 C541 0.950 . S
H516 C542 0.950 . S
H517 C544 0.950 . S
H518 C547 0.950 . S
H519 C548 0.950 . S
H520 C550 0.950 . S
H521 C551 0.950 . S
C522 H504 0.951 . S
C522 C523 1.366 . S
C522 C524 1.388 . S
C523 C522 1.366 . S
C523 C527 1.385 . S
C524 H505 0.951 . S
C524 C522 1.388 . S
C524 C525 1.366 . S
C525 C524 1.366 . S
C525 C526 1.414 . S
C525 C528 1.499 . S
C526 H506 0.950 . S
C526 C525 1.414 . S
C526 C527 1.374 . S
C527 H507 0.950 . S
C527 C523 1.385 . S
C527 C526 1.374 . S
C528 C525 1.499 . S
C528 C529 1.373 . S
C528 C530 1.389 . S
C529 H508 0.950 . S
C529 C528 1.373 . S
C529 C545 1.377 . S
C530 C528 1.389 . S
C530 C531 1.524 . S
C530 C544 1.377 . S
C531 C530 1.524 . S
C531 C532 1.397 . S
C531 C536 1.363 . S
C532 H509 0.950 . S
C532 C531 1.397 . S
C532 C533 1.334 . S
C533 H510 0.950 . S
C533 C532 1.334 . S
C533 C534 1.287 . S
C534 C533 1.287 . S
C534 C535 1.524 . S
C534 H553 0.913 . S
C535 H511 0.950 . S
C535 C534 1.524 . S
C535 C536 1.415 . S
C536 H512 0.950 . S
C536 C531 1.363 . S
C536 C535 1.415 . S
C537 H513 0.951 . S
C537 C538 1.366 . S
C537 C539 1.388 . S
C538 C537 1.366 . S
C538 C542 1.385 . S
C539 H514 0.951 . S
C539 C537 1.388 . S
C539 C540 1.366 . S
C540 C539 1.366 . S
C540 C541 1.414 . S
C540 C543 1.499 . S
C541 H515 0.950 . S
C541 C540 1.414 . S
C541 C542 1.374 . S
C542 H516 0.950 . S
C542 C538 1.385 . S
C542 C541 1.374 . S
C543 C540 1.499 . S
C543 C544 1.373 . S
C543 C545 1.389 . S
C544 H517 0.950 . S
C544 C530 1.377 . S
C544 C543 1.373 . S
C545 C529 1.377 . S
C545 C543 1.389 . S
C545 C546 1.524 . S
C546 C545 1.524 . S
C546 C547 1.397 . S
C546 C551 1.363 . S
C547 H518 0.950 . S
C547 C546 1.397 . S
C547 C548 1.334 . S
C548 H519 0.950 . S
C548 C547 1.334 . S
C548 C549 1.287 . S
C549 C548 1.287 . S
C549 C550 1.524 . S
C549 H552 0.999 . S
C550 H520 0.950 . S
C550 C549 1.524 . S
C550 C551 1.415 . S
C551 H521 0.950 . S
C551 C546 1.363 . S
C551 C550 1.415 . S
H552 C549 0.999 . S
H553 C534 0.913 . S
H554 C572 0.951 . S
H555 C574 0.951 . S
H556 C576 0.950 . S
H557 C577 0.950 . S
H558 C579 0.950 . S
H559 C582 0.950 . S
H560 C583 0.950 . S
H561 C585 0.947 1_554 S
H562 C586 0.950 . S
H563 C587 0.951 . S
H564 C589 0.951 . S
H565 C591 0.950 . S
H566 C592 0.950 . S
H567 C594 0.950 . S
H568 C597 0.950 . S
H569 C598 0.950 . S
H570 C600 0.950 . S
H571 C601 0.950 . S
C572 H554 0.951 . S
C572 C573 1.366 . S
C572 C574 1.388 . S
C573 C572 1.366 . S
C573 C577 1.385 . S
C574 H555 0.951 . S
C574 C572 1.388 . S
C574 C575 1.366 . S
C575 C574 1.366 . S
C575 C576 1.414 . S
C575 C578 1.499 . S
C576 H556 0.950 . S
C576 C575 1.414 . S
C576 C577 1.374 . S
C577 H557 0.950 . S
C577 C573 1.385 . S
C577 C576 1.374 . S
C578 C575 1.499 . S
C578 C579 1.373 . S
C578 C580 1.389 . S
C579 H558 0.950 . S
C579 C578 1.373 . S
C579 C595 1.377 . S
C580 C578 1.389 . S
C580 C581 1.524 . S
C580 C594 1.377 . S
C581 C580 1.524 . S
C581 C582 1.397 . S
C581 C586 1.363 . S
C582 H559 0.950 . S
C582 C581 1.397 . S
C582 C583 1.334 1_556 S
C583 H560 0.950 . S
C583 C582 1.334 1_554 S
C583 C584 1.287 . S
C584 C583 1.287 . S
C584 C585 1.516 1_554 S
C584 H603 0.913 . S
C585 H561 0.947 1_556 S
C585 C584 1.516 1_556 S
C585 C586 1.426 . S
C586 H562 0.950 . S
C586 C581 1.363 . S
C586 C585 1.426 . S
C587 H563 0.951 . S
C587 C588 1.366 . S
C587 C589 1.388 . S
C588 C587 1.366 . S
C588 C592 1.385 . S
C589 H564 0.951 . S
C589 C587 1.388 . S
C589 C590 1.366 . S
C590 C589 1.366 . S
C590 C591 1.414 . S
C590 C593 1.499 . S
C591 H565 0.950 . S
C591 C590 1.414 . S
C591 C592 1.374 . S
C592 H566 0.950 . S
C592 C588 1.385 . S
C592 C591 1.374 . S
C593 C590 1.499 . S
C593 C594 1.373 . S
C593 C595 1.389 . S
C594 H567 0.950 . S
C594 C580 1.377 . S
C594 C593 1.373 . S
C595 C579 1.377 . S
C595 C593 1.389 . S
C595 C596 1.524 . S
C596 C595 1.524 . S
C596 C597 1.397 . S
C596 C601 1.363 . S
C597 H568 0.950 . S
C597 C596 1.397 . S
C597 C598 1.334 . S
C598 H569 0.950 . S
C598 C597 1.334 . S
C598 C599 1.287 . S
C599 C598 1.287 . S
C599 C600 1.524 . S
C599 H602 0.999 . S
C600 H570 0.950 . S
C600 C599 1.524 . S
C600 C601 1.415 . S
C601 H571 0.950 . S
C601 C596 1.363 . S
C601 C600 1.415 . S
H602 C599 0.999 . S
H603 C584 0.913 . S
H604 C622 0.951 . S
H605 C624 0.951 . S
H606 C626 0.950 . S
H607 C627 0.950 . S
H608 C629 0.950 . S
H609 C632 0.950 . S
H610 C633 0.950 . S
H611 C635 0.950 . S
H612 C636 0.950 . S
H613 C637 0.951 . S
H614 C639 0.951 . S
H615 C641 0.950 . S
H616 C642 0.950 . S
H617 C644 0.950 . S
H618 C647 0.950 . S
H619 C648 0.950 . S
H620 C650 0.950 . S
H621 C651 0.950 . S
C622 H604 0.951 . S
C622 C623 1.366 . S
C622 C624 1.388 . S
C623 C622 1.366 . S
C623 C627 1.385 . S
C624 H605 0.951 . S
C624 C622 1.388 . S
C624 C625 1.366 . S
C625 C624 1.366 . S
C625 C626 1.414 . S
C625 C628 1.499 . S
C626 H606 0.950 . S
C626 C625 1.414 . S
C626 C627 1.374 . S
C627 H607 0.950 . S
C627 C623 1.385 . S
C627 C626 1.374 . S
C628 C625 1.499 . S
C628 C629 1.373 . S
C628 C630 1.389 . S
C629 H608 0.950 . S
C629 C628 1.373 . S
C629 C645 1.377 . S
C630 C628 1.389 . S
C630 C631 1.524 . S
C630 C644 1.377 . S
C631 C630 1.524 . S
C631 C632 1.397 . S
C631 C636 1.363 . S
C632 H609 0.950 . S
C632 C631 1.397 . S
C632 C633 1.334 . S
C633 H610 0.950 . S
C633 C632 1.334 . S
C633 C634 1.287 . S
C634 C633 1.287 . S
C634 C635 1.524 . S
C634 H653 0.913 . S
C635 H611 0.950 . S
C635 C634 1.524 . S
C635 C636 1.415 . S
C636 H612 0.950 . S
C636 C631 1.363 . S
C636 C635 1.415 . S
C637 H613 0.951 . S
C637 C638 1.366 . S
C637 C639 1.388 . S
C638 C637 1.366 . S
C638 C642 1.385 . S
C639 H614 0.951 . S
C639 C637 1.388 . S
C639 C640 1.366 . S
C640 C639 1.366 . S
C640 C641 1.414 . S
C640 C643 1.499 . S
C641 H615 0.950 . S
C641 C640 1.414 . S
C641 C642 1.374 . S
C642 H616 0.950 . S
C642 C638 1.385 . S
C642 C641 1.374 . S
C643 C640 1.499 . S
C643 C644 1.373 . S
C643 C645 1.389 . S
C644 H617 0.950 . S
C644 C630 1.377 . S
C644 C643 1.373 . S
C645 C629 1.377 . S
C645 C643 1.389 . S
C645 C646 1.524 . S
C646 C645 1.524 . S
C646 C647 1.397 . S
C646 C651 1.363 . S
C647 H618 0.950 . S
C647 C646 1.397 . S
C647 C648 1.334 . S
C648 H619 0.950 . S
C648 C647 1.334 . S
C648 C649 1.287 . S
C649 C648 1.287 . S
C649 C650 1.524 . S
C649 H652 0.999 . S
C650 H620 0.950 . S
C650 C649 1.524 . S
C650 C651 1.415 . S
C651 H621 0.950 . S
C651 C646 1.363 . S
C651 C650 1.415 . S
H652 C649 0.999 . S
H653 C634 0.913 . S
H654 C672 0.951 . S
H655 C674 0.951 . S
H656 C676 0.950 . S
H657 C677 0.950 . S
H658 C679 0.950 . S
H659 C682 0.950 . S
H660 C683 0.950 . S
H661 C685 0.950 . S
H662 C686 0.950 . S
H663 C687 0.951 . S
H664 C689 0.951 . S
H665 C691 0.950 . S
H666 C692 0.950 . S
H667 C694 0.950 . S
H668 C697 0.950 . S
H669 C698 0.950 . S
H670 C700 0.950 . S
H671 C701 0.950 . S
C672 H654 0.951 . S
C672 C673 1.366 . S
C672 C674 1.388 . S
C673 C672 1.366 . S
C673 C677 1.385 . S
C674 H655 0.951 . S
C674 C672 1.388 . S
C674 C675 1.366 . S
C675 C674 1.366 . S
C675 C676 1.414 . S
C675 C678 1.499 . S
C676 H656 0.950 . S
C676 C675 1.414 . S
C676 C677 1.374 . S
C677 H657 0.950 . S
C677 C673 1.385 . S
C677 C676 1.374 . S
C678 C675 1.499 . S
C678 C679 1.373 . S
C678 C680 1.389 . S
C679 H658 0.950 . S
C679 C678 1.373 . S
C679 C695 1.377 . S
C680 C678 1.389 . S
C680 C681 1.524 . S
C680 C694 1.377 . S
C681 C680 1.524 . S
C681 C682 1.397 . S
C681 C686 1.363 . S
C682 H659 0.950 . S
C682 C681 1.397 . S
C682 C683 1.334 . S
C683 H660 0.950 . S
C683 C682 1.334 . S
C683 C684 1.287 . S
C684 C683 1.287 . S
C684 C685 1.524 . S
C684 H703 0.913 . S
C685 H661 0.950 . S
C685 C684 1.524 . S
C685 C686 1.415 . S
C686 H662 0.950 . S
C686 C681 1.363 . S
C686 C685 1.415 . S
C687 H663 0.951 . S
C687 C688 1.366 . S
C687 C689 1.388 . S
C688 C687 1.366 . S
C688 C692 1.385 . S
C689 H664 0.951 . S
C689 C687 1.388 . S
C689 C690 1.366 . S
C690 C689 1.366 . S
C690 C691 1.414 . S
C690 C693 1.499 . S
C691 H665 0.950 . S
C691 C690 1.414 . S
C691 C692 1.374 . S
C692 H666 0.950 . S
C692 C688 1.385 . S
C692 C691 1.374 . S
C693 C690 1.499 . S
C693 C694 1.373 . S
C693 C695 1.389 . S
C694 H667 0.950 . S
C694 C680 1.377 . S
C694 C693 1.373 . S
C695 C679 1.377 . S
C695 C693 1.389 . S
C695 C696 1.524 . S
C696 C695 1.524 . S
C696 C697 1.397 . S
C696 C701 1.363 . S
C697 H668 0.950 . S
C697 C696 1.397 . S
C697 C698 1.334 . S
C698 H669 0.950 . S
C698 C697 1.334 . S
C698 C699 1.287 . S
C699 C698 1.287 . S
C699 C700 1.524 . S
C699 H702 0.999 . S
C700 H670 0.950 . S
C700 C699 1.524 . S
C700 C701 1.415 . S
C701 H671 0.950 . S
C701 C696 1.363 . S
C701 C700 1.415 . S
H702 C699 0.999 . S
H703 C684 0.913 . S
H704 C722 0.951 . S
H705 C724 0.951 . S
H706 C726 0.950 . S
H707 C727 0.950 . S
H708 C729 0.950 . S
H709 C732 0.950 . S
H710 C733 0.950 . S
H711 C735 0.950 . S
H712 C736 0.950 . S
H713 C737 0.951 . S
H714 C739 0.951 . S
H715 C741 0.950 . S
H716 C742 0.950 . S
H717 C744 0.950 . S
H718 C747 0.950 . S
H719 C748 0.950 . S
H720 C750 0.950 . S
H721 C751 0.950 . S
C722 H704 0.951 . S
C722 C723 1.366 . S
C722 C724 1.388 . S
C723 C722 1.366 . S
C723 C727 1.385 . S
C724 H705 0.951 . S
C724 C722 1.388 . S
C724 C725 1.366 . S
C725 C724 1.366 . S
C725 C726 1.414 . S
C725 C728 1.499 . S
C726 H706 0.950 . S
C726 C725 1.414 . S
C726 C727 1.374 . S
C727 H707 0.950 . S
C727 C723 1.385 . S
C727 C726 1.374 . S
C728 C725 1.499 . S
C728 C729 1.373 . S
C728 C730 1.389 . S
C729 H708 0.950 . S
C729 C728 1.373 . S
C729 C745 1.377 . S
C730 C728 1.389 . S
C730 C731 1.524 . S
C730 C744 1.377 . S
C731 C730 1.524 . S
C731 C732 1.397 . S
C731 C736 1.363 . S
C732 H709 0.950 . S
C732 C731 1.397 . S
C732 C733 1.334 . S
C733 H710 0.950 . S
C733 C732 1.334 . S
C733 C734 1.287 . S
C734 C733 1.287 . S
C734 C735 1.524 . S
C734 H753 0.913 . S
C735 H711 0.950 . S
C735 C734 1.524 . S
C735 C736 1.415 . S
C736 H712 0.950 . S
C736 C731 1.363 . S
C736 C735 1.415 . S
C737 H713 0.951 . S
C737 C738 1.366 . S
C737 C739 1.388 . S
C738 C737 1.366 . S
C738 C742 1.385 . S
C739 H714 0.951 . S
C739 C737 1.388 . S
C739 C740 1.366 . S
C740 C739 1.366 . S
C740 C741 1.414 . S
C740 C743 1.499 . S
C741 H715 0.950 . S
C741 C740 1.414 . S
C741 C742 1.374 . S
C742 H716 0.950 . S
C742 C738 1.385 . S
C742 C741 1.374 . S
C743 C740 1.499 . S
C743 C744 1.373 . S
C743 C745 1.389 . S
C744 H717 0.950 . S
C744 C730 1.377 . S
C744 C743 1.373 . S
C745 C729 1.377 . S
C745 C743 1.389 . S
C745 C746 1.524 . S
C746 C745 1.524 . S
C746 C747 1.397 . S
C746 C751 1.363 . S
C747 H718 0.950 . S
C747 C746 1.397 . S
C747 C748 1.334 . S
C748 H719 0.950 . S
C748 C747 1.334 . S
C748 C749 1.287 . S
C749 C748 1.287 . S
C749 C750 1.524 . S
C749 H752 0.999 . S
C750 H720 0.950 . S
C750 C749 1.524 . S
C750 C751 1.415 . S
C751 H721 0.950 . S
C751 C746 1.363 . S
C751 C750 1.415 . S
H752 C749 0.999 . S
H753 C734 0.913 . S
H754 C772 0.951 . S
H755 C774 0.951 . S
H756 C776 0.950 . S
H757 C777 0.950 . S
H758 C779 0.950 . S
H759 C782 0.950 . S
H760 C783 0.950 . S
H761 C785 0.950 . S
H762 C786 0.950 . S
H763 C787 0.951 . S
H764 C789 0.951 . S
H765 C791 0.950 . S
H766 C792 0.950 . S
H767 C794 0.950 . S
H768 C797 0.950 . S
H769 C798 0.950 . S
H770 C800 0.950 . S
H771 C801 0.950 . S
C772 H754 0.951 . S
C772 C773 1.366 . S
C772 C774 1.388 . S
C773 C772 1.366 . S
C773 C777 1.385 . S
C774 H755 0.951 . S
C774 C772 1.388 . S
C774 C775 1.366 . S
C775 C774 1.366 . S
C775 C776 1.414 . S
C775 C778 1.499 . S
C776 H756 0.950 . S
C776 C775 1.414 . S
C776 C777 1.374 . S
C777 H757 0.950 . S
C777 C773 1.385 . S
C777 C776 1.374 . S
C778 C775 1.499 . S
C778 C779 1.373 . S
C778 C780 1.389 . S
C779 H758 0.950 . S
C779 C778 1.373 . S
C779 C795 1.377 . S
C780 C778 1.389 . S
C780 C781 1.524 . S
C780 C794 1.377 . S
C781 C780 1.524 . S
C781 C782 1.397 . S
C781 C786 1.363 . S
C782 H759 0.950 . S
C782 C781 1.397 . S
C782 C783 1.334 . S
C783 H760 0.950 . S
C783 C782 1.334 . S
C783 C784 1.287 . S
C784 C783 1.287 . S
C784 C785 1.524 . S
C784 H803 0.913 . S
C785 H761 0.950 . S
C785 C784 1.524 . S
C785 C786 1.415 . S
C786 H762 0.950 . S
C786 C781 1.363 . S
C786 C785 1.415 . S
C787 H763 0.951 . S
C787 C788 1.366 . S
C787 C789 1.388 . S
C788 C787 1.366 . S
C788 C792 1.385 . S
C789 H764 0.951 . S
C789 C787 1.388 . S
C789 C790 1.366 . S
C790 C789 1.366 . S
C790 C791 1.414 . S
C790 C793 1.499 . S
C791 H765 0.950 . S
C791 C790 1.414 . S
C791 C792 1.374 . S
C792 H766 0.950 . S
C792 C788 1.385 . S
C792 C791 1.374 . S
C793 C790 1.499 . S
C793 C794 1.373 . S
C793 C795 1.389 . S
C794 H767 0.950 . S
C794 C780 1.377 . S
C794 C793 1.373 . S
C795 C779 1.377 . S
C795 C793 1.389 . S
C795 C796 1.524 . S
C796 C795 1.524 . S
C796 C797 1.397 . S
C796 C801 1.363 . S
C797 H768 0.950 . S
C797 C796 1.397 . S
C797 C798 1.334 . S
C798 H769 0.950 . S
C798 C797 1.334 . S
C798 C799 1.287 . S
C799 C798 1.287 . S
C799 C800 1.524 . S
C799 H802 0.999 . S
C800 H770 0.950 . S
C800 C799 1.524 . S
C800 C801 1.415 . S
C801 H771 0.950 . S
C801 C796 1.363 . S
C801 C800 1.415 . S
H802 C799 0.999 . S
H803 C784 0.913 . S
H804 C822 0.951 . S
H805 C824 0.951 . S
H806 C826 0.950 . S
H807 C827 0.950 . S
H808 C829 0.950 . S
H809 C832 0.950 . S
H810 C833 0.950 1_556 S
H811 C835 0.950 . S
H812 C836 0.950 . S
H813 C837 0.951 . S
H814 C839 0.951 . S
H815 C841 0.950 . S
H816 C842 0.950 . S
H817 C844 0.950 . S
H818 C847 0.950 . S
H819 C848 0.950 . S
H820 C850 0.950 . S
H821 C851 0.950 . S
C822 H804 0.951 . S
C822 C823 1.366 . S
C822 C824 1.388 . S
C823 C822 1.366 . S
C823 C827 1.385 . S
C824 H805 0.951 . S
C824 C822 1.388 . S
C824 C825 1.366 . S
C825 C824 1.366 . S
C825 C826 1.414 . S
C825 C828 1.499 . S
C826 H806 0.950 . S
C826 C825 1.414 . S
C826 C827 1.374 . S
C827 H807 0.950 . S
C827 C823 1.385 . S
C827 C826 1.374 . S
C828 C825 1.499 . S
C828 C829 1.373 . S
C828 C830 1.389 . S
C829 H808 0.950 . S
C829 C828 1.373 . S
C829 C845 1.377 . S
C830 C828 1.389 . S
C830 C831 1.524 . S
C830 C844 1.377 . S
C831 C830 1.524 . S
C831 C832 1.397 . S
C831 C836 1.363 . S
C832 H809 0.950 . S
C832 C831 1.397 . S
C832 C833 1.334 . S
C833 H810 0.950 1_554 S
C833 C832 1.334 . S
C833 C834 1.287 . S
C834 C833 1.287 . S
C834 C835 1.524 . S
C834 H853 0.913 . S
C835 H811 0.950 . S
C835 C834 1.524 . S
C835 C836 1.415 . S
C836 H812 0.950 . S
C836 C831 1.363 . S
C836 C835 1.415 . S
C837 H813 0.951 . S
C837 C838 1.366 . S
C837 C839 1.388 . S
C838 C837 1.366 . S
C838 C842 1.385 . S
C839 H814 0.951 . S
C839 C837 1.388 . S
C839 C840 1.366 . S
C840 C839 1.366 . S
C840 C841 1.414 . S
C840 C843 1.499 . S
C841 H815 0.950 . S
C841 C840 1.414 . S
C841 C842 1.374 . S
C842 H816 0.950 . S
C842 C838 1.385 . S
C842 C841 1.374 . S
C843 C840 1.499 . S
C843 C844 1.373 . S
C843 C845 1.389 . S
C844 H817 0.950 . S
C844 C830 1.377 . S
C844 C843 1.373 . S
C845 C829 1.377 . S
C845 C843 1.389 . S
C845 C846 1.524 . S
C846 C845 1.524 . S
C846 C847 1.397 . S
C846 C851 1.363 . S
C847 H818 0.950 . S
C847 C846 1.397 . S
C847 C848 1.334 . S
C848 H819 0.950 . S
C848 C847 1.334 . S
C848 C849 1.287 . S
C849 C848 1.287 . S
C849 C850 1.524 . S
C849 H852 0.999 . S
C850 H820 0.950 . S
C850 C849 1.524 . S
C850 C851 1.415 . S
C851 H821 0.950 . S
C851 C846 1.363 . S
C851 C850 1.415 . S
H852 C849 0.999 . S
H853 C834 0.913 . S
H854 C872 0.951 . S
H855 C874 0.951 . S
H856 C876 0.950 . S
H857 C877 0.950 . S
H858 C879 0.950 . S
H859 C882 0.950 . S
H860 C883 0.950 . S
H861 C885 0.950 . S
H862 C886 0.950 . S
H863 C887 0.951 . S
H864 C889 0.951 . S
H865 C891 0.950 . S
H866 C892 0.950 . S
H867 C894 0.950 . S
H868 C897 0.950 . S
H869 C898 0.950 . S
H870 C900 0.950 . S
H871 C901 0.950 . S
C872 H854 0.951 . S
C872 C873 1.366 . S
C872 C874 1.388 . S
C873 C872 1.366 . S
C873 C877 1.385 . S
C874 H855 0.951 . S
C874 C872 1.388 . S
C874 C875 1.366 . S
C875 C874 1.366 . S
C875 C876 1.414 . S
C875 C878 1.499 . S
C876 H856 0.950 . S
C876 C875 1.414 . S
C876 C877 1.374 . S
C877 H857 0.950 . S
C877 C873 1.385 . S
C877 C876 1.374 . S
C878 C875 1.499 . S
C878 C879 1.373 . S
C878 C880 1.389 . S
C879 H858 0.950 . S
C879 C878 1.373 . S
C879 C895 1.377 . S
C880 C878 1.389 . S
C880 C881 1.524 . S
C880 C894 1.377 . S
C881 C880 1.524 . S
C881 C882 1.397 . S
C881 C886 1.363 . S
C882 H859 0.950 . S
C882 C881 1.397 . S
C882 C883 1.334 . S
C883 H860 0.950 . S
C883 C882 1.334 . S
C883 C884 1.287 . S
C884 C883 1.287 . S
C884 C885 1.524 . S
C884 H903 0.913 . S
C885 H861 0.950 . S
C885 C884 1.524 . S
C885 C886 1.415 . S
C886 H862 0.950 . S
C886 C881 1.363 . S
C886 C885 1.415 . S
C887 H863 0.951 . S
C887 C888 1.366 . S
C887 C889 1.388 . S
C888 C887 1.366 . S
C888 C892 1.385 . S
C889 H864 0.951 . S
C889 C887 1.388 . S
C889 C890 1.366 . S
C890 C889 1.366 . S
C890 C891 1.414 . S
C890 C893 1.499 . S
C891 H865 0.950 . S
C891 C890 1.414 . S
C891 C892 1.374 . S
C892 H866 0.950 . S
C892 C888 1.385 . S
C892 C891 1.374 . S
C893 C890 1.499 . S
C893 C894 1.373 . S
C893 C895 1.389 . S
C894 H867 0.950 . S
C894 C880 1.377 . S
C894 C893 1.373 . S
C895 C879 1.377 . S
C895 C893 1.389 . S
C895 C896 1.524 . S
C896 C895 1.524 . S
C896 C897 1.397 . S
C896 C901 1.363 . S
C897 H868 0.950 . S
C897 C896 1.397 . S
C897 C898 1.334 . S
C898 H869 0.950 . S
C898 C897 1.334 . S
C898 C899 1.287 . S
C899 C898 1.287 . S
C899 C900 1.524 . S
C899 H902 0.999 . S
C900 H870 0.950 . S
C900 C899 1.524 . S
C900 C901 1.415 . S
C901 H871 0.950 . S
C901 C896 1.363 . S
C901 C900 1.415 . S
H902 C899 0.999 . S
H903 C884 0.913 . S
H904 C922 0.951 . S
H905 C924 0.951 . S
H906 C926 0.950 . S
H907 C927 0.950 . S
H908 C929 0.950 . S
H909 C932 0.950 . S
H910 C933 0.950 . S
H911 C935 0.950 . S
H912 C936 0.950 . S
H913 C937 0.951 . S
H914 C939 0.951 . S
H915 C941 0.950 . S
H916 C942 0.950 . S
H917 C944 0.950 . S
H918 C947 0.950 . S
H919 C948 0.950 . S
H920 C950 0.950 . S
H921 C951 0.950 . S
C922 H904 0.951 . S
C922 C923 1.366 . S
C922 C924 1.388 . S
C923 C922 1.366 . S
C923 C927 1.385 . S
C924 H905 0.951 . S
C924 C922 1.388 . S
C924 C925 1.366 . S
C925 C924 1.366 . S
C925 C926 1.414 . S
C925 C928 1.499 . S
C926 H906 0.950 . S
C926 C925 1.414 . S
C926 C927 1.374 . S
C927 H907 0.950 . S
C927 C923 1.385 . S
C927 C926 1.374 . S
C928 C925 1.499 . S
C928 C929 1.373 . S
C928 C930 1.389 . S
C929 H908 0.950 . S
C929 C928 1.373 . S
C929 C945 1.377 . S
C930 C928 1.389 . S
C930 C931 1.524 . S
C930 C944 1.377 . S
C931 C930 1.524 . S
C931 C932 1.397 . S
C931 C936 1.363 . S
C932 H909 0.950 . S
C932 C931 1.397 . S
C932 C933 1.334 . S
C933 H910 0.950 . S
C933 C932 1.334 . S
C933 C934 1.287 . S
C934 C933 1.287 . S
C934 C935 1.524 . S
C934 H953 0.913 . S
C935 H911 0.950 . S
C935 C934 1.524 . S
C935 C936 1.415 . S
C936 H912 0.950 . S
C936 C931 1.363 . S
C936 C935 1.415 . S
C937 H913 0.951 . S
C937 C938 1.366 . S
C937 C939 1.388 . S
C938 C937 1.366 . S
C938 C942 1.385 . S
C939 H914 0.951 . S
C939 C937 1.388 . S
C939 C940 1.366 . S
C940 C939 1.366 . S
C940 C941 1.414 . S
C940 C943 1.499 . S
C941 H915 0.950 . S
C941 C940 1.414 . S
C941 C942 1.374 . S
C942 H916 0.950 . S
C942 C938 1.385 . S
C942 C941 1.374 . S
C943 C940 1.499 . S
C943 C944 1.373 . S
C943 C945 1.389 . S
C944 H917 0.950 . S
C944 C930 1.377 . S
C944 C943 1.373 . S
C945 C929 1.377 . S
C945 C943 1.389 . S
C945 C946 1.524 . S
C946 C945 1.524 . S
C946 C947 1.397 . S
C946 C951 1.363 . S
C947 H918 0.950 . S
C947 C946 1.397 . S
C947 C948 1.334 . S
C948 H919 0.950 . S
C948 C947 1.334 . S
C948 C949 1.287 . S
C949 C948 1.287 . S
C949 C950 1.524 . S
C949 H952 0.999 . S
C950 H920 0.950 . S
C950 C949 1.524 . S
C950 C951 1.415 . S
C951 H921 0.950 . S
C951 C946 1.363 . S
C951 C950 1.415 . S
H952 C949 0.999 . S
H953 C934 0.913 . S
H954 C972 0.951 . S
H955 C974 0.951 . S
H956 C976 0.950 . S
H957 C977 0.950 . S
H958 C979 0.950 . S
H959 C982 0.950 . S
H960 C983 0.950 . S
H961 C985 0.950 . S
H962 C986 0.950 . S
H963 C987 0.951 . S
H964 C989 0.951 . S
H965 C991 0.950 . S
H966 C992 0.950 . S
H967 C994 0.950 . S
H968 C997 0.950 . S
H969 C998 0.950 . S
H970 C1000 0.950 . S
H971 C1001 0.950 . S
C972 H954 0.951 . S
C972 C973 1.366 . S
C972 C974 1.388 . S
C973 C972 1.366 . S
C973 C977 1.385 . S
C974 H955 0.951 . S
C974 C972 1.388 . S
C974 C975 1.366 . S
C975 C974 1.366 . S
C975 C976 1.414 . S
C975 C978 1.499 . S
C976 H956 0.950 . S
C976 C975 1.414 . S
C976 C977 1.374 . S
C977 H957 0.950 . S
C977 C973 1.385 . S
C977 C976 1.374 . S
C978 C975 1.499 . S
C978 C979 1.373 . S
C978 C980 1.389 . S
C979 H958 0.950 . S
C979 C978 1.373 . S
C979 C995 1.377 . S
C980 C978 1.389 . S
C980 C981 1.524 . S
C980 C994 1.377 . S
C981 C980 1.524 . S
C981 C982 1.397 . S
C981 C986 1.363 . S
C982 H959 0.950 . S
C982 C981 1.397 . S
C982 C983 1.334 . S
C983 H960 0.950 . S
C983 C982 1.334 . S
C983 C984 1.287 . S
C984 C983 1.287 . S
C984 C985 1.524 . S
C984 H1003 0.913 . S
C985 H961 0.950 . S
C985 C984 1.524 . S
C985 C986 1.415 . S
C986 H962 0.950 . S
C986 C981 1.363 . S
C986 C985 1.415 . S
C987 H963 0.951 . S
C987 C988 1.366 . S
C987 C989 1.388 . S
C988 C987 1.366 . S
C988 C992 1.385 . S
C989 H964 0.951 . S
C989 C987 1.388 . S
C989 C990 1.366 . S
C990 C989 1.366 . S
C990 C991 1.414 . S
C990 C993 1.499 . S
C991 H965 0.950 . S
C991 C990 1.414 . S
C991 C992 1.374 . S
C992 H966 0.950 . S
C992 C988 1.385 . S
C992 C991 1.374 . S
C993 C990 1.499 . S
C993 C994 1.373 . S
C993 C995 1.389 . S
C994 H967 0.950 . S
C994 C980 1.377 . S
C994 C993 1.373 . S
C995 C979 1.377 . S
C995 C993 1.389 . S
C995 C996 1.524 . S
C996 C995 1.524 . S
C996 C997 1.397 . S
C996 C1001 1.363 . S
C997 H968 0.950 . S
C997 C996 1.397 . S
C997 C998 1.334 . S
C998 H969 0.950 . S
C998 C997 1.334 . S
C998 C999 1.287 . S
C999 C998 1.287 . S
C999 C1000 1.524 . S
C999 H1002 0.999 . S
C1000 H970 0.950 . S
C1000 C999 1.524 . S
C1000 C1001 1.415 . S
C1001 H971 0.950 . S
C1001 C996 1.363 . S
C1001 C1000 1.415 . S
H1002 C999 0.999 . S
H1003 C984 0.913 . S
H1004 C1022 0.951 . S
H1005 C1024 0.951 . S
H1006 C1026 0.950 . S
H1007 C1027 0.950 . S
H1008 C1029 0.950 . S
H1009 C1032 0.950 . S
H1010 C1033 0.950 . S
H1011 C1035 0.950 . S
H1012 C1036 0.950 . S
H1013 C1037 0.951 . S
H1014 C1039 0.951 . S
H1015 C1041 0.950 . S
H1016 C1042 0.950 . S
H1017 C1044 0.950 . S
H1018 C1047 0.950 . S
H1019 C1048 0.950 . S
H1020 C1050 0.950 . S
H1021 C1051 0.950 . S
C1022 H1004 0.951 . S
C1022 C1023 1.366 . S
C1022 C1024 1.388 . S
C1023 C1022 1.366 . S
C1023 C1027 1.385 . S
C1024 H1005 0.951 . S
C1024 C1022 1.388 . S
C1024 C1025 1.366 . S
C1025 C1024 1.366 . S
C1025 C1026 1.414 . S
C1025 C1028 1.499 . S
C1026 H1006 0.950 . S
C1026 C1025 1.414 . S
C1026 C1027 1.374 . S
C1027 H1007 0.950 . S
C1027 C1023 1.385 . S
C1027 C1026 1.374 . S
C1028 C1025 1.499 . S
C1028 C1029 1.373 . S
C1028 C1030 1.389 . S
C1029 H1008 0.950 . S
C1029 C1028 1.373 . S
C1029 C1045 1.377 . S
C1030 C1028 1.389 . S
C1030 C1031 1.524 . S
C1030 C1044 1.377 . S
C1031 C1030 1.524 . S
C1031 C1032 1.397 . S
C1031 C1036 1.363 . S
C1032 H1009 0.950 . S
C1032 C1031 1.397 . S
C1032 C1033 1.334 . S
C1033 H1010 0.950 . S
C1033 C1032 1.334 . S
C1033 C1034 1.287 . S
C1034 C1033 1.287 . S
C1034 C1035 1.524 . S
C1034 H1053 0.913 . S
C1035 H1011 0.950 . S
C1035 C1034 1.524 . S
C1035 C1036 1.415 . S
C1036 H1012 0.950 . S
C1036 C1031 1.363 . S
C1036 C1035 1.415 . S
C1037 H1013 0.951 . S
C1037 C1038 1.366 . S
C1037 C1039 1.388 . S
C1038 C1037 1.366 . S
C1038 C1042 1.385 . S
C1039 H1014 0.951 . S
C1039 C1037 1.388 . S
C1039 C1040 1.366 . S
C1040 C1039 1.366 . S
C1040 C1041 1.414 . S
C1040 C1043 1.499 . S
C1041 H1015 0.950 . S
C1041 C1040 1.414 . S
C1041 C1042 1.374 . S
C1042 H1016 0.950 . S
C1042 C1038 1.385 . S
C1042 C1041 1.374 . S
C1043 C1040 1.499 . S
C1043 C1044 1.373 . S
C1043 C1045 1.389 . S
C1044 H1017 0.950 . S
C1044 C1030 1.377 . S
C1044 C1043 1.373 . S
C1045 C1029 1.377 . S
C1045 C1043 1.389 . S
C1045 C1046 1.524 . S
C1046 C1045 1.524 . S
C1046 C1047 1.397 . S
C1046 C1051 1.363 . S
C1047 H1018 0.950 . S
C1047 C1046 1.397 . S
C1047 C1048 1.334 . S
C1048 H1019 0.950 . S
C1048 C1047 1.334 . S
C1048 C1049 1.287 . S
C1049 C1048 1.287 . S
C1049 C1050 1.524 . S
C1049 H1052 0.999 . S
C1050 H1020 0.950 . S
C1050 C1049 1.524 . S
C1050 C1051 1.415 . S
C1051 H1021 0.950 . S
C1051 C1046 1.363 . S
C1051 C1050 1.415 . S
H1052 C1049 0.999 . S
H1053 C1034 0.913 . S
H1054 C1072 0.951 . S
H1055 C1074 0.951 . S
H1056 C1076 0.950 . S
H1057 C1077 0.950 . S
H1058 C1079 0.950 . S
H1059 C1082 0.950 . S
H1060 C1083 0.950 . S
H1061 C1085 0.950 . S
H1062 C1086 0.950 . S
H1063 C1087 0.951 . S
H1064 C1089 0.951 . S
H1065 C1091 0.950 . S
H1066 C1092 0.950 . S
H1067 C1094 0.950 . S
H1068 C1097 0.950 . S
H1069 C1098 0.950 . S
H1070 C1100 0.950 . S
H1071 C1101 0.950 . S
C1072 H1054 0.951 . S
C1072 C1073 1.366 . S
C1072 C1074 1.388 . S
C1073 C1072 1.366 . S
C1073 C1077 1.385 . S
C1074 H1055 0.951 . S
C1074 C1072 1.388 . S
C1074 C1075 1.366 . S
C1075 C1074 1.366 . S
C1075 C1076 1.414 . S
C1075 C1078 1.499 . S
C1076 H1056 0.950 . S
C1076 C1075 1.414 . S
C1076 C1077 1.374 . S
C1077 H1057 0.950 . S
C1077 C1073 1.385 . S
C1077 C1076 1.374 . S
C1078 C1075 1.499 . S
C1078 C1079 1.373 . S
C1078 C1080 1.389 . S
C1079 H1058 0.950 . S
C1079 C1078 1.373 . S
C1079 C1095 1.377 . S
C1080 C1078 1.389 . S
C1080 C1081 1.524 . S
C1080 C1094 1.377 . S
C1081 C1080 1.524 . S
C1081 C1082 1.397 . S
C1081 C1086 1.363 . S
C1082 H1059 0.950 . S
C1082 C1081 1.397 . S
C1082 C1083 1.334 . S
C1083 H1060 0.950 . S
C1083 C1082 1.334 . S
C1083 C1084 1.287 . S
C1084 C1083 1.287 . S
C1084 C1085 1.524 . S
C1084 H1103 0.913 . S
C1085 H1061 0.950 . S
C1085 C1084 1.524 . S
C1085 C1086 1.415 . S
C1086 H1062 0.950 . S
C1086 C1081 1.363 . S
C1086 C1085 1.415 . S
C1087 H1063 0.951 . S
C1087 C1088 1.366 . S
C1087 C1089 1.388 . S
C1088 C1087 1.366 . S
C1088 C1092 1.385 . S
C1089 H1064 0.951 . S
C1089 C1087 1.388 . S
C1089 C1090 1.366 . S
C1090 C1089 1.366 . S
C1090 C1091 1.414 . S
C1090 C1093 1.499 . S
C1091 H1065 0.950 . S
C1091 C1090 1.414 . S
C1091 C1092 1.374 . S
C1092 H1066 0.950 . S
C1092 C1088 1.385 . S
C1092 C1091 1.374 . S
C1093 C1090 1.499 . S
C1093 C1094 1.373 . S
C1093 C1095 1.389 . S
C1094 H1067 0.950 . S
C1094 C1080 1.377 . S
C1094 C1093 1.373 . S
C1095 C1079 1.377 . S
C1095 C1093 1.389 . S
C1095 C1096 1.524 . S
C1096 C1095 1.524 . S
C1096 C1097 1.397 . S
C1096 C1101 1.363 . S
C1097 H1068 0.950 . S
C1097 C1096 1.397 . S
C1097 C1098 1.334 . S
C1098 H1069 0.950 . S
C1098 C1097 1.334 . S
C1098 C1099 1.287 . S
C1099 C1098 1.287 . S
C1099 C1100 1.524 . S
C1099 H1102 0.999 . S
C1100 H1070 0.950 . S
C1100 C1099 1.524 . S
C1100 C1101 1.415 . S
C1101 H1071 0.950 . S
C1101 C1096 1.363 . S
C1101 C1100 1.415 . S
H1102 C1099 0.999 . S
H1103 C1084 0.913 . S
H1104 C1122 0.951 . S
H1105 C1124 0.951 . S
H1106 C1126 0.950 . S
H1107 C1127 0.950 . S
H1108 C1129 0.950 . S
H1109 C1132 0.950 . S
H1110 C1133 0.950 . S
H1111 C1135 0.950 . S
H1112 C1136 0.950 . S
H1113 C1137 0.951 . S
H1114 C1139 0.951 . S
H1115 C1141 0.950 . S
H1116 C1142 0.950 . S
H1117 C1144 0.950 . S
H1118 C1147 0.950 . S
H1119 C1148 0.950 . S
H1120 C1150 0.950 . S
H1121 C1151 0.950 . S
C1122 H1104 0.951 . S
C1122 C1123 1.366 . S
C1122 C1124 1.388 . S
C1123 C1122 1.366 . S
C1123 C1127 1.385 . S
C1124 H1105 0.951 . S
C1124 C1122 1.388 . S
C1124 C1125 1.366 . S
C1125 C1124 1.366 . S
C1125 C1126 1.414 . S
C1125 C1128 1.499 . S
C1126 H1106 0.950 . S
C1126 C1125 1.414 . S
C1126 C1127 1.374 . S
C1127 H1107 0.950 . S
C1127 C1123 1.385 . S
C1127 C1126 1.374 . S
C1128 C1125 1.499 . S
C1128 C1129 1.373 . S
C1128 C1130 1.389 . S
C1129 H1108 0.950 . S
C1129 C1128 1.373 . S
C1129 C1145 1.377 . S
C1130 C1128 1.389 . S
C1130 C1131 1.524 . S
C1130 C1144 1.377 . S
C1131 C1130 1.524 . S
C1131 C1132 1.397 . S
C1131 C1136 1.363 . S
C1132 H1109 0.950 . S
C1132 C1131 1.397 . S
C1132 C1133 1.334 . S
C1133 H1110 0.950 . S
C1133 C1132 1.334 . S
C1133 C1134 1.287 . S
C1134 C1133 1.287 . S
C1134 C1135 1.524 . S
C1134 H1153 0.913 . S
C1135 H1111 0.950 . S
C1135 C1134 1.524 . S
C1135 C1136 1.415 . S
C1136 H1112 0.950 . S
C1136 C1131 1.363 . S
C1136 C1135 1.415 . S
C1137 H1113 0.951 . S
C1137 C1138 1.366 . S
C1137 C1139 1.388 . S
C1138 C1137 1.366 . S
C1138 C1142 1.385 . S
C1139 H1114 0.951 . S
C1139 C1137 1.388 . S
C1139 C1140 1.366 . S
C1140 C1139 1.366 . S
C1140 C1141 1.414 . S
C1140 C1143 1.499 1_554 S
C1141 H1115 0.950 . S
C1141 C1140 1.414 . S
C1141 C1142 1.374 . S
C1142 H1116 0.950 . S
C1142 C1138 1.385 . S
C1142 C1141 1.374 . S
C1143 C1140 1.499 1_556 S
C1143 C1144 1.373 . S
C1143 C1145 1.389 . S
C1144 H1117 0.950 . S
C1144 C1130 1.377 . S
C1144 C1143 1.373 . S
C1145 C1129 1.377 . S
C1145 C1143 1.389 . S
C1145 C1146 1.524 . S
C1146 C1145 1.524 . S
C1146 C1147 1.397 1_556 S
C1146 C1151 1.363 . S
C1147 H1118 0.950 . S
C1147 C1146 1.397 1_554 S
C1147 C1148 1.334 . S
C1148 H1119 0.950 . S
C1148 C1147 1.334 . S
C1148 C1149 1.287 . S
C1149 C1148 1.287 . S
C1149 C1150 1.524 . S
C1149 H1152 0.999 . S
C1150 H1120 0.950 . S
C1150 C1149 1.524 . S
C1150 C1151 1.415 1_554 S
C1151 H1121 0.950 . S
C1151 C1146 1.363 . S
C1151 C1150 1.415 1_556 S
H1152 C1149 0.999 . S
H1153 C1134 0.913 . S
H1154 C1172 0.951 . S
H1155 C1174 0.951 . S
H1156 C1176 0.950 . S
H1157 C1177 0.950 . S
H1158 C1179 0.950 . S
H1159 C1182 0.950 . S
H1160 C1183 0.950 . S
H1161 C1185 0.950 . S
H1162 C1186 0.950 . S
H1163 C1187 0.951 . S
H1164 C1189 0.951 . S
H1165 C1191 0.950 . S
H1166 C1192 0.950 . S
H1167 C1194 0.950 . S
H1168 C1197 0.950 . S
H1169 C1198 0.950 . S
H1170 C1200 0.950 . S
H1171 C1201 0.950 . S
C1172 H1154 0.951 . S
C1172 C1173 1.366 . S
C1172 C1174 1.388 . S
C1173 C1172 1.366 . S
C1173 C1177 1.385 . S
C1174 H1155 0.951 . S
C1174 C1172 1.388 . S
C1174 C1175 1.366 . S
C1175 C1174 1.366 . S
C1175 C1176 1.414 . S
C1175 C1178 1.499 . S
C1176 H1156 0.950 . S
C1176 C1175 1.414 . S
C1176 C1177 1.374 . S
C1177 H1157 0.950 . S
C1177 C1173 1.385 . S
C1177 C1176 1.374 . S
C1178 C1175 1.499 . S
C1178 C1179 1.373 . S
C1178 C1180 1.389 . S
C1179 H1158 0.950 . S
C1179 C1178 1.373 . S
C1179 C1195 1.377 . S
C1180 C1178 1.389 . S
C1180 C1181 1.524 . S
C1180 C1194 1.377 . S
C1181 C1180 1.524 . S
C1181 C1182 1.397 . S
C1181 C1186 1.363 . S
C1182 H1159 0.950 . S
C1182 C1181 1.397 . S
C1182 C1183 1.334 . S
C1183 H1160 0.950 . S
C1183 C1182 1.334 . S
C1183 C1184 1.287 . S
C1184 C1183 1.287 . S
C1184 C1185 1.524 . S
C1184 H1203 0.913 . S
C1185 H1161 0.950 . S
C1185 C1184 1.524 . S
C1185 C1186 1.415 . S
C1186 H1162 0.950 . S
C1186 C1181 1.363 . S
C1186 C1185 1.415 . S
C1187 H1163 0.951 . S
C1187 C1188 1.366 . S
C1187 C1189 1.388 . S
C1188 C1187 1.366 . S
C1188 C1192 1.385 . S
C1189 H1164 0.951 . S
C1189 C1187 1.388 . S
C1189 C1190 1.366 . S
C1190 C1189 1.366 . S
C1190 C1191 1.414 . S
C1190 C1193 1.499 . S
C1191 H1165 0.950 . S
C1191 C1190 1.414 . S
C1191 C1192 1.374 . S
C1192 H1166 0.950 . S
C1192 C1188 1.385 . S
C1192 C1191 1.374 . S
C1193 C1190 1.499 . S
C1193 C1194 1.373 . S
C1193 C1195 1.389 . S
C1194 H1167 0.950 . S
C1194 C1180 1.377 . S
C1194 C1193 1.373 . S
C1195 C1179 1.377 . S
C1195 C1193 1.389 . S
C1195 C1196 1.524 . S
C1196 C1195 1.524 . S
C1196 C1197 1.397 . S
C1196 C1201 1.363 . S
C1197 H1168 0.950 . S
C1197 C1196 1.397 . S
C1197 C1198 1.334 . S
C1198 H1169 0.950 . S
C1198 C1197 1.334 . S
C1198 C1199 1.287 . S
C1199 C1198 1.287 . S
C1199 C1200 1.524 . S
C1199 H1202 0.999 . S
C1200 H1170 0.950 . S
C1200 C1199 1.524 . S
C1200 C1201 1.415 . S
C1201 H1171 0.950 . S
C1201 C1196 1.363 . S
C1201 C1200 1.415 . S
H1202 C1199 0.999 . S
H1203 C1184 0.913 . S
H1204 C1222 0.951 . S
H1205 C1224 0.951 . S
H1206 C1226 0.950 . S
H1207 C1227 0.950 . S
H1208 C1229 0.950 . S
H1209 C1232 0.950 . S
H1210 C1233 0.950 . S
H1211 C1235 0.950 . S
H1212 C1236 0.950 . S
H1213 C1237 0.951 . S
H1214 C1239 0.951 . S
H1215 C1241 0.950 . S
H1216 C1242 0.950 . S
H1217 C1244 0.950 . S
H1218 C1247 0.950 . S
H1219 C1248 0.950 . S
H1220 C1250 0.950 . S
H1221 C1251 0.950 . S
C1222 H1204 0.951 . S
C1222 C1223 1.366 . S
C1222 C1224 1.388 . S
C1223 C1222 1.366 . S
C1223 C1227 1.385 . S
C1224 H1205 0.951 . S
C1224 C1222 1.388 . S
C1224 C1225 1.366 . S
C1225 C1224 1.366 . S
C1225 C1226 1.414 . S
C1225 C1228 1.499 . S
C1226 H1206 0.950 . S
C1226 C1225 1.414 . S
C1226 C1227 1.374 . S
C1227 H1207 0.950 . S
C1227 C1223 1.385 . S
C1227 C1226 1.374 . S
C1228 C1225 1.499 . S
C1228 C1229 1.373 . S
C1228 C1230 1.389 . S
C1229 H1208 0.950 . S
C1229 C1228 1.373 . S
C1229 C1245 1.377 . S
C1230 C1228 1.389 . S
C1230 C1231 1.524 . S
C1230 C1244 1.377 . S
C1231 C1230 1.524 . S
C1231 C1232 1.397 . S
C1231 C1236 1.363 . S
C1232 H1209 0.950 . S
C1232 C1231 1.397 . S
C1232 C1233 1.334 . S
C1233 H1210 0.950 . S
C1233 C1232 1.334 . S
C1233 C1234 1.287 . S
C1234 C1233 1.287 . S
C1234 C1235 1.524 . S
C1234 H1253 0.913 . S
C1235 H1211 0.950 . S
C1235 C1234 1.524 . S
C1235 C1236 1.415 . S
C1236 H1212 0.950 . S
C1236 C1231 1.363 . S
C1236 C1235 1.415 . S
C1237 H1213 0.951 . S
C1237 C1238 1.366 . S
C1237 C1239 1.388 . S
C1238 C1237 1.366 . S
C1238 C1242 1.385 . S
C1239 H1214 0.951 . S
C1239 C1237 1.388 . S
C1239 C1240 1.366 . S
C1240 C1239 1.366 . S
C1240 C1241 1.414 . S
C1240 C1243 1.499 . S
C1241 H1215 0.950 . S
C1241 C1240 1.414 . S
C1241 C1242 1.374 . S
C1242 H1216 0.950 . S
C1242 C1238 1.385 . S
C1242 C1241 1.374 . S
C1243 C1240 1.499 . S
C1243 C1244 1.373 . S
C1243 C1245 1.389 . S
C1244 H1217 0.950 . S
C1244 C1230 1.377 . S
C1244 C1243 1.373 . S
C1245 C1229 1.377 . S
C1245 C1243 1.389 . S
C1245 C1246 1.524 . S
C1246 C1245 1.524 . S
C1246 C1247 1.397 . S
C1246 C1251 1.363 . S
C1247 H1218 0.950 . S
C1247 C1246 1.397 . S
C1247 C1248 1.334 . S
C1248 H1219 0.950 . S
C1248 C1247 1.334 . S
C1248 C1249 1.287 . S
C1249 C1248 1.287 . S
C1249 C1250 1.524 . S
C1249 H1252 0.999 . S
C1250 H1220 0.950 . S
C1250 C1249 1.524 . S
C1250 C1251 1.415 . S
C1251 H1221 0.950 . S
C1251 C1246 1.363 . S
C1251 C1250 1.415 . S
H1252 C1249 0.999 . S
H1253 C1234 0.913 . S
H1254 C1272 0.951 . S
H1255 C1274 0.951 . S
H1256 C1276 0.950 . S
H1257 C1277 0.950 . S
H1258 C1279 0.950 . S
H1259 C1282 0.950 . S
H1260 C1283 0.950 . S
H1261 C1285 0.950 . S
H1262 C1286 0.950 . S
H1263 C1287 0.951 . S
H1264 C1289 0.951 . S
H1265 C1291 0.950 . S
H1266 C1292 0.950 . S
H1267 C1294 0.950 . S
H1268 C1297 0.950 . S
H1269 C1298 0.950 . S
H1270 C1300 0.950 . S
H1271 C1301 0.950 . S
C1272 H1254 0.951 . S
C1272 C1273 1.366 . S
C1272 C1274 1.388 . S
C1273 C1272 1.366 . S
C1273 C1277 1.385 . S
C1274 H1255 0.951 . S
C1274 C1272 1.388 . S
C1274 C1275 1.366 . S
C1275 C1274 1.366 . S
C1275 C1276 1.414 . S
C1275 C1278 1.499 . S
C1276 H1256 0.950 . S
C1276 C1275 1.414 . S
C1276 C1277 1.374 . S
C1277 H1257 0.950 . S
C1277 C1273 1.385 . S
C1277 C1276 1.374 . S
C1278 C1275 1.499 . S
C1278 C1279 1.373 . S
C1278 C1280 1.389 . S
C1279 H1258 0.950 . S
C1279 C1278 1.373 . S
C1279 C1295 1.377 . S
C1280 C1278 1.389 . S
C1280 C1281 1.524 . S
C1280 C1294 1.377 . S
C1281 C1280 1.524 . S
C1281 C1282 1.397 . S
C1281 C1286 1.363 . S
C1282 H1259 0.950 . S
C1282 C1281 1.397 . S
C1282 C1283 1.334 . S
C1283 H1260 0.950 . S
C1283 C1282 1.334 . S
C1283 C1284 1.287 . S
C1284 C1283 1.287 . S
C1284 C1285 1.524 . S
C1284 H1303 0.913 1_565 S
C1285 H1261 0.950 . S
C1285 C1284 1.524 . S
C1285 C1286 1.415 . S
C1286 H1262 0.950 . S
C1286 C1281 1.363 . S
C1286 C1285 1.415 . S
C1287 H1263 0.951 . S
C1287 C1288 1.366 . S
C1287 C1289 1.388 . S
C1288 C1287 1.366 . S
C1288 C1292 1.385 . S
C1289 H1264 0.951 . S
C1289 C1287 1.388 . S
C1289 C1290 1.366 . S
C1290 C1289 1.366 . S
C1290 C1291 1.414 . S
C1290 C1293 1.499 . S
C1291 H1265 0.950 . S
C1291 C1290 1.414 . S
C1291 C1292 1.374 . S
C1292 H1266 0.950 . S
C1292 C1288 1.385 . S
C1292 C1291 1.374 . S
C1293 C1290 1.499 . S
C1293 C1294 1.373 . S
C1293 C1295 1.389 . S
C1294 H1267 0.950 . S
C1294 C1280 1.377 . S
C1294 C1293 1.373 . S
C1295 C1279 1.377 . S
C1295 C1293 1.389 . S
C1295 C1296 1.524 . S
C1296 C1295 1.524 . S
C1296 C1297 1.397 . S
C1296 C1301 1.363 . S
C1297 H1268 0.950 . S
C1297 C1296 1.397 . S
C1297 C1298 1.334 . S
C1298 H1269 0.950 . S
C1298 C1297 1.334 . S
C1298 C1299 1.287 . S
C1299 C1298 1.287 . S
C1299 C1300 1.524 . S
C1299 H1302 0.999 . S
C1300 H1270 0.950 . S
C1300 C1299 1.524 . S
C1300 C1301 1.415 . S
C1301 H1271 0.950 . S
C1301 C1296 1.363 . S
C1301 C1300 1.415 . S
H1302 C1299 0.999 . S
H1303 C1284 0.913 1_545 S
H1304 C1322 0.951 . S
H1305 C1324 0.951 . S
H1306 C1326 0.950 . S
H1307 C1327 0.950 . S
H1308 C1329 0.950 . S
H1309 C1332 0.950 . S
H1310 C1333 0.950 . S
H1311 C1335 0.950 . S
H1312 C1336 0.950 . S
H1313 C1337 0.951 . S
H1314 C1339 0.951 . S
H1315 C1341 0.950 . S
H1316 C1342 0.950 . S
H1317 C1344 0.950 . S
H1318 C1347 0.950 . S
H1319 C1348 0.950 . S
H1320 C1350 0.950 . S
H1321 C1351 0.950 . S
C1322 H1304 0.951 . S
C1322 C1323 1.366 . S
C1322 C1324 1.388 . S
C1323 C1322 1.366 . S
C1323 C1327 1.385 . S
C1324 H1305 0.951 . S
C1324 C1322 1.388 . S
C1324 C1325 1.366 . S
C1325 C1324 1.366 . S
C1325 C1326 1.414 . S
C1325 C1328 1.499 . S
C1326 H1306 0.950 . S
C1326 C1325 1.414 . S
C1326 C1327 1.374 . S
C1327 H1307 0.950 . S
C1327 C1323 1.385 . S
C1327 C1326 1.374 . S
C1328 C1325 1.499 . S
C1328 C1329 1.373 . S
C1328 C1330 1.389 . S
C1329 H1308 0.950 . S
C1329 C1328 1.373 . S
C1329 C1345 1.377 . S
C1330 C1328 1.389 . S
C1330 C1331 1.524 . S
C1330 C1344 1.377 . S
C1331 C1330 1.524 . S
C1331 C1332 1.397 . S
C1331 C1336 1.363 . S
C1332 H1309 0.950 . S
C1332 C1331 1.397 . S
C1332 C1333 1.334 . S
C1333 H1310 0.950 . S
C1333 C1332 1.334 . S
C1333 C1334 1.287 . S
C1334 C1333 1.287 . S
C1334 C1335 1.524 . S
C1334 H1353 0.913 . S
C1335 H1311 0.950 . S
C1335 C1334 1.524 . S
C1335 C1336 1.415 . S
C1336 H1312 0.950 . S
C1336 C1331 1.363 . S
C1336 C1335 1.415 . S
C1337 H1313 0.951 . S
C1337 C1338 1.366 . S
C1337 C1339 1.388 . S
C1338 C1337 1.366 . S
C1338 C1342 1.385 . S
C1339 H1314 0.951 . S
C1339 C1337 1.388 . S
C1339 C1340 1.366 . S
C1340 C1339 1.366 . S
C1340 C1341 1.414 . S
C1340 C1343 1.499 . S
C1341 H1315 0.950 . S
C1341 C1340 1.414 . S
C1341 C1342 1.374 . S
C1342 H1316 0.950 . S
C1342 C1338 1.385 . S
C1342 C1341 1.374 . S
C1343 C1340 1.499 . S
C1343 C1344 1.373 . S
C1343 C1345 1.389 . S
C1344 H1317 0.950 . S
C1344 C1330 1.377 . S
C1344 C1343 1.373 . S
C1345 C1329 1.377 . S
C1345 C1343 1.389 . S
C1345 C1346 1.524 . S
C1346 C1345 1.524 . S
C1346 C1347 1.397 . S
C1346 C1351 1.363 . S
C1347 H1318 0.950 . S
C1347 C1346 1.397 . S
C1347 C1348 1.334 . S
C1348 H1319 0.950 . S
C1348 C1347 1.334 . S
C1348 C1349 1.287 . S
C1349 C1348 1.287 . S
C1349 C1350 1.524 . S
C1349 H1352 0.999 . S
C1350 H1320 0.950 . S
C1350 C1349 1.524 . S
C1350 C1351 1.415 . S
C1351 H1321 0.950 . S
C1351 C1346 1.363 . S
C1351 C1350 1.415 . S
H1352 C1349 0.999 . S
H1353 C1334 0.913 . S
H1354 C1372 0.951 . S
H1355 C1374 0.951 . S
H1356 C1376 0.950 . S
H1357 C1377 0.950 . S
H1358 C1379 0.950 . S
H1359 C1382 0.950 . S
H1360 C1383 0.950 . S
H1361 C1385 0.950 . S
H1362 C1386 0.950 . S
H1363 C1387 0.951 . S
H1364 C1389 0.951 . S
H1365 C1391 0.950 . S
H1366 C1392 0.950 . S
H1367 C1394 0.950 . S
H1368 C1397 0.950 . S
H1369 C1398 0.950 . S
H1370 C1400 0.950 . S
H1371 C1401 0.950 . S
C1372 H1354 0.951 . S
C1372 C1373 1.366 . S
C1372 C1374 1.388 . S
C1373 C1372 1.366 . S
C1373 C1377 1.385 . S
C1374 H1355 0.951 . S
C1374 C1372 1.388 . S
C1374 C1375 1.366 . S
C1375 C1374 1.366 . S
C1375 C1376 1.414 . S
C1375 C1378 1.499 . S
C1376 H1356 0.950 . S
C1376 C1375 1.414 . S
C1376 C1377 1.374 . S
C1377 H1357 0.950 . S
C1377 C1373 1.385 . S
C1377 C1376 1.374 . S
C1378 C1375 1.499 . S
C1378 C1379 1.373 . S
C1378 C1380 1.389 . S
C1379 H1358 0.950 . S
C1379 C1378 1.373 . S
C1379 C1395 1.377 . S
C1380 C1378 1.389 . S
C1380 C1381 1.524 . S
C1380 C1394 1.377 . S
C1381 C1380 1.524 . S
C1381 C1382 1.397 . S
C1381 C1386 1.363 . S
C1382 H1359 0.950 . S
C1382 C1381 1.397 . S
C1382 C1383 1.334 . S
C1383 H1360 0.950 . S
C1383 C1382 1.334 . S
C1383 C1384 1.287 . S
C1384 C1383 1.287 . S
C1384 C1385 1.524 . S
C1384 H1403 0.913 . S
C1385 H1361 0.950 . S
C1385 C1384 1.524 . S
C1385 C1386 1.415 . S
C1386 H1362 0.950 . S
C1386 C1381 1.363 . S
C1386 C1385 1.415 . S
C1387 H1363 0.951 . S
C1387 C1388 1.366 . S
C1387 C1389 1.388 . S
C1388 C1387 1.366 . S
C1388 C1392 1.385 . S
C1389 H1364 0.951 . S
C1389 C1387 1.388 . S
C1389 C1390 1.366 . S
C1390 C1389 1.366 . S
C1390 C1391 1.414 . S
C1390 C1393 1.499 . S
C1391 H1365 0.950 . S
C1391 C1390 1.414 . S
C1391 C1392 1.374 . S
C1392 H1366 0.950 . S
C1392 C1388 1.385 . S
C1392 C1391 1.374 . S
C1393 C1390 1.499 . S
C1393 C1394 1.373 . S
C1393 C1395 1.389 . S
C1394 H1367 0.950 . S
C1394 C1380 1.377 . S
C1394 C1393 1.373 . S
C1395 C1379 1.377 . S
C1395 C1393 1.389 . S
C1395 C1396 1.524 . S
C1396 C1395 1.524 . S
C1396 C1397 1.397 . S
C1396 C1401 1.363 . S
C1397 H1368 0.950 . S
C1397 C1396 1.397 . S
C1397 C1398 1.334 . S
C1398 H1369 0.950 . S
C1398 C1397 1.334 . S
C1398 C1399 1.287 . S
C1399 C1398 1.287 . S
C1399 C1400 1.524 . S
C1399 H1402 0.999 . S
C1400 H1370 0.950 . S
C1400 C1399 1.524 . S
C1400 C1401 1.415 . S
C1401 H1371 0.950 . S
C1401 C1396 1.363 . S
C1401 C1400 1.415 . S
H1402 C1399 0.999 . S
H1403 C1384 0.913 . S
H1404 C1422 0.951 . S
H1405 C1424 0.951 . S
H1406 C1426 0.950 . S
H1407 C1427 0.950 . S
H1408 C1429 0.950 . S
H1409 C1432 0.950 . S
H1410 C1433 0.950 . S
H1411 C1435 0.950 . S
H1412 C1436 0.950 . S
H1413 C1437 0.951 . S
H1414 C1439 0.951 . S
H1415 C1441 0.950 . S
H1416 C1442 0.950 . S
H1417 C1444 0.950 . S
H1418 C1447 0.950 . S
H1419 C1448 0.950 . S
H1420 C1450 0.950 . S
H1421 C1451 0.950 . S
C1422 H1404 0.951 . S
C1422 C1423 1.366 . S
C1422 C1424 1.388 . S
C1423 C1422 1.366 . S
C1423 C1427 1.385 . S
C1424 H1405 0.951 . S
C1424 C1422 1.388 . S
C1424 C1425 1.366 . S
C1425 C1424 1.366 . S
C1425 C1426 1.414 . S
C1425 C1428 1.499 . S
C1426 H1406 0.950 . S
C1426 C1425 1.414 . S
C1426 C1427 1.374 . S
C1427 H1407 0.950 . S
C1427 C1423 1.385 . S
C1427 C1426 1.374 . S
C1428 C1425 1.499 . S
C1428 C1429 1.373 . S
C1428 C1430 1.389 . S
C1429 H1408 0.950 . S
C1429 C1428 1.373 . S
C1429 C1445 1.377 . S
C1430 C1428 1.389 . S
C1430 C1431 1.524 . S
C1430 C1444 1.377 . S
C1431 C1430 1.524 . S
C1431 C1432 1.397 . S
C1431 C1436 1.363 . S
C1432 H1409 0.950 . S
C1432 C1431 1.397 . S
C1432 C1433 1.334 . S
C1433 H1410 0.950 . S
C1433 C1432 1.334 . S
C1433 C1434 1.287 . S
C1434 C1433 1.287 . S
C1434 C1435 1.524 . S
C1434 H1453 0.913 . S
C1435 H1411 0.950 . S
C1435 C1434 1.524 . S
C1435 C1436 1.415 . S
C1436 H1412 0.950 . S
C1436 C1431 1.363 . S
C1436 C1435 1.415 . S
C1437 H1413 0.951 . S
C1437 C1438 1.366 . S
C1437 C1439 1.388 . S
C1438 C1437 1.366 . S
C1438 C1442 1.385 . S
C1439 H1414 0.951 . S
C1439 C1437 1.388 . S
C1439 C1440 1.366 . S
C1440 C1439 1.366 . S
C1440 C1441 1.414 . S
C1440 C1443 1.499 . S
C1441 H1415 0.950 . S
C1441 C1440 1.414 . S
C1441 C1442 1.374 . S
C1442 H1416 0.950 . S
C1442 C1438 1.385 . S
C1442 C1441 1.374 . S
C1443 C1440 1.499 . S
C1443 C1444 1.373 . S
C1443 C1445 1.389 . S
C1444 H1417 0.950 . S
C1444 C1430 1.377 . S
C1444 C1443 1.373 . S
C1445 C1429 1.377 . S
C1445 C1443 1.389 . S
C1445 C1446 1.524 . S
C1446 C1445 1.524 . S
C1446 C1447 1.397 . S
C1446 C1451 1.363 . S
C1447 H1418 0.950 . S
C1447 C1446 1.397 . S
C1447 C1448 1.334 . S
C1448 H1419 0.950 . S
C1448 C1447 1.334 . S
C1448 C1449 1.287 . S
C1449 C1448 1.287 . S
C1449 C1450 1.524 . S
C1449 H1452 0.999 . S
C1450 H1420 0.950 . S
C1450 C1449 1.524 . S
C1450 C1451 1.415 . S
C1451 H1421 0.950 . S
C1451 C1446 1.363 . S
C1451 C1450 1.415 . S
H1452 C1449 0.999 . S
H1453 C1434 0.913 . S
H1454 C1472 0.951 . S
H1455 C1474 0.951 . S
H1456 C1476 0.950 . S
H1457 C1477 0.950 . S
H1458 C1479 0.950 . S
H1459 C1482 0.950 . S
H1460 C1483 0.950 . S
H1461 C1485 0.950 . S
H1462 C1486 0.950 1_556 S
H1463 C1487 0.951 . S
H1464 C1489 0.951 . S
H1465 C1491 0.950 . S
H1466 C1492 0.950 . S
H1467 C1494 0.950 1_556 S
H1468 C1497 0.950 . S
H1469 C1498 0.950 . S
H1470 C1500 0.950 . S
H1471 C1501 0.950 . S
C1472 H1454 0.951 . S
C1472 C1473 1.366 . S
C1472 C1474 1.388 . S
C1473 C1472 1.366 . S
C1473 C1477 1.385 . S
C1474 H1455 0.951 . S
C1474 C1472 1.388 . S
C1474 C1475 1.366 . S
C1475 C1474 1.366 . S
C1475 C1476 1.414 . S
C1475 C1478 1.499 . S
C1476 H1456 0.950 . S
C1476 C1475 1.414 . S
C1476 C1477 1.374 . S
C1477 H1457 0.950 . S
C1477 C1473 1.385 . S
C1477 C1476 1.374 . S
C1478 C1475 1.499 . S
C1478 C1479 1.373 . S
C1478 C1480 1.389 . S
C1479 H1458 0.950 . S
C1479 C1478 1.373 . S
C1479 C1495 1.377 . S
C1480 C1478 1.389 . S
C1480 C1481 1.524 . S
C1480 C1494 1.377 . S
C1481 C1480 1.524 . S
C1481 C1482 1.397 . S
C1481 C1486 1.363 . S
C1482 H1459 0.950 . S
C1482 C1481 1.397 . S
C1482 C1483 1.334 . S
C1483 H1460 0.950 . S
C1483 C1482 1.334 . S
C1483 C1484 1.287 . S
C1484 C1483 1.287 . S
C1484 C1485 1.524 1_554 S
C1484 H1503 0.913 . S
C1485 H1461 0.950 . S
C1485 C1484 1.524 1_556 S
C1485 C1486 1.415 1_556 S
C1486 H1462 0.950 1_554 S
C1486 C1481 1.363 . S
C1486 C1485 1.415 1_554 S
C1487 H1463 0.951 . S
C1487 C1488 1.366 . S
C1487 C1489 1.388 . S
C1488 C1487 1.366 . S
C1488 C1492 1.385 . S
C1489 H1464 0.951 . S
C1489 C1487 1.388 . S
C1489 C1490 1.366 . S
C1490 C1489 1.366 . S
C1490 C1491 1.414 . S
C1490 C1493 1.499 1_556 S
C1491 H1465 0.950 . S
C1491 C1490 1.414 . S
C1491 C1492 1.374 . S
C1492 H1466 0.950 . S
C1492 C1488 1.385 . S
C1492 C1491 1.374 . S
C1493 C1490 1.499 1_554 S
C1493 C1494 1.373 . S
C1493 C1495 1.389 . S
C1494 H1467 0.950 1_554 S
C1494 C1480 1.377 . S
C1494 C1493 1.373 . S
C1495 C1479 1.377 . S
C1495 C1493 1.389 . S
C1495 C1496 1.524 . S
C1496 C1495 1.524 . S
C1496 C1497 1.397 . S
C1496 C1501 1.363 . S
C1497 H1468 0.950 . S
C1497 C1496 1.397 . S
C1497 C1498 1.334 . S
C1498 H1469 0.950 . S
C1498 C1497 1.334 . S
C1498 C1499 1.287 . S
C1499 C1498 1.287 . S
C1499 C1500 1.524 . S
C1499 H1502 0.999 . S
C1500 H1470 0.950 . S
C1500 C1499 1.524 . S
C1500 C1501 1.415 . S
C1501 H1471 0.950 . S
C1501 C1496 1.363 . S
C1501 C1500 1.415 . S
H1502 C1499 0.999 . S
H1503 C1484 0.913 . S
H1504 C1522 0.951 . S
H1505 C1524 0.951 . S
H1506 C1526 0.950 . S
H1507 C1527 0.950 . S
H1508 C1529 0.950 . S
H1509 C1532 0.950 . S
H1510 C1533 0.950 . S
H1511 C1535 0.950 . S
H1512 C1536 0.950 . S
H1513 C1537 0.951 . S
H1514 C1539 0.951 . S
H1515 C1541 0.950 . S
H1516 C1542 0.950 . S
H1517 C1544 0.950 . S
H1518 C1547 0.950 . S
H1519 C1548 0.950 . S
H1520 C1550 0.950 . S
H1521 C1551 0.950 . S
C1522 H1504 0.951 . S
C1522 C1523 1.366 . S
C1522 C1524 1.388 . S
C1523 C1522 1.366 . S
C1523 C1527 1.385 . S
C1524 H1505 0.951 . S
C1524 C1522 1.388 . S
C1524 C1525 1.366 . S
C1525 C1524 1.366 . S
C1525 C1526 1.414 . S
C1525 C1528 1.499 . S
C1526 H1506 0.950 . S
C1526 C1525 1.414 . S
C1526 C1527 1.374 . S
C1527 H1507 0.950 . S
C1527 C1523 1.385 . S
C1527 C1526 1.374 . S
C1528 C1525 1.499 . S
C1528 C1529 1.373 . S
C1528 C1530 1.389 . S
C1529 H1508 0.950 . S
C1529 C1528 1.373 . S
C1529 C1545 1.377 . S
C1530 C1528 1.389 . S
C1530 C1531 1.524 . S
C1530 C1544 1.377 . S
C1531 C1530 1.524 . S
C1531 C1532 1.397 . S
C1531 C1536 1.363 . S
C1532 H1509 0.950 . S
C1532 C1531 1.397 . S
C1532 C1533 1.334 . S
C1533 H1510 0.950 . S
C1533 C1532 1.334 . S
C1533 C1534 1.287 . S
C1534 C1533 1.287 . S
C1534 C1535 1.524 . S
C1534 H1553 0.913 . S
C1535 H1511 0.950 . S
C1535 C1534 1.524 . S
C1535 C1536 1.415 . S
C1536 H1512 0.950 . S
C1536 C1531 1.363 . S
C1536 C1535 1.415 . S
C1537 H1513 0.951 . S
C1537 C1538 1.366 . S
C1537 C1539 1.388 . S
C1538 C1537 1.366 . S
C1538 C1542 1.385 . S
C1539 H1514 0.951 . S
C1539 C1537 1.388 . S
C1539 C1540 1.366 . S
C1540 C1539 1.366 . S
C1540 C1541 1.414 . S
C1540 C1543 1.499 . S
C1541 H1515 0.950 . S
C1541 C1540 1.414 . S
C1541 C1542 1.374 . S
C1542 H1516 0.950 . S
C1542 C1538 1.385 . S
C1542 C1541 1.374 . S
C1543 C1540 1.499 . S
C1543 C1544 1.373 . S
C1543 C1545 1.389 . S
C1544 H1517 0.950 . S
C1544 C1530 1.377 . S
C1544 C1543 1.373 . S
C1545 C1529 1.377 . S
C1545 C1543 1.389 . S
C1545 C1546 1.524 . S
C1546 C1545 1.524 . S
C1546 C1547 1.397 . S
C1546 C1551 1.363 . S
C1547 H1518 0.950 . S
C1547 C1546 1.397 . S
C1547 C1548 1.334 . S
C1548 H1519 0.950 . S
C1548 C1547 1.334 . S
C1548 C1549 1.287 . S
C1549 C1548 1.287 . S
C1549 C1550 1.524 . S
C1549 H1552 0.999 . S
C1550 H1520 0.950 . S
C1550 C1549 1.524 . S
C1550 C1551 1.415 . S
C1551 H1521 0.950 . S
C1551 C1546 1.363 . S
C1551 C1550 1.415 . S
H1552 C1549 0.999 . S
H1553 C1534 0.913 . S
C388 C346 1.573 . S
C373 C15 1.565 . S
C423 C61 1.567 . S
C438 C281 1.575 . S
C473 C114 1.564 . S
C488 C299 1.572 . S
C523 C139 1.559 . S
C538 C312 1.562 . S
C588 C320 1.577 . S
C573 C185 1.575 . S
C623 C245 1.563 . S
C638 C332 1.571 . S
C673 C47 1.572 . S
C688 C294 1.575 . S
C723 C100 1.570 . S
C738 C307 1.573 . S
C773 C153 1.563 . S
C788 C325 1.570 . S
C838 C331 1.577 . S
C823 C199 1.569 . S
C888 C351 1.562 . S
C873 C231 1.559 . S
C938 C286 1.572 . S
C923 C1 1.570 . S
C973 C22 1.580 . S
C988 C292 1.591 . S
C1023 C68 1.585 . S
C1038 C305 1.596 . S
C1088 C319 1.590 . S
C1073 C107 1.580 . S
C1123 C146 1.594 . S
C1138 C333 1.598 . S
C1188 C345 1.583 . S
C1173 C192 1.581 . S
C1238 C280 1.588 . S
C1223 C252 1.579 . S
C1288 C344 1.596 . S
C1273 C54 1.592 . S
C1323 C93 1.587 . S
C1338 C279 1.591 . S
C1388 C293 1.589 . S
C1373 C160 1.579 . S
C1423 C206 1.574 . S
C1438 C306 1.583 . S
C1473 C238 1.594 . S
C1488 C318 1.598 . S
C1523 C8 1.587 . S
C1538 C338 1.590 . S
