# Generated by pormake.
# Topology zzz, (3,6)-cn, num edge types: 1
# Building blocks:
#     Node 0, Type 0, BuildingBlock: CUQRIR_clean_linker_1, # of connection points: 3
#     Node 1, Type 0, BuildingBlock: CUQRIR_clean_linker_1, # of connection points: 3
#     Node 2, Type 0, BuildingBlock: CUQRIR_clean_linker_1, # of connection points: 3
#     Node 3, Type 0, BuildingBlock: CUQRIR_clean_linker_1, # of connection points: 3
#     Node 4, Type 0, BuildingBlock: CUQRIR_clean_linker_1, # of connection points: 3
#     Node 5, Type 0, BuildingBlock: CUQRIR_clean_linker_1, # of connection points: 3
#     Node 6, Type 0, BuildingBlock: CUQRIR_clean_linker_1, # of connection points: 3
#     Node 7, Type 0, BuildingBlock: CUQRIR_clean_linker_1, # of connection points: 3
#     Node 8, Type 1, BuildingBlock: BETFEN_clean_sbu_0, # of connection points: 6
#     Node 9, Type 1, BuildingBlock: BETFEN_clean_sbu_0, # of connection points: 6
#     Node 10, Type 1, BuildingBlock: BETFEN_clean_sbu_0, # of connection points: 6
#     Node 11, Type 1, BuildingBlock: BETFEN_clean_sbu_0, # of connection points: 6
#     Edge 12, Type (0, 1), BuildingBlock: UVAHIK_clean_linker_0, # of connection points: 2
#     Edge 13, Type (0, 1), BuildingBlock: UVAHIK_clean_linker_0, # of connection points: 2
#     Edge 14, Type (0, 1), BuildingBlock: UVAHIK_clean_linker_0, # of connection points: 2
#     Edge 15, Type (0, 1), BuildingBlock: UVAHIK_clean_linker_0, # of connection points: 2
#     Edge 16, Type (0, 1), BuildingBlock: UVAHIK_clean_linker_0, # of connection points: 2
#     Edge 17, Type (0, 1), BuildingBlock: UVAHIK_clean_linker_0, # of connection points: 2
#     Edge 18, Type (0, 1), BuildingBlock: UVAHIK_clean_linker_0, # of connection points: 2
#     Edge 19, Type (0, 1), BuildingBlock: UVAHIK_clean_linker_0, # of connection points: 2
#     Edge 20, Type (0, 1), BuildingBlock: UVAHIK_clean_linker_0, # of connection points: 2
#     Edge 21, Type (0, 1), BuildingBlock: UVAHIK_clean_linker_0, # of connection points: 2
#     Edge 22, Type (0, 1), BuildingBlock: UVAHIK_clean_linker_0, # of connection points: 2
#     Edge 23, Type (0, 1), BuildingBlock: UVAHIK_clean_linker_0, # of connection points: 2
#     Edge 24, Type (0, 1), BuildingBlock: UVAHIK_clean_linker_0, # of connection points: 2
#     Edge 25, Type (0, 1), BuildingBlock: UVAHIK_clean_linker_0, # of connection points: 2
#     Edge 26, Type (0, 1), BuildingBlock: UVAHIK_clean_linker_0, # of connection points: 2
#     Edge 27, Type (0, 1), BuildingBlock: UVAHIK_clean_linker_0, # of connection points: 2
#     Edge 28, Type (0, 1), BuildingBlock: UVAHIK_clean_linker_0, # of connection points: 2
#     Edge 29, Type (0, 1), BuildingBlock: UVAHIK_clean_linker_0, # of connection points: 2
#     Edge 30, Type (0, 1), BuildingBlock: UVAHIK_clean_linker_0, # of connection points: 2
#     Edge 31, Type (0, 1), BuildingBlock: UVAHIK_clean_linker_0, # of connection points: 2
#     Edge 32, Type (0, 1), BuildingBlock: UVAHIK_clean_linker_0, # of connection points: 2
#     Edge 33, Type (0, 1), BuildingBlock: UVAHIK_clean_linker_0, # of connection points: 2
#     Edge 34, Type (0, 1), BuildingBlock: UVAHIK_clean_linker_0, # of connection points: 2
#     Edge 35, Type (0, 1), BuildingBlock: UVAHIK_clean_linker_0, # of connection points: 2
# Relax obj value: 0.251
# Max RMSD: 0.179
# Mean RMSD: 0.158
data_MOF--net-zzz--node1-BETFEN_clean_sbu_0--node2-CUQRIR_clean_linker_1--edge1-UVAHIK_clean_linker_0
_symmetry_space_group_name_H-M    P1
_symmetry_Int_Tables_number       1
_symmetry_cell_setting            triclinic
loop_
_symmetry_equiv_pos_as_xyz
'x, y, z'
_cell_length_a     64.228291
_cell_length_b     64.225078
_cell_length_c     15.659633
_cell_angle_alpha  90.003607
_cell_angle_beta   89.800425
_cell_angle_gamma 89.960292
loop_
_atom_site_label
_atom_site_type_symbol
_atom_site_fract_x
_atom_site_fract_y
_atom_site_fract_z
_atom_type_partial_charge
C0 C 0.74514 0.50649 0.34754 0.0
N1 N 0.76252 0.49613 0.37151 0.0
N2 N 0.73164 0.49347 0.30733 0.0
C3 C 0.74179 0.5294 0.36068 0.0
C4 C 0.74171 0.47485 0.30718 0.0
N5 N 0.76032 0.47648 0.34672 0.0
C6 C 0.73396 0.45553 0.26317 0.0
H7 H 0.74926 0.53457 0.42084 0.0
H8 H 0.72493 0.53318 0.36251 0.0
H9 H 0.74914 0.53801 0.30709 0.0
H10 H 0.72766 0.45954 0.19934 0.0
H11 H 0.72114 0.44867 0.30149 0.0
H12 H 0.74632 0.44361 0.25615 0.0
C13 C 0.02684 0.74426 0.34156 0.0
N14 N 0.0367 0.7621 0.36382 0.0
N15 N 0.03942 0.73214 0.29211 0.0
C16 C 1.00498 0.73889 0.36716 0.0
C17 C 0.05708 0.74359 0.28395 0.0
N18 N 0.05547 0.76161 0.32811 0.0
C19 C 0.07528 0.7378 0.22796 0.0
H20 H 1.00104 0.74605 0.42969 0.0
H21 H 1.00289 0.72176 0.37064 0.0
H22 H 0.99411 0.74519 0.31865 0.0
H23 H 0.06976 0.73049 0.16795 0.0
H24 H 0.0851 0.7263 0.26206 0.0
H25 H 0.08512 0.75147 0.21237 0.0
C26 C 0.78674 0.02718 0.36254 0.0
N27 N 0.76808 0.03636 0.37766 0.0
N28 N 0.79769 0.03803 0.30271 0.0
C29 C 0.79411 1.00765 0.40537 0.0
C30 C 0.78468 0.05382 0.28101 0.0
N31 N 0.7669 0.05292 0.32716 0.0
C32 C 0.78856 0.06893 0.20924 0.0
H33 H 0.78737 1.00638 0.47053 0.0
H34 H 0.81136 1.0073 0.40877 0.0
H35 H 0.78881 0.99403 0.36766 0.0
H36 H 0.79636 0.06096 0.15496 0.0
H37 H 0.79903 0.08145 0.2322 0.0
H38 H 0.77391 0.07622 0.18676 0.0
C39 C 0.50908 0.78572 0.33205 0.0
N40 N 0.49837 0.76881 0.35965 0.0
N41 N 0.49628 0.79905 0.29005 0.0
C42 C 0.53228 0.78797 0.3368 0.0
C43 C 0.47751 0.78948 0.29241 0.0
N44 N 0.47874 0.77118 0.33485 0.0
C45 C 0.45822 0.79762 0.24987 0.0
H46 H 0.53852 0.77955 0.39307 0.0
H47 H 0.53674 0.80464 0.34004 0.0
H48 H 0.53932 0.78116 0.27829 0.0
H49 H 0.45827 0.79273 0.18193 0.0
H50 H 0.45794 0.8149 0.25186 0.0
H51 H 0.44402 0.79135 0.28114 0.0
C52 C 0.28772 0.5267 0.09267 0.0
N53 N 0.26989 0.5367 0.07144 0.0
N54 N 0.3002 0.53929 0.13997 0.0
C55 C 0.29271 0.50467 0.06821 0.0
C56 C 0.28899 0.55712 0.14797 0.0
N57 N 0.27075 0.55559 0.10568 0.0
C58 C 0.2952 0.57539 0.20243 0.0
H59 H 0.3098 0.50233 0.06356 0.0
H60 H 0.28528 0.50064 0.00651 0.0
H61 H 0.28645 0.49406 0.11793 0.0
H62 H 0.30676 0.58491 0.16702 0.0
H63 H 0.3026 0.56992 0.26233 0.0
H64 H 0.28173 0.58549 0.21821 0.0
C65 C 1.0059 0.28581 0.09407 0.0
N66 N 0.99638 0.26751 0.0759 0.0
N67 N 0.99476 0.29671 0.15314 0.0
C68 C 0.02603 0.29287 0.05488 0.0
C69 C 0.97841 0.28406 0.17122 0.0
N70 N 0.9793 0.26653 0.1237 0.0
C71 C 0.96266 0.288 0.24075 0.0
H72 H 0.02681 0.31012 0.05273 0.0
H73 H 0.02783 0.28641 0.98953 0.0
H74 H 0.03911 0.28706 0.09441 0.0
H75 H 0.95066 0.29891 0.21652 0.0
H76 H 0.97023 0.29533 0.2968 0.0
H77 H 0.95478 0.27345 0.26101 0.0
C78 C 0.24261 1.00375 0.08887 0.0
N79 N 0.26058 0.99401 0.06706 0.0
N80 N 0.23062 0.99124 0.13908 0.0
C81 C 0.23698 0.02546 0.06223 0.0
C82 C 0.2423 0.97375 0.14816 0.0
N83 N 0.26032 0.97539 0.10384 0.0
C84 C 0.23672 0.95571 0.20519 0.0
H85 H 0.21983 0.02735 0.0589 0.0
H86 H 0.24409 0.02921 0.99939 0.0
H87 H 0.24316 0.03658 0.11007 0.0
H88 H 0.22523 0.94572 0.17198 0.0
H89 H 0.22945 0.96142 0.26518 0.0
H90 H 0.25047 0.94601 0.22074 0.0
C91 C 0.52536 0.24353 0.07516 0.0
N92 N 0.535 0.26187 0.05862 0.0
N93 N 0.53662 0.23204 0.13163 0.0
C94 C 0.505 0.23702 0.03698 0.0
C95 C 0.55316 0.24438 0.14992 0.0
N96 N 0.55227 0.2623 0.1049 0.0
C97 C 0.56904 0.23981 0.21788 0.0
H98 H 0.50394 0.2198 0.03308 0.0
H99 H 0.5031 0.2439 0.97248 0.0
H100 H 0.49214 0.24279 0.07813 0.0
H101 H 0.58082 0.22889 0.19169 0.0
H102 H 0.56151 0.23226 0.27375 0.0
H103 H 0.57718 0.25412 0.23904 0.0
Pr104 Pr 0.02229 1.00918 0.82436 0.0
Pr105 Pr 1.00727 0.02117 0.62316 0.0
C106 C 0.02329 1.00168 0.99301 0.0
C107 C 0.03539 0.98916 0.05314 0.0
C108 C 0.05205 0.97697 0.02398 0.0
C109 C 0.06249 0.96377 0.08021 0.0
C110 C 0.05639 0.96252 0.1665 0.0
C111 C 0.0402 0.97545 0.19602 0.0
C112 C 0.02977 0.98868 0.13961 0.0
C113 C 0.05591 1.01076 0.70732 0.0
C114 C 0.01638 0.9714 0.68182 0.0
C115 C 1.00431 0.02833 0.45488 0.0
C116 C 0.9904 0.0401 0.39863 0.0
C117 C 0.98829 0.03443 0.31266 0.0
C118 C 0.97589 0.04636 0.25794 0.0
C119 C 0.96553 0.06422 0.28852 0.0
C120 C 0.96705 0.06917 0.37596 0.0
C121 C 0.97926 0.05717 0.43045 0.0
C122 C 0.97362 0.01907 0.74039 0.0
C123 C 1.01476 0.05923 0.76335 0.0
O124 O 1.01144 0.99121 0.94004 0.0
O125 O 0.03317 0.01727 0.9571 0.0
O126 O 0.03705 1.01488 0.69547 0.0
O127 O 0.05829 1.00558 0.78716 0.0
O128 O 0.01645 0.98565 0.62039 0.0
O129 O 0.01552 0.97621 0.76432 0.0
O130 O 0.0162 0.03942 0.50567 0.0
O131 O 0.99607 1.01197 0.49188 0.0
O132 O 0.9926 0.01579 0.75261 0.0
O133 O 0.97111 0.02364 0.66015 0.0
O134 O 1.01481 0.04519 0.82571 0.0
O135 O 1.01478 0.05414 0.68107 0.0
H136 H 0.05654 0.9772 0.95721 0.0
H137 H 0.07463 0.95377 0.05502 0.0
H138 H 0.03525 0.97494 0.26219 0.0
H139 H 0.01698 0.99813 0.163 0.0
H140 H 0.99658 0.02106 0.28749 0.0
H141 H 0.97488 0.04193 0.19137 0.0
H142 H 0.95972 0.08299 0.40193 0.0
H143 H 0.98051 0.06162 0.49701 0.0
Pr144 Pr 0.51973 0.02326 0.81254 0.0
Pr145 Pr 0.50863 1.00845 0.61022 0.0
C146 C 0.5268 0.02594 0.98086 0.0
C147 C 0.53896 0.03953 0.03694 0.0
C148 C 0.53351 0.0417 0.12323 0.0
C149 C 0.54578 0.05384 0.17762 0.0
C150 C 0.56375 0.06387 0.14636 0.0
C151 C 0.56852 0.06227 0.05869 0.0
C152 C 0.55618 0.05033 0.00454 0.0
C153 C 0.51784 0.057 0.69633 0.0
C154 C 0.55831 0.01642 0.67323 0.0
C155 C 0.50093 1.00795 0.44174 0.0
C156 C 0.48853 0.99584 0.38127 0.0
C157 C 0.488 1.00159 0.29504 0.0
C158 C 0.47475 0.99125 0.2385 0.0
C159 C 0.46184 0.97503 0.26767 0.0
C160 C 0.46317 0.96877 0.35365 0.0
C161 C 0.4764 0.97911 0.40998 0.0
C162 C 0.51099 0.9745 0.72459 0.0
C163 C 0.47026 1.01372 0.75219 0.0
O164 O 0.53757 1.01371 0.92988 0.0
O165 O 0.51069 0.03466 0.94403 0.0
O166 O 0.51467 0.03803 0.68356 0.0
O167 O 0.52216 0.05948 0.77679 0.0
O168 O 0.5445 0.0165 0.6102 0.0
O169 O 0.5529 0.01609 0.75524 0.0
O170 O 0.4903 0.01938 0.49605 0.0
O171 O 0.51678 0.99824 0.47628 0.0
O172 O 0.51366 0.99351 0.73922 0.0
O173 O 0.50684 0.97219 0.64376 0.0
O174 O 0.48427 1.01404 0.81429 0.0
O175 O 0.47535 1.01436 0.66986 0.0
H176 H 0.52004 0.03367 0.14885 0.0
H177 H 0.5415 0.05492 0.24442 0.0
H178 H 0.5824 0.06936 0.03222 0.0
H179 H 0.56047 0.04902 0.93774 0.0
H180 H 0.49739 1.01444 0.27199 0.0
H181 H 0.47419 0.99631 0.17256 0.0
H182 H 0.45321 0.9566 0.37861 0.0
H183 H 0.47667 0.97452 0.47657 0.0
Pr184 Pr 0.50823 0.52235 0.81843 0.0
Pr185 Pr 0.52391 0.5086 0.62036 0.0
C186 C 0.5055 0.53243 0.98441 0.0
C187 C 0.49201 0.54599 0.0358 0.0
C188 C 0.47287 0.55283 0.00332 0.0
C189 C 0.46093 0.56728 0.04867 0.0
C190 C 0.46803 0.57528 0.12696 0.0
C191 C 0.48684 0.56771 0.16086 0.0
C192 C 0.49875 0.55319 0.11546 0.0
C193 C 0.47499 0.52063 0.70065 0.0
C194 C 0.51684 0.55915 0.67265 0.0
C195 C 0.52706 0.5004 0.45284 0.0
C196 C 0.54084 0.48828 0.39693 0.0
C197 C 0.54353 0.49411 0.31136 0.0
C198 C 0.55592 0.48205 0.25683 0.0
C199 C 0.56571 0.46389 0.28721 0.0
C200 C 0.56359 0.45871 0.37426 0.0
C201 C 0.55138 0.47084 0.4286 0.0
C202 C 0.55715 0.51018 0.73813 0.0
C203 C 0.51488 0.47178 0.76449 0.0
O204 O 0.51805 0.54201 0.93099 0.0
O205 O 0.49659 0.51587 0.9518 0.0
O206 O 0.49386 0.51648 0.68893 0.0
O207 O 0.47244 0.52596 0.78016 0.0
O208 O 0.51732 0.54453 0.61286 0.0
O209 O 0.5159 0.5548 0.75552 0.0
O210 O 0.51501 0.4897 0.50474 0.0
O211 O 0.53546 0.51684 0.48828 0.0
O212 O 0.53829 0.51439 0.74992 0.0
O213 O 0.55964 0.50473 0.65872 0.0
O214 O 0.51508 0.48621 0.82544 0.0
O215 O 0.51508 0.47639 0.68178 0.0
H216 H 0.46742 0.54742 0.9418 0.0
H217 H 0.44641 0.57262 0.02133 0.0
H218 H 0.49288 0.57376 0.22039 0.0
H219 H 0.51354 0.54808 0.14124 0.0
H220 H 0.53572 0.50776 0.28634 0.0
H221 H 0.5574 0.48663 0.19054 0.0
H222 H 0.5705 0.44466 0.39991 0.0
H223 H 0.54969 0.46626 0.49488 0.0
Pr224 Pr 1.00917 0.50772 0.82438 0.0
Pr225 Pr 0.02311 0.52106 0.62247 0.0
C226 C 0.99972 0.5083 0.99166 0.0
C227 C 0.98668 0.49704 0.05305 0.0
C228 C 0.98557 0.50385 0.13792 0.0
C229 C 0.9719 0.49428 0.19537 0.0
C230 C 0.95916 0.47772 0.1686 0.0
C231 C 0.96097 0.47046 0.08408 0.0
C232 C 0.9746 0.48007 0.02671 0.0
C233 C 1.01211 0.47319 0.71268 0.0
C234 C 0.97252 0.51363 0.67623 0.0
C235 C 0.032 0.52104 0.45478 0.0
C236 C 0.04459 0.5332 0.3948 0.0
C237 C 0.04498 0.52784 0.30811 0.0
C238 C 0.05809 0.53849 0.25162 0.0
C239 C 0.07095 0.55466 0.28127 0.0
C240 C 0.06981 0.56047 0.36783 0.0
C241 C 0.05673 0.54981 0.42414 0.0
C242 C 0.02097 0.55555 0.73465 0.0
C243 C 0.05962 0.51485 0.76984 0.0
O244 O 0.98975 0.51946 0.93467 0.0
O245 O 0.01569 0.49806 0.9603 0.0
O246 O 0.0156 0.49205 0.69805 0.0
O247 O 1.00688 0.47128 0.79279 0.0
O248 O 0.98719 0.51393 0.6163 0.0
O249 O 0.97674 0.51371 0.75927 0.0
O250 O 0.04239 0.50992 0.51068 0.0
O251 O 0.01577 0.53063 0.48728 0.0
O252 O 0.01658 0.53682 0.74852 0.0
O253 O 0.02682 0.55727 0.65522 0.0
O254 O 0.04502 0.51561 0.8301 0.0
O255 O 0.0553 0.51374 0.68704 0.0
H256 H 0.99491 0.51689 0.1592 0.0
H257 H 0.97096 0.5001 0.26019 0.0
H258 H 0.95115 0.45797 0.06107 0.0
H259 H 0.9753 0.47467 0.96119 0.0
H260 H 0.03552 0.51513 0.28453 0.0
H261 H 0.05852 0.53377 0.18523 0.0
H262 H 0.07975 0.5726 0.39306 0.0
H263 H 0.05653 0.55413 0.49104 0.0
C264 C 0.19441 0.98143 0.17395 0.0
C265 C 0.21093 0.99565 0.18033 0.0
C266 C 0.17628 0.98402 0.2227 0.0
C267 C 0.14522 0.02167 0.34911 0.0
H268 H 0.12722 0.97261 0.47353 0.0
C269 C 0.06958 0.01794 0.55904 0.0
C270 C 0.07246 1.0096 0.64115 0.0
C271 C 0.08558 0.01685 0.49773 0.0
C272 C 0.13201 0.98644 0.43912 0.0
H273 H 0.22115 0.02416 0.24039 0.0
H274 H 0.18918 0.02908 0.32453 0.0
H275 H 0.15648 0.97015 0.37409 0.0
H276 H 0.09424 0.99344 0.72315 0.0
H277 H 0.12187 0.99114 0.61609 0.0
H278 H 0.12069 0.03793 0.41493 0.0
C279 C 0.19027 0.01586 0.28178 0.0
C280 C 0.14869 0.98501 0.38163 0.0
C281 C 0.20854 1.01312 0.23349 0.0
C282 C 0.09154 1.00002 0.66045 0.0
C283 C 0.10735 0.99861 0.59899 0.0
C284 C 0.12828 0.02303 0.4058 0.0
C285 C 0.17412 1.00106 0.27849 0.0
C286 C 0.15567 1.00263 0.33649 0.0
C287 C 0.10461 1.00705 0.51694 0.0
C288 C 0.12167 1.00548 0.45232 0.0
H289 H 0.19576 0.96802 0.13247 0.0
H290 H 0.16403 0.97252 0.21756 0.0
H291 H 0.15013 0.0355 0.31499 0.0
H292 H 0.05505 0.02543 0.54247 0.0
H293 H 0.08297 0.0234 0.43493 0.0
C294 C 0.51274 0.20964 0.21549 0.0
C295 C 0.53158 0.21235 0.17127 0.0
C296 C 0.50916 0.19155 0.26359 0.0
C297 C 0.52959 0.13771 0.30595 0.0
H298 H 0.50295 0.1459 0.5258 0.0
C299 C 0.5151 0.06941 0.54412 0.0
C300 C 0.51798 0.07377 0.6312 0.0
C301 C 0.5154 0.0855 0.4834 0.0
C302 C 0.51056 0.1433 0.46491 0.0
H303 H 0.56103 0.19802 0.13937 0.0
H304 H 0.55518 0.16672 0.22453 0.0
H305 H 0.50584 0.17493 0.42715 0.0
H306 H 0.52378 0.09833 0.72281 0.0
H307 H 0.52464 0.12624 0.6177 0.0
H308 H 0.5351 0.10624 0.34563 0.0
C309 C 0.54294 0.17829 0.22165 0.0
C310 C 0.51193 0.15995 0.40747 0.0
C311 C 0.54642 0.1963 0.17335 0.0
C312 C 0.52133 0.09448 0.65624 0.0
C313 C 0.52167 0.11053 0.59582 0.0
C314 C 0.5283 0.12104 0.36367 0.0
C315 C 0.52442 0.17579 0.26897 0.0
C316 C 0.52166 0.1575 0.32741 0.0
C317 C 0.51862 0.10633 0.50848 0.0
C318 C 0.519 0.12367 0.44451 0.0
H319 H 0.50114 0.22187 0.21558 0.0
H320 H 0.49455 0.19011 0.29779 0.0
H321 H 0.53696 0.13507 0.2446 0.0
H322 H 0.5127 0.05357 0.52288 0.0
H323 H 0.51287 0.08162 0.41695 0.0
C324 C 0.32206 0.51754 0.23499 0.0
C325 C 0.31992 0.53468 0.17995 0.0
C326 C 0.34041 0.51469 0.28203 0.0
C327 C 0.38268 0.54531 0.37559 0.0
H328 H 0.40991 0.49217 0.41272 0.0
C329 C 0.43934 0.5309 0.65412 0.0
C330 C 0.45846 0.52133 0.63488 0.0
C331 C 0.42357 0.53205 0.59297 0.0
C332 C 0.40254 0.50713 0.40244 0.0
H333 H 0.33558 0.56157 0.12739 0.0
H334 H 0.36747 0.55691 0.2104 0.0
H335 H 0.3804 0.49449 0.31383 0.0
H336 H 0.47599 0.50522 0.53678 0.0
H337 H 0.44808 0.50678 0.42975 0.0
H338 H 0.40439 0.55788 0.46547 0.0
C339 C 0.35497 0.54574 0.21787 0.0
C340 C 0.38556 0.50843 0.34638 0.0
C341 C 0.33675 0.54843 0.17036 0.0
C342 C 0.46142 0.51269 0.55325 0.0
C343 C 0.44544 0.51352 0.49226 0.0
C344 C 0.39937 0.54395 0.43246 0.0
C345 C 0.35688 0.52907 0.27555 0.0
C346 C 0.3754 0.52754 0.3325 0.0
C347 C 0.42639 0.52337 0.51136 0.0
C348 C 0.40942 0.52483 0.44701 0.0
H349 H 0.30921 0.50688 0.24434 0.0
H350 H 0.34133 0.50178 0.32634 0.0
H351 H 0.3751 0.56024 0.36701 0.0
H352 H 0.43659 0.53769 0.71647 0.0
H353 H 0.40903 0.53956 0.6099 0.0
C354 C 0.98465 0.3322 0.19742 0.0
C355 C 0.99961 0.31628 0.19412 0.0
C356 C 0.98805 0.35017 0.24609 0.0
C357 C 0.01876 0.36872 0.43127 0.0
H358 H 0.99654 0.42255 0.3662 0.0
C359 C 1.00881 0.43543 0.67577 0.0
C360 C 1.01255 0.45599 0.64934 0.0
C361 C 1.00877 0.41907 0.61667 0.0
C362 C 1.00306 0.40771 0.38517 0.0
H363 H 0.0301 0.30684 0.23718 0.0
H364 H 0.03646 0.33846 0.32083 0.0
H365 H 0.99457 0.39343 0.26661 0.0
H366 H 0.01906 0.47554 0.53995 0.0
H367 H 0.0193 0.44696 0.43644 0.0
H368 H 0.02745 0.38301 0.54939 0.0
C369 C 0.02188 0.33699 0.28685 0.0
C370 C 1.00172 0.39089 0.32827 0.0
C371 C 0.01842 0.31899 0.23806 0.0
C372 C 0.01627 0.45984 0.56229 0.0
C373 C 0.01622 0.44345 0.50292 0.0
C374 C 0.02013 0.38552 0.48808 0.0
C375 C 1.00657 0.3527 0.29285 0.0
C376 C 1.00933 0.37106 0.35083 0.0
C377 C 1.01247 0.4228 0.52929 0.0
C378 C 1.01206 0.40521 0.4664 0.0
H379 H 0.97005 0.33046 0.16383 0.0
H380 H 0.97578 0.3617 0.24955 0.0
H381 H 0.02462 0.35371 0.45163 0.0
H382 H 1.00576 0.43197 0.74236 0.0
H383 H 1.00543 0.4035 0.63946 0.0
C384 C 0.82095 1.01397 0.22357 0.0
C385 C 0.81755 0.03322 0.26369 0.0
C386 C 0.83918 1.01044 0.17607 0.0
C387 C 0.89242 0.03185 0.12963 0.0
H388 H 0.88515 1.00308 0.91428 0.0
C389 C 0.96124 0.01666 0.89311 0.0
C390 C 0.95685 0.01912 0.80583 0.0
C391 C 0.94513 0.01704 0.95404 0.0
C392 C 0.88749 1.01126 0.97395 0.0
H393 H 0.8308 0.0635 0.28886 0.0
H394 H 0.86241 0.05764 0.20499 0.0
H395 H 0.85595 1.00611 0.01254 0.0
H396 H 0.93221 0.02416 0.71408 0.0
H397 H 0.90427 0.02504 0.81946 0.0
H398 H 0.92382 0.03768 0.08911 0.0
C399 C 0.85124 0.04509 0.21058 0.0
C400 C 0.87075 1.01273 0.03114 0.0
C401 C 0.83306 0.04856 0.25814 0.0
C402 C 0.93609 0.02206 0.7808 0.0
C403 C 0.92003 0.02241 0.84137 0.0
C404 C 0.9092 0.0304 0.07223 0.0
C405 C 0.85442 0.02612 0.16734 0.0
C406 C 0.87285 0.02326 0.10948 0.0
C407 C 0.92426 0.01985 0.92891 0.0
C408 C 0.90688 0.02033 0.99296 0.0
H409 H 0.80914 1.00198 0.22623 0.0
H410 H 0.84116 0.99551 0.14496 0.0
H411 H 0.89478 0.03986 0.18967 0.0
H412 H 0.97712 1.01457 0.91434 0.0
H413 H 0.94902 1.01491 0.0207 0.0
C414 C 0.5006 0.81538 0.14896 0.0
C415 C 0.50182 0.81674 0.23814 0.0
C416 C 0.50391 0.83297 0.098 0.0
C417 C 0.50171 0.89045 0.10369 0.0
H418 H 0.53057 0.88569 0.88675 0.0
C419 C 0.51436 0.96128 0.87553 0.0
C420 C 0.51163 0.95736 0.78799 0.0
C421 C 0.51469 0.94479 0.93447 0.0
C422 C 0.5223 0.88729 0.94676 0.0
H423 H 0.50758 0.83726 0.3446 0.0
H424 H 0.51355 0.8683 0.25557 0.0
H425 H 0.52889 0.85577 0.982 0.0
H426 H 0.50693 0.93317 0.69365 0.0
H427 H 0.50733 0.90457 0.7956 0.0
H428 H 0.49483 0.92193 0.06758 0.0
C429 C 0.50995 0.85364 0.22481 0.0
C430 C 0.52137 0.8701 0.00154 0.0
C431 C 0.50675 0.83593 0.27577 0.0
C432 C 0.5092 0.93669 0.76063 0.0
C433 C 0.50957 0.92026 0.8192 0.0
C434 C 0.50261 0.90769 0.04867 0.0
C435 C 0.50841 0.85242 0.13517 0.0
C436 C 0.51079 0.87132 0.0802 0.0
C437 C 0.51238 0.92402 0.90696 0.0
C438 C 0.51264 0.90624 0.96877 0.0
H439 H 0.49665 0.80072 0.11898 0.0
H440 H 0.50231 0.83144 0.02947 0.0
H441 H 0.49326 0.89193 0.16335 0.0
H442 H 0.51614 0.97707 0.89849 0.0
H443 H 0.51699 0.94829 0.00141 0.0
C444 C 0.7122 0.51431 0.20113 0.0
C445 C 0.71258 0.49849 0.26294 0.0
C446 C 0.69439 0.51768 0.15162 0.0
C447 C 0.63779 0.50335 0.13089 0.0
H448 H 0.64774 0.51783 0.8941 0.0
C449 C 0.57028 0.51648 0.88763 0.0
C450 C 0.57381 0.50978 0.8034 0.0
C451 C 0.5865 0.51623 0.94767 0.0
C452 C 0.6446 0.51358 0.9598 0.0
H453 H 0.69437 0.47441 0.32393 0.0
H454 H 0.66359 0.4795 0.23537 0.0
H455 H 0.67684 0.51531 0.9913 0.0
H456 H 0.59686 0.49706 0.71662 0.0
H457 H 0.62477 0.49606 0.82069 0.0
H458 H 0.60555 0.50059 0.0976 0.0
C459 C 0.67681 0.48969 0.22575 0.0
C460 C 0.66137 0.5125 0.01633 0.0
C461 C 0.69456 0.48654 0.27597 0.0
C462 C 0.5937 0.50253 0.78081 0.0
C463 C 0.60979 0.50212 0.84059 0.0
C464 C 0.62098 0.50424 0.07392 0.0
C465 C 0.67656 0.50509 0.16167 0.0
C466 C 0.65831 0.50725 0.10274 0.0
C467 C 0.60656 0.50917 0.92473 0.0
C468 C 0.62418 0.50916 0.98723 0.0
H469 H 0.72595 0.52361 0.18913 0.0
H470 H 0.69476 0.53001 0.10449 0.0
H471 H 0.63465 0.49955 0.19702 0.0
H472 H 0.55508 0.52207 0.90688 0.0
H473 H 0.58338 0.5219 0.01155 0.0
C474 C 0.01768 0.71025 0.19708 0.0
C475 C 0.03498 0.71248 0.251 0.0
C476 C 1.01494 0.69199 0.14905 0.0
C477 C 0.04574 0.65 0.0516 0.0
H478 H 0.99276 0.62225 0.01836 0.0
C479 C 0.03159 0.59146 0.77772 0.0
C480 C 0.02179 0.57257 0.79865 0.0
C481 C 0.03276 0.60765 0.83731 0.0
C482 C 1.00768 0.62978 0.02742 0.0
H483 H 0.0623 0.69704 0.30042 0.0
H484 H 0.05782 0.66533 0.21577 0.0
H485 H 0.99509 0.65195 0.11657 0.0
H486 H 1.00532 0.55597 0.89821 0.0
H487 H 1.00698 0.58451 0.00241 0.0
H488 H 0.05828 0.62817 0.96151 0.0
C489 C 0.04644 0.6777 0.20984 0.0
C490 C 1.00898 0.64687 0.08314 0.0
C491 C 0.04902 0.69582 0.25834 0.0
C492 C 1.01298 0.57031 0.8804 0.0
C493 C 1.01386 0.58669 0.9398 0.0
C494 C 0.04437 0.63318 0.99507 0.0
C495 C 0.02959 0.67569 0.15335 0.0
C496 C 0.02804 0.6572 0.09586 0.0
C497 C 0.0239 0.60551 0.91906 0.0
C498 C 0.02533 0.6229 0.98198 0.0
H499 H 1.00678 0.72297 0.18944 0.0
H500 H 1.00187 0.69101 0.10576 0.0
H501 H 0.06062 0.65769 0.05924 0.0
H502 H 0.03852 0.5937 0.71523 0.0
H503 H 0.04043 0.622 0.81902 0.0
C504 C 0.97692 0.23317 0.19655 0.0
C505 C 0.96834 0.24746 0.13927 0.0
C506 C 0.97072 0.21243 0.19473 0.0
C507 C 0.93257 0.17425 0.1268 0.0
H508 H 0.98161 0.13918 0.11061 0.0
C509 C 0.93897 0.09185 0.25657 0.0
C510 C 0.95573 0.07938 0.22907 0.0
C511 C 0.93456 0.1106 0.21535 0.0
C512 C 0.96762 0.14859 0.11291 0.0
H513 H 0.94575 0.25212 0.03929 0.0
H514 H 0.93446 0.21544 0.0365 0.0
H515 H 0.98545 0.17661 0.10922 0.0
H516 H 0.97828 0.07493 0.12691 0.0
H517 H 0.96978 0.10697 0.0529 0.0
H518 H 0.91481 0.14601 0.13454 0.0
C519 C 0.94595 0.22034 0.08282 0.0
C520 C 0.96991 0.1701 0.1135 0.0
C521 C 0.95224 0.24121 0.0847 0.0
C522 C 0.96552 0.08425 0.15112 0.0
C523 C 0.9608 0.1028 0.10896 0.0
C524 C 0.93025 0.15255 0.12724 0.0
C525 C 0.95584 0.20566 0.13534 0.0
C526 C 0.95253 0.1831 0.12343 0.0
C527 C 0.94657 0.117 0.14491 0.0
C528 C 0.94786 0.13948 0.12318 0.0
H529 H 0.98955 0.23781 0.23802 0.0
H530 H 0.97837 0.20142 0.23667 0.0
H531 H 0.91894 0.18404 0.13376 0.0
H532 H 0.93052 0.08809 0.3145 0.0
H533 H 0.92326 0.12097 0.24429 0.0
C534 C 0.28645 0.95214 0.03983 0.0
C535 C 0.27846 0.96248 0.11167 0.0
C536 C 0.30697 0.94486 0.03956 0.0
C537 C 0.35263 0.93438 0.17598 0.0
H538 H 0.38429 0.9626 0.99917 0.0
C539 C 0.43974 0.94522 0.21731 0.0
C540 C 0.4452 0.96639 0.21255 0.0
C541 C 0.42122 0.93814 0.1808 0.0
C542 C 0.37569 0.95434 0.04823 0.0
H543 H 0.28459 0.97207 0.24114 0.0
H544 H 0.3202 0.95866 0.24275 0.0
H545 H 0.34641 0.96081 0.9889 0.0
H546 H 0.43644 0.99632 0.15931 0.0
H547 H 0.40427 0.98408 0.09665 0.0
H548 H 0.3816 0.92929 0.23887 0.0
C549 C 0.3108 0.95619 0.18634 0.0
C550 C 0.35403 0.95315 0.04196 0.0
C551 C 0.29047 0.96379 0.18584 0.0
C552 C 0.43279 0.97989 0.16378 0.0
C553 C 0.4143 0.97283 0.12748 0.0
C554 C 0.37426 0.93549 0.18212 0.0
C555 C 0.31953 0.94745 0.11204 0.0
C556 C 0.34227 0.94395 0.10774 0.0
C557 C 0.40783 0.95211 0.13893 0.0
C558 C 0.38595 0.94631 0.12029 0.0
H559 H 0.27729 0.95107 0.98211 0.0
H560 H 0.31332 0.93813 0.98164 0.0
H561 H 0.3439 0.92712 0.22724 0.0
H562 H 0.44924 0.93435 0.25297 0.0
H563 H 0.41683 0.92199 0.18933 0.0
C564 C 0.57934 0.2878 0.06752 0.0
C565 C 0.56341 0.28113 0.1225 0.0
C566 C 0.58575 0.30863 0.06837 0.0
C567 C 0.56187 0.35843 0.10705 0.0
H568 H 0.61687 0.38269 0.12785 0.0
C569 C 0.56604 0.44417 0.14917 0.0
C570 C 0.57558 0.44876 0.22765 0.0
C571 C 0.57086 0.42575 0.10611 0.0
C572 C 0.60146 0.3761 0.12056 0.0
H573 H 0.54266 0.28993 0.22481 0.0
H574 H 0.55404 0.32625 0.22814 0.0
H575 H 0.61294 0.34463 0.12345 0.0
H576 H 0.60036 0.43965 0.31374 0.0
H577 H 0.60788 0.40703 0.24155 0.0
H578 H 0.55003 0.38931 0.10742 0.0
C579 C 0.56147 0.3156 0.18386 0.0
C580 C 0.59925 0.35439 0.11812 0.0
C581 C 0.55516 0.2949 0.18294 0.0
C582 C 0.59215 0.43613 0.2552 0.0
C583 C 0.59671 0.41753 0.21291 0.0
C584 C 0.56406 0.37994 0.10826 0.0
C585 C 0.57614 0.32284 0.1241 0.0
C586 C 0.57933 0.34547 0.11475 0.0
C587 C 0.58497 0.41145 0.14159 0.0
C588 C 0.58379 0.38908 0.11831 0.0
H589 H 0.58559 0.27729 0.01978 0.0
H590 H 0.59706 0.31392 0.0217 0.0
H591 H 0.54636 0.35186 0.10297 0.0
H592 H 0.55339 0.45362 0.1251 0.0
H593 H 0.56205 0.42176 0.0496 0.0
C594 C 0.24499 0.57927 0.04262 0.0
C595 C 0.25293 0.56891 0.11426 0.0
C596 C 0.2246 0.58689 0.04337 0.0
C597 C 0.17907 0.59767 0.182 0.0
H598 H 0.14735 0.56904 0.00741 0.0
C599 C 0.09239 0.58502 0.23114 0.0
C600 C 0.08729 0.56378 0.22555 0.0
C601 C 0.11061 0.59258 0.19322 0.0
C602 C 0.15595 0.57742 0.05587 0.0
H603 H 0.24692 0.55971 0.24446 0.0
H604 H 0.21154 0.57366 0.24777 0.0
H605 H 0.18515 0.57118 0.99476 0.0
H606 H 0.09638 0.53421 0.16976 0.0
H607 H 0.12809 0.54724 0.10504 0.0
H608 H 0.15021 0.6024 0.24693 0.0
C609 C 0.22087 0.5759 0.19074 0.0
C610 C 0.17758 0.57882 0.04819 0.0
C611 C 0.24107 0.56799 0.18926 0.0
C612 C 0.09976 0.55068 0.1749 0.0
C613 C 0.11797 0.5582 0.13735 0.0
C614 C 0.15747 0.5963 0.18963 0.0
C615 C 0.21213 0.5846 0.11663 0.0
C616 C 0.18939 0.58813 0.11323 0.0
C617 C 0.12408 0.57902 0.14926 0.0
C618 C 0.14578 0.58528 0.12873 0.0
H619 H 0.25405 0.58005 0.9843 0.0
H620 H 0.21824 0.59358 0.98558 0.0
H621 H 0.18784 0.60502 0.2327 0.0
H622 H 0.08283 0.59558 0.26835 0.0
H623 H 0.11471 0.60879 0.2022 0.0
C624 C 0.07891 0.78726 0.39323 0.0
C625 C 0.06865 0.77956 0.32097 0.0
C626 C 0.08646 0.80767 0.39405 0.0
C627 C 0.09759 0.85354 0.2587 0.0
H628 H 0.06917 0.885 0.43565 0.0
C629 C 0.05177 0.93352 0.2712 0.0
C630 C 0.06517 0.94595 0.22175 0.0
C631 C 0.05895 0.91508 0.30771 0.0
C632 C 0.07749 0.87646 0.38655 0.0
H633 H 0.05948 0.78606 0.19132 0.0
H634 H 0.07334 0.82147 0.19072 0.0
H635 H 0.07086 0.84712 0.44539 0.0
H636 H 0.09714 0.95009 0.18031 0.0
H637 H 0.10974 0.91779 0.2445 0.0
H638 H 0.10278 0.88258 0.19612 0.0
C639 C 0.07555 0.81194 0.24703 0.0
C640 C 0.07863 0.85479 0.39255 0.0
C641 C 0.0677 0.79171 0.24696 0.0
C642 C 0.08636 0.94057 0.21653 0.0
C643 C 0.09357 0.92211 0.25335 0.0
C644 C 0.09651 0.87518 0.25279 0.0
C645 C 0.08421 0.8204 0.32173 0.0
C646 C 0.08788 0.8431 0.32666 0.0
C647 C 0.0797 0.90868 0.29585 0.0
C648 C 0.0856 0.8868 0.3146 0.0
H649 H 0.0797 0.77798 0.45082 0.0
H650 H 0.09311 0.81382 0.45228 0.0
H651 H 0.10491 0.84486 0.20738 0.0
H652 H 0.03533 0.93712 0.27604 0.0
H653 H 0.04777 0.90502 0.339 0.0
C654 C 0.73394 0.05374 0.2512 0.0
C655 C 0.74764 0.06321 0.30847 0.0
C656 C 0.71303 0.05941 0.25032 0.0
C657 C 0.67366 0.09745 0.31108 0.0
H658 H 0.63922 0.04799 0.32563 0.0
C659 C 0.59165 0.09016 0.17744 0.0
C660 C 0.57912 0.07351 0.20519 0.0
C661 C 0.61038 0.09459 0.21861 0.0
C662 C 0.64844 0.06209 0.32366 0.0
H663 H 0.75106 0.08678 0.40567 0.0
H664 H 0.71411 0.09714 0.40366 0.0
H665 H 0.67669 0.04466 0.33081 0.0
H666 H 0.57464 0.05101 0.30725 0.0
H667 H 0.60664 0.05954 0.38114 0.0
H668 H 0.64522 0.11481 0.30044 0.0
C669 C 0.71958 0.08537 0.35943 0.0
C670 C 0.66999 0.06009 0.32519 0.0
C671 C 0.74061 0.0796 0.36025 0.0
C672 C 0.58399 0.06372 0.28296 0.0
C673 C 0.60252 0.06845 0.32501 0.0
C674 C 0.65194 0.09947 0.30862 0.0
C675 C 0.7055 0.07464 0.30698 0.0
C676 C 0.68279 0.07763 0.31598 0.0
C677 C 0.6167 0.08269 0.28923 0.0
C678 C 0.63911 0.08171 0.31211 0.0
H679 H 0.73918 0.04087 0.21189 0.0
H680 H 0.70252 0.05114 0.20835 0.0
H681 H 0.68328 0.11121 0.30467 0.0
H682 H 0.58792 0.09859 0.11957 0.0
H683 H 0.62075 0.10588 0.18971 0.0
C684 C 0.45818 0.74466 0.41089 0.0
C685 C 0.46367 0.75463 0.33439 0.0
C686 C 0.4483 0.72528 0.40927 0.0
C687 C 0.42426 0.68582 0.26548 0.0
H688 H 0.46103 0.64754 0.38284 0.0
C689 C 0.4501 0.60972 0.11774 0.0
C690 C 0.45713 0.59306 0.16811 0.0
C691 C 0.44257 0.62786 0.15562 0.0
C692 C 0.45012 0.65781 0.35131 0.0
H693 H 0.46193 0.7532 0.19681 0.0
H694 H 0.44427 0.71968 0.19322 0.0
H695 H 0.46134 0.68416 0.42048 0.0
H696 H 0.46035 0.5818 0.2979 0.0
H697 H 0.44703 0.6136 0.36455 0.0
H698 H 0.41356 0.65956 0.19408 0.0
C699 C 0.44739 0.72672 0.25472 0.0
C700 C 0.45035 0.6789 0.37287 0.0
C701 C 0.45746 0.74594 0.2565 0.0
C702 C 0.45533 0.59451 0.25744 0.0
C703 C 0.44768 0.61271 0.29553 0.0
C704 C 0.42382 0.66467 0.24465 0.0
C705 C 0.44357 0.71574 0.33091 0.0
C706 C 0.43836 0.69327 0.3266 0.0
C707 C 0.4418 0.62985 0.24503 0.0
C708 C 0.43769 0.65064 0.28364 0.0
H709 H 0.46278 0.75126 0.47155 0.0
H710 H 0.44543 0.71724 0.46896 0.0
H711 H 0.41452 0.69651 0.23003 0.0
H712 H 0.45157 0.60928 0.04884 0.0
H713 H 0.43865 0.6408 0.1144 0.0
C714 C 0.78773 0.45749 0.27097 0.0
C715 C 0.77711 0.46169 0.34724 0.0
C716 C 0.80803 0.44979 0.2729 0.0
C717 C 0.8528 0.4559 0.41146 0.0
H718 H 0.88028 0.42771 0.22364 0.0
C719 C 0.92967 0.48334 0.27072 0.0
C720 C 0.94247 0.4695 0.22502 0.0
C721 C 0.91156 0.47626 0.31058 0.0
C722 C 0.87303 0.43522 0.27804 0.0
H723 H 0.7782 0.45942 0.48463 0.0
H724 H 0.81369 0.4455 0.48877 0.0
H725 H 0.84305 0.42333 0.24439 0.0
H726 H 0.9475 0.43706 0.19277 0.0
H727 H 0.9159 0.42459 0.26328 0.0
H728 H 0.88264 0.46832 0.44367 0.0
C729 C 0.80652 0.44836 0.42738 0.0
C730 C 0.85159 0.43287 0.28927 0.0
C731 C 0.78618 0.45606 0.42519 0.0
C732 C 0.93768 0.44815 0.22603 0.0
C733 C 0.91959 0.44103 0.26637 0.0
C734 C 0.87426 0.45816 0.40056 0.0
C735 C 0.81806 0.44621 0.35139 0.0
C736 C 0.84108 0.44401 0.35346 0.0
C737 C 0.90586 0.45514 0.30599 0.0
C738 C 0.88446 0.44867 0.33113 0.0
H739 H 0.78112 0.46222 0.21046 0.0
H740 H 0.81647 0.44859 0.21311 0.0
H741 H 0.84522 0.46474 0.46153 0.0
H742 H 0.93283 0.49991 0.27071 0.0
H743 H 0.90131 0.48767 0.33956 0.0
C744 C 0.02003 0.23775 0.04972 0.0
C745 C 1.00355 0.25052 0.02282 0.0
C746 C 0.02316 0.21807 0.01243 0.0
C747 C 0.99267 0.17644 0.91497 0.0
H748 H 0.04543 0.15232 0.84532 0.0
C749 C 1.00612 0.08768 0.86797 0.0
C750 C 1.01421 0.08166 0.78799 0.0
C751 C 1.0055 0.1087 0.89196 0.0
C752 C 0.0306 0.15889 0.86453 0.0
H753 H 0.97816 0.25333 0.93375 0.0
H754 H 0.98342 0.21901 0.86879 0.0
H755 H 0.044 0.18876 0.89351 0.0
H756 H 0.02828 0.09314 0.67116 0.0
H757 H 0.02774 0.12992 0.7145 0.0
H758 H 0.97938 0.14642 0.88953 0.0
C759 C 0.99395 0.22409 0.91848 0.0
C760 C 0.0298 0.17969 0.89241 0.0
C761 C 0.99107 0.2438 0.95482 0.0
C762 C 0.02187 0.09723 0.73299 0.0
C763 C 0.02167 0.11826 0.75792 0.0
C764 C 0.99357 0.15554 0.88953 0.0
C765 C 1.00965 0.21072 0.94844 0.0
C766 C 1.01079 0.18873 0.91764 0.0
C767 C 1.01334 0.12422 0.83747 0.0
C768 C 1.01251 0.14654 0.86361 0.0
H769 H 0.02952 0.24242 0.10341 0.0
H770 H 0.03532 0.2081 0.03727 0.0
H771 H 0.9778 0.18288 0.93438 0.0
H772 H 1.00001 0.07616 0.9119 0.0
H773 H 0.99913 0.11283 0.95377 0.0
C774 C 0.29321 1.01417 0.06888 0.0
C775 C 0.27854 1.00246 0.02351 0.0
C776 C 0.31317 0.01764 0.03495 0.0
C777 C 0.34587 1.01072 0.83556 0.0
H778 H 0.3909 1.01211 0.99906 0.0
C779 C 0.43212 0.02098 0.727 0.0
C780 C 0.44794 1.01233 0.77763 0.0
C781 C 0.41128 0.02068 0.75467 0.0
C782 C 0.37865 1.01138 0.95196 0.0
H783 H 0.27277 0.98578 0.90659 0.0
H784 H 0.30756 0.99109 0.84774 0.0
H785 H 0.35535 1.01009 0.04943 0.0
H786 H 0.45408 0.99574 0.89538 0.0
H787 H 0.41799 0.9941 0.9411 0.0
H788 H 0.36926 1.01051 0.73807 0.0
C789 C 0.30382 0.99825 0.90843 0.0
C790 C 0.35801 1.01073 0.98121 0.0
C791 C 0.28379 0.99516 0.94188 0.0
C792 C 0.44233 1.00282 0.85524 0.0
C793 C 0.42151 1.00208 0.88195 0.0
C794 C 0.36655 1.01091 0.80628 0.0
C795 C 0.31908 1.00908 0.95535 0.0
C796 C 0.3412 1.01044 0.92361 0.0
C797 C 0.4056 1.0113 0.83295 0.0
C798 C 0.38335 1.01122 0.86394 0.0
H799 H 0.28955 0.01965 0.13259 0.0
H800 H 0.32411 0.02654 0.07253 0.0
H801 H 0.33355 1.01082 0.78861 0.0
H802 H 0.43593 0.02855 0.66716 0.0
H803 H 0.39974 0.02826 0.71522 0.0
C804 C 0.53988 0.28691 0.94164 0.0
C805 C 0.52765 0.27943 0.0094 0.0
C806 C 0.53674 0.30693 0.90884 0.0
C807 C 0.50032 0.35112 0.89278 0.0
H808 H 0.55041 0.38488 0.88771 0.0
C809 C 0.50723 0.43387 0.7364 0.0
C810 C 0.51507 0.44947 0.79063 0.0
C811 C 0.50749 0.41287 0.76144 0.0
C812 C 0.53631 0.37563 0.88854 0.0
H813 H 0.50187 0.28653 0.09334 0.0
H814 H 0.49563 0.32142 0.03346 0.0
H815 H 0.55256 0.34814 0.92826 0.0
H816 H 0.52956 0.45507 0.91342 0.0
H817 H 0.53059 0.41837 0.95555 0.0
H818 H 0.48422 0.3786 0.85025 0.0
C819 C 0.50779 0.31181 0.00605 0.0
C820 C 0.53753 0.35458 0.91148 0.0
C821 C 0.51118 0.2918 0.03978 0.0
C822 C 0.5233 0.44351 0.8702 0.0
C823 C 0.52399 0.42249 0.89427 0.0
C824 C 0.4992 0.37207 0.86732 0.0
C825 C 0.52103 0.31987 0.94221 0.0
C826 C 0.51954 0.34209 0.91469 0.0
C827 C 0.51606 0.40694 0.8403 0.0
C828 C 0.51716 0.38459 0.86563 0.0
H829 H 0.55276 0.27768 0.91786 0.0
H830 H 0.54706 0.31256 0.85909 0.0
H831 H 0.48621 0.3419 0.89431 0.0
H832 H 0.50073 0.4379 0.67486 0.0
H833 H 0.50135 0.40119 0.71842 0.0
C834 C 0.2458 0.53557 0.94985 0.0
C835 C 0.25157 0.52833 0.03079 0.0
C836 C 0.22564 0.53227 0.91889 0.0
C837 C 0.17197 0.51889 0.99687 0.0
H838 H 0.16003 0.5185 0.75464 0.0
C839 C 0.0872 0.52524 0.87489 0.0
C840 C 0.08178 0.51573 0.79721 0.0
C841 C 0.108 0.52609 0.90145 0.0
C842 C 0.16293 0.51824 0.82265 0.0
H843 H 0.24136 0.51107 0.14129 0.0
H844 H 0.20653 0.50382 0.08549 0.0
H845 H 0.19584 0.51896 0.80231 0.0
H846 H 0.09404 0.49941 0.687 0.0
H847 H 0.1301 0.49989 0.73484 0.0
H848 H 0.13915 0.51681 0.01726 0.0
C849 C 0.21718 0.51284 0.04662 0.0
C850 C 0.18367 0.5189 0.85026 0.0
C851 C 0.23728 0.51652 0.07809 0.0
C852 C 0.09769 0.507 0.74688 0.0
C853 C 0.11848 0.50743 0.77433 0.0
C854 C 0.15126 0.51775 0.96927 0.0
C855 C 0.21077 0.52125 0.96759 0.0
C856 C 0.18858 0.51943 0.93789 0.0
C857 C 0.12403 0.51703 0.85211 0.0
C858 C 0.14632 0.51764 0.88162 0.0
H859 H 0.25655 0.54498 0.91302 0.0
H860 H 0.2215 0.53935 0.85859 0.0
H861 H 0.17483 0.51968 0.06486 0.0
H862 H 0.07537 0.53236 0.91483 0.0
H863 H 0.11143 0.53414 0.96042 0.0
C864 C 0.01676 0.7949 0.36141 0.0
C865 C 0.02831 0.78013 0.40704 0.0
C866 C 1.01328 0.81484 0.39533 0.0
C867 C 0.01964 0.84721 0.59536 0.0
H868 H 0.01861 0.89254 0.43261 0.0
C869 C 1.00892 0.93322 0.70539 0.0
C870 C 0.01771 0.94914 0.65547 0.0
C871 C 1.0093 0.91244 0.67716 0.0
C872 C 0.01925 0.8802 0.47951 0.0
H873 H 0.04469 0.77416 0.52437 0.0
H874 H 0.03935 0.80892 0.5832 0.0
H875 H 0.02086 0.85708 0.38168 0.0
H876 H 0.03459 0.95556 0.53836 0.0
H877 H 0.03634 0.91957 0.49166 0.0
H878 H 0.01952 0.87042 0.69325 0.0
C879 C 0.03234 0.80527 0.5223 0.0
C880 C 0.02003 0.85961 0.44993 0.0
C881 C 0.03544 0.78526 0.48884 0.0
C882 C 0.0274 0.94372 0.57794 0.0
C883 C 0.02821 0.92296 0.55067 0.0
C884 C 0.01932 0.86783 0.62499 0.0
C885 C 0.02164 0.82063 0.47522 0.0
C886 C 0.02018 0.8427 0.50725 0.0
C887 C 0.0189 0.90693 0.59902 0.0
C888 C 0.01913 0.88474 0.56761 0.0
H889 H 1.01141 0.79133 0.29757 0.0
H890 H 1.00449 0.82586 0.35759 0.0
H891 H 0.01943 0.8348 0.64211 0.0
H892 H 1.00121 0.93688 0.76516 0.0
H893 H 1.00163 0.90081 0.7161 0.0
C894 C 0.73877 1.01222 0.40389 0.0
C895 C 0.75095 0.0292 0.43004 0.0
C896 C 0.7189 1.00896 0.4394 0.0
C897 C 0.67587 0.03935 0.52773 0.0
H898 H 0.65248 0.98677 0.60279 0.0
C899 C 0.58716 0.02495 0.56996 0.0
C900 C 0.58084 0.01711 0.64992 0.0
C901 C 0.60828 0.02572 0.54744 0.0
C902 C 0.65884 1.00155 0.58203 0.0
H903 H 0.75252 0.05538 0.51605 0.0
H904 H 0.71786 0.0499 0.5779 0.0
H905 H 0.6892 0.98854 0.5582 0.0
H906 H 0.59193 1.00363 0.76826 0.0
H907 H 0.62888 1.00448 0.72762 0.0
H908 H 0.64541 0.05222 0.54821 0.0
C909 C 0.72355 0.03907 0.53019 0.0
C910 C 0.6798 1.00254 0.55621 0.0
C911 C 0.74345 0.04208 0.49568 0.0
C912 C 0.59623 1.00984 0.70638 0.0
C913 C 0.61738 1.01022 0.68299 0.0
C914 C 0.65483 0.03824 0.55117 0.0
C915 C 0.71077 0.02284 0.50076 0.0
C916 C 0.68858 0.0215 0.52915 0.0
C917 C 0.62364 0.01831 0.60347 0.0
C918 C 0.64608 0.01936 0.57904 0.0
H919 H 0.74404 1.0024 0.35194 0.0
H920 H 0.70939 0.99639 0.41504 0.0
H921 H 0.68212 0.05416 0.50676 0.0
H922 H 0.57578 0.03074 0.52489 0.0
H923 H 0.61264 0.03188 0.48558 0.0
C924 C 0.50739 0.74582 0.48004 0.0
C925 C 0.50675 0.7495 0.39187 0.0
C926 C 0.51074 0.72565 0.51161 0.0
C927 C 0.50568 0.6703 0.44289 0.0
H928 H 0.53319 0.6587 0.65758 0.0
C929 C 0.51943 0.58599 0.55632 0.0
C930 C 0.51705 0.58131 0.64367 0.0
C931 C 0.51928 0.60659 0.5274 0.0
C932 C 0.52521 0.66168 0.59803 0.0
H933 H 0.50974 0.73546 0.26738 0.0
H934 H 0.51657 0.70036 0.32144 0.0
H935 H 0.53221 0.69429 0.60307 0.0
H936 H 0.51281 0.59499 0.76912 0.0
H937 H 0.51228 0.63104 0.71841 0.0
H938 H 0.4985 0.63782 0.43794 0.0
C939 C 0.51402 0.7128 0.36693 0.0
C940 C 0.52467 0.68215 0.56654 0.0
C941 C 0.51051 0.73293 0.33566 0.0
C942 C 0.51472 0.59795 0.70146 0.0
C943 C 0.51452 0.61866 0.67233 0.0
C944 C 0.50615 0.64991 0.4744 0.0
C945 C 0.51359 0.70871 0.45543 0.0
C946 C 0.51487 0.68679 0.48843 0.0
C947 C 0.51667 0.62327 0.58469 0.0
C948 C 0.51596 0.64524 0.55235 0.0
H949 H 0.50404 0.75836 0.52422 0.0
H950 H 0.51001 0.72322 0.57994 0.0
H951 H 0.49768 0.67313 0.3833 0.0
H952 H 0.52143 0.57371 0.5096 0.0
H953 H 0.5214 0.60942 0.45976 0.0
C954 C 0.78514 0.50689 0.49046 0.0
C955 C 0.78184 0.50471 0.40251 0.0
C956 C 0.8053 0.50998 0.52235 0.0
C957 C 0.85996 0.52307 0.45687 0.0
H958 H 0.87445 0.49236 0.66136 0.0
C959 C 0.94557 0.51162 0.56009 0.0
C960 C 0.95036 0.513 0.64765 0.0
C961 C 0.92489 0.51126 0.53223 0.0
C962 C 0.87065 0.50127 0.60481 0.0
H963 H 0.79664 0.5044 0.2787 0.0
H964 H 0.83184 0.50962 0.33328 0.0
H965 H 0.8387 0.49183 0.60983 0.0
H966 H 0.93681 0.51491 0.77445 0.0
H967 H 0.90071 0.51452 0.72575 0.0
H968 H 0.89198 0.53224 0.45115 0.0
C969 C 0.819 0.50947 0.37824 0.0
C970 C 0.85006 0.50104 0.57529 0.0
C971 C 0.79885 0.50655 0.34665 0.0
C972 C 0.93379 0.51383 0.7066 0.0
C973 C 0.91304 0.51349 0.67863 0.0
C974 C 0.88054 0.52327 0.48629 0.0
C975 C 0.82262 0.51077 0.46678 0.0
C976 C 0.8444 0.51187 0.50064 0.0
C977 C 0.9083 0.51232 0.59096 0.0
C978 C 0.88622 0.51232 0.56053 0.0
H979 H 0.77225 0.50507 0.53458 0.0
H980 H 0.80736 0.51121 0.59074 0.0
H981 H 0.85624 0.53187 0.39996 0.0
H982 H 0.95782 0.51077 0.5125 0.0
H983 H 0.92192 0.50995 0.46441 0.0
loop_
_geom_bond_atom_site_label_1
_geom_bond_atom_site_label_2
_geom_bond_distance
_geom_bond_site_symmetry_2
_ccdc_geom_bond_type
C0 N1 1.317 . S
C0 N2 1.348 . S
C0 C3 1.485 . S
N1 C0 1.317 . S
N1 N5 1.370 . S
N2 C0 1.348 . S
N2 C4 1.346 . S
C3 C0 1.485 . S
C3 H7 0.960 . S
C3 H8 0.961 . S
C3 H9 0.960 . S
C4 N2 1.346 . S
C4 N5 1.307 . S
C4 C6 1.486 . S
N5 N1 1.370 . S
N5 C4 1.307 . S
C6 C4 1.486 . S
C6 H10 0.960 . S
C6 H11 0.960 . S
C6 H12 0.959 . S
H7 C3 0.960 . S
H8 C3 0.961 . S
H9 C3 0.960 . S
H10 C6 0.960 . S
H11 C6 0.960 . S
H12 C6 0.959 . S
C13 N14 1.317 . S
C13 N15 1.350 . S
C13 C16 1.485 . S
N14 C13 1.317 . S
N14 N18 1.371 . S
N15 C13 1.350 . S
N15 C17 1.345 1_655 S
C16 C13 1.485 . S
C16 H20 0.960 1_655 S
C16 H21 0.961 . S
C16 H22 0.960 . S
C17 N15 1.345 1_455 S
C17 N18 1.307 1_455 S
C17 C19 1.486 . S
N18 N14 1.371 . S
N18 C17 1.307 1_655 S
C19 C17 1.486 . S
C19 H23 0.925 1_455 S
C19 H24 0.989 . S
C19 H25 0.967 . S
H20 C16 0.960 1_455 S
H21 C16 0.961 . S
H22 C16 0.960 . S
H23 C19 0.925 1_655 S
H24 C19 0.989 . S
H25 C19 0.967 . S
C26 N27 1.317 . S
C26 N28 1.350 . S
C26 C29 1.485 . S
N27 C26 1.317 . S
N27 N31 1.371 . S
N28 C26 1.350 . S
N28 C30 1.345 1_565 S
C29 C26 1.485 . S
C29 H33 0.960 1_565 S
C29 H34 0.961 . S
C29 H35 0.960 . S
C30 N28 1.345 1_545 S
C30 N31 1.307 1_545 S
C30 C32 1.486 . S
N31 N27 1.371 . S
N31 C30 1.307 1_565 S
C32 C30 1.486 . S
C32 H36 0.925 1_545 S
C32 H37 0.989 . S
C32 H38 0.967 . S
H33 C29 0.960 1_545 S
H34 C29 0.961 . S
H35 C29 0.960 . S
H36 C32 0.925 1_565 S
H37 C32 0.989 . S
H38 C32 0.967 . S
C39 N40 1.317 . S
C39 N41 1.348 . S
C39 C42 1.485 . S
N40 C39 1.317 . S
N40 N44 1.370 . S
N41 C39 1.348 . S
N41 C43 1.346 . S
C42 C39 1.485 . S
C42 H46 0.960 . S
C42 H47 0.961 . S
C42 H48 0.960 . S
C43 N41 1.346 . S
C43 N44 1.307 . S
C43 C45 1.486 . S
N44 N40 1.370 . S
N44 C43 1.307 . S
C45 C43 1.486 . S
C45 H49 0.960 . S
C45 H50 0.960 . S
C45 H51 0.959 . S
H46 C42 0.960 . S
H47 C42 0.961 . S
H48 C42 0.960 . S
H49 C45 0.960 . S
H50 C45 0.960 . S
H51 C45 0.959 . S
C52 N53 1.317 . S
C52 N54 1.348 1_556 S
C52 C55 1.485 . S
N53 C52 1.317 . S
N53 N57 1.370 1_556 S
N54 C52 1.348 1_554 S
N54 C56 1.346 . S
C55 C52 1.485 . S
C55 H59 0.960 . S
C55 H60 0.961 . S
C55 H61 0.960 . S
C56 N54 1.346 . S
C56 N57 1.307 . S
C56 C58 1.486 . S
N57 N53 1.370 1_554 S
N57 C56 1.307 . S
C58 C56 1.486 . S
C58 H62 0.960 . S
C58 H63 0.960 . S
C58 H64 0.959 . S
H59 C55 0.960 . S
H60 C55 0.961 . S
H61 C55 0.960 . S
H62 C58 0.960 . S
H63 C58 0.960 . S
H64 C58 0.959 . S
C65 N66 1.317 . S
C65 N67 1.350 1_556 S
C65 C68 1.485 . S
N66 C65 1.317 . S
N66 N70 1.370 1_556 S
N67 C65 1.350 1_554 S
N67 C69 1.345 1_655 S
C68 C65 1.485 . S
C68 H72 0.960 1_655 S
C68 H73 0.961 . S
C68 H74 0.960 . S
C69 N67 1.345 1_455 S
C69 N70 1.307 1_455 S
C69 C71 1.485 . S
N70 N66 1.370 1_554 S
N70 C69 1.307 1_655 S
C71 C69 1.485 . S
C71 H75 0.913 1_455 S
C71 H76 0.999 . S
C71 H77 0.970 . S
H72 C68 0.960 1_455 S
H73 C68 0.961 . S
H74 C68 0.960 . S
H75 C71 0.913 1_655 S
H76 C71 0.999 . S
H77 C71 0.970 . S
C78 N79 1.317 . S
C78 N80 1.350 1_556 S
C78 C81 1.485 . S
N79 C78 1.317 . S
N79 N83 1.370 1_556 S
N80 C78 1.350 1_554 S
N80 C82 1.345 1_565 S
C81 C78 1.485 . S
C81 H85 0.960 1_565 S
C81 H86 0.961 . S
C81 H87 0.960 . S
C82 N80 1.345 1_545 S
C82 N83 1.307 1_545 S
C82 C84 1.485 . S
N83 N79 1.370 1_554 S
N83 C82 1.307 1_565 S
C84 C82 1.485 . S
C84 H88 0.913 1_545 S
C84 H89 0.999 . S
C84 H90 0.970 . S
H85 C81 0.960 1_545 S
H86 C81 0.961 . S
H87 C81 0.960 . S
H88 C84 0.913 1_565 S
H89 C84 0.999 . S
H90 C84 0.970 . S
C91 N92 1.317 . S
C91 N93 1.348 1_556 S
C91 C94 1.485 . S
N92 C91 1.317 . S
N92 N96 1.370 1_556 S
N93 C91 1.348 1_554 S
N93 C95 1.346 . S
C94 C91 1.485 . S
C94 H98 0.960 . S
C94 H99 0.961 . S
C94 H100 0.960 . S
C95 N93 1.346 . S
C95 N96 1.307 . S
C95 C97 1.486 . S
N96 N92 1.370 1_554 S
N96 C95 1.307 . S
C97 C95 1.486 . S
C97 H101 0.960 . S
C97 H102 0.960 . S
C97 H103 0.959 . S
H98 C94 0.960 . S
H99 C94 0.961 . S
H100 C94 0.960 . S
H101 C97 0.960 . S
H102 C97 0.960 . S
H103 C97 0.959 . S
Pr104 C106 2.880 . S
Pr104 O124 2.577 . S
Pr104 O125 2.490 . S
Pr104 O126 2.695 1_565 S
Pr104 O127 2.512 . S
Pr104 O129 2.437 . S
Pr104 O132 2.436 1_455 S
Pr104 O134 2.438 1_565 S
Pr105 C115 2.880 . S
Pr105 O126 2.436 1_655 S
Pr105 O128 2.438 1_545 S
Pr105 O130 2.572 . S
Pr105 O131 2.490 . S
Pr105 O132 2.695 1_545 S
Pr105 O133 2.512 . S
Pr105 O135 2.437 . S
C106 Pr104 2.880 . S
C106 C107 1.491 . S
C106 O124 1.289 . S
C106 O125 1.225 . S
C107 C106 1.491 . S
C107 C108 1.392 . S
C107 C112 1.356 . S
C108 C107 1.392 . S
C108 C109 1.368 . S
C108 H136 0.929 . S
C109 C108 1.368 . S
C109 C110 1.386 1_556 S
C109 H137 0.929 1_556 S
C110 C109 1.386 1_554 S
C110 C111 1.373 . S
C111 C110 1.373 . S
C111 C112 1.409 1_554 S
C111 H138 0.931 1_455 S
C112 C107 1.356 . S
C112 C111 1.409 1_556 S
C112 H139 0.930 1_455 S
C113 O126 1.253 1_565 S
C113 O127 1.278 . S
C114 O128 1.267 . S
C114 O129 1.278 1_655 S
C115 Pr105 2.880 . S
C115 C116 1.491 . S
C115 O130 1.277 . S
C115 O131 1.225 . S
C116 C115 1.491 . S
C116 C117 1.392 . S
C116 C121 1.356 . S
C117 C116 1.392 . S
C117 C118 1.368 . S
C117 H140 0.929 . S
C118 C117 1.368 . S
C118 C119 1.386 . S
C118 H141 0.929 . S
C119 C118 1.386 . S
C119 C120 1.373 . S
C120 C119 1.373 . S
C120 C121 1.409 . S
C120 H142 0.931 1_655 S
C121 C116 1.356 . S
C121 C120 1.409 . S
C121 H143 0.930 1_655 S
C122 O132 1.270 1_545 S
C122 O133 1.248 . S
C123 O134 1.267 . S
C123 O135 1.278 1_455 S
O124 Pr104 2.577 . S
O124 C106 1.289 . S
O125 Pr104 2.490 . S
O125 C106 1.225 . S
O126 Pr104 2.695 1_545 S
O126 Pr105 2.436 1_455 S
O126 C113 1.253 1_545 S
O127 Pr104 2.512 . S
O127 C113 1.278 . S
O128 Pr105 2.438 1_565 S
O128 C114 1.267 . S
O129 Pr104 2.437 . S
O129 C114 1.278 1_455 S
O130 Pr105 2.572 . S
O130 C115 1.277 . S
O131 Pr105 2.490 . S
O131 C115 1.225 . S
O132 Pr104 2.436 1_655 S
O132 Pr105 2.695 1_565 S
O132 C122 1.270 1_565 S
O133 Pr105 2.512 . S
O133 C122 1.248 . S
O134 Pr104 2.438 1_545 S
O134 C123 1.267 . S
O135 Pr105 2.437 . S
O135 C123 1.278 1_655 S
H136 C108 0.929 . S
H137 C109 0.929 1_554 S
H138 C111 0.931 1_655 S
H139 C112 0.930 1_655 S
H140 C117 0.929 . S
H141 C118 0.929 . S
H142 C120 0.931 1_455 S
H143 C121 0.930 1_455 S
Pr144 C146 2.880 . S
Pr144 O164 2.576 . S
Pr144 O165 2.490 . S
Pr144 O166 2.695 . S
Pr144 O167 2.512 . S
Pr144 O169 2.437 . S
Pr144 O172 2.436 1_545 S
Pr144 O174 2.438 . S
Pr145 C155 2.880 . S
Pr145 O166 2.436 1_565 S
Pr145 O168 2.438 . S
Pr145 O170 2.571 . S
Pr145 O171 2.490 . S
Pr145 O172 2.695 . S
Pr145 O173 2.512 . S
Pr145 O175 2.437 . S
C146 Pr144 2.880 . S
C146 C147 1.491 . S
C146 O164 1.286 . S
C146 O165 1.225 . S
C147 C146 1.491 . S
C147 C148 1.392 . S
C147 C152 1.356 . S
C148 C147 1.392 . S
C148 C149 1.368 . S
C148 H176 0.929 . S
C149 C148 1.368 . S
C149 C150 1.386 1_556 S
C149 H177 0.929 1_556 S
C150 C149 1.386 1_554 S
C150 C151 1.373 . S
C151 C150 1.373 . S
C151 C152 1.409 1_554 S
C151 H178 0.931 1_545 S
C152 C147 1.356 . S
C152 C151 1.409 1_556 S
C152 H179 0.930 1_545 S
C153 O166 1.270 . S
C153 O167 1.248 . S
C154 O168 1.267 . S
C154 O169 1.278 1_565 S
C155 Pr145 2.880 . S
C155 C156 1.491 . S
C155 O170 1.274 . S
C155 O171 1.225 . S
C156 C155 1.491 . S
C156 C157 1.392 . S
C156 C161 1.356 . S
C157 C156 1.392 . S
C157 C158 1.368 . S
C157 H180 0.929 . S
C158 C157 1.368 . S
C158 C159 1.386 . S
C158 H181 0.929 . S
C159 C158 1.386 . S
C159 C160 1.373 . S
C160 C159 1.373 . S
C160 C161 1.409 . S
C160 H182 0.931 1_565 S
C161 C156 1.356 . S
C161 C160 1.409 . S
C161 H183 0.930 1_565 S
C162 O172 1.270 . S
C162 O173 1.248 . S
C163 O174 1.267 . S
C163 O175 1.278 1_545 S
O164 Pr144 2.576 . S
O164 C146 1.286 . S
O165 Pr144 2.490 . S
O165 C146 1.225 . S
O166 Pr144 2.695 . S
O166 Pr145 2.436 1_545 S
O166 C153 1.270 . S
O167 Pr144 2.512 . S
O167 C153 1.248 . S
O168 Pr145 2.438 . S
O168 C154 1.267 . S
O169 Pr144 2.437 . S
O169 C154 1.278 1_545 S
O170 Pr145 2.571 . S
O170 C155 1.274 . S
O171 Pr145 2.490 . S
O171 C155 1.225 . S
O172 Pr144 2.436 1_565 S
O172 Pr145 2.695 . S
O172 C162 1.270 . S
O173 Pr145 2.512 . S
O173 C162 1.248 . S
O174 Pr144 2.438 . S
O174 C163 1.267 . S
O175 Pr145 2.437 . S
O175 C163 1.278 1_565 S
H176 C148 0.929 . S
H177 C149 0.929 1_554 S
H178 C151 0.931 1_565 S
H179 C152 0.930 1_565 S
H180 C157 0.929 . S
H181 C158 0.929 . S
H182 C160 0.931 1_545 S
H183 C161 0.930 1_545 S
Pr184 C186 2.880 . S
Pr184 O204 2.562 . S
Pr184 O205 2.490 . S
Pr184 O206 2.695 . S
Pr184 O207 2.512 . S
Pr184 O209 2.437 . S
Pr184 O212 2.436 . S
Pr184 O214 2.438 . S
Pr185 C195 2.880 . S
Pr185 O206 2.436 . S
Pr185 O208 2.438 . S
Pr185 O210 2.562 . S
Pr185 O211 2.490 . S
Pr185 O212 2.695 . S
Pr185 O213 2.512 . S
Pr185 O215 2.437 . S
C186 Pr184 2.880 . S
C186 C187 1.491 . S
C186 O204 1.254 . S
C186 O205 1.225 . S
C187 C186 1.491 . S
C187 C188 1.392 . S
C187 C192 1.356 . S
C188 C187 1.392 . S
C188 C189 1.368 . S
C188 H216 0.929 . S
C189 C188 1.368 . S
C189 C190 1.386 1_556 S
C189 H217 0.929 1_556 S
C190 C189 1.386 1_554 S
C190 C191 1.373 . S
C191 C190 1.373 . S
C191 C192 1.409 1_554 S
C191 H218 0.931 . S
C192 C187 1.356 . S
C192 C191 1.409 1_556 S
C192 H219 0.930 . S
C193 O206 1.270 . S
C193 O207 1.248 . S
C194 O208 1.267 . S
C194 O209 1.278 . S
C195 Pr185 2.880 . S
C195 C196 1.491 . S
C195 O210 1.254 . S
C195 O211 1.225 . S
C196 C195 1.491 . S
C196 C197 1.392 . S
C196 C201 1.356 . S
C197 C196 1.392 . S
C197 C198 1.368 . S
C197 H220 0.929 . S
C198 C197 1.368 . S
C198 C199 1.386 . S
C198 H221 0.929 . S
C199 C198 1.386 . S
C199 C200 1.373 . S
C200 C199 1.373 . S
C200 C201 1.409 . S
C200 H222 0.931 . S
C201 C196 1.356 . S
C201 C200 1.409 . S
C201 H223 0.930 . S
C202 O212 1.270 . S
C202 O213 1.248 . S
C203 O214 1.267 . S
C203 O215 1.278 . S
O204 Pr184 2.562 . S
O204 C186 1.254 . S
O205 Pr184 2.490 . S
O205 C186 1.225 . S
O206 Pr184 2.695 . S
O206 Pr185 2.436 . S
O206 C193 1.270 . S
O207 Pr184 2.512 . S
O207 C193 1.248 . S
O208 Pr185 2.438 . S
O208 C194 1.267 . S
O209 Pr184 2.437 . S
O209 C194 1.278 . S
O210 Pr185 2.562 . S
O210 C195 1.254 . S
O211 Pr185 2.490 . S
O211 C195 1.225 . S
O212 Pr184 2.436 . S
O212 Pr185 2.695 . S
O212 C202 1.270 . S
O213 Pr185 2.512 . S
O213 C202 1.248 . S
O214 Pr184 2.438 . S
O214 C203 1.267 . S
O215 Pr185 2.437 . S
O215 C203 1.278 . S
H216 C188 0.929 . S
H217 C189 0.929 1_554 S
H218 C191 0.931 . S
H219 C192 0.930 . S
H220 C197 0.929 . S
H221 C198 0.929 . S
H222 C200 0.931 . S
H223 C201 0.930 . S
Pr224 C226 2.880 . S
Pr224 O244 2.562 . S
Pr224 O245 2.490 . S
Pr224 O246 2.695 1_655 S
Pr224 O247 2.512 . S
Pr224 O249 2.437 . S
Pr224 O252 2.436 . S
Pr224 O254 2.438 1_655 S
Pr225 C235 2.880 . S
Pr225 O246 2.436 . S
Pr225 O248 2.438 1_455 S
Pr225 O250 2.562 . S
Pr225 O251 2.490 . S
Pr225 O252 2.695 1_455 S
Pr225 O253 2.512 . S
Pr225 O255 2.437 . S
C226 Pr224 2.880 . S
C226 C227 1.491 . S
C226 O244 1.254 . S
C226 O245 1.225 . S
C227 C226 1.491 . S
C227 C228 1.392 . S
C227 C232 1.356 . S
C228 C227 1.392 . S
C228 C229 1.368 . S
C228 H256 0.929 . S
C229 C228 1.368 . S
C229 C230 1.386 1_556 S
C229 H257 0.929 1_556 S
C230 C229 1.386 1_554 S
C230 C231 1.373 . S
C231 C230 1.373 . S
C231 C232 1.409 1_554 S
C231 H258 0.931 . S
C232 C227 1.356 . S
C232 C231 1.409 1_556 S
C232 H259 0.930 . S
C233 O246 1.255 1_655 S
C233 O247 1.274 . S
C234 O248 1.267 . S
C234 O249 1.278 . S
C235 Pr225 2.880 . S
C235 C236 1.491 . S
C235 O250 1.254 . S
C235 O251 1.225 . S
C236 C235 1.491 . S
C236 C237 1.392 . S
C236 C241 1.356 . S
C237 C236 1.392 . S
C237 C238 1.368 . S
C237 H260 0.929 . S
C238 C237 1.368 . S
C238 C239 1.386 . S
C238 H261 0.929 . S
C239 C238 1.386 . S
C239 C240 1.373 . S
C240 C239 1.373 . S
C240 C241 1.409 . S
C240 H262 0.931 . S
C241 C236 1.356 . S
C241 C240 1.409 . S
C241 H263 0.930 . S
C242 O252 1.270 1_455 S
C242 O253 1.248 . S
C243 O254 1.267 . S
C243 O255 1.278 . S
O244 Pr224 2.562 . S
O244 C226 1.254 . S
O245 Pr224 2.490 . S
O245 C226 1.225 . S
O246 Pr224 2.695 1_455 S
O246 Pr225 2.436 . S
O246 C233 1.255 1_455 S
O247 Pr224 2.512 . S
O247 C233 1.274 . S
O248 Pr225 2.438 1_655 S
O248 C234 1.267 . S
O249 Pr224 2.437 . S
O249 C234 1.278 . S
O250 Pr225 2.562 . S
O250 C235 1.254 . S
O251 Pr225 2.490 . S
O251 C235 1.225 . S
O252 Pr224 2.436 . S
O252 Pr225 2.695 1_655 S
O252 C242 1.270 1_655 S
O253 Pr225 2.512 . S
O253 C242 1.248 . S
O254 Pr224 2.438 1_455 S
O254 C243 1.267 . S
O255 Pr225 2.437 . S
O255 C243 1.278 . S
H256 C228 0.929 . S
H257 C229 0.929 1_554 S
H258 C231 0.931 . S
H259 C232 0.930 . S
H260 C237 0.929 . S
H261 C238 0.929 . S
H262 C240 0.931 . S
H263 C241 0.930 . S
C264 C265 1.345 1_565 S
C264 C266 1.327 . S
C264 H289 0.950 . S
C265 C264 1.345 1_545 S
C265 C281 1.353 . S
C266 C264 1.327 . S
C266 C285 1.414 1_565 S
C266 H290 0.950 . S
C267 C284 1.574 . S
C267 C286 1.390 . S
C267 H291 0.949 . S
H268 C272 0.949 . S
C269 C270 1.349 . S
C269 C271 1.327 . S
C269 H292 0.950 . S
C270 C269 1.349 . S
C270 C282 1.349 1_545 S
C271 C269 1.327 . S
C271 C287 1.464 . S
C271 H293 0.950 . S
C272 H268 0.949 . S
C272 C280 1.574 . S
C272 C288 1.336 1_565 S
H273 C281 0.950 . S
H274 C279 0.950 . S
H275 C280 0.949 . S
H276 C282 0.950 . S
H277 C283 0.950 . S
H278 C284 0.949 . S
C279 H274 0.950 . S
C279 C281 1.327 . S
C279 C285 1.443 . S
C280 C272 1.574 . S
C280 H275 0.949 . S
C280 C286 1.347 1_565 S
C281 C265 1.353 . S
C281 H273 0.950 . S
C281 C279 1.327 . S
C282 C270 1.349 1_565 S
C282 H276 0.950 . S
C282 C283 1.327 . S
C283 H277 0.950 . S
C283 C282 1.327 . S
C283 C287 1.394 1_565 S
C284 C267 1.574 . S
C284 H278 0.949 . S
C284 C288 1.401 . S
C285 C266 1.414 1_545 S
C285 C279 1.443 . S
C285 C286 1.523 . S
C286 C267 1.390 . S
C286 C280 1.347 1_545 S
C286 C285 1.523 . S
C287 C271 1.464 . S
C287 C283 1.394 1_545 S
C287 C288 1.523 . S
C288 C272 1.336 1_545 S
C288 C284 1.401 . S
C288 C287 1.523 . S
H289 C264 0.950 . S
H290 C266 0.950 . S
H291 C267 0.949 . S
H292 C269 0.950 . S
H293 C271 0.950 . S
C294 C295 1.349 . S
C294 C296 1.327 . S
C294 H319 0.950 . S
C295 C294 1.349 . S
C295 C311 1.349 . S
C296 C294 1.327 . S
C296 C315 1.429 . S
C296 H320 0.950 . S
C297 C314 1.574 . S
C297 C316 1.368 . S
C297 H321 0.949 . S
H298 C302 0.949 . S
C299 C300 1.349 . S
C299 C301 1.327 . S
C299 H322 0.950 . S
C300 C299 1.349 . S
C300 C312 1.349 . S
C301 C299 1.327 . S
C301 C317 1.429 . S
C301 H323 0.950 . S
C302 H298 0.949 . S
C302 C310 1.574 . S
C302 C318 1.368 . S
H303 C311 0.950 . S
H304 C309 0.950 . S
H305 C310 0.949 . S
H306 C312 0.950 . S
H307 C313 0.950 . S
H308 C314 0.949 . S
C309 H304 0.950 . S
C309 C311 1.327 . S
C309 C315 1.429 . S
C310 C302 1.574 . S
C310 H305 0.949 . S
C310 C316 1.368 . S
C311 C295 1.349 . S
C311 H303 0.950 . S
C311 C309 1.327 . S
C312 C300 1.349 . S
C312 H306 0.950 . S
C312 C313 1.327 . S
C313 H307 0.950 . S
C313 C312 1.327 . S
C313 C317 1.429 . S
C314 C297 1.574 . S
C314 H308 0.949 . S
C314 C318 1.368 . S
C315 C296 1.429 . S
C315 C309 1.429 . S
C315 C316 1.523 . S
C316 C297 1.368 . S
C316 C310 1.368 . S
C316 C315 1.523 . S
C317 C301 1.429 . S
C317 C313 1.429 . S
C317 C318 1.523 . S
C318 C302 1.368 . S
C318 C314 1.368 . S
C318 C317 1.523 . S
H319 C294 0.950 . S
H320 C296 0.950 . S
H321 C297 0.949 . S
H322 C299 0.950 . S
H323 C301 0.950 . S
C324 C325 1.349 . S
C324 C326 1.327 . S
C324 H349 0.950 . S
C325 C324 1.349 . S
C325 C341 1.349 . S
C326 C324 1.327 . S
C326 C345 1.429 . S
C326 H350 0.950 . S
C327 C344 1.574 . S
C327 C346 1.368 . S
C327 H351 0.949 . S
H328 C332 0.949 . S
C329 C330 1.349 . S
C329 C331 1.327 . S
C329 H352 0.950 . S
C330 C329 1.349 . S
C330 C342 1.349 . S
C331 C329 1.327 . S
C331 C347 1.429 . S
C331 H353 0.950 . S
C332 H328 0.949 . S
C332 C340 1.574 . S
C332 C348 1.368 . S
H333 C341 0.950 . S
H334 C339 0.950 . S
H335 C340 0.949 . S
H336 C342 0.950 . S
H337 C343 0.950 . S
H338 C344 0.949 . S
C339 H334 0.950 . S
C339 C341 1.327 . S
C339 C345 1.429 . S
C340 C332 1.574 . S
C340 H335 0.949 . S
C340 C346 1.368 . S
C341 C325 1.349 . S
C341 H333 0.950 . S
C341 C339 1.327 . S
C342 C330 1.349 . S
C342 H336 0.950 . S
C342 C343 1.327 . S
C343 H337 0.950 . S
C343 C342 1.327 . S
C343 C347 1.429 . S
C344 C327 1.574 . S
C344 H338 0.949 . S
C344 C348 1.368 . S
C345 C326 1.429 . S
C345 C339 1.429 . S
C345 C346 1.523 . S
C346 C327 1.368 . S
C346 C340 1.368 . S
C346 C345 1.523 . S
C347 C331 1.429 . S
C347 C343 1.429 . S
C347 C348 1.523 . S
C348 C332 1.368 . S
C348 C344 1.368 . S
C348 C347 1.523 . S
H349 C324 0.950 . S
H350 C326 0.950 . S
H351 C327 0.949 . S
H352 C329 0.950 . S
H353 C331 0.950 . S
C354 C355 1.347 1_655 S
C354 C356 1.327 . S
C354 H379 0.950 . S
C355 C354 1.347 1_455 S
C355 C371 1.351 . S
C356 C354 1.327 . S
C356 C375 1.423 1_655 S
C356 H380 0.950 . S
C357 C374 1.574 . S
C357 C376 1.377 . S
C357 H381 0.949 . S
H358 C362 0.949 . S
C359 C360 1.349 . S
C359 C361 1.327 . S
C359 H382 0.950 . S
C360 C359 1.349 . S
C360 C372 1.349 1_455 S
C361 C359 1.327 . S
C361 C377 1.443 . S
C361 H383 0.950 . S
C362 H358 0.949 . S
C362 C370 1.574 . S
C362 C378 1.356 1_655 S
H363 C371 0.950 . S
H364 C369 0.950 . S
H365 C370 0.949 . S
H366 C372 0.950 . S
H367 C373 0.950 . S
H368 C374 0.949 . S
C369 H364 0.950 . S
C369 C371 1.327 . S
C369 C375 1.434 . S
C370 C362 1.574 . S
C370 H365 0.949 . S
C370 C376 1.360 1_655 S
C371 C355 1.351 . S
C371 H363 0.950 . S
C371 C369 1.327 . S
C372 C360 1.349 1_655 S
C372 H366 0.950 . S
C372 C373 1.327 . S
C373 H367 0.950 . S
C373 C372 1.327 . S
C373 C377 1.416 1_655 S
C374 C357 1.574 . S
C374 H368 0.949 . S
C374 C378 1.381 . S
C375 C356 1.423 1_455 S
C375 C369 1.434 . S
C375 C376 1.523 . S
C376 C357 1.377 . S
C376 C370 1.360 1_455 S
C376 C375 1.523 . S
C377 C361 1.443 . S
C377 C373 1.416 1_455 S
C377 C378 1.523 . S
C378 C362 1.356 1_455 S
C378 C374 1.381 . S
C378 C377 1.523 . S
H379 C354 0.950 . S
H380 C356 0.950 . S
H381 C357 0.949 . S
H382 C359 0.950 . S
H383 C361 0.950 . S
C384 C385 1.353 1_565 S
C384 C386 1.327 . S
C384 H409 0.950 . S
C385 C384 1.353 1_545 S
C385 C401 1.345 . S
C386 C384 1.327 . S
C386 C405 1.434 . S
C386 H410 0.950 . S
C387 C404 1.574 . S
C387 C406 1.357 1_545 S
C387 H411 0.949 . S
H388 C392 0.949 1_556 S
C389 C390 1.312 1_545 S
C389 C391 1.327 . S
C389 H412 0.950 . S
C390 C389 1.312 1_565 S
C390 C402 1.387 . S
C391 C389 1.327 . S
C391 C407 1.403 1_545 S
C391 H413 0.950 1_556 S
C392 H388 0.949 1_554 S
C392 C400 1.574 . S
C392 C408 1.391 . S
H393 C401 0.950 . S
H394 C399 0.950 . S
H395 C400 0.949 . S
H396 C402 0.950 . S
H397 C403 0.950 . S
H398 C404 0.949 . S
C399 H394 0.950 . S
C399 C401 1.327 . S
C399 C405 1.423 1_545 S
C400 C392 1.574 . S
C400 H395 0.949 . S
C400 C406 1.380 . S
C401 C385 1.345 . S
C401 H393 0.950 . S
C401 C399 1.327 . S
C402 C390 1.387 . S
C402 H396 0.950 . S
C402 C403 1.327 . S
C403 H397 0.950 . S
C403 C402 1.327 . S
C403 C407 1.455 . S
C404 C387 1.574 . S
C404 H398 0.949 . S
C404 C408 1.346 1_545 S
C405 C386 1.434 . S
C405 C399 1.423 1_565 S
C405 C406 1.523 . S
C406 C387 1.357 1_565 S
C406 C400 1.380 . S
C406 C405 1.523 . S
C407 C391 1.403 1_565 S
C407 C403 1.455 . S
C407 C408 1.523 1_556 S
C408 C392 1.391 . S
C408 C404 1.346 1_565 S
C408 C407 1.523 1_554 S
H409 C384 0.950 . S
H410 C386 0.950 . S
H411 C387 0.949 . S
H412 C389 0.950 . S
H413 C391 0.950 1_554 S
C414 C415 1.349 . S
C414 C416 1.327 . S
C414 H439 0.950 . S
C415 C414 1.349 . S
C415 C431 1.349 . S
C416 C414 1.327 . S
C416 C435 1.429 . S
C416 H440 0.950 . S
C417 C434 1.574 . S
C417 C436 1.368 . S
C417 H441 0.949 . S
H418 C422 0.949 . S
C419 C420 1.349 . S
C419 C421 1.327 . S
C419 H442 0.950 . S
C420 C419 1.349 . S
C420 C432 1.349 . S
C421 C419 1.327 . S
C421 C437 1.429 . S
C421 H443 0.950 . S
C422 H418 0.949 . S
C422 C430 1.574 . S
C422 C438 1.368 . S
H423 C431 0.950 . S
H424 C429 0.950 . S
H425 C430 0.949 . S
H426 C432 0.950 . S
H427 C433 0.950 . S
H428 C434 0.949 . S
C429 H424 0.950 . S
C429 C431 1.327 . S
C429 C435 1.429 . S
C430 C422 1.574 . S
C430 H425 0.949 . S
C430 C436 1.368 . S
C431 C415 1.349 . S
C431 H423 0.950 . S
C431 C429 1.327 . S
C432 C420 1.349 . S
C432 H426 0.950 . S
C432 C433 1.327 . S
C433 H427 0.950 . S
C433 C432 1.327 . S
C433 C437 1.429 . S
C434 C417 1.574 . S
C434 H428 0.949 . S
C434 C438 1.368 . S
C435 C416 1.429 . S
C435 C429 1.429 . S
C435 C436 1.523 . S
C436 C417 1.368 . S
C436 C430 1.368 . S
C436 C435 1.523 . S
C437 C421 1.429 . S
C437 C433 1.429 . S
C437 C438 1.523 1_556 S
C438 C422 1.368 . S
C438 C434 1.368 . S
C438 C437 1.523 1_554 S
H439 C414 0.950 . S
H440 C416 0.950 . S
H441 C417 0.949 . S
H442 C419 0.950 . S
H443 C421 0.950 . S
C444 C445 1.349 . S
C444 C446 1.327 . S
C444 H469 0.950 . S
C445 C444 1.349 . S
C445 C461 1.349 . S
C446 C444 1.327 . S
C446 C465 1.429 . S
C446 H470 0.950 . S
C447 C464 1.574 . S
C447 C466 1.368 . S
C447 H471 0.949 . S
H448 C452 0.949 1_556 S
C449 C450 1.349 . S
C449 C451 1.327 . S
C449 H472 0.950 . S
C450 C449 1.349 . S
C450 C462 1.349 . S
C451 C449 1.327 . S
C451 C467 1.429 . S
C451 H473 0.950 1_556 S
C452 H448 0.949 1_554 S
C452 C460 1.574 . S
C452 C468 1.368 . S
H453 C461 0.950 . S
H454 C459 0.950 . S
H455 C460 0.949 . S
H456 C462 0.950 . S
H457 C463 0.950 . S
H458 C464 0.949 . S
C459 H454 0.950 . S
C459 C461 1.327 . S
C459 C465 1.429 . S
C460 C452 1.574 . S
C460 H455 0.949 . S
C460 C466 1.368 . S
C461 C445 1.349 . S
C461 H453 0.950 . S
C461 C459 1.327 . S
C462 C450 1.349 . S
C462 H456 0.950 . S
C462 C463 1.327 . S
C463 H457 0.950 . S
C463 C462 1.327 . S
C463 C467 1.429 . S
C464 C447 1.574 . S
C464 H458 0.949 . S
C464 C468 1.368 . S
C465 C446 1.429 . S
C465 C459 1.429 . S
C465 C466 1.523 . S
C466 C447 1.368 . S
C466 C460 1.368 . S
C466 C465 1.523 . S
C467 C451 1.429 . S
C467 C463 1.429 . S
C467 C468 1.523 1_556 S
C468 C452 1.368 . S
C468 C464 1.368 . S
C468 C467 1.523 1_554 S
H469 C444 0.950 . S
H470 C446 0.950 . S
H471 C447 0.949 . S
H472 C449 0.950 . S
H473 C451 0.950 1_554 S
C474 C475 1.352 . S
C474 C476 1.327 . S
C474 H499 0.950 . S
C475 C474 1.352 . S
C475 C491 1.346 1_655 S
C476 C474 1.327 . S
C476 C495 1.440 . S
C476 H500 0.950 . S
C477 C494 1.574 . S
C477 C496 1.351 1_455 S
C477 H501 0.949 . S
H478 C482 0.949 . S
C479 C480 1.349 1_455 S
C479 C481 1.327 . S
C479 H502 0.950 . S
C480 C479 1.349 1_655 S
C480 C492 1.349 . S
C481 C479 1.327 . S
C481 C497 1.401 1_455 S
C481 H503 0.950 . S
C482 H478 0.949 . S
C482 C490 1.574 . S
C482 C498 1.395 . S
H483 C491 0.950 . S
H484 C489 0.950 . S
H485 C490 0.949 . S
H486 C492 0.950 . S
H487 C493 0.950 1_554 S
H488 C494 0.949 1_556 S
C489 H484 0.950 . S
C489 C491 1.327 . S
C489 C495 1.417 1_455 S
C490 C482 1.574 . S
C490 H485 0.949 . S
C490 C496 1.386 . S
C491 C475 1.346 1_455 S
C491 H483 0.950 . S
C491 C489 1.327 . S
C492 C480 1.349 . S
C492 H486 0.950 . S
C492 C493 1.327 . S
C493 H487 0.950 1_556 S
C493 C492 1.327 . S
C493 C497 1.458 . S
C494 C477 1.574 . S
C494 H488 0.949 1_554 S
C494 C498 1.343 1_455 S
C495 C476 1.440 . S
C495 C489 1.417 1_655 S
C495 C496 1.523 . S
C496 C477 1.351 1_655 S
C496 C490 1.386 . S
C496 C495 1.523 . S
C497 C481 1.401 1_655 S
C497 C493 1.458 . S
C497 C498 1.523 1_556 S
C498 C482 1.395 . S
C498 C494 1.343 1_655 S
C498 C497 1.523 1_554 S
H499 C474 0.950 . S
H500 C476 0.950 . S
H501 C477 0.949 . S
H502 C479 0.950 . S
H503 C481 0.950 . S
C504 C505 1.349 . S
C504 C506 1.327 . S
C504 H529 0.950 1_554 S
C505 C504 1.349 . S
C505 C521 1.349 1_455 S
C506 C504 1.327 . S
C506 C525 1.429 1_455 S
C506 H530 0.950 . S
C507 C524 1.574 . S
C507 C526 1.368 . S
C507 H531 0.949 . S
H508 C512 0.969 . S
C509 C510 1.349 . S
C509 C511 1.327 . S
C509 H532 0.950 . S
C510 C509 1.349 . S
C510 C522 1.349 . S
C511 C509 1.327 . S
C511 C527 1.429 . S
C511 H533 0.950 . S
C512 H508 0.969 . S
C512 C520 1.574 . S
C512 C528 1.368 . S
H513 C521 0.950 . S
H514 C519 0.950 . S
H515 C520 0.949 1_455 S
H516 C522 0.950 . S
H517 C523 0.950 . S
H518 C524 0.949 . S
C519 H514 0.950 . S
C519 C521 1.327 . S
C519 C525 1.429 . S
C520 C512 1.574 . S
C520 H515 0.949 1_655 S
C520 C526 1.368 . S
C521 C505 1.349 1_655 S
C521 H513 0.950 . S
C521 C519 1.327 . S
C522 C510 1.349 . S
C522 H516 0.950 . S
C522 C523 1.327 . S
C523 H517 0.950 . S
C523 C522 1.327 . S
C523 C527 1.429 . S
C524 C507 1.574 . S
C524 H518 0.949 . S
C524 C528 1.368 . S
C525 C506 1.429 1_655 S
C525 C519 1.429 . S
C525 C526 1.523 . S
C526 C507 1.368 . S
C526 C520 1.368 . S
C526 C525 1.523 . S
C527 C511 1.429 . S
C527 C523 1.429 . S
C527 C528 1.523 . S
C528 C512 1.368 . S
C528 C524 1.368 . S
C528 C527 1.523 . S
H529 C504 0.950 1_556 S
H530 C506 0.950 . S
H531 C507 0.949 . S
H532 C509 0.950 . S
H533 C511 0.950 . S
C534 C535 1.349 1_565 S
C534 C536 1.327 . S
C534 H559 0.950 1_554 S
C535 C534 1.349 1_545 S
C535 C551 1.349 . S
C536 C534 1.327 . S
C536 C555 1.429 . S
C536 H560 0.950 . S
C537 C554 1.574 1_545 S
C537 C556 1.368 1_545 S
C537 H561 0.949 . S
H538 C542 0.949 . S
C539 C540 1.349 . S
C539 C541 1.327 . S
C539 H562 0.950 . S
C540 C539 1.349 . S
C540 C552 1.349 . S
C541 C539 1.327 . S
C541 C557 1.429 . S
C541 H563 0.950 . S
C542 H538 0.949 . S
C542 C550 1.574 . S
C542 C558 1.368 . S
H543 C551 0.950 . S
H544 C549 0.950 . S
H545 C550 0.949 . S
H546 C552 0.950 . S
H547 C553 0.950 . S
H548 C554 0.949 1_545 S
C549 H544 0.950 . S
C549 C551 1.327 . S
C549 C555 1.429 1_545 S
C550 C542 1.574 . S
C550 H545 0.949 . S
C550 C556 1.368 . S
C551 C535 1.349 . S
C551 H543 0.950 . S
C551 C549 1.327 . S
C552 C540 1.349 . S
C552 H546 0.950 . S
C552 C553 1.327 . S
C553 H547 0.950 . S
C553 C552 1.327 . S
C553 C557 1.429 . S
C554 C537 1.574 1_565 S
C554 H548 0.949 1_565 S
C554 C558 1.368 . S
C555 C536 1.429 . S
C555 C549 1.429 1_565 S
C555 C556 1.523 . S
C556 C537 1.368 1_565 S
C556 C550 1.368 . S
C556 C555 1.523 . S
C557 C541 1.429 . S
C557 C553 1.429 . S
C557 C558 1.523 . S
C558 C542 1.368 . S
C558 C554 1.368 . S
C558 C557 1.523 . S
H559 C534 0.950 1_556 S
H560 C536 0.950 . S
H561 C537 0.949 . S
H562 C539 0.950 . S
H563 C541 0.950 . S
C564 C565 1.349 . S
C564 C566 1.327 . S
C564 H589 0.950 . S
C565 C564 1.349 . S
C565 C581 1.349 . S
C566 C564 1.327 . S
C566 C585 1.429 . S
C566 H590 0.950 . S
C567 C584 1.574 . S
C567 C586 1.368 . S
C567 H591 0.949 . S
H568 C572 0.949 . S
C569 C570 1.349 . S
C569 C571 1.327 . S
C569 H592 0.950 . S
C570 C569 1.349 . S
C570 C582 1.349 . S
C571 C569 1.327 . S
C571 C587 1.429 . S
C571 H593 0.950 . S
C572 H568 0.949 . S
C572 C580 1.574 . S
C572 C588 1.368 . S
H573 C581 0.950 . S
H574 C579 0.950 . S
H575 C580 0.949 . S
H576 C582 0.950 . S
H577 C583 0.950 . S
H578 C584 0.949 . S
C579 H574 0.950 . S
C579 C581 1.327 . S
C579 C585 1.429 . S
C580 C572 1.574 . S
C580 H575 0.949 . S
C580 C586 1.368 . S
C581 C565 1.349 . S
C581 H573 0.950 . S
C581 C579 1.327 . S
C582 C570 1.349 . S
C582 H576 0.950 . S
C582 C583 1.327 . S
C583 H577 0.950 . S
C583 C582 1.327 . S
C583 C587 1.429 . S
C584 C567 1.574 . S
C584 H578 0.949 . S
C584 C588 1.368 . S
C585 C566 1.429 . S
C585 C579 1.429 . S
C585 C586 1.523 . S
C586 C567 1.368 . S
C586 C580 1.368 . S
C586 C585 1.523 . S
C587 C571 1.429 . S
C587 C583 1.429 . S
C587 C588 1.523 . S
C588 C572 1.368 . S
C588 C584 1.368 . S
C588 C587 1.523 . S
H589 C564 0.950 . S
H590 C566 0.950 . S
H591 C567 0.949 . S
H592 C569 0.950 . S
H593 C571 0.950 . S
C594 C595 1.349 . S
C594 C596 1.327 . S
C594 H619 0.950 . S
C595 C594 1.349 . S
C595 C611 1.349 . S
C596 C594 1.327 . S
C596 C615 1.429 . S
C596 H620 0.950 . S
C597 C614 1.574 . S
C597 C616 1.368 . S
C597 H621 0.949 . S
H598 C602 0.949 . S
C599 C600 1.349 . S
C599 C601 1.327 . S
C599 H622 0.950 . S
C600 C599 1.349 . S
C600 C612 1.349 . S
C601 C599 1.327 . S
C601 C617 1.429 . S
C601 H623 0.950 . S
C602 H598 0.949 . S
C602 C610 1.574 . S
C602 C618 1.368 . S
H603 C611 0.950 . S
H604 C609 0.950 . S
H605 C610 0.949 . S
H606 C612 0.950 . S
H607 C613 0.950 . S
H608 C614 0.949 . S
C609 H604 0.950 . S
C609 C611 1.327 . S
C609 C615 1.429 . S
C610 C602 1.574 . S
C610 H605 0.949 . S
C610 C616 1.368 . S
C611 C595 1.349 . S
C611 H603 0.950 . S
C611 C609 1.327 . S
C612 C600 1.349 . S
C612 H606 0.950 . S
C612 C613 1.327 . S
C613 H607 0.950 . S
C613 C612 1.327 . S
C613 C617 1.429 . S
C614 C597 1.574 . S
C614 H608 0.949 . S
C614 C618 1.368 . S
C615 C596 1.429 . S
C615 C609 1.429 . S
C615 C616 1.523 . S
C616 C597 1.368 . S
C616 C610 1.368 . S
C616 C615 1.523 . S
C617 C601 1.429 . S
C617 C613 1.429 . S
C617 C618 1.523 . S
C618 C602 1.368 . S
C618 C614 1.368 . S
C618 C617 1.523 . S
H619 C594 0.950 . S
H620 C596 0.950 . S
H621 C597 0.949 . S
H622 C599 0.950 . S
H623 C601 0.950 . S
C624 C625 1.349 1_455 S
C624 C626 1.327 . S
C624 H649 0.950 . S
C625 C624 1.349 1_655 S
C625 C641 1.349 . S
C626 C624 1.327 . S
C626 C645 1.429 . S
C626 H650 0.950 . S
C627 C644 1.574 . S
C627 C646 1.368 . S
C627 H651 0.949 . S
H628 C632 0.949 . S
C629 C630 1.349 1_556 S
C629 C631 1.327 1_556 S
C629 H652 0.950 . S
C630 C629 1.349 1_554 S
C630 C642 1.349 . S
C631 C629 1.327 1_554 S
C631 C647 1.429 . S
C631 H653 0.950 1_554 S
C632 H628 0.949 . S
C632 C640 1.574 . S
C632 C648 1.368 . S
H633 C641 0.950 . S
H634 C639 0.950 . S
H635 C640 0.949 . S
H636 C642 0.950 . S
H637 C643 0.950 . S
H638 C644 0.949 . S
C639 H634 0.950 . S
C639 C641 1.327 . S
C639 C645 1.429 1_655 S
C640 C632 1.574 . S
C640 H635 0.949 . S
C640 C646 1.368 . S
C641 C625 1.349 . S
C641 H633 0.950 . S
C641 C639 1.327 . S
C642 C630 1.349 . S
C642 H636 0.950 . S
C642 C643 1.327 . S
C643 H637 0.950 . S
C643 C642 1.327 . S
C643 C647 1.429 . S
C644 C627 1.574 . S
C644 H638 0.949 . S
C644 C648 1.368 . S
C645 C626 1.429 . S
C645 C639 1.429 1_455 S
C645 C646 1.523 . S
C646 C627 1.368 . S
C646 C640 1.368 . S
C646 C645 1.523 . S
C647 C631 1.429 . S
C647 C643 1.429 . S
C647 C648 1.523 . S
C648 C632 1.368 . S
C648 C644 1.368 . S
C648 C647 1.523 . S
H649 C624 0.950 . S
H650 C626 0.950 . S
H651 C627 0.949 . S
H652 C629 0.950 . S
H653 C631 0.950 1_556 S
C654 C655 1.349 . S
C654 C656 1.327 . S
C654 H679 0.950 . S
C655 C654 1.349 . S
C655 C671 1.349 1_565 S
C656 C654 1.327 . S
C656 C675 1.429 1_565 S
C656 H680 0.950 . S
C657 C674 1.574 . S
C657 C676 1.368 . S
C657 H681 0.949 . S
H658 C662 0.949 1_565 S
C659 C660 1.349 . S
C659 C661 1.327 . S
C659 H682 0.950 1_554 S
C660 C659 1.349 . S
C660 C672 1.349 . S
C661 C659 1.327 . S
C661 C677 1.429 . S
C661 H683 0.950 . S
C662 H658 0.949 1_545 S
C662 C670 1.574 1_545 S
C662 C678 1.368 . S
H663 C671 0.950 . S
H664 C669 0.950 . S
H665 C670 0.949 . S
H666 C672 0.950 . S
H667 C673 0.908 1_565 S
H668 C674 0.949 . S
C669 H664 0.950 . S
C669 C671 1.327 . S
C669 C675 1.429 . S
C670 C662 1.574 1_565 S
C670 H665 0.949 . S
C670 C676 1.368 1_565 S
C671 C655 1.349 1_545 S
C671 H663 0.950 . S
C671 C669 1.327 . S
C672 C660 1.349 . S
C672 H666 0.950 . S
C672 C673 1.327 . S
C673 H667 0.908 1_545 S
C673 C672 1.327 . S
C673 C677 1.429 . S
C674 C657 1.574 . S
C674 H668 0.949 . S
C674 C678 1.368 . S
C675 C656 1.429 1_545 S
C675 C669 1.429 . S
C675 C676 1.523 . S
C676 C657 1.368 . S
C676 C670 1.368 1_545 S
C676 C675 1.523 . S
C677 C661 1.429 . S
C677 C673 1.429 . S
C677 C678 1.523 . S
C678 C662 1.368 . S
C678 C674 1.368 . S
C678 C677 1.523 . S
H679 C654 0.950 . S
H680 C656 0.950 . S
H681 C657 0.949 . S
H682 C659 0.950 1_556 S
H683 C661 0.950 . S
C684 C685 1.349 . S
C684 C686 1.327 . S
C684 H709 0.950 . S
C685 C684 1.349 . S
C685 C701 1.349 . S
C686 C684 1.327 . S
C686 C705 1.429 . S
C686 H710 0.950 . S
C687 C704 1.574 . S
C687 C706 1.368 . S
C687 H711 0.949 . S
H688 C692 0.949 . S
C689 C690 1.349 1_556 S
C689 C691 1.327 1_556 S
C689 H712 0.950 . S
C690 C689 1.349 1_554 S
C690 C702 1.349 . S
C691 C689 1.327 1_554 S
C691 C707 1.429 . S
C691 H713 0.950 1_554 S
C692 H688 0.949 . S
C692 C700 1.574 . S
C692 C708 1.368 . S
H693 C701 0.950 . S
H694 C699 0.950 . S
H695 C700 0.949 . S
H696 C702 0.950 . S
H697 C703 0.950 . S
H698 C704 0.949 . S
C699 H694 0.950 . S
C699 C701 1.327 . S
C699 C705 1.429 . S
C700 C692 1.574 . S
C700 H695 0.949 . S
C700 C706 1.368 . S
C701 C685 1.349 . S
C701 H693 0.950 . S
C701 C699 1.327 . S
C702 C690 1.349 . S
C702 H696 0.950 . S
C702 C703 1.327 . S
C703 H697 0.950 . S
C703 C702 1.327 . S
C703 C707 1.429 . S
C704 C687 1.574 . S
C704 H698 0.949 . S
C704 C708 1.368 . S
C705 C686 1.429 . S
C705 C699 1.429 . S
C705 C706 1.523 . S
C706 C687 1.368 . S
C706 C700 1.368 . S
C706 C705 1.523 . S
C707 C691 1.429 . S
C707 C703 1.429 . S
C707 C708 1.523 . S
C708 C692 1.368 . S
C708 C704 1.368 . S
C708 C707 1.523 . S
H709 C684 0.950 . S
H710 C686 0.950 . S
H711 C687 0.949 . S
H712 C689 0.950 . S
H713 C691 0.950 1_556 S
C714 C715 1.349 . S
C714 C716 1.327 . S
C714 H739 0.950 . S
C715 C714 1.349 . S
C715 C731 1.349 . S
C716 C714 1.327 . S
C716 C735 1.429 . S
C716 H740 0.950 . S
C717 C734 1.574 . S
C717 C736 1.368 . S
C717 H741 0.949 . S
H718 C722 0.949 . S
C719 C720 1.349 . S
C719 C721 1.327 . S
C719 H742 0.950 . S
C720 C719 1.349 . S
C720 C732 1.349 . S
C721 C719 1.327 . S
C721 C737 1.429 . S
C721 H743 0.950 . S
C722 H718 0.949 . S
C722 C730 1.574 . S
C722 C738 1.368 . S
H723 C731 0.950 . S
H724 C729 0.950 . S
H725 C730 0.949 . S
H726 C732 0.950 1_556 S
H727 C733 0.950 . S
H728 C734 0.949 . S
C729 H724 0.950 . S
C729 C731 1.327 . S
C729 C735 1.429 . S
C730 C722 1.574 . S
C730 H725 0.949 . S
C730 C736 1.368 . S
C731 C715 1.349 . S
C731 H723 0.950 . S
C731 C729 1.327 . S
C732 C720 1.349 . S
C732 H726 0.950 1_554 S
C732 C733 1.327 . S
C733 H727 0.950 . S
C733 C732 1.327 . S
C733 C737 1.429 . S
C734 C717 1.574 . S
C734 H728 0.949 . S
C734 C738 1.368 . S
C735 C716 1.429 . S
C735 C729 1.429 . S
C735 C736 1.523 . S
C736 C717 1.368 . S
C736 C730 1.368 . S
C736 C735 1.523 . S
C737 C721 1.429 . S
C737 C733 1.429 . S
C737 C738 1.523 . S
C738 C722 1.368 . S
C738 C734 1.368 . S
C738 C737 1.523 . S
H739 C714 0.950 . S
H740 C716 0.950 . S
H741 C717 0.949 . S
H742 C719 0.950 . S
H743 C721 0.950 . S
C744 C745 1.349 . S
C744 C746 1.327 . S
C744 H769 0.950 . S
C745 C744 1.349 . S
C745 C761 1.349 1_455 S
C746 C744 1.327 . S
C746 C765 1.429 . S
C746 H770 0.950 . S
C747 C764 1.574 . S
C747 C766 1.368 1_655 S
C747 H771 0.949 . S
H748 C752 0.949 . S
C749 C750 1.349 1_655 S
C749 C751 1.327 . S
C749 H772 0.950 . S
C750 C749 1.349 1_455 S
C750 C762 1.349 . S
C751 C749 1.327 . S
C751 C767 1.429 1_655 S
C751 H773 0.950 . S
C752 H748 0.949 . S
C752 C760 1.574 . S
C752 C768 1.368 . S
H753 C761 0.950 1_554 S
H754 C759 0.950 1_554 S
H755 C760 0.949 . S
H756 C762 0.950 . S
H757 C763 0.950 . S
H758 C764 0.949 . S
C759 H754 0.950 1_556 S
C759 C761 1.327 . S
C759 C765 1.429 1_655 S
C760 C752 1.574 . S
C760 H755 0.949 . S
C760 C766 1.368 . S
C761 C745 1.349 1_655 S
C761 H753 0.950 1_556 S
C761 C759 1.327 . S
C762 C750 1.349 . S
C762 H756 0.950 . S
C762 C763 1.327 . S
C763 H757 0.950 . S
C763 C762 1.327 . S
C763 C767 1.429 . S
C764 C747 1.574 . S
C764 H758 0.949 . S
C764 C768 1.368 1_655 S
C765 C746 1.429 . S
C765 C759 1.429 1_455 S
C765 C766 1.523 . S
C766 C747 1.368 1_455 S
C766 C760 1.368 . S
C766 C765 1.523 . S
C767 C751 1.429 1_455 S
C767 C763 1.429 . S
C767 C768 1.523 . S
C768 C752 1.368 . S
C768 C764 1.368 1_455 S
C768 C767 1.523 . S
H769 C744 0.950 . S
H770 C746 0.950 . S
H771 C747 0.949 . S
H772 C749 0.950 . S
H773 C751 0.950 . S
C774 C775 1.349 . S
C774 C776 1.327 . S
C774 H799 0.950 1_556 S
C775 C774 1.349 . S
C775 C791 1.349 1_545 S
C776 C774 1.327 . S
C776 C795 1.429 . S
C776 H800 0.950 . S
C777 C794 1.574 . S
C777 C796 1.368 1_565 S
C777 H801 0.949 . S
H778 C782 0.949 . S
C779 C780 1.349 1_565 S
C779 C781 1.327 . S
C779 H802 0.950 . S
C780 C779 1.349 1_545 S
C780 C792 1.349 . S
C781 C779 1.327 . S
C781 C797 1.429 1_565 S
C781 H803 0.950 . S
C782 H778 0.949 . S
C782 C790 1.574 . S
C782 C798 1.368 . S
H783 C791 0.950 . S
H784 C789 0.950 . S
H785 C790 0.949 . S
H786 C792 0.950 . S
H787 C793 0.950 . S
H788 C794 0.949 . S
C789 H784 0.950 . S
C789 C791 1.327 . S
C789 C795 1.429 1_565 S
C790 C782 1.574 . S
C790 H785 0.949 . S
C790 C796 1.368 . S
C791 C775 1.349 1_565 S
C791 H783 0.950 . S
C791 C789 1.327 . S
C792 C780 1.349 . S
C792 H786 0.950 . S
C792 C793 1.327 . S
C793 H787 0.950 . S
C793 C792 1.327 . S
C793 C797 1.429 . S
C794 C777 1.574 . S
C794 H788 0.949 . S
C794 C798 1.368 1_565 S
C795 C776 1.429 . S
C795 C789 1.429 1_545 S
C795 C796 1.523 . S
C796 C777 1.368 1_545 S
C796 C790 1.368 . S
C796 C795 1.523 . S
C797 C781 1.429 1_545 S
C797 C793 1.429 . S
C797 C798 1.523 . S
C798 C782 1.368 . S
C798 C794 1.368 1_545 S
C798 C797 1.523 . S
H799 C774 0.950 1_554 S
H800 C776 0.950 . S
H801 C777 0.949 . S
H802 C779 0.950 . S
H803 C781 0.950 . S
C804 C805 1.349 . S
C804 C806 1.327 . S
C804 H829 0.950 1_556 S
C805 C804 1.349 . S
C805 C821 1.349 . S
C806 C804 1.327 . S
C806 C825 1.429 . S
C806 H830 0.950 1_556 S
C807 C824 1.574 . S
C807 C826 1.368 . S
C807 H831 0.949 . S
H808 C812 0.949 . S
C809 C810 1.349 . S
C809 C811 1.327 . S
C809 H832 0.950 . S
C810 C809 1.349 . S
C810 C822 1.349 . S
C811 C809 1.327 . S
C811 C827 1.429 . S
C811 H833 0.950 . S
C812 H808 0.949 . S
C812 C820 1.574 . S
C812 C828 1.368 . S
H813 C821 0.950 . S
H814 C819 0.950 . S
H815 C820 0.949 . S
H816 C822 0.950 . S
H817 C823 0.950 . S
H818 C824 0.949 . S
C819 H814 0.950 . S
C819 C821 1.327 . S
C819 C825 1.429 . S
C820 C812 1.574 . S
C820 H815 0.949 . S
C820 C826 1.368 . S
C821 C805 1.349 . S
C821 H813 0.950 . S
C821 C819 1.327 . S
C822 C810 1.349 . S
C822 H816 0.950 . S
C822 C823 1.327 . S
C823 H817 0.950 . S
C823 C822 1.327 . S
C823 C827 1.429 . S
C824 C807 1.574 . S
C824 H818 0.949 . S
C824 C828 1.368 . S
C825 C806 1.429 . S
C825 C819 1.429 . S
C825 C826 1.523 . S
C826 C807 1.368 . S
C826 C820 1.368 . S
C826 C825 1.523 . S
C827 C811 1.429 . S
C827 C823 1.429 . S
C827 C828 1.523 . S
C828 C812 1.368 . S
C828 C824 1.368 . S
C828 C827 1.523 . S
H829 C804 0.950 1_554 S
H830 C806 0.950 1_554 S
H831 C807 0.949 . S
H832 C809 0.950 . S
H833 C811 0.950 . S
C834 C835 1.349 . S
C834 C836 1.327 . S
C834 H859 0.950 . S
C835 C834 1.349 . S
C835 C851 1.349 . S
C836 C834 1.327 . S
C836 C855 1.429 . S
C836 H860 0.950 . S
C837 C854 1.574 . S
C837 C856 1.368 . S
C837 H861 0.949 . S
H838 C842 0.949 . S
C839 C840 1.349 . S
C839 C841 1.327 . S
C839 H862 0.950 . S
C840 C839 1.349 . S
C840 C852 1.349 . S
C841 C839 1.327 . S
C841 C857 1.429 . S
C841 H863 0.950 . S
C842 H838 0.949 . S
C842 C850 1.574 . S
C842 C858 1.368 . S
H843 C851 0.950 1_554 S
H844 C849 0.953 . S
H845 C850 0.949 . S
H846 C852 0.950 . S
H847 C853 0.950 . S
H848 C854 0.949 . S
C849 H844 0.953 . S
C849 C851 1.327 . S
C849 C855 1.429 . S
C850 C842 1.574 . S
C850 H845 0.949 . S
C850 C856 1.368 . S
C851 C835 1.349 . S
C851 H843 0.950 1_556 S
C851 C849 1.327 . S
C852 C840 1.349 . S
C852 H846 0.950 . S
C852 C853 1.327 . S
C853 H847 0.950 . S
C853 C852 1.327 . S
C853 C857 1.429 . S
C854 C837 1.574 . S
C854 H848 0.949 . S
C854 C858 1.368 . S
C855 C836 1.429 . S
C855 C849 1.429 . S
C855 C856 1.523 . S
C856 C837 1.368 . S
C856 C850 1.368 . S
C856 C855 1.523 . S
C857 C841 1.429 . S
C857 C853 1.429 . S
C857 C858 1.523 . S
C858 C842 1.368 . S
C858 C854 1.368 . S
C858 C857 1.523 . S
H859 C834 0.950 . S
H860 C836 0.950 . S
H861 C837 0.949 . S
H862 C839 0.950 . S
H863 C841 0.950 . S
C864 C865 1.349 . S
C864 C866 1.327 . S
C864 H889 0.950 . S
C865 C864 1.349 . S
C865 C881 1.349 1_655 S
C866 C864 1.327 . S
C866 C885 1.429 . S
C866 H890 0.950 . S
C867 C884 1.574 . S
C867 C886 1.368 1_455 S
C867 H891 0.949 . S
H868 C872 0.949 . S
C869 C870 1.349 1_455 S
C869 C871 1.327 . S
C869 H892 0.950 . S
C870 C869 1.349 1_655 S
C870 C882 1.349 . S
C871 C869 1.327 . S
C871 C887 1.429 1_455 S
C871 H893 0.950 . S
C872 H868 0.949 . S
C872 C880 1.574 . S
C872 C888 1.368 . S
H873 C881 0.950 . S
H874 C879 0.950 . S
H875 C880 0.949 . S
H876 C882 0.950 . S
H877 C883 0.950 . S
H878 C884 0.949 . S
C879 H874 0.950 . S
C879 C881 1.327 . S
C879 C885 1.429 1_455 S
C880 C872 1.574 . S
C880 H875 0.949 . S
C880 C886 1.368 . S
C881 C865 1.349 1_455 S
C881 H873 0.950 . S
C881 C879 1.327 . S
C882 C870 1.349 . S
C882 H876 0.950 . S
C882 C883 1.327 . S
C883 H877 0.950 . S
C883 C882 1.327 . S
C883 C887 1.429 . S
C884 C867 1.574 . S
C884 H878 0.949 . S
C884 C888 1.368 1_455 S
C885 C866 1.429 . S
C885 C879 1.429 1_655 S
C885 C886 1.523 . S
C886 C867 1.368 1_655 S
C886 C880 1.368 . S
C886 C885 1.523 . S
C887 C871 1.429 1_655 S
C887 C883 1.429 . S
C887 C888 1.523 . S
C888 C872 1.368 . S
C888 C884 1.368 1_655 S
C888 C887 1.523 . S
H889 C864 0.950 . S
H890 C866 0.950 . S
H891 C867 0.949 . S
H892 C869 0.950 . S
H893 C871 0.950 . S
C894 C895 1.387 . S
C894 C896 1.327 . S
C894 H919 0.950 . S
C895 C894 1.387 . S
C895 C911 1.314 1_565 S
C896 C894 1.327 . S
C896 C915 1.429 . S
C896 H920 0.950 . S
C897 C914 1.574 . S
C897 C916 1.368 1_545 S
C897 H921 0.949 . S
H898 C902 0.949 . S
C899 C900 1.349 1_545 S
C899 C901 1.327 . S
C899 H922 0.950 . S
C900 C899 1.349 1_565 S
C900 C912 1.349 . S
C901 C899 1.327 . S
C901 C917 1.429 1_545 S
C901 H923 0.950 . S
C902 H898 0.949 . S
C902 C910 1.574 . S
C902 C918 1.368 . S
H903 C911 0.950 . S
H904 C909 0.950 . S
H905 C910 0.949 . S
H906 C912 0.950 . S
H907 C913 0.950 . S
H908 C914 0.949 . S
C909 H904 0.950 . S
C909 C911 1.327 . S
C909 C915 1.429 1_545 S
C910 C902 1.574 . S
C910 H905 0.949 . S
C910 C916 1.368 . S
C911 C895 1.314 1_545 S
C911 H903 0.950 . S
C911 C909 1.327 . S
C912 C900 1.349 . S
C912 H906 0.950 . S
C912 C913 1.327 . S
C913 H907 0.950 . S
C913 C912 1.327 . S
C913 C917 1.429 . S
C914 C897 1.574 . S
C914 H908 0.949 . S
C914 C918 1.368 1_545 S
C915 C896 1.429 . S
C915 C909 1.429 1_565 S
C915 C916 1.523 . S
C916 C897 1.368 1_565 S
C916 C910 1.368 . S
C916 C915 1.523 . S
C917 C901 1.429 1_565 S
C917 C913 1.429 . S
C917 C918 1.523 . S
C918 C902 1.368 . S
C918 C914 1.368 1_565 S
C918 C917 1.523 . S
H919 C894 0.950 . S
H920 C896 0.950 . S
H921 C897 0.949 . S
H922 C899 0.950 . S
H923 C901 0.950 . S
C924 C925 1.349 . S
C924 C926 1.327 . S
C924 H949 0.950 . S
C925 C924 1.349 . S
C925 C941 1.349 . S
C926 C924 1.327 . S
C926 C945 1.429 . S
C926 H950 0.950 . S
C927 C944 1.574 . S
C927 C946 1.368 . S
C927 H951 0.949 . S
H928 C932 0.949 . S
C929 C930 1.349 . S
C929 C931 1.327 . S
C929 H952 0.950 . S
C930 C929 1.349 . S
C930 C942 1.349 . S
C931 C929 1.327 . S
C931 C947 1.429 . S
C931 H953 0.950 . S
C932 H928 0.949 . S
C932 C940 1.574 . S
C932 C948 1.368 . S
H933 C941 0.950 . S
H934 C939 0.950 . S
H935 C940 0.949 . S
H936 C942 0.950 . S
H937 C943 0.950 . S
H938 C944 0.949 . S
C939 H934 0.950 . S
C939 C941 1.327 . S
C939 C945 1.429 . S
C940 C932 1.574 . S
C940 H935 0.949 . S
C940 C946 1.368 . S
C941 C925 1.349 . S
C941 H933 0.950 . S
C941 C939 1.327 . S
C942 C930 1.349 . S
C942 H936 0.950 . S
C942 C943 1.327 . S
C943 H937 0.950 . S
C943 C942 1.327 . S
C943 C947 1.429 . S
C944 C927 1.574 . S
C944 H938 0.949 . S
C944 C948 1.368 . S
C945 C926 1.429 . S
C945 C939 1.429 . S
C945 C946 1.523 . S
C946 C927 1.368 . S
C946 C940 1.368 . S
C946 C945 1.523 . S
C947 C931 1.429 . S
C947 C943 1.429 . S
C947 C948 1.523 . S
C948 C932 1.368 . S
C948 C944 1.368 . S
C948 C947 1.523 . S
H949 C924 0.950 . S
H950 C926 0.950 . S
H951 C927 0.949 . S
H952 C929 0.950 . S
H953 C931 0.950 . S
C954 C955 1.349 . S
C954 C956 1.327 . S
C954 H979 0.950 . S
C955 C954 1.349 . S
C955 C971 1.349 . S
C956 C954 1.327 . S
C956 C975 1.429 . S
C956 H980 0.950 . S
C957 C974 1.574 . S
C957 C976 1.368 . S
C957 H981 0.949 . S
H958 C962 0.949 . S
C959 C960 1.349 . S
C959 C961 1.327 . S
C959 H982 0.950 . S
C960 C959 1.349 . S
C960 C972 1.349 . S
C961 C959 1.327 . S
C961 C977 1.429 . S
C961 H983 0.950 . S
C962 H958 0.949 . S
C962 C970 1.574 . S
C962 C978 1.368 . S
H963 C971 0.950 . S
H964 C969 0.950 . S
H965 C970 0.949 . S
H966 C972 0.950 . S
H967 C973 0.950 . S
H968 C974 0.949 . S
C969 H964 0.950 . S
C969 C971 1.327 . S
C969 C975 1.429 . S
C970 C962 1.574 . S
C970 H965 0.949 . S
C970 C976 1.368 . S
C971 C955 1.349 . S
C971 H963 0.950 . S
C971 C969 1.327 . S
C972 C960 1.349 . S
C972 H966 0.950 . S
C972 C973 1.327 . S
C973 H967 0.950 . S
C973 C972 1.327 . S
C973 C977 1.429 . S
C974 C957 1.574 . S
C974 H968 0.949 . S
C974 C978 1.368 . S
C975 C956 1.429 . S
C975 C969 1.429 . S
C975 C976 1.523 . S
C976 C957 1.368 . S
C976 C970 1.368 . S
C976 C975 1.523 . S
C977 C961 1.429 . S
C977 C973 1.429 . S
C977 C978 1.523 . S
C978 C962 1.368 . S
C978 C974 1.368 . S
C978 C977 1.523 . S
H979 C954 0.950 . S
H980 C956 0.950 . S
H981 C957 0.949 . S
H982 C959 0.950 . S
H983 C961 0.950 . S
C265 N80 1.795 1_545 S
C270 C113 1.826 1_545 S
C300 C153 1.837 . S
C295 N93 1.795 . S
C330 C193 1.838 . S
C325 N54 1.801 . S
C360 C233 1.832 1_455 S
C355 N67 1.797 1_455 S
C390 C122 1.831 1_565 S
C385 N28 1.802 1_545 S
C415 N41 1.798 . S
C420 C162 1.840 . S
C445 N2 1.800 . S
C450 C202 1.838 . S
C475 N15 1.798 . S
C480 C242 1.837 1_655 S
C510 C119 0.290 . S
C505 N70 0.234 1_455 S
C540 C159 0.292 . S
C535 N83 0.243 1_545 S
C570 C199 0.293 . S
C565 N96 0.244 . S
C595 N57 0.241 . S
C600 C239 0.288 . S
C625 N18 0.234 . S
C630 C110 0.285 . S
C660 C150 0.292 . S
C655 N31 0.233 . S
C690 C190 0.293 . S
C685 N44 0.235 . S
C715 N5 0.231 . S
C720 C230 0.295 . S
C745 N66 1.987 1_455 S
C750 C123 2.040 . S
C775 N79 1.981 1_545 S
C780 C163 2.040 . S
C810 C203 2.036 . S
C805 N92 1.977 . S
C840 C243 2.043 . S
C835 N53 1.977 . S
C865 N14 1.983 . S
C870 C114 2.056 . S
C900 C154 2.040 . S
C895 N27 1.977 . S
C930 C194 2.035 . S
C925 N40 1.971 . S
C955 N1 1.979 . S
C960 C234 2.050 . S
