# Generated by pormake.
# Topology zzz, (3,6)-cn, num edge types: 1
# Building blocks:
#     Node 0, Type 0, BuildingBlock: QEWDON_clean_linker_0, # of connection points: 3
#     Node 1, Type 0, BuildingBlock: QEWDON_clean_linker_0, # of connection points: 3
#     Node 2, Type 0, BuildingBlock: QEWDON_clean_linker_0, # of connection points: 3
#     Node 3, Type 0, BuildingBlock: QEWDON_clean_linker_0, # of connection points: 3
#     Node 4, Type 0, BuildingBlock: QEWDON_clean_linker_0, # of connection points: 3
#     Node 5, Type 0, BuildingBlock: QEWDON_clean_linker_0, # of connection points: 3
#     Node 6, Type 0, BuildingBlock: QEWDON_clean_linker_0, # of connection points: 3
#     Node 7, Type 0, BuildingBlock: QEWDON_clean_linker_0, # of connection points: 3
#     Node 8, Type 1, BuildingBlock: MIFKUJ_clean_sbu_0, # of connection points: 6
#     Node 9, Type 1, BuildingBlock: MIFKUJ_clean_sbu_0, # of connection points: 6
#     Node 10, Type 1, BuildingBlock: MIFKUJ_clean_sbu_0, # of connection points: 6
#     Node 11, Type 1, BuildingBlock: MIFKUJ_clean_sbu_0, # of connection points: 6
#     Edge 12, Type (0, 1), BuildingBlock: XIVTED_clean_linker_0, # of connection points: 2
#     Edge 13, Type (0, 1), BuildingBlock: XIVTED_clean_linker_0, # of connection points: 2
#     Edge 14, Type (0, 1), BuildingBlock: XIVTED_clean_linker_0, # of connection points: 2
#     Edge 15, Type (0, 1), BuildingBlock: XIVTED_clean_linker_0, # of connection points: 2
#     Edge 16, Type (0, 1), BuildingBlock: XIVTED_clean_linker_0, # of connection points: 2
#     Edge 17, Type (0, 1), BuildingBlock: XIVTED_clean_linker_0, # of connection points: 2
#     Edge 18, Type (0, 1), BuildingBlock: XIVTED_clean_linker_0, # of connection points: 2
#     Edge 19, Type (0, 1), BuildingBlock: XIVTED_clean_linker_0, # of connection points: 2
#     Edge 20, Type (0, 1), BuildingBlock: XIVTED_clean_linker_0, # of connection points: 2
#     Edge 21, Type (0, 1), BuildingBlock: XIVTED_clean_linker_0, # of connection points: 2
#     Edge 22, Type (0, 1), BuildingBlock: XIVTED_clean_linker_0, # of connection points: 2
#     Edge 23, Type (0, 1), BuildingBlock: XIVTED_clean_linker_0, # of connection points: 2
#     Edge 24, Type (0, 1), BuildingBlock: XIVTED_clean_linker_0, # of connection points: 2
#     Edge 25, Type (0, 1), BuildingBlock: XIVTED_clean_linker_0, # of connection points: 2
#     Edge 26, Type (0, 1), BuildingBlock: XIVTED_clean_linker_0, # of connection points: 2
#     Edge 27, Type (0, 1), BuildingBlock: XIVTED_clean_linker_0, # of connection points: 2
#     Edge 28, Type (0, 1), BuildingBlock: XIVTED_clean_linker_0, # of connection points: 2
#     Edge 29, Type (0, 1), BuildingBlock: XIVTED_clean_linker_0, # of connection points: 2
#     Edge 30, Type (0, 1), BuildingBlock: XIVTED_clean_linker_0, # of connection points: 2
#     Edge 31, Type (0, 1), BuildingBlock: XIVTED_clean_linker_0, # of connection points: 2
#     Edge 32, Type (0, 1), BuildingBlock: XIVTED_clean_linker_0, # of connection points: 2
#     Edge 33, Type (0, 1), BuildingBlock: XIVTED_clean_linker_0, # of connection points: 2
#     Edge 34, Type (0, 1), BuildingBlock: XIVTED_clean_linker_0, # of connection points: 2
#     Edge 35, Type (0, 1), BuildingBlock: XIVTED_clean_linker_0, # of connection points: 2
# Relax obj value: 0.053
# Max RMSD: 0.101
# Mean RMSD: 0.040
data_MOF--net-zzz--node1-MIFKUJ_clean_sbu_0--node2-QEWDON_clean_linker_0--edge1-XIVTED_clean_linker_0
_symmetry_space_group_name_H-M    P1
_symmetry_Int_Tables_number       1
_symmetry_cell_setting            triclinic
loop_
_symmetry_equiv_pos_as_xyz
'x, y, z'
_cell_length_a     54.512035
_cell_length_b     54.366185
_cell_length_c     15.858541
_cell_angle_alpha  89.900948
_cell_angle_beta   90.198823
_cell_angle_gamma 89.964605
loop_
_atom_site_label
_atom_site_type_symbol
_atom_site_fract_x
_atom_site_fract_y
_atom_site_fract_z
_atom_type_partial_charge
H0 H 0.75309 0.50932 0.95687 0.0
C1 C 0.76342 0.50656 0.01462 0.0
C2 C 0.78556 0.49343 0.01154 0.0
C3 C 0.75543 0.5174 0.09052 0.0
H4 H 0.81732 0.48187 0.08213 0.0
C5 C 0.79956 0.49084 0.08513 0.0
C6 C 0.79254 0.50205 0.16046 0.0
C7 C 0.7704 0.51525 0.16337 0.0
C8 C 0.73252 0.53247 0.09144 0.0
H9 H 0.76505 0.52385 0.22204 0.0
C10 C 0.71185 0.52574 0.04249 0.0
C11 C 0.6906 0.54056 0.04092 0.0
C12 C 0.73149 0.55426 0.13902 0.0
H13 H 0.74713 0.5604 0.17557 0.0
C14 C 0.71047 0.56888 0.13816 0.0
H15 H 0.71213 0.5088 0.00664 0.0
C16 C 0.69022 0.56217 0.08951 0.0
H17 H 0.67439 0.57422 0.08876 0.0
H18 H 0.71 0.58569 0.17458 0.0
H19 H 1.00032 0.75419 0.97138 0.0
C20 C 1.00313 0.76412 0.02982 0.0
C21 C 0.01634 0.78624 0.02818 0.0
C22 C 0.99238 0.75559 0.10522 0.0
H23 H 0.02818 0.81746 0.10102 0.0
C24 C 0.01904 0.79973 0.10263 0.0
C25 C 0.00788 0.79218 0.1774 0.0
C26 C 0.99462 0.77006 0.17902 0.0
C27 C 0.97744 0.73259 0.10457 0.0
H28 H 0.98609 0.76432 0.23739 0.0
C29 C 0.98418 0.71235 0.05381 0.0
C30 C 0.96937 0.69113 0.04964 0.0
C31 C 0.95574 0.7311 0.15202 0.0
H32 H 0.94962 0.74641 0.1901 0.0
C33 C 0.94116 0.71005 0.14891 0.0
H34 H 1.00111 0.71297 0.01832 0.0
C35 C 0.94781 0.69026 0.09802 0.0
H36 H 0.93575 0.67446 0.09537 0.0
H37 H 0.92439 0.70922 0.18517 0.0
H38 H 0.7655 0.01102 0.9547 0.0
C39 C 0.75544 0.01541 0.01155 0.0
C40 C 0.7334 0.02863 0.00483 0.0
C41 C 0.76356 0.00637 0.09027 0.0
H42 H 0.70208 0.04231 0.07246 0.0
C43 C 0.71981 0.03335 0.07774 0.0
C44 C 0.727 0.02387 0.15591 0.0
C45 C 0.74894 0.0105 0.16236 0.0
C46 C 0.78608 0.99086 0.09519 0.0
H47 H 0.75433 1.00309 0.22312 0.0
C48 C 0.80675 0.99624 0.04507 0.0
C49 C 0.82761 0.98091 0.04668 0.0
C50 C 0.78668 0.96996 0.14758 0.0
H51 H 0.77096 0.96489 0.18538 0.0
C52 C 0.80734 0.95485 0.14998 0.0
H53 H 0.80676 0.01253 0.00565 0.0
C54 C 0.82762 0.96018 0.09988 0.0
H55 H 0.84315 0.94776 0.1017 0.0
H56 H 0.80749 0.9387 0.19003 0.0
H57 H 0.5123 0.76094 0.97357 0.0
C58 C 0.50882 0.75141 0.03232 0.0
C59 C 0.4965 0.72878 0.02965 0.0
C60 C 0.51765 0.761 0.10942 0.0
H61 H 0.48487 0.6974 0.10214 0.0
C62 C 0.49316 0.71554 0.10436 0.0
C63 C 0.50259 0.72398 0.18083 0.0
C64 C 0.51457 0.74682 0.18383 0.0
C65 C 0.53136 0.7849 0.11068 0.0
H66 H 0.52145 0.75328 0.24395 0.0
C67 C 0.52603 0.80382 0.05183 0.0
C68 C 0.53996 0.82568 0.04975 0.0
C69 C 0.55062 0.78863 0.16867 0.0
H70 H 0.55591 0.77448 0.21321 0.0
C71 C 0.5639 0.81053 0.16875 0.0
H72 H 0.51133 0.80143 0.00659 0.0
C73 C 0.55869 0.82889 0.10993 0.0
H74 H 0.56938 0.84567 0.11175 0.0
H75 H 0.57856 0.81316 0.21403 0.0
H76 H 0.25971 0.53088 0.21043 0.0
C77 C 0.24809 0.52462 0.15925 0.0
C78 C 0.22279 0.52269 0.17248 0.0
C79 C 0.25806 0.51947 0.07912 0.0
H80 H 0.18777 0.51424 0.11771 0.0
C81 C 0.20741 0.51522 0.10689 0.0
C82 C 0.21668 0.51023 0.02685 0.0
C83 C 0.24203 0.51239 0.01287 0.0
C84 C 0.28491 0.52252 0.06379 0.0
H85 H 0.24913 0.50847 0.95061 0.0
C86 C 0.3024 0.51663 0.12676 0.0
C87 C 0.32769 0.51979 0.11198 0.0
C88 C 0.29324 0.53181 0.98609 0.0
H89 H 0.28044 0.53719 0.93706 0.0
C90 C 0.31824 0.53483 0.97111 0.0
H91 H 0.29645 0.50911 0.18659 0.0
C92 C 0.33536 0.52886 0.03333 0.0
H93 H 0.35464 0.5318 0.0204 0.0
H94 H 0.32438 0.54208 0.91116 0.0
H95 H 0.98858 0.26337 0.20812 0.0
C96 C 0.9948 0.25195 0.15652 0.0
C97 C 0.99807 0.22675 0.17033 0.0
C98 C 0.99853 0.26204 0.07544 0.0
H99 H 0.00739 0.19194 0.11557 0.0
C100 C 0.00542 0.21155 0.10431 0.0
C101 C 0.00883 0.22089 0.02325 0.0
C102 C 0.00537 0.24617 0.00866 0.0
C103 C 0.99422 0.28881 0.0601 0.0
H104 H 0.00806 0.2533 0.94557 0.0
C105 C 0.99995 0.30648 0.12239 0.0
C106 C 0.99531 0.33167 0.10855 0.0
C107 C 0.98378 0.29686 0.98358 0.0
H108 H 0.97851 0.28389 0.93509 0.0
C109 C 0.9794 0.3218 0.96927 0.0
H110 H 0.00841 0.30076 0.18114 0.0
C111 C 0.98509 0.3391 0.03111 0.0
H112 H 0.98101 0.35829 0.0189 0.0
H113 H 0.97126 0.32773 0.91029 0.0
H114 H 0.25271 1.00445 0.2016 0.0
C115 C 0.26251 0.01118 0.14686 0.0
C116 C 0.28622 0.02043 0.15745 0.0
C117 C 0.25208 0.00933 0.06568 0.0
H118 H 0.3186 0.03362 0.09617 0.0
C119 C 0.29969 0.0279 0.08727 0.0
C120 C 0.29039 0.02497 0.00561 0.0
C121 C 0.26637 0.01598 -0.00505 0.0
C122 C 0.22722 0.99834 0.05559 0.0
H123 H 0.25917 0.01363 0.93173 0.0
C124 C 0.20865 1.00324 0.115 0.0
C125 C 0.18613 0.99075 0.11156 0.0
C126 C 0.22237 0.98151 0.9903 0.0
H127 H 0.23629 0.97697 0.94434 0.0
C128 C 0.19976 0.96951 0.98563 0.0
H129 H 0.21194 0.01624 0.16554 0.0
C130 C 0.18182 0.97385 0.04642 0.0
H131 H 0.16456 0.96403 0.04261 0.0
H132 H 0.19631 0.95642 0.93563 0.0
H133 H 0.52812 0.25285 0.21056 0.0
C134 C 0.52178 0.26422 0.15871 0.0
C135 C 0.51769 0.28927 0.17273 0.0
C136 C 0.51862 0.25422 0.07728 0.0
H137 H 0.50782 0.324 0.1179 0.0
C138 C 0.51026 0.30446 0.10642 0.0
C139 C 0.50756 0.29527 0.02485 0.0
C140 C 0.5117 0.27011 0.01022 0.0
C141 C 0.52362 0.22758 0.06193 0.0
H142 H 0.50948 0.26307 0.94681 0.0
C143 C 0.51811 0.2096 0.12359 0.0
C144 C 0.52316 0.18453 0.10919 0.0
C145 C 0.53442 0.21995 0.98582 0.0
H146 H 0.53957 0.23316 0.93791 0.0
C147 C 0.53928 0.19514 0.97112 0.0
H148 H 0.50943 0.21495 0.18211 0.0
C149 C 0.53369 0.17754 0.0321 0.0
H150 H 0.53802 0.15845 0.01951 0.0
H151 H 0.54765 0.18955 0.9124 0.0
Zn152 Zn 1.00281 0.03384 0.56989 0.0
Zn153 Zn 0.0216 0.97871 0.63088 0.0
C154 C 0.99469 0.06624 0.69896 0.0
O155 O 0.97284 0.06169 0.66742 0.0
C156 C 0.02658 0.94785 0.49562 0.0
O157 O 0.04895 0.95126 0.52436 0.0
O158 O 0.9912 0.06238 0.49892 0.0
O159 O 0.03214 0.02069 0.50583 0.0
O160 O 0.05148 0.99864 0.60209 0.0
C161 C 0.00769 0.07893 0.49586 0.0
O162 O 0.02952 0.07399 0.52698 0.0
O163 O 0.01261 0.05297 0.67479 0.0
C164 C 0.01503 0.93302 0.69896 0.0
O165 O 0.99331 0.93908 0.66929 0.0
O166 O 0.0321 0.94898 0.69771 0.0
O167 O 0.9947 0.99384 0.70031 0.0
O168 O 0.97379 0.01206 0.59919 0.0
O169 O 0.00944 0.96119 0.5252 0.0
C170 C 0.05166 0.01064 0.53334 0.0
C171 C 0.97444 1.00166 0.671 0.0
Zn172 Zn 0.47808 1.00135 0.57019 0.0
Zn173 Zn 0.54117 0.01758 0.60884 0.0
C174 C 0.44537 0.99853 0.69826 0.0
O175 O 0.44877 0.97587 0.672 0.0
C176 C 0.57083 0.03192 0.47638 0.0
O177 O 0.56632 0.05273 0.51539 0.0
O178 O 0.44857 0.99315 0.49865 0.0
O179 O 0.49579 0.02683 0.49956 0.0
O180 O 0.51748 0.04606 0.59582 0.0
C181 C 0.43578 0.01259 0.48925 0.0
O182 O 0.44475 0.03358 0.51635 0.0
O183 O 0.45969 0.01522 0.67081 0.0
C184 C 0.58761 0.01273 0.67235 0.0
O185 O 0.5837 0.99205 0.63165 0.0
O186 O 0.56999 0.02795 0.67991 0.0
O187 O 0.53074 0.98462 0.65618 0.0
O188 O 0.49521 0.97031 0.60874 0.0
O189 O 0.55878 0.01289 0.49795 0.0
C190 C 0.5058 0.04639 0.52643 0.0
C191 C 0.51489 0.96753 0.65092 0.0
Zn192 Zn 0.51425 0.48233 0.56764 0.0
Zn193 Zn 0.49417 0.53562 0.63195 0.0
C194 C 0.52175 0.44985 0.69728 0.0
O195 O 0.54366 0.4543 0.66644 0.0
C196 C 0.4873 0.56759 0.49928 0.0
O197 O 0.46513 0.56313 0.5277 0.0
O198 O 0.52535 0.45347 0.49763 0.0
O199 O 0.48558 0.49627 0.50102 0.0
O200 O 0.46486 0.51467 0.60155 0.0
C201 C 0.50833 0.43746 0.49467 0.0
O202 O 0.48661 0.44322 0.52453 0.0
O203 O 0.50393 0.46327 0.67247 0.0
C204 C 0.49997 0.58049 0.7049 0.0
O205 O 0.52178 0.57478 0.67577 0.0
O206 O 0.48298 0.56447 0.70121 0.0
O207 O 0.52236 0.5213 0.69945 0.0
O208 O 0.54347 0.50368 0.59822 0.0
O209 O 0.505 0.55461 0.52759 0.0
C210 C 0.46539 0.50431 0.52986 0.0
C211 C 0.54276 0.51401 0.67002 0.0
Zn212 Zn 0.03087 0.51835 0.56796 0.0
Zn213 Zn 0.97764 0.49638 0.62481 0.0
C214 C 0.06287 0.52381 0.69981 0.0
O215 O 0.05875 0.54625 0.67216 0.0
C216 C 0.94835 0.4893 0.48562 0.0
O217 O 0.95324 0.46707 0.51366 0.0
O218 O 0.05982 0.53072 0.50088 0.0
O219 O 0.01752 0.49038 0.49714 0.0
O220 O 1.00022 0.46814 0.5963 0.0
C221 C 0.07627 0.51411 0.49719 0.0
O222 O 0.07103 0.49193 0.52486 0.0
O223 O 0.04932 0.5065 0.67218 0.0
C224 C 0.93135 0.49978 0.68795 0.0
O225 O 0.9364 0.52193 0.65965 0.0
O226 O 0.94823 0.48358 0.68809 0.0
O227 O 0.9899 0.52456 0.69638 0.0
O228 O 0.00921 0.54701 0.60187 0.0
O229 O 0.96 0.50735 0.5176 0.0
C230 C 0.01049 0.46958 0.52469 0.0
C231 C 0.99778 0.54532 0.67141 0.0
H232 H 0.16549 0.95605 0.21282 0.0
H233 H 0.06264 0.04147 0.40229 0.0
H234 H 0.16482 0.03392 0.16133 0.0
H235 H 0.09088 0.97901 0.54031 0.0
H236 H 0.09696 0.03787 0.30368 0.0
H237 H 0.13458 0.96237 0.3228 0.0
C238 C 0.15874 0.97446 0.22473 0.0
C239 C 0.16755 0.9945 0.1781 0.0
C240 C 0.0957 0.02512 0.35604 0.0
C241 C 0.13221 1.00183 0.30274 0.0
C242 C 0.07613 0.02711 0.41221 0.0
C243 C 0.07375 0.01036 0.47924 0.0
C244 C 0.11269 0.00592 0.36583 0.0
C245 C 0.09188 0.99222 0.48932 0.0
C246 C 0.14129 0.97808 0.28768 0.0
C247 C 0.15843 0.01804 0.1962 0.0
N248 N 0.11037 0.99023 0.43239 0.0
N249 N 0.14101 0.02105 0.25656 0.0
H250 H 0.50112 0.13987 0.08686 0.0
H251 H 0.52765 0.09145 0.55539 0.0
H252 H 0.53326 0.18579 0.27921 0.0
H253 H 0.48549 0.05153 0.36973 0.0
H254 H 0.53002 0.12635 0.45735 0.0
H255 H 0.49533 0.10742 0.19135 0.0
C256 C 0.50691 0.14313 0.15129 0.0
C257 C 0.51782 0.16552 0.1742 0.0
C258 C 0.52015 0.10998 0.43844 0.0
C259 C 0.5113 0.12831 0.29472 0.0
C260 C 0.5188 0.09004 0.49434 0.0
C261 C 0.50652 0.06838 0.4707 0.0
C262 C 0.5092 0.10823 0.35824 0.0
C263 C 0.49533 0.0677 0.39078 0.0
C264 C 0.50353 0.12462 0.21111 0.0
C265 C 0.52466 0.16884 0.25895 0.0
N266 N 0.49706 0.0872 0.33753 0.0
N267 N 0.52149 0.15036 0.31603 0.0
H268 H 0.37098 0.49497 0.09398 0.0
H269 H 0.41997 0.52495 0.5591 0.0
H270 H 0.32684 0.53178 0.28042 0.0
H271 H 0.46022 0.48272 0.37534 0.0
H272 H 0.38492 0.52629 0.46183 0.0
H273 H 0.40309 0.48895 0.19953 0.0
C274 C 0.36803 0.50173 0.15735 0.0
C275 C 0.34627 0.51408 0.17818 0.0
C276 C 0.40137 0.51659 0.44317 0.0
C277 C 0.38309 0.50728 0.29994 0.0
C278 C 0.42139 0.51579 0.49873 0.0
C279 C 0.44319 0.50384 0.47529 0.0
C280 C 0.40317 0.50542 0.36353 0.0
C281 C 0.44392 0.49231 0.39612 0.0
C282 C 0.38635 0.49822 0.2178 0.0
C283 C 0.34329 0.52209 0.26173 0.0
N284 N 0.42433 0.49352 0.34315 0.0
N285 N 0.36159 0.51876 0.31938 0.0
H286 H 0.98574 0.32891 0.27839 0.0
H287 H 0.031 0.46666 0.36807 0.0
H288 H 0.01669 0.37692 0.08985 0.0
H289 H 0.99211 0.42299 0.55176 0.0
H290 H 0.0298 0.43208 0.27072 0.0
H291 H 0.99188 0.36117 0.38425 0.0
C292 C 0.99408 0.34612 0.25945 0.0
C293 C 1.00056 0.35027 0.17495 0.0
C294 C 0.02161 0.42997 0.33241 0.0
C295 C 0.00748 0.38731 0.29559 0.0
C296 C 0.0223 0.44974 0.38826 0.0
C297 C 0.01146 0.44786 0.46821 0.0
C298 C 0.00999 0.408 0.35628 0.0
C299 C 1.00063 0.42534 0.49073 0.0
C300 C 0.99744 0.36458 0.3198 0.0
C301 C 0.01108 0.37303 0.15391 0.0
N302 N 1.00005 0.40633 0.43488 0.0
N303 N 0.01414 0.39066 0.21364 0.0
H304 H 0.87626 0.97656 0.08767 0.0
H305 H 0.92698 0.01585 0.63301 0.0
H306 H 0.8284 0.99724 0.88202 0.0
H307 H 0.97105 0.9832 0.83046 0.0
H308 H 0.89087 0.01243 0.72459 0.0
H309 H 0.91151 0.9825 -0.00401 0.0
C310 C 0.87313 0.9823 0.02309 0.0
C311 C 0.84925 0.98615 -0.00755 0.0
C312 C 0.90848 0.00604 0.7476 0.0
C313 C 0.88976 0.99327 0.88673 0.0
C314 C 0.92909 0.00797 0.69539 0.0
C315 C 0.95212 0.99976 0.72388 0.0
C316 C 0.911 0.99598 0.82893 0.0
C317 C 0.95374 0.98976 0.80546 0.0
C318 C 0.89332 0.98579 0.97072 0.0
C319 C 0.84646 0.99418 0.90858 0.0
N320 N 0.93353 0.98821 0.85487 0.0
N321 N 0.86646 0.99738 0.8585 0.0
H322 H 0.49592 0.84211 0.98325 0.0
H323 H 0.55782 0.95109 0.72096 0.0
H324 H 0.57415 0.85311 0.96496 0.0
H325 H 0.48147 0.9316 0.69302 0.0
H326 H 0.56377 0.91533 0.81165 0.0
H327 H 0.48977 0.8747 0.87823 0.0
C328 C 0.51182 0.85119 0.95688 0.0
C329 C 0.53561 0.84492 0.98398 0.0
C330 C 0.54574 0.91872 0.78525 0.0
C331 C 0.52864 0.88248 0.86432 0.0
C332 C 0.54231 0.93919 0.73333 0.0
C333 C 0.51908 0.94446 0.69927 0.0
C334 C 0.52575 0.90343 0.80448 0.0
C335 C 0.49972 0.92825 0.7176 0.0
C336 C 0.50827 0.86987 0.89708 0.0
C337 C 0.55545 0.8576 0.94784 0.0
N338 N 0.50343 0.9086 0.76959 0.0
N339 N 0.55151 0.87579 0.8905 0.0
H340 H 0.64202 0.54413 0.08237 0.0
H341 H 0.59043 0.50072 0.63216 0.0
H342 H 0.68955 0.52193 0.87916 0.0
H343 H 0.54633 0.53296 0.82879 0.0
H344 H 0.62679 0.50522 0.72295 0.0
H345 H 0.60657 0.53658 -0.00774 0.0
C346 C 0.64503 0.53768 0.01865 0.0
C347 C 0.66889 0.53395 0.98818 0.0
C348 C 0.60911 0.51127 0.74599 0.0
C349 C 0.62811 0.52503 0.88411 0.0
C350 C 0.58836 0.50873 0.69421 0.0
C351 C 0.56523 0.51651 0.72263 0.0
C352 C 0.60668 0.52154 0.82688 0.0
C353 C 0.56369 0.5267 0.80381 0.0
C354 C 0.62472 0.53329 0.96716 0.0
C355 C 0.67152 0.52498 0.90553 0.0
N356 N 0.58405 0.52888 0.85278 0.0
N357 N 0.65139 0.52096 0.85619 0.0
H358 H 0.98882 0.69221 0.88927 0.0
H359 H 0.97663 0.54672 0.82698 0.0
H360 H 0.96489 0.64181 0.08281 0.0
H361 H 0.01128 0.59363 0.64251 0.0
H362 H 0.97137 0.58203 0.91883 0.0
H363 H 0.99702 0.6571 0.7967 0.0
C364 C 0.98551 0.67379 0.91272 0.0
C365 C 0.97595 0.67004 -0.00599 0.0
C366 C 0.98018 0.58469 0.8584 0.0
C367 C 0.98497 0.62979 0.88773 0.0
C368 C 0.98315 0.56448 0.80555 0.0
C369 C 0.99442 0.56712 0.72655 0.0
C370 C 0.98837 0.60796 0.83243 0.0
C371 C 1.00247 0.59069 0.70275 0.0
C372 C 0.99006 0.65376 0.85956 0.0
C373 C 0.97177 0.64572 0.02029 0.0
N374 N 0.99923 0.61023 0.7554 0.0
N375 N 0.97619 0.62663 0.96733 0.0
H376 H 0.02821 0.2236 0.30629 0.0
H377 H 0.96525 0.09649 0.42292 0.0
H378 H 0.95748 0.20112 0.21283 0.0
H379 H 0.03747 0.11896 0.50463 0.0
H380 H 0.9578 0.13839 0.37148 0.0
H381 H 0.02681 0.19031 0.41023 0.0
C382 C 0.01189 0.21231 0.31057 0.0
C383 C 0.99293 0.21492 0.25163 0.0
C384 C 0.97517 0.13416 0.40146 0.0
C385 C 0.99164 0.1762 0.3664 0.0
C386 C 0.97949 0.11023 0.43021 0.0
C387 C 1.00221 0.10409 0.46619 0.0
C388 C 0.99374 0.152 0.40891 0.0
C389 C 0.01985 0.1227 0.47559 0.0
C390 C 0.0112 0.19307 0.36883 0.0
C391 C 0.97236 0.1996 0.25796 0.0
N392 N 0.01532 0.14571 0.44642 0.0
N393 N 0.97248 0.18047 0.31307 0.0
H394 H 0.30238 0.05763 0.25694 0.0
H395 H 0.40937 0.97274 0.43164 0.0
H396 H 0.30156 0.97871 0.23466 0.0
H397 H 0.40422 0.051 0.47443 0.0
H398 H 0.3673 0.97326 0.37603 0.0
H399 H 0.3359 0.05443 0.35897 0.0
C400 C 0.30872 0.03958 0.27635 0.0
C401 C 0.29933 0.01841 0.23822 0.0
C402 C 0.37536 0.99024 0.39841 0.0
C403 C 0.3384 0.01451 0.35081 0.0
C404 C 0.39941 0.98997 0.42943 0.0
C405 C 0.41048 0.01192 0.45613 0.0
C406 C 0.36244 0.01262 0.39406 0.0
C407 C 0.39663 0.03368 0.45325 0.0
C408 C 0.32803 0.0377 0.33368 0.0
C409 C 0.30832 0.99541 0.26371 0.0
N410 N 0.37346 0.03349 0.42217 0.0
N411 N 0.3278 0.99406 0.31718 0.0
H412 H 0.55928 0.31207 0.22281 0.0
H413 H 0.4783 0.39797 0.5137 0.0
H414 H 0.48562 0.29537 0.30112 0.0
H415 H 0.54925 0.41861 0.41635 0.0
H416 H 0.485 0.35618 0.46494 0.0
H417 H 0.56071 0.34567 0.32535 0.0
C418 C 0.54387 0.31479 0.26476 0.0
C419 C 0.52234 0.30105 0.25438 0.0
C420 C 0.49921 0.36975 0.45463 0.0
C421 C 0.52334 0.33989 0.36838 0.0
C422 C 0.49533 0.39373 0.48185 0.0
C423 C 0.51301 0.41198 0.46712 0.0
C424 C 0.52085 0.3639 0.41148 0.0
C425 C 0.53496 0.4052 0.42759 0.0
C426 C 0.54452 0.33417 0.32224 0.0
C427 C 0.50259 0.30552 0.30821 0.0
N428 N 0.53813 0.38173 0.40003 0.0
N429 N 0.50337 0.32491 0.36195 0.0
H430 H 0.19815 0.56439 0.21048 0.0
H431 H 0.11689 0.48621 0.52408 0.0
H432 H 0.21895 0.49382 0.31136 0.0
H433 H 0.09351 0.55485 0.41264 0.0
H434 H 0.1583 0.49374 0.47403 0.0
H435 H 0.16509 0.56689 0.3141 0.0
C436 C 0.19641 0.54998 0.25737 0.0
C437 C 0.21115 0.52889 0.25306 0.0
C438 C 0.14423 0.5073 0.46095 0.0
C439 C 0.1729 0.531 0.36864 0.0
C440 C 0.12047 0.50292 0.48891 0.0
C441 C 0.10157 0.51964 0.47044 0.0
C442 C 0.14917 0.52844 0.41316 0.0
C443 C 0.10747 0.54128 0.42687 0.0
C444 C 0.17735 0.55121 0.31562 0.0
C445 C 0.20799 0.51043 0.31348 0.0
N446 N 0.13073 0.54489 0.39848 0.0
N447 N 0.18883 0.51166 0.36783 0.0
H448 H 0.05964 0.80909 0.98917 0.0
H449 H 0.98642 0.89316 0.66789 0.0
H450 H 0.9883 0.7919 0.88692 0.0
H451 H 0.05443 0.91443 0.78732 0.0
H452 H 0.99238 0.85132 0.71837 0.0
H453 H 0.06403 0.84168 0.88383 0.0
C454 C 0.04528 0.81162 0.94253 0.0
C455 C 0.0233 0.79826 0.948 0.0
C456 C 0.00615 0.86503 0.73306 0.0
C457 C 0.02797 0.83565 0.82882 0.0
C458 C 1.00265 0.88902 0.70489 0.0
C459 C 0.01962 0.90745 0.72562 0.0
C460 C 0.02663 0.85941 0.7833 0.0
C461 C 0.04067 0.90084 0.77139 0.0
C462 C 0.04771 0.83033 0.88289 0.0
C463 C 0.00544 0.80194 0.88551 0.0
N464 N 0.04339 0.87739 0.79998 0.0
N465 N 0.0079 0.82072 0.82972 0.0
H466 H 0.7093 0.07001 0.94993 0.0
H467 H 0.62922 0.98617 0.64624 0.0
H468 H 0.72872 0.99637 0.87434 0.0
H469 H 0.6033 0.05328 0.76086 0.0
H470 H 0.67041 0.99516 0.69712 0.0
H471 H 0.67637 0.07005 0.84476 0.0
C472 C 0.7072 0.0542 0.90903 0.0
C473 C 0.72129 0.03289 0.92237 0.0
C474 C 0.65577 0.00804 0.71063 0.0
C475 C 0.6836 0.03269 0.80333 0.0
C476 C 0.63217 1.00284 0.6822 0.0
C477 C 0.61265 0.01871 0.70123 0.0
C478 C 0.65995 0.02922 0.75892 0.0
C479 C 0.61774 0.04031 0.74621 0.0
C480 C 0.68829 0.05416 0.84961 0.0
C481 C 0.71813 0.01309 0.86688 0.0
N482 N 0.64088 0.04479 0.7745 0.0
N483 N 0.69921 0.01323 0.81107 0.0
H484 H 0.52626 0.72354 0.89294 0.0
H485 H 0.4584 0.59923 0.77914 0.0
H486 H 0.45441 0.70448 0.98533 0.0
H487 H 0.53048 0.6198 0.69186 0.0
H488 H 0.45237 0.64138 0.82983 0.0
H489 H 0.52295 0.6909 0.78847 0.0
C490 C 0.50938 0.71309 0.88914 0.0
C491 C 0.49084 0.71625 0.94915 0.0
C492 C 0.46939 0.63669 0.79871 0.0
C493 C 0.48734 0.67821 0.83236 0.0
C494 C 0.47288 0.61261 0.77038 0.0
C495 C 0.4952 0.60586 0.7333 0.0
C496 C 0.48835 0.65403 0.78969 0.0
C497 C 0.51319 0.62401 0.72199 0.0
C498 C 0.50761 0.69418 0.83019 0.0
C499 C 0.46937 0.70215 0.9413 0.0
N500 N 0.50947 0.64715 0.75082 0.0
N501 N 0.46846 0.68325 0.88557 0.0
H502 H 0.80875 0.45031 0.97078 0.0
H503 H 0.89034 0.52606 0.65111 0.0
H504 H 0.79001 0.52166 0.87025 0.0
H505 H 0.9143 0.45968 0.77643 0.0
H506 H 0.84872 0.51837 0.69898 0.0
H507 H 0.84125 0.44675 0.86556 0.0
C508 C 0.8109 0.46482 0.92444 0.0
C509 C 0.79717 0.48662 0.93061 0.0
C510 C 0.86298 0.50532 0.71548 0.0
C511 C 0.83442 0.48286 0.81148 0.0
C512 C 0.88683 0.5098 0.68879 0.0
C513 C 0.90594 0.49384 0.71207 0.0
C514 C 0.85815 0.48488 0.76681 0.0
C515 C 0.90016 0.47269 0.75856 0.0
C516 C 0.82956 0.46286 0.86492 0.0
C517 C 0.80035 0.50466 0.86842 0.0
N518 N 0.87679 0.46902 0.78575 0.0
N519 N 0.81909 0.50266 0.8127 0.0
H520 H 0.04555 0.18694 0.0097 0.0
H521 H 0.96145 0.10268 0.72544 0.0
H522 H 0.98013 0.21303 0.8853 0.0
H523 H 0.03725 0.08392 0.77266 0.0
H524 H 0.9684 0.14286 0.7875 0.0
H525 H 0.04443 0.14978 0.92229 0.0
C526 C 0.03143 0.18517 0.96185 0.0
C527 C 0.0129 0.20302 0.95441 0.0
C528 C 0.98358 0.13004 0.78422 0.0
C529 C 0.01097 0.1603 0.8568 0.0
C530 C 0.97957 0.10689 0.74957 0.0
C531 C 0.99877 0.08971 0.7443 0.0
C532 C 0.00689 0.13617 0.81529 0.0
C533 C 0.02188 0.09649 0.77602 0.0
C534 C 0.03068 0.1639 0.91257 0.0
C535 C 0.99484 0.19979 0.89243 0.0
N536 N 0.02527 0.11917 0.81082 0.0
N537 N 0.99405 0.1786 0.84711 0.0
H538 H 0.32273 0.06216 0.96891 0.0
H539 H 0.40987 0.96654 0.74643 0.0
H540 H 0.29933 0.99044 0.88573 0.0
H541 H 0.42716 0.04405 0.74564 0.0
H542 H 0.36956 0.9759 0.80158 0.0
H543 H 0.3602 0.05773 0.88503 0.0
C544 C 0.32512 0.04585 0.93067 0.0
C545 C 0.308 0.02654 0.93473 0.0
C546 C 0.38207 0.99094 0.78925 0.0
C547 C 0.35101 0.02107 0.84109 0.0
C548 C 0.4053 0.9856 0.75851 0.0
C549 C 0.42208 1.00454 0.7415 0.0
C550 C 0.37541 0.01543 0.8046 0.0
C551 C 0.41489 0.02886 0.7584 0.0
C552 C 0.34657 0.04326 0.88343 0.0
C553 C 0.31196 1.00579 0.88427 0.0
N554 N 0.39208 0.03363 0.78955 0.0
N555 N 0.33328 1.0034 0.84098 0.0
H556 H 0.47085 0.32932 0.00968 0.0
H557 H 0.5549 0.41337 0.7253 0.0
H558 H 0.53638 0.30326 0.8877 0.0
H559 H 0.4791 0.4322 0.77008 0.0
H560 H 0.54796 0.37329 0.78822 0.0
H561 H 0.47195 0.36642 0.92149 0.0
C562 C 0.48501 0.33109 0.96229 0.0
C563 C 0.50357 0.31325 0.95579 0.0
C564 C 0.53277 0.38609 0.78424 0.0
C565 C 0.50544 0.3559 0.85715 0.0
C566 C 0.53677 0.4092 0.74905 0.0
C567 C 0.51759 0.42638 0.74286 0.0
C568 C 0.50947 0.38 0.81499 0.0
C569 C 0.49446 0.41963 0.77416 0.0
C570 C 0.48574 0.35232 0.91253 0.0
C571 C 0.52164 0.31648 0.89421 0.0
N572 N 0.49108 0.39699 0.80955 0.0
N573 N 0.52239 0.33763 0.8484 0.0
H574 H 0.21143 0.53561 0.87964 0.0
H575 H 0.07786 0.481 0.77931 0.0
H576 H 0.18048 0.47547 0.02102 0.0
H577 H 0.10186 0.55448 0.7172 0.0
H578 H 0.11828 0.47314 0.84414 0.0
H579 H 0.17485 0.53593 0.78939 0.0
C580 C 0.19731 0.52193 0.88975 0.0
C581 C 0.19885 0.5056 0.95795 0.0
C582 C 0.11457 0.49093 0.81602 0.0
C583 C 0.15676 0.50623 0.85682 0.0
C584 C 0.09152 0.49546 0.77961 0.0
C585 C 0.0863 0.51855 0.74399 0.0
C586 C 0.13258 0.50944 0.81502 0.0
C587 C 0.10481 0.53653 0.74504 0.0
C588 C 0.17628 0.52232 0.83913 0.0
C589 C 0.17985 0.48843 0.96915 0.0
N590 N 0.12706 0.53157 0.77965 0.0
N591 N 0.15941 0.48938 0.9198 0.0
H592 H 0.04777 0.80693 0.26603 0.0
H593 H 0.98194 0.92546 0.4629 0.0
H594 H 0.96984 0.8184 0.24402 0.0
H595 H 0.05977 0.91788 0.42077 0.0
H596 H 0.97575 0.88451 0.40009 0.0
H597 H 0.05104 0.84455 0.34919 0.0
C598 C 0.03123 0.81701 0.28142 0.0
C599 C 0.00851 0.80954 0.24902 0.0
C600 C 0.99412 0.89197 0.40444 0.0
C601 C 0.01214 0.85324 0.34076 0.0
C602 C 0.99765 0.91541 0.43936 0.0
C603 C 0.02142 0.92519 0.44686 0.0
C604 C 0.01454 0.87823 0.37779 0.0
C605 C 0.04112 0.91117 0.41651 0.0
C606 C 0.03311 0.83869 0.32763 0.0
C607 C 0.98763 0.82346 0.2691 0.0
N608 N 0.03725 0.88846 0.38391 0.0
N609 N 0.98996 0.8449 0.31287 0.0
H610 H 0.70682 0.06485 0.22521 0.0
H611 H 0.59522 0.98988 0.42842 0.0
H612 H 0.70503 0.98571 0.23791 0.0
H613 H 0.59891 0.06909 0.41407 0.0
H614 H 0.63599 0.98753 0.36419 0.0
H615 H 0.66898 0.06649 0.30713 0.0
C616 C 0.69878 0.04784 0.2477 0.0
C617 C 0.70905 0.02513 0.22545 0.0
C618 C 0.62781 1.0054 0.37485 0.0
C619 C 0.66522 0.02673 0.31619 0.0
C620 C 0.6044 0.00675 0.41054 0.0
C621 C 0.59356 0.02973 0.42622 0.0
C622 C 0.64041 0.02718 0.35467 0.0
C623 C 0.60651 0.05098 0.40303 0.0
C624 C 0.67702 0.04873 0.29346 0.0
C625 C 0.69779 1.00358 0.25484 0.0
N626 N 0.6292 0.04918 0.36865 0.0
N627 N 0.67624 1.00487 0.29775 0.0
H628 H 0.46225 0.70779 0.26347 0.0
H629 H 0.53116 0.59116 0.46513 0.0
H630 H 0.54076 0.6995 0.2547 0.0
H631 H 0.4529 0.59736 0.42843 0.0
H632 H 0.53611 0.63236 0.40289 0.0
H633 H 0.45951 0.67012 0.34706 0.0
C634 C 0.47899 0.69843 0.28196 0.0
C635 C 0.50176 0.70682 0.25321 0.0
C636 C 0.5179 0.62458 0.40835 0.0
C637 C 0.4988 0.66301 0.34535 0.0
C638 C 0.51508 0.60098 0.44298 0.0
C639 C 0.49158 0.5907 0.45168 0.0
C640 C 0.49705 0.63797 0.38293 0.0
C641 C 0.47138 0.60445 0.42309 0.0
C642 C 0.47744 0.6767 0.32842 0.0
C643 C 0.5229 0.69376 0.27702 0.0
N644 N 0.47458 0.6273 0.39047 0.0
N645 N 0.52092 0.67226 0.32083 0.0
H646 H 0.81488 0.54131 0.23673 0.0
H647 H 0.92304 0.45446 0.3997 0.0
H648 H 0.81228 0.46212 0.23802 0.0
H649 H 0.92183 0.53199 0.45756 0.0
H650 H 0.88282 0.45827 0.33485 0.0
H651 H 0.85312 0.53961 0.31968 0.0
C652 C 0.82191 0.52362 0.25714 0.0
C653 C 0.81046 0.5018 0.23089 0.0
C654 C 0.89127 0.47454 0.36145 0.0
C655 C 0.85442 0.49968 0.32238 0.0
C656 C 0.91442 0.47242 0.3979 0.0
C657 C 0.9259 0.49294 0.43413 0.0
C658 C 0.8793 0.49741 0.36049 0.0
C659 C 0.91374 0.51573 0.42969 0.0
C660 C 0.84387 0.52264 0.30334 0.0
C661 C 0.82055 0.47934 0.25722 0.0
N662 N 0.89103 0.51737 0.39364 0.0
N663 N 0.84207 0.47886 0.30043 0.0
loop_
_geom_bond_atom_site_label_1
_geom_bond_atom_site_label_2
_geom_bond_distance
_geom_bond_site_symmetry_2
_ccdc_geom_bond_type
H0 C1 0.949 . S
C1 H0 0.949 . S
C1 C2 1.395 . S
C1 C3 1.391 1_556 S
C2 C1 1.395 . S
C2 C5 1.390 1_556 S
C3 C1 1.391 1_554 S
C3 C7 1.387 . S
C3 C8 1.491 . S
H4 C5 0.950 . S
C5 C2 1.390 1_554 S
C5 H4 0.950 . S
C5 C6 1.378 . S
C6 C5 1.378 . S
C6 C7 1.409 . S
C7 C3 1.387 . S
C7 C6 1.409 . S
C7 H9 0.951 . S
C8 C3 1.491 . S
C8 C10 1.382 1_554 S
C8 C12 1.404 . S
H9 C7 0.951 . S
C10 C8 1.382 1_556 S
C10 C11 1.390 . S
C10 H15 0.949 . S
C11 C10 1.390 . S
C11 C16 1.399 1_556 S
C12 C8 1.404 . S
C12 H13 0.950 . S
C12 C14 1.375 . S
H13 C12 0.950 . S
C14 C12 1.375 . S
C14 C16 1.382 . S
C14 H18 0.950 . S
H15 C10 0.949 . S
C16 C11 1.399 1_554 S
C16 C14 1.382 . S
C16 H17 0.952 . S
H17 C16 0.952 . S
H18 C14 0.950 . S
H19 C20 0.949 . S
C20 H19 0.949 . S
C20 C21 1.395 . S
C20 C22 1.391 1_556 S
C21 C20 1.395 . S
C21 C24 1.390 1_556 S
C22 C20 1.391 1_554 S
C22 C26 1.387 . S
C22 C27 1.491 . S
H23 C24 0.950 . S
C24 C21 1.390 1_554 S
C24 H23 0.950 . S
C24 C25 1.378 . S
C25 C24 1.378 . S
C25 C26 1.409 . S
C26 C22 1.387 . S
C26 C25 1.409 . S
C26 H28 0.951 . S
C27 C22 1.491 . S
C27 C29 1.382 1_554 S
C27 C31 1.404 . S
H28 C26 0.951 . S
C29 C27 1.382 1_556 S
C29 C30 1.390 . S
C29 H34 0.949 . S
C30 C29 1.390 . S
C30 C35 1.399 1_556 S
C31 C27 1.404 . S
C31 H32 0.950 . S
C31 C33 1.375 . S
H32 C31 0.950 . S
C33 C31 1.375 . S
C33 C35 1.382 . S
C33 H37 0.950 . S
H34 C29 0.949 . S
C35 C30 1.399 1_554 S
C35 C33 1.382 . S
C35 H36 0.952 . S
H36 C35 0.952 . S
H37 C33 0.950 . S
H38 C39 0.949 . S
C39 H38 0.949 . S
C39 C40 1.395 . S
C39 C41 1.391 1_556 S
C40 C39 1.395 . S
C40 C43 1.390 1_556 S
C41 C39 1.391 1_554 S
C41 C45 1.387 . S
C41 C46 1.491 . S
H42 C43 0.950 . S
C43 C40 1.390 1_554 S
C43 H42 0.950 . S
C43 C44 1.378 . S
C44 C43 1.378 . S
C44 C45 1.409 . S
C45 C41 1.387 . S
C45 C44 1.409 . S
C45 H47 0.951 . S
C46 C41 1.491 . S
C46 C48 1.382 1_554 S
C46 C50 1.404 . S
H47 C45 0.951 . S
C48 C46 1.382 1_556 S
C48 C49 1.390 . S
C48 H53 0.949 . S
C49 C48 1.390 . S
C49 C54 1.399 1_556 S
C50 C46 1.404 . S
C50 H51 0.950 . S
C50 C52 1.375 . S
H51 C50 0.950 . S
C52 C50 1.375 . S
C52 C54 1.382 . S
C52 H56 0.950 . S
H53 C48 0.949 . S
C54 C49 1.399 1_554 S
C54 C52 1.382 . S
C54 H55 0.952 . S
H55 C54 0.952 . S
H56 C52 0.950 . S
H57 C58 0.949 . S
C58 H57 0.949 . S
C58 C59 1.395 . S
C58 C60 1.391 1_556 S
C59 C58 1.395 . S
C59 C62 1.390 1_556 S
C60 C58 1.391 1_554 S
C60 C64 1.387 . S
C60 C65 1.491 . S
H61 C62 0.950 . S
C62 C59 1.390 1_554 S
C62 H61 0.950 . S
C62 C63 1.378 . S
C63 C62 1.378 . S
C63 C64 1.409 . S
C64 C60 1.387 . S
C64 C63 1.409 . S
C64 H66 0.951 . S
C65 C60 1.491 . S
C65 C67 1.382 1_554 S
C65 C69 1.404 . S
H66 C64 0.951 . S
C67 C65 1.382 1_556 S
C67 C68 1.390 . S
C67 H72 0.949 . S
C68 C67 1.390 . S
C68 C73 1.399 1_556 S
C69 C65 1.404 . S
C69 H70 0.950 . S
C69 C71 1.375 . S
H70 C69 0.950 . S
C71 C69 1.375 . S
C71 C73 1.382 . S
C71 H75 0.950 . S
H72 C67 0.949 . S
C73 C68 1.399 1_554 S
C73 C71 1.382 . S
C73 H74 0.952 . S
H74 C73 0.952 . S
H75 C71 0.950 . S
H76 C77 0.949 . S
C77 H76 0.949 . S
C77 C78 1.395 . S
C77 C79 1.391 . S
C78 C77 1.395 . S
C78 C81 1.390 . S
C79 C77 1.391 . S
C79 C83 1.387 . S
C79 C84 1.491 . S
H80 C81 0.950 . S
C81 C78 1.390 . S
C81 H80 0.950 . S
C81 C82 1.378 . S
C82 C81 1.378 . S
C82 C83 1.409 . S
C83 C79 1.387 . S
C83 C82 1.409 . S
C83 H85 0.951 . S
C84 C79 1.491 . S
C84 C86 1.382 . S
C84 C88 1.404 . S
H85 C83 0.951 . S
C86 C84 1.382 . S
C86 C87 1.390 . S
C86 H91 0.949 . S
C87 C86 1.390 . S
C87 C92 1.399 . S
C88 C84 1.404 . S
C88 H89 0.950 . S
C88 C90 1.375 . S
H89 C88 0.950 . S
C90 C88 1.375 . S
C90 C92 1.382 . S
C90 H94 0.950 . S
H91 C86 0.949 . S
C92 C87 1.399 . S
C92 C90 1.382 . S
C92 H93 0.952 . S
H93 C92 0.952 . S
H94 C90 0.950 . S
H95 C96 0.949 . S
C96 H95 0.949 . S
C96 C97 1.395 . S
C96 C98 1.391 . S
C97 C96 1.395 . S
C97 C100 1.390 . S
C98 C96 1.391 . S
C98 C102 1.387 . S
C98 C103 1.491 . S
H99 C100 0.950 . S
C100 C97 1.390 . S
C100 H99 0.950 . S
C100 C101 1.378 . S
C101 C100 1.378 . S
C101 C102 1.409 . S
C102 C98 1.387 . S
C102 C101 1.409 . S
C102 H104 0.951 . S
C103 C98 1.491 . S
C103 C105 1.382 . S
C103 C107 1.404 1_455 S
H104 C102 0.951 . S
C105 C103 1.382 . S
C105 C106 1.390 . S
C105 H110 0.949 . S
C106 C105 1.390 . S
C106 C111 1.409 . S
C107 C103 1.404 1_655 S
C107 H108 0.950 . S
C107 C109 1.375 . S
H108 C107 0.950 . S
C109 C107 1.375 . S
C109 C111 1.376 1_655 S
C109 H113 0.950 . S
H110 C105 0.949 . S
C111 C106 1.409 . S
C111 C109 1.376 1_455 S
C111 H112 0.948 1_455 S
H112 C111 0.948 1_655 S
H113 C109 0.950 . S
H114 C115 0.949 . S
C115 H114 0.949 . S
C115 C116 1.395 . S
C115 C117 1.391 . S
C116 C115 1.395 . S
C116 C119 1.390 . S
C117 C115 1.391 . S
C117 C121 1.387 . S
C117 C122 1.491 . S
H118 C119 0.950 . S
C119 C116 1.390 . S
C119 H118 0.950 . S
C119 C120 1.378 . S
C120 C119 1.378 . S
C120 C121 1.409 . S
C121 C117 1.387 . S
C121 C120 1.409 . S
C121 H123 0.951 . S
C122 C117 1.491 . S
C122 C124 1.382 . S
C122 C126 1.404 1_545 S
H123 C121 0.951 . S
C124 C122 1.382 . S
C124 C125 1.390 . S
C124 H129 0.949 . S
C125 C124 1.390 . S
C125 C130 1.405 . S
C126 C122 1.404 1_565 S
C126 H127 0.950 . S
C126 C128 1.375 . S
H127 C126 0.950 . S
C128 C126 1.375 . S
C128 C130 1.379 1_565 S
C128 H132 0.950 . S
H129 C124 0.949 . S
C130 C125 1.405 . S
C130 C128 1.379 1_545 S
C130 H131 0.950 1_545 S
H131 C130 0.950 1_565 S
H132 C128 0.950 . S
H133 C134 0.949 . S
C134 H133 0.949 . S
C134 C135 1.395 . S
C134 C136 1.391 . S
C135 C134 1.395 . S
C135 C138 1.390 . S
C136 C134 1.391 . S
C136 C140 1.387 . S
C136 C141 1.491 . S
H137 C138 0.950 . S
C138 C135 1.390 . S
C138 H137 0.950 . S
C138 C139 1.378 . S
C139 C138 1.378 . S
C139 C140 1.409 . S
C140 C136 1.387 . S
C140 C139 1.409 . S
C140 H142 0.951 . S
C141 C136 1.491 . S
C141 C143 1.382 . S
C141 C145 1.404 . S
H142 C140 0.951 . S
C143 C141 1.382 . S
C143 C144 1.390 . S
C143 H148 0.949 . S
C144 C143 1.390 . S
C144 C149 1.399 . S
C145 C141 1.404 . S
C145 H146 0.950 . S
C145 C147 1.375 . S
H146 C145 0.950 . S
C147 C145 1.375 . S
C147 C149 1.382 . S
C147 H151 0.950 . S
H148 C143 0.949 . S
C149 C144 1.399 . S
C149 C147 1.382 . S
C149 H150 0.952 . S
H150 C149 0.952 . S
H151 C147 0.950 . S
Zn152 O158 1.969 1_455 S
Zn152 O159 1.965 . S
Zn152 O163 2.024 . S
Zn152 O168 1.969 1_455 S
Zn153 O160 1.969 . S
Zn153 O166 1.969 . S
Zn153 O167 1.965 1_455 S
Zn153 O169 2.024 1_455 S
C154 O155 1.229 1_455 S
C154 O163 1.058 . S
O155 C154 1.229 1_655 S
C156 O157 1.229 1_655 S
C156 O169 1.058 . S
O157 C156 1.229 1_455 S
O158 Zn152 1.969 1_655 S
O158 C161 1.267 1_655 S
O159 Zn152 1.965 . S
O159 C170 1.260 . S
O160 Zn153 1.969 . S
O160 C170 1.258 1_565 S
C161 O158 1.267 1_455 S
C161 O162 1.228 . S
O162 C161 1.228 . S
O163 Zn152 2.024 . S
O163 C154 1.058 . S
C164 O165 1.228 1_455 S
C164 O166 1.267 . S
O165 C164 1.228 1_655 S
O166 Zn153 1.969 . S
O166 C164 1.267 . S
O167 Zn153 1.965 1_655 S
O167 C171 1.260 1_565 S
O168 Zn152 1.969 1_655 S
O168 C171 1.258 . S
O169 Zn153 2.024 1_655 S
O169 C156 1.058 . S
C170 O159 1.260 . S
C170 O160 1.258 1_545 S
C171 O167 1.260 1_545 S
C171 O168 1.258 . S
Zn172 O178 1.969 1_545 S
Zn172 O179 1.965 . S
Zn172 O183 2.024 . S
Zn172 O188 1.969 1_545 S
Zn173 O180 1.969 . S
Zn173 O186 1.969 . S
Zn173 O187 1.965 1_545 S
Zn173 O189 2.024 1_545 S
C174 O175 1.229 1_545 S
C174 O183 1.058 . S
O175 C174 1.229 1_565 S
C176 O177 1.229 1_565 S
C176 O189 1.058 . S
O177 C176 1.229 1_545 S
O178 Zn172 1.969 1_565 S
O178 C181 1.267 1_565 S
O179 Zn172 1.965 . S
O179 C190 1.260 . S
O180 Zn173 1.969 . S
O180 C190 1.258 . S
C181 O178 1.267 1_545 S
C181 O182 1.228 . S
O182 C181 1.228 . S
O183 Zn172 2.024 . S
O183 C174 1.058 . S
C184 O185 1.228 1_545 S
C184 O186 1.267 . S
O185 C184 1.228 1_565 S
O186 Zn173 1.969 . S
O186 C184 1.267 . S
O187 Zn173 1.965 1_565 S
O187 C191 1.260 . S
O188 Zn172 1.969 1_565 S
O188 C191 1.258 . S
O189 Zn173 2.024 1_565 S
O189 C176 1.058 . S
C190 O179 1.260 . S
C190 O180 1.258 . S
C191 O187 1.260 . S
C191 O188 1.258 . S
Zn192 O198 1.969 . S
Zn192 O199 1.965 . S
Zn192 O203 2.024 . S
Zn192 O208 1.969 . S
Zn193 O200 1.969 . S
Zn193 O206 1.969 . S
Zn193 O207 1.965 . S
Zn193 O209 2.024 . S
C194 O195 1.229 . S
C194 O203 1.058 . S
O195 C194 1.229 . S
C196 O197 1.229 . S
C196 O209 1.058 . S
O197 C196 1.229 . S
O198 Zn192 1.969 . S
O198 C201 1.267 . S
O199 Zn192 1.965 . S
O199 C210 1.260 . S
O200 Zn193 1.969 . S
O200 C210 1.258 . S
C201 O198 1.267 . S
C201 O202 1.228 . S
O202 C201 1.228 . S
O203 Zn192 2.024 . S
O203 C194 1.058 . S
C204 O205 1.228 . S
C204 O206 1.267 . S
O205 C204 1.228 . S
O206 Zn193 1.969 . S
O206 C204 1.267 . S
O207 Zn193 1.965 . S
O207 C211 1.260 . S
O208 Zn192 1.969 . S
O208 C211 1.258 . S
O209 Zn193 2.024 . S
O209 C196 1.058 . S
C210 O199 1.260 . S
C210 O200 1.258 . S
C211 O207 1.260 . S
C211 O208 1.258 . S
Zn212 O218 1.969 . S
Zn212 O219 1.965 . S
Zn212 O223 2.024 . S
Zn212 O228 1.969 . S
Zn213 O220 1.969 . S
Zn213 O226 1.969 . S
Zn213 O227 1.965 . S
Zn213 O229 2.024 . S
C214 O215 1.229 . S
C214 O223 1.058 . S
O215 C214 1.229 . S
C216 O217 1.229 . S
C216 O229 1.058 . S
O217 C216 1.229 . S
O218 Zn212 1.969 . S
O218 C221 1.267 . S
O219 Zn212 1.965 . S
O219 C230 1.260 . S
O220 Zn213 1.969 . S
O220 C230 1.258 1_655 S
C221 O218 1.267 . S
C221 O222 1.228 . S
O222 C221 1.228 . S
O223 Zn212 2.024 . S
O223 C214 1.058 . S
C224 O225 1.228 . S
C224 O226 1.267 . S
O225 C224 1.228 . S
O226 Zn213 1.969 . S
O226 C224 1.267 . S
O227 Zn213 1.965 . S
O227 C231 1.260 1_655 S
O228 Zn212 1.969 . S
O228 C231 1.258 . S
O229 Zn213 2.024 . S
O229 C216 1.058 . S
C230 O219 1.260 . S
C230 O220 1.258 1_455 S
C231 O227 1.260 1_455 S
C231 O228 1.258 . S
H232 C238 0.930 . S
H233 C242 0.930 . S
H234 C247 0.929 . S
H235 C245 0.929 . S
H236 C240 0.929 . S
H237 C246 0.929 . S
C238 H232 0.930 . S
C238 C239 1.367 1_565 S
C238 C246 1.378 . S
C239 C238 1.367 1_545 S
C239 C247 1.433 . S
C240 H236 0.929 . S
C240 C242 1.378 . S
C240 C244 1.350 . S
C241 C244 1.463 . S
C241 C246 1.350 1_545 S
C241 N249 1.427 . S
C242 H233 0.930 . S
C242 C240 1.378 . S
C242 C243 1.367 . S
C243 C242 1.367 . S
C243 C245 1.433 1_545 S
C244 C240 1.350 . S
C244 C241 1.463 . S
C244 N248 1.427 1_545 S
C245 H235 0.929 . S
C245 C243 1.433 1_565 S
C245 N248 1.384 . S
C246 H237 0.929 . S
C246 C238 1.378 . S
C246 C241 1.350 1_565 S
C247 H234 0.929 . S
C247 C239 1.433 . S
C247 N249 1.384 . S
N248 C244 1.427 1_565 S
N248 C245 1.384 . S
N249 C241 1.427 . S
N249 C247 1.384 . S
H250 C256 0.930 . S
H251 C260 0.930 . S
H252 C265 0.929 . S
H253 C263 0.929 . S
H254 C258 0.929 . S
H255 C264 0.929 . S
C256 H250 0.930 . S
C256 C257 1.367 . S
C256 C264 1.378 . S
C257 C256 1.367 . S
C257 C265 1.433 . S
C258 H254 0.929 . S
C258 C260 1.378 . S
C258 C262 1.350 . S
C259 C262 1.463 . S
C259 C264 1.350 . S
C259 N267 1.427 . S
C260 H251 0.930 . S
C260 C258 1.378 . S
C260 C261 1.367 . S
C261 C260 1.367 . S
C261 C263 1.433 . S
C262 C258 1.350 . S
C262 C259 1.463 . S
C262 N266 1.427 . S
C263 H253 0.929 . S
C263 C261 1.433 . S
C263 N266 1.384 . S
C264 H255 0.929 . S
C264 C256 1.378 . S
C264 C259 1.350 . S
C265 H252 0.929 . S
C265 C257 1.433 . S
C265 N267 1.384 . S
N266 C262 1.427 . S
N266 C263 1.384 . S
N267 C259 1.427 . S
N267 C265 1.384 . S
H268 C274 0.930 . S
H269 C278 0.930 . S
H270 C283 0.929 . S
H271 C281 0.929 . S
H272 C276 0.929 . S
H273 C282 0.929 . S
C274 H268 0.930 . S
C274 C275 1.367 . S
C274 C282 1.378 . S
C275 C274 1.367 . S
C275 C283 1.433 . S
C276 H272 0.929 . S
C276 C278 1.378 . S
C276 C280 1.350 . S
C277 C280 1.463 . S
C277 C282 1.350 . S
C277 N285 1.427 . S
C278 H269 0.930 . S
C278 C276 1.378 . S
C278 C279 1.367 . S
C279 C278 1.367 . S
C279 C281 1.433 . S
C280 C276 1.350 . S
C280 C277 1.463 . S
C280 N284 1.427 . S
C281 H271 0.929 . S
C281 C279 1.433 . S
C281 N284 1.384 . S
C282 H273 0.929 . S
C282 C274 1.378 . S
C282 C277 1.350 . S
C283 H270 0.929 . S
C283 C275 1.433 . S
C283 N285 1.384 . S
N284 C280 1.427 . S
N284 C281 1.384 . S
N285 C277 1.427 . S
N285 C283 1.384 . S
H286 C292 0.930 . S
H287 C296 0.930 . S
H288 C301 0.929 . S
H289 C299 0.929 . S
H290 C294 0.929 1_655 S
H291 C300 0.929 . S
C292 H286 0.930 . S
C292 C293 1.367 . S
C292 C300 1.378 . S
C293 C292 1.367 . S
C293 C301 1.433 . S
C294 H290 0.929 1_455 S
C294 C296 1.378 1_455 S
C294 C298 1.350 . S
C295 C298 1.463 . S
C295 C300 1.350 . S
C295 N303 1.427 . S
C296 H287 0.930 . S
C296 C294 1.378 1_655 S
C296 C297 1.367 1_655 S
C297 C296 1.367 1_455 S
C297 C299 1.433 . S
C298 C294 1.350 . S
C298 C295 1.463 . S
C298 N302 1.427 . S
C299 H289 0.929 . S
C299 C297 1.433 . S
C299 N302 1.384 . S
C300 H291 0.929 . S
C300 C292 1.378 . S
C300 C295 1.350 . S
C301 H288 0.929 . S
C301 C293 1.433 . S
C301 N303 1.384 . S
N302 C298 1.427 . S
N302 C299 1.384 . S
N303 C295 1.427 . S
N303 C301 1.384 . S
H304 C310 0.930 1_554 S
H305 C314 0.930 . S
H306 C319 0.929 . S
H307 C317 0.926 1_545 S
H308 C312 0.929 . S
H309 C318 0.929 . S
C310 H304 0.930 1_556 S
C310 C311 1.367 . S
C310 C318 1.378 . S
C311 C310 1.367 . S
C311 C319 1.433 . S
C312 H308 0.929 . S
C312 C314 1.378 . S
C312 C316 1.350 . S
C313 C316 1.463 . S
C313 C318 1.350 . S
C313 N321 1.427 . S
C314 H305 0.930 . S
C314 C312 1.378 . S
C314 C315 1.371 . S
C315 C314 1.371 . S
C315 C317 1.433 . S
C316 C312 1.350 . S
C316 C313 1.463 . S
C316 N320 1.427 . S
C317 H307 0.926 1_565 S
C317 C315 1.433 . S
C317 N320 1.388 . S
C318 H309 0.929 . S
C318 C310 1.378 . S
C318 C313 1.350 . S
C319 H306 0.929 . S
C319 C311 1.433 . S
C319 N321 1.384 . S
N320 C316 1.427 . S
N320 C317 1.388 . S
N321 C313 1.427 . S
N321 C319 1.384 . S
H322 C328 0.930 . S
H323 C332 0.930 . S
H324 C337 0.929 . S
H325 C335 0.929 . S
H326 C330 0.929 . S
H327 C336 0.929 . S
C328 H322 0.930 . S
C328 C329 1.367 . S
C328 C336 1.378 . S
C329 C328 1.367 . S
C329 C337 1.433 . S
C330 H326 0.929 . S
C330 C332 1.378 . S
C330 C334 1.350 . S
C331 C334 1.463 . S
C331 C336 1.350 . S
C331 N339 1.427 . S
C332 H323 0.930 . S
C332 C330 1.378 . S
C332 C333 1.367 . S
C333 C332 1.367 . S
C333 C335 1.433 . S
C334 C330 1.350 . S
C334 C331 1.463 . S
C334 N338 1.427 . S
C335 H325 0.929 . S
C335 C333 1.433 . S
C335 N338 1.384 . S
C336 H327 0.929 . S
C336 C328 1.378 . S
C336 C331 1.350 . S
C337 H324 0.929 . S
C337 C329 1.433 . S
C337 N339 1.384 . S
N338 C334 1.427 . S
N338 C335 1.384 . S
N339 C331 1.427 . S
N339 C337 1.384 . S
H340 C346 0.930 . S
H341 C350 0.930 . S
H342 C355 0.929 . S
H343 C353 0.929 . S
H344 C348 0.929 . S
H345 C354 0.929 . S
C346 H340 0.930 . S
C346 C347 1.367 . S
C346 C354 1.378 . S
C347 C346 1.367 . S
C347 C355 1.433 . S
C348 H344 0.929 . S
C348 C350 1.378 . S
C348 C352 1.350 . S
C349 C352 1.463 . S
C349 C354 1.350 . S
C349 N357 1.427 . S
C350 H341 0.930 . S
C350 C348 1.378 . S
C350 C351 1.367 . S
C351 C350 1.367 . S
C351 C353 1.433 . S
C352 C348 1.350 . S
C352 C349 1.463 . S
C352 N356 1.427 . S
C353 H343 0.929 . S
C353 C351 1.433 . S
C353 N356 1.384 . S
C354 H345 0.929 . S
C354 C346 1.378 . S
C354 C349 1.350 . S
C355 H342 0.929 . S
C355 C347 1.433 . S
C355 N357 1.384 . S
N356 C352 1.427 . S
N356 C353 1.384 . S
N357 C349 1.427 . S
N357 C355 1.384 . S
H358 C364 0.930 1_455 S
H359 C368 0.930 . S
H360 C373 0.929 1_554 S
H361 C371 0.929 . S
H362 C366 0.929 . S
H363 C372 0.929 1_455 S
C364 H358 0.930 1_655 S
C364 C365 1.367 . S
C364 C372 1.378 . S
C365 C364 1.367 . S
C365 C373 1.433 . S
C366 H362 0.929 . S
C366 C368 1.378 . S
C366 C370 1.350 . S
C367 C370 1.463 . S
C367 C372 1.350 . S
C367 N375 1.427 . S
C368 H359 0.930 . S
C368 C366 1.378 . S
C368 C369 1.367 . S
C369 C368 1.367 . S
C369 C371 1.433 1_655 S
C370 C366 1.350 . S
C370 C367 1.463 . S
C370 N374 1.427 1_655 S
C371 H361 0.929 . S
C371 C369 1.433 1_455 S
C371 N374 1.384 . S
C372 H363 0.929 1_655 S
C372 C364 1.378 . S
C372 C367 1.350 . S
C373 H360 0.929 1_556 S
C373 C365 1.433 . S
C373 N375 1.384 . S
N374 C370 1.427 1_455 S
N374 C371 1.384 . S
N375 C367 1.427 . S
N375 C373 1.384 . S
H376 C382 0.930 . S
H377 C386 0.930 . S
H378 C391 0.947 . S
H379 C389 0.929 . S
H380 C384 0.929 . S
H381 C390 0.929 . S
C382 H376 0.930 . S
C382 C383 1.367 . S
C382 C390 1.378 . S
C383 C382 1.367 . S
C383 C391 1.411 1_455 S
C384 H380 0.929 . S
C384 C386 1.378 . S
C384 C388 1.350 1_655 S
C385 C388 1.463 . S
C385 C390 1.350 . S
C385 N393 1.427 1_455 S
C386 H377 0.930 . S
C386 C384 1.378 . S
C386 C387 1.353 1_655 S
C387 C386 1.353 1_455 S
C387 C389 1.451 . S
C388 C384 1.350 1_455 S
C388 C385 1.463 . S
C388 N392 1.427 . S
C389 H379 0.929 . S
C389 C387 1.451 . S
C389 N392 1.384 . S
C390 H381 0.929 . S
C390 C382 1.378 . S
C390 C385 1.350 . S
C391 H378 0.947 . S
C391 C383 1.411 1_655 S
C391 N393 1.388 . S
N392 C388 1.427 . S
N392 C389 1.384 . S
N393 C385 1.427 1_655 S
N393 C391 1.388 . S
H394 C400 0.930 . S
H395 C404 0.930 . S
H396 C409 0.929 1_565 S
H397 C407 0.929 . S
H398 C402 0.929 . S
H399 C408 0.929 . S
C400 H394 0.930 . S
C400 C401 1.367 . S
C400 C408 1.378 . S
C401 C400 1.367 . S
C401 C409 1.433 . S
C402 H398 0.929 . S
C402 C404 1.378 . S
C402 C406 1.350 1_565 S
C403 C406 1.463 . S
C403 C408 1.350 . S
C403 N411 1.450 . S
C404 H395 0.930 . S
C404 C402 1.378 . S
C404 C405 1.367 1_565 S
C405 C404 1.367 1_545 S
C405 C407 1.433 . S
C406 C402 1.350 1_545 S
C406 C403 1.463 . S
C406 N410 1.427 . S
C407 H397 0.929 . S
C407 C405 1.433 . S
C407 N410 1.384 . S
C408 H399 0.929 . S
C408 C400 1.378 . S
C408 C403 1.350 . S
C409 H396 0.929 1_545 S
C409 C401 1.433 . S
C409 N411 1.391 . S
N410 C406 1.427 . S
N410 C407 1.384 . S
N411 C403 1.450 . S
N411 C409 1.391 . S
H412 C418 0.930 . S
H413 C422 0.930 . S
H414 C427 0.929 . S
H415 C425 0.929 . S
H416 C420 0.929 . S
H417 C426 0.929 . S
C418 H412 0.930 . S
C418 C419 1.367 . S
C418 C426 1.378 . S
C419 C418 1.367 . S
C419 C427 1.433 . S
C420 H416 0.929 . S
C420 C422 1.378 . S
C420 C424 1.350 . S
C421 C424 1.463 . S
C421 C426 1.350 . S
C421 N429 1.427 . S
C422 H413 0.930 . S
C422 C420 1.378 . S
C422 C423 1.367 . S
C423 C422 1.367 . S
C423 C425 1.433 . S
C424 C420 1.350 . S
C424 C421 1.463 . S
C424 N428 1.427 . S
C425 H415 0.929 . S
C425 C423 1.433 . S
C425 N428 1.384 . S
C426 H417 0.929 . S
C426 C418 1.378 . S
C426 C421 1.350 . S
C427 H414 0.929 . S
C427 C419 1.433 . S
C427 N429 1.384 . S
N428 C424 1.427 . S
N428 C425 1.384 . S
N429 C421 1.427 . S
N429 C427 1.384 . S
H430 C436 0.930 . S
H431 C440 0.930 . S
H432 C445 0.929 . S
H433 C443 0.929 . S
H434 C438 0.929 . S
H435 C444 0.929 . S
C436 H430 0.930 . S
C436 C437 1.367 . S
C436 C444 1.378 . S
C437 C436 1.367 . S
C437 C445 1.433 . S
C438 H434 0.929 . S
C438 C440 1.378 . S
C438 C442 1.350 . S
C439 C442 1.463 . S
C439 C444 1.350 . S
C439 N447 1.427 . S
C440 H431 0.930 . S
C440 C438 1.378 . S
C440 C441 1.367 . S
C441 C440 1.367 . S
C441 C443 1.433 . S
C442 C438 1.350 . S
C442 C439 1.463 . S
C442 N446 1.427 . S
C443 H433 0.929 . S
C443 C441 1.433 . S
C443 N446 1.384 . S
C444 H435 0.929 . S
C444 C436 1.378 . S
C444 C439 1.350 . S
C445 H432 0.929 . S
C445 C437 1.433 . S
C445 N447 1.384 . S
N446 C442 1.427 . S
N446 C443 1.384 . S
N447 C439 1.427 . S
N447 C445 1.384 . S
H448 C454 0.930 1_454 S
H449 C458 0.930 . S
H450 C463 0.929 . S
H451 C461 0.929 . S
H452 C456 0.929 . S
H453 C462 0.929 . S
C454 H448 0.930 1_656 S
C454 C455 1.367 . S
C454 C462 1.378 1_655 S
C455 C454 1.367 . S
C455 C463 1.433 . S
C456 H452 0.929 . S
C456 C458 1.378 . S
C456 C460 1.350 . S
C457 C460 1.463 . S
C457 C462 1.350 1_655 S
C457 N465 1.427 . S
C458 H449 0.930 . S
C458 C456 1.378 . S
C458 C459 1.367 1_655 S
C459 C458 1.367 1_455 S
C459 C461 1.433 . S
C460 C456 1.350 . S
C460 C457 1.463 . S
C460 N464 1.427 1_655 S
C461 H451 0.929 . S
C461 C459 1.433 . S
C461 N464 1.384 . S
C462 H453 0.929 . S
C462 C454 1.378 1_455 S
C462 C457 1.350 1_455 S
C463 H450 0.929 . S
C463 C455 1.433 . S
C463 N465 1.384 . S
N464 C460 1.427 1_455 S
N464 C461 1.384 . S
N465 C457 1.427 . S
N465 C463 1.384 . S
H466 C472 0.930 1_544 S
H467 C476 0.930 . S
H468 C481 0.929 . S
H469 C479 0.929 . S
H470 C474 0.929 . S
H471 C480 0.945 . S
C472 H466 0.930 1_566 S
C472 C473 1.367 . S
C472 C480 1.372 1_565 S
C473 C472 1.367 . S
C473 C481 1.433 . S
C474 H470 0.929 . S
C474 C476 1.378 . S
C474 C478 1.350 . S
C475 C478 1.463 . S
C475 C480 1.340 1_565 S
C475 N483 1.427 . S
C476 H467 0.930 . S
C476 C474 1.378 . S
C476 C477 1.367 1_565 S
C477 C476 1.367 1_545 S
C477 C479 1.433 . S
C478 C474 1.350 . S
C478 C475 1.463 . S
C478 N482 1.427 1_565 S
C479 H469 0.929 . S
C479 C477 1.433 . S
C479 N482 1.384 . S
C480 H471 0.945 . S
C480 C472 1.372 1_545 S
C480 C475 1.340 1_545 S
C481 H468 0.929 . S
C481 C473 1.433 . S
C481 N483 1.384 . S
N482 C478 1.427 1_545 S
N482 C479 1.384 . S
N483 C475 1.427 . S
N483 C481 1.384 . S
H484 C490 0.930 . S
H485 C494 0.930 . S
H486 C499 0.929 1_554 S
H487 C497 0.929 . S
H488 C492 0.929 . S
H489 C498 0.929 . S
C490 H484 0.930 . S
C490 C491 1.367 . S
C490 C498 1.378 . S
C491 C490 1.367 . S
C491 C499 1.433 . S
C492 H488 0.929 . S
C492 C494 1.378 . S
C492 C496 1.350 . S
C493 C496 1.463 . S
C493 C498 1.350 . S
C493 N501 1.427 . S
C494 H485 0.930 . S
C494 C492 1.378 . S
C494 C495 1.367 . S
C495 C494 1.367 . S
C495 C497 1.433 . S
C496 C492 1.350 . S
C496 C493 1.463 . S
C496 N500 1.427 . S
C497 H487 0.929 . S
C497 C495 1.433 . S
C497 N500 1.384 . S
C498 H489 0.929 . S
C498 C490 1.378 . S
C498 C493 1.350 . S
C499 H486 0.929 1_556 S
C499 C491 1.433 . S
C499 N501 1.384 . S
N500 C496 1.427 . S
N500 C497 1.384 . S
N501 C493 1.427 . S
N501 C499 1.384 . S
H502 C508 0.930 . S
H503 C512 0.930 . S
H504 C517 0.929 . S
H505 C515 0.929 . S
H506 C510 0.929 . S
H507 C516 0.929 . S
C508 H502 0.930 . S
C508 C509 1.367 . S
C508 C516 1.378 . S
C509 C508 1.367 . S
C509 C517 1.433 . S
C510 H506 0.929 . S
C510 C512 1.378 . S
C510 C514 1.350 . S
C511 C514 1.463 . S
C511 C516 1.350 . S
C511 N519 1.427 . S
C512 H503 0.930 . S
C512 C510 1.378 . S
C512 C513 1.367 . S
C513 C512 1.367 . S
C513 C515 1.433 . S
C514 C510 1.350 . S
C514 C511 1.463 . S
C514 N518 1.427 . S
C515 H505 0.929 . S
C515 C513 1.433 . S
C515 N518 1.384 . S
C516 H507 0.929 . S
C516 C508 1.378 . S
C516 C511 1.350 . S
C517 H504 0.929 . S
C517 C509 1.433 . S
C517 N519 1.384 . S
N518 C514 1.427 . S
N518 C515 1.384 . S
N519 C511 1.427 . S
N519 C517 1.384 . S
H520 C526 0.930 . S
H521 C530 0.930 . S
H522 C535 0.929 . S
H523 C533 0.929 . S
H524 C528 0.929 . S
H525 C534 0.929 . S
C526 H520 0.930 . S
C526 C527 1.367 . S
C526 C534 1.378 . S
C527 C526 1.367 . S
C527 C535 1.433 1_556 S
C528 H524 0.929 . S
C528 C530 1.378 . S
C528 C532 1.350 . S
C529 C532 1.463 . S
C529 C534 1.350 . S
C529 N537 1.427 1_556 S
C530 H521 0.930 . S
C530 C528 1.378 . S
C530 C531 1.367 . S
C531 C530 1.367 . S
C531 C533 1.433 . S
C532 C528 1.350 . S
C532 C529 1.463 . S
C532 N536 1.427 . S
C533 H523 0.929 . S
C533 C531 1.433 . S
C533 N536 1.384 . S
C534 H525 0.929 . S
C534 C526 1.378 . S
C534 C529 1.350 . S
C535 H522 0.929 . S
C535 C527 1.433 1_554 S
C535 N537 1.384 . S
N536 C532 1.427 . S
N536 C533 1.384 . S
N537 C529 1.427 1_554 S
N537 C535 1.384 . S
H538 C544 0.930 . S
H539 C548 0.930 . S
H540 C553 0.929 1_565 S
H541 C551 0.929 . S
H542 C546 0.929 . S
H543 C552 0.929 . S
C544 H538 0.930 . S
C544 C545 1.367 . S
C544 C552 1.378 . S
C545 C544 1.367 . S
C545 C553 1.433 1_556 S
C546 H542 0.929 . S
C546 C548 1.378 . S
C546 C550 1.350 1_565 S
C547 C550 1.463 . S
C547 C552 1.350 . S
C547 N555 1.427 . S
C548 H539 0.930 . S
C548 C546 1.378 . S
C548 C549 1.367 1_565 S
C549 C548 1.367 1_545 S
C549 C551 1.433 . S
C550 C546 1.350 1_545 S
C550 C547 1.463 . S
C550 N554 1.427 . S
C551 H541 0.929 . S
C551 C549 1.433 . S
C551 N554 1.384 . S
C552 H543 0.929 . S
C552 C544 1.378 . S
C552 C547 1.350 . S
C553 H540 0.929 1_545 S
C553 C545 1.433 1_554 S
C553 N555 1.384 1_554 S
N554 C550 1.427 . S
N554 C551 1.384 . S
N555 C547 1.427 . S
N555 C553 1.384 1_556 S
H556 C562 0.930 . S
H557 C566 0.930 . S
H558 C571 0.929 . S
H559 C569 0.929 . S
H560 C564 0.929 . S
H561 C570 0.929 . S
C562 H556 0.930 . S
C562 C563 1.367 . S
C562 C570 1.378 . S
C563 C562 1.367 . S
C563 C571 1.433 1_556 S
C564 H560 0.929 . S
C564 C566 1.378 . S
C564 C568 1.350 . S
C565 C568 1.463 . S
C565 C570 1.350 . S
C565 N573 1.427 1_556 S
C566 H557 0.930 . S
C566 C564 1.378 . S
C566 C567 1.367 . S
C567 C566 1.367 . S
C567 C569 1.433 . S
C568 C564 1.350 . S
C568 C565 1.463 . S
C568 N572 1.427 . S
C569 H559 0.929 . S
C569 C567 1.433 . S
C569 N572 1.384 . S
C570 H561 0.929 . S
C570 C562 1.378 . S
C570 C565 1.350 . S
C571 H558 0.929 . S
C571 C563 1.433 1_554 S
C571 N573 1.384 . S
N572 C568 1.427 . S
N572 C569 1.384 . S
N573 C565 1.427 1_554 S
N573 C571 1.384 . S
H574 C580 0.930 . S
H575 C584 0.930 . S
H576 C589 0.929 . S
H577 C587 0.929 . S
H578 C582 0.929 . S
H579 C588 0.929 . S
C580 H574 0.930 . S
C580 C581 1.367 . S
C580 C588 1.378 . S
C581 C580 1.367 . S
C581 C589 1.433 1_556 S
C582 H578 0.929 . S
C582 C584 1.378 . S
C582 C586 1.350 . S
C583 C586 1.463 . S
C583 C588 1.350 . S
C583 N591 1.427 . S
C584 H575 0.930 . S
C584 C582 1.378 . S
C584 C585 1.367 . S
C585 C584 1.367 . S
C585 C587 1.433 . S
C586 C582 1.350 . S
C586 C583 1.463 . S
C586 N590 1.427 . S
C587 H577 0.929 . S
C587 C585 1.433 . S
C587 N590 1.384 . S
C588 H579 0.929 . S
C588 C580 1.378 . S
C588 C583 1.350 . S
C589 H576 0.929 . S
C589 C581 1.433 1_554 S
C589 N591 1.384 1_554 S
N590 C586 1.427 . S
N590 C587 1.384 . S
N591 C583 1.427 . S
N591 C589 1.384 1_556 S
H592 C598 0.930 . S
H593 C602 0.930 . S
H594 C607 0.929 . S
H595 C605 0.929 . S
H596 C600 0.929 . S
H597 C606 0.929 . S
C598 H592 0.930 . S
C598 C599 1.367 1_455 S
C598 C606 1.378 . S
C599 C598 1.367 1_655 S
C599 C607 1.433 . S
C600 H596 0.929 . S
C600 C602 1.378 . S
C600 C604 1.350 . S
C601 C604 1.463 . S
C601 C606 1.350 1_655 S
C601 N609 1.427 . S
C602 H593 0.930 . S
C602 C600 1.378 . S
C602 C603 1.367 . S
C603 C602 1.367 . S
C603 C605 1.433 1_655 S
C604 C600 1.350 . S
C604 C601 1.463 . S
C604 N608 1.427 1_655 S
C605 H595 0.929 . S
C605 C603 1.433 1_455 S
C605 N608 1.384 . S
C606 H597 0.929 . S
C606 C598 1.378 . S
C606 C601 1.350 1_455 S
C607 H594 0.929 . S
C607 C599 1.433 . S
C607 N609 1.384 . S
N608 C604 1.427 1_455 S
N608 C605 1.384 . S
N609 C601 1.427 . S
N609 C607 1.384 . S
H610 C616 0.930 . S
H611 C620 0.930 . S
H612 C625 0.929 . S
H613 C623 0.929 . S
H614 C618 0.929 . S
H615 C624 0.929 . S
C616 H610 0.930 . S
C616 C617 1.367 1_545 S
C616 C624 1.378 . S
C617 C616 1.367 1_565 S
C617 C625 1.433 . S
C618 H614 0.929 . S
C618 C620 1.378 . S
C618 C622 1.350 . S
C619 C622 1.463 . S
C619 C624 1.350 1_565 S
C619 N627 1.427 . S
C620 H611 0.930 . S
C620 C618 1.378 . S
C620 C621 1.367 . S
C621 C620 1.367 . S
C621 C623 1.433 1_565 S
C622 C618 1.350 . S
C622 C619 1.463 . S
C622 N626 1.427 1_565 S
C623 H613 0.929 . S
C623 C621 1.433 1_545 S
C623 N626 1.384 . S
C624 H615 0.929 . S
C624 C616 1.378 . S
C624 C619 1.350 1_545 S
C625 H612 0.929 . S
C625 C617 1.433 . S
C625 N627 1.384 . S
N626 C622 1.427 1_545 S
N626 C623 1.384 . S
N627 C619 1.427 . S
N627 C625 1.384 . S
H628 C634 0.930 . S
H629 C638 0.930 . S
H630 C643 0.929 . S
H631 C641 0.929 . S
H632 C636 0.929 . S
H633 C642 0.929 . S
C634 H628 0.930 . S
C634 C635 1.367 . S
C634 C642 1.378 . S
C635 C634 1.367 . S
C635 C643 1.433 . S
C636 H632 0.929 . S
C636 C638 1.378 . S
C636 C640 1.350 . S
C637 C640 1.463 . S
C637 C642 1.350 . S
C637 N645 1.427 . S
C638 H629 0.930 . S
C638 C636 1.378 . S
C638 C639 1.367 . S
C639 C638 1.367 . S
C639 C641 1.433 . S
C640 C636 1.350 . S
C640 C637 1.463 . S
C640 N644 1.427 . S
C641 H631 0.929 . S
C641 C639 1.433 . S
C641 N644 1.384 . S
C642 H633 0.929 . S
C642 C634 1.378 . S
C642 C637 1.350 . S
C643 H630 0.929 . S
C643 C635 1.433 . S
C643 N645 1.384 . S
N644 C640 1.427 . S
N644 C641 1.384 . S
N645 C637 1.427 . S
N645 C643 1.384 . S
H646 C652 0.930 . S
H647 C656 0.930 . S
H648 C661 0.929 . S
H649 C659 0.929 . S
H650 C654 0.929 . S
H651 C660 0.929 . S
C652 H646 0.930 . S
C652 C653 1.367 . S
C652 C660 1.378 . S
C653 C652 1.367 . S
C653 C661 1.433 . S
C654 H650 0.929 . S
C654 C656 1.378 . S
C654 C658 1.350 . S
C655 C658 1.463 . S
C655 C660 1.350 . S
C655 N663 1.427 . S
C656 H647 0.930 . S
C656 C654 1.378 . S
C656 C657 1.367 . S
C657 C656 1.367 . S
C657 C659 1.433 . S
C658 C654 1.350 . S
C658 C655 1.463 . S
C658 N662 1.427 . S
C659 H649 0.929 . S
C659 C657 1.433 . S
C659 N662 1.384 . S
C660 H651 0.929 . S
C660 C652 1.378 . S
C660 C655 1.350 . S
C661 H648 0.929 . S
C661 C653 1.433 . S
C661 N663 1.384 . S
N662 C658 1.427 . S
N662 C659 1.384 . S
N663 C655 1.427 . S
N663 C661 1.384 . S
C239 C125 1.471 . S
C243 C170 1.527 . S
C261 C190 1.531 . S
C257 C144 1.473 . S
C279 C210 1.530 . S
C275 C87 1.472 . S
C297 C230 1.519 . S
C293 C106 1.487 . S
C315 C171 1.522 1_565 S
C311 C49 1.517 . S
C329 C68 1.529 . S
C333 C191 1.525 . S
C347 C11 1.521 . S
C351 C211 1.529 . S
C365 C30 1.528 . S
C369 C231 1.521 1_655 S
C387 C161 0.935 . S
C383 C97 0.930 . S
C405 C181 0.932 . S
C401 C116 0.934 . S
C423 C201 0.922 . S
C419 C135 0.932 . S
C437 C78 0.934 . S
C441 C221 0.925 . S
C455 C21 0.911 . S
C459 C164 0.903 . S
C477 C184 0.903 . S
C473 C40 0.909 . S
C495 C204 0.932 . S
C491 C59 0.933 . S
C509 C2 0.913 . S
C513 C224 0.903 . S
C527 C101 1.526 1_556 S
C531 C154 1.456 . S
C545 C120 1.521 1_556 S
C549 C174 1.447 . S
C567 C194 1.456 . S
C563 C139 1.526 1_556 S
C585 C214 1.457 . S
C581 C82 1.522 1_556 S
C599 C25 1.521 . S
C603 C156 1.455 . S
C621 C176 1.445 . S
C617 C44 1.513 . S
C639 C196 1.439 . S
C635 C63 1.511 . S
C653 C6 1.525 . S
C657 C216 1.453 . S
