# Generated by pormake.
# Topology sit, (3,6)-cn, num edge types: 1
# Building blocks:
#     Node 0, Type 0, BuildingBlock: MIDCAF_clean_linker_0, # of connection points: 3
#     Node 1, Type 0, BuildingBlock: MIDCAF_clean_linker_0, # of connection points: 3
#     Node 2, Type 0, BuildingBlock: MIDCAF_clean_linker_0, # of connection points: 3
#     Node 3, Type 0, BuildingBlock: MIDCAF_clean_linker_0, # of connection points: 3
#     Node 4, Type 1, BuildingBlock: MIDCAF_clean_sbu_0, # of connection points: 6
#     Node 5, Type 1, BuildingBlock: MIDCAF_clean_sbu_0, # of connection points: 6
#     Edge 6, Type (0, 1), BuildingBlock: ZUJKAS_clean_linker_0, # of connection points: 2
#     Edge 7, Type (0, 1), BuildingBlock: ZUJKAS_clean_linker_0, # of connection points: 2
#     Edge 8, Type (0, 1), BuildingBlock: ZUJKAS_clean_linker_0, # of connection points: 2
#     Edge 9, Type (0, 1), BuildingBlock: ZUJKAS_clean_linker_0, # of connection points: 2
#     Edge 10, Type (0, 1), BuildingBlock: ZUJKAS_clean_linker_0, # of connection points: 2
#     Edge 11, Type (0, 1), BuildingBlock: ZUJKAS_clean_linker_0, # of connection points: 2
#     Edge 12, Type (0, 1), BuildingBlock: ZUJKAS_clean_linker_0, # of connection points: 2
#     Edge 13, Type (0, 1), BuildingBlock: ZUJKAS_clean_linker_0, # of connection points: 2
#     Edge 14, Type (0, 1), BuildingBlock: ZUJKAS_clean_linker_0, # of connection points: 2
#     Edge 15, Type (0, 1), BuildingBlock: ZUJKAS_clean_linker_0, # of connection points: 2
#     Edge 16, Type (0, 1), BuildingBlock: ZUJKAS_clean_linker_0, # of connection points: 2
#     Edge 17, Type (0, 1), BuildingBlock: ZUJKAS_clean_linker_0, # of connection points: 2
# Relax obj value: 0.111
# Max RMSD: 0.194
# Mean RMSD: 0.107
data_MOF--net-sit--node1-MIDCAF_clean_sbu_0--node2-MIDCAF_clean_linker_0--edge1-ZUJKAS_clean_linker_0
_symmetry_space_group_name_H-M    P1
_symmetry_Int_Tables_number       1
_symmetry_cell_setting            triclinic
loop_
_symmetry_equiv_pos_as_xyz
'x, y, z'
_cell_length_a     35.141718
_cell_length_b     48.005627
_cell_length_c     53.16724
_cell_angle_alpha  90.064388
_cell_angle_beta   89.230721
_cell_angle_gamma 84.404167
loop_
_atom_site_label
_atom_site_type_symbol
_atom_site_fract_x
_atom_site_fract_y
_atom_site_fract_z
_atom_type_partial_charge
C0 C 0.97138 0.41259 0.03473 0.0
C1 C 0.93577 0.40192 0.03756 0.0
C2 C 0.93451 0.37476 0.04724 0.0
C3 C 0.96827 0.35819 0.05289 0.0
H4 H 0.01044 0.27871 0.0751 0.0
H5 H 0.00988 0.23195 0.0928 0.0
H6 H 0.13333 0.22199 0.09123 0.0
H7 H 0.13414 0.26881 0.07379 0.0
H8 H 0.18012 0.31683 0.05061 0.0
H9 H 0.23883 0.33258 0.03317 0.0
H10 H 0.17437 0.4063 0.00356 0.0
H11 H 0.11614 0.39115 0.02155 0.0
H12 H 0.03201 0.4048 0.03719 0.0
H13 H 0.97343 0.4333 0.02707 0.0
H14 H 0.90744 0.36608 0.04992 0.0
H15 H 0.96631 0.3371 0.05965 0.0
N16 N 0.03975 0.32368 0.06132 0.0
N17 N 0.10641 0.31623 0.05597 0.0
N18 N 0.07383 0.35925 0.04493 0.0
C19 C 0.07285 0.30661 0.06333 0.0
C20 C 0.1071 0.34255 0.04672 0.0
C21 C 0.04008 0.35011 0.05224 0.0
C22 C 0.07235 0.27772 0.07319 0.0
C23 C 0.03752 0.26657 0.07842 0.0
C24 C 0.03715 0.23964 0.08836 0.0
C25 C 0.07156 0.22331 0.09344 0.0
C26 C 0.10635 0.2342 0.08775 0.0
C27 C 0.10675 0.26104 0.07768 0.0
C28 C 0.14329 0.35261 0.03742 0.0
C29 C 0.17851 0.33651 0.04056 0.0
C30 C 0.21217 0.34548 0.03045 0.0
C31 C 0.21135 0.37067 0.01686 0.0
C32 C 0.17624 0.38702 0.01423 0.0
C33 C 0.14269 0.37817 0.02444 0.0
C34 C 0.00402 0.36842 0.0489 0.0
C35 C 0.00507 0.39607 0.04033 0.0
C36 C 0.9603 0.66259 0.97569 0.0
C37 C 0.92379 0.67156 0.98548 0.0
C38 C 0.92089 0.6894 0.00663 0.0
C39 C 0.95385 0.69717 0.01821 0.0
H40 H 0.00582 0.76511 0.05252 0.0
H41 H 0.01071 0.80929 0.07409 0.0
H42 H 0.12741 0.78213 0.09348 0.0
H43 H 0.12294 0.73806 0.07151 0.0
H44 H 0.16247 0.67792 0.05015 0.0
H45 H 0.2168 0.64264 0.04255 0.0
H46 H 0.14208 0.58971 0.00572 0.0
H47 H 0.08822 0.62432 0.01316 0.0
H48 H 0.02072 0.66202 0.97978 0.0
H49 H 0.96373 0.64961 0.95899 0.0
H50 H 0.89328 0.69658 0.01479 0.0
H51 H 0.95092 0.71024 0.03488 0.0
N52 N 0.02789 0.71628 0.0353 0.0
N53 N 0.09115 0.70079 0.0462 0.0
N54 N 0.05552 0.67241 0.02182 0.0
C55 C 0.0609 0.7209 0.04708 0.0
C56 C 0.08844 0.67634 0.03369 0.0
C57 C 0.02523 0.69209 0.02252 0.0
C58 C 0.06396 0.74785 0.0603 0.0
C59 C 0.03262 0.76848 0.0613 0.0
C60 C 0.03533 0.79385 0.07375 0.0
C61 C 0.06943 0.79927 0.08549 0.0
C62 C 0.10088 0.77879 0.08431 0.0
C63 C 0.09819 0.75338 0.07188 0.0
C64 C 0.12103 0.65427 0.03188 0.0
C65 C 0.15756 0.6586 0.04074 0.0
C66 C 0.1886 0.63838 0.03654 0.0
C67 C 0.18356 0.61365 0.02333 0.0
C68 C 0.14679 0.60876 0.01567 0.0
C69 C 0.11594 0.62874 0.01993 0.0
C70 C 0.99018 0.68684 0.00909 0.0
C71 C 0.99304 0.66988 0.98751 0.0
C72 C 0.46636 0.89291 0.50884 0.0
C73 C 0.43483 0.89399 0.52551 0.0
C74 C 0.43704 0.87633 0.54672 0.0
C75 C 0.46992 0.85804 0.551 0.0
H76 H 0.50734 0.77271 0.57222 0.0
H77 H 0.50661 0.72905 0.59525 0.0
H78 H 0.63018 0.71956 0.59494 0.0
H79 H 0.63097 0.7628 0.57118 0.0
H80 H 0.67721 0.80572 0.53709 0.0
H81 H 0.73477 0.81935 0.51571 0.0
H82 H 0.66554 0.88209 0.47399 0.0
H83 H 0.60852 0.86862 0.49486 0.0
H84 H 0.52269 0.87485 0.49988 0.0
H85 H 0.46551 0.90535 0.49185 0.0
H86 H 0.41347 0.87668 0.56007 0.0
H87 H 0.47088 0.84474 0.56747 0.0
N88 N 0.53675 0.81504 0.5525 0.0
N89 N 0.60266 0.80475 0.54444 0.0
N90 N 0.56989 0.84509 0.52763 0.0
C91 C 0.56962 0.79785 0.55545 0.0
C92 C 0.6029 0.82841 0.53045 0.0
C93 C 0.53682 0.83875 0.53857 0.0
C94 C 0.56922 0.77142 0.56988 0.0
C95 C 0.53441 0.76137 0.57706 0.0
C96 C 0.53398 0.73632 0.59037 0.0
C97 C 0.56834 0.72074 0.59705 0.0
C98 C 0.60316 0.73073 0.58979 0.0
C99 C 0.6036 0.75571 0.57631 0.0
C100 C 0.63819 0.83604 0.51773 0.0
C101 C 0.67432 0.82235 0.5233 0.0
C102 C 0.70727 0.83023 0.51118 0.0
C103 C 0.70456 0.85168 0.4931 0.0
C104 C 0.66848 0.86523 0.48757 0.0
C105 C 0.63578 0.85758 0.49973 0.0
C106 C 0.50139 0.85736 0.53435 0.0
C107 C 0.4992 0.87508 0.51331 0.0
C108 C 0.4321 0.13849 0.51208 0.0
C109 C 0.39773 0.15582 0.51469 0.0
C110 C 0.39838 0.18223 0.52611 0.0
C111 C 0.43284 0.19116 0.5345 0.0
H112 H 0.48944 0.26261 0.55475 0.0
H113 H 0.49208 0.30757 0.57547 0.0
H114 H 0.60022 0.27725 0.6083 0.0
H115 H 0.59837 0.23286 0.5865 0.0
H116 H 0.64714 0.17963 0.55204 0.0
H117 H 0.7037 0.14967 0.53722 0.0
H118 H 0.63065 0.09592 0.49989 0.0
H119 H 0.57467 0.12508 0.51454 0.0
H120 H 0.49213 0.13331 0.51775 0.0
H121 H 0.43286 0.11828 0.50291 0.0
H122 H 0.37229 0.19601 0.52853 0.0
H123 H 0.43251 0.21168 0.54303 0.0
N124 N 0.50681 0.20841 0.55031 0.0
N125 N 0.57377 0.19906 0.55237 0.0
N126 N 0.53688 0.16617 0.53484 0.0
C127 C 0.5414 0.21649 0.55698 0.0
C128 C 0.57159 0.1738 0.54115 0.0
C129 C 0.50441 0.18309 0.53933 0.0
C130 C 0.54362 0.24409 0.56907 0.0
C131 C 0.51388 0.26562 0.5663 0.0
C132 C 0.51533 0.29141 0.57831 0.0
C133 C 0.54626 0.29619 0.59376 0.0
C134 C 0.57624 0.27468 0.59622 0.0
C135 C 0.57508 0.24906 0.58386 0.0
C136 C 0.60627 0.15502 0.53432 0.0
C137 C 0.64317 0.16127 0.5409 0.0
C138 C 0.67549 0.1441 0.53256 0.0
C139 C 0.67133 0.1207 0.51728 0.0
C140 C 0.63457 0.11401 0.51144 0.0
C141 C 0.60248 0.13082 0.51993 0.0
C142 C 0.46727 0.17384 0.53156 0.0
C143 C 0.46631 0.14731 0.52043 0.0
Zn144 Zn 0.02993 0.06186 0.34143 0.0
Zn145 Zn 0.09381 0.95382 0.33756 0.0
Zn146 Zn 0.06083 0.00766 0.34045 0.0
C147 C 0.08432 0.97339 0.28857 0.0
C148 C 0.02048 0.95501 0.36134 0.0
O149 O 0.09921 0.03186 0.36198 0.0
O150 O 0.06873 0.07442 0.36492 0.0
C151 C 0.04899 0.04802 0.29153 0.0
O152 O 0.06943 0.99529 0.30045 0.0
O153 O 0.09815 0.95204 0.30036 0.0
O154 O 0.04944 0.93856 0.3552 0.0
O155 O 0.01974 0.98145 0.35708 0.0
O156 O 0.03684 0.06883 0.30491 0.0
O157 O 0.05786 0.0239 0.30157 0.0
O158 O 0.00518 0.00998 0.36026 0.0
O159 O 0.97955 0.05368 0.35567 0.0
C160 C 0.97754 0.02924 0.36403 0.0
O161 O 0.11347 1.00328 0.36305 0.0
O162 O 0.13957 0.95978 0.35735 0.0
C163 C 0.09716 0.05728 0.37006 0.0
C164 C 0.14015 0.98357 0.36738 0.0
Zn165 Zn 0.52975 0.55915 0.84908 0.0
Zn166 Zn 0.59982 0.45251 0.84703 0.0
Zn167 Zn 0.566 0.50648 0.84773 0.0
C168 C 0.58631 0.46984 0.79709 0.0
C169 C 0.5281 0.45363 0.87172 0.0
O170 O 0.60559 0.53293 0.86533 0.0
O171 O 0.57355 0.57504 0.86607 0.0
C172 C 0.54227 0.54359 0.79841 0.0
O173 O 0.57123 0.49222 0.80817 0.0
O174 O 0.60231 0.44983 0.80973 0.0
O175 O 0.55678 0.43679 0.86587 0.0
O176 O 0.52746 0.47984 0.86645 0.0
O177 O 0.52556 0.56277 0.81201 0.0
O178 O 0.55897 0.52135 0.80853 0.0
O179 O 0.51276 0.50792 0.87064 0.0
O180 O 0.48446 0.55118 0.86952 0.0
C181 C 0.48528 0.5263 0.87728 0.0
O182 O 0.61986 0.50445 0.86885 0.0
O183 O 0.64555 0.4605 0.86603 0.0
C184 C 0.60355 0.55922 0.87069 0.0
C185 C 0.6465 0.4851 0.87427 0.0
H186 H 0.02654 0.18113 0.08315 0.0
H187 H 0.02287 0.13745 0.10662 0.0
H188 H 0.11134 0.16017 0.15595 0.0
H189 H 0.11549 0.2034 0.1325 0.0
H190 H 0.1199 0.10383 0.14336 0.0
H191 H 0.97051 0.13748 0.17512 0.0
H192 H 0.97915 0.13469 0.1418 0.0
H193 H -0.00018 0.16117 0.15952 0.0
C194 C 0.0453 0.17667 0.09894 0.0
C195 C 0.07115 0.19577 0.10609 0.0
C196 C 0.04317 0.15174 0.11231 0.0
C197 C 0.06645 0.14574 0.13326 0.0
C198 C 0.09319 0.16431 0.1398 0.0
H199 H 0.09773 0.08186 0.27175 0.0
H200 H 0.10313 0.09609 0.22788 0.0
C201 C 0.09556 0.18903 0.12636 0.0
C202 C 0.06173 0.12134 0.14971 0.0
H203 H 0.00217 0.09879 0.19496 0.0
C204 C 0.09385 0.10231 0.15424 0.0
C205 C 0.02759 0.11916 0.16373 0.0
C206 C 0.9923 0.13924 0.16002 0.0
C207 C 0.09366 0.08262 0.17372 0.0
C208 C 0.06064 0.08212 0.18908 0.0
C209 C 0.02743 0.09928 0.18308 0.0
C210 C 0.06233 0.06886 0.21418 0.0
C211 C 0.12944 0.06356 0.17868 0.0
C212 C 0.03782 0.04858 0.22099 0.0
C213 C 0.03497 0.04027 0.24618 0.0
C214 C 0.05609 0.05256 0.26468 0.0
C215 C 0.08145 0.07203 0.25767 0.0
C216 C 0.08472 0.07998 0.23262 0.0
H217 H 0.14703 0.05982 0.16126 0.0
H218 H 0.14692 0.07357 0.19268 0.0
H219 H 0.12244 0.04313 0.18635 0.0
H220 H 0.01991 0.04008 0.20706 0.0
H221 H 0.01477 0.02555 0.25139 0.0
H222 H 0.12875 0.83241 0.0864 0.0
H223 H 0.13454 0.8734 0.11309 0.0
H224 H 0.02136 0.86689 0.14338 0.0
H225 H 0.01539 0.82586 0.11701 0.0
H226 H 0.04066 0.92431 0.13284 0.0
H227 H 0.14845 0.86021 0.18989 0.0
H228 H 0.15777 0.86204 0.15664 0.0
H229 H 0.11802 0.84459 0.16795 0.0
C230 C 0.10504 0.83977 0.09868 0.0
C231 C 0.07177 0.82568 0.09978 0.0
C232 C 0.10831 0.86327 0.11377 0.0
C233 C 0.07848 0.87299 0.1303 0.0
C234 C 0.04461 0.85978 0.13063 0.0
H235 H 0.02231 0.96862 0.26013 0.0
H236 H 0.02295 0.95123 0.21689 0.0
C237 C 0.04127 0.83633 0.11553 0.0
C238 C 0.08373 0.89501 0.1491 0.0
H239 H 0.12906 0.90538 0.20405 0.0
C240 C 0.06034 0.92043 0.14827 0.0
C241 C 0.10957 0.8899 0.16908 0.0
C242 C 0.13478 0.86268 0.1712 0.0
C243 C 0.0615 0.94066 0.16734 0.0
C244 C 0.08596 0.9349 0.18801 0.0
C245 C 0.11044 0.90994 0.18817 0.0
C246 C 0.08397 0.95244 0.21112 0.0
C247 C 0.03631 0.96782 0.16521 0.0
C248 C 0.11781 0.95958 0.22222 0.0
C249 C 0.11748 0.96889 0.24713 0.0
C250 C 0.08321 0.97178 0.26108 0.0
C251 C 0.0489 0.96703 0.24943 0.0
C252 C 0.04928 0.95725 0.22465 0.0
H253 H 0.03168 0.97366 0.14519 0.0
H254 H 0.00792 0.96525 0.17381 0.0
H255 H 0.04875 0.98522 0.17497 0.0
H256 H 0.14491 0.95596 0.21222 0.0
H257 H 0.14429 0.97213 0.25599 0.0
H258 H 0.51976 0.71049 0.6359 0.0
H259 H 0.52002 0.66842 0.66161 0.0
H260 H 0.61646 0.62998 0.61907 0.0
H261 H 0.61585 0.67182 0.59259 0.0
H262 H 0.5184 0.6076 0.6444 0.0
H263 H 0.64839 0.63161 0.69621 0.0
H264 H 0.61924 0.65855 0.6797 0.0
H265 H 0.64879 0.63253 0.66232 0.0
C266 C 0.54062 0.69296 0.6316 0.0
C267 C 0.56782 0.69463 0.61213 0.0
C268 C 0.54079 0.66896 0.64641 0.0
C269 C 0.5683 0.64621 0.64224 0.0
C270 C 0.59514 0.64745 0.62263 0.0
H271 H 0.60021 0.52548 0.7655 0.0
H272 H 0.60864 0.54187 0.72223 0.0
C273 C 0.59488 0.67145 0.60766 0.0
C274 C 0.5696 0.62198 0.65947 0.0
H275 H 0.61388 0.59625 0.71241 0.0
C276 C 0.53968 0.60467 0.659 0.0
C277 C 0.59772 0.61799 0.67821 0.0
C278 C 0.63042 0.6361 0.67939 0.0
C279 C 0.53594 0.58447 0.67772 0.0
C280 C 0.5622 0.58215 0.69773 0.0
C281 C 0.5937 0.59805 0.6971 0.0
C282 C 0.55424 0.56724 0.72138 0.0
C283 C 0.50322 0.56644 0.67629 0.0
C284 C 0.52056 0.5755 0.73502 0.0
C285 C 0.51569 0.56612 0.75954 0.0
C286 C 0.54447 0.54838 0.77102 0.0
C287 C 0.57731 0.5388 0.75696 0.0
C288 C 0.58223 0.54827 0.73231 0.0
H289 H 0.49598 0.56246 0.65641 0.0
H290 H 0.50998 0.54605 0.68588 0.0
H291 H 0.47751 0.57755 0.68544 0.0
H292 H 0.49899 0.59066 0.72734 0.0
H293 H 0.49014 0.57391 0.76997 0.0
H294 H 0.4851 0.32816 0.61516 0.0
H295 H 0.48603 0.36958 0.64149 0.0
H296 H 0.60879 0.36492 0.63348 0.0
H297 H 0.6079 0.32481 0.60551 0.0
H298 H 0.51621 0.37006 0.68512 0.0
H299 H 0.58521 0.44719 0.62796 0.0
H300 H 0.56807 0.41642 0.61426 0.0
H301 H 0.61462 0.41456 0.62841 0.0
C302 C 0.51224 0.33644 0.61819 0.0
C303 C 0.54647 0.3229 0.60816 0.0
C304 C 0.51271 0.3601 0.63348 0.0
C305 C 0.5474 0.37071 0.6393 0.0
C306 C 0.58151 0.3577 0.62881 0.0
H307 H 0.63724 0.44158 0.76531 0.0
H308 H 0.62447 0.42441 0.72325 0.0
C309 C 0.58101 0.33429 0.61319 0.0
C310 C 0.54844 0.39288 0.65878 0.0
H311 H 0.58943 0.45249 0.67345 0.0
C312 C 0.53137 0.38845 0.68229 0.0
C313 C 0.56819 0.41697 0.6552 0.0
C314 C 0.58467 0.4242 0.62998 0.0
C315 C 0.5354 0.40644 0.70265 0.0
C316 C 0.5571 0.42949 0.69946 0.0
C317 C 0.57283 0.43474 0.67577 0.0
C318 C 0.56751 0.44578 0.7215 0.0
C319 C 0.51823 0.39984 0.72788 0.0
C320 C 0.54024 0.46449 0.73387 0.0
C321 C 0.54756 0.47446 0.75792 0.0
C322 C 0.58211 0.46564 0.76983 0.0
C323 C 0.61037 0.44865 0.75653 0.0
C324 C 0.60319 0.43893 0.7325 0.0
H325 H 0.50413 0.38011 0.72755 0.0
H326 H 0.54076 0.39798 0.7424 0.0
H327 H 0.49665 0.41718 0.73362 0.0
H328 H 0.51247 0.46989 0.72564 0.0
H329 H 0.52516 0.48729 0.76788 0.0
H330 H 0.26778 0.33723 0.99256 0.0
H331 H 0.32325 0.35155 0.96967 0.0
H332 H 0.28865 0.43787 0.98825 0.0
H333 H 0.23406 0.42362 0.01229 0.0
H334 H 0.32119 0.38547 0.92862 0.0
H335 H 0.4012 0.43132 0.00524 0.0
H336 H 0.36218 0.41036 0.01142 0.0
H337 H 0.3527 0.44644 0.00235 0.0
C338 C 0.27244 0.3592 0.99237 0.0
C339 C 0.24646 0.37925 0.00436 0.0
C340 C 0.30399 0.36737 0.97907 0.0
C341 C 0.31028 0.39573 0.97747 0.0
C342 C 0.28474 0.41582 0.98962 0.0
H343 H 0.4523 0.46849 0.86497 0.0
H344 H 0.39888 0.45449 0.89059 0.0
C345 C 0.25327 0.40765 0.00309 0.0
C346 C 0.34233 0.40423 0.96182 0.0
H347 H 0.42364 0.43772 0.96344 0.0
C348 C 0.34369 0.39679 0.93626 0.0
C349 C 0.3716 0.41901 0.97185 0.0
C350 C 0.37214 0.42706 -0.00073 0.0
C351 C 0.37355 0.40369 0.92043 0.0
C352 C 0.40255 0.41869 0.93039 0.0
C353 C 0.40132 0.42612 0.95594 0.0
C354 C 0.43454 0.42679 0.91459 0.0
C355 C 0.37415 0.3945 0.89326 0.0
C356 C 0.47215 0.41599 0.91975 0.0
C357 C 0.5026 0.42408 0.90525 0.0
C358 C 0.49584 0.44342 0.88566 0.0
C359 C 0.45814 0.45379 0.8802 0.0
C360 C 0.42769 0.44567 0.89467 0.0
H361 H 0.35507 0.37773 0.89007 0.0
H362 H 0.36417 0.41264 0.88132 0.0
H363 H 0.40359 0.38679 0.88703 0.0
H364 H 0.47791 0.40137 0.93506 0.0
H365 H 0.53149 0.41584 0.90979 0.0
H366 H 0.91653 0.61949 0.9663 0.0
H367 H 0.86122 0.60272 0.94642 0.0
H368 H 0.79609 0.6821 0.96107 0.0
H369 H 0.85241 0.69989 0.97945 0.0
H370 H 0.79384 0.59487 0.96511 0.0
H371 H 0.77458 0.67255 0.888 0.0
H372 H 0.81653 0.66925 0.90735 0.0
H373 H 0.77295 0.68825 0.91867 0.0
C374 C 0.8908 0.63372 0.9648 0.0
C375 C 0.88927 0.66128 0.97412 0.0
C376 C 0.859 0.62394 0.95366 0.0
C377 C 0.82469 0.6413 0.95179 0.0
C378 C 0.82257 0.66856 0.96167 0.0
H379 H 0.60071 0.60506 0.90109 0.0
H380 H 0.65428 0.62512 0.92104 0.0
C381 C 0.85466 0.67856 0.97254 0.0
C382 C 0.79111 0.6303 0.94009 0.0
H383 H 0.72608 0.64174 0.89309 0.0
C384 C 0.77912 0.60512 0.94933 0.0
C385 C 0.77202 0.6436 0.91939 0.0
C386 C 0.78487 0.66975 0.90759 0.0
C387 C 0.7486 0.59294 0.93848 0.0
C388 C 0.72942 0.60635 0.91801 0.0
C389 C 0.74094 0.63164 0.9089 0.0
C390 C 0.69736 0.59428 0.90573 0.0
C391 C 0.73709 0.56574 0.94884 0.0
C392 C 0.70414 0.57059 0.89026 0.0
C393 C 0.67369 0.5593 0.87859 0.0
C394 C 0.63599 0.57126 0.8826 0.0
C395 C 0.62945 0.59527 0.89782 0.0
C396 C 0.65992 0.60672 0.90925 0.0
H397 H 0.75109 0.56006 0.96698 0.0
H398 H 0.70559 0.56693 0.95157 0.0
H399 H 0.74549 0.54884 0.93505 0.0
H400 H 0.733 0.56098 0.88708 0.0
H401 H 0.67968 0.5414 0.86628 0.0
H402 H 0.87879 0.38224 0.01046 0.0
H403 H 0.82571 0.40928 0.99002 0.0
H404 H 0.86032 0.48532 0.02199 0.0
H405 H 0.91385 0.45825 0.0427 0.0
H406 H 0.76437 0.44622 0.00769 0.0
H407 H 0.86395 0.49965 0.94588 0.0
H408 H 0.88019 0.46973 0.96476 0.0
H409 H 0.86869 0.50331 0.97932 0.0
C410 C 0.8747 0.40462 0.01368 0.0
C411 C 0.9007 0.41811 0.0281 0.0
C412 C 0.84441 0.42009 0.00187 0.0
C413 C 0.83945 0.44933 0.00419 0.0
C414 C 0.86411 0.46281 0.01959 0.0
H415 H 0.63848 0.51662 0.91708 0.0
H416 H 0.68431 0.51639 0.95156 0.0
C417 C 0.8946 0.44732 0.0314 0.0
C418 C 0.80982 0.46529 0.98899 0.0
H419 H 0.79919 0.50455 0.93558 0.0
C420 C 0.7717 0.45954 0.99225 0.0
C421 C 0.81967 0.48263 0.96888 0.0
C422 C 0.86032 0.48918 0.96427 0.0
C423 C 0.74361 0.46895 0.9749 0.0
C424 C 0.75395 0.4849 0.95396 0.0
C425 C 0.79145 0.49238 0.95171 0.0
C426 C 0.72837 0.48955 0.93217 0.0
C427 C 0.70387 0.45988 0.97803 0.0
C428 C 0.73868 0.47562 0.90952 0.0
C429 C 0.7127 0.47571 0.88995 0.0
C430 C 0.67617 0.4901 0.89254 0.0
C431 C 0.66668 0.50561 0.91456 0.0
C432 C 0.69264 0.50529 0.9343 0.0
H433 H 0.70203 0.44455 0.99353 0.0
H434 H 0.68345 0.47843 0.98233 0.0
H435 H 0.69471 0.45031 0.96036 0.0
H436 H 0.76609 0.46332 0.90751 0.0
H437 H 0.72057 0.46352 0.87318 0.0
H438 H 0.24231 0.58903 0.05186 0.0
H439 H 0.2973 0.55732 0.03697 0.0
H440 H 0.25438 0.5641 0.96129 0.0
H441 H 0.1993 0.59458 0.97617 0.0
H442 H 0.28175 0.51119 0.97119 0.0
H443 H 0.38715 0.58428 0.00062 0.0
H444 H 0.3582 0.57084 0.02497 0.0
H445 H 0.33643 0.59435 0.00185 0.0
C446 C 0.24476 0.58355 0.0321 0.0
C447 C 0.21669 0.5942 0.01513 0.0
C448 C 0.27613 0.56551 0.0236 0.0
C449 C 0.28022 0.55853 -0.00206 0.0
C450 C 0.25177 0.56894 0.98119 0.0
H451 H 0.40883 0.53928 0.87435 0.0
H452 H 0.36123 0.53526 0.90782 0.0
C453 C 0.22034 0.58646 0.98969 0.0
C454 C 0.31481 0.54202 0.98755 0.0
H455 H 0.40829 0.54857 0.97276 0.0
C456 C 0.30969 0.51894 0.97204 0.0
C457 C 0.35145 0.55185 0.98886 0.0
C458 C 0.35884 0.57676 0.00482 0.0
C459 C 0.33898 0.50746 0.95587 0.0
C460 C 0.37437 0.51905 0.95556 0.0
C461 C 0.38096 0.53983 0.9731 0.0
C462 C 0.40139 0.51483 0.93406 0.0
C463 C 0.3307 0.48454 0.93794 0.0
C464 C 0.43951 0.50407 0.93759 0.0
C465 C 0.46665 0.50606 0.91832 0.0
C466 C 0.45598 0.51933 0.89557 0.0
C467 C 0.41756 0.52891 0.89172 0.0
C468 C 0.3904 0.52642 0.91073 0.0
H469 H 0.31238 0.46986 0.9472 0.0
H470 H 0.31483 0.49401 0.92165 0.0
H471 H 0.35724 0.4726 0.93081 0.0
H472 H 0.44854 0.49534 0.95557 0.0
H473 H 0.49627 0.49872 0.92168 0.0
H474 H 0.77316 0.86152 0.51352 0.0
H475 H 0.82827 0.87877 0.49175 0.0
H476 H 0.76821 0.87899 0.42154 0.0
H477 H 0.71345 0.86139 0.443 0.0
H478 H 0.84606 0.85398 0.41996 0.0
H479 H 0.83094 0.96002 0.4638 0.0
H480 H 0.82998 0.93061 0.48466 0.0
H481 H 0.79192 0.93818 0.4628 0.0
C482 C 0.77193 0.86498 0.4934 0.0
C483 C 0.73896 0.86029 0.47996 0.0
C484 C 0.80319 0.8751 0.48108 0.0
C485 C 0.80191 0.88058 0.45516 0.0
C486 C 0.76951 0.87514 0.44161 0.0
H487 H 0.94436 0.97185 0.35711 0.0
H488 H 0.89124 0.9541 0.38067 0.0
C489 C 0.73827 0.86518 0.45389 0.0
C490 C 0.83445 0.89163 0.44191 0.0
H491 H 0.88366 0.94929 0.43631 0.0
C492 C 0.85436 0.87479 0.42353 0.0
C493 C 0.84476 0.91891 0.44648 0.0
C494 C 0.82323 0.93818 0.46536 0.0
C495 C 0.8846 0.88446 0.40967 0.0
C496 C 0.89528 0.91156 0.4145 0.0
C497 C 0.87528 0.9285 0.43276 0.0
C498 C 0.92723 0.92263 0.40069 0.0
C499 C 0.9046 0.86582 0.3897 0.0
C500 C 0.96484 0.91087 0.40435 0.0
C501 C -0.00491 0.92125 0.39126 0.0
C502 C 0.98819 0.94367 0.37446 0.0
C503 C 0.95045 0.95512 0.37052 0.0
C504 C 0.92017 0.94488 0.38378 0.0
H505 H 0.88811 0.84799 0.38486 0.0
H506 H 0.90934 0.87793 0.37234 0.0
H507 H 0.93297 0.85721 0.39666 0.0
H508 H 0.97077 0.8938 0.41747 0.0
H509 H 0.02396 0.91205 0.3946 0.0
H510 H 0.342 0.187 0.48865 0.0
H511 H 0.28743 0.17024 0.46723 0.0
H512 H 0.31981 0.08665 0.49415 0.0
H513 H 0.37313 0.10348 0.51666 0.0
H514 H 0.29288 0.13248 0.42965 0.0
H515 H 0.20646 0.09354 0.50767 0.0
H516 H 0.24446 0.1155 0.51297 0.0
H517 H 0.25523 0.07851 0.50766 0.0
C518 C 0.33683 0.16523 0.49066 0.0
C519 C 0.36201 0.14656 0.50429 0.0
C520 C 0.30584 0.15563 0.47822 0.0
C521 C 0.2994 0.12724 0.47924 0.0
C522 C 0.32377 0.10873 0.49347 0.0
H523 H 0.17394 0.04194 0.36687 0.0
H524 H 0.22377 0.05733 0.39406 0.0
C525 C 0.35455 0.11834 0.50606 0.0
C526 C 0.26923 0.11658 0.46373 0.0
H527 H 0.19093 0.07974 0.46616 0.0
C528 C 0.27042 0.12112 0.43766 0.0
C529 C 0.23998 0.10176 0.47423 0.0
C530 C 0.23617 0.09725 0.5022 0.0
C531 C 0.24327 0.11116 0.42176 0.0
C532 C 0.21461 0.09577 0.43218 0.0
C533 C 0.21323 0.09133 0.45824 0.0
C534 C 0.18472 0.08525 0.41644 0.0
C535 C 0.24505 0.11765 0.39402 0.0
C536 C 0.14631 0.09532 0.42047 0.0
C537 C 0.1179 0.08618 0.4053 0.0
C538 C 0.12741 0.06661 0.38603 0.0
C539 C 0.16586 0.05655 0.38199 0.0
C540 C 0.19431 0.06558 0.39727 0.0
H541 H 0.26295 0.13502 0.39004 0.0
H542 H 0.25779 0.09882 0.38372 0.0
H543 H 0.21598 0.1234 0.38656 0.0
H544 H 0.13839 0.11052 0.43516 0.0
H545 H 0.08843 0.0943 0.40875 0.0
H546 H 0.42875 0.94596 0.50347 0.0
H547 H 0.3722 0.97012 0.48478 0.0
H548 H 0.30296 0.90953 0.51715 0.0
H549 H 0.36007 0.88362 0.53386 0.0
H550 H 0.29211 0.91123 0.47076 0.0
H551 H 0.28113 0.02153 0.50071 0.0
H552 H 0.32823 0.01199 0.48838 0.0
H553 H 0.31219 0.99494 0.51629 0.0
C554 C 0.40149 0.93776 0.50676 0.0
C555 C 0.39932 0.91228 0.51958 0.0
C556 C 0.36886 0.95209 0.49652 0.0
C557 C 0.33304 0.94185 0.4996 0.0
C558 C 0.33026 0.91788 0.51445 0.0
H559 H 0.13025 0.00601 0.41435 0.0
H560 H 0.17645 1.00038 0.44875 0.0
C561 C 0.36305 0.90313 0.52418 0.0
C562 C 0.3005 0.95281 0.48365 0.0
H563 H 0.25425 0.01267 0.45939 0.0
C564 C 0.28336 0.93341 0.46883 0.0
C565 C 0.28861 0.98175 0.48101 0.0
C566 C 0.30329 1.00364 0.4977 0.0
C567 C 0.25632 0.94206 0.4507 0.0
C568 C 0.24704 0.97099 0.44653 0.0
C569 C 0.26229 0.99051 0.4622 0.0
C570 C 0.22233 0.98072 0.42537 0.0
C571 C 0.23838 0.92 0.43587 0.0
C572 C 0.23365 0.97301 0.40072 0.0
C573 C 0.20735 0.97581 0.38129 0.0
C574 C 0.16966 0.9871 0.3861 0.0
C575 C 0.15932 0.99737 0.41025 0.0
C576 C 0.1856 0.99418 0.42985 0.0
H577 H 0.23978 0.89977 0.44611 0.0
H578 H 0.20799 0.92674 0.43172 0.0
H579 H 0.25414 0.91631 0.41775 0.0
H580 H 0.26212 0.963 0.39686 0.0
H581 H 0.21589 0.96784 0.36278 0.0
H582 H 0.73419 0.09486 0.54079 0.0
H583 H 0.78816 0.06601 0.52101 0.0
H584 H 0.7376 0.08144 0.44817 0.0
H585 H 0.68339 0.10914 0.46791 0.0
H586 H 0.76446 0.02758 0.4527 0.0
H587 H 0.875 0.09567 0.48329 0.0
H588 H 0.84841 0.08086 0.50812 0.0
H589 H 0.82459 0.10601 0.48715 0.0
C590 C 0.73489 0.09206 0.52057 0.0
C591 C 0.70484 0.10418 0.50581 0.0
C592 C 0.76565 0.07566 0.50928 0.0
C593 C 0.76714 0.07178 0.48305 0.0
C594 C 0.73701 0.08396 0.46843 0.0
H595 H 0.90281 0.04734 0.35766 0.0
H596 H 0.8516 0.04793 0.38936 0.0
C597 C 0.70614 0.09988 0.47969 0.0
C598 C 0.80021 0.05588 0.47023 0.0
H599 H 0.89456 0.05905 0.45564 0.0
C600 C 0.79307 0.03415 0.45368 0.0
C601 C 0.83763 0.06432 0.4716 0.0
C602 C 0.847 0.0881 0.48832 0.0
C603 C 0.82165 0.02201 0.4373 0.0
C604 C 0.85828 0.03165 0.43769 0.0
C605 C 0.86633 0.0517 0.45555 0.0
C606 C 0.88652 0.02515 0.4172 0.0
C607 C 0.81192 1.00008 0.41876 0.0
C608 C 0.92274 0.01151 0.42221 0.0
C609 C 0.95191 0.01092 0.404 0.0
C610 C 0.94523 0.02433 0.38077 0.0
C611 C 0.90846 0.03672 0.37538 0.0
C612 C 0.87923 0.03692 0.3934 0.0
H613 H 0.78812 0.98853 0.42591 0.0
H614 H 0.8027 0.01048 0.40092 0.0
H615 H 0.83708 0.98489 0.41453 0.0
H616 H 0.92891 1.00258 0.44059 0.0
H617 H 0.98024 1.00154 0.40864 0.0
loop_
_geom_bond_atom_site_label_1
_geom_bond_atom_site_label_2
_geom_bond_distance
_geom_bond_site_symmetry_2
_ccdc_geom_bond_type
C0 C1 1.384 1_455 S
C0 H13 0.947 . S
C0 C35 1.382 . S
C1 C0 1.384 1_655 S
C1 C2 1.378 1_556 S
C2 C1 1.378 1_554 S
C2 C3 1.378 1_655 S
C2 H14 0.952 . S
C3 C2 1.378 1_455 S
C3 H15 0.950 . S
C3 C34 1.383 . S
H4 C23 0.947 . S
H5 C24 0.946 . S
H6 C26 0.953 . S
H7 C27 0.945 . S
H8 C29 0.952 . S
H9 C30 0.949 . S
H10 C32 0.950 . S
H11 C33 0.948 . S
H12 C35 0.951 . S
H13 C0 0.947 . S
H14 C2 0.952 . S
H15 C3 0.950 . S
N16 C19 1.382 . S
N16 C21 1.363 . S
N17 C19 1.371 . S
N17 C20 1.372 . S
N18 C20 1.361 . S
N18 C21 1.377 . S
C19 N16 1.382 . S
C19 N17 1.371 . S
C19 C22 1.480 . S
C20 N17 1.372 . S
C20 N18 1.361 . S
C20 C28 1.457 . S
C21 N16 1.363 . S
C21 N18 1.377 . S
C21 C34 1.479 . S
C22 C19 1.480 . S
C22 C23 1.383 . S
C22 C27 1.385 . S
C23 H4 0.947 . S
C23 C22 1.383 . S
C23 C24 1.388 . S
C24 H5 0.946 . S
C24 C23 1.388 . S
C24 C25 1.384 . S
C25 C24 1.384 . S
C25 C26 1.377 . S
C26 H6 0.953 . S
C26 C25 1.377 . S
C26 C27 1.369 . S
C27 H7 0.945 . S
C27 C22 1.385 . S
C27 C26 1.369 . S
C28 C20 1.457 . S
C28 C29 1.372 . S
C28 C33 1.364 1_554 S
C29 H8 0.952 . S
C29 C28 1.372 . S
C29 C30 1.389 . S
C30 H9 0.949 . S
C30 C29 1.389 . S
C30 C31 1.387 1_554 S
C31 C30 1.387 1_556 S
C31 C32 1.372 . S
C32 H10 0.950 . S
C32 C31 1.372 . S
C32 C33 1.379 . S
C33 H11 0.948 . S
C33 C28 1.364 1_556 S
C33 C32 1.379 . S
C34 C3 1.383 . S
C34 C21 1.479 . S
C34 C35 1.398 1_554 S
C35 C0 1.382 . S
C35 H12 0.951 . S
C35 C34 1.398 1_556 S
C36 C37 1.384 . S
C36 H49 0.947 . S
C36 C71 1.382 . S
C37 C36 1.384 . S
C37 C38 1.378 1_556 S
C38 C37 1.378 1_554 S
C38 C39 1.378 . S
C38 H50 0.952 . S
C39 C38 1.378 . S
C39 H51 0.950 . S
C39 C70 1.383 . S
H40 C59 0.947 . S
H41 C60 0.946 . S
H42 C62 0.953 . S
H43 C63 0.945 . S
H44 C65 0.952 . S
H45 C66 0.949 . S
H46 C68 0.950 . S
H47 C69 0.948 . S
H48 C71 0.951 . S
H49 C36 0.947 . S
H50 C38 0.952 . S
H51 C39 0.950 . S
N52 C55 1.382 1_655 S
N52 C57 1.363 . S
N53 C55 1.371 . S
N53 C56 1.372 . S
N54 C56 1.361 . S
N54 C57 1.377 1_455 S
C55 N52 1.382 1_455 S
C55 N53 1.371 . S
C55 C58 1.480 . S
C56 N53 1.372 . S
C56 N54 1.361 . S
C56 C64 1.451 1_554 S
C57 N52 1.363 . S
C57 N54 1.377 1_655 S
C57 C70 1.479 . S
C58 C55 1.480 . S
C58 C59 1.383 1_455 S
C58 C63 1.385 . S
C59 H40 0.947 . S
C59 C58 1.383 1_655 S
C59 C60 1.388 . S
C60 H41 0.946 . S
C60 C59 1.388 . S
C60 C61 1.384 1_655 S
C61 C60 1.384 1_455 S
C61 C62 1.377 . S
C62 H42 0.953 . S
C62 C61 1.377 . S
C62 C63 1.369 . S
C63 H43 0.945 . S
C63 C58 1.385 . S
C63 C62 1.369 . S
C64 C56 1.451 1_556 S
C64 C65 1.364 1_556 S
C64 C69 1.377 . S
C65 H44 0.952 . S
C65 C64 1.364 1_554 S
C65 C66 1.389 . S
C66 H45 0.949 . S
C66 C65 1.389 . S
C66 C67 1.387 1_554 S
C67 C66 1.387 1_556 S
C67 C68 1.372 . S
C68 H46 0.950 . S
C68 C67 1.372 . S
C68 C69 1.379 . S
C69 H47 0.948 . S
C69 C64 1.377 . S
C69 C68 1.379 . S
C70 C39 1.383 . S
C70 C57 1.479 . S
C70 C71 1.398 1_554 S
C71 C36 1.382 . S
C71 H48 0.951 . S
C71 C70 1.398 1_556 S
C72 C73 1.384 . S
C72 H85 0.947 . S
C72 C107 1.382 . S
C73 C72 1.384 . S
C73 C74 1.378 . S
C74 C73 1.378 . S
C74 C75 1.378 . S
C74 H86 0.952 . S
C75 C74 1.378 . S
C75 H87 0.950 . S
C75 C106 1.383 . S
H76 C95 0.947 . S
H77 C96 0.946 . S
H78 C98 0.953 . S
H79 C99 0.945 . S
H80 C101 0.952 . S
H81 C102 0.949 . S
H82 C104 0.950 . S
H83 C105 0.948 . S
H84 C107 0.951 . S
H85 C72 0.947 . S
H86 C74 0.952 . S
H87 C75 0.950 . S
N88 C91 1.382 . S
N88 C93 1.363 . S
N89 C91 1.371 . S
N89 C92 1.372 . S
N90 C92 1.361 . S
N90 C93 1.377 . S
C91 N88 1.382 . S
C91 N89 1.371 . S
C91 C94 1.480 . S
C92 N89 1.372 . S
C92 N90 1.361 . S
C92 C100 1.457 . S
C93 N88 1.363 . S
C93 N90 1.377 . S
C93 C106 1.479 . S
C94 C91 1.480 . S
C94 C95 1.383 . S
C94 C99 1.385 . S
C95 H76 0.947 . S
C95 C94 1.383 . S
C95 C96 1.388 . S
C96 H77 0.946 . S
C96 C95 1.388 . S
C96 C97 1.384 . S
C97 C96 1.384 . S
C97 C98 1.377 . S
C98 H78 0.953 . S
C98 C97 1.377 . S
C98 C99 1.369 . S
C99 H79 0.945 . S
C99 C94 1.385 . S
C99 C98 1.369 . S
C100 C92 1.457 . S
C100 C101 1.372 . S
C100 C105 1.364 . S
C101 H80 0.952 . S
C101 C100 1.372 . S
C101 C102 1.389 . S
C102 H81 0.949 . S
C102 C101 1.389 . S
C102 C103 1.387 . S
C103 C102 1.387 . S
C103 C104 1.372 . S
C104 H82 0.950 . S
C104 C103 1.372 . S
C104 C105 1.379 . S
C105 H83 0.948 . S
C105 C100 1.364 . S
C105 C104 1.379 . S
C106 C75 1.383 . S
C106 C93 1.479 . S
C106 C107 1.398 . S
C107 C72 1.382 . S
C107 H84 0.951 . S
C107 C106 1.398 . S
C108 C109 1.384 . S
C108 H121 0.947 . S
C108 C143 1.382 . S
C109 C108 1.384 . S
C109 C110 1.378 . S
C110 C109 1.378 . S
C110 C111 1.378 . S
C110 H122 0.952 . S
C111 C110 1.378 . S
C111 H123 0.950 . S
C111 C142 1.383 . S
H112 C131 0.947 . S
H113 C132 0.946 . S
H114 C134 0.953 . S
H115 C135 0.945 . S
H116 C137 0.952 . S
H117 C138 0.949 . S
H118 C140 0.950 . S
H119 C141 0.948 . S
H120 C143 0.951 . S
H121 C108 0.947 . S
H122 C110 0.952 . S
H123 C111 0.950 . S
N124 C127 1.382 . S
N124 C129 1.363 . S
N125 C127 1.371 . S
N125 C128 1.372 . S
N126 C128 1.361 . S
N126 C129 1.377 . S
C127 N124 1.382 . S
C127 N125 1.371 . S
C127 C130 1.480 . S
C128 N125 1.372 . S
C128 N126 1.361 . S
C128 C136 1.457 . S
C129 N124 1.363 . S
C129 N126 1.377 . S
C129 C142 1.479 . S
C130 C127 1.480 . S
C130 C131 1.383 . S
C130 C135 1.385 . S
C131 H112 0.947 . S
C131 C130 1.383 . S
C131 C132 1.388 . S
C132 H113 0.946 . S
C132 C131 1.388 . S
C132 C133 1.384 . S
C133 C132 1.384 . S
C133 C134 1.377 . S
C134 H114 0.953 . S
C134 C133 1.377 . S
C134 C135 1.369 . S
C135 H115 0.945 . S
C135 C130 1.385 . S
C135 C134 1.369 . S
C136 C128 1.457 . S
C136 C137 1.372 . S
C136 C141 1.364 . S
C137 H116 0.952 . S
C137 C136 1.372 . S
C137 C138 1.389 . S
C138 H117 0.949 . S
C138 C137 1.389 . S
C138 C139 1.387 . S
C139 C138 1.387 . S
C139 C140 1.372 . S
C140 H118 0.950 . S
C140 C139 1.372 . S
C140 C141 1.379 . S
C141 H119 0.948 . S
C141 C136 1.364 . S
C141 C140 1.379 . S
C142 C111 1.383 . S
C142 C129 1.479 . S
C142 C143 1.398 . S
C143 C108 1.382 . S
C143 H120 0.951 . S
C143 C142 1.398 . S
Zn144 O150 1.920 . S
Zn144 O156 1.898 . S
Zn144 O159 1.905 . S
Zn145 O153 1.905 . S
Zn145 O154 1.898 . S
Zn145 O162 1.920 . S
Zn146 O149 2.080 . S
Zn146 O152 2.114 1_545 S
Zn146 O155 2.120 1_545 S
Zn146 O157 2.120 . S
Zn146 O158 2.114 . S
Zn146 O161 2.080 1_545 S
C147 O152 1.166 . S
C147 O153 1.182 . S
C148 O154 1.167 . S
C148 O155 1.299 . S
O149 Zn146 2.080 . S
O149 C163 1.305 . S
O150 Zn144 1.920 . S
O150 C163 1.234 . S
C151 O156 1.167 . S
C151 O157 1.299 . S
O152 Zn146 2.114 1_565 S
O152 C147 1.166 . S
O153 Zn145 1.905 . S
O153 C147 1.182 . S
O154 Zn145 1.898 . S
O154 C148 1.167 . S
O155 Zn146 2.120 1_565 S
O155 C148 1.299 . S
O156 Zn144 1.898 . S
O156 C151 1.167 . S
O157 Zn146 2.120 . S
O157 C151 1.299 . S
O158 Zn146 2.114 . S
O158 C160 1.160 1_455 S
O159 Zn144 1.905 . S
O159 C160 1.176 1_455 S
C160 O158 1.160 1_655 S
C160 O159 1.176 1_655 S
O161 Zn146 2.080 1_565 S
O161 C164 1.305 . S
O162 Zn145 1.920 . S
O162 C164 1.234 . S
C163 O149 1.305 . S
C163 O150 1.234 . S
C164 O161 1.305 . S
C164 O162 1.234 . S
Zn165 O171 1.920 . S
Zn165 O177 1.898 . S
Zn165 O180 1.905 . S
Zn166 O174 1.905 . S
Zn166 O175 1.898 . S
Zn166 O183 1.920 . S
Zn167 O170 2.080 . S
Zn167 O173 2.114 . S
Zn167 O176 2.120 . S
Zn167 O178 2.120 . S
Zn167 O179 2.114 . S
Zn167 O182 2.080 . S
C168 O173 1.166 . S
C168 O174 1.182 . S
C169 O175 1.167 . S
C169 O176 1.299 . S
O170 Zn167 2.080 . S
O170 C184 1.305 . S
O171 Zn165 1.920 . S
O171 C184 1.234 . S
C172 O177 1.167 . S
C172 O178 1.299 . S
O173 Zn167 2.114 . S
O173 C168 1.166 . S
O174 Zn166 1.905 . S
O174 C168 1.182 . S
O175 Zn166 1.898 . S
O175 C169 1.167 . S
O176 Zn167 2.120 . S
O176 C169 1.299 . S
O177 Zn165 1.898 . S
O177 C172 1.167 . S
O178 Zn167 2.120 . S
O178 C172 1.299 . S
O179 Zn167 2.114 . S
O179 C181 1.166 . S
O180 Zn165 1.905 . S
O180 C181 1.182 . S
C181 O179 1.166 . S
C181 O180 1.182 . S
O182 Zn167 2.080 . S
O182 C185 1.305 . S
O183 Zn166 1.920 . S
O183 C185 1.234 . S
C184 O170 1.305 . S
C184 O171 1.234 . S
C185 O182 1.305 . S
C185 O183 1.234 . S
H186 C194 0.929 . S
H187 C196 0.930 . S
H188 C198 0.930 . S
H189 C201 0.929 . S
H190 C204 0.930 . S
H191 C206 0.960 . S
H192 C206 0.960 . S
H193 C206 0.960 . S
C194 H186 0.929 . S
C194 C195 1.377 . S
C194 C196 1.384 . S
C195 C194 1.377 . S
C195 C201 1.390 . S
C196 H187 0.930 . S
C196 C194 1.384 . S
C196 C197 1.372 . S
C197 C196 1.372 . S
C197 C198 1.400 . S
C197 C202 1.490 . S
C198 H188 0.930 . S
C198 C197 1.400 . S
C198 C201 1.386 . S
H199 C215 0.930 . S
H200 C216 0.931 . S
C201 H189 0.929 . S
C201 C195 1.390 . S
C201 C198 1.386 . S
C202 C197 1.490 . S
C202 C204 1.395 . S
C202 C205 1.403 . S
H203 C209 0.930 . S
C204 H190 0.930 . S
C204 C202 1.395 . S
C204 C207 1.403 . S
C205 C202 1.403 . S
C205 C206 1.524 . S
C205 C209 1.400 . S
C206 H191 0.960 . S
C206 H192 0.960 . S
C206 H193 0.960 . S
C206 C205 1.524 . S
C207 C204 1.403 . S
C207 C208 1.392 . S
C207 C211 1.495 . S
C208 C207 1.392 . S
C208 C209 1.385 . S
C208 C210 1.478 . S
C209 H203 0.930 . S
C209 C205 1.400 . S
C209 C208 1.385 . S
C210 C208 1.478 . S
C210 C212 1.381 . S
C210 C216 1.383 . S
C211 C207 1.495 . S
C211 H217 0.959 . S
C211 H218 0.961 . S
C211 H219 0.960 . S
C212 C210 1.381 . S
C212 C213 1.394 . S
C212 H220 0.930 . S
C213 C212 1.394 . S
C213 C214 1.383 . S
C213 H221 0.929 . S
C214 C213 1.383 . S
C214 C215 1.377 . S
C215 H199 0.930 . S
C215 C214 1.377 . S
C215 C216 1.379 . S
C216 H200 0.931 . S
C216 C210 1.383 . S
C216 C215 1.379 . S
H217 C211 0.959 . S
H218 C211 0.961 . S
H219 C211 0.960 . S
H220 C212 0.930 . S
H221 C213 0.929 . S
H222 C230 0.929 . S
H223 C232 0.930 . S
H224 C234 0.930 . S
H225 C237 0.929 . S
H226 C240 0.930 1_655 S
H227 C242 0.960 . S
H228 C242 0.960 . S
H229 C242 0.960 . S
C230 H222 0.929 . S
C230 C231 1.377 . S
C230 C232 1.384 . S
C231 C230 1.377 . S
C231 C237 1.390 1_455 S
C232 H223 0.930 . S
C232 C230 1.384 . S
C232 C233 1.372 . S
C233 C232 1.372 . S
C233 C234 1.400 1_455 S
C233 C238 1.490 . S
C234 H224 0.930 . S
C234 C233 1.400 1_655 S
C234 C237 1.386 . S
H235 C251 0.930 . S
H236 C252 0.919 1_655 S
C237 H225 0.929 . S
C237 C231 1.390 1_655 S
C237 C234 1.386 . S
C238 C233 1.490 . S
C238 C240 1.395 . S
C238 C241 1.403 . S
H239 C245 0.930 . S
C240 H226 0.930 1_455 S
C240 C238 1.395 . S
C240 C243 1.403 . S
C241 C238 1.403 . S
C241 C242 1.524 . S
C241 C245 1.400 . S
C242 H227 0.960 . S
C242 H228 0.960 . S
C242 H229 0.960 . S
C242 C241 1.524 . S
C243 C240 1.403 . S
C243 C244 1.392 . S
C243 C247 1.495 1_455 S
C244 C243 1.392 . S
C244 C245 1.385 . S
C244 C246 1.478 . S
C245 H239 0.930 . S
C245 C241 1.400 . S
C245 C244 1.385 . S
C246 C244 1.478 . S
C246 C248 1.381 . S
C246 C252 1.383 . S
C247 C243 1.495 1_655 S
C247 H253 0.959 . S
C247 H254 0.961 . S
C247 H255 0.960 1_655 S
C248 C246 1.381 . S
C248 C249 1.394 . S
C248 H256 0.930 . S
C249 C248 1.394 . S
C249 C250 1.383 . S
C249 H257 0.929 . S
C250 C249 1.383 . S
C250 C251 1.377 . S
C251 H235 0.930 . S
C251 C250 1.377 . S
C251 C252 1.379 . S
C252 H236 0.919 1_455 S
C252 C246 1.383 . S
C252 C251 1.379 . S
H253 C247 0.959 . S
H254 C247 0.961 . S
H255 C247 0.960 1_455 S
H256 C248 0.930 . S
H257 C249 0.929 . S
H258 C266 0.929 . S
H259 C268 0.930 . S
H260 C270 0.930 . S
H261 C273 0.929 . S
H262 C276 0.930 . S
H263 C278 0.960 . S
H264 C278 0.960 . S
H265 C278 0.960 . S
C266 H258 0.929 . S
C266 C267 1.377 . S
C266 C268 1.384 . S
C267 C266 1.377 . S
C267 C273 1.390 . S
C268 H259 0.930 . S
C268 C266 1.384 . S
C268 C269 1.372 . S
C269 C268 1.372 . S
C269 C270 1.400 . S
C269 C274 1.490 . S
C270 H260 0.930 . S
C270 C269 1.400 . S
C270 C273 1.386 . S
H271 C287 0.930 . S
H272 C288 0.931 . S
C273 H261 0.929 . S
C273 C267 1.390 . S
C273 C270 1.386 . S
C274 C269 1.490 . S
C274 C276 1.395 . S
C274 C277 1.403 . S
H275 C281 0.930 . S
C276 H262 0.930 . S
C276 C274 1.395 . S
C276 C279 1.403 . S
C277 C274 1.403 . S
C277 C278 1.524 . S
C277 C281 1.400 . S
C278 H263 0.960 . S
C278 H264 0.960 . S
C278 H265 0.960 . S
C278 C277 1.524 . S
C279 C276 1.403 . S
C279 C280 1.392 . S
C279 C283 1.495 . S
C280 C279 1.392 . S
C280 C281 1.385 . S
C280 C282 1.478 . S
C281 H275 0.930 . S
C281 C277 1.400 . S
C281 C280 1.385 . S
C282 C280 1.478 . S
C282 C284 1.381 . S
C282 C288 1.383 . S
C283 C279 1.495 . S
C283 H289 0.959 . S
C283 H290 0.961 . S
C283 H291 0.960 . S
C284 C282 1.381 . S
C284 C285 1.394 . S
C284 H292 0.930 . S
C285 C284 1.394 . S
C285 C286 1.383 . S
C285 H293 0.929 . S
C286 C285 1.383 . S
C286 C287 1.377 . S
C287 H271 0.930 . S
C287 C286 1.377 . S
C287 C288 1.379 . S
C288 H272 0.931 . S
C288 C282 1.383 . S
C288 C287 1.379 . S
H289 C283 0.959 . S
H290 C283 0.961 . S
H291 C283 0.960 . S
H292 C284 0.930 . S
H293 C285 0.929 . S
H294 C302 0.929 . S
H295 C304 0.930 . S
H296 C306 0.930 . S
H297 C309 0.929 . S
H298 C312 0.930 . S
H299 C314 0.960 . S
H300 C314 0.960 . S
H301 C314 0.960 . S
C302 H294 0.929 . S
C302 C303 1.377 . S
C302 C304 1.384 . S
C303 C302 1.377 . S
C303 C309 1.390 . S
C304 H295 0.930 . S
C304 C302 1.384 . S
C304 C305 1.372 . S
C305 C304 1.372 . S
C305 C306 1.400 . S
C305 C310 1.490 . S
C306 H296 0.930 . S
C306 C305 1.400 . S
C306 C309 1.386 . S
H307 C323 0.930 . S
H308 C324 0.931 . S
C309 H297 0.929 . S
C309 C303 1.390 . S
C309 C306 1.386 . S
C310 C305 1.490 . S
C310 C312 1.395 . S
C310 C313 1.403 . S
H311 C317 0.930 . S
C312 H298 0.930 . S
C312 C310 1.395 . S
C312 C315 1.403 . S
C313 C310 1.403 . S
C313 C314 1.524 . S
C313 C317 1.400 . S
C314 H299 0.960 . S
C314 H300 0.960 . S
C314 H301 0.960 . S
C314 C313 1.524 . S
C315 C312 1.403 . S
C315 C316 1.392 . S
C315 C319 1.495 . S
C316 C315 1.392 . S
C316 C317 1.385 . S
C316 C318 1.478 . S
C317 H311 0.930 . S
C317 C313 1.400 . S
C317 C316 1.385 . S
C318 C316 1.478 . S
C318 C320 1.381 . S
C318 C324 1.383 . S
C319 C315 1.495 . S
C319 H325 0.959 . S
C319 H326 0.961 . S
C319 H327 0.960 . S
C320 C318 1.381 . S
C320 C321 1.394 . S
C320 H328 0.930 . S
C321 C320 1.394 . S
C321 C322 1.383 . S
C321 H329 0.929 . S
C322 C321 1.383 . S
C322 C323 1.377 . S
C323 H307 0.930 . S
C323 C322 1.377 . S
C323 C324 1.379 . S
C324 H308 0.931 . S
C324 C318 1.383 . S
C324 C323 1.379 . S
H325 C319 0.959 . S
H326 C319 0.961 . S
H327 C319 0.960 . S
H328 C320 0.930 . S
H329 C321 0.929 . S
H330 C338 0.929 . S
H331 C340 0.930 . S
H332 C342 0.930 . S
H333 C345 0.929 . S
H334 C348 0.930 . S
H335 C350 0.960 . S
H336 C350 0.960 1_554 S
H337 C350 0.960 . S
C338 H330 0.929 . S
C338 C339 1.377 . S
C338 C340 1.384 . S
C339 C338 1.377 . S
C339 C345 1.390 . S
C340 H331 0.930 . S
C340 C338 1.384 . S
C340 C341 1.372 . S
C341 C340 1.372 . S
C341 C342 1.400 . S
C341 C346 1.490 . S
C342 H332 0.930 . S
C342 C341 1.400 . S
C342 C345 1.386 . S
H343 C359 0.930 . S
H344 C360 0.931 . S
C345 H333 0.929 . S
C345 C339 1.390 . S
C345 C342 1.386 . S
C346 C341 1.490 . S
C346 C348 1.395 . S
C346 C349 1.403 . S
H347 C353 0.930 . S
C348 H334 0.930 . S
C348 C346 1.395 . S
C348 C351 1.403 . S
C349 C346 1.403 . S
C349 C350 1.524 . S
C349 C353 1.400 . S
C350 H335 0.960 . S
C350 H336 0.960 1_556 S
C350 H337 0.960 . S
C350 C349 1.524 . S
C351 C348 1.403 . S
C351 C352 1.392 . S
C351 C355 1.495 . S
C352 C351 1.392 . S
C352 C353 1.385 . S
C352 C354 1.478 . S
C353 H347 0.930 . S
C353 C349 1.400 . S
C353 C352 1.385 . S
C354 C352 1.478 . S
C354 C356 1.381 . S
C354 C360 1.383 . S
C355 C351 1.495 . S
C355 H361 0.959 . S
C355 H362 0.961 . S
C355 H363 0.960 . S
C356 C354 1.381 . S
C356 C357 1.394 . S
C356 H364 0.930 . S
C357 C356 1.394 . S
C357 C358 1.383 . S
C357 H365 0.929 . S
C358 C357 1.383 . S
C358 C359 1.377 . S
C359 H343 0.930 . S
C359 C358 1.377 . S
C359 C360 1.379 . S
C360 H344 0.931 . S
C360 C354 1.383 . S
C360 C359 1.379 . S
H361 C355 0.959 . S
H362 C355 0.961 . S
H363 C355 0.960 . S
H364 C356 0.930 . S
H365 C357 0.929 . S
H366 C374 0.929 . S
H367 C376 0.930 . S
H368 C378 0.930 . S
H369 C381 0.929 . S
H370 C384 0.930 . S
H371 C386 0.960 . S
H372 C386 0.960 . S
H373 C386 0.960 . S
C374 H366 0.929 . S
C374 C375 1.377 . S
C374 C376 1.384 . S
C375 C374 1.377 . S
C375 C381 1.390 . S
C376 H367 0.930 . S
C376 C374 1.384 . S
C376 C377 1.372 . S
C377 C376 1.372 . S
C377 C378 1.400 . S
C377 C382 1.490 . S
C378 H368 0.930 . S
C378 C377 1.400 . S
C378 C381 1.386 . S
H379 C395 0.930 . S
H380 C396 0.931 . S
C381 H369 0.929 . S
C381 C375 1.390 . S
C381 C378 1.386 . S
C382 C377 1.490 . S
C382 C384 1.395 . S
C382 C385 1.403 . S
H383 C389 0.930 . S
C384 H370 0.930 . S
C384 C382 1.395 . S
C384 C387 1.403 . S
C385 C382 1.403 . S
C385 C386 1.524 . S
C385 C389 1.400 . S
C386 H371 0.960 . S
C386 H372 0.960 . S
C386 H373 0.960 . S
C386 C385 1.524 . S
C387 C384 1.403 . S
C387 C388 1.392 . S
C387 C391 1.495 . S
C388 C387 1.392 . S
C388 C389 1.385 . S
C388 C390 1.478 . S
C389 H383 0.930 . S
C389 C385 1.400 . S
C389 C388 1.385 . S
C390 C388 1.478 . S
C390 C392 1.381 . S
C390 C396 1.383 . S
C391 C387 1.495 . S
C391 H397 0.959 . S
C391 H398 0.961 . S
C391 H399 0.960 . S
C392 C390 1.381 . S
C392 C393 1.394 . S
C392 H400 0.930 . S
C393 C392 1.394 . S
C393 C394 1.383 . S
C393 H401 0.929 . S
C394 C393 1.383 . S
C394 C395 1.377 . S
C395 H379 0.930 . S
C395 C394 1.377 . S
C395 C396 1.379 . S
C396 H380 0.931 . S
C396 C390 1.383 . S
C396 C395 1.379 . S
H397 C391 0.959 . S
H398 C391 0.961 . S
H399 C391 0.960 . S
H400 C392 0.930 . S
H401 C393 0.929 . S
H402 C410 0.929 . S
H403 C412 0.930 . S
H404 C414 0.930 . S
H405 C417 0.929 . S
H406 C420 0.930 . S
H407 C422 0.960 . S
H408 C422 0.960 . S
H409 C422 0.960 . S
C410 H402 0.929 . S
C410 C411 1.377 . S
C410 C412 1.384 . S
C411 C410 1.377 . S
C411 C417 1.390 . S
C412 H403 0.930 . S
C412 C410 1.384 . S
C412 C413 1.372 . S
C413 C412 1.372 . S
C413 C414 1.400 . S
C413 C418 1.490 . S
C414 H404 0.930 . S
C414 C413 1.400 . S
C414 C417 1.386 . S
H415 C431 0.930 . S
H416 C432 0.931 . S
C417 H405 0.929 . S
C417 C411 1.390 . S
C417 C414 1.386 . S
C418 C413 1.490 . S
C418 C420 1.395 . S
C418 C421 1.403 . S
H419 C425 0.930 . S
C420 H406 0.930 . S
C420 C418 1.395 . S
C420 C423 1.403 . S
C421 C418 1.403 . S
C421 C422 1.524 . S
C421 C425 1.400 . S
C422 H407 0.960 . S
C422 H408 0.960 . S
C422 H409 0.960 . S
C422 C421 1.524 . S
C423 C420 1.403 . S
C423 C424 1.392 . S
C423 C427 1.495 . S
C424 C423 1.392 . S
C424 C425 1.385 . S
C424 C426 1.478 . S
C425 H419 0.930 . S
C425 C421 1.400 . S
C425 C424 1.385 . S
C426 C424 1.478 . S
C426 C428 1.381 . S
C426 C432 1.383 . S
C427 C423 1.495 . S
C427 H433 0.959 . S
C427 H434 0.961 . S
C427 H435 0.960 . S
C428 C426 1.381 . S
C428 C429 1.394 . S
C428 H436 0.930 . S
C429 C428 1.394 . S
C429 C430 1.383 . S
C429 H437 0.929 . S
C430 C429 1.383 . S
C430 C431 1.377 . S
C431 H415 0.930 . S
C431 C430 1.377 . S
C431 C432 1.379 . S
C432 H416 0.931 . S
C432 C426 1.383 . S
C432 C431 1.379 . S
H433 C427 0.959 . S
H434 C427 0.961 . S
H435 C427 0.960 . S
H436 C428 0.930 . S
H437 C429 0.929 . S
H438 C446 0.927 . S
H439 C448 0.930 . S
H440 C450 0.930 . S
H441 C453 0.929 . S
H442 C456 0.930 . S
H443 C458 0.960 . S
H444 C458 0.960 . S
H445 C458 0.960 . S
C446 H438 0.927 . S
C446 C447 1.377 . S
C446 C448 1.384 . S
C447 C446 1.377 . S
C447 C453 1.390 . S
C448 H439 0.930 . S
C448 C446 1.384 . S
C448 C449 1.372 . S
C449 C448 1.372 . S
C449 C450 1.400 . S
C449 C454 1.490 . S
C450 H440 0.930 . S
C450 C449 1.400 . S
C450 C453 1.386 . S
H451 C467 0.930 . S
H452 C468 0.931 . S
C453 H441 0.929 . S
C453 C447 1.390 . S
C453 C450 1.386 . S
C454 C449 1.490 . S
C454 C456 1.395 . S
C454 C457 1.403 . S
H455 C461 0.930 . S
C456 H442 0.930 . S
C456 C454 1.395 . S
C456 C459 1.403 . S
C457 C454 1.403 . S
C457 C458 1.524 . S
C457 C461 1.400 . S
C458 H443 0.960 . S
C458 H444 0.960 . S
C458 H445 0.960 . S
C458 C457 1.524 . S
C459 C456 1.403 . S
C459 C460 1.392 . S
C459 C463 1.495 . S
C460 C459 1.392 . S
C460 C461 1.385 . S
C460 C462 1.478 . S
C461 H455 0.930 . S
C461 C457 1.400 . S
C461 C460 1.385 . S
C462 C460 1.478 . S
C462 C464 1.381 . S
C462 C468 1.383 . S
C463 C459 1.495 . S
C463 H469 0.959 . S
C463 H470 0.961 . S
C463 H471 0.960 . S
C464 C462 1.381 . S
C464 C465 1.394 . S
C464 H472 0.930 . S
C465 C464 1.394 . S
C465 C466 1.383 . S
C465 H473 0.929 . S
C466 C465 1.383 . S
C466 C467 1.377 . S
C467 H451 0.930 . S
C467 C466 1.377 . S
C467 C468 1.379 . S
C468 H452 0.931 . S
C468 C462 1.383 . S
C468 C467 1.379 . S
H469 C463 0.959 . S
H470 C463 0.961 . S
H471 C463 0.960 . S
H472 C464 0.930 . S
H473 C465 0.929 . S
H474 C482 0.929 . S
H475 C484 0.930 . S
H476 C486 0.930 . S
H477 C489 0.929 . S
H478 C492 0.930 . S
H479 C494 0.960 . S
H480 C494 0.960 . S
H481 C494 0.960 . S
C482 H474 0.929 . S
C482 C483 1.377 . S
C482 C484 1.384 . S
C483 C482 1.377 . S
C483 C489 1.390 . S
C484 H475 0.930 . S
C484 C482 1.384 . S
C484 C485 1.372 . S
C485 C484 1.372 . S
C485 C486 1.400 . S
C485 C490 1.490 . S
C486 H476 0.930 . S
C486 C485 1.400 . S
C486 C489 1.386 . S
H487 C503 0.930 . S
H488 C504 0.931 . S
C489 H477 0.929 . S
C489 C483 1.390 . S
C489 C486 1.386 . S
C490 C485 1.490 . S
C490 C492 1.395 . S
C490 C493 1.403 . S
H491 C497 0.930 . S
C492 H478 0.930 . S
C492 C490 1.395 . S
C492 C495 1.403 . S
C493 C490 1.403 . S
C493 C494 1.524 . S
C493 C497 1.400 . S
C494 H479 0.960 . S
C494 H480 0.960 . S
C494 H481 0.960 . S
C494 C493 1.524 . S
C495 C492 1.403 . S
C495 C496 1.392 . S
C495 C499 1.495 . S
C496 C495 1.392 . S
C496 C497 1.385 . S
C496 C498 1.478 . S
C497 H491 0.930 . S
C497 C493 1.400 . S
C497 C496 1.385 . S
C498 C496 1.478 . S
C498 C500 1.381 . S
C498 C504 1.383 . S
C499 C495 1.495 . S
C499 H505 0.959 . S
C499 H506 0.961 . S
C499 H507 0.960 . S
C500 C498 1.381 . S
C500 C501 1.394 1_655 S
C500 H508 0.930 . S
C501 C500 1.394 1_455 S
C501 C502 1.383 . S
C501 H509 0.929 . S
C502 C501 1.383 . S
C502 C503 1.377 1_455 S
C503 H487 0.930 . S
C503 C502 1.377 1_655 S
C503 C504 1.379 . S
C504 H488 0.931 . S
C504 C498 1.383 . S
C504 C503 1.379 . S
H505 C499 0.959 . S
H506 C499 0.961 . S
H507 C499 0.960 . S
H508 C500 0.930 . S
H509 C501 0.929 . S
H510 C518 0.929 . S
H511 C520 0.930 . S
H512 C522 0.930 . S
H513 C525 0.929 . S
H514 C528 0.930 . S
H515 C530 0.960 . S
H516 C530 0.960 . S
H517 C530 0.960 . S
C518 H510 0.929 . S
C518 C519 1.377 . S
C518 C520 1.384 . S
C519 C518 1.377 . S
C519 C525 1.390 . S
C520 H511 0.930 . S
C520 C518 1.384 . S
C520 C521 1.372 . S
C521 C520 1.372 . S
C521 C522 1.400 . S
C521 C526 1.490 . S
C522 H512 0.930 . S
C522 C521 1.400 . S
C522 C525 1.386 . S
H523 C539 0.930 . S
H524 C540 0.931 . S
C525 H513 0.929 . S
C525 C519 1.390 . S
C525 C522 1.386 . S
C526 C521 1.490 . S
C526 C528 1.395 . S
C526 C529 1.403 . S
H527 C533 0.930 . S
C528 H514 0.930 . S
C528 C526 1.395 . S
C528 C531 1.403 . S
C529 C526 1.403 . S
C529 C530 1.524 . S
C529 C533 1.400 . S
C530 H515 0.960 . S
C530 H516 0.960 . S
C530 H517 0.960 . S
C530 C529 1.524 . S
C531 C528 1.403 . S
C531 C532 1.392 . S
C531 C535 1.495 . S
C532 C531 1.392 . S
C532 C533 1.385 . S
C532 C534 1.478 . S
C533 H527 0.930 . S
C533 C529 1.400 . S
C533 C532 1.385 . S
C534 C532 1.478 . S
C534 C536 1.381 . S
C534 C540 1.383 . S
C535 C531 1.495 . S
C535 H541 0.959 . S
C535 H542 0.961 . S
C535 H543 0.960 . S
C536 C534 1.381 . S
C536 C537 1.394 . S
C536 H544 0.930 . S
C537 C536 1.394 . S
C537 C538 1.383 . S
C537 H545 0.929 . S
C538 C537 1.383 . S
C538 C539 1.377 . S
C539 H523 0.930 . S
C539 C538 1.377 . S
C539 C540 1.379 . S
C540 H524 0.931 . S
C540 C534 1.383 . S
C540 C539 1.379 . S
H541 C535 0.959 . S
H542 C535 0.961 . S
H543 C535 0.960 . S
H544 C536 0.930 . S
H545 C537 0.929 . S
H546 C554 0.929 . S
H547 C556 0.930 . S
H548 C558 0.930 . S
H549 C561 0.929 . S
H550 C564 0.930 . S
H551 C566 0.960 . S
H552 C566 0.960 . S
H553 C566 0.960 . S
C554 H546 0.929 . S
C554 C555 1.377 . S
C554 C556 1.384 . S
C555 C554 1.377 . S
C555 C561 1.390 . S
C556 H547 0.930 . S
C556 C554 1.384 . S
C556 C557 1.372 . S
C557 C556 1.372 . S
C557 C558 1.400 . S
C557 C562 1.490 . S
C558 H548 0.930 . S
C558 C557 1.400 . S
C558 C561 1.386 . S
H559 C575 0.930 . S
H560 C576 0.931 . S
C561 H549 0.929 . S
C561 C555 1.390 . S
C561 C558 1.386 . S
C562 C557 1.490 . S
C562 C564 1.395 . S
C562 C565 1.403 . S
H563 C569 0.930 . S
C564 H550 0.930 . S
C564 C562 1.395 . S
C564 C567 1.403 . S
C565 C562 1.403 . S
C565 C566 1.524 . S
C565 C569 1.400 . S
C566 H551 0.960 . S
C566 H552 0.960 . S
C566 H553 0.960 . S
C566 C565 1.524 . S
C567 C564 1.403 . S
C567 C568 1.392 . S
C567 C571 1.495 . S
C568 C567 1.392 . S
C568 C569 1.385 . S
C568 C570 1.478 . S
C569 H563 0.930 . S
C569 C565 1.400 . S
C569 C568 1.385 . S
C570 C568 1.478 . S
C570 C572 1.381 . S
C570 C576 1.383 . S
C571 C567 1.495 . S
C571 H577 0.959 . S
C571 H578 0.961 . S
C571 H579 0.960 . S
C572 C570 1.381 . S
C572 C573 1.394 . S
C572 H580 0.930 . S
C573 C572 1.394 . S
C573 C574 1.383 . S
C573 H581 0.929 . S
C574 C573 1.383 . S
C574 C575 1.377 . S
C575 H559 0.930 . S
C575 C574 1.377 . S
C575 C576 1.379 . S
C576 H560 0.931 . S
C576 C570 1.383 . S
C576 C575 1.379 . S
H577 C571 0.959 . S
H578 C571 0.961 . S
H579 C571 0.960 . S
H580 C572 0.930 . S
H581 C573 0.929 . S
H582 C590 0.929 . S
H583 C592 0.930 . S
H584 C594 0.930 . S
H585 C597 0.929 . S
H586 C600 0.930 . S
H587 C602 0.960 . S
H588 C602 0.960 . S
H589 C602 0.960 . S
C590 H582 0.929 . S
C590 C591 1.377 . S
C590 C592 1.384 . S
C591 C590 1.377 . S
C591 C597 1.390 . S
C592 H583 0.930 . S
C592 C590 1.384 . S
C592 C593 1.372 . S
C593 C592 1.372 . S
C593 C594 1.400 . S
C593 C598 1.490 . S
C594 H584 0.930 . S
C594 C593 1.400 . S
C594 C597 1.386 . S
H595 C611 0.930 . S
H596 C612 0.931 . S
C597 H585 0.929 . S
C597 C591 1.390 . S
C597 C594 1.386 . S
C598 C593 1.490 . S
C598 C600 1.395 . S
C598 C601 1.403 . S
H599 C605 0.930 . S
C600 H586 0.930 . S
C600 C598 1.395 . S
C600 C603 1.403 . S
C601 C598 1.403 . S
C601 C602 1.524 . S
C601 C605 1.400 . S
C602 H587 0.960 . S
C602 H588 0.960 . S
C602 H589 0.960 . S
C602 C601 1.524 . S
C603 C600 1.403 . S
C603 C604 1.392 . S
C603 C607 1.495 . S
C604 C603 1.392 . S
C604 C605 1.385 . S
C604 C606 1.478 . S
C605 H599 0.930 . S
C605 C601 1.400 . S
C605 C604 1.385 . S
C606 C604 1.478 . S
C606 C608 1.381 . S
C606 C612 1.383 . S
C607 C603 1.495 . S
C607 H613 0.959 . S
C607 H614 0.961 . S
C607 H615 0.960 . S
C608 C606 1.381 . S
C608 C609 1.394 . S
C608 H616 0.930 . S
C609 C608 1.394 . S
C609 C610 1.383 . S
C609 H617 0.929 . S
C610 C609 1.383 . S
C610 C611 1.377 . S
C611 H595 0.930 . S
C611 C610 1.377 . S
C611 C612 1.379 . S
C612 H596 0.931 . S
C612 C606 1.383 . S
C612 C611 1.379 . S
H613 C607 0.959 . S
H614 C607 0.961 . S
H615 C607 0.960 . S
H616 C608 0.930 . S
H617 C609 0.929 . S
C214 C151 1.424 . S
C195 C25 1.501 . S
C250 C147 1.443 . S
C231 C61 1.509 . S
C286 C172 1.395 . S
C267 C97 1.497 . S
C303 C133 1.514 . S
C322 C168 1.378 . S
C339 C31 1.074 . S
C358 C169 0.918 . S
C394 C184 1.064 . S
C375 C37 1.116 . S
C411 C1 1.723 . S
C430 C185 1.561 . S
C466 C181 1.645 . S
C447 C67 1.747 . S
C502 C148 0.934 . S
C483 C103 1.067 . S
C519 C109 1.120 . S
C538 C163 0.969 . S
C574 C164 1.577 . S
C555 C73 1.720 . S
C610 C160 1.661 . S
C591 C139 1.747 . S
