# Generated by pormake.
# Topology pth, (4,4)-cn, num edge types: 1
# Building blocks:
#     Node 0, Type 0, BuildingBlock: NAHDIM_clean_sbu_0, # of connection points: 4
#     Node 1, Type 0, BuildingBlock: NAHDIM_clean_sbu_0, # of connection points: 4
#     Node 2, Type 0, BuildingBlock: NAHDIM_clean_sbu_0, # of connection points: 4
#     Node 3, Type 1, BuildingBlock: NAHDIM_clean_linker_0, # of connection points: 4
#     Node 4, Type 1, BuildingBlock: NAHDIM_clean_linker_0, # of connection points: 4
#     Node 5, Type 1, BuildingBlock: NAHDIM_clean_linker_0, # of connection points: 4
#     Edge 6, Type (0, 1), None
#     Edge 7, Type (0, 1), None
#     Edge 8, Type (0, 1), None
#     Edge 9, Type (0, 1), None
#     Edge 10, Type (0, 1), None
#     Edge 11, Type (0, 1), None
#     Edge 12, Type (0, 1), None
#     Edge 13, Type (0, 1), None
#     Edge 14, Type (0, 1), None
#     Edge 15, Type (0, 1), None
#     Edge 16, Type (0, 1), None
#     Edge 17, Type (0, 1), None
# Relax obj value: 0.061
# Max RMSD: 0.180
# Mean RMSD: 0.115
data_MOF--net-pth--node1-NAHDIM_clean_sbu_0--node2-NAHDIM_clean_linker_0--edge1-none
_symmetry_space_group_name_H-M    P1
_symmetry_Int_Tables_number       1
_symmetry_cell_setting            triclinic
loop_
_symmetry_equiv_pos_as_xyz
'x, y, z'
_cell_length_a     19.279479
_cell_length_b     19.453169
_cell_length_c     48.082414
_cell_angle_alpha  91.365532
_cell_angle_beta   89.806347
_cell_angle_gamma 120.50573
loop_
_atom_site_label
_atom_site_type_symbol
_atom_site_fract_x
_atom_site_fract_y
_atom_site_fract_z
_atom_type_partial_charge
C0 C 0.08995 0.98115 0.11902 0.0
O1 O 0.15518 0.04917 0.1136 0.0
O2 O 0.07538 0.13818 0.09561 0.0
Zn3 Zn 0.03186 0.03278 0.07485 0.0
O4 O 0.91701 -0.00558 0.06143 0.0
C5 C 0.14392 0.08085 0.02356 0.0
O6 O 0.19604 0.06791 0.01032 0.0
O7 O 0.02687 0.95831 0.10436 0.0
C8 C 0.86098 0.93867 0.0466 0.0
O9 O 0.79298 0.93826 0.04414 0.0
C10 C 0.04379 0.13648 0.11903 0.0
O11 O 0.98101 0.06961 0.12697 0.0
O12 O 0.11397 0.04341 0.04593 0.0
C13 C 0.12552 0.1879 0.36306 0.0
O14 O 0.1184 0.18907 0.33593 0.0
O15 O 0.12534 0.02813 0.41861 0.0
Zn16 Zn 0.07409 0.10271 0.41703 0.0
O17 O 0.95846 0.03556 0.42967 0.0
C18 C 0.17108 0.21804 0.4648 0.0
O19 O 0.20622 0.2909 0.47548 0.0
O20 O 0.07494 0.12615 0.37595 0.0
C21 C 0.89956 0.04652 0.43414 0.0
O22 O 0.83292 0.98681 0.44388 0.0
C23 C 0.07783 0.95469 0.41181 0.0
O24 O 0.13008 0.02837 0.419 0.0
O25 O 0.13525 0.20402 0.44134 0.0
C26 C 0.05518 0.92409 0.68934 0.0
O27 O 0.02288 0.86773 0.66988 0.0
O28 O 0.93221 0.03887 0.73751 0.0
Zn29 Zn 0.02877 0.02279 0.73391 0.0
O30 O 0.12904 0.12975 0.72766 0.0
C31 C 0.00369 0.92568 0.7865 0.0
O32 O 0.03705 0.9205 0.80954 0.0
O33 O 0.00925 0.94214 0.70272 0.0
C34 C 0.14382 0.18799 0.74403 0.0
O35 O 0.09411 0.17708 0.76447 0.0
C36 C 0.89293 0.05747 0.72098 0.0
O37 O 0.83093 0.06056 0.73087 0.0
O38 O 0.04656 0.98301 0.77045 0.0
C39 C 0.09968 0.85665 0.43652 0.0
C40 C 0.10547 0.89559 0.40866 0.0
C41 C 0.07024 0.78902 0.37291 0.0
C42 C 0.14815 0.80252 0.36803 0.0
C43 C 0.16024 0.75199 0.34982 0.0
C44 C 0.09307 0.68536 0.3369 0.0
C45 C 0.01451 0.67046 0.34245 0.0
C46 C 0.0045 0.72347 0.35992 0.0
C47 C 0.24498 0.77018 0.3443 0.0
C48 C 0.94087 0.59839 0.33007 0.0
C49 C 0.25378 0.23664 0.38937 0.0
C50 C 0.19323 0.25845 0.37842 0.0
C51 C 0.20732 0.37097 0.35144 0.0
C52 C 0.1282 0.35525 0.35514 0.0
C53 C 0.10246 0.4036 0.34298 0.0
C54 C 0.1575 0.47017 0.32747 0.0
C55 C 0.23816 0.48812 0.32484 0.0
C56 C 0.26146 0.43743 0.33648 0.0
C57 C 0.0161 0.38273 0.34633 0.0
C58 C 0.2998 0.56045 0.30952 0.0
C59 C 0.08767 0.32991 0.14368 0.0
C60 C 0.01802 0.3112 0.15861 0.0
C61 C 0.01494 0.36885 0.17579 0.0
C62 C 0.08367 0.44625 0.17839 0.0
C63 C 0.1535 0.46557 0.16282 0.0
C64 C 0.15412 0.40716 0.1453 0.0
C65 C 0.93843 0.34699 0.19122 0.0
C66 C 0.22771 0.54754 0.16493 0.0
C67 C 0.04598 0.96177 0.16822 0.0
C68 C 0.08636 0.93919 0.1452 0.0
C69 C 0.05097 0.80301 0.15525 0.0
C70 C 0.98145 0.73155 0.16171 0.0
C71 C 0.98574 0.67357 0.17722 0.0
C72 C 0.06176 0.6871 0.18596 0.0
C73 C 0.13253 0.75852 0.17891 0.0
C74 C 0.12642 0.81571 0.16359 0.0
C75 C 0.90923 0.59772 0.18419 0.0
C76 C 0.21477 0.77372 0.18712 0.0
C77 C 0.10455 0.63033 0.31801 0.0
C78 C 0.12297 0.57659 0.32998 0.0
C79 C 0.13105 0.5207 0.31364 0.0
C80 C 0.11759 0.51608 0.28456 0.0
C81 C 0.12076 0.4577 0.26766 0.0
C82 C 0.1091 0.45463 0.23901 0.0
C83 C 0.09364 0.5097 0.22613 0.0
C84 C 0.08206 0.50739 0.197 0.0
C85 C 0.06968 0.56474 0.18481 0.0
C86 C 0.06811 0.62465 0.20088 0.0
C87 C 0.07683 0.62652 0.23013 0.0
C88 C 0.07329 0.68467 0.247 0.0
C89 C 0.08246 0.68618 0.27577 0.0
C90 C 0.09581 0.62978 0.28876 0.0
C91 C 0.10099 0.57152 0.27206 0.0
C92 C 0.09016 0.56905 0.24277 0.0
C93 C 0.16881 0.2205 0.14684 0.0
C94 C 0.08491 0.2053 0.13943 0.0
O95 O 0.05497 0.8374 0.38949 0.0
O96 O 0.04326 0.85734 0.14039 0.0
O97 O 0.09229 0.27343 0.12814 0.0
O98 O 0.23362 0.32297 0.36119 0.0
H99 H 0.16913 0.92787 0.40185 0.0
H100 H 0.12408 0.81591 0.43441 0.0
H101 H 0.03593 0.82148 0.44319 0.0
H102 H 0.13475 0.90227 0.45295 0.0
H103 H 0.20005 0.85259 0.37787 0.0
H104 H 0.94464 0.71327 0.36387 0.0
H105 H 0.2546 0.72475 0.35426 0.0
H106 H 0.29095 0.83005 0.35262 0.0
H107 H 0.25434 0.7672 0.32159 0.0
H108 H 0.88456 0.58807 0.34017 0.0
H109 H 0.94537 0.54403 0.3321 0.0
H110 H 0.93648 0.60726 0.30758 0.0
H111 H 0.16877 0.27601 0.39639 0.0
H112 H 0.28145 0.22105 0.37185 0.0
H113 H 0.22441 0.18525 0.40338 0.0
H114 H 0.30227 0.28815 0.40134 0.0
H115 H 0.08575 0.30458 0.36698 0.0
H116 H 0.3225 0.44949 0.33392 0.0
H117 H -0.011 0.38006 0.32569 0.0
H118 H 0.01411 0.42998 0.3591 0.0
H119 H 0.97888 0.32466 0.35657 0.0
H120 H 0.36212 0.57345 0.31346 0.0
H121 H 0.29604 0.61379 0.31577 0.0
H122 H 0.28749 0.54999 0.28682 0.0
H123 H 0.04882 0.18931 0.15885 0.0
H124 H 0.96619 0.25144 0.15673 0.0
H125 H 0.20737 0.42078 0.13347 0.0
H126 H 0.94884 0.34652 0.21388 0.0
H127 H 0.88786 0.28731 0.18462 0.0
H128 H 0.92062 0.39223 0.18779 0.0
H129 H 0.27977 0.55029 0.15391 0.0
H130 H 0.24467 0.56549 0.1871 0.0
H131 H 0.21467 0.5916 0.15571 0.0
H132 H 0.14925 0.96023 0.15181 0.0
H133 H 0.07935 0.02737 0.17215 0.0
H134 H 0.04579 0.9326 0.18782 0.0
H135 H 0.98271 0.94203 0.16238 0.0
H136 H 0.92358 0.72183 0.15484 0.0
H137 H 0.18093 0.86899 0.15758 0.0
H138 H 0.90678 0.5881 0.20693 0.0
H139 H 0.90872 0.54614 0.17357 0.0
H140 H 0.85455 0.59884 0.17772 0.0
H141 H 0.2641 0.83145 0.17946 0.0
H142 H 0.22325 0.72487 0.17868 0.0
H143 H 0.2196 0.77409 0.21012 0.0
H144 H 0.13165 0.57863 0.35234 0.0
H145 H 0.13217 0.41358 0.27641 0.0
H146 H 0.11269 0.40869 0.22705 0.0
H147 H 0.06244 0.5635 0.16239 0.0
H148 H 0.06309 0.72947 0.23814 0.0
H149 H 0.07939 0.73245 0.28771 0.0
H150 H 0.20772 0.23769 0.12817 0.0
H151 H 0.16459 0.16628 0.15567 0.0
H152 H 0.1976 0.2697 0.1627 0.0
C153 C 0.16707 0.97322 0.72486 0.0
C154 C 0.14515 0.96776 0.69403 0.0
C155 C 0.24978 0.95728 0.6675 0.0
C156 C 0.31087 0.03796 0.67004 0.0
C157 C 0.38454 0.06587 0.65625 0.0
C158 C 0.39751 0.01194 0.63995 0.0
C159 C 0.3372 0.93032 0.63824 0.0
C160 C 0.26411 0.90428 0.65197 0.0
C161 C 0.44796 0.15315 0.6586 0.0
C162 C 0.34939 0.87076 0.62146 0.0
C163 C 0.00277 0.11341 0.68492 0.0
C164 C 0.91278 0.07348 0.69048 0.0
C165 C 0.8192 0.10601 0.66665 0.0
C166 C 0.7558 0.02763 0.66115 0.0
C167 C 0.68755 0.01344 0.64577 0.0
C168 C 0.68181 0.0788 0.6363 0.0
C169 C 0.74475 0.15764 0.64245 0.0
C170 C 0.81273 0.16994 0.65731 0.0
C171 C 0.62142 0.92862 0.63973 0.0
C172 C 0.74007 0.22918 0.63362 0.0
C173 C 0.7803 0.11544 0.44682 0.0
C174 C 0.70521 0.04724 0.45033 0.0
C175 C 0.65129 0.04612 0.47017 0.0
C176 C 0.67158 0.11651 0.48588 0.0
C177 C 0.74727 0.18641 0.482 0.0
C178 C 0.80149 0.18473 0.46271 0.0
C179 C 0.57209 0.96982 0.47397 0.0
C180 C 0.77002 0.26305 0.49777 0.0
C181 C 0.09102 0.08311 0.48552 0.0
C182 C 0.17502 0.15425 0.48048 0.0
C183 C 0.2869 0.12993 0.47479 0.0
C184 C 0.29878 0.0674 0.46665 0.0
C185 C 0.36287 0.06135 0.47751 0.0
C186 C 0.41903 0.12207 0.4959 0.0
C187 C 0.41128 0.18945 0.50219 0.0
C188 C 0.34468 0.19217 0.49185 0.0
C189 C 0.36935 0.98937 0.4695 0.0
C190 C 0.47249 0.25809 0.52022 0.0
C191 C 0.47206 0.0408 0.62341 0.0
C192 C 0.53989 0.04642 0.63615 0.0
C193 C 0.60909 0.06559 0.62087 0.0
C194 C 0.60968 0.07676 0.59184 0.0
C195 C 0.67493 0.08859 0.57526 0.0
C196 C 0.675 0.1002 0.54676 0.0
C197 C 0.61127 0.10348 0.53395 0.0
C198 C 0.61131 0.11699 0.50514 0.0
C199 C 0.5489 0.12424 0.49351 0.0
C200 C 0.4836 0.11371 0.50949 0.0
C201 C 0.4798 0.09439 0.53786 0.0
C202 C 0.41208 0.07681 0.55404 0.0
C203 C 0.40918 0.05877 0.58198 0.0
C204 C 0.47431 0.05855 0.59496 0.0
C205 C 0.54302 0.07574 0.57906 0.0
C206 C 0.54492 0.09166 0.5503 0.0
C207 C 0.95864 0.17374 0.40717 0.0
C208 C 0.90567 0.1267 0.43139 0.0
O209 O 0.17639 0.92729 0.67953 0.0
O210 O 0.21966 0.12854 0.46558 0.0
O211 O 0.82927 0.11441 0.42676 0.0
O212 O 0.887 0.12386 0.68118 0.0
H213 H 0.16921 0.0289 0.68612 0.0
H214 H 0.23242 -0.0045 0.72731 0.0
H215 H 0.13291 0.91378 0.73449 0.0
H216 H 0.1547 0.016 0.73605 0.0
H217 H 0.30168 0.07951 0.68257 0.0
H218 H 0.21705 0.84206 0.65039 0.0
H219 H 0.50437 0.15979 0.66731 0.0
H220 H 0.42879 0.18766 0.67204 0.0
H221 H 0.46182 0.17917 0.63759 0.0
H222 H 0.29955 0.80844 0.62418 0.0
H223 H 0.40697 0.87506 0.62761 0.0
H224 H 0.35333 0.88472 0.59906 0.0
H225 H 0.88382 0.01584 0.6786 0.0
H226 H 0.02487 0.07206 0.68875 0.0
H227 H 0.03632 0.16845 0.69804 0.0
H228 H 0.01459 0.13019 0.66275 0.0
H229 H 0.75838 0.97728 0.66891 0.0
H230 H 0.86145 0.23016 0.66191 0.0
H231 H 0.60456 0.92029 0.61732 0.0
H232 H 0.56718 0.91598 0.6518 0.0
H233 H 0.63926 0.88461 0.64534 0.0
H234 H 0.78893 0.28582 0.6431 0.0
H235 H 0.68116 0.2223 0.63952 0.0
H236 H 0.74496 0.23372 0.61066 0.0
H237 H 0.93251 0.16238 0.45093 0.0
H238 H 0.68928 -0.00558 0.43762 0.0
H239 H 0.85927 0.23792 0.45935 0.0
H240 H 0.55932 0.95765 0.49642 0.0
H241 H 0.57122 0.91768 0.46364 0.0
H242 H 0.52298 0.9762 0.46486 0.0
H243 H 0.82892 0.31339 0.49112 0.0
H244 H 0.77342 0.2547 0.52037 0.0
H245 H 0.72299 0.27913 0.49467 0.0
H246 H 0.2022 0.17893 0.50137 0.0
H247 H 0.05277 0.10301 0.4962 0.0
H248 H 0.0957 0.03992 0.49894 0.0
H249 H 0.06159 0.0519 0.46572 0.0
H250 H 0.25594 0.02169 0.45244 0.0
H251 H 0.33832 0.24321 0.49694 0.0
H252 H 0.38414 0.96562 0.48791 0.0
H253 H 0.41849 0.0073 0.45423 0.0
H254 H 0.31282 0.94082 0.45979 0.0
H255 H 0.46802 0.31244 0.518 0.0
H256 H 0.53455 0.27273 0.51492 0.0
H257 H 0.46215 0.24102 0.54236 0.0
H258 H 0.53878 0.0357 0.65823 0.0
H259 H 0.72614 0.08793 0.58412 0.0
H260 H 0.72634 0.10799 0.53497 0.0
H261 H 0.55021 0.1363 0.47154 0.0
H262 H 0.36015 0.07621 0.54526 0.0
H263 H 0.35551 0.0459 0.59335 0.0
H264 H 0.93858 0.13734 0.38753 0.0
H265 H 0.02225 0.19306 0.41154 0.0
H266 H 0.95507 0.2284 0.40435 0.0
C267 C 0.89287 0.84592 0.7513 0.0
C268 C 0.91458 0.87018 0.78193 0.0
C269 C 0.81855 0.7526 0.80867 0.0
C270 C 0.75429 0.76737 0.80876 0.0
C271 C 0.68168 0.7155 0.82202 0.0
C272 C 0.67219 0.64626 0.83467 0.0
C273 C 0.73576 0.62983 0.83369 0.0
C274 C 0.80847 0.684 0.82111 0.0
C275 C 0.61507 0.73481 0.82247 0.0
C276 C 0.72707 0.55503 0.84584 0.0
C277 C 0.20772 0.29871 0.71059 0.0
C278 C 0.21508 0.26944 0.73905 0.0
C279 C 0.27226 0.35672 0.78081 0.0
C280 C 0.31685 0.32359 0.79106 0.0
C281 C 0.3748 0.36316 0.81225 0.0
C282 C 0.38738 0.43642 0.82363 0.0
C283 C 0.33941 0.46746 0.81439 0.0
C284 C 0.28224 0.42691 0.79316 0.0
C285 C 0.42396 0.32778 0.82208 0.0
C286 C 0.35034 0.54482 0.82635 0.0
C287 C 0.2307 0.27144 0.0044 0.0
C288 C 0.28044 0.25555 0.98741 0.0
C289 C 0.34478 0.31678 0.97303 0.0
C290 C 0.35719 0.39514 0.97455 0.0
C291 C 0.30582 0.4109 0.99123 0.0
C292 C 0.24448 0.34912 0.00647 0.0
C293 C 0.40044 0.29751 0.95688 0.0
C294 C 0.31589 0.49304 0.99326 0.0
C295 C 0.95085 0.88132 0.03471 0.0
C296 C 0.86976 0.8757 0.03062 0.0
C297 C 0.74971 0.74726 0.02097 0.0
C298 C 0.73292 0.66851 0.01947 0.0
C299 C 0.67342 0.61225 0.0012 0.0
C300 C 0.62726 0.63484 0.98502 0.0
C301 C 0.64161 0.71379 0.98754 0.0
C302 C 0.70394 0.76955 0.00502 0.0
C303 C 0.66063 0.52905 -0.00095 0.0
C304 C 0.59115 0.73957 0.97191 0.0
C305 C 0.59545 0.5904 0.84854 0.0
C306 C 0.5294 0.5391 0.83172 0.0
C307 C 0.45542 0.48452 0.84323 0.0
C308 C 0.4472 0.47902 0.87247 0.0
C309 C 0.3743 0.42349 0.8848 0.0
C310 C 0.36741 0.41792 0.91363 0.0
C311 C 0.433 0.46795 0.93121 0.0
C312 C 0.42754 0.46135 0.96052 0.0
C313 C 0.4921 0.51615 0.97731 0.0
C314 C 0.56331 0.57599 0.96577 0.0
C315 C 0.57191 0.57989 0.93652 0.0
C316 C 0.64458 0.63588 0.92418 0.0
C317 C 0.65223 0.63992 0.89541 0.0
C318 C 0.58779 0.58755 0.87783 0.0
C319 C 0.51373 0.53088 0.88981 0.0
C320 C 0.50616 0.5263 0.9192 0.0
C321 C 0.03328 0.11344 0.0178 0.0
C322 C 0.11924 0.13561 0.01081 0.0
O323 O 0.8911 0.80194 0.79697 0.0
O324 O 0.80969 0.80037 0.03817 0.0
O325 O 0.17069 0.21387 0.01965 0.0
O326 O 0.21902 0.32344 0.75925 0.0
H327 H 0.88489 0.90302 0.78961 0.0
H328 H 0.8286 0.79836 0.74926 0.0
H329 H 0.93051 0.82284 0.74228 0.0
H330 H 0.90066 0.89707 0.73934 0.0
H331 H 0.75987 0.81903 0.79874 0.0
H332 H 0.85798 0.67261 0.8207 0.0
H333 H 0.56529 0.69191 0.80852 0.0
H334 H 0.6358 0.79617 0.8154 0.0
H335 H 0.59048 0.72865 0.84377 0.0
H336 H 0.77663 0.54486 0.83942 0.0
H337 H 0.66875 0.50212 0.83933 0.0
H338 H 0.72771 0.56002 0.86889 0.0
H339 H 0.27075 0.26578 0.73871 0.0
H340 H 0.20469 0.25712 0.69374 0.0
H341 H 0.26124 0.35837 0.707 0.0
H342 H 0.15302 0.30398 0.70953 0.0
H343 H 0.307 0.26723 0.78264 0.0
H344 H 0.24645 0.45116 0.7855 0.0
H345 H 0.41982 0.32214 0.84503 0.0
H346 H 0.48827 0.36834 0.81701 0.0
H347 H 0.40388 0.26815 0.81234 0.0
H348 H 0.3049 0.5584 0.81816 0.0
H349 H 0.41128 0.59459 0.82124 0.0
H350 H 0.34592 0.54211 0.84937 0.0
H351 H 0.12194 0.13045 0.98774 0.0
H352 H 0.27097 0.19594 0.98595 0.0
H353 H 0.20598 0.36095 0.01975 0.0
H354 H 0.38653 0.29369 0.93434 0.0
H355 H 0.39348 0.23952 0.96286 0.0
H356 H 0.46432 0.34487 0.9602 0.0
H357 H 0.26142 0.49139 0.00176 0.0
H358 H 0.32886 0.52076 0.97253 0.0
H359 H 0.3675 0.5317 0.00729 0.0
H360 H 0.86479 0.88466 0.00806 0.0
H361 H -0.00246 0.93295 0.02343 0.0
H362 H 0.94868 0.82729 0.02552 0.0
H363 H 0.96657 0.88565 0.05708 0.0
H364 H 0.76833 0.65187 0.03208 0.0
H365 H 0.71596 0.8302 0.00652 0.0
H366 H 0.65656 0.50971 0.9769 0.0
H367 H 0.603 0.48681 0.00911 0.0
H368 H 0.70983 0.52499 0.0094 0.0
H369 H 0.59827 0.79622 0.98064 0.0
H370 H 0.52642 0.69284 0.97239 0.0
H371 H 0.60992 0.74909 0.94983 0.0
H372 H 0.53544 0.54222 0.80926 0.0
H373 H 0.32203 0.38328 0.87226 0.0
H374 H 0.30997 0.37396 0.92202 0.0
H375 H 0.48702 0.51189 -0.00024 0.0
H376 H 0.69657 0.67712 0.93663 0.0
H377 H 0.70945 0.68464 0.88712 0.0
H378 H -0.00949 0.05062 0.01135 0.0
H379 H 0.01701 0.15221 0.00629 0.0
H380 H 0.02797 0.12288 0.04035 0.0
loop_
_geom_bond_atom_site_label_1
_geom_bond_atom_site_label_2
_geom_bond_distance
_geom_bond_site_symmetry_2
_ccdc_geom_bond_type
C0 O1 1.160 . S
C0 O7 1.185 . S
O1 C0 1.160 . S
O2 Zn3 1.899 . S
O2 C10 1.284 . S
Zn3 O2 1.899 . S
Zn3 O4 2.032 1_445 S
Zn3 O7 2.086 1_545 S
Zn3 O12 1.977 . S
O4 Zn3 2.032 1_665 S
O4 C8 1.278 . S
C5 O6 1.203 . S
C5 O12 1.267 . S
O6 C5 1.203 . S
O7 C0 1.185 . S
O7 Zn3 2.086 1_565 S
C8 O4 1.278 . S
C8 O9 1.211 1_565 S
O9 C8 1.211 1_545 S
C10 O2 1.284 . S
C10 O11 1.273 1_455 S
O11 C10 1.273 1_655 S
O12 Zn3 1.977 . S
O12 C5 1.267 . S
C13 O14 1.160 . S
C13 O20 1.185 . S
O14 C13 1.160 . S
O15 Zn16 1.899 . S
O15 C23 1.284 1_545 S
Zn16 O15 1.899 . S
Zn16 O17 2.032 . S
Zn16 O20 2.086 . S
Zn16 O25 1.977 . S
O17 Zn16 2.032 . S
O17 C21 1.278 1_455 S
C18 O19 1.203 . S
C18 O25 1.267 . S
O19 C18 1.203 . S
O20 C13 1.185 . S
O20 Zn16 2.086 . S
C21 O17 1.278 1_655 S
C21 O22 1.211 1_655 S
O22 C21 1.211 1_455 S
C23 O15 1.284 1_565 S
C23 O24 1.273 . S
O24 C23 1.273 . S
O25 Zn16 1.977 . S
O25 C18 1.267 . S
C26 O27 1.160 . S
C26 O33 1.185 1_545 S
O27 C26 1.160 . S
O28 Zn29 1.899 1_655 S
O28 C36 1.284 . S
Zn29 O28 1.899 1_455 S
Zn29 O30 2.032 . S
Zn29 O33 2.086 1_545 S
Zn29 O38 1.977 1_545 S
O30 Zn29 2.032 . S
O30 C34 1.278 . S
C31 O32 1.203 . S
C31 O38 1.267 1_655 S
O32 C31 1.203 . S
O33 C26 1.185 1_565 S
O33 Zn29 2.086 1_565 S
C34 O30 1.278 . S
C34 O35 1.211 . S
O35 C34 1.211 . S
C36 O28 1.284 . S
C36 O37 1.273 . S
O37 C36 1.273 . S
O38 Zn29 1.977 1_565 S
O38 C31 1.267 1_455 S
C39 C40 1.560 1_655 S
C39 H100 0.959 . S
C39 H101 0.959 . S
C39 H102 0.960 . S
C40 C39 1.560 1_455 S
C40 O95 1.426 1_455 S
C40 H99 0.980 . S
C41 C42 1.407 . S
C41 C46 1.418 1_455 S
C41 O95 1.334 1_455 S
C42 C41 1.407 . S
C42 C43 1.360 . S
C42 H103 0.929 . S
C43 C42 1.360 . S
C43 C44 1.401 . S
C43 C47 1.527 . S
C44 C43 1.401 . S
C44 C45 1.405 1_455 S
C44 C77 1.587 . S
C45 C44 1.405 1_655 S
C45 C46 1.332 . S
C45 C48 1.496 . S
C46 C41 1.418 1_655 S
C46 C45 1.332 . S
C46 H104 0.929 . S
C47 C43 1.527 . S
C47 H105 0.959 . S
C47 H106 0.961 . S
C47 H107 0.961 . S
C48 C45 1.496 . S
C48 H108 0.960 . S
C48 H109 0.960 . S
C48 H110 0.961 . S
C49 C50 1.517 . S
C49 H112 0.961 . S
C49 H113 0.960 . S
C49 H114 0.959 . S
C50 C49 1.517 . S
C50 O98 1.468 . S
C50 H111 0.980 . S
C51 C52 1.349 . S
C51 C56 1.367 . S
C51 O98 1.408 . S
C52 C51 1.349 . S
C52 C53 1.407 . S
C52 H115 0.930 . S
C53 C52 1.407 . S
C53 C54 1.449 . S
C53 C57 1.535 1_455 S
C54 C53 1.449 . S
C54 C55 1.384 . S
C54 C79 1.553 . S
C55 C54 1.384 . S
C55 C56 1.364 . S
C55 C58 1.450 . S
C56 C51 1.367 . S
C56 C55 1.364 . S
C56 H116 0.931 . S
C57 C53 1.535 1_655 S
C57 H117 0.959 . S
C57 H118 0.961 . S
C57 H119 0.959 . S
C58 C55 1.450 . S
C58 H120 0.960 . S
C58 H121 0.960 . S
C58 H122 0.960 . S
C59 C60 1.309 . S
C59 C64 1.304 . S
C59 O97 1.435 . S
C60 C59 1.309 . S
C60 C61 1.476 . S
C60 H124 0.930 1_455 S
C61 C60 1.476 . S
C61 C62 1.400 . S
C61 C65 1.567 1_455 S
C62 C61 1.400 . S
C62 C63 1.373 . S
C62 C84 1.432 . S
C63 C62 1.373 . S
C63 C64 1.339 . S
C63 C66 1.530 . S
C64 C59 1.304 . S
C64 C63 1.339 . S
C64 H125 0.930 . S
C65 C61 1.567 1_655 S
C65 H126 0.961 . S
C65 H127 0.960 . S
C65 H128 0.958 . S
C66 C63 1.530 . S
C66 H129 0.961 . S
C66 H130 0.960 . S
C66 H131 0.960 . S
C67 C68 1.530 1_655 S
C67 H133 0.961 . S
C67 H134 0.961 . S
C67 H135 0.959 . S
C68 C67 1.530 1_455 S
C68 O96 1.412 1_455 S
C68 H132 0.980 . S
C69 C70 1.288 . S
C69 C74 1.377 1_655 S
C69 O96 1.393 . S
C70 C69 1.288 . S
C70 C71 1.369 . S
C70 H136 0.932 . S
C71 C70 1.369 . S
C71 C72 1.398 1_655 S
C71 C75 1.527 . S
C72 C71 1.398 1_455 S
C72 C73 1.380 . S
C72 C86 1.497 . S
C73 C72 1.380 . S
C73 C74 1.383 . S
C73 C76 1.603 . S
C74 C69 1.377 1_455 S
C74 C73 1.383 . S
C74 H137 0.929 . S
C75 C71 1.527 . S
C75 H138 0.961 . S
C75 H139 0.959 . S
C75 H140 0.959 . S
C76 C73 1.603 . S
C76 H141 0.960 . S
C76 H142 0.962 . S
C76 H143 0.961 . S
C77 C44 1.587 . S
C77 C78 1.360 . S
C77 C90 1.412 . S
C78 C77 1.360 . S
C78 C79 1.365 . S
C78 H144 0.929 . S
C79 C54 1.553 . S
C79 C78 1.365 . S
C79 C80 1.404 . S
C80 C79 1.404 . S
C80 C81 1.395 . S
C80 C91 1.451 . S
C81 C80 1.395 . S
C81 C82 1.322 . S
C81 H145 0.930 . S
C82 C81 1.322 . S
C82 C83 1.459 . S
C82 H146 0.929 . S
C83 C82 1.459 . S
C83 C84 1.445 . S
C83 C92 1.395 . S
C84 C62 1.432 . S
C84 C83 1.445 . S
C84 C85 1.370 . S
C85 C84 1.370 . S
C85 C86 1.438 . S
C85 H147 0.930 . S
C86 C72 1.497 . S
C86 C85 1.438 . S
C86 C87 1.360 . S
C87 C86 1.360 . S
C87 C88 1.401 . S
C87 C92 1.446 . S
C88 C87 1.401 . S
C88 C89 1.347 . S
C88 H148 0.929 . S
C89 C88 1.347 . S
C89 C90 1.455 . S
C89 H149 0.930 . S
C90 C77 1.412 . S
C90 C89 1.455 . S
C90 C91 1.331 . S
C91 C80 1.451 . S
C91 C90 1.331 . S
C91 C92 1.497 . S
C92 C83 1.395 . S
C92 C87 1.446 . S
C92 C91 1.497 . S
C93 C94 1.582 . S
C93 H150 0.962 . S
C93 H151 0.959 . S
C93 H152 0.958 . S
C94 C93 1.582 . S
C94 O97 1.458 . S
C94 H123 0.980 . S
O95 C40 1.426 1_655 S
O95 C41 1.334 1_655 S
O96 C68 1.412 1_655 S
O96 C69 1.393 . S
O97 C59 1.435 . S
O97 C94 1.458 . S
O98 C50 1.468 . S
O98 C51 1.408 . S
H99 C40 0.980 . S
H100 C39 0.959 . S
H101 C39 0.959 . S
H102 C39 0.960 . S
H103 C42 0.929 . S
H104 C46 0.929 . S
H105 C47 0.959 . S
H106 C47 0.961 . S
H107 C47 0.961 . S
H108 C48 0.960 . S
H109 C48 0.960 . S
H110 C48 0.961 . S
H111 C50 0.980 . S
H112 C49 0.961 . S
H113 C49 0.960 . S
H114 C49 0.959 . S
H115 C52 0.930 . S
H116 C56 0.931 . S
H117 C57 0.959 . S
H118 C57 0.961 . S
H119 C57 0.959 . S
H120 C58 0.960 . S
H121 C58 0.960 . S
H122 C58 0.960 . S
H123 C94 0.980 . S
H124 C60 0.930 1_655 S
H125 C64 0.930 . S
H126 C65 0.961 . S
H127 C65 0.960 . S
H128 C65 0.958 . S
H129 C66 0.961 . S
H130 C66 0.960 . S
H131 C66 0.960 . S
H132 C68 0.980 . S
H133 C67 0.961 . S
H134 C67 0.961 . S
H135 C67 0.959 . S
H136 C70 0.932 . S
H137 C74 0.929 . S
H138 C75 0.961 . S
H139 C75 0.959 . S
H140 C75 0.959 . S
H141 C76 0.960 . S
H142 C76 0.962 . S
H143 C76 0.961 . S
H144 C78 0.929 . S
H145 C81 0.930 . S
H146 C82 0.929 . S
H147 C85 0.930 . S
H148 C88 0.929 . S
H149 C89 0.930 . S
H150 C93 0.962 . S
H151 C93 0.959 . S
H152 C93 0.958 . S
C153 C154 1.560 1_565 S
C153 H214 0.959 . S
C153 H215 0.959 . S
C153 H216 0.960 . S
C154 C153 1.560 1_545 S
C154 O209 1.426 1_545 S
C154 H213 0.980 . S
C155 C156 1.407 1_565 S
C155 C160 1.418 . S
C155 O209 1.334 . S
C156 C155 1.407 1_545 S
C156 C157 1.360 . S
C156 H217 0.929 . S
C157 C156 1.360 . S
C157 C158 1.401 . S
C157 C161 1.527 . S
C158 C157 1.401 . S
C158 C159 1.405 1_545 S
C158 C191 1.587 . S
C159 C158 1.405 1_565 S
C159 C160 1.332 . S
C159 C162 1.496 . S
C160 C155 1.418 . S
C160 C159 1.332 . S
C160 H218 0.929 . S
C161 C157 1.527 . S
C161 H219 0.959 . S
C161 H220 0.961 . S
C161 H221 0.961 . S
C162 C159 1.496 . S
C162 H222 0.960 . S
C162 H223 0.960 . S
C162 H224 0.961 . S
C163 C164 1.517 1_455 S
C163 H226 0.961 . S
C163 H227 0.960 . S
C163 H228 0.959 . S
C164 C163 1.517 1_655 S
C164 O212 1.468 . S
C164 H225 0.980 . S
C165 C166 1.349 . S
C165 C170 1.367 . S
C165 O212 1.408 . S
C166 C165 1.349 . S
C166 C167 1.407 . S
C166 H229 0.930 . S
C167 C166 1.407 . S
C167 C168 1.449 . S
C167 C171 1.535 1_545 S
C168 C167 1.449 . S
C168 C169 1.384 . S
C168 C193 1.553 . S
C169 C168 1.384 . S
C169 C170 1.364 . S
C169 C172 1.450 . S
C170 C165 1.367 . S
C170 C169 1.364 . S
C170 H230 0.931 . S
C171 C167 1.535 1_565 S
C171 H231 0.959 . S
C171 H232 0.961 . S
C171 H233 0.959 . S
C172 C169 1.450 . S
C172 H234 0.960 . S
C172 H235 0.960 . S
C172 H236 0.960 . S
C173 C174 1.309 . S
C173 C178 1.304 . S
C173 O211 1.435 . S
C174 C173 1.309 . S
C174 C175 1.476 . S
C174 H238 0.930 . S
C175 C174 1.476 . S
C175 C176 1.400 . S
C175 C179 1.567 1_545 S
C176 C175 1.400 . S
C176 C177 1.373 . S
C176 C198 1.432 . S
C177 C176 1.373 . S
C177 C178 1.339 . S
C177 C180 1.530 . S
C178 C173 1.304 . S
C178 C177 1.339 . S
C178 H239 0.930 . S
C179 C175 1.567 1_565 S
C179 H240 0.961 . S
C179 H241 0.960 . S
C179 H242 0.958 . S
C180 C177 1.530 . S
C180 H243 0.961 . S
C180 H244 0.960 . S
C180 H245 0.960 . S
C181 C182 1.530 . S
C181 H247 0.961 . S
C181 H248 0.961 1_545 S
C181 H249 0.959 1_545 S
C182 C181 1.530 . S
C182 O210 1.412 . S
C182 H246 0.980 . S
C183 C184 1.288 1_545 S
C183 C188 1.377 . S
C183 O210 1.393 . S
C184 C183 1.288 1_565 S
C184 C185 1.369 . S
C184 H250 0.932 . S
C185 C184 1.369 . S
C185 C186 1.398 1_565 S
C185 C189 1.527 . S
C186 C185 1.398 1_545 S
C186 C187 1.380 . S
C186 C200 1.497 . S
C187 C186 1.380 . S
C187 C188 1.383 . S
C187 C190 1.603 . S
C188 C183 1.377 . S
C188 C187 1.383 . S
C188 H251 0.929 . S
C189 C185 1.527 . S
C189 H252 0.961 . S
C189 H253 0.959 . S
C189 H254 0.959 . S
C190 C187 1.603 . S
C190 H255 0.960 . S
C190 H256 0.962 . S
C190 H257 0.961 . S
C191 C158 1.587 . S
C191 C192 1.360 . S
C191 C204 1.412 . S
C192 C191 1.360 . S
C192 C193 1.365 . S
C192 H258 0.929 . S
C193 C168 1.553 . S
C193 C192 1.365 . S
C193 C194 1.404 . S
C194 C193 1.404 . S
C194 C195 1.395 . S
C194 C205 1.451 . S
C195 C194 1.395 . S
C195 C196 1.322 . S
C195 H259 0.930 . S
C196 C195 1.322 . S
C196 C197 1.459 . S
C196 H260 0.929 . S
C197 C196 1.459 . S
C197 C198 1.445 . S
C197 C206 1.395 . S
C198 C176 1.432 . S
C198 C197 1.445 . S
C198 C199 1.370 . S
C199 C198 1.370 . S
C199 C200 1.438 . S
C199 H261 0.930 . S
C200 C186 1.497 . S
C200 C199 1.438 . S
C200 C201 1.360 . S
C201 C200 1.360 . S
C201 C202 1.401 . S
C201 C206 1.446 . S
C202 C201 1.401 . S
C202 C203 1.347 . S
C202 H262 0.929 . S
C203 C202 1.347 . S
C203 C204 1.455 . S
C203 H263 0.930 . S
C204 C191 1.412 . S
C204 C203 1.455 . S
C204 C205 1.331 . S
C205 C194 1.451 . S
C205 C204 1.331 . S
C205 C206 1.497 . S
C206 C197 1.395 . S
C206 C201 1.446 . S
C206 C205 1.497 . S
C207 C208 1.582 1_455 S
C207 H264 0.962 . S
C207 H265 0.959 . S
C207 H266 0.958 . S
C208 C207 1.582 1_655 S
C208 O211 1.458 . S
C208 H237 0.980 . S
O209 C154 1.426 1_565 S
O209 C155 1.334 . S
O210 C182 1.412 . S
O210 C183 1.393 . S
O211 C173 1.435 . S
O211 C208 1.458 . S
O212 C164 1.468 . S
O212 C165 1.408 . S
H213 C154 0.980 . S
H214 C153 0.959 . S
H215 C153 0.959 . S
H216 C153 0.960 . S
H217 C156 0.929 . S
H218 C160 0.929 . S
H219 C161 0.959 . S
H220 C161 0.961 . S
H221 C161 0.961 . S
H222 C162 0.960 . S
H223 C162 0.960 . S
H224 C162 0.961 . S
H225 C164 0.980 . S
H226 C163 0.961 . S
H227 C163 0.960 . S
H228 C163 0.959 . S
H229 C166 0.930 . S
H230 C170 0.931 . S
H231 C171 0.959 . S
H232 C171 0.961 . S
H233 C171 0.959 . S
H234 C172 0.960 . S
H235 C172 0.960 . S
H236 C172 0.960 . S
H237 C208 0.980 . S
H238 C174 0.930 . S
H239 C178 0.930 . S
H240 C179 0.961 . S
H241 C179 0.960 . S
H242 C179 0.958 . S
H243 C180 0.961 . S
H244 C180 0.960 . S
H245 C180 0.960 . S
H246 C182 0.980 . S
H247 C181 0.961 . S
H248 C181 0.961 1_565 S
H249 C181 0.959 1_565 S
H250 C184 0.932 . S
H251 C188 0.929 . S
H252 C189 0.961 . S
H253 C189 0.959 . S
H254 C189 0.959 . S
H255 C190 0.960 . S
H256 C190 0.962 . S
H257 C190 0.961 . S
H258 C192 0.929 . S
H259 C195 0.930 . S
H260 C196 0.929 . S
H261 C199 0.930 . S
H262 C202 0.929 . S
H263 C203 0.930 . S
H264 C207 0.962 . S
H265 C207 0.959 . S
H266 C207 0.958 . S
C267 C268 1.560 . S
C267 H328 0.959 . S
C267 H329 0.959 . S
C267 H330 0.960 . S
C268 C267 1.560 . S
C268 O323 1.426 . S
C268 H327 0.980 . S
C269 C270 1.407 . S
C269 C274 1.418 . S
C269 O323 1.334 . S
C270 C269 1.407 . S
C270 C271 1.360 . S
C270 H331 0.929 . S
C271 C270 1.360 . S
C271 C272 1.401 . S
C271 C275 1.527 . S
C272 C271 1.401 . S
C272 C273 1.405 . S
C272 C305 1.587 . S
C273 C272 1.405 . S
C273 C274 1.332 . S
C273 C276 1.496 . S
C274 C269 1.418 . S
C274 C273 1.332 . S
C274 H332 0.929 . S
C275 C271 1.527 . S
C275 H333 0.959 . S
C275 H334 0.961 . S
C275 H335 0.961 . S
C276 C273 1.496 . S
C276 H336 0.960 . S
C276 H337 0.960 . S
C276 H338 0.961 . S
C277 C278 1.517 . S
C277 H340 0.961 . S
C277 H341 0.960 . S
C277 H342 0.959 . S
C278 C277 1.517 . S
C278 O326 1.468 . S
C278 H339 0.980 . S
C279 C280 1.349 . S
C279 C284 1.367 . S
C279 O326 1.408 . S
C280 C279 1.349 . S
C280 C281 1.407 . S
C280 H343 0.930 . S
C281 C280 1.407 . S
C281 C282 1.449 . S
C281 C285 1.535 . S
C282 C281 1.449 . S
C282 C283 1.384 . S
C282 C307 1.553 . S
C283 C282 1.384 . S
C283 C284 1.364 . S
C283 C286 1.450 . S
C284 C279 1.367 . S
C284 C283 1.364 . S
C284 H344 0.931 . S
C285 C281 1.535 . S
C285 H345 0.959 . S
C285 H346 0.961 . S
C285 H347 0.959 . S
C286 C283 1.450 . S
C286 H348 0.960 . S
C286 H349 0.960 . S
C286 H350 0.960 . S
C287 C288 1.309 1_554 S
C287 C292 1.304 . S
C287 O325 1.435 . S
C288 C287 1.309 1_556 S
C288 C289 1.476 . S
C288 H352 0.924 1_556 S
C289 C288 1.476 . S
C289 C290 1.400 . S
C289 C293 1.567 . S
C290 C289 1.400 . S
C290 C291 1.373 . S
C290 C312 1.432 . S
C291 C290 1.373 . S
C291 C292 1.339 1_556 S
C291 C294 1.530 . S
C292 C287 1.304 . S
C292 C291 1.339 1_554 S
C292 H353 0.930 . S
C293 C289 1.567 . S
C293 H354 0.961 . S
C293 H355 0.960 . S
C293 H356 0.958 . S
C294 C291 1.530 . S
C294 H357 0.961 . S
C294 H358 0.960 . S
C294 H359 0.960 . S
C295 C296 1.530 . S
C295 H361 0.961 1_665 S
C295 H362 0.961 1_655 S
C295 H363 0.959 . S
C296 C295 1.530 . S
C296 O324 1.412 . S
C296 H360 0.980 . S
C297 C298 1.288 . S
C297 C302 1.377 . S
C297 O324 1.393 . S
C298 C297 1.288 . S
C298 C299 1.369 1_554 S
C298 H364 0.932 . S
C299 C298 1.369 1_556 S
C299 C300 1.398 . S
C299 C303 1.527 . S
C300 C299 1.398 . S
C300 C301 1.380 . S
C300 C314 1.497 . S
C301 C300 1.380 . S
C301 C302 1.383 1_556 S
C301 C304 1.603 . S
C302 C297 1.377 . S
C302 C301 1.383 1_554 S
C302 H365 0.929 . S
C303 C299 1.527 . S
C303 H366 0.961 . S
C303 H367 0.959 . S
C303 H368 0.959 . S
C304 C301 1.603 . S
C304 H369 0.949 1_556 S
C304 H370 0.962 . S
C304 H371 0.961 . S
C305 C272 1.587 . S
C305 C306 1.360 . S
C305 C318 1.412 . S
C306 C305 1.360 . S
C306 C307 1.365 . S
C306 H372 0.929 . S
C307 C282 1.553 . S
C307 C306 1.365 . S
C307 C308 1.404 . S
C308 C307 1.404 . S
C308 C309 1.395 . S
C308 C319 1.451 . S
C309 C308 1.395 . S
C309 C310 1.322 . S
C309 H373 0.930 . S
C310 C309 1.322 . S
C310 C311 1.459 . S
C310 H374 0.929 . S
C311 C310 1.459 . S
C311 C312 1.445 . S
C311 C320 1.395 . S
C312 C290 1.432 . S
C312 C311 1.445 . S
C312 C313 1.370 . S
C313 C312 1.370 . S
C313 C314 1.438 . S
C313 H375 0.930 . S
C314 C300 1.497 . S
C314 C313 1.438 . S
C314 C315 1.360 . S
C315 C314 1.360 . S
C315 C316 1.401 . S
C315 C320 1.446 . S
C316 C315 1.401 . S
C316 C317 1.347 . S
C316 H376 0.929 . S
C317 C316 1.347 . S
C317 C318 1.455 . S
C317 H377 0.930 . S
C318 C305 1.412 . S
C318 C317 1.455 . S
C318 C319 1.331 . S
C319 C308 1.451 . S
C319 C318 1.331 . S
C319 C320 1.497 . S
C320 C311 1.395 . S
C320 C315 1.446 . S
C320 C319 1.497 . S
C321 C322 1.582 . S
C321 H378 0.962 . S
C321 H379 0.959 . S
C321 H380 0.958 . S
C322 C321 1.582 . S
C322 O325 1.458 . S
C322 H351 0.980 . S
O323 C268 1.426 . S
O323 C269 1.334 . S
O324 C296 1.412 . S
O324 C297 1.393 . S
O325 C287 1.435 . S
O325 C322 1.458 . S
O326 C278 1.468 . S
O326 C279 1.408 . S
H327 C268 0.980 . S
H328 C267 0.959 . S
H329 C267 0.959 . S
H330 C267 0.960 . S
H331 C270 0.929 . S
H332 C274 0.929 . S
H333 C275 0.959 . S
H334 C275 0.961 . S
H335 C275 0.961 . S
H336 C276 0.960 . S
H337 C276 0.960 . S
H338 C276 0.961 . S
H339 C278 0.980 . S
H340 C277 0.961 . S
H341 C277 0.960 . S
H342 C277 0.959 . S
H343 C280 0.930 . S
H344 C284 0.931 . S
H345 C285 0.959 . S
H346 C285 0.961 . S
H347 C285 0.959 . S
H348 C286 0.960 . S
H349 C286 0.960 . S
H350 C286 0.960 . S
H351 C322 0.980 . S
H352 C288 0.924 1_554 S
H353 C292 0.930 . S
H354 C293 0.961 . S
H355 C293 0.960 . S
H356 C293 0.958 . S
H357 C294 0.961 . S
H358 C294 0.960 . S
H359 C294 0.960 . S
H360 C296 0.980 . S
H361 C295 0.961 1_445 S
H362 C295 0.961 1_455 S
H363 C295 0.959 . S
H364 C298 0.932 . S
H365 C302 0.929 . S
H366 C303 0.961 . S
H367 C303 0.959 . S
H368 C303 0.959 . S
H369 C304 0.949 1_554 S
H370 C304 0.962 . S
H371 C304 0.961 . S
H372 C306 0.929 . S
H373 C309 0.930 . S
H374 C310 0.929 . S
H375 C313 0.930 . S
H376 C316 0.929 . S
H377 C317 0.930 . S
H378 C321 0.962 . S
H379 C321 0.959 . S
H380 C321 0.958 . S
C94 C10 1.182 . S
C21 C208 1.100 . S
C31 C268 1.025 . S
C0 C68 1.279 . S
C182 C18 0.938 . S
C34 C278 1.076 . S
C164 C36 0.438 . S
C8 C296 0.846 . S
C40 C23 1.180 . S
C154 C26 1.318 . S
C322 C5 1.427 . S
C13 C50 0.588 . S
