# Generated by pormake.
# Topology tsx, (6,3)-cn, num edge types: 1
# Building blocks:
#     Node 0, Type 0, BuildingBlock: CIFDUS_clean_sbu_1, # of connection points: 6
#     Node 1, Type 0, BuildingBlock: CIFDUS_clean_sbu_1, # of connection points: 6
#     Node 2, Type 1, BuildingBlock: QEWDON_clean_linker_0, # of connection points: 3
#     Node 3, Type 1, BuildingBlock: QEWDON_clean_linker_0, # of connection points: 3
#     Node 4, Type 1, BuildingBlock: QEWDON_clean_linker_0, # of connection points: 3
#     Node 5, Type 1, BuildingBlock: QEWDON_clean_linker_0, # of connection points: 3
#     Edge 6, Type (0, 1), BuildingBlock: EZIPEK_clean_linker_0, # of connection points: 2
#     Edge 7, Type (0, 1), BuildingBlock: EZIPEK_clean_linker_0, # of connection points: 2
#     Edge 8, Type (0, 1), BuildingBlock: EZIPEK_clean_linker_0, # of connection points: 2
#     Edge 9, Type (0, 1), BuildingBlock: EZIPEK_clean_linker_0, # of connection points: 2
#     Edge 10, Type (0, 1), BuildingBlock: EZIPEK_clean_linker_0, # of connection points: 2
#     Edge 11, Type (0, 1), BuildingBlock: EZIPEK_clean_linker_0, # of connection points: 2
#     Edge 12, Type (0, 1), BuildingBlock: EZIPEK_clean_linker_0, # of connection points: 2
#     Edge 13, Type (0, 1), BuildingBlock: EZIPEK_clean_linker_0, # of connection points: 2
#     Edge 14, Type (0, 1), BuildingBlock: EZIPEK_clean_linker_0, # of connection points: 2
#     Edge 15, Type (0, 1), BuildingBlock: EZIPEK_clean_linker_0, # of connection points: 2
#     Edge 16, Type (0, 1), BuildingBlock: EZIPEK_clean_linker_0, # of connection points: 2
#     Edge 17, Type (0, 1), BuildingBlock: EZIPEK_clean_linker_0, # of connection points: 2
# Relax obj value: 0.106
# Max RMSD: 0.195
# Mean RMSD: 0.143
data_MOF--net-tsx--node1-CIFDUS_clean_sbu_1--node2-QEWDON_clean_linker_0--edge1-EZIPEK_clean_linker_0
_symmetry_space_group_name_H-M    P1
_symmetry_Int_Tables_number       1
_symmetry_cell_setting            triclinic
loop_
_symmetry_equiv_pos_as_xyz
'x, y, z'
_cell_length_a     13.297828
_cell_length_b     18.119265
_cell_length_c     22.172008
_cell_angle_alpha  96.155603
_cell_angle_beta   109.39649
_cell_angle_gamma 89.531103
loop_
_atom_site_label
_atom_site_type_symbol
_atom_site_fract_x
_atom_site_fract_y
_atom_site_fract_z
_atom_type_partial_charge
O0 O 1.04659 0.09337 1.04209 0.0
Mn1 Mn 0.12515 0.99119 1.04765 0.0
O2 O 0.87569 0.07298 1.00671 0.0
Mn3 Mn 0.92034 0.98954 0.96965 0.0
O4 O 0.23526 0.89785 0.0693 0.0
O5 O 0.24872 0.06329 0.0731 0.0
Mn6 Mn 0.35978 0.03201 0.1283 0.0
O7 O 0.13381 -0.00078 0.1459 0.0
O8 O 0.38771 0.95406 0.07814 0.0
O9 O 0.12698 0.98862 0.95089 0.0
O10 O 0.95678 0.00096 0.89837 0.0
O11 O 0.39942 0.12535 0.11847 0.0
O12 O 0.31129 0.01244 0.19527 0.0
C13 C 0.88378 0.88885 0.98422 0.0
C14 C 0.95294 0.11731 1.03286 0.0
C15 C 0.33875 0.8962 0.08033 0.0
C16 C 0.30374 0.1228 0.07742 0.0
C17 C 0.21722 0.00601 0.19758 0.0
C18 C 1.05132 0.99821 0.89826 0.0
O19 O 0.98359 0.91565 1.0183 0.0
O20 O 0.81576 0.92655 0.94386 0.0
O21 O 0.63112 0.61066 0.55558 0.0
Mn22 Mn 0.7167 0.5105 0.57055 0.0
O23 O 0.46473 0.582 0.53531 0.0
Mn24 Mn 0.51314 0.50031 0.49948 0.0
O25 O 0.83161 0.42068 0.60206 0.0
O26 O 0.8365 0.58522 0.58385 0.0
Mn27 Mn 0.95052 0.56301 0.6441 0.0
O28 O 0.73106 0.53431 0.66814 0.0
O29 O 0.98263 0.4756 0.60621 0.0
O30 O 0.71353 0.49011 0.47281 0.0
O31 O 0.54408 0.50881 0.42557 0.0
O32 O 0.98485 0.65078 0.61985 0.0
O33 O 0.90714 0.55893 0.71618 0.0
C34 C 0.47744 0.40577 0.52439 0.0
C35 C 0.53779 0.63011 0.55404 0.0
C36 C 0.93551 0.4195 0.61428 0.0
C37 C 0.88842 0.64365 0.57987 0.0
C38 C 0.81371 0.54935 0.71912 0.0
C39 C 0.63527 0.49812 0.4213 0.0
O40 O 0.57821 0.43358 0.55515 0.0
O41 O 0.41144 0.43537 0.47689 0.0
H42 H 0.27044 0.11153 0.50346 0.0
C43 C 0.28184 0.05693 0.51793 0.0
C44 C 0.26613 0.99647 0.46969 0.0
C45 C 0.32279 0.04842 0.58448 0.0
H46 H 0.28571 0.87983 0.4522 0.0
C47 C 0.29336 0.92621 0.48889 0.0
C48 C 0.34985 0.91754 0.55362 0.0
C49 C 0.36163 0.97823 0.60168 0.0
C50 C 0.34984 0.11704 0.63266 0.0
H51 H 0.4074 0.97217 0.65132 0.0
C52 C 0.27859 0.14872 0.6639 0.0
C53 C 0.28499 0.22613 0.68692 0.0
C54 C 0.44075 0.15867 0.63759 0.0
H55 H 0.49721 0.13637 0.61514 0.0
C56 C 0.45689 0.23082 0.66811 0.0
H57 H 0.21382 0.11475 0.66443 0.0
C58 C 0.37882 0.2649 0.68984 0.0
H59 H 0.39122 0.32352 0.70534 0.0
H60 H 0.52667 0.26283 0.67031 0.0
H61 H 1.04683 0.11165 0.6147 0.0
C62 C 1.0298 0.05641 0.59294 0.0
C63 C 1.0363 0.99773 0.63111 0.0
C64 C 0.99447 0.04585 0.52521 0.0
H65 H 1.00754 0.88206 0.629 0.0
C66 C 1.0043 0.92721 0.59994 0.0
C67 C 0.94827 0.91664 0.5336 0.0
C68 C 0.94542 0.97554 0.49561 0.0
C69 C 1.00646 0.10977 0.48801 0.0
H70 H 0.90445 0.9666 0.44425 0.0
C71 C 1.09328 0.16252 0.51361 0.0
C72 C 0.11552 0.21683 0.47792 0.0
C73 C 0.93477 0.11818 0.42644 0.0
H74 H 0.86592 0.08108 0.40464 0.0
C75 C 0.94999 0.17586 0.39247 0.0
H76 H 0.14834 0.15848 0.55987 0.0
C77 C 1.03938 0.22448 0.41766 0.0
H78 H 1.05134 0.26623 0.38901 0.0
H79 H 0.89319 0.18184 0.34537 0.0
H80 H 0.82358 0.64385 1.03282 0.0
C81 C 0.8327 0.58529 1.03774 0.0
C82 C 0.82799 0.53515 0.98281 0.0
C83 C 0.83885 0.55826 0.09709 0.0
H84 H 0.83346 0.42123 0.94701 0.0
C85 C 0.83777 0.45968 0.98895 0.0
C86 C 0.86144 0.43257 1.04823 0.0
C87 C 0.85968 0.48134 0.10192 0.0
C88 C 0.81027 0.60544 0.15054 0.0
H89 H 0.87114 0.4578 0.14632 0.0
C90 C 0.73447 0.6629 0.13749 0.0
C91 C 0.67646 0.68592 0.17953 0.0
C92 C 0.84312 0.58446 0.21351 0.0
H93 H 0.90505 0.54468 0.22859 0.0
C94 C 0.79426 0.6126 0.25789 0.0
H95 H 0.7139 0.68518 0.09286 0.0
C96 C 0.70952 0.66091 0.24053 0.0
H97 H 0.66994 0.67912 0.27482 0.0
H98 H 0.8194 0.59421 0.30536 0.0
H99 H 0.61443 0.55252 0.12203 0.0
C100 C 0.56379 0.50523 0.10191 0.0
C101 C 0.55892 0.45203 0.14353 0.0
C102 C 0.49222 0.50268 1.03749 0.0
H103 H 0.48799 0.34789 0.1471 0.0
C104 C 0.49348 0.38927 0.1163 0.0
C105 C 0.42372 0.38413 1.05235 0.0
C106 C 0.42226 0.44074 1.01376 0.0
C107 C 0.47858 0.56795 0.99793 0.0
H108 H 0.36422 0.43698 0.96572 0.0
C109 C 0.566 0.61093 0.99722 0.0
C110 C 0.55373 0.67595 0.96494 0.0
C111 C 0.37614 0.58869 0.96099 0.0
H112 H 0.30563 0.55845 0.95998 0.0
C113 C 0.36245 0.65055 0.9265 0.0
H114 H 0.64259 0.59175 1.02123 0.0
C115 C 0.45015 0.69432 0.92897 0.0
H116 H 0.43719 0.74312 0.90338 0.0
H117 H 0.28284 0.66577 0.89895 0.0
C118 C 0.3 0.19447 0.99049 0.0
C119 C 0.26504 0.18672 1.04305 0.0
C120 C 0.27523 0.32012 0.06997 0.0
C121 C 0.34058 0.3245 1.03139 0.0
N122 N 0.40513 0.26924 0.94775 0.0
N123 N 0.20333 0.24017 0.12763 0.0
C124 C 0.34659 0.26337 0.98739 0.0
C125 C 0.24419 0.24947 0.07989 0.0
N126 N 0.29636 0.13409 0.9474 0.0
N127 N 0.24845 0.38383 0.09898 0.0
H128 H 0.17916 0.18791 0.13441 0.0
H129 H 0.19589 0.283 0.16096 0.0
H130 H 0.26323 0.43545 0.08633 0.0
H131 H 0.2008 0.38546 0.12801 0.0
H132 H 0.31364 0.13638 0.90513 0.0
H133 H 0.26749 0.08257 0.95233 0.0
H134 H 0.42205 0.22429 0.91966 0.0
H135 H 0.44029 0.31916 0.94455 0.0
C136 C 0.39516 0.76172 0.0984 0.0
C137 C 0.41376 0.83893 0.11591 0.0
C138 C 0.60175 0.81439 0.18135 0.0
C139 C 0.5837 0.73811 0.16139 0.0
N140 N 0.44945 0.64142 0.13142 0.0
N141 N 0.52788 0.93206 0.19812 0.0
C142 C 0.47633 0.71211 0.12816 0.0
C143 C 0.51473 0.8632 0.16474 0.0
N144 N 0.30135 0.73519 1.05343 0.0
N145 N 0.70303 0.84136 0.21488 0.0
H146 H 0.46952 0.9706 0.19061 0.0
H147 H 0.59299 0.94809 0.23915 0.0
H148 H 0.76847 0.80748 0.22994 0.0
H149 H 0.72409 0.89773 0.2229 0.0
H150 H 0.286 0.6792 1.03652 0.0
H151 H 0.24066 0.7694 1.03031 0.0
H152 H 0.372 0.61904 0.11216 0.0
H153 H 0.50352 0.61144 0.16394 0.0
C154 C 0.78368 0.82029 1.03618 0.0
C155 C 0.83468 0.81697 0.98962 0.0
C156 C 0.69648 0.72229 0.92205 0.0
C157 C 0.64758 0.72663 0.9702 0.0
N158 N 0.61128 0.81464 1.04836 0.0
N159 N 0.82751 0.77459 0.88188 0.0
C160 C 0.68159 0.78543 1.02051 0.0
C161 C 0.78845 0.76924 0.93099 0.0
N162 N 0.82841 0.86222 0.09374 0.0
N163 N 0.65 0.67769 0.86597 0.0
H164 H 0.89797 0.80448 0.88864 0.0
H165 H 0.78873 0.75306 0.83443 0.0
H166 H 0.58058 0.64597 0.85745 0.0
H167 H 0.67928 0.67126 0.82781 0.0
H168 H 0.79612 0.86393 0.13066 0.0
H169 H 0.90205 0.88982 0.10563 0.0
H170 H 0.62654 0.86568 0.07681 0.0
H171 H 0.53329 0.7939 1.03491 0.0
C172 C 0.97917 0.24826 1.01081 0.0
C173 C 0.93413 0.19853 1.04091 0.0
C174 C 0.83155 0.30095 0.07075 0.0
C175 C 0.89108 0.35256 1.05126 0.0
N176 N 1.03242 0.37509 1.00897 0.0
N177 N 0.82851 0.18086 0.10858 0.0
C178 C 0.96888 0.32588 1.02362 0.0
C179 C 0.86393 0.22596 0.07387 0.0
N180 N 1.02829 0.22165 0.96803 0.0
N181 N 0.73867 0.32133 0.08051 0.0
H182 H 0.85164 0.12597 0.11288 0.0
H183 H 0.7846 0.2004 0.13787 0.0
H184 H 0.70758 0.37394 0.07333 0.0
H185 H 0.68705 0.28369 0.08873 0.0
H186 H 1.04937 0.25448 0.93809 0.0
H187 H 1.04135 0.16565 0.95856 0.0
H188 H 1.08777 0.35974 0.98641 0.0
H189 H 1.03694 0.43173 1.02465 0.0
C190 C 0.80415 0.76621 0.56821 0.0
C191 C 0.84477 0.70436 0.5401 0.0
C192 C 0.90981 0.78534 0.47836 0.0
C193 C 0.87877 0.84764 0.51159 0.0
N194 N 0.76262 0.89702 0.56764 0.0
N195 N 0.90189 0.65065 0.45387 0.0
C196 C 0.81013 0.8369 0.54734 0.0
C197 C 0.88391 0.71268 0.48904 0.0
N198 N 0.76963 0.75852 0.61885 0.0
N199 N 0.97118 0.79569 0.44131 0.0
H200 H 0.88341 0.59757 0.46222 0.0
H201 H 0.92595 0.65211 0.41387 0.0
H202 H 0.98858 0.84843 0.43221 0.0
H203 H 1.0069 0.75278 0.42144 0.0
H204 H 0.74995 0.80286 0.64634 0.0
H205 H 0.76527 0.70721 0.63528 0.0
H206 H 0.71327 0.89458 0.5953 0.0
H207 H 0.76655 0.94868 0.55155 0.0
C208 C 0.9978 0.28762 0.64712 0.0
C209 C 1.01338 0.36594 0.65487 0.0
C210 C 0.20197 0.34575 0.72291 0.0
C211 C 0.19047 0.27081 0.69643 0.0
N212 N 1.06626 0.18757 0.71008 0.0
N213 N 0.13061 0.46823 0.72199 0.0
C214 C 1.08487 0.24274 0.67826 0.0
C215 C 0.11525 0.39457 0.70043 0.0
N216 N 0.90164 0.25486 0.6118 0.0
N217 N 0.28868 0.36698 0.77579 0.0
H218 H 1.06809 0.50378 0.71787 0.0
H219 H 0.20567 0.49373 0.74435 0.0
H220 H 0.34479 0.32857 0.79709 0.0
H221 H 0.29846 0.41878 0.80269 0.0
H222 H 0.89095 0.19713 0.60461 0.0
H223 H 0.83555 0.28504 0.58886 0.0
H224 H 0.98939 0.17692 0.71005 0.0
H225 H 0.12883 0.16056 0.74123 0.0
C226 C 0.40509 0.27843 0.49763 0.0
C227 C 0.42345 0.343 0.54154 0.0
C228 C 0.2421 0.32397 0.54787 0.0
C229 C 0.22224 0.26074 0.50115 0.0
N230 N 0.27509 0.19821 0.41581 0.0
N231 N 0.36672 0.42151 0.61694 0.0
C232 C 0.30159 0.24305 0.47225 0.0
C233 C 0.34408 0.36315 0.56974 0.0
N234 N 0.48689 0.25277 0.47779 0.0
N235 N 0.15926 0.35206 0.56528 0.0
H236 H 0.44059 0.44986 0.63271 0.0
H237 H 0.31772 0.43723 0.64395 0.0
H238 H 1.0839 0.32606 0.54891 0.0
H239 H 0.16204 0.40464 0.58978 0.0
H240 H 0.48181 0.2032 0.44836 0.0
H241 H 0.56252 0.27873 0.4959 0.0
H242 H 0.31998 0.19955 0.38557 0.0
H243 H 0.2037 0.16748 0.39592 0.0
C244 C 0.52422 0.76148 0.5245 0.0
C245 C 0.50945 0.70903 0.56414 0.0
C246 C 0.39654 0.79638 0.60365 0.0
C247 C 0.41538 0.84977 0.5661 0.0
N248 N 0.52039 0.8905 0.50506 0.0
N249 N 0.4543 0.6833 0.65317 0.0
C250 C 0.48741 0.83451 0.53143 0.0
C251 C 0.45308 0.72889 0.60768 0.0
N252 N 0.56914 0.74105 0.4783 0.0
N253 N 0.32018 0.80783 0.63207 0.0
H254 H 0.49633 0.63413 0.65796 0.0
H255 H 0.42281 0.6978 0.68987 0.0
H256 H 0.27594 0.85586 0.62894 0.0
H257 H 0.29475 0.7673 0.65418 0.0
H258 H 0.56822 0.77352 0.44213 0.0
H259 H 0.60295 0.68978 0.47385 0.0
H260 H 0.57256 0.88382 0.47894 0.0
H261 H 0.50433 0.94586 0.51548 0.0
C262 C 0.29792 0.05274 0.31497 0.0
C263 C 0.21268 0.01201 0.2656 0.0
C264 C 0.14778 0.97711 0.35137 0.0
C265 C 0.2431 0.00686 0.39963 0.0
N266 N 0.4214 0.05729 0.42339 0.0
N267 N 1.06548 0.92341 0.24069 0.0
C268 C 0.32229 0.03923 0.38013 0.0
C269 C 0.13895 0.9714 0.28463 0.0
N270 N 0.35389 0.10685 0.29992 0.0
N271 N 1.0657 0.95406 0.36932 0.0
H272 H 1.06077 0.91363 0.19278 0.0
H273 H 1.01666 0.8876 0.25325 0.0
H274 H 1.07095 0.9576 0.41747 0.0
H275 H 0.99044 0.9384 0.33664 0.0
H276 H 0.41879 0.13682 0.33331 0.0
H277 H 0.32692 0.12844 0.25568 0.0
H278 H 0.4856 0.07121 0.40932 0.0
H279 H 0.44187 0.05318 0.47244 0.0
C280 C 0.98697 0.04907 0.79046 0.0
C281 C 1.06639 0.00892 0.83441 0.0
C282 C 0.14524 0.98181 0.74781 0.0
C283 C 1.05362 0.0091 0.7023 0.0
N284 N 0.87404 0.05232 0.68049 0.0
N285 N 0.21803 0.92896 0.84911 0.0
C286 C 0.97027 0.03697 0.72364 0.0
C287 C 0.14587 0.97365 0.81188 0.0
N288 N 0.92946 0.10178 0.81226 0.0
N289 N 0.23155 0.96352 0.72971 0.0
H290 H 0.22129 0.91966 0.89513 0.0
H291 H 0.26945 0.89593 0.83205 0.0
H292 H 0.23252 0.96942 0.68363 0.0
H293 H 0.30452 0.94971 0.76175 0.0
H294 H 0.87735 0.13613 0.78213 0.0
H295 H 0.94374 0.118 0.8608 0.0
H296 H 0.8076 0.06522 0.69425 0.0
H297 H 0.85841 0.04752 0.63097 0.0
C298 C 0.73052 0.51111 0.80096 0.0
C299 C 0.80481 0.55568 0.7858 0.0
C300 C 0.89151 0.59443 0.90234 0.0
C301 C 0.81094 0.55588 0.91627 0.0
N302 N 0.63772 0.49407 0.87595 0.0
N303 N 0.93682 0.65697 0.82341 0.0
C304 C 0.72475 0.52036 0.86435 0.0
C305 C 0.87958 0.60256 0.83699 0.0
N306 N 0.67187 0.45511 0.75754 0.0
N307 N 0.9813 0.62124 0.95097 0.0
H308 H 0.91914 0.67316 0.77737 0.0
H309 H 0.99071 0.69343 0.85859 0.0
H310 H 0.99261 0.61764 0.99934 0.0
H311 H 1.04822 0.6417 0.94293 0.0
H312 H 0.62408 0.41744 0.76904 0.0
H313 H 0.68074 0.43929 0.71317 0.0
H314 H 0.56814 0.47445 0.83929 0.0
H315 H 0.63132 0.49919 0.92182 0.0
C316 C 0.56281 0.53585 0.31004 0.0
C317 C 0.64201 0.49647 0.3538 0.0
C318 C 0.68828 0.44105 0.25919 0.0
C319 C 0.59432 0.46982 0.21639 0.0
N320 N 0.42245 0.52113 0.20865 0.0
N321 N 0.77895 0.40482 0.36636 0.0
C322 C 0.52576 0.51002 0.24405 0.0
C323 C 0.70575 0.44753 0.3276 0.0
N324 N 0.52252 0.59905 0.33109 0.0
N325 N 0.76034 0.40736 0.23469 0.0
H326 H 0.79587 0.40853 0.41587 0.0
H327 H 0.81851 0.36245 0.34868 0.0
H328 H 0.74813 0.40182 0.18563 0.0
H329 H 0.83495 0.39134 0.26312 0.0
H330 H 0.46873 0.63133 0.2996 0.0
H331 H 0.55361 0.62339 0.37839 0.0
H332 H 0.36784 0.54425 0.22939 0.0
H333 H 0.39086 0.50417 0.15966 0.0
loop_
_geom_bond_atom_site_label_1
_geom_bond_atom_site_label_2
_geom_bond_distance
_geom_bond_site_symmetry_2
_ccdc_geom_bond_type
O0 Mn1 2.163 . S
O0 C14 1.244 1_455 S
Mn1 O0 2.163 . S
Mn1 O4 2.160 1_545 S
Mn1 O5 2.221 1_556 S
Mn1 O7 2.166 1_556 S
Mn1 O9 2.160 . S
Mn1 O19 2.221 1_445 S
O2 Mn3 2.087 1_545 S
O2 C14 1.256 . S
Mn3 O2 2.087 1_565 S
Mn3 O10 2.089 1_565 S
Mn3 O19 2.290 . S
Mn3 O20 2.251 . S
O4 Mn1 2.160 1_565 S
O4 C15 1.239 1_556 S
O5 Mn1 2.221 1_554 S
O5 Mn6 2.290 . S
O5 C16 1.278 . S
Mn6 O5 2.290 . S
Mn6 O8 2.089 1_545 S
Mn6 O11 2.251 . S
Mn6 O12 2.087 . S
O7 Mn1 2.166 1_554 S
O7 C17 1.245 . S
O8 Mn6 2.089 1_565 S
O8 C15 1.256 . S
O9 Mn1 2.160 . S
O9 C18 1.239 . S
O10 Mn3 2.089 1_545 S
O10 C18 1.256 1_655 S
O11 Mn6 2.251 . S
O11 C16 1.241 . S
O12 Mn6 2.087 . S
O12 C17 1.256 . S
C13 O19 1.278 . S
C13 O20 1.241 . S
C14 O0 1.244 1_655 S
C14 O2 1.256 . S
C15 O4 1.239 1_554 S
C15 O8 1.256 . S
C16 O5 1.278 . S
C16 O11 1.241 . S
C17 O7 1.245 . S
C17 O12 1.256 . S
C18 O9 1.239 . S
C18 O10 1.256 1_455 S
O19 Mn1 2.221 1_665 S
O19 Mn3 2.290 . S
O19 C13 1.278 . S
O20 Mn3 2.251 . S
O20 C13 1.241 . S
O21 Mn22 2.163 . S
O21 C35 1.244 . S
Mn22 O21 2.163 . S
Mn22 O25 2.160 . S
Mn22 O26 2.221 . S
Mn22 O28 2.163 . S
Mn22 O30 2.160 . S
Mn22 O40 2.221 . S
O23 Mn24 2.087 . S
O23 C35 1.256 . S
Mn24 O23 2.087 . S
Mn24 O31 2.089 . S
Mn24 O40 2.290 . S
Mn24 O41 2.251 . S
O25 Mn22 2.160 . S
O25 C36 1.239 . S
O26 Mn22 2.221 . S
O26 Mn27 2.290 . S
O26 C37 1.278 . S
Mn27 O26 2.290 . S
Mn27 O29 2.089 . S
Mn27 O32 2.251 . S
Mn27 O33 2.087 . S
O28 Mn22 2.163 . S
O28 C38 1.244 . S
O29 Mn27 2.089 . S
O29 C36 1.256 . S
O30 Mn22 2.160 . S
O30 C39 1.239 . S
O31 Mn24 2.089 . S
O31 C39 1.256 . S
O32 Mn27 2.251 . S
O32 C37 1.241 . S
O33 Mn27 2.087 . S
O33 C38 1.256 . S
C34 O40 1.278 . S
C34 O41 1.241 . S
C35 O21 1.244 . S
C35 O23 1.256 . S
C36 O25 1.239 . S
C36 O29 1.256 . S
C37 O26 1.278 . S
C37 O32 1.241 . S
C38 O28 1.244 . S
C38 O33 1.256 . S
C39 O30 1.239 . S
C39 O31 1.256 . S
O40 Mn22 2.221 . S
O40 Mn24 2.290 . S
O40 C34 1.278 . S
O41 Mn24 2.251 . S
O41 C34 1.241 . S
H42 C43 0.949 . S
C43 H42 0.949 . S
C43 C44 1.395 1_545 S
C43 C45 1.391 . S
C44 C43 1.395 1_565 S
C44 C47 1.390 . S
C45 C43 1.391 . S
C45 C49 1.387 1_545 S
C45 C50 1.491 . S
H46 C47 0.950 . S
C47 C44 1.390 . S
C47 H46 0.950 . S
C47 C48 1.378 . S
C48 C47 1.378 . S
C48 C49 1.409 . S
C49 C45 1.387 1_565 S
C49 C48 1.409 . S
C49 H51 0.951 . S
C50 C45 1.491 . S
C50 C52 1.382 . S
C50 C54 1.404 . S
H51 C49 0.951 . S
C52 C50 1.382 . S
C52 C53 1.390 1_455 S
C52 H57 0.949 1_455 S
C53 C52 1.390 1_655 S
C53 C58 1.399 1_655 S
C54 C50 1.404 . S
C54 H55 0.950 . S
C54 C56 1.375 . S
H55 C54 0.950 . S
C56 C54 1.375 . S
C56 C58 1.382 . S
C56 H60 0.950 . S
H57 C52 0.949 1_655 S
C58 C53 1.399 1_455 S
C58 C56 1.382 . S
C58 H59 0.952 . S
H59 C58 0.952 . S
H60 C56 0.950 . S
H61 C62 0.953 . S
C62 H61 0.953 . S
C62 C63 1.391 1_455 S
C62 C64 1.391 1_455 S
C63 C62 1.391 1_655 S
C63 C66 1.390 1_545 S
C64 C62 1.391 1_655 S
C64 C68 1.392 . S
C64 C69 1.491 1_655 S
H65 C66 0.950 . S
C66 C63 1.390 1_565 S
C66 H65 0.950 . S
C66 C67 1.378 . S
C67 C66 1.378 . S
C67 C68 1.405 1_565 S
C68 C64 1.392 . S
C68 C67 1.405 1_545 S
C68 H70 0.950 1_545 S
C69 C64 1.491 1_455 S
C69 C71 1.382 . S
C69 C73 1.404 1_455 S
H70 C68 0.950 1_565 S
C71 C69 1.382 . S
C71 C72 1.390 . S
C71 H76 0.949 . S
C72 C71 1.390 . S
C72 C77 1.399 . S
C73 C69 1.404 1_655 S
C73 H74 0.950 . S
C73 C75 1.375 . S
H74 C73 0.950 . S
C75 C73 1.375 . S
C75 C77 1.382 1_655 S
C75 H79 0.950 . S
H76 C71 0.949 . S
C77 C72 1.399 . S
C77 C75 1.382 1_455 S
C77 H78 0.952 . S
H78 C77 0.952 . S
H79 C75 0.950 . S
H80 C81 0.949 . S
C81 H80 0.949 . S
C81 C82 1.395 . S
C81 C83 1.391 . S
C82 C81 1.395 . S
C82 C85 1.390 . S
C83 C81 1.391 . S
C83 C87 1.387 . S
C83 C88 1.491 1_556 S
H84 C85 0.950 . S
C85 C82 1.390 . S
C85 H84 0.950 . S
C85 C86 1.378 . S
C86 C85 1.378 . S
C86 C87 1.409 . S
C87 C83 1.387 . S
C87 C86 1.409 . S
C87 H89 0.951 1_556 S
C88 C83 1.491 1_554 S
C88 C90 1.382 1_554 S
C88 C92 1.404 . S
H89 C87 0.951 1_554 S
C90 C88 1.382 1_556 S
C90 C91 1.390 1_556 S
C90 H95 0.949 . S
C91 C90 1.390 1_554 S
C91 C96 1.399 . S
C92 C88 1.404 . S
C92 H93 0.950 . S
C92 C94 1.375 . S
H93 C92 0.950 . S
C94 C92 1.375 . S
C94 C96 1.382 . S
C94 H98 0.950 . S
H95 C90 0.949 . S
C96 C91 1.399 . S
C96 C94 1.382 . S
C96 H97 0.952 . S
H97 C96 0.952 . S
H98 C94 0.950 . S
H99 C100 0.949 . S
C100 H99 0.949 . S
C100 C101 1.395 . S
C100 C102 1.391 . S
C101 C100 1.395 . S
C101 C104 1.390 . S
C102 C100 1.391 . S
C102 C106 1.387 . S
C102 C107 1.477 1_554 S
H103 C104 0.950 . S
C104 C101 1.390 . S
C104 H103 0.950 . S
C104 C105 1.378 . S
C105 C104 1.378 . S
C105 C106 1.409 . S
C106 C102 1.387 . S
C106 C105 1.409 . S
C106 H108 0.951 1_554 S
C107 C102 1.477 1_556 S
C107 C109 1.382 1_556 S
C107 C111 1.417 . S
H108 C106 0.951 1_556 S
C109 C107 1.382 1_554 S
C109 C110 1.390 1_554 S
C109 H114 0.949 . S
C110 C109 1.390 1_556 S
C110 C115 1.399 . S
C111 C107 1.417 . S
C111 H112 0.950 . S
C111 C113 1.375 . S
H112 C111 0.950 . S
C113 C111 1.375 . S
C113 C115 1.382 . S
C113 H117 0.950 . S
H114 C109 0.949 . S
C115 C110 1.399 . S
C115 C113 1.382 . S
C115 H116 0.952 . S
H116 C115 0.952 . S
H117 C113 0.950 . S
C118 C119 1.363 1_556 S
C118 C124 1.379 . S
C118 N126 1.356 . S
C119 C118 1.363 1_554 S
C119 C125 1.363 . S
C120 C121 1.363 . S
C120 C125 1.379 . S
C120 N127 1.356 . S
C121 C120 1.363 . S
C121 C124 1.363 1_554 S
N122 C124 1.356 . S
N122 H134 0.984 . S
N122 H135 0.985 . S
N123 C125 1.356 . S
N123 H128 0.984 . S
N123 H129 0.985 . S
C124 C118 1.379 . S
C124 C121 1.363 1_556 S
C124 N122 1.356 . S
C125 C119 1.363 . S
C125 C120 1.379 . S
C125 N123 1.356 . S
N126 C118 1.356 . S
N126 H132 0.984 . S
N126 H133 0.984 . S
N127 C120 1.356 . S
N127 H130 0.984 . S
N127 H131 0.985 . S
H128 N123 0.984 . S
H129 N123 0.985 . S
H130 N127 0.984 . S
H131 N127 0.985 . S
H132 N126 0.984 . S
H133 N126 0.984 . S
H134 N122 0.984 . S
H135 N122 0.985 . S
C136 C137 1.363 1_556 S
C136 C142 1.379 . S
C136 N144 1.356 . S
C137 C136 1.363 1_554 S
C137 C143 1.363 . S
C138 C139 1.363 . S
C138 C143 1.379 . S
C138 N145 1.356 . S
C139 C138 1.363 . S
C139 C142 1.363 1_554 S
N140 C142 1.356 . S
N140 H152 0.984 . S
N140 H153 0.985 . S
N141 C143 1.356 . S
N141 H146 0.984 . S
N141 H147 0.985 . S
C142 C136 1.379 . S
C142 C139 1.363 1_556 S
C142 N140 1.356 . S
C143 C137 1.363 . S
C143 C138 1.379 . S
C143 N141 1.356 . S
N144 C136 1.356 . S
N144 H150 0.984 . S
N144 H151 0.984 . S
N145 C138 1.356 . S
N145 H148 0.984 . S
N145 H149 0.985 . S
H146 N141 0.984 . S
H147 N141 0.985 . S
H148 N145 0.984 . S
H149 N145 0.985 . S
H150 N144 0.984 . S
H151 N144 0.984 . S
H152 N140 0.984 . S
H153 N140 0.985 . S
C154 C155 1.379 . S
C154 C160 1.379 . S
C154 N162 1.356 . S
C155 C154 1.379 . S
C155 C161 1.352 1_554 S
C156 C157 1.363 . S
C156 C161 1.379 . S
C156 N163 1.356 . S
C157 C156 1.363 . S
C157 C160 1.363 1_556 S
N158 C160 1.356 . S
N158 H170 0.984 . S
N158 H171 0.985 . S
N159 C161 1.356 . S
N159 H164 0.984 . S
N159 H165 0.985 . S
C160 C154 1.379 . S
C160 C157 1.363 1_554 S
C160 N158 1.356 . S
C161 C155 1.352 1_556 S
C161 C156 1.379 . S
C161 N159 1.356 . S
N162 C154 1.356 . S
N162 H168 0.984 . S
N162 H169 0.984 . S
N163 C156 1.356 . S
N163 H166 0.984 . S
N163 H167 0.985 . S
H164 N159 0.984 . S
H165 N159 0.985 . S
H166 N163 0.984 . S
H167 N163 0.985 . S
H168 N162 0.984 . S
H169 N162 0.984 . S
H170 N158 0.984 . S
H171 N158 0.985 . S
C172 C173 1.363 . S
C172 C178 1.379 . S
C172 N180 1.356 . S
C173 C172 1.363 . S
C173 C179 1.363 1_556 S
C174 C175 1.349 1_554 S
C174 C179 1.379 . S
C174 N181 1.367 . S
C175 C174 1.349 1_556 S
C175 C178 1.363 . S
N176 C178 1.356 . S
N176 H188 0.984 . S
N176 H189 0.985 . S
N177 C179 1.356 . S
N177 H182 0.984 . S
N177 H183 0.985 . S
C178 C172 1.379 . S
C178 C175 1.363 . S
C178 N176 1.356 . S
C179 C173 1.363 1_554 S
C179 C174 1.379 . S
C179 N177 1.356 . S
N180 C172 1.356 . S
N180 H186 0.984 . S
N180 H187 0.984 . S
N181 C174 1.367 . S
N181 H184 0.984 . S
N181 H185 0.985 . S
H182 N177 0.984 . S
H183 N177 0.985 . S
H184 N181 0.984 . S
H185 N181 0.985 . S
H186 N180 0.984 . S
H187 N180 0.984 . S
H188 N176 0.984 . S
H189 N176 0.985 . S
C190 C191 1.363 . S
C190 C196 1.379 . S
C190 N198 1.356 . S
C191 C190 1.363 . S
C191 C197 1.363 . S
C192 C193 1.363 . S
C192 C197 1.379 . S
C192 N199 1.356 . S
C193 C192 1.363 . S
C193 C196 1.363 . S
N194 C196 1.356 . S
N194 H206 0.984 . S
N194 H207 0.985 . S
N195 C197 1.356 . S
N195 H200 0.984 . S
N195 H201 0.985 . S
C196 C190 1.379 . S
C196 C193 1.363 . S
C196 N194 1.356 . S
C197 C191 1.363 . S
C197 C192 1.379 . S
C197 N195 1.356 . S
N198 C190 1.356 . S
N198 H204 0.984 . S
N198 H205 0.984 . S
N199 C192 1.356 . S
N199 H202 0.984 . S
N199 H203 0.985 . S
H200 N195 0.984 . S
H201 N195 0.985 . S
H202 N199 0.984 . S
H203 N199 0.985 . S
H204 N198 0.984 . S
H205 N198 0.984 . S
H206 N194 0.984 . S
H207 N194 0.985 . S
C208 C209 1.363 . S
C208 C214 1.379 . S
C208 N216 1.356 . S
C209 C208 1.363 . S
C209 C215 1.363 . S
C210 C211 1.363 . S
C210 C215 1.379 . S
C210 N217 1.356 . S
C211 C210 1.363 . S
C211 C214 1.363 . S
N212 C214 1.356 . S
N212 H224 0.984 . S
N212 H225 0.985 . S
N213 C215 1.356 . S
N213 H218 0.984 . S
N213 H219 0.985 . S
C214 C208 1.379 . S
C214 C211 1.363 . S
C214 N212 1.356 . S
C215 C209 1.363 . S
C215 C210 1.379 . S
C215 N213 1.356 . S
N216 C208 1.356 . S
N216 H222 0.984 . S
N216 H223 0.984 . S
N217 C210 1.356 . S
N217 H220 0.984 1_655 S
N217 H221 0.985 1_655 S
H218 N213 0.984 . S
H219 N213 0.985 . S
H220 N217 0.984 1_455 S
H221 N217 0.985 1_455 S
H222 N216 0.984 . S
H223 N216 0.984 . S
H224 N212 0.984 . S
H225 N212 0.985 . S
C226 C227 1.363 . S
C226 C232 1.379 . S
C226 N234 1.356 . S
C227 C226 1.363 . S
C227 C233 1.363 . S
C228 C229 1.363 . S
C228 C233 1.379 . S
C228 N235 1.356 . S
C229 C228 1.363 . S
C229 C232 1.363 . S
N230 C232 1.356 . S
N230 H242 0.984 . S
N230 H243 0.985 . S
N231 C233 1.356 . S
N231 H236 0.984 . S
N231 H237 0.985 . S
C232 C226 1.379 . S
C232 C229 1.363 . S
C232 N230 1.356 . S
C233 C227 1.363 . S
C233 C228 1.379 . S
C233 N231 1.356 . S
N234 C226 1.356 . S
N234 H240 0.984 . S
N234 H241 0.984 . S
N235 C228 1.356 . S
N235 H238 0.984 . S
N235 H239 0.985 . S
H236 N231 0.984 . S
H237 N231 0.985 . S
H238 N235 0.984 . S
H239 N235 0.985 . S
H240 N234 0.984 . S
H241 N234 0.984 . S
H242 N230 0.984 . S
H243 N230 0.985 . S
C244 C245 1.363 . S
C244 C250 1.379 . S
C244 N252 1.356 . S
C245 C244 1.363 . S
C245 C251 1.363 . S
C246 C247 1.363 . S
C246 C251 1.379 . S
C246 N253 1.356 . S
C247 C246 1.363 . S
C247 C250 1.363 . S
N248 C250 1.356 . S
N248 H260 0.984 . S
N248 H261 0.985 . S
N249 C251 1.356 . S
N249 H254 0.984 . S
N249 H255 0.985 . S
C250 C244 1.379 . S
C250 C247 1.363 . S
C250 N248 1.356 . S
C251 C245 1.363 . S
C251 C246 1.379 . S
C251 N249 1.356 . S
N252 C244 1.356 . S
N252 H258 0.984 . S
N252 H259 0.984 . S
N253 C246 1.356 . S
N253 H256 0.984 . S
N253 H257 0.985 . S
H254 N249 0.984 . S
H255 N249 0.985 . S
H256 N253 0.984 . S
H257 N253 0.985 . S
H258 N252 0.984 . S
H259 N252 0.984 . S
H260 N248 0.984 . S
H261 N248 0.985 . S
C262 C263 1.363 1_545 S
C262 C268 1.379 . S
C262 N270 1.356 . S
C263 C262 1.363 1_565 S
C263 C269 1.363 . S
C264 C265 1.363 . S
C264 C269 1.379 . S
C264 N271 1.356 . S
C265 C264 1.363 . S
C265 C268 1.363 1_565 S
N266 C268 1.356 . S
N266 H278 0.984 . S
N266 H279 0.985 . S
N267 C269 1.356 . S
N267 H272 0.984 . S
N267 H273 0.985 . S
C268 C262 1.379 . S
C268 C265 1.363 1_545 S
C268 N266 1.356 . S
C269 C263 1.363 . S
C269 C264 1.379 . S
C269 N267 1.356 . S
N270 C262 1.356 . S
N270 H276 0.984 . S
N270 H277 0.984 . S
N271 C264 1.356 . S
N271 H274 0.984 . S
N271 H275 0.985 . S
H272 N267 0.984 . S
H273 N267 0.985 . S
H274 N271 0.984 . S
H275 N271 0.985 . S
H276 N270 0.984 . S
H277 N270 0.984 . S
H278 N266 0.984 . S
H279 N266 0.985 . S
C280 C281 1.363 1_655 S
C280 C286 1.379 . S
C280 N288 1.356 . S
C281 C280 1.363 1_455 S
C281 C287 1.363 1_545 S
C282 C283 1.363 1_465 S
C282 C287 1.379 . S
C282 N289 1.356 . S
C283 C282 1.363 1_645 S
C283 C286 1.363 . S
N284 C286 1.356 . S
N284 H296 0.984 . S
N284 H297 0.985 . S
N285 C287 1.356 . S
N285 H290 0.984 . S
N285 H291 0.985 . S
C286 C280 1.379 . S
C286 C283 1.363 . S
C286 N284 1.356 . S
C287 C281 1.363 1_565 S
C287 C282 1.379 . S
C287 N285 1.356 . S
N288 C280 1.356 . S
N288 H294 0.984 . S
N288 H295 0.984 . S
N289 C282 1.356 . S
N289 H292 0.984 . S
N289 H293 0.985 . S
H290 N285 0.984 . S
H291 N285 0.985 . S
H292 N289 0.984 . S
H293 N289 0.985 . S
H294 N288 0.984 . S
H295 N288 0.984 . S
H296 N284 0.984 . S
H297 N284 0.985 . S
C298 C299 1.363 . S
C298 C304 1.379 . S
C298 N306 1.356 . S
C299 C298 1.363 . S
C299 C305 1.363 . S
C300 C301 1.363 . S
C300 C305 1.379 . S
C300 N307 1.356 . S
C301 C300 1.363 . S
C301 C304 1.363 . S
N302 C304 1.356 . S
N302 H314 0.984 . S
N302 H315 0.985 . S
N303 C305 1.356 . S
N303 H308 0.984 . S
N303 H309 0.985 . S
C304 C298 1.379 . S
C304 C301 1.363 . S
C304 N302 1.356 . S
C305 C299 1.363 . S
C305 C300 1.379 . S
C305 N303 1.356 . S
N306 C298 1.356 . S
N306 H312 0.984 . S
N306 H313 0.984 . S
N307 C300 1.356 . S
N307 H310 0.984 . S
N307 H311 0.985 . S
H308 N303 0.984 . S
H309 N303 0.985 . S
H310 N307 0.984 . S
H311 N307 0.985 . S
H312 N306 0.984 . S
H313 N306 0.984 . S
H314 N302 0.984 . S
H315 N302 0.985 . S
C316 C317 1.363 . S
C316 C322 1.379 . S
C316 N324 1.356 . S
C317 C316 1.363 . S
C317 C323 1.363 . S
C318 C319 1.363 . S
C318 C323 1.379 . S
C318 N325 1.356 . S
C319 C318 1.363 . S
C319 C322 1.363 . S
N320 C322 1.356 . S
N320 H332 0.984 . S
N320 H333 0.985 . S
N321 C323 1.356 . S
N321 H326 0.984 . S
N321 H327 0.985 . S
C322 C316 1.379 . S
C322 C319 1.363 . S
C322 N320 1.356 . S
C323 C317 1.363 . S
C323 C318 1.379 . S
C323 N321 1.356 . S
N324 C316 1.356 . S
N324 H330 0.984 . S
N324 H331 0.984 . S
N325 C318 1.356 . S
N325 H328 0.984 . S
N325 H329 0.985 . S
H326 N321 0.984 . S
H327 N321 0.985 . S
H328 N325 0.984 . S
H329 N325 0.985 . S
H330 N324 0.984 . S
H331 N324 0.984 . S
H332 N320 0.984 . S
H333 N320 0.985 . S
C121 C105 1.534 . S
C119 C16 1.452 . S
C137 C15 1.480 . S
C139 C91 1.477 . S
C155 C13 1.265 1_554 S
C157 C110 1.499 . S
C173 C14 1.502 . S
C175 C86 1.519 . S
C191 C37 1.452 . S
C193 C67 1.534 . S
C209 C36 1.480 . S
C211 C53 1.477 . S
C229 C72 1.499 . S
C227 C34 1.274 . S
C247 C48 1.519 . S
C245 C35 1.502 . S
C263 C17 1.633 1_565 S
C265 C44 1.663 . S
C281 C18 1.420 . S
C283 C63 1.444 . S
C301 C82 1.663 . S
C299 C38 1.633 . S
C317 C39 1.420 . S
C319 C101 1.444 . S
