# Generated by pormake.
# Topology pyr, (3,6)-cn, num edge types: 1
# Building blocks:
#     Node 0, Type 0, BuildingBlock: BETDAH_clean_linker_0, # of connection points: 3
#     Node 1, Type 0, BuildingBlock: BETDAH_clean_linker_0, # of connection points: 3
#     Node 2, Type 0, BuildingBlock: BETDAH_clean_linker_0, # of connection points: 3
#     Node 3, Type 0, BuildingBlock: BETDAH_clean_linker_0, # of connection points: 3
#     Node 4, Type 0, BuildingBlock: BETDAH_clean_linker_0, # of connection points: 3
#     Node 5, Type 0, BuildingBlock: BETDAH_clean_linker_0, # of connection points: 3
#     Node 6, Type 0, BuildingBlock: BETDAH_clean_linker_0, # of connection points: 3
#     Node 7, Type 0, BuildingBlock: BETDAH_clean_linker_0, # of connection points: 3
#     Node 8, Type 1, BuildingBlock: BETDEL_clean_sbu_0, # of connection points: 6
#     Node 9, Type 1, BuildingBlock: BETDEL_clean_sbu_0, # of connection points: 6
#     Node 10, Type 1, BuildingBlock: BETDEL_clean_sbu_0, # of connection points: 6
#     Node 11, Type 1, BuildingBlock: BETDEL_clean_sbu_0, # of connection points: 6
#     Edge 12, Type (0, 1), BuildingBlock: UVAHIK_clean_linker_0, # of connection points: 2
#     Edge 13, Type (0, 1), BuildingBlock: UVAHIK_clean_linker_0, # of connection points: 2
#     Edge 14, Type (0, 1), BuildingBlock: UVAHIK_clean_linker_0, # of connection points: 2
#     Edge 15, Type (0, 1), BuildingBlock: UVAHIK_clean_linker_0, # of connection points: 2
#     Edge 16, Type (0, 1), BuildingBlock: UVAHIK_clean_linker_0, # of connection points: 2
#     Edge 17, Type (0, 1), BuildingBlock: UVAHIK_clean_linker_0, # of connection points: 2
#     Edge 18, Type (0, 1), BuildingBlock: UVAHIK_clean_linker_0, # of connection points: 2
#     Edge 19, Type (0, 1), BuildingBlock: UVAHIK_clean_linker_0, # of connection points: 2
#     Edge 20, Type (0, 1), BuildingBlock: UVAHIK_clean_linker_0, # of connection points: 2
#     Edge 21, Type (0, 1), BuildingBlock: UVAHIK_clean_linker_0, # of connection points: 2
#     Edge 22, Type (0, 1), BuildingBlock: UVAHIK_clean_linker_0, # of connection points: 2
#     Edge 23, Type (0, 1), BuildingBlock: UVAHIK_clean_linker_0, # of connection points: 2
#     Edge 24, Type (0, 1), BuildingBlock: UVAHIK_clean_linker_0, # of connection points: 2
#     Edge 25, Type (0, 1), BuildingBlock: UVAHIK_clean_linker_0, # of connection points: 2
#     Edge 26, Type (0, 1), BuildingBlock: UVAHIK_clean_linker_0, # of connection points: 2
#     Edge 27, Type (0, 1), BuildingBlock: UVAHIK_clean_linker_0, # of connection points: 2
#     Edge 28, Type (0, 1), BuildingBlock: UVAHIK_clean_linker_0, # of connection points: 2
#     Edge 29, Type (0, 1), BuildingBlock: UVAHIK_clean_linker_0, # of connection points: 2
#     Edge 30, Type (0, 1), BuildingBlock: UVAHIK_clean_linker_0, # of connection points: 2
#     Edge 31, Type (0, 1), BuildingBlock: UVAHIK_clean_linker_0, # of connection points: 2
#     Edge 32, Type (0, 1), BuildingBlock: UVAHIK_clean_linker_0, # of connection points: 2
#     Edge 33, Type (0, 1), BuildingBlock: UVAHIK_clean_linker_0, # of connection points: 2
#     Edge 34, Type (0, 1), BuildingBlock: UVAHIK_clean_linker_0, # of connection points: 2
#     Edge 35, Type (0, 1), BuildingBlock: UVAHIK_clean_linker_0, # of connection points: 2
# Relax obj value: 0.069
# Max RMSD: 0.185
# Mean RMSD: 0.134
data_MOF--net-pyr--node1-BETDEL_clean_sbu_0--node2-BETDAH_clean_linker_0--edge1-UVAHIK_clean_linker_0
_symmetry_space_group_name_H-M    P1
_symmetry_Int_Tables_number       1
_symmetry_cell_setting            triclinic
loop_
_symmetry_equiv_pos_as_xyz
'x, y, z'
_cell_length_a     46.421193
_cell_length_b     49.084795
_cell_length_c     46.830532
_cell_angle_alpha  92.412149
_cell_angle_beta   90.160494
_cell_angle_gamma 100.96709
loop_
_atom_site_label
_atom_site_type_symbol
_atom_site_fract_x
_atom_site_fract_y
_atom_site_fract_z
_atom_type_partial_charge
H0 H 0.22261 0.17488 0.21852 0.0
H1 H 0.25456 0.23861 0.16007 0.0
H2 H 0.18307 0.24748 0.21546 0.0
C3 C 0.22149 0.19471 0.20966 0.0
C4 C 0.20056 0.20997 0.21984 0.0
C5 C 0.24057 0.2046 0.18768 0.0
C6 C 0.23929 0.23034 0.17646 0.0
C7 C 0.21849 0.24564 0.18609 0.0
C8 C 0.19871 0.23528 0.20749 0.0
N9 N 0.21947 0.27219 0.17509 0.0
C10 C 0.1948 0.28277 0.16822 0.0
H11 H 0.34902 0.83889 0.72972 0.0
H12 H 0.2999 0.89958 0.70189 0.0
H13 H 0.32647 0.84171 0.64107 0.0
C14 C 0.33779 0.84766 0.71309 0.0
C15 C 0.3386 0.83702 0.68489 0.0
C16 C 0.32427 0.87055 0.71959 0.0
C17 C 0.31048 0.88204 0.6974 0.0
C18 C 0.31149 0.87159 0.66909 0.0
C19 C 0.32582 0.84951 0.66302 0.0
N20 N 0.30005 0.8839 0.64586 0.0
C21 C 0.2742 0.8942 0.64659 0.0
H22 H 0.69764 0.36398 0.93647 0.0
H23 H 0.67186 0.42843 0.88807 0.0
H24 H 0.60876 0.35535 0.90653 0.0
C25 C 0.68111 0.37216 0.92494 0.0
C26 C 0.65259 0.35654 0.92255 0.0
C27 C 0.68838 0.39812 0.91244 0.0
C28 C 0.66652 0.40845 0.89774 0.0
C29 C 0.63771 0.39298 0.89575 0.0
C30 C 0.63097 0.36722 0.90822 0.0
N31 N 0.61479 0.40274 0.88176 0.0
C32 C 0.61915 0.42182 0.86043 0.0
H33 H 0.83328 0.70653 0.43208 0.0
H34 H 0.90987 0.68906 0.38878 0.0
H35 H 0.84221 0.62193 0.41269 0.0
C36 C 0.84529 0.69167 0.42242 0.0
C37 C 0.83401 0.66305 0.42363 0.0
C38 C 0.8728 0.70124 0.41022 0.0
C39 C 0.88864 0.68196 0.39827 0.0
C40 C 0.87745 0.65342 0.39922 0.0
C41 C 0.85054 0.64408 0.41223 0.0
N42 N 0.89341 0.63372 0.38792 0.0
C43 C 0.9012 0.63314 0.35937 0.0
H44 H 0.89567 0.85788 0.86709 0.0
H45 H 0.84157 0.85126 0.94172 0.0
H46 H 0.82886 0.90766 0.8775 0.0
C47 C 0.87805 0.86411 0.87931 0.0
C48 C 0.86341 0.88446 0.86897 0.0
C49 C 0.87006 0.85164 0.9053 0.0
C50 C 0.84762 0.86015 0.92128 0.0
C51 C 0.83284 0.88026 0.91155 0.0
C52 C 0.84062 0.89238 0.88529 0.0
N53 N 0.81033 0.88751 0.92902 0.0
C54 C 0.7927 0.90634 0.92257 0.0
H55 H 0.74003 0.1723 0.35759 0.0
H56 H 0.77702 0.23289 0.42325 0.0
H57 H 0.70794 0.24874 0.36872 0.0
C58 C 0.74046 0.19203 0.36907 0.0
C59 C 0.7216 0.20951 0.36049 0.0
C60 C 0.76073 0.20033 0.39152 0.0
C61 C 0.76172 0.2263 0.40564 0.0
C62 C 0.7425 0.24361 0.39798 0.0
C63 C 0.72256 0.23528 0.37515 0.0
N64 N 0.74416 0.26928 0.41361 0.0
C65 C 0.72235 0.28515 0.4139 0.0
H66 H 0.34364 0.7459 0.17384 0.0
H67 H 0.35559 0.68961 0.23903 0.0
H68 H 0.42446 0.75865 0.22184 0.0
C69 C 0.35705 0.73963 0.19042 0.0
C70 C 0.3852 0.7552 0.19607 0.0
C71 C 0.34611 0.71601 0.20591 0.0
C72 C 0.3639 0.7078 0.22704 0.0
C73 C 0.3922 0.72338 0.23285 0.0
C74 C 0.40252 0.74696 0.21743 0.0
N75 N 0.41109 0.71611 0.25388 0.0
C76 C 0.40444 0.69312 0.2706 0.0
H77 H 0.18745 0.36228 0.65951 0.0
H78 H 0.20165 0.41259 0.73781 0.0
H79 H 0.14671 0.33191 0.73729 0.0
C80 C 0.18328 0.36537 0.68202 0.0
C81 C 0.16448 0.34442 0.69618 0.0
C82 C 0.19733 0.38992 0.69685 0.0
C83 C 0.19138 0.39374 0.72608 0.0
C84 C 0.173 0.37273 0.74048 0.0
C85 C 0.16016 0.34816 0.72562 0.0
N86 N 0.16789 0.37505 0.77021 0.0
C87 C 0.16772 0.40002 0.78516 0.0
Dy88 Dy 0.02046 0.04406 0.49806 0.0
C89 C 0.97212 0.00522 0.60567 0.0
C90 C 0.04344 0.07155 0.45143 0.0
Dy91 Dy 0.98899 0.02406 0.55319 0.0
O92 O 0.05843 0.06582 0.47306 0.0
O93 O 0.01561 0.06204 0.45506 0.0
O94 O 0.04745 0.0108 0.50085 0.0
O95 O 0.034 0.02926 0.53847 0.0
C96 C 0.04692 0.01062 0.52857 0.0
C97 C 0.95502 0.04113 0.5137 0.0
O98 O 0.01372 0.06547 0.56962 0.0
O99 O 0.03301 0.08232 0.52646 0.0
O100 O 0.96576 0.02739 0.59495 0.0
O101 O 0.9879 0.9935 0.58781 0.0
O102 O 0.9454 0.0216 0.53107 0.0
O103 O 0.98127 0.05171 0.51986 0.0
O104 O 0.98987 0.00547 0.48207 0.0
O105 O 0.9855 0.98496 0.52594 0.0
C106 C 0.02884 0.08539 0.55433 0.0
C107 C 0.98268 0.98339 0.49773 0.0
Dy108 Dy 0.53047 0.06087 0.06409 0.0
C109 C 0.44853 0.00893 0.97595 0.0
C110 C 0.56124 0.08924 0.10933 0.0
Dy111 Dy 0.48958 0.03774 0.01327 0.0
O112 O 0.54059 0.06748 0.11096 0.0
O113 O 0.56534 0.09565 0.08276 0.0
O114 O 0.53622 0.01755 0.07191 0.0
O115 O 0.49591 0.0242 0.05612 0.0
C116 C 0.51024 0.00594 0.06265 0.0
C117 C 0.52589 0.0859 0.00473 0.0
O118 O 0.45743 0.05468 0.04092 0.0
O119 O 0.48941 0.07543 0.0775 0.0
O120 O 0.45514 0.03584 0.97905 0.0
O121 O 0.46419 0.9977 0.99347 0.0
O122 O 0.51695 0.06737 0.98442 0.0
O123 O 0.51315 0.07885 0.02772 0.0
O124 O 0.56277 0.05207 0.03123 0.0
O125 O 0.52956 0.01952 0.0044 0.0
C126 C 0.46302 0.06963 0.06524 0.0
C127 C 0.55686 0.03172 0.0113 0.0
Dy128 Dy 0.51468 0.51451 0.53826 0.0
C129 C 0.47033 0.60634 0.59196 0.0
C130 C 0.54452 0.47708 0.51311 0.0
Dy131 Dy 0.49672 0.56524 0.56954 0.0
O132 O 0.52146 0.47073 0.52892 0.0
O133 O 0.55122 0.50383 0.51106 0.0
O134 O 0.46731 0.49359 0.53475 0.0
O135 O 0.48208 0.52053 0.57015 0.0
C136 C 0.4598 0.50622 0.55772 0.0
C137 C 0.55163 0.57335 0.55009 0.0
O138 O 0.51416 0.54691 0.60694 0.0
O139 O 0.53831 0.51684 0.58075 0.0
O140 O 0.49041 0.6094 0.57254 0.0
O141 O 0.4645 0.58063 0.59932 0.0
O142 O 0.54414 0.58573 0.57318 0.0
O143 O 0.52926 0.55923 0.53765 0.0
O144 O 0.49664 0.53313 0.5012 0.0
O145 O 0.47094 0.56106 0.52832 0.0
C146 C 0.53264 0.5294 0.60525 0.0
C147 C 0.47714 0.5496 0.50347 0.0
Dy148 Dy 0.02696 0.53242 0.05013 0.0
C149 C 0.00278 0.6378 0.02122 0.0
C150 C 0.04358 0.48397 0.06337 0.0
Dy151 Dy 0.02179 0.58988 0.032 0.0
O152 O 0.03006 0.49876 0.08033 0.0
O153 O 0.04799 0.49556 0.03892 0.0
O154 O 0.98674 0.5315 0.07647 0.0
O155 O 0.01615 0.56932 0.0724 0.0
C156 C 0.99193 0.55803 0.08267 0.0
C157 C 0.05574 0.56399 0.99841 0.0
O158 O 0.0566 0.60158 0.06565 0.0
O159 O 0.07028 0.55861 0.06404 0.0
O160 O 0.02787 0.63213 0.01343 0.0
O161 O 0.98827 0.61747 0.03528 0.0
O162 O 0.06024 0.59076 0.00269 0.0
O163 O 0.03215 0.5531 0.00991 0.0
O164 O 0.99013 0.51932 0.0191 0.0
O165 O 0.97958 0.56339 0.01479 0.0
C166 C 0.07539 0.5854 0.07178 0.0
C167 C 0.97294 0.53599 0.01024 0.0
C168 C 0.19413 0.19042 0.26828 0.0
C169 C 0.18162 0.19973 0.24407 0.0
C170 C 0.17654 0.17964 0.29078 0.0
C171 C 0.10237 0.14451 0.30736 0.0
H172 H 0.12844 0.16339 0.38568 0.0
C173 C 0.03892 0.09483 0.40534 0.0
C174 C 0.05649 0.08743 0.42707 0.0
C175 C 0.0518 0.11065 0.38284 0.0
C176 C 0.12093 0.15773 0.36393 0.0
H177 H 0.14094 0.20537 0.22451 0.0
H178 H 0.10991 0.18615 0.26402 0.0
H179 H 0.15525 0.18786 0.34682 0.0
H180 H 0.10117 0.09032 0.44221 0.0
H181 H 0.1236 0.11733 0.40299 0.0
H182 H 0.06855 0.11373 0.32448 0.0
C183 C 0.1334 0.18727 0.26546 0.0
C184 C 0.13625 0.17183 0.34169 0.0
C185 C 0.15112 0.19841 0.24299 0.0
C186 C 0.08706 0.09584 0.42582 0.0
C187 C 0.0999 0.11154 0.40344 0.0
C188 C 0.08707 0.13024 0.32967 0.0
C189 C 0.14597 0.17772 0.28955 0.0
C190 C 0.12754 0.16497 0.31314 0.0
C191 C 0.08247 0.11936 0.38178 0.0
C192 C 0.09662 0.13626 0.35818 0.0
H193 H 0.2176 0.19143 0.2698 0.0
H194 H 0.18685 0.17219 0.30891 0.0
H195 H 0.09526 0.13866 0.28554 0.0
H196 H 0.01525 0.08864 0.40587 0.0
H197 H 0.03775 0.11644 0.36657 0.0
C198 C 0.32605 0.86728 0.77305 0.0
C199 C 0.32705 0.88367 0.749 0.0
C200 C 0.33317 0.8796 0.80025 0.0
C201 C 0.34372 0.94564 0.84329 0.0
H202 H 0.40383 0.91573 0.88229 0.0
C203 C 0.41752 0.0079 0.93219 0.0
C204 C 0.42838 0.99357 0.95384 0.0
C205 C 0.40069 0.99335 0.90966 0.0
C206 C 0.3866 0.92408 0.87214 0.0
H207 H 0.33494 0.92606 0.7351 0.0
H208 H 0.34671 0.94749 0.78262 0.0
H209 H 0.38122 0.89231 0.83879 0.0
H210 H 0.4291 0.95295 0.96979 0.0
H211 H 0.39887 0.92744 0.931 0.0
H212 H 0.34912 0.97749 0.87658 0.0
C213 C 0.34043 0.92509 0.78037 0.0
C214 C 0.37369 0.91064 0.84709 0.0
C215 C 0.33358 0.91276 0.75311 0.0
C216 C 0.42115 0.96448 0.95322 0.0
C217 C 0.40401 0.9499 0.93086 0.0
C218 C 0.3564 0.95895 0.86856 0.0
C219 C 0.34112 0.9086 0.80408 0.0
C220 C 0.35247 0.92151 0.83214 0.0
C221 C 0.39405 0.96412 0.90844 0.0
C222 C 0.37842 0.94862 0.88306 0.0
H223 H 0.32052 0.84484 0.77077 0.0
H224 H 0.33307 0.8664 0.81823 0.0
H225 H 0.3272 0.95434 0.83234 0.0
H226 H 0.42287 0.03037 0.93211 0.0
H227 H 0.39386 0.00508 0.89266 0.0
C228 C 0.62776 0.42999 0.80959 0.0
C229 C 0.61966 0.43929 0.8365 0.0
C230 C 0.62355 0.44448 0.78534 0.0
C231 C 0.57486 0.48909 0.76012 0.0
H232 H 0.62547 0.49581 0.69404 0.0
C233 C 0.54293 0.53739 0.65778 0.0
C234 C 0.54698 0.52318 0.63185 0.0
C235 C 0.55533 0.53074 0.68314 0.0
C236 C 0.61106 0.49394 0.71228 0.0
H237 H 0.60208 0.47117 0.86001 0.0
H238 H 0.59504 0.49695 0.81766 0.0
H239 H 0.64204 0.47857 0.73822 0.0
H240 H 0.56792 0.49125 0.61219 0.0
H241 H 0.58912 0.47933 0.65654 0.0
H242 H 0.54357 0.50367 0.73415 0.0
C243 C 0.60435 0.47838 0.81508 0.0
C244 C 0.62057 0.48414 0.73759 0.0
C245 C 0.60857 0.46384 0.83929 0.0
C246 C 0.56433 0.50261 0.63177 0.0
C247 C 0.57667 0.4959 0.65719 0.0
C248 C 0.56536 0.49884 0.73488 0.0
C249 C 0.61101 0.46842 0.78774 0.0
C250 C 0.60242 0.4813 0.76168 0.0
C251 C 0.57201 0.50966 0.68322 0.0
C252 C 0.58318 0.50107 0.71055 0.0
H253 H 0.63609 0.41085 0.80713 0.0
H254 H 0.62861 0.43607 0.76461 0.0
H255 H 0.56008 0.48664 0.77808 0.0
H256 H 0.52994 0.55355 0.65862 0.0
H257 H 0.55171 0.54205 0.70276 0.0
C258 C 0.88886 0.60848 0.31318 0.0
C259 C 0.90708 0.62945 0.32947 0.0
C260 C 0.89519 0.60334 0.28457 0.0
C261 C 0.93749 0.63273 0.22268 0.0
H262 H 0.93396 0.55526 0.20005 0.0
C263 C 0.99097 0.59578 0.12001 0.0
C264 C 0.97746 0.57049 0.10647 0.0
C265 C 0.9795 0.6053 0.14531 0.0
C266 C 0.93454 0.57698 0.20575 0.0
H267 H 0.94558 0.6621 0.32926 0.0
H268 H 0.95698 0.65308 0.27893 0.0
H269 H 0.91965 0.56758 0.24796 0.0
H270 H 0.94024 0.53642 0.10729 0.0
H271 H 0.91971 0.55334 0.15093 0.0
H272 H 0.95266 0.64207 0.18035 0.0
C273 C 0.93766 0.64073 0.2881 0.0
C274 C 0.9264 0.58404 0.2333 0.0
C275 C 0.9313 0.64581 0.31683 0.0
C276 C 0.95128 0.55582 0.11754 0.0
C277 C 0.93966 0.56543 0.14264 0.0
C278 C 0.94553 0.62564 0.19495 0.0
C279 C 0.9199 0.61912 0.27182 0.0
C280 C 0.92787 0.61197 0.24214 0.0
C281 C 0.95417 0.58978 0.15737 0.0
C282 C 0.94423 0.59765 0.1862 0.0
H283 H 0.86997 0.59574 0.3227 0.0
H284 H 0.88087 0.58682 0.27249 0.0
H285 H 0.9386 0.65443 0.22883 0.0
H286 H 0.01119 0.60753 0.11186 0.0
H287 H 0.99133 0.62405 0.15613 0.0
C288 C 0.28132 0.17844 0.19434 0.0
C289 C 0.26186 0.18821 0.17614 0.0
C290 C 0.3025 0.16435 0.18302 0.0
C291 C 0.34055 0.15363 0.1148 0.0
H292 H 0.36533 0.09408 0.15446 0.0
C293 C 0.41389 0.08338 0.06298 0.0
C294 C 0.43895 0.08106 0.0789 0.0
C295 C 0.39179 0.09545 0.07546 0.0
C296 C 0.35865 0.11077 0.14327 0.0
H297 H 0.24822 0.19 0.13213 0.0
H298 H 0.28426 0.16454 0.11237 0.0
H299 H 0.32705 0.1166 0.17499 0.0
H300 H 0.46009 0.0888 0.12063 0.0
H301 H 0.42107 0.10944 0.14254 0.0
H302 H 0.37169 0.14722 0.08277 0.0
C303 C 0.2841 0.16854 0.13527 0.0
C304 C 0.33685 0.12378 0.15505 0.0
C305 C 0.2633 0.18298 0.14656 0.0
C306 C 0.44111 0.09042 0.10777 0.0
C307 C 0.41875 0.10208 0.12037 0.0
C308 C 0.36198 0.14034 0.10287 0.0
C309 C 0.30432 0.15942 0.15329 0.0
C310 C 0.3275 0.14539 0.14094 0.0
C311 C 0.3941 0.10501 0.10421 0.0
C312 C 0.37122 0.11882 0.11698 0.0
H313 H 0.2807 0.18242 0.21724 0.0
H314 H 0.3179 0.15797 0.19756 0.0
H315 H 0.33453 0.17062 0.10363 0.0
H316 H 0.4116 0.07643 0.04069 0.0
H317 H 0.37287 0.09732 0.06262 0.0
C318 C 0.23682 0.92258 0.65909 0.0
C319 C 0.24693 0.90302 0.64105 0.0
C320 C 0.21125 0.93216 0.65188 0.0
C321 C 0.14591 0.91645 0.6029 0.0
H322 H 0.14797 0.99574 0.61084 0.0
C323 C 0.07717 0.97412 0.53291 0.0
C324 C 0.06444 0.99519 0.54585 0.0
C325 C 0.09572 0.96091 0.54861 0.0
C326 C 0.14684 0.97349 0.60889 0.0
H327 H 0.23892 0.87782 0.60184 0.0
H328 H 0.19481 0.89469 0.58887 0.0
H329 H 0.18756 0.97628 0.63138 0.0
H330 H 0.06024 0.01844 0.58551 0.0
H331 H 0.09315 0.99558 0.61294 0.0
H332 H 0.10584 0.91394 0.57925 0.0
C333 C 0.20583 0.90233 0.60885 0.0
C334 C 0.1695 0.9623 0.62073 0.0
C335 C 0.2312 0.89279 0.61612 0.0
C336 C 0.06989 0.0023 0.575 0.0
C337 C 0.08877 0.98932 0.59065 0.0
C338 C 0.12344 0.92768 0.59085 0.0
C339 C 0.19559 0.92231 0.62648 0.0
C340 C 0.16968 0.93372 0.61728 0.0
C341 C 0.10212 0.96871 0.57751 0.0
C342 C 0.12399 0.95638 0.59319 0.0
H343 H 0.24885 0.93072 0.67843 0.0
H344 H 0.20386 0.94737 0.66605 0.0
H345 H 0.14495 0.89427 0.60039 0.0
H346 H 0.07323 0.96819 0.51048 0.0
H347 H 0.10589 0.94527 0.53784 0.0
C348 C 0.72392 0.44282 0.9232 0.0
C349 C 0.71874 0.41432 0.9154 0.0
C350 C 0.75246 0.45721 0.92919 0.0
C351 C 0.82265 0.44377 0.95486 0.0
H352 H 0.85414 0.51893 0.93331 0.0
C353 C 0.94068 0.4957 0.98473 0.0
C354 C 0.9454 0.52354 0.99489 0.0
C355 C 0.91403 0.4833 0.97178 0.0
C356 C 0.84554 0.49802 0.93969 0.0
H357 H 0.73954 0.37908 0.9057 0.0
H358 H 0.78923 0.40413 0.91622 0.0
H359 H 0.80547 0.49576 0.91597 0.0
H360 H 0.9261 0.56044 0.99878 0.0
H361 H 0.87926 0.53857 0.97679 0.0
H362 H 0.86205 0.44602 0.97914 0.0
C363 C 0.77122 0.41522 0.91828 0.0
C364 C 0.81773 0.48476 0.92971 0.0
C365 C 0.74278 0.40088 0.91228 0.0
C366 C 0.92316 0.53894 0.99113 0.0
C367 C 0.89635 0.52644 0.97837 0.0
C368 C 0.85027 0.45701 0.96494 0.0
C369 C 0.77629 0.44335 0.92749 0.0
C370 C 0.80604 0.45748 0.93719 0.0
C371 C 0.89132 0.49833 0.96894 0.0
C372 C 0.86211 0.48428 0.95748 0.0
H373 H 0.70581 0.45369 0.92593 0.0
H374 H 0.75569 0.47885 0.93639 0.0
H375 H 0.81399 0.42295 0.9615 0.0
H376 H 0.9575 0.48334 0.98694 0.0
H377 H 0.91116 0.46179 0.96418 0.0
C378 C 0.80136 0.62991 0.45451 0.0
C379 C 0.8052 0.65289 0.43703 0.0
C380 C 0.77415 0.62 0.46668 0.0
C381 C 0.71933 0.61364 0.50288 0.0
H382 H 0.6482 0.61106 0.45841 0.0
C383 C 0.60444 0.59573 0.55327 0.0
C384 C 0.5811 0.57947 0.53757 0.0
C385 C 0.63209 0.60296 0.54103 0.0
C386 C 0.66786 0.61135 0.47102 0.0
H387 H 0.78341 0.68347 0.41861 0.0
H388 H 0.73607 0.66658 0.44039 0.0
H389 H 0.69577 0.62703 0.43679 0.0
H390 H 0.56828 0.5577 0.49696 0.0
H391 H 0.61679 0.56983 0.47569 0.0
H392 H 0.69143 0.59757 0.53697 0.0
C393 C 0.75402 0.65597 0.44436 0.0
C394 C 0.69512 0.62087 0.45875 0.0
C395 C 0.78124 0.66587 0.43217 0.0
C396 C 0.58598 0.57012 0.50959 0.0
C397 C 0.61366 0.57731 0.49734 0.0
C398 C 0.69207 0.6041 0.51514 0.0
C399 C 0.75014 0.63287 0.4617 0.0
C400 C 0.72117 0.62228 0.47459 0.0
C401 C 0.63697 0.59405 0.51283 0.0
C402 C 0.66601 0.603 0.49941 0.0
H403 H 0.81947 0.61964 0.45897 0.0
H404 H 0.77185 0.60202 0.47972 0.0
H405 H 0.73896 0.61468 0.51575 0.0
H406 H 0.60124 0.60324 0.57489 0.0
H407 H 0.64944 0.61616 0.55344 0.0
C408 C 0.15619 0.31074 0.1746 0.0
C409 C 0.17278 0.29633 0.15667 0.0
C410 C 0.138 0.32718 0.16284 0.0
C411 C 0.13352 0.36743 0.09968 0.0
H412 H 0.05613 0.37307 0.12725 0.0
C413 C 0.0685 0.44397 0.05197 0.0
C414 C 0.05403 0.45887 0.07163 0.0
C415 C 0.07989 0.42116 0.06058 0.0
C416 C 0.07782 0.3719 0.11945 0.0
H417 H 0.18323 0.28669 0.11288 0.0
H418 H 0.15142 0.31529 0.09221 0.0
H419 H 0.08141 0.33824 0.14619 0.0
H420 H 0.03952 0.46146 0.11543 0.0
H421 H 0.05992 0.42222 0.13065 0.0
H422 H 0.13059 0.40157 0.07372 0.0
C423 C 0.15239 0.31411 0.11523 0.0
C424 C 0.09222 0.3519 0.13027 0.0
C425 C 0.17038 0.29763 0.12699 0.0
C426 C 0.05054 0.45026 0.09982 0.0
C427 C 0.06206 0.42762 0.10847 0.0
C428 C 0.11925 0.38753 0.08904 0.0
C429 C 0.13652 0.32956 0.13303 0.0
C430 C 0.12031 0.34961 0.12062 0.0
C431 C 0.07717 0.41295 0.08906 0.0
C432 C 0.09133 0.3902 0.09896 0.0
H433 H 0.15809 0.31011 0.19762 0.0
H434 H 0.12622 0.33903 0.17708 0.0
H435 H 0.15536 0.36647 0.09216 0.0
H436 H 0.07133 0.45014 0.03006 0.0
H437 H 0.091 0.41009 0.04495 0.0
C438 C 0.63344 0.30571 0.91632 0.0
C439 C 0.64543 0.32866 0.93429 0.0
C440 C 0.62609 0.27932 0.92724 0.0
C441 C 0.60031 0.24413 0.99043 0.0
H442 H 0.62404 0.18026 0.9526 0.0
C443 C 0.55259 0.13254 0.02306 0.0
C444 C 0.54504 0.1129 0.00032 0.0
C445 C 0.56977 0.15857 0.01826 0.0
C446 C 0.61702 0.19783 0.96331 0.0
H447 H 0.65932 0.34237 0.97757 0.0
H448 H 0.64548 0.29598 0.99703 0.0
H449 H 0.64485 0.22686 0.93768 0.0
H450 H 0.5497 0.1047 0.95492 0.0
H451 H 0.57856 0.15021 0.94626 0.0
H452 H 0.57112 0.21528 0.01486 0.0
C453 C 0.6422 0.29848 0.97445 0.0
C454 C 0.62911 0.22447 0.95487 0.0
C455 C 0.65013 0.32486 0.96337 0.0
C456 C 0.55527 0.11947 0.97285 0.0
C457 C 0.57211 0.14552 0.96798 0.0
C458 C 0.58783 0.21744 0.99859 0.0
C459 C 0.63013 0.27553 0.95643 0.0
C460 C 0.62038 0.24778 0.96794 0.0
C461 C 0.57942 0.16552 0.99055 0.0
C462 C 0.59549 0.19391 0.98463 0.0
H463 H 0.62979 0.30821 0.8938 0.0
H464 H 0.61655 0.26196 0.913 0.0
H465 H 0.59312 0.26184 0.00068 0.0
H466 H 0.54491 0.12794 0.04445 0.0
H467 H 0.57528 0.1733 0.03621 0.0
C468 C 0.91356 0.74039 0.42454 0.0
C469 C 0.88577 0.73124 0.41195 0.0
C470 C 0.92483 0.76874 0.42883 0.0
C471 C 0.90056 0.83684 0.43392 0.0
H472 H 0.98449 0.86483 0.43816 0.0
C473 C 0.95623 0.95291 0.45786 0.0
C474 C 0.97255 0.95585 0.48349 0.0
C475 C 0.946 0.92649 0.44512 0.0
C476 C 0.961 0.85726 0.43682 0.0
H477 H 0.84842 0.74429 0.39284 0.0
H478 H 0.8686 0.79393 0.39899 0.0
H479 H 0.96612 0.81689 0.42148 0.0
H480 H 0.99185 0.93382 0.5154 0.0
H481 H 0.9748 0.88782 0.49257 0.0
H482 H 0.8958 0.87768 0.44886 0.0
C483 C 0.88137 0.77933 0.40654 0.0
C484 C 0.9504 0.82974 0.42755 0.0
C485 C 0.86985 0.75092 0.40278 0.0
C486 C 0.9791 0.9321 0.49576 0.0
C487 C 0.96955 0.90585 0.48267 0.0
C488 C 0.91121 0.86455 0.44258 0.0
C489 C 0.9088 0.78868 0.42014 0.0
C490 C 0.92003 0.81888 0.42671 0.0
C491 C 0.95271 0.90282 0.45742 0.0
C492 C 0.94149 0.87474 0.44473 0.0
H493 H 0.92607 0.72558 0.43214 0.0
H494 H 0.94568 0.77489 0.43993 0.0
H495 H 0.87708 0.82932 0.43405 0.0
H496 H 0.95084 0.97093 0.44805 0.0
H497 H 0.93298 0.92452 0.42564 0.0
C498 C 0.37208 0.81398 0.65448 0.0
C499 C 0.35324 0.81324 0.67795 0.0
C500 C 0.3845 0.79103 0.64674 0.0
C501 C 0.40038 0.72499 0.67263 0.0
H502 H 0.40501 0.70734 0.59146 0.0
C503 C 0.43601 0.62472 0.62573 0.0
C504 C 0.4562 0.62894 0.60333 0.0
C505 C 0.4227 0.64647 0.63605 0.0
C506 C 0.40403 0.7121 0.6142 0.0
H507 H 0.33309 0.7881 0.71213 0.0
H508 H 0.35452 0.7477 0.69839 0.0
H509 H 0.38354 0.74676 0.60747 0.0
H510 H 0.47853 0.65901 0.57428 0.0
H511 H 0.45531 0.69677 0.59212 0.0
H512 H 0.42077 0.68997 0.67915 0.0
C513 C 0.35999 0.76619 0.68616 0.0
C514 C 0.39183 0.73476 0.6234 0.0
C515 C 0.34769 0.78929 0.69402 0.0
C516 C 0.46296 0.65516 0.59151 0.0
C517 C 0.44955 0.67674 0.60163 0.0
C518 C 0.41246 0.70213 0.66338 0.0
C519 C 0.37823 0.76666 0.66217 0.0
C520 C 0.39022 0.74177 0.6527 0.0
C521 C 0.42919 0.67264 0.62391 0.0
C522 C 0.41477 0.69571 0.63405 0.0
H523 H 0.3772 0.83236 0.64202 0.0
H524 H 0.39904 0.79241 0.6286 0.0
H525 H 0.39968 0.72991 0.69534 0.0
H526 H 0.43047 0.60466 0.6352 0.0
H527 H 0.40698 0.6427 0.65316 0.0
C528 C 0.87295 0.9258 0.83777 0.0
C529 C 0.87215 0.89733 0.84125 0.0
C530 C 0.88238 0.93801 0.81212 0.0
C531 C 0.89717 0.92059 0.73583 0.0
H532 H 0.94455 0.99483 0.73895 0.0
C533 C 0.96463 0.9672 0.64019 0.0
C534 C 0.96146 0.99403 0.63324 0.0
C535 C 0.95316 0.95595 0.66562 0.0
C536 C 0.93116 0.97416 0.73777 0.0
H537 H 0.87977 0.85928 0.81986 0.0
H538 H 0.89745 0.8807 0.77591 0.0
H539 H 0.92505 0.97404 0.783 0.0
H540 H 0.94446 0.03039 0.64754 0.0
H541 H 0.92489 0.01087 0.69238 0.0
H542 H 0.90415 0.92054 0.69063 0.0
C543 C 0.89031 0.8936 0.79274 0.0
C544 C 0.91983 0.96226 0.76298 0.0
C545 C 0.88058 0.88136 0.81823 0.0
C546 C 0.94719 0.00964 0.65242 0.0
C547 C 0.93608 0.99853 0.67807 0.0
C548 C 0.90883 0.93236 0.71071 0.0
C549 C 0.8915 0.92213 0.78934 0.0
C550 C 0.90275 0.93525 0.76238 0.0
C551 C 0.93868 0.97145 0.68476 0.0
C552 C 0.92602 0.95922 0.71144 0.0
H553 H 0.86686 0.93883 0.85508 0.0
H554 H 0.88252 0.95994 0.81019 0.0
H555 H 0.88362 0.90002 0.73436 0.0
H556 H 0.97553 0.95473 0.62576 0.0
H557 H 0.95573 0.93513 0.67039 0.0
C558 C 0.68404 0.17427 0.33371 0.0
C559 C 0.70168 0.20092 0.33559 0.0
C560 C 0.66701 0.16523 0.30927 0.0
C561 C 0.66492 0.17464 0.23273 0.0
H562 H 0.58442 0.13542 0.23756 0.0
C563 C 0.59586 0.13009 0.13184 0.0
C564 C 0.57709 0.10429 0.13436 0.0
C565 C 0.61009 0.14433 0.15607 0.0
C566 C 0.60698 0.14604 0.23579 0.0
H567 H 0.71515 0.23916 0.31363 0.0
H568 H 0.68555 0.22317 0.27053 0.0
H569 H 0.61055 0.15586 0.28083 0.0
H570 H 0.55881 0.07288 0.16386 0.0
H571 H 0.58418 0.09704 0.20573 0.0
H572 H 0.66187 0.16393 0.1879 0.0
C573 C 0.68485 0.20938 0.28809 0.0
C574 C 0.62186 0.15788 0.26061 0.0
C575 C 0.70156 0.21859 0.31277 0.0
C576 C 0.57302 0.09285 0.16133 0.0
C577 C 0.58739 0.10687 0.18541 0.0
C578 C 0.65015 0.16249 0.2079 0.0
C579 C 0.66759 0.18253 0.28603 0.0
C580 C 0.65109 0.17199 0.25939 0.0
C581 C 0.60596 0.13291 0.18321 0.0
C582 C 0.62111 0.14765 0.20917 0.0
H583 H 0.6837 0.16029 0.35106 0.0
H584 H 0.65408 0.14437 0.30818 0.0
H585 H 0.68755 0.1852 0.23122 0.0
H586 H 0.59925 0.1394 0.11126 0.0
H587 H 0.62399 0.16444 0.15357 0.0
C588 C 0.3909 0.67397 0.31732 0.0
C589 C 0.40165 0.67067 0.28976 0.0
C590 C 0.39292 0.65438 0.33767 0.0
C591 C 0.44018 0.60564 0.35483 0.0
H592 H 0.3845 0.58607 0.4156 0.0
C593 C 0.46884 0.54545 0.45035 0.0
C594 C 0.46255 0.55649 0.47729 0.0
C595 C 0.45689 0.55385 0.4255 0.0
C596 C 0.40028 0.59139 0.39879 0.0
H597 H 0.42166 0.64431 0.26096 0.0
H598 H 0.42494 0.60968 0.29643 0.0
H599 H 0.37074 0.61056 0.37487 0.0
H600 H 0.43775 0.58418 0.49928 0.0
H601 H 0.41745 0.59911 0.45608 0.0
H602 H 0.47014 0.58753 0.37909 0.0
C603 C 0.41519 0.62741 0.30252 0.0
C604 C 0.39238 0.60537 0.37546 0.0
C605 C 0.41314 0.64703 0.2822 0.0
C606 C 0.44316 0.57528 0.4789 0.0
C607 C 0.43128 0.5837 0.45408 0.0
C608 C 0.44809 0.59174 0.37813 0.0
C609 C 0.40589 0.63129 0.33073 0.0
C610 C 0.41248 0.61318 0.35352 0.0
C611 C 0.43842 0.57348 0.42705 0.0
C612 C 0.42849 0.58499 0.4007 0.0
H613 H 0.38223 0.69232 0.32351 0.0
H614 H 0.38587 0.65818 0.35926 0.0
H615 H 0.45638 0.61173 0.33854 0.0
H616 H 0.4835 0.53076 0.44833 0.0
H617 H 0.4625 0.54528 0.40503 0.0
C618 C 0.17676 0.42813 0.83004 0.0
C619 C 0.16352 0.42352 0.80293 0.0
C620 C 0.16859 0.44766 0.84943 0.0
C621 C 0.10428 0.47786 0.86617 0.0
H622 H 0.15607 0.52399 0.9216 0.0
C623 C 0.06046 0.52143 0.96926 0.0
C624 C 0.07113 0.5495 0.97686 0.0
C625 C 0.07367 0.50812 0.94743 0.0
C626 C 0.14138 0.51137 0.90612 0.0
H627 H 0.13259 0.43593 0.7739 0.0
H628 H 0.11841 0.47043 0.80766 0.0
H629 H 0.17688 0.49913 0.8828 0.0
H630 H 0.10444 0.5855 0.96837 0.0
H631 H 0.12767 0.56214 0.93011 0.0
H632 H 0.06881 0.48984 0.88946 0.0
C633 C 0.13488 0.45893 0.81414 0.0
C634 C 0.15327 0.49703 0.88404 0.0
C635 C 0.14311 0.43943 0.79477 0.0
C636 C 0.09578 0.56384 0.96284 0.0
C637 C 0.10911 0.55046 0.94105 0.0
C638 C 0.09244 0.49203 0.88827 0.0
C639 C 0.14689 0.46266 0.84198 0.0
C640 C 0.1348 0.47991 0.86398 0.0
C641 C 0.09789 0.52258 0.93283 0.0
C642 C 0.11082 0.50865 0.9087 0.0
H643 H 0.19235 0.41573 0.83671 0.0
H644 H 0.17803 0.44983 0.87077 0.0
H645 H 0.08942 0.46458 0.85131 0.0
H646 H 0.04153 0.50986 0.97979 0.0
H647 H 0.06484 0.48648 0.9419 0.0
C648 C 0.74513 0.91523 0.90627 0.0
C649 C 0.77168 0.92432 0.92106 0.0
C650 C 0.72221 0.92987 0.90969 0.0
C651 C 0.70283 0.99542 0.93998 0.0
H652 H 0.62889 0.94728 0.95635 0.0
C653 C 0.61068 0.03293 0.00437 0.0
C654 C 0.58141 0.02196 0.99647 0.0
C655 C 0.63373 0.02298 0.99094 0.0
C656 C 0.64918 0.96109 0.95137 0.0
H657 H 0.79609 0.95593 0.94999 0.0
H658 H 0.75612 0.98157 0.9562 0.0
H659 H 0.66968 0.92711 0.93876 0.0
H660 H 0.55348 0.99248 0.96759 0.0
H661 H 0.59363 0.97538 0.94408 0.0
H662 H 0.68237 0.02938 0.95338 0.0
C663 C 0.7529 0.96353 0.9416 0.0
C664 C 0.67261 0.94951 0.9412 0.0
C665 C 0.77577 0.94888 0.93812 0.0
C666 C 0.57574 0.00125 0.97442 0.0
C667 C 0.59877 0.99136 0.96097 0.0
C668 C 0.67934 0.00703 0.95017 0.0
C669 C 0.72552 0.95368 0.92815 0.0
C670 C 0.69985 0.96648 0.93578 0.0
C671 C 0.62803 0.00188 0.96928 0.0
C672 C 0.65238 0.98995 0.95639 0.0
H673 H 0.74159 0.89613 0.89318 0.0
H674 H 0.70154 0.92198 0.89873 0.0
H675 H 0.72343 0.00909 0.9357 0.0
H676 H 0.61585 0.04891 0.02125 0.0
H677 H 0.65599 0.0313 0.99811 0.0
C678 C 0.77015 0.15353 0.40397 0.0
C679 C 0.78082 0.18192 0.4003 0.0
C680 C 0.78888 0.1364 0.41318 0.0
C681 C 0.86674 0.13068 0.41845 0.0
H682 H 0.84092 0.08306 0.48106 0.0
C683 C 0.94643 0.08009 0.48414 0.0
C684 C 0.93588 0.05416 0.4956 0.0
C685 C 0.92747 0.09378 0.4695 0.0
C686 C 0.84835 0.09578 0.4632 0.0
H687 H 0.81963 0.21447 0.40263 0.0
H688 H 0.85237 0.18455 0.41872 0.0
H689 H 0.8078 0.11038 0.46105 0.0
H690 H 0.89777 0.02143 0.49945 0.0
H691 H 0.86479 0.04486 0.47321 0.0
H692 H 0.90728 0.11609 0.4205 0.0
C693 C 0.82952 0.17554 0.41445 0.0
C694 C 0.82934 0.11153 0.45181 0.0
C695 C 0.81073 0.19272 0.40552 0.0
C696 C 0.90638 0.04156 0.49106 0.0
C697 C 0.88746 0.05511 0.47621 0.0
C698 C 0.88569 0.11473 0.42967 0.0
C699 C 0.81875 0.14725 0.41863 0.0
C700 C 0.83844 0.12938 0.42954 0.0
C701 C 0.8976 0.08168 0.46578 0.0
C702 C 0.87687 0.0973 0.45243 0.0
H703 H 0.74717 0.14467 0.40027 0.0
H704 H 0.78001 0.11464 0.41603 0.0
H705 H 0.87422 0.14399 0.40103 0.0
H706 H 0.96912 0.09028 0.48733 0.0
H707 H 0.93606 0.1143 0.46208 0.0
C708 C 0.29293 0.7138 0.19491 0.0
C709 C 0.31629 0.69992 0.19927 0.0
C710 C 0.26562 0.69916 0.18543 0.0
C711 C 0.23332 0.6357 0.14417 0.0
H712 H 0.15971 0.65549 0.16785 0.0
C713 C 0.12208 0.58007 0.0959 0.0
C714 C 0.1022 0.59707 0.08871 0.0
C715 C 0.14731 0.59093 0.11203 0.0
C716 C 0.18011 0.64987 0.1609 0.0
H717 H 0.32903 0.65965 0.19838 0.0
H718 H 0.28103 0.63388 0.18208 0.0
H719 H 0.20511 0.67682 0.19292 0.0
H720 H 0.0932 0.63884 0.09296 0.0
H721 H 0.13745 0.65786 0.12079 0.0
H722 H 0.20848 0.60919 0.11181 0.0
C723 C 0.28402 0.65619 0.18566 0.0
C724 C 0.20609 0.66202 0.17529 0.0
C725 C 0.31139 0.67088 0.19525 0.0
C726 C 0.10805 0.62516 0.09812 0.0
C727 C 0.1333 0.63602 0.11427 0.0
C728 C 0.20735 0.62356 0.12979 0.0
C729 C 0.26103 0.67026 0.18008 0.0
C730 C 0.23304 0.65537 0.16682 0.0
C731 C 0.15325 0.61904 0.12134 0.0
C732 C 0.18052 0.63078 0.13773 0.0
H733 H 0.29599 0.73615 0.1982 0.0
H734 H 0.24847 0.71067 0.18115 0.0
H735 H 0.25376 0.63046 0.1368 0.0
H736 H 0.11821 0.5583 0.08914 0.0
H737 H 0.16207 0.57723 0.11739 0.0
C738 C 0.24601 0.42284 0.69658 0.0
C739 C 0.21985 0.41026 0.68222 0.0
C740 C 0.26894 0.4388 0.68188 0.0
C741 C 0.30097 0.44125 0.61189 0.0
H742 H 0.34835 0.51123 0.63935 0.0
C743 C 0.40593 0.4884 0.553 0.0
C744 C 0.43016 0.50092 0.56997 0.0
C745 C 0.37808 0.48171 0.56499 0.0
C746 C 0.33556 0.49154 0.63151 0.0
H747 H 0.19665 0.40657 0.64148 0.0
H748 H 0.2372 0.4336 0.61568 0.0
H749 H 0.3033 0.49203 0.6642 0.0
H750 H 0.4444 0.51701 0.6125 0.0
H751 H 0.39623 0.50419 0.63384 0.0
H752 H 0.33368 0.43955 0.58037 0.0
C753 C 0.23982 0.43092 0.63832 0.0
C754 C 0.30966 0.4807 0.64565 0.0
C755 C 0.21671 0.41531 0.6531 0.0
C756 C 0.42601 0.50735 0.59895 0.0
C757 C 0.39827 0.50018 0.6111 0.0
C758 C 0.32706 0.45179 0.59807 0.0
C759 C 0.26638 0.44227 0.65244 0.0
C760 C 0.29229 0.45532 0.63611 0.0
C761 C 0.37395 0.48688 0.59438 0.0
C762 C 0.34495 0.47694 0.60785 0.0
H763 H 0.24947 0.41918 0.71886 0.0
H764 H 0.28929 0.44714 0.69321 0.0
H765 H 0.2882 0.42142 0.60436 0.0
H766 H 0.40854 0.48359 0.53048 0.0
H767 H 0.35985 0.47219 0.55121 0.0
C768 C 0.86833 0.80645 0.92887 0.0
C769 C 0.88483 0.82961 0.91592 0.0
C770 C 0.88205 0.78624 0.94003 0.0
C771 C 0.95417 0.77469 0.96542 0.0
H772 H 0.91538 0.69734 0.95967 0.0
C773 C 0.00852 0.68286 0.99702 0.0
C774 C 0.99098 0.66195 0.01225 0.0
C775 C 0.99648 0.70435 0.98609 0.0
C776 C 0.92634 0.7189 0.96167 0.0
H777 H 0.92876 0.84945 0.90422 0.0
H778 H 0.95269 0.81363 0.92293 0.0
H779 H 0.89297 0.7322 0.93733 0.0
H780 H 0.94747 0.64739 0.02876 0.0
H781 H 0.92637 0.68488 0.00956 0.0
H782 H 0.9878 0.76107 0.98943 0.0
C783 C 0.92913 0.81142 0.92494 0.0
C784 C 0.9135 0.7389 0.9489 0.0
C785 C 0.91538 0.83177 0.91388 0.0
C786 C 0.96145 0.66327 0.01707 0.0
C787 C 0.94935 0.68459 0.00593 0.0
C788 C 0.96715 0.7546 0.978 0.0
C789 C 0.91263 0.78849 0.93832 0.0
C790 C 0.92709 0.7671 0.95082 0.0
C791 C 0.96663 0.70511 0.98997 0.0
C792 C 0.95321 0.72654 0.97647 0.0
H793 H 0.8447 0.80391 0.93043 0.0
H794 H 0.86864 0.76909 0.95048 0.0
H795 H 0.96505 0.79624 0.96767 0.0
H796 H 0.03136 0.68226 0.99299 0.0
H797 H 0.01026 0.71981 0.97376 0.0
C798 C 0.411 0.80463 0.19356 0.0
C799 C 0.39671 0.77992 0.17951 0.0
C800 C 0.42264 0.82771 0.17799 0.0
C801 C 0.41969 0.85852 0.10747 0.0
H802 H 0.49441 0.90232 0.13317 0.0
C803 C 0.5149 0.95824 0.07499 0.0
C804 C 0.49692 0.97699 0.06806 0.0
C805 C 0.50258 0.93201 0.08434 0.0
C806 C 0.47376 0.89012 0.12535 0.0
H807 H 0.38325 0.75992 0.13819 0.0
H808 H 0.404 0.80017 0.11085 0.0
H809 H 0.4732 0.86111 0.15814 0.0
H810 H 0.45199 0.98266 0.06367 0.0
H811 H 0.43035 0.93709 0.08083 0.0
H812 H 0.42064 0.88741 0.07429 0.0
C813 C 0.40577 0.80188 0.13395 0.0
C814 C 0.46134 0.86671 0.14002 0.0
C815 C 0.39394 0.77883 0.14958 0.0
C816 C 0.46632 0.96854 0.06899 0.0
C817 C 0.45396 0.94238 0.07869 0.0
C818 C 0.43223 0.88195 0.09265 0.0
C819 C 0.42048 0.82652 0.14798 0.0
C820 C 0.434 0.85081 0.1315 0.0
C821 C 0.47201 0.92414 0.08731 0.0
C822 C 0.45932 0.89815 0.10158 0.0
H823 H 0.41302 0.80618 0.21665 0.0
H824 H 0.43325 0.84656 0.18953 0.0
H825 H 0.3985 0.84682 0.10045 0.0
H826 H 0.53858 0.96417 0.07405 0.0
H827 H 0.51709 0.91819 0.09005 0.0
C828 C 0.12103 0.30559 0.68772 0.0
C829 C 0.14972 0.31842 0.68054 0.0
C830 C 0.10745 0.2807 0.67387 0.0
C831 C 0.10614 0.23887 0.60794 0.0
H832 H 0.07467 0.17636 0.65385 0.0
C833 C 0.06592 0.12956 0.55661 0.0
C834 C 0.04204 0.11216 0.56887 0.0
C835 C 0.07865 0.15483 0.57024 0.0
C836 C 0.08283 0.19368 0.64065 0.0
H837 H 0.18642 0.31489 0.65284 0.0
H838 H 0.16208 0.27197 0.62791 0.0
H839 H 0.09707 0.22067 0.67723 0.0
H840 H 0.01245 0.10773 0.6048 0.0
H841 H 0.03384 0.15236 0.62809 0.0
H842 H 0.09122 0.21246 0.57136 0.0
C843 C 0.15035 0.28129 0.64446 0.0
C844 C 0.09581 0.219 0.6541 0.0
C845 C 0.16417 0.30596 0.65865 0.0
C846 C 0.031 0.12062 0.59496 0.0
C847 C 0.04341 0.14617 0.60838 0.0
C848 C 0.0927 0.21371 0.59447 0.0
C849 C 0.122 0.26833 0.65216 0.0
C850 C 0.10775 0.24173 0.63785 0.0
C851 C 0.06749 0.16359 0.59624 0.0
C852 C 0.08106 0.19067 0.61063 0.0
H853 H 0.10893 0.31484 0.70399 0.0
H854 H 0.08542 0.27124 0.67992 0.0
H855 H 0.11492 0.25624 0.59498 0.0
H856 H 0.07514 0.12346 0.53665 0.0
H857 H 0.09754 0.16728 0.56051 0.0
C858 C 0.67529 0.294 0.43249 0.0
C859 C 0.70134 0.30311 0.41781 0.0
C860 C 0.65667 0.31251 0.43962 0.0
C861 C 0.65918 0.38738 0.4531 0.0
H862 H 0.57431 0.36648 0.45176 0.0
C863 C 0.58553 0.46634 0.48291 0.0
C864 C 0.56103 0.45704 0.49987 0.0
C865 C 0.60163 0.4475 0.47085 0.0
C866 C 0.59799 0.37256 0.45251 0.0
H867 H 0.72843 0.33803 0.39829 0.0
H868 H 0.69577 0.37047 0.41031 0.0
H869 H 0.60387 0.33352 0.4335 0.0
H870 H 0.53395 0.42082 0.51738 0.0
H871 H 0.56229 0.38787 0.49667 0.0
H872 H 0.65344 0.42618 0.47247 0.0
C873 C 0.68972 0.34919 0.41665 0.0
C874 C 0.61493 0.35368 0.44199 0.0
C875 C 0.70827 0.33064 0.40953 0.0
C876 C 0.55273 0.42853 0.50433 0.0
C877 C 0.56887 0.40966 0.49231 0.0
C878 C 0.64228 0.4062 0.46364 0.0
C879 C 0.66397 0.3405 0.43227 0.0
C880 C 0.64574 0.36084 0.44225 0.0
C881 C 0.59363 0.41893 0.47554 0.0
C882 C 0.61148 0.39902 0.46359 0.0
H883 H 0.6698 0.27281 0.43929 0.0
H884 H 0.63722 0.30519 0.4519 0.0
H885 H 0.68286 0.3934 0.45416 0.0
H886 H 0.59233 0.48822 0.47903 0.0
H887 H 0.62031 0.45533 0.45773 0.0
loop_
_geom_bond_atom_site_label_1
_geom_bond_atom_site_label_2
_geom_bond_distance
_geom_bond_site_symmetry_2
_ccdc_geom_bond_type
H0 C3 0.929 . S
H1 C6 0.929 . S
H2 C8 0.930 . S
C3 H0 0.929 . S
C3 C4 1.398 . S
C3 C5 1.396 . S
C4 C3 1.398 . S
C4 C8 1.407 . S
C5 C3 1.396 . S
C5 C6 1.394 . S
C6 H1 0.929 . S
C6 C5 1.394 . S
C6 C7 1.382 . S
C7 C6 1.382 . S
C7 C8 1.392 . S
C7 N9 1.420 . S
C8 H2 0.930 . S
C8 C4 1.407 . S
C8 C7 1.392 . S
N9 C7 1.420 . S
N9 C10 1.244 . S
C10 N9 1.244 . S
H11 C14 0.929 . S
H12 C17 0.929 . S
H13 C19 0.930 . S
C14 H11 0.929 . S
C14 C15 1.398 . S
C14 C16 1.396 . S
C15 C14 1.398 . S
C15 C19 1.407 . S
C16 C14 1.396 . S
C16 C17 1.394 . S
C17 H12 0.929 . S
C17 C16 1.394 . S
C17 C18 1.382 . S
C18 C17 1.382 . S
C18 C19 1.392 . S
C18 N20 1.420 . S
C19 H13 0.930 . S
C19 C15 1.407 . S
C19 C18 1.392 . S
N20 C18 1.420 . S
N20 C21 1.244 . S
C21 N20 1.244 . S
H22 C25 0.929 . S
H23 C28 0.929 . S
H24 C30 0.930 . S
C25 H22 0.929 . S
C25 C26 1.398 . S
C25 C27 1.396 . S
C26 C25 1.398 . S
C26 C30 1.407 . S
C27 C25 1.396 . S
C27 C28 1.394 . S
C28 H23 0.929 . S
C28 C27 1.394 . S
C28 C29 1.382 . S
C29 C28 1.382 . S
C29 C30 1.392 . S
C29 N31 1.420 . S
C30 H24 0.930 . S
C30 C26 1.407 . S
C30 C29 1.392 . S
N31 C29 1.420 . S
N31 C32 1.244 . S
C32 N31 1.244 . S
H33 C36 0.929 . S
H34 C39 0.929 . S
H35 C41 0.930 . S
C36 H33 0.929 . S
C36 C37 1.398 . S
C36 C38 1.396 . S
C37 C36 1.398 . S
C37 C41 1.407 . S
C38 C36 1.396 . S
C38 C39 1.394 . S
C39 H34 0.929 . S
C39 C38 1.394 . S
C39 C40 1.382 . S
C40 C39 1.382 . S
C40 C41 1.392 . S
C40 N42 1.420 . S
C41 H35 0.930 . S
C41 C37 1.407 . S
C41 C40 1.392 . S
N42 C40 1.420 . S
N42 C43 1.244 . S
C43 N42 1.244 . S
H44 C47 0.929 . S
H45 C50 0.929 . S
H46 C52 0.930 . S
C47 H44 0.929 . S
C47 C48 1.398 . S
C47 C49 1.396 . S
C48 C47 1.398 . S
C48 C52 1.407 . S
C49 C47 1.396 . S
C49 C50 1.394 . S
C50 H45 0.929 . S
C50 C49 1.394 . S
C50 C51 1.382 . S
C51 C50 1.382 . S
C51 C52 1.392 . S
C51 N53 1.420 . S
C52 H46 0.930 . S
C52 C48 1.407 . S
C52 C51 1.392 . S
N53 C51 1.420 . S
N53 C54 1.244 . S
C54 N53 1.244 . S
H55 C58 0.929 . S
H56 C61 0.929 . S
H57 C63 0.930 . S
C58 H55 0.929 . S
C58 C59 1.398 . S
C58 C60 1.396 . S
C59 C58 1.398 . S
C59 C63 1.407 . S
C60 C58 1.396 . S
C60 C61 1.394 . S
C61 H56 0.929 . S
C61 C60 1.394 . S
C61 C62 1.382 . S
C62 C61 1.382 . S
C62 C63 1.392 . S
C62 N64 1.420 . S
C63 H57 0.930 . S
C63 C59 1.407 . S
C63 C62 1.392 . S
N64 C62 1.420 . S
N64 C65 1.244 . S
C65 N64 1.244 . S
H66 C69 0.929 . S
H67 C72 0.929 . S
H68 C74 0.930 . S
C69 H66 0.929 . S
C69 C70 1.398 . S
C69 C71 1.396 . S
C70 C69 1.398 . S
C70 C74 1.407 . S
C71 C69 1.396 . S
C71 C72 1.394 . S
C72 H67 0.929 . S
C72 C71 1.394 . S
C72 C73 1.382 . S
C73 C72 1.382 . S
C73 C74 1.392 . S
C73 N75 1.420 . S
C74 H68 0.930 . S
C74 C70 1.407 . S
C74 C73 1.392 . S
N75 C73 1.420 . S
N75 C76 1.244 . S
C76 N75 1.244 . S
H77 C80 0.929 . S
H78 C83 0.929 . S
H79 C85 0.930 . S
C80 H77 0.929 . S
C80 C81 1.398 . S
C80 C82 1.396 . S
C81 C80 1.398 . S
C81 C85 1.407 . S
C82 C80 1.396 . S
C82 C83 1.394 . S
C83 H78 0.929 . S
C83 C82 1.394 . S
C83 C84 1.382 . S
C84 C83 1.382 . S
C84 C85 1.392 . S
C84 N86 1.420 . S
C85 H79 0.930 . S
C85 C81 1.407 . S
C85 C84 1.392 . S
N86 C84 1.420 . S
N86 C87 1.244 . S
C87 N86 1.244 . S
Dy88 O92 2.398 . S
Dy88 O93 2.491 . S
Dy88 O94 2.403 . S
Dy88 O95 2.664 . S
Dy88 O99 2.326 . S
Dy88 O103 2.310 1_455 S
Dy88 O104 2.351 1_545 S
C89 O100 1.185 . S
C89 O101 1.355 . S
C90 O92 1.185 . S
C90 O93 1.355 . S
Dy91 O95 2.310 1_655 S
Dy91 O98 2.351 1_655 S
Dy91 O100 2.398 1_545 S
Dy91 O101 2.491 1_545 S
Dy91 O102 2.403 . S
Dy91 O103 2.664 . S
Dy91 O105 2.326 1_545 S
O92 Dy88 2.398 . S
O92 C90 1.185 . S
O93 Dy88 2.491 . S
O93 C90 1.355 . S
O94 Dy88 2.403 . S
O94 C96 1.254 . S
O95 Dy88 2.664 . S
O95 Dy91 2.310 1_455 S
O95 C96 1.268 . S
C96 O94 1.254 . S
C96 O95 1.268 . S
C97 O102 1.254 . S
C97 O103 1.268 . S
O98 Dy91 2.351 1_455 S
O98 C106 1.249 . S
O99 Dy88 2.326 . S
O99 C106 1.267 . S
O100 C89 1.185 . S
O100 Dy91 2.398 1_565 S
O101 C89 1.355 . S
O101 Dy91 2.491 1_565 S
O102 Dy91 2.403 . S
O102 C97 1.254 . S
O103 Dy88 2.310 1_655 S
O103 Dy91 2.664 . S
O103 C97 1.268 . S
O104 Dy88 2.351 1_565 S
O104 C107 1.249 1_455 S
O105 Dy91 2.326 1_565 S
O105 C107 1.267 . S
C106 O98 1.249 . S
C106 O99 1.267 . S
C107 O104 1.249 1_655 S
C107 O105 1.267 . S
Dy108 O112 2.398 . S
Dy108 O113 2.491 . S
Dy108 O114 2.403 1_545 S
Dy108 O115 2.664 . S
Dy108 O119 2.326 . S
Dy108 O123 2.310 . S
Dy108 O124 2.351 . S
C109 O120 1.185 1_565 S
C109 O121 1.355 . S
C110 O112 1.185 . S
C110 O113 1.355 . S
Dy111 O115 2.310 . S
Dy111 O118 2.351 . S
Dy111 O120 2.398 1_554 S
Dy111 O121 2.491 1_544 S
Dy111 O122 2.403 . S
Dy111 O123 2.664 . S
Dy111 O125 2.326 . S
O112 Dy108 2.398 . S
O112 C110 1.185 . S
O113 Dy108 2.491 . S
O113 C110 1.355 . S
O114 Dy108 2.403 1_565 S
O114 C116 1.254 . S
O115 Dy108 2.664 . S
O115 Dy111 2.310 . S
O115 C116 1.268 1_545 S
C116 O114 1.254 . S
C116 O115 1.268 1_565 S
C117 O122 1.254 . S
C117 O123 1.268 . S
O118 Dy111 2.351 . S
O118 C126 1.249 . S
O119 Dy108 2.326 . S
O119 C126 1.267 . S
O120 C109 1.185 1_545 S
O120 Dy111 2.398 1_556 S
O121 C109 1.355 . S
O121 Dy111 2.491 1_566 S
O122 Dy111 2.403 . S
O122 C117 1.254 . S
O123 Dy108 2.310 . S
O123 Dy111 2.664 . S
O123 C117 1.268 . S
O124 Dy108 2.351 . S
O124 C127 1.249 . S
O125 Dy111 2.326 . S
O125 C127 1.267 . S
C126 O118 1.249 . S
C126 O119 1.267 . S
C127 O124 1.249 . S
C127 O125 1.267 . S
Dy128 O132 2.398 . S
Dy128 O133 2.491 . S
Dy128 O134 2.403 . S
Dy128 O135 2.664 . S
Dy128 O139 2.326 . S
Dy128 O143 2.310 . S
Dy128 O144 2.351 . S
C129 O140 1.185 . S
C129 O141 1.355 . S
C130 O132 1.185 . S
C130 O133 1.355 . S
Dy131 O135 2.310 . S
Dy131 O138 2.351 . S
Dy131 O140 2.398 . S
Dy131 O141 2.491 . S
Dy131 O142 2.403 . S
Dy131 O143 2.664 . S
Dy131 O145 2.326 . S
O132 Dy128 2.398 . S
O132 C130 1.185 . S
O133 Dy128 2.491 . S
O133 C130 1.355 . S
O134 Dy128 2.403 . S
O134 C136 1.254 . S
O135 Dy128 2.664 . S
O135 Dy131 2.310 . S
O135 C136 1.268 . S
C136 O134 1.254 . S
C136 O135 1.268 . S
C137 O142 1.254 . S
C137 O143 1.268 . S
O138 Dy131 2.351 . S
O138 C146 1.249 . S
O139 Dy128 2.326 . S
O139 C146 1.267 . S
O140 C129 1.185 . S
O140 Dy131 2.398 . S
O141 C129 1.355 . S
O141 Dy131 2.491 . S
O142 Dy131 2.403 . S
O142 C137 1.254 . S
O143 Dy128 2.310 . S
O143 Dy131 2.664 . S
O143 C137 1.268 . S
O144 Dy128 2.351 . S
O144 C147 1.249 . S
O145 Dy131 2.326 . S
O145 C147 1.267 . S
C146 O138 1.249 . S
C146 O139 1.267 . S
C147 O144 1.249 . S
C147 O145 1.267 . S
Dy148 O152 2.398 . S
Dy148 O153 2.491 . S
Dy148 O154 2.403 . S
Dy148 O155 2.664 . S
Dy148 O159 2.326 . S
Dy148 O163 2.310 . S
Dy148 O164 2.351 1_455 S
C149 O160 1.187 . S
C149 O161 1.355 1_556 S
C150 O152 1.185 . S
C150 O153 1.355 . S
Dy151 O155 2.310 . S
Dy151 O158 2.351 . S
Dy151 O160 2.397 1_454 S
Dy151 O161 2.491 1_455 S
Dy151 O162 2.403 1_554 S
Dy151 O163 2.664 . S
Dy151 O165 2.326 1_454 S
O152 Dy148 2.398 . S
O152 C150 1.185 . S
O153 Dy148 2.491 . S
O153 C150 1.355 . S
O154 Dy148 2.403 . S
O154 C156 1.270 . S
O155 Dy148 2.664 . S
O155 Dy151 2.310 . S
O155 C156 1.276 . S
C156 O154 1.270 . S
C156 O155 1.276 . S
C157 O162 1.254 . S
C157 O163 1.268 1_556 S
O158 Dy151 2.351 . S
O158 C166 1.249 . S
O159 Dy148 2.326 . S
O159 C166 1.267 . S
O160 C149 1.187 . S
O160 Dy151 2.397 1_656 S
O161 C149 1.355 1_554 S
O161 Dy151 2.491 1_655 S
O162 Dy151 2.403 1_556 S
O162 C157 1.254 . S
O163 Dy148 2.310 . S
O163 Dy151 2.664 . S
O163 C157 1.268 1_554 S
O164 Dy148 2.351 1_655 S
O164 C167 1.249 . S
O165 Dy151 2.326 1_656 S
O165 C167 1.267 1_556 S
C166 O158 1.249 . S
C166 O159 1.267 . S
C167 O164 1.249 . S
C167 O165 1.267 1_554 S
C168 C169 1.349 . S
C168 C170 1.327 . S
C168 H193 0.950 . S
C169 C168 1.349 . S
C169 C185 1.349 . S
C170 C168 1.327 . S
C170 C189 1.429 . S
C170 H194 0.950 . S
C171 C188 1.574 . S
C171 C190 1.368 . S
C171 H195 0.949 . S
H172 C176 0.949 . S
C173 C174 1.349 . S
C173 C175 1.327 . S
C173 H196 0.950 . S
C174 C173 1.349 . S
C174 C186 1.349 . S
C175 C173 1.327 . S
C175 C191 1.429 . S
C175 H197 0.950 . S
C176 H172 0.949 . S
C176 C184 1.574 . S
C176 C192 1.368 . S
H177 C185 0.950 . S
H178 C183 0.950 . S
H179 C184 0.949 . S
H180 C186 0.950 . S
H181 C187 0.950 . S
H182 C188 0.949 . S
C183 H178 0.950 . S
C183 C185 1.327 . S
C183 C189 1.429 . S
C184 C176 1.574 . S
C184 H179 0.949 . S
C184 C190 1.368 . S
C185 C169 1.349 . S
C185 H177 0.950 . S
C185 C183 1.327 . S
C186 C174 1.349 . S
C186 H180 0.950 . S
C186 C187 1.327 . S
C187 H181 0.950 . S
C187 C186 1.327 . S
C187 C191 1.429 . S
C188 C171 1.574 . S
C188 H182 0.949 . S
C188 C192 1.368 . S
C189 C170 1.429 . S
C189 C183 1.429 . S
C189 C190 1.523 . S
C190 C171 1.368 . S
C190 C184 1.368 . S
C190 C189 1.523 . S
C191 C175 1.429 . S
C191 C187 1.429 . S
C191 C192 1.523 . S
C192 C176 1.368 . S
C192 C188 1.368 . S
C192 C191 1.523 . S
H193 C168 0.950 . S
H194 C170 0.950 . S
H195 C171 0.949 . S
H196 C173 0.950 . S
H197 C175 0.950 . S
C198 C199 1.349 . S
C198 C200 1.327 . S
C198 H223 0.950 . S
C199 C198 1.349 . S
C199 C215 1.349 . S
C200 C198 1.327 . S
C200 C219 1.429 . S
C200 H224 0.950 . S
C201 C218 1.574 . S
C201 C220 1.368 . S
C201 H225 0.949 . S
H202 C206 0.949 . S
C203 C204 1.348 . S
C203 C205 1.327 . S
C203 H226 0.951 1_565 S
C204 C203 1.348 . S
C204 C216 1.349 . S
C205 C203 1.327 . S
C205 C221 1.429 . S
C205 H227 0.950 1_565 S
C206 H202 0.949 . S
C206 C214 1.574 . S
C206 C222 1.368 . S
H207 C215 0.950 . S
H208 C213 0.950 . S
H209 C214 0.949 . S
H210 C216 0.950 . S
H211 C217 0.950 . S
H212 C218 0.949 . S
C213 H208 0.950 . S
C213 C215 1.327 . S
C213 C219 1.429 . S
C214 C206 1.574 . S
C214 H209 0.949 . S
C214 C220 1.368 . S
C215 C199 1.349 . S
C215 H207 0.950 . S
C215 C213 1.327 . S
C216 C204 1.349 . S
C216 H210 0.950 . S
C216 C217 1.327 . S
C217 H211 0.950 . S
C217 C216 1.327 . S
C217 C221 1.429 . S
C218 C201 1.574 . S
C218 H212 0.949 . S
C218 C222 1.368 . S
C219 C200 1.429 . S
C219 C213 1.429 . S
C219 C220 1.523 . S
C220 C201 1.368 . S
C220 C214 1.368 . S
C220 C219 1.523 . S
C221 C205 1.429 . S
C221 C217 1.429 . S
C221 C222 1.523 . S
C222 C206 1.368 . S
C222 C218 1.368 . S
C222 C221 1.523 . S
H223 C198 0.950 . S
H224 C200 0.950 . S
H225 C201 0.949 . S
H226 C203 0.951 1_545 S
H227 C205 0.950 1_545 S
C228 C229 1.349 . S
C228 C230 1.327 . S
C228 H253 0.950 . S
C229 C228 1.349 . S
C229 C245 1.349 . S
C230 C228 1.327 . S
C230 C249 1.429 . S
C230 H254 0.950 . S
C231 C248 1.574 . S
C231 C250 1.368 . S
C231 H255 0.949 . S
H232 C236 0.949 . S
C233 C234 1.349 . S
C233 C235 1.327 . S
C233 H256 0.950 . S
C234 C233 1.349 . S
C234 C246 1.349 . S
C235 C233 1.327 . S
C235 C251 1.429 . S
C235 H257 0.950 . S
C236 H232 0.949 . S
C236 C244 1.574 . S
C236 C252 1.368 . S
H237 C245 0.950 . S
H238 C243 0.950 . S
H239 C244 0.949 . S
H240 C246 0.950 . S
H241 C247 0.950 . S
H242 C248 0.949 . S
C243 H238 0.950 . S
C243 C245 1.327 . S
C243 C249 1.429 . S
C244 C236 1.574 . S
C244 H239 0.949 . S
C244 C250 1.368 . S
C245 C229 1.349 . S
C245 H237 0.950 . S
C245 C243 1.327 . S
C246 C234 1.349 . S
C246 H240 0.950 . S
C246 C247 1.327 . S
C247 H241 0.950 . S
C247 C246 1.327 . S
C247 C251 1.429 . S
C248 C231 1.574 . S
C248 H242 0.949 . S
C248 C252 1.368 . S
C249 C230 1.429 . S
C249 C243 1.429 . S
C249 C250 1.523 . S
C250 C231 1.368 . S
C250 C244 1.368 . S
C250 C249 1.523 . S
C251 C235 1.429 . S
C251 C247 1.429 . S
C251 C252 1.523 . S
C252 C236 1.368 . S
C252 C248 1.368 . S
C252 C251 1.523 . S
H253 C228 0.950 . S
H254 C230 0.950 . S
H255 C231 0.949 . S
H256 C233 0.950 . S
H257 C235 0.950 . S
C258 C259 1.349 . S
C258 C260 1.327 . S
C258 H283 0.950 . S
C259 C258 1.349 . S
C259 C275 1.349 . S
C260 C258 1.327 . S
C260 C279 1.429 . S
C260 H284 0.950 . S
C261 C278 1.574 . S
C261 C280 1.368 . S
C261 H285 0.949 . S
H262 C266 0.949 . S
C263 C264 1.349 . S
C263 C265 1.327 . S
C263 H286 0.950 1_655 S
C264 C263 1.349 . S
C264 C276 1.349 . S
C265 C263 1.327 . S
C265 C281 1.429 . S
C265 H287 0.950 . S
C266 H262 0.949 . S
C266 C274 1.574 . S
C266 C282 1.368 . S
H267 C275 0.950 . S
H268 C273 0.950 . S
H269 C274 0.949 . S
H270 C276 0.950 . S
H271 C277 0.950 . S
H272 C278 0.949 . S
C273 H268 0.950 . S
C273 C275 1.327 . S
C273 C279 1.429 . S
C274 C266 1.574 . S
C274 H269 0.949 . S
C274 C280 1.368 . S
C275 C259 1.349 . S
C275 H267 0.950 . S
C275 C273 1.327 . S
C276 C264 1.349 . S
C276 H270 0.950 . S
C276 C277 1.327 . S
C277 H271 0.950 . S
C277 C276 1.327 . S
C277 C281 1.429 . S
C278 C261 1.574 . S
C278 H272 0.949 . S
C278 C282 1.368 . S
C279 C260 1.429 . S
C279 C273 1.429 . S
C279 C280 1.523 . S
C280 C261 1.368 . S
C280 C274 1.368 . S
C280 C279 1.523 . S
C281 C265 1.429 . S
C281 C277 1.429 . S
C281 C282 1.523 . S
C282 C266 1.368 . S
C282 C278 1.368 . S
C282 C281 1.523 . S
H283 C258 0.950 . S
H284 C260 0.950 . S
H285 C261 0.949 . S
H286 C263 0.950 1_455 S
H287 C265 0.950 . S
C288 C289 1.349 . S
C288 C290 1.327 . S
C288 H313 0.950 . S
C289 C288 1.349 . S
C289 C305 1.349 . S
C290 C288 1.327 . S
C290 C309 1.429 . S
C290 H314 0.950 . S
C291 C308 1.574 . S
C291 C310 1.368 . S
C291 H315 0.949 . S
H292 C296 0.949 . S
C293 C294 1.349 . S
C293 C295 1.327 . S
C293 H316 0.950 . S
C294 C293 1.349 . S
C294 C306 1.349 . S
C295 C293 1.327 . S
C295 C311 1.429 . S
C295 H317 0.950 . S
C296 H292 0.949 . S
C296 C304 1.574 . S
C296 C312 1.368 . S
H297 C305 0.950 . S
H298 C303 0.950 . S
H299 C304 0.949 . S
H300 C306 0.950 . S
H301 C307 0.950 . S
H302 C308 0.949 . S
C303 H298 0.950 . S
C303 C305 1.327 . S
C303 C309 1.429 . S
C304 C296 1.574 . S
C304 H299 0.949 . S
C304 C310 1.368 . S
C305 C289 1.349 . S
C305 H297 0.950 . S
C305 C303 1.327 . S
C306 C294 1.349 . S
C306 H300 0.950 . S
C306 C307 1.327 . S
C307 H301 0.950 . S
C307 C306 1.327 . S
C307 C311 1.429 . S
C308 C291 1.574 . S
C308 H302 0.949 . S
C308 C312 1.368 . S
C309 C290 1.429 . S
C309 C303 1.429 . S
C309 C310 1.523 . S
C310 C291 1.368 . S
C310 C304 1.368 . S
C310 C309 1.523 . S
C311 C295 1.429 . S
C311 C307 1.429 . S
C311 C312 1.523 . S
C312 C296 1.368 . S
C312 C308 1.368 . S
C312 C311 1.523 . S
H313 C288 0.950 . S
H314 C290 0.950 . S
H315 C291 0.949 . S
H316 C293 0.950 . S
H317 C295 0.950 . S
C318 C319 1.349 . S
C318 C320 1.327 . S
C318 H343 0.950 . S
C319 C318 1.349 . S
C319 C335 1.349 . S
C320 C318 1.327 . S
C320 C339 1.429 . S
C320 H344 0.950 . S
C321 C338 1.574 . S
C321 C340 1.368 . S
C321 H345 0.949 . S
H322 C326 0.949 1_545 S
C323 C324 1.349 1_565 S
C323 C325 1.327 . S
C323 H346 0.950 . S
C324 C323 1.349 1_545 S
C324 C336 1.349 . S
C325 C323 1.327 . S
C325 C341 1.429 . S
C325 H347 0.950 . S
C326 H322 0.949 1_565 S
C326 C334 1.574 . S
C326 C342 1.368 . S
H327 C335 0.950 . S
H328 C333 0.950 . S
H329 C334 0.949 . S
H330 C336 0.950 . S
H331 C337 0.950 . S
H332 C338 0.949 . S
C333 H328 0.950 . S
C333 C335 1.327 . S
C333 C339 1.429 . S
C334 C326 1.574 . S
C334 H329 0.949 . S
C334 C340 1.368 . S
C335 C319 1.349 . S
C335 H327 0.950 . S
C335 C333 1.327 . S
C336 C324 1.349 . S
C336 H330 0.950 . S
C336 C337 1.327 . S
C337 H331 0.950 . S
C337 C336 1.327 . S
C337 C341 1.429 1_545 S
C338 C321 1.574 . S
C338 H332 0.949 . S
C338 C342 1.368 . S
C339 C320 1.429 . S
C339 C333 1.429 . S
C339 C340 1.523 . S
C340 C321 1.368 . S
C340 C334 1.368 . S
C340 C339 1.523 . S
C341 C325 1.429 . S
C341 C337 1.429 1_565 S
C341 C342 1.523 . S
C342 C326 1.368 . S
C342 C338 1.368 . S
C342 C341 1.523 . S
H343 C318 0.950 . S
H344 C320 0.950 . S
H345 C321 0.949 . S
H346 C323 0.950 . S
H347 C325 0.950 . S
C348 C349 1.349 . S
C348 C350 1.327 . S
C348 H373 0.950 . S
C349 C348 1.349 . S
C349 C365 1.349 . S
C350 C348 1.327 . S
C350 C369 1.429 . S
C350 H374 0.950 . S
C351 C368 1.574 . S
C351 C370 1.368 . S
C351 H375 0.949 . S
H352 C356 0.949 . S
C353 C354 1.349 1_554 S
C353 C355 1.327 1_554 S
C353 H376 0.950 . S
C354 C353 1.349 1_556 S
C354 C366 1.349 . S
C355 C353 1.327 1_556 S
C355 C371 1.429 . S
C355 H377 0.950 . S
C356 H352 0.949 . S
C356 C364 1.574 . S
C356 C372 1.368 . S
H357 C365 0.950 . S
H358 C363 0.950 . S
H359 C364 0.949 . S
H360 C366 0.950 . S
H361 C367 0.950 . S
H362 C368 0.949 . S
C363 H358 0.950 . S
C363 C365 1.327 . S
C363 C369 1.429 . S
C364 C356 1.574 . S
C364 H359 0.949 . S
C364 C370 1.368 . S
C365 C349 1.349 . S
C365 H357 0.950 . S
C365 C363 1.327 . S
C366 C354 1.349 . S
C366 H360 0.950 . S
C366 C367 1.327 . S
C367 H361 0.950 . S
C367 C366 1.327 . S
C367 C371 1.429 . S
C368 C351 1.574 . S
C368 H362 0.949 . S
C368 C372 1.368 . S
C369 C350 1.429 . S
C369 C363 1.429 . S
C369 C370 1.523 . S
C370 C351 1.368 . S
C370 C364 1.368 . S
C370 C369 1.523 . S
C371 C355 1.429 . S
C371 C367 1.429 . S
C371 C372 1.523 . S
C372 C356 1.368 . S
C372 C368 1.368 . S
C372 C371 1.523 . S
H373 C348 0.950 . S
H374 C350 0.950 . S
H375 C351 0.949 . S
H376 C353 0.950 . S
H377 C355 0.950 . S
C378 C379 1.349 . S
C378 C380 1.327 . S
C378 H403 0.950 . S
C379 C378 1.349 . S
C379 C395 1.349 . S
C380 C378 1.327 . S
C380 C399 1.429 . S
C380 H404 0.950 . S
C381 C398 1.574 . S
C381 C400 1.368 . S
C381 H405 0.949 . S
H382 C386 0.949 . S
C383 C384 1.349 . S
C383 C385 1.327 . S
C383 H406 0.950 . S
C384 C383 1.349 . S
C384 C396 1.349 . S
C385 C383 1.327 . S
C385 C401 1.429 . S
C385 H407 0.950 . S
C386 H382 0.949 . S
C386 C394 1.574 . S
C386 C402 1.368 . S
H387 C395 0.950 . S
H388 C393 0.950 . S
H389 C394 0.949 . S
H390 C396 0.950 . S
H391 C397 0.950 . S
H392 C398 0.949 . S
C393 H388 0.950 . S
C393 C395 1.327 . S
C393 C399 1.429 . S
C394 C386 1.574 . S
C394 H389 0.949 . S
C394 C400 1.368 . S
C395 C379 1.349 . S
C395 H387 0.950 . S
C395 C393 1.327 . S
C396 C384 1.349 . S
C396 H390 0.950 . S
C396 C397 1.327 . S
C397 H391 0.950 . S
C397 C396 1.327 . S
C397 C401 1.429 . S
C398 C381 1.574 . S
C398 H392 0.949 . S
C398 C402 1.368 . S
C399 C380 1.429 . S
C399 C393 1.429 . S
C399 C400 1.523 . S
C400 C381 1.368 . S
C400 C394 1.368 . S
C400 C399 1.523 . S
C401 C385 1.429 . S
C401 C397 1.429 . S
C401 C402 1.523 . S
C402 C386 1.368 . S
C402 C398 1.368 . S
C402 C401 1.523 . S
H403 C378 0.950 . S
H404 C380 0.950 . S
H405 C381 0.949 . S
H406 C383 0.950 . S
H407 C385 0.950 . S
C408 C409 1.349 . S
C408 C410 1.327 . S
C408 H433 0.950 . S
C409 C408 1.349 . S
C409 C425 1.349 . S
C410 C408 1.327 . S
C410 C429 1.429 . S
C410 H434 0.950 . S
C411 C428 1.574 . S
C411 C430 1.368 . S
C411 H435 0.949 . S
H412 C416 0.949 . S
C413 C414 1.349 . S
C413 C415 1.327 . S
C413 H436 0.950 . S
C414 C413 1.349 . S
C414 C426 1.349 . S
C415 C413 1.327 . S
C415 C431 1.429 . S
C415 H437 0.950 . S
C416 H412 0.949 . S
C416 C424 1.574 . S
C416 C432 1.368 . S
H417 C425 0.950 . S
H418 C423 0.950 . S
H419 C424 0.949 . S
H420 C426 0.950 . S
H421 C427 0.950 . S
H422 C428 0.949 . S
C423 H418 0.950 . S
C423 C425 1.327 . S
C423 C429 1.429 . S
C424 C416 1.574 . S
C424 H419 0.949 . S
C424 C430 1.368 . S
C425 C409 1.349 . S
C425 H417 0.950 . S
C425 C423 1.327 . S
C426 C414 1.349 . S
C426 H420 0.950 . S
C426 C427 1.327 . S
C427 H421 0.950 . S
C427 C426 1.327 . S
C427 C431 1.429 . S
C428 C411 1.574 . S
C428 H422 0.949 . S
C428 C432 1.368 . S
C429 C410 1.429 . S
C429 C423 1.429 . S
C429 C430 1.523 . S
C430 C411 1.368 . S
C430 C424 1.368 . S
C430 C429 1.523 . S
C431 C415 1.429 . S
C431 C427 1.429 . S
C431 C432 1.523 . S
C432 C416 1.368 . S
C432 C428 1.368 . S
C432 C431 1.523 . S
H433 C408 0.950 . S
H434 C410 0.950 . S
H435 C411 0.949 . S
H436 C413 0.950 . S
H437 C415 0.950 . S
C438 C439 1.349 . S
C438 C440 1.327 . S
C438 H463 0.950 . S
C439 C438 1.349 . S
C439 C455 1.349 . S
C440 C438 1.327 . S
C440 C459 1.429 . S
C440 H464 0.950 . S
C441 C458 1.574 . S
C441 C460 1.368 . S
C441 H465 0.949 . S
H442 C446 0.949 . S
C443 C444 1.349 . S
C443 C445 1.327 . S
C443 H466 0.950 . S
C444 C443 1.349 . S
C444 C456 1.349 1_554 S
C445 C443 1.327 . S
C445 C461 1.429 1_554 S
C445 H467 0.950 . S
C446 H442 0.949 . S
C446 C454 1.574 . S
C446 C462 1.368 . S
H447 C455 0.950 . S
H448 C453 0.950 . S
H449 C454 0.949 . S
H450 C456 0.950 . S
H451 C457 0.950 . S
H452 C458 0.949 1_554 S
C453 H448 0.950 . S
C453 C455 1.327 . S
C453 C459 1.429 . S
C454 C446 1.574 . S
C454 H449 0.949 . S
C454 C460 1.368 . S
C455 C439 1.349 . S
C455 H447 0.950 . S
C455 C453 1.327 . S
C456 C444 1.349 1_556 S
C456 H450 0.950 . S
C456 C457 1.327 . S
C457 H451 0.950 . S
C457 C456 1.327 . S
C457 C461 1.429 . S
C458 C441 1.574 . S
C458 H452 0.949 1_556 S
C458 C462 1.368 . S
C459 C440 1.429 . S
C459 C453 1.429 . S
C459 C460 1.523 . S
C460 C441 1.368 . S
C460 C454 1.368 . S
C460 C459 1.523 . S
C461 C445 1.429 1_556 S
C461 C457 1.429 . S
C461 C462 1.523 . S
C462 C446 1.368 . S
C462 C458 1.368 . S
C462 C461 1.523 . S
H463 C438 0.950 . S
H464 C440 0.950 . S
H465 C441 0.949 . S
H466 C443 0.950 . S
H467 C445 0.950 . S
C468 C469 1.349 . S
C468 C470 1.327 . S
C468 H493 0.950 . S
C469 C468 1.349 . S
C469 C485 1.349 . S
C470 C468 1.327 . S
C470 C489 1.429 . S
C470 H494 0.950 . S
C471 C488 1.574 . S
C471 C490 1.368 . S
C471 H495 0.949 . S
H472 C476 0.949 . S
C473 C474 1.349 . S
C473 C475 1.327 . S
C473 H496 0.950 . S
C474 C473 1.349 . S
C474 C486 1.349 . S
C475 C473 1.327 . S
C475 C491 1.429 . S
C475 H497 0.950 . S
C476 H472 0.949 . S
C476 C484 1.574 . S
C476 C492 1.368 . S
H477 C485 0.950 . S
H478 C483 0.950 . S
H479 C484 0.949 . S
H480 C486 0.948 1_455 S
H481 C487 0.950 . S
H482 C488 0.949 . S
C483 H478 0.950 . S
C483 C485 1.327 . S
C483 C489 1.429 . S
C484 C476 1.574 . S
C484 H479 0.949 . S
C484 C490 1.368 . S
C485 C469 1.349 . S
C485 H477 0.950 . S
C485 C483 1.327 . S
C486 C474 1.349 . S
C486 H480 0.948 1_655 S
C486 C487 1.327 . S
C487 H481 0.950 . S
C487 C486 1.327 . S
C487 C491 1.429 . S
C488 C471 1.574 . S
C488 H482 0.949 . S
C488 C492 1.368 . S
C489 C470 1.429 . S
C489 C483 1.429 . S
C489 C490 1.523 . S
C490 C471 1.368 . S
C490 C484 1.368 . S
C490 C489 1.523 . S
C491 C475 1.429 . S
C491 C487 1.429 . S
C491 C492 1.523 . S
C492 C476 1.368 . S
C492 C488 1.368 . S
C492 C491 1.523 . S
H493 C468 0.950 . S
H494 C470 0.950 . S
H495 C471 0.949 . S
H496 C473 0.950 . S
H497 C475 0.950 . S
C498 C499 1.349 . S
C498 C500 1.327 . S
C498 H523 0.950 . S
C499 C498 1.349 . S
C499 C515 1.349 . S
C500 C498 1.327 . S
C500 C519 1.429 . S
C500 H524 0.950 . S
C501 C518 1.574 . S
C501 C520 1.368 . S
C501 H525 0.949 . S
H502 C506 0.949 . S
C503 C504 1.349 . S
C503 C505 1.327 . S
C503 H526 0.950 . S
C504 C503 1.349 . S
C504 C516 1.349 . S
C505 C503 1.327 . S
C505 C521 1.429 . S
C505 H527 0.950 . S
C506 H502 0.949 . S
C506 C514 1.574 . S
C506 C522 1.368 . S
H507 C515 0.950 . S
H508 C513 0.950 . S
H509 C514 0.949 . S
H510 C516 0.950 . S
H511 C517 0.950 . S
H512 C518 0.949 . S
C513 H508 0.950 . S
C513 C515 1.327 . S
C513 C519 1.429 . S
C514 C506 1.574 . S
C514 H509 0.949 . S
C514 C520 1.368 . S
C515 C499 1.349 . S
C515 H507 0.950 . S
C515 C513 1.327 . S
C516 C504 1.349 . S
C516 H510 0.950 . S
C516 C517 1.327 . S
C517 H511 0.950 . S
C517 C516 1.327 . S
C517 C521 1.429 . S
C518 C501 1.574 . S
C518 H512 0.949 . S
C518 C522 1.368 . S
C519 C500 1.429 . S
C519 C513 1.429 . S
C519 C520 1.523 . S
C520 C501 1.368 . S
C520 C514 1.368 . S
C520 C519 1.523 . S
C521 C505 1.429 . S
C521 C517 1.429 . S
C521 C522 1.523 . S
C522 C506 1.368 . S
C522 C518 1.368 . S
C522 C521 1.523 . S
H523 C498 0.950 . S
H524 C500 0.950 . S
H525 C501 0.949 . S
H526 C503 0.950 . S
H527 C505 0.950 . S
C528 C529 1.349 . S
C528 C530 1.327 . S
C528 H553 0.950 . S
C529 C528 1.349 . S
C529 C545 1.349 . S
C530 C528 1.327 . S
C530 C549 1.429 . S
C530 H554 0.950 . S
C531 C548 1.574 . S
C531 C550 1.368 . S
C531 H555 0.949 . S
H532 C536 0.949 . S
C533 C534 1.349 . S
C533 C535 1.327 . S
C533 H556 0.950 . S
C534 C533 1.349 . S
C534 C546 1.349 . S
C535 C533 1.327 . S
C535 C551 1.429 . S
C535 H557 0.950 . S
C536 H532 0.949 . S
C536 C544 1.574 . S
C536 C552 1.368 . S
H537 C545 0.950 . S
H538 C543 0.950 . S
H539 C544 0.949 . S
H540 C546 0.950 . S
H541 C547 0.950 . S
H542 C548 0.949 . S
C543 H538 0.950 . S
C543 C545 1.327 . S
C543 C549 1.429 . S
C544 C536 1.574 . S
C544 H539 0.949 . S
C544 C550 1.368 . S
C545 C529 1.349 . S
C545 H537 0.950 . S
C545 C543 1.327 . S
C546 C534 1.349 . S
C546 H540 0.950 . S
C546 C547 1.327 . S
C547 H541 0.950 . S
C547 C546 1.327 . S
C547 C551 1.429 . S
C548 C531 1.574 . S
C548 H542 0.949 . S
C548 C552 1.368 . S
C549 C530 1.429 . S
C549 C543 1.429 . S
C549 C550 1.523 . S
C550 C531 1.368 . S
C550 C544 1.368 . S
C550 C549 1.523 . S
C551 C535 1.429 . S
C551 C547 1.429 . S
C551 C552 1.523 . S
C552 C536 1.368 . S
C552 C548 1.368 . S
C552 C551 1.523 . S
H553 C528 0.950 . S
H554 C530 0.950 . S
H555 C531 0.949 . S
H556 C533 0.950 . S
H557 C535 0.950 . S
C558 C559 1.349 . S
C558 C560 1.327 . S
C558 H583 0.950 . S
C559 C558 1.349 . S
C559 C575 1.349 . S
C560 C558 1.327 . S
C560 C579 1.429 . S
C560 H584 0.950 . S
C561 C578 1.574 . S
C561 C580 1.368 . S
C561 H585 0.949 . S
H562 C566 0.949 . S
C563 C564 1.349 . S
C563 C565 1.327 . S
C563 H586 0.950 . S
C564 C563 1.349 . S
C564 C576 1.349 . S
C565 C563 1.327 . S
C565 C581 1.429 . S
C565 H587 0.950 . S
C566 H562 0.949 . S
C566 C574 1.574 . S
C566 C582 1.368 . S
H567 C575 0.950 . S
H568 C573 0.950 . S
H569 C574 0.949 . S
H570 C576 0.950 . S
H571 C577 0.950 . S
H572 C578 0.949 . S
C573 H568 0.950 . S
C573 C575 1.327 . S
C573 C579 1.429 . S
C574 C566 1.574 . S
C574 H569 0.949 . S
C574 C580 1.368 . S
C575 C559 1.349 . S
C575 H567 0.950 . S
C575 C573 1.327 . S
C576 C564 1.349 . S
C576 H570 0.950 . S
C576 C577 1.327 . S
C577 H571 0.950 . S
C577 C576 1.327 . S
C577 C581 1.429 . S
C578 C561 1.574 . S
C578 H572 0.949 . S
C578 C582 1.368 . S
C579 C560 1.429 . S
C579 C573 1.429 . S
C579 C580 1.523 . S
C580 C561 1.368 . S
C580 C574 1.368 . S
C580 C579 1.523 . S
C581 C565 1.429 . S
C581 C577 1.429 . S
C581 C582 1.523 . S
C582 C566 1.368 . S
C582 C578 1.368 . S
C582 C581 1.523 . S
H583 C558 0.950 . S
H584 C560 0.950 . S
H585 C561 0.949 . S
H586 C563 0.950 . S
H587 C565 0.950 . S
C588 C589 1.349 . S
C588 C590 1.327 . S
C588 H613 0.950 . S
C589 C588 1.349 . S
C589 C605 1.349 . S
C590 C588 1.327 . S
C590 C609 1.429 . S
C590 H614 0.950 . S
C591 C608 1.574 . S
C591 C610 1.368 . S
C591 H615 0.949 . S
H592 C596 0.949 . S
C593 C594 1.349 . S
C593 C595 1.327 . S
C593 H616 0.950 . S
C594 C593 1.349 . S
C594 C606 1.349 . S
C595 C593 1.327 . S
C595 C611 1.429 . S
C595 H617 0.950 . S
C596 H592 0.949 . S
C596 C604 1.574 . S
C596 C612 1.368 . S
H597 C605 0.950 . S
H598 C603 0.950 . S
H599 C604 0.949 . S
H600 C606 0.950 . S
H601 C607 0.950 . S
H602 C608 0.949 . S
C603 H598 0.950 . S
C603 C605 1.327 . S
C603 C609 1.429 . S
C604 C596 1.574 . S
C604 H599 0.949 . S
C604 C610 1.368 . S
C605 C589 1.349 . S
C605 H597 0.950 . S
C605 C603 1.327 . S
C606 C594 1.349 . S
C606 H600 0.950 . S
C606 C607 1.327 . S
C607 H601 0.950 . S
C607 C606 1.327 . S
C607 C611 1.429 . S
C608 C591 1.574 . S
C608 H602 0.949 . S
C608 C612 1.368 . S
C609 C590 1.429 . S
C609 C603 1.429 . S
C609 C610 1.523 . S
C610 C591 1.368 . S
C610 C604 1.368 . S
C610 C609 1.523 . S
C611 C595 1.429 . S
C611 C607 1.429 . S
C611 C612 1.523 . S
C612 C596 1.368 . S
C612 C608 1.368 . S
C612 C611 1.523 . S
H613 C588 0.950 . S
H614 C590 0.950 . S
H615 C591 0.949 . S
H616 C593 0.950 . S
H617 C595 0.950 . S
C618 C619 1.349 . S
C618 C620 1.327 . S
C618 H643 0.950 . S
C619 C618 1.349 . S
C619 C635 1.349 . S
C620 C618 1.327 . S
C620 C639 1.429 . S
C620 H644 0.950 . S
C621 C638 1.574 . S
C621 C640 1.368 . S
C621 H645 0.949 . S
H622 C626 0.949 . S
C623 C624 1.349 . S
C623 C625 1.327 . S
C623 H646 0.950 . S
C624 C623 1.349 . S
C624 C636 1.349 . S
C625 C623 1.327 . S
C625 C641 1.429 . S
C625 H647 0.950 . S
C626 H622 0.949 . S
C626 C634 1.574 . S
C626 C642 1.368 . S
H627 C635 0.950 . S
H628 C633 0.950 . S
H629 C634 0.949 . S
H630 C636 0.950 . S
H631 C637 0.950 . S
H632 C638 0.949 . S
C633 H628 0.950 . S
C633 C635 1.327 . S
C633 C639 1.429 . S
C634 C626 1.574 . S
C634 H629 0.949 . S
C634 C640 1.368 . S
C635 C619 1.349 . S
C635 H627 0.950 . S
C635 C633 1.327 . S
C636 C624 1.349 . S
C636 H630 0.950 . S
C636 C637 1.327 . S
C637 H631 0.950 . S
C637 C636 1.327 . S
C637 C641 1.429 . S
C638 C621 1.574 . S
C638 H632 0.949 . S
C638 C642 1.368 . S
C639 C620 1.429 . S
C639 C633 1.429 . S
C639 C640 1.523 . S
C640 C621 1.368 . S
C640 C634 1.368 . S
C640 C639 1.523 . S
C641 C625 1.429 . S
C641 C637 1.429 . S
C641 C642 1.523 . S
C642 C626 1.368 . S
C642 C638 1.368 . S
C642 C641 1.523 . S
H643 C618 0.950 . S
H644 C620 0.950 . S
H645 C621 0.949 . S
H646 C623 0.950 . S
H647 C625 0.950 . S
C648 C649 1.349 . S
C648 C650 1.327 . S
C648 H673 0.950 . S
C649 C648 1.349 . S
C649 C665 1.349 . S
C650 C648 1.327 . S
C650 C669 1.429 . S
C650 H674 0.950 . S
C651 C668 1.574 . S
C651 C670 1.368 . S
C651 H675 0.949 . S
H652 C656 0.949 . S
C653 C654 1.349 1_556 S
C653 C655 1.327 . S
C653 H676 0.950 1_565 S
C654 C653 1.349 1_554 S
C654 C666 1.349 . S
C655 C653 1.327 . S
C655 C671 1.429 . S
C655 H677 0.950 . S
C656 H652 0.949 . S
C656 C664 1.574 . S
C656 C672 1.368 . S
H657 C665 0.950 . S
H658 C663 0.950 . S
H659 C664 0.949 . S
H660 C666 0.950 . S
H661 C667 0.950 . S
H662 C668 0.949 . S
C663 H658 0.950 . S
C663 C665 1.327 . S
C663 C669 1.429 . S
C664 C656 1.574 . S
C664 H659 0.949 . S
C664 C670 1.368 . S
C665 C649 1.349 . S
C665 H657 0.950 . S
C665 C663 1.327 . S
C666 C654 1.349 . S
C666 H660 0.950 . S
C666 C667 1.327 1_554 S
C667 H661 0.950 . S
C667 C666 1.327 1_556 S
C667 C671 1.429 . S
C668 C651 1.574 . S
C668 H662 0.949 . S
C668 C672 1.368 . S
C669 C650 1.429 . S
C669 C663 1.429 . S
C669 C670 1.523 . S
C670 C651 1.368 . S
C670 C664 1.368 . S
C670 C669 1.523 . S
C671 C655 1.429 . S
C671 C667 1.429 . S
C671 C672 1.523 . S
C672 C656 1.368 . S
C672 C668 1.368 . S
C672 C671 1.523 . S
H673 C648 0.950 . S
H674 C650 0.950 . S
H675 C651 0.949 . S
H676 C653 0.950 1_545 S
H677 C655 0.950 . S
C678 C679 1.349 . S
C678 C680 1.327 . S
C678 H703 0.950 . S
C679 C678 1.349 . S
C679 C695 1.349 . S
C680 C678 1.327 . S
C680 C699 1.429 . S
C680 H704 0.950 . S
C681 C698 1.574 . S
C681 C700 1.368 . S
C681 H705 0.949 . S
H682 C686 0.949 . S
C683 C684 1.349 . S
C683 C685 1.327 . S
C683 H706 0.950 . S
C684 C683 1.349 . S
C684 C696 1.349 . S
C685 C683 1.327 . S
C685 C701 1.429 . S
C685 H707 0.950 . S
C686 H682 0.949 . S
C686 C694 1.574 . S
C686 C702 1.368 . S
H687 C695 0.950 . S
H688 C693 0.950 . S
H689 C694 0.949 . S
H690 C696 0.950 . S
H691 C697 0.950 . S
H692 C698 0.949 . S
C693 H688 0.950 . S
C693 C695 1.327 . S
C693 C699 1.429 . S
C694 C686 1.574 . S
C694 H689 0.949 . S
C694 C700 1.368 . S
C695 C679 1.349 . S
C695 H687 0.950 . S
C695 C693 1.327 . S
C696 C684 1.349 . S
C696 H690 0.950 . S
C696 C697 1.327 . S
C697 H691 0.950 . S
C697 C696 1.327 . S
C697 C701 1.429 . S
C698 C681 1.574 . S
C698 H692 0.949 . S
C698 C702 1.368 . S
C699 C680 1.429 . S
C699 C693 1.429 . S
C699 C700 1.523 . S
C700 C681 1.368 . S
C700 C694 1.368 . S
C700 C699 1.523 . S
C701 C685 1.429 . S
C701 C697 1.429 . S
C701 C702 1.523 . S
C702 C686 1.368 . S
C702 C698 1.368 . S
C702 C701 1.523 . S
H703 C678 0.950 . S
H704 C680 0.950 . S
H705 C681 0.949 . S
H706 C683 0.950 . S
H707 C685 0.950 . S
C708 C709 1.349 . S
C708 C710 1.327 . S
C708 H733 0.950 . S
C709 C708 1.349 . S
C709 C725 1.349 . S
C710 C708 1.327 . S
C710 C729 1.429 . S
C710 H734 0.950 . S
C711 C728 1.574 . S
C711 C730 1.368 . S
C711 H735 0.949 . S
H712 C716 0.949 . S
C713 C714 1.349 . S
C713 C715 1.327 . S
C713 H736 0.950 . S
C714 C713 1.349 . S
C714 C726 1.349 . S
C715 C713 1.327 . S
C715 C731 1.429 . S
C715 H737 0.950 . S
C716 H712 0.949 . S
C716 C724 1.574 . S
C716 C732 1.368 . S
H717 C725 0.950 . S
H718 C723 0.950 . S
H719 C724 0.949 . S
H720 C726 0.950 . S
H721 C727 0.950 . S
H722 C728 0.949 . S
C723 H718 0.950 . S
C723 C725 1.327 . S
C723 C729 1.429 . S
C724 C716 1.574 . S
C724 H719 0.949 . S
C724 C730 1.368 . S
C725 C709 1.349 . S
C725 H717 0.950 . S
C725 C723 1.327 . S
C726 C714 1.349 . S
C726 H720 0.950 . S
C726 C727 1.327 . S
C727 H721 0.950 . S
C727 C726 1.327 . S
C727 C731 1.429 . S
C728 C711 1.574 . S
C728 H722 0.949 . S
C728 C732 1.368 . S
C729 C710 1.429 . S
C729 C723 1.429 . S
C729 C730 1.523 . S
C730 C711 1.368 . S
C730 C724 1.368 . S
C730 C729 1.523 . S
C731 C715 1.429 . S
C731 C727 1.429 . S
C731 C732 1.523 . S
C732 C716 1.368 . S
C732 C728 1.368 . S
C732 C731 1.523 . S
H733 C708 0.950 . S
H734 C710 0.950 . S
H735 C711 0.949 . S
H736 C713 0.950 . S
H737 C715 0.950 . S
C738 C739 1.349 . S
C738 C740 1.327 . S
C738 H763 0.950 . S
C739 C738 1.349 . S
C739 C755 1.349 . S
C740 C738 1.327 . S
C740 C759 1.429 . S
C740 H764 0.950 . S
C741 C758 1.574 . S
C741 C760 1.368 . S
C741 H765 0.949 . S
H742 C746 0.949 . S
C743 C744 1.349 . S
C743 C745 1.327 . S
C743 H766 0.950 . S
C744 C743 1.349 . S
C744 C756 1.349 . S
C745 C743 1.327 . S
C745 C761 1.429 . S
C745 H767 0.950 . S
C746 H742 0.949 . S
C746 C754 1.574 . S
C746 C762 1.368 . S
H747 C755 0.950 . S
H748 C753 0.950 . S
H749 C754 0.949 . S
H750 C756 0.950 . S
H751 C757 0.950 . S
H752 C758 0.949 . S
C753 H748 0.950 . S
C753 C755 1.327 . S
C753 C759 1.429 . S
C754 C746 1.574 . S
C754 H749 0.949 . S
C754 C760 1.368 . S
C755 C739 1.349 . S
C755 H747 0.950 . S
C755 C753 1.327 . S
C756 C744 1.349 . S
C756 H750 0.950 . S
C756 C757 1.327 . S
C757 H751 0.950 . S
C757 C756 1.327 . S
C757 C761 1.429 . S
C758 C741 1.574 . S
C758 H752 0.949 . S
C758 C762 1.368 . S
C759 C740 1.429 . S
C759 C753 1.429 . S
C759 C760 1.523 . S
C760 C741 1.368 . S
C760 C754 1.368 . S
C760 C759 1.523 . S
C761 C745 1.429 . S
C761 C757 1.429 . S
C761 C762 1.523 . S
C762 C746 1.368 . S
C762 C758 1.368 . S
C762 C761 1.523 . S
H763 C738 0.950 . S
H764 C740 0.950 . S
H765 C741 0.949 . S
H766 C743 0.950 . S
H767 C745 0.950 . S
C768 C769 1.349 . S
C768 C770 1.327 . S
C768 H793 0.950 . S
C769 C768 1.349 . S
C769 C785 1.349 . S
C770 C768 1.327 . S
C770 C789 1.429 . S
C770 H794 0.950 . S
C771 C788 1.574 . S
C771 C790 1.368 . S
C771 H795 0.949 . S
H772 C776 0.949 . S
C773 C774 1.349 . S
C773 C775 1.327 . S
C773 H796 0.950 . S
C774 C773 1.349 . S
C774 C786 1.349 . S
C775 C773 1.327 . S
C775 C791 1.429 . S
C775 H797 0.950 . S
C776 H772 0.949 . S
C776 C784 1.574 . S
C776 C792 1.368 . S
H777 C785 0.950 . S
H778 C783 0.950 . S
H779 C784 0.949 . S
H780 C786 0.950 . S
H781 C787 0.950 . S
H782 C788 0.949 . S
C783 H778 0.950 . S
C783 C785 1.327 . S
C783 C789 1.429 . S
C784 C776 1.574 . S
C784 H779 0.949 . S
C784 C790 1.368 . S
C785 C769 1.349 . S
C785 H777 0.950 . S
C785 C783 1.327 . S
C786 C774 1.349 . S
C786 H780 0.950 . S
C786 C787 1.327 . S
C787 H781 0.950 . S
C787 C786 1.327 . S
C787 C791 1.429 . S
C788 C771 1.574 . S
C788 H782 0.949 . S
C788 C792 1.368 . S
C789 C770 1.429 . S
C789 C783 1.429 . S
C789 C790 1.523 . S
C790 C771 1.368 . S
C790 C784 1.368 . S
C790 C789 1.523 . S
C791 C775 1.429 . S
C791 C787 1.429 . S
C791 C792 1.523 . S
C792 C776 1.368 . S
C792 C788 1.368 . S
C792 C791 1.523 . S
H793 C768 0.950 . S
H794 C770 0.950 . S
H795 C771 0.949 . S
H796 C773 0.950 . S
H797 C775 0.950 . S
C798 C799 1.349 . S
C798 C800 1.327 . S
C798 H823 0.950 . S
C799 C798 1.349 . S
C799 C815 1.349 . S
C800 C798 1.327 . S
C800 C819 1.429 . S
C800 H824 0.950 . S
C801 C818 1.574 . S
C801 C820 1.368 . S
C801 H825 0.949 . S
H802 C806 0.949 . S
C803 C804 1.349 . S
C803 C805 1.327 . S
C803 H826 0.950 . S
C804 C803 1.349 . S
C804 C816 1.349 . S
C805 C803 1.327 . S
C805 C821 1.429 . S
C805 H827 0.950 . S
C806 H802 0.949 . S
C806 C814 1.574 . S
C806 C822 1.368 . S
H807 C815 0.950 . S
H808 C813 0.950 . S
H809 C814 0.949 . S
H810 C816 0.950 . S
H811 C817 0.950 . S
H812 C818 0.949 . S
C813 H808 0.950 . S
C813 C815 1.327 . S
C813 C819 1.429 . S
C814 C806 1.574 . S
C814 H809 0.949 . S
C814 C820 1.368 . S
C815 C799 1.349 . S
C815 H807 0.950 . S
C815 C813 1.327 . S
C816 C804 1.349 . S
C816 H810 0.950 . S
C816 C817 1.327 . S
C817 H811 0.950 . S
C817 C816 1.327 . S
C817 C821 1.429 . S
C818 C801 1.574 . S
C818 H812 0.949 . S
C818 C822 1.368 . S
C819 C800 1.429 . S
C819 C813 1.429 . S
C819 C820 1.523 . S
C820 C801 1.368 . S
C820 C814 1.368 . S
C820 C819 1.523 . S
C821 C805 1.429 . S
C821 C817 1.429 . S
C821 C822 1.523 . S
C822 C806 1.368 . S
C822 C818 1.368 . S
C822 C821 1.523 . S
H823 C798 0.950 . S
H824 C800 0.950 . S
H825 C801 0.949 . S
H826 C803 0.950 . S
H827 C805 0.950 . S
C828 C829 1.349 . S
C828 C830 1.327 . S
C828 H853 0.950 . S
C829 C828 1.349 . S
C829 C845 1.349 . S
C830 C828 1.327 . S
C830 C849 1.429 . S
C830 H854 0.950 . S
C831 C848 1.574 . S
C831 C850 1.368 . S
C831 H855 0.949 . S
H832 C836 0.949 . S
C833 C834 1.349 . S
C833 C835 1.327 . S
C833 H856 0.950 . S
C834 C833 1.349 . S
C834 C846 1.349 . S
C835 C833 1.327 . S
C835 C851 1.429 . S
C835 H857 0.950 . S
C836 H832 0.949 . S
C836 C844 1.574 . S
C836 C852 1.368 . S
H837 C845 0.950 . S
H838 C843 0.950 . S
H839 C844 0.949 . S
H840 C846 0.950 . S
H841 C847 0.950 . S
H842 C848 0.949 . S
C843 H838 0.950 . S
C843 C845 1.327 . S
C843 C849 1.429 . S
C844 C836 1.574 . S
C844 H839 0.949 . S
C844 C850 1.368 . S
C845 C829 1.349 . S
C845 H837 0.950 . S
C845 C843 1.327 . S
C846 C834 1.349 . S
C846 H840 0.950 . S
C846 C847 1.327 . S
C847 H841 0.950 . S
C847 C846 1.327 . S
C847 C851 1.429 . S
C848 C831 1.574 . S
C848 H842 0.949 . S
C848 C852 1.368 . S
C849 C830 1.429 . S
C849 C843 1.429 . S
C849 C850 1.523 . S
C850 C831 1.368 . S
C850 C844 1.368 . S
C850 C849 1.523 . S
C851 C835 1.429 . S
C851 C847 1.429 . S
C851 C852 1.523 . S
C852 C836 1.368 . S
C852 C848 1.368 . S
C852 C851 1.523 . S
H853 C828 0.950 . S
H854 C830 0.950 . S
H855 C831 0.949 . S
H856 C833 0.950 . S
H857 C835 0.950 . S
C858 C859 1.349 . S
C858 C860 1.327 . S
C858 H883 0.950 . S
C859 C858 1.349 . S
C859 C875 1.349 . S
C860 C858 1.327 . S
C860 C879 1.429 . S
C860 H884 0.950 . S
C861 C878 1.574 . S
C861 C880 1.368 . S
C861 H885 0.949 . S
H862 C866 0.949 . S
C863 C864 1.349 . S
C863 C865 1.327 . S
C863 H886 0.950 . S
C864 C863 1.349 . S
C864 C876 1.349 . S
C865 C863 1.327 . S
C865 C881 1.429 . S
C865 H887 0.950 . S
C866 H862 0.949 . S
C866 C874 1.574 . S
C866 C882 1.368 . S
H867 C875 0.950 . S
H868 C873 0.950 . S
H869 C874 0.949 . S
H870 C876 0.950 . S
H871 C877 0.950 . S
H872 C878 0.949 . S
C873 H868 0.950 . S
C873 C875 1.327 . S
C873 C879 1.429 . S
C874 C866 1.574 . S
C874 H869 0.949 . S
C874 C880 1.368 . S
C875 C859 1.349 . S
C875 H867 0.950 . S
C875 C873 1.327 . S
C876 C864 1.349 . S
C876 H870 0.950 . S
C876 C877 1.327 . S
C877 H871 0.950 . S
C877 C876 1.327 . S
C877 C881 1.429 . S
C878 C861 1.574 . S
C878 H872 0.949 . S
C878 C882 1.368 . S
C879 C860 1.429 . S
C879 C873 1.429 . S
C879 C880 1.523 . S
C880 C861 1.368 . S
C880 C874 1.368 . S
C880 C879 1.523 . S
C881 C865 1.429 . S
C881 C877 1.429 . S
C881 C882 1.523 . S
C882 C866 1.368 . S
C882 C878 1.368 . S
C882 C881 1.523 . S
H883 C858 0.950 . S
H884 C860 0.950 . S
H885 C861 0.949 . S
H886 C863 0.950 . S
H887 C865 0.950 . S
C169 C4 1.556 . S
C174 C90 1.552 . S
C199 C16 1.676 . S
C204 C109 1.646 . S
C234 C146 1.275 . S
C229 C32 1.288 . S
C259 C43 1.491 . S
C264 C156 1.433 1_655 S
C294 C126 2.430 . S
C289 C5 2.393 . S
C324 C96 1.206 . S
C319 C21 1.229 . S
C354 C167 1.383 1_556 S
C349 C27 1.403 . S
C384 C137 1.230 . S
C379 C37 1.242 . S
C409 C10 1.691 . S
C414 C150 1.682 . S
C444 C117 1.837 . S
C439 C26 1.898 . S
C469 C38 1.510 . S
C474 C107 1.506 . S
C499 C15 1.359 . S
C504 C129 1.344 . S
C534 C89 1.707 . S
C529 C48 1.721 . S
C559 C59 1.456 . S
C564 C110 1.432 . S
C589 C76 1.640 . S
C594 C147 1.617 . S
C619 C87 1.330 . S
C624 C157 1.311 . S
C649 C54 1.721 . S
C654 C127 1.735 1_565 S
C684 C97 1.965 . S
C679 C60 2.024 . S
C714 C166 1.295 . S
C709 C71 1.312 . S
C744 C136 1.162 . S
C739 C82 1.195 . S
C769 C49 1.941 . S
C774 C149 1.967 . S
C804 C116 1.366 . S
C799 C70 1.414 . S
C834 C106 1.892 . S
C829 C81 1.902 . S
C859 C65 1.273 . S
C864 C130 1.256 . S
