# Generated by pormake.
# Topology ftw, (4,12)-cn, num edge types: 1
# Building blocks:
#     Node 0, Type 0, BuildingBlock: MUDLON_clean_linker_0, # of connection points: 4
#     Node 1, Type 0, BuildingBlock: MUDLON_clean_linker_0, # of connection points: 4
#     Node 2, Type 0, BuildingBlock: MUDLON_clean_linker_0, # of connection points: 4
#     Node 3, Type 1, BuildingBlock: EZIPEK_clean_sbu_0, # of connection points: 12
#     Edge 4, Type (0, 1), BuildingBlock: ZUJKAS_clean_linker_0, # of connection points: 2
#     Edge 5, Type (0, 1), BuildingBlock: ZUJKAS_clean_linker_0, # of connection points: 2
#     Edge 6, Type (0, 1), BuildingBlock: ZUJKAS_clean_linker_0, # of connection points: 2
#     Edge 7, Type (0, 1), BuildingBlock: ZUJKAS_clean_linker_0, # of connection points: 2
#     Edge 8, Type (0, 1), BuildingBlock: ZUJKAS_clean_linker_0, # of connection points: 2
#     Edge 9, Type (0, 1), BuildingBlock: ZUJKAS_clean_linker_0, # of connection points: 2
#     Edge 10, Type (0, 1), BuildingBlock: ZUJKAS_clean_linker_0, # of connection points: 2
#     Edge 11, Type (0, 1), BuildingBlock: ZUJKAS_clean_linker_0, # of connection points: 2
#     Edge 12, Type (0, 1), BuildingBlock: ZUJKAS_clean_linker_0, # of connection points: 2
#     Edge 13, Type (0, 1), BuildingBlock: ZUJKAS_clean_linker_0, # of connection points: 2
#     Edge 14, Type (0, 1), BuildingBlock: ZUJKAS_clean_linker_0, # of connection points: 2
#     Edge 15, Type (0, 1), BuildingBlock: ZUJKAS_clean_linker_0, # of connection points: 2
# Relax obj value: 0.079
# Max RMSD: 0.225
# Mean RMSD: 0.171
data_MOF--net-ftw--node1-EZIPEK_clean_sbu_0--node2-MUDLON_clean_linker_0--edge1-ZUJKAS_clean_linker_0
_symmetry_space_group_name_H-M    P1
_symmetry_Int_Tables_number       1
_symmetry_cell_setting            triclinic
loop_
_symmetry_equiv_pos_as_xyz
'x, y, z'
_cell_length_a     35.985748
_cell_length_b     38.630956
_cell_length_c     36.352313
_cell_angle_alpha  89.873158
_cell_angle_beta   89.936113
_cell_angle_gamma 90.000327
loop_
_atom_site_label
_atom_site_type_symbol
_atom_site_fract_x
_atom_site_fract_y
_atom_site_fract_z
_atom_type_partial_charge
H0 H 0.93186 0.70439 0.5568 0.0
N1 N 0.97996 0.65991 0.52815 0.0
H2 H 0.93888 0.73959 0.61198 0.0
H3 H 0.04055 0.66068 0.57408 0.0
H4 H 0.04714 0.69413 0.6306 0.0
H5 H 0.04291 0.69547 0.50885 0.0
H6 H 0.05313 0.72777 0.45163 0.0
H7 H 0.93431 0.66521 0.47103 0.0
H8 H 0.94403 0.69762 0.41385 0.0
H9 H 0.9357 0.60847 0.54927 0.0
H10 H 0.04638 0.62962 0.51001 0.0
H11 H 0.94976 0.5465 0.55119 0.0
H12 H 0.06032 0.56781 0.51029 0.0
H13 H 0.97617 0.39453 0.56776 0.0
H14 H 0.969 0.36019 0.62403 0.0
H15 H 0.08745 0.34143 0.62523 0.0
H16 H 0.09392 0.37481 0.56835 0.0
H17 H 0.09242 0.39571 0.4789 0.0
H18 H 0.08685 0.36205 0.42213 0.0
H19 H 0.97227 0.33966 0.44876 0.0
H20 H 0.97804 0.37375 0.50504 0.0
H21 H 0.9739 0.43589 0.51341 0.0
H22 H 0.95974 0.4977 0.51298 0.0
H23 H 0.07169 0.51978 0.54914 0.0
N24 N 0.04094 0.40609 0.53007 0.0
H25 H 0.08583 0.45786 0.54797 0.0
C26 C 0.98528 0.67958 0.56149 0.0
C27 C 0.95706 0.70209 0.57288 0.0
C28 C 0.96108 0.72198 0.6047 0.0
C29 C -0.00656 0.71958 0.62633 0.0
C30 C 0.02194 0.69705 0.61466 0.0
C31 C 0.01807 0.67751 0.58242 0.0
C32 C -0.01235 0.67806 0.49422 0.0
C33 C 0.02129 0.69573 0.48819 0.0
C34 C 0.02701 0.71431 0.45551 0.0
C35 C -0.00064 0.71538 0.42813 0.0
C36 C 0.96609 0.69706 0.43409 0.0
C37 C 0.96037 0.67867 0.46678 0.0
C38 C -0.01026 0.62366 0.5293 0.0
C39 C 0.96299 0.59964 0.54088 0.0
C40 C 0.97103 0.5642 0.54165 0.0
C41 C 0.00615 0.5519 0.53067 0.0
C42 C 0.03312 0.57619 0.51937 0.0
C43 C 0.02509 0.61167 0.51887 0.0
C44 C 0.03567 0.38698 0.56377 0.0
C45 C 0.00051 0.38289 0.58008 0.0
C46 C -0.00347 0.36345 0.61248 0.0
C47 C 0.02762 0.34781 0.62922 0.0
C48 C 0.06276 0.35246 0.61287 0.0
C49 C 0.06663 0.37173 0.58051 0.0
C50 C 0.03583 0.38727 0.49621 0.0
C51 C 0.06608 0.38368 0.47226 0.0
C52 C 0.06288 0.36425 0.44 0.0
C53 C 0.02916 0.34793 0.43092 0.0
C54 C -0.00146 0.35212 0.45468 0.0
C55 C 0.00184 0.37154 0.48703 0.0
C56 C 0.03116 0.44228 0.53039 0.0
C57 C -0.00458 0.454 0.52107 0.0
C58 C -0.01271 0.48948 0.52115 0.0
C59 C 0.01459 0.51399 0.53091 0.0
C60 C 0.05014 0.50192 0.54076 0.0
C61 C 0.05825 0.46652 0.5404 0.0
H62 H 0.5011 0.91453 0.32918 0.0
N63 N 0.51194 0.91968 0.40476 0.0
H64 H 0.44311 0.92173 0.29658 0.0
H65 H 0.44204 0.91905 0.43284 0.0
H66 H 0.38377 0.92499 0.39977 0.0
H67 H 0.5275 0.97521 0.36008 0.0
H68 H 0.58581 0.98702 0.3288 0.0
H69 H 0.5725 0.88019 0.40361 0.0
H70 H 0.63191 0.89242 0.37334 0.0
H71 H 0.53273 0.90141 0.47237 0.0
H72 H 0.4898 0.98745 0.4097 0.0
H73 H 0.53308 0.93741 0.52784 0.0
H74 H 0.48988 1.02334 0.46471 0.0
H75 H 0.49679 1.02523 0.68995 0.0
H76 H 0.43947 1.02287 0.72537 0.0
H77 H 0.39188 0.10197 0.6555 0.0
H78 H 0.45026 0.10513 0.62095 0.0
H79 H 0.542 0.119 0.66808 0.0
H80 H 0.59738 0.11719 0.70688 0.0
H81 H 0.61391 1.00986 0.67738 0.0
H82 H 0.55768 1.01116 0.64134 0.0
H83 H 0.48786 0.99983 0.62464 0.0
H84 H 0.48799 0.96473 0.56923 0.0
H85 H 0.53355 0.05067 0.50771 0.0
N86 N 0.51124 0.06737 0.63069 0.0
H87 H 0.53253 0.0862 0.56352 0.0
C88 C 0.47712 0.91989 0.3841 0.0
C89 C 0.47608 0.91775 0.3453 0.0
C90 C 0.44251 0.92109 0.32636 0.0
C91 C 0.40894 0.92521 0.34561 0.0
C92 C 0.40936 0.92336 0.38415 0.0
C93 C 0.44287 0.92011 0.40308 0.0
C94 C 0.54546 0.92647 0.38397 0.0
C95 C 0.55004 0.95694 0.36311 0.0
C96 C 0.58363 0.96378 0.34537 0.0
C97 C 0.61376 0.9408 0.34869 0.0
C98 C 0.60916 0.91044 0.3697 0.0
C99 C 0.57531 0.9034 0.38707 0.0
C100 C 0.51136 0.94158 0.43698 0.0
C101 C 0.52337 0.928 0.47065 0.0
C102 C 0.52339 0.94855 0.50222 0.0
C103 C 0.51148 0.98321 0.50058 0.0
C104 C 0.49972 0.99691 0.46673 0.0
C105 C 0.49967 0.97637 0.43523 0.0
C106 C 0.47799 0.0658 0.65293 0.0
C107 C 0.47428 0.0424 0.68246 0.0
C108 C 0.44121 0.04076 0.70246 0.0
C109 C 0.41096 0.06213 0.69321 0.0
C110 C 0.41477 0.08547 0.66369 0.0
C111 C 0.44798 0.08725 0.64383 0.0
C112 C 0.54554 0.06557 0.65137 0.0
C113 C 0.55773 0.09516 0.67002 0.0
C114 C 0.58958 0.09409 0.69196 0.0
C115 C 0.61031 0.06334 0.69538 0.0
C116 C 0.59839 0.03383 0.67611 0.0
C117 C 0.56619 0.03473 0.65483 0.0
C118 C 0.50989 0.046 0.59816 0.0
C119 C 0.49745 1.01142 0.59927 0.0
C120 C 0.49796 0.99114 0.56759 0.0
C121 C 0.51088 1.00489 0.53415 0.0
C122 C 0.52307 0.03947 0.53301 0.0
C123 C 0.52262 0.05975 0.56478 0.0
H124 H 0.47498 0.37279 0.12524 0.0
N125 N 0.51238 0.40778 0.07448 0.0
H126 H 0.41805 0.33895 0.11729 0.0
H127 H 0.4736 0.39954 1.0101 0.0
H128 H 0.41646 0.36628 1.00195 0.0
H129 H 0.53471 0.3719 1.01317 0.0
H130 H 0.59221 0.33912 1.00618 0.0
H131 H 0.56674 0.40062 0.12317 0.0
H132 H 0.62474 0.36794 0.1163 0.0
H133 H 0.4913 0.46165 0.11452 0.0
H134 H 0.53263 0.43423 1.00715 0.0
H135 H 0.48974 0.52267 0.09628 0.0
H136 H 0.53253 0.49493 0.98913 0.0
H137 H 0.47235 0.66768 0.06021 0.0
H138 H 0.41586 0.70217 0.06686 0.0
H139 H 0.41629 0.72219 0.94979 0.0
H140 H 0.47355 0.68856 0.94375 0.0
H141 H 0.56512 0.66494 0.94717 0.0
H142 H 0.62234 0.69888 0.95337 0.0
H143 H 0.59044 0.72655 0.06407 0.0
H144 H 0.53369 0.69256 0.05772 0.0
H145 H 0.52942 0.63105 0.06458 0.0
H146 H 0.52988 0.57038 0.0829 0.0
H147 H 0.49158 0.54154 0.97452 0.0
N148 N 0.51135 0.65678 0.9964 0.0
H149 H 0.49258 0.60249 0.95606 0.0
C150 C 0.47851 0.38871 0.06847 0.0
C151 C 0.46221 0.37149 0.09832 0.0
C152 C 0.4296 0.35237 0.09372 0.0
C153 C 0.41261 0.35003 0.05899 0.0
C154 C 0.42903 0.36731 0.02898 0.0
C155 C 0.46166 0.3865 0.03365 0.0
C156 C 0.54638 0.38873 0.06889 0.0
C157 C 0.55417 0.37136 0.03579 0.0
C158 C 0.58723 0.35272 0.03173 0.0
C159 C 0.61303 0.3509 0.0607 0.0
C160 C 0.60525 0.36852 0.09363 0.0
C161 C 0.57229 0.38729 0.09757 0.0
C162 C 0.51228 0.44339 0.06249 0.0
C163 C 0.50028 0.46888 0.08712 0.0
C164 C 0.49966 0.50371 0.07669 0.0
C165 C 0.51117 0.51381 0.04125 0.0
C166 C 0.52304 0.48811 1.01648 0.0
C167 C 0.52344 0.45326 0.0269 0.0
C168 C 0.47726 0.67575 1.00135 0.0
C169 C 0.46036 0.67954 0.03601 0.0
C170 C 0.42784 0.69909 0.03972 0.0
C171 C 0.41154 0.71512 1.00888 0.0
C172 C 0.42837 0.71077 0.97424 0.0
C173 C 0.46091 0.69138 0.97063 0.0
C174 C 0.54515 0.67614 1.00179 0.0
C175 C 0.57068 0.67823 0.97278 0.0
C176 C 0.60317 0.69774 0.97633 0.0
C177 C 0.61085 0.71547 1.0092 0.0
C178 C 0.58551 0.71289 0.03855 0.0
C179 C 0.5529 0.69352 0.03488 0.0
C180 C 0.51129 0.62129 1.00866 0.0
C181 C 0.5213 0.61178 0.04466 0.0
C182 C 0.52124 0.57695 0.05523 0.0
C183 C 0.51087 0.55095 0.03017 0.0
C184 C 0.50038 0.56072 0.99435 0.0
C185 C 0.50067 0.59551 0.98379 0.0
C186 C 0.01111 0.11836 0.9416 0.0
C187 C 0.01469 0.11498 0.12119 0.0
C188 C 0.00925 0.95043 0.93831 0.0
C189 C 0.01385 0.94706 0.11774 0.0
C190 C 0.10149 0.94796 0.02738 0.0
C191 C 0.10376 0.11554 0.03044 0.0
C192 C 0.92067 0.95015 0.02865 0.0
C193 C 0.92309 0.11758 0.03458 0.0
C194 C 0.92433 0.02783 0.12045 0.0
C195 C 0.10412 1.02618 0.11624 0.0
C196 C 0.92044 0.03884 0.94322 0.0
C197 C 0.10023 0.03404 0.93874 0.0
Eu198 Eu 0.01317 0.0989 0.0311 0.0
O199 O 0.0464 0.0629 0.06247 0.0
O200 O 0.97943 0.06463 0.99856 0.0
Eu201 Eu 0.08193 0.03199 0.02805 0.0
Eu202 Eu 0.94261 0.03366 0.03139 0.0
O203 O 0.04461 0.06399 0.99688 0.0
O204 O 0.98051 0.06366 0.06403 0.0
Eu205 Eu 0.01065 0.03399 0.96011 0.0
Eu206 Eu 0.01383 0.03138 0.09926 0.0
O207 O 0.04399 1.00181 0.99549 0.0
O208 O 0.04495 1.00094 0.06063 0.0
O209 O 0.98 1.00153 0.06234 0.0
O210 O 0.97815 1.00259 0.99708 0.0
Eu211 Eu 0.01133 0.9665 0.02828 0.0
O212 O 0.01245 0.1287 0.97673 0.0
O213 O 0.01412 0.12656 0.08645 0.0
O214 O 0.0109 0.93879 0.97297 0.0
O215 O 0.01194 0.93675 0.08264 0.0
O216 O 0.11268 0.98091 0.02703 0.0
O217 O 0.11407 0.08235 0.02941 0.0
O218 O 0.91041 0.98337 0.02905 0.0
O219 O 0.91199 0.08462 0.03509 0.0
O220 O 0.95979 0.02786 0.13119 0.0
O221 O 0.06922 0.02759 0.1286 0.0
O222 O 0.95518 0.03621 0.93065 0.0
O223 O 0.06476 0.03486 0.92801 0.0
O224 O 0.95571 0.93867 0.02866 0.0
O225 O 0.06615 0.93732 0.02769 0.0
O226 O 0.95839 0.12824 0.03267 0.0
O227 O 0.06868 0.12691 0.03102 0.0
O228 O 0.01478 0.08169 0.13125 0.0
O229 O 0.01498 0.97991 0.12902 0.0
O230 O 0.01025 0.08548 0.93037 0.0
O231 O 0.00848 0.98369 0.92819 0.0
O232 O 0.11196 0.0327 0.9735 0.0
O233 O 0.11437 0.02809 0.08103 0.0
O234 O 0.91025 0.03874 0.97849 0.0
O235 O 0.91249 0.03043 0.08581 0.0
H236 H 0.97155 0.34403 0.38147 0.0
H237 H 0.96705 0.30724 0.32685 0.0
H238 H 0.0757 0.26539 0.34963 0.0
H239 H 0.08041 0.30196 0.40419 0.0
H240 H 0.06663 0.28258 0.2764 0.0
H241 H 0.94805 0.20317 0.32612 0.0
H242 H 0.93958 0.24898 0.32567 0.0
H243 H 0.97412 0.23133 0.35607 0.0
C244 C -0.00564 0.32679 0.37503 0.0
C245 C 0.02631 0.32594 0.39734 0.0
C246 C -0.00826 0.30575 0.34378 0.0
C247 C 0.02084 0.28319 0.33436 0.0
C248 C 0.0529 0.28259 0.35631 0.0
H249 H 0.02063 0.10318 0.19534 0.0
H250 H 0.02161 0.1455 0.24489 0.0
C251 C 0.0556 0.30364 0.38745 0.0
C252 C 0.01814 0.26016 0.30169 0.0
H253 H 0.96862 0.19296 0.26534 0.0
C254 C 0.04513 0.26305 0.2739 0.0
C255 C -0.00971 0.23444 0.29863 0.0
C256 C 0.96153 0.22896 0.32832 0.0
C257 C 0.04516 0.24087 0.24326 0.0
C258 C 0.01706 0.21542 0.24 0.0
C259 C -0.01004 0.21266 0.2677 0.0
C260 C 0.01642 0.1901 0.20919 0.0
C261 C 0.07597 0.24416 0.21528 0.0
C262 C 0.01289 0.20099 0.17246 0.0
C263 C 0.01246 0.17675 0.1438 0.0
C264 C 0.01526 0.14106 0.15133 0.0
C265 C 0.01842 0.13035 0.18827 0.0
C266 C 0.01893 0.15455 0.21678 0.0
H267 H 0.09987 0.2592 0.22612 0.0
H268 H 0.08606 0.21827 0.20659 0.0
H269 H 0.06526 0.25782 0.19058 0.0
H270 H 0.01017 0.22824 0.16595 0.0
H271 H 0.00971 0.18604 0.11581 0.0
H272 H 0.66141 0.89539 0.31485 0.0
H273 H 0.71929 0.90874 0.28269 0.0
H274 H 0.70403 1.01724 0.30611 0.0
H275 H 0.64756 1.00395 0.34031 0.0
H276 H 0.72743 0.94576 0.22268 0.0
H277 H 0.81123 1.00641 0.33236 0.0
H278 H 0.76898 0.98288 0.34197 0.0
H279 H 0.76712 0.02745 0.32736 0.0
C280 C 0.67083 0.922 0.31401 0.0
C281 C 0.64972 0.94858 0.3302 0.0
C282 C 0.70381 0.92962 0.29536 0.0
C283 C 0.71633 0.96393 0.29244 0.0
C284 C 0.69548 0.99047 0.30875 0.0
H285 H 0.85096 0.04518 0.11686 0.0
H286 H 0.802 0.02978 0.16044 0.0
C287 C 0.66275 0.98286 0.32775 0.0
C288 C 0.74954 0.97229 0.26993 0.0
H289 H 0.83113 1.01746 0.27017 0.0
C290 C 0.75029 0.96111 0.23323 0.0
C291 C 0.77967 0.99188 0.2838 0.0
C292 C 0.78194 1.00251 0.32365 0.0
C293 C 0.77969 0.96988 0.2097 0.0
C294 C 0.80857 0.99137 0.2229 0.0
C295 C 0.80858 1.00154 0.25993 0.0
C296 C 0.83881 1.00362 0.19849 0.0
C297 C 0.77961 0.95577 0.17099 0.0
C298 C 0.876 0.99576 0.2065 0.0
C299 C 0.90421 1.00506 0.1819 0.0
C300 C 0.89555 1.02223 0.14885 0.0
C301 C 0.85845 0.0315 0.14182 0.0
C302 C 0.83041 1.02255 0.16659 0.0
H303 H 0.76245 0.93194 0.16887 0.0
H304 H 0.76755 0.97539 0.15213 0.0
H305 H 0.80822 0.94971 0.1615 0.0
H306 H 0.88307 0.98141 0.23116 0.0
H307 H 0.93251 0.99746 0.18805 0.0
H308 H 0.98078 0.69789 0.35736 0.0
H309 H -0.01341 0.73342 0.3018 0.0
H310 H 0.03476 0.81574 0.36593 0.0
H311 H 0.02917 0.78037 0.4215 0.0
H312 H 0.95454 0.79552 0.28681 0.0
H313 H 0.1076 0.80944 0.28148 0.0
H314 H 0.08486 0.77802 0.31064 0.0
H315 H 0.08839 0.82251 0.32484 0.0
C316 C -0.00728 0.72353 0.35963 0.0
C317 C 0.00462 0.73622 0.39393 0.0
C318 C -0.00386 0.74376 0.3278 0.0
C319 C 0.01165 0.77707 0.3295 0.0
C320 C 0.02363 0.78979 0.36367 0.0
H321 H 0.032 0.9555 0.19021 0.0
H322 H 0.03171 0.91218 0.23904 0.0
C323 C 0.02036 0.76952 0.39549 0.0
C324 C 0.01352 0.79921 0.29595 0.0
H325 H 0.07253 0.84805 0.24343 0.0
C326 C 0.98041 0.80665 0.27705 0.0
C327 C 0.0473 0.81372 0.28314 0.0
C328 C 0.0841 0.80526 0.30085 0.0
C329 C 0.97995 0.82917 0.24661 0.0
C330 C 0.01357 0.84435 0.23444 0.0
C331 C 0.04678 0.83641 0.25284 0.0
C332 C 0.01451 0.87002 0.20396 0.0
C333 C 0.94333 0.83757 0.22849 0.0
C334 C 0.00542 0.86061 0.16776 0.0
C335 C 0.0056 0.88541 0.13951 0.0
C336 C 0.01475 0.92011 0.14703 0.0
C337 C 0.02442 0.92917 0.18331 0.0
C338 C 0.02444 0.90438 0.21135 0.0
H339 H 0.91927 0.82876 0.24524 0.0
H340 H 0.94078 0.86588 0.22372 0.0
H341 H 0.94196 0.82452 0.20137 0.0
H342 H -0.00185 0.83409 0.16137 0.0
H343 H -0.00191 0.87746 0.11196 0.0
H344 H 0.38336 0.89739 0.28098 0.0
H345 H 0.32887 0.91567 0.24559 0.0
H346 H 0.30089 0.98938 0.33009 0.0
H347 H 0.35581 0.97218 0.36504 0.0
H348 H 0.25217 0.91746 0.2643 0.0
H349 H 0.30945 0.04847 0.23594 0.0
H350 H 0.33765 1.0134 0.25324 0.0
H351 H 0.30742 0.03674 0.28376 0.0
C352 C 0.36563 0.91753 0.29199 0.0
C353 C 0.37407 0.9335 0.32569 0.0
C354 C 0.33443 0.92776 0.27187 0.0
C355 C 0.31128 0.95421 0.28503 0.0
C356 C 0.31878 0.96928 0.31926 0.0
H357 H 0.09677 1.01115 0.18977 0.0
H358 H 0.14603 0.99492 0.23275 0.0
C359 C 0.34995 0.95911 0.33936 0.0
C360 C 0.27995 0.96677 0.26239 0.0
H361 H 0.24813 0.03759 0.21581 0.0
C362 C 0.25114 0.94373 0.25376 0.0
C363 C 0.27907 1.00096 0.24841 0.0
C364 C 0.31017 1.02631 0.25547 0.0
C365 C 0.2213 0.95404 0.23147 0.0
C366 C 0.22015 0.9884 0.21798 0.0
C367 C 0.24897 1.0114 0.2266 0.0
C368 C 0.19043 1.00035 0.19298 0.0
C369 C 0.19183 0.92785 0.22163 0.0
C370 C 0.19934 1.01001 0.15686 0.0
C371 C 0.1714 1.01955 0.1323 0.0
C372 C 0.13394 1.01974 0.14346 0.0
C373 C 0.12527 1.01128 0.18017 0.0
C374 C 0.15332 1.00171 0.20473 0.0
H375 H 0.20081 0.90095 0.22786 0.0
H376 H 0.16628 0.93325 0.23775 0.0
H377 H 0.18467 0.9296 0.19198 0.0
H378 H 0.2279 1.00932 0.14739 0.0
H379 H 0.17923 1.02604 0.10435 0.0
H380 H 0.93896 0.73785 0.6758 0.0
H381 H 0.94433 0.77537 0.72926 0.0
H382 H 0.0623 0.78445 0.71069 0.0
H383 H 0.0568 0.74909 0.65544 0.0
H384 H 0.97939 0.77034 0.79204 0.0
H385 H 0.03563 0.88422 0.7176 0.0
H386 H 0.018 0.84673 0.69394 0.0
H387 H 0.06428 0.84654 0.71276 0.0
C388 C 0.96602 0.7483 0.68251 0.0
C389 C -0.00269 0.74073 0.66061 0.0
C390 C 0.96911 0.76949 0.7135 0.0
C391 C 0.00358 0.78347 0.72373 0.0
C392 C 0.03517 0.77487 0.70289 0.0
H393 H 0.03494 0.88347 0.9392 0.0
H394 H 0.03506 0.84195 0.88835 0.0
C395 C 0.03203 0.75407 0.6715 0.0
C396 C 0.00614 0.80707 0.75607 0.0
H397 H 0.03422 0.88775 0.78259 0.0
C398 C -0.00865 0.79605 0.78994 0.0
C399 C 0.02129 0.84085 0.75336 0.0
C400 C 0.03535 0.85546 0.71739 0.0
C401 C -0.00896 0.81778 0.82096 0.0
C402 C 0.00711 0.85119 0.81848 0.0
C403 C 0.02216 0.86209 0.78469 0.0
C404 C 0.0071 0.87601 0.84988 0.0
C405 C 0.97225 0.80509 0.85559 0.0
C406 C -0.00761 0.9094 0.84509 0.0
C407 C -0.00698 0.93337 0.87383 0.0
C408 C 0.00812 0.92448 0.90825 0.0
C409 C 0.02268 0.89099 0.91319 0.0
C410 C 0.02257 0.86714 0.88415 0.0
H411 H 0.95227 0.78388 0.84977 0.0
H412 H -0.00642 0.7948 0.87473 0.0
H413 H 0.95712 0.82636 0.86961 0.0
H414 H 0.98029 0.91697 0.81901 0.0
H415 H 0.98138 0.95885 0.86909 0.0
H416 H 0.36525 0.11539 0.71427 0.0
H417 H 0.30843 0.11175 0.75097 0.0
H418 H 0.32078 1.0009 0.75809 0.0
H419 H 0.37652 1.00404 0.71987 0.0
H420 H 0.24856 1.02032 0.74581 0.0
H421 H 0.30951 0.09519 0.86123 0.0
H422 H 0.30971 0.11764 0.81794 0.0
H423 H 0.33716 0.07909 0.82357 0.0
C424 C 0.3556 0.09016 0.72315 0.0
C425 C 0.3757 0.06003 0.71443 0.0
C426 C 0.32334 0.08819 0.74449 0.0
C427 C 0.31084 0.05614 0.75785 0.0
C428 C 0.33014 1.02593 0.74828 0.0
H429 H 0.17309 1.01575 0.94541 0.0
H430 H 0.22199 1.02072 0.89931 0.0
C431 C 0.36222 0.02783 0.72676 0.0
C432 C 0.27826 0.05397 0.78266 0.0
H433 H 0.24635 0.07953 0.86671 0.0
C434 C 0.24796 0.03331 0.77223 0.0
C435 C 0.27784 0.07062 0.81727 0.0
C436 C 0.3104 0.09162 0.83092 0.0
C437 C 0.21727 0.02868 0.79562 0.0
C438 C 0.21666 0.04575 0.82999 0.0
C439 C 0.24682 0.06665 0.84023 0.0
C440 C 0.18602 0.04105 0.85677 0.0
C441 C 0.18642 1.00469 0.78386 0.0
C442 C 0.14944 0.05065 0.84807 0.0
C443 C 0.1212 0.04758 0.87437 0.0
C444 C 0.12927 0.03535 0.90996 0.0
C445 C 0.16592 1.0255 0.91837 0.0
C446 C 0.19394 0.02829 0.89204 0.0
H447 H 0.19535 0.9872 0.7613 0.0
H448 H 0.17657 0.98868 0.80732 0.0
H449 H 0.16264 1.02029 0.77371 0.0
H450 H 0.14287 0.06124 0.82125 0.0
H451 H 0.09334 0.05569 0.86713 0.0
H452 H 0.0639 0.28759 0.64688 0.0
H453 H 0.05858 0.2533 0.70314 0.0
H454 H 0.97672 0.32448 0.74507 0.0
H455 H 0.98235 0.35952 0.68906 0.0
H456 H 0.07065 0.27526 0.77766 0.0
H457 H 0.92676 0.22767 0.75382 0.0
H458 H 0.95487 0.24605 0.71753 0.0
H459 H 0.93347 0.27374 0.75099 0.0
C460 C 0.04499 0.29626 0.66814 0.0
C461 C 0.02362 0.32648 0.66333 0.0
C462 C 0.04187 0.27647 0.70025 0.0
C463 C 0.01709 0.28618 0.72819 0.0
C464 C -0.00436 0.31624 0.72362 0.0
H465 H 0.01914 0.18915 0.9484 0.0
H466 H 0.01935 0.23247 0.89895 0.0
C467 C -0.00117 0.33618 0.6915 0.0
C468 C 0.0141 0.26477 0.76208 0.0
H469 H 0.95589 0.21037 0.80891 0.0
C470 C 0.04548 0.26127 0.78471 0.0
C471 C 0.98131 0.24636 0.77101 0.0
C472 C 0.94718 0.2483 0.74702 0.0
C473 C 0.04512 0.23953 0.81579 0.0
C474 C 0.01238 0.22101 0.82465 0.0
C475 C 0.98085 0.22484 0.80226 0.0
C476 C 0.01123 0.19536 0.85518 0.0
C477 C 0.08018 0.23553 0.83813 0.0
C478 C 0.00586 0.16027 0.84711 0.0
C479 C 0.00566 0.13552 0.87516 0.0
C480 C 0.01063 0.14526 0.91217 0.0
C481 C 0.01537 0.18062 0.9203 0.0
C482 C 0.01567 0.20543 0.89204 0.0
H483 H 0.10478 0.24659 0.82384 0.0
H484 H 0.07679 0.24917 0.86475 0.0
H485 H 0.08565 0.20779 0.84415 0.0
H486 H 0.0023 0.15191 0.81889 0.0
H487 H 0.0017 0.10867 0.86763 0.0
H488 H 0.63417 1.00864 0.73753 0.0
H489 H 0.68872 1.00568 0.77674 0.0
H490 H 0.71524 0.11173 0.75022 0.0
H491 H 0.66233 0.11411 0.7083 0.0
H492 H 0.77615 0.07422 0.75115 0.0
H493 H 0.69598 0.04511 0.87735 0.0
H494 H 0.68801 1.01327 0.84249 0.0
H495 H 0.67382 0.05746 0.83487 0.0
C496 C 0.65185 0.03124 0.73937 0.0
C497 C 0.6436 0.06168 0.71964 0.0
C498 C 0.68276 0.02966 0.76243 0.0
C499 C 0.70553 0.05876 0.76722 0.0
C500 C 0.6978 0.08904 0.74725 0.0
H501 H 0.85656 0.07525 0.95152 0.0
H502 H 0.80625 0.08218 0.90719 0.0
C503 C 0.66725 0.09047 0.72359 0.0
C504 C 0.73751 0.05746 0.79287 0.0
H505 H 0.76154 0.03676 0.88091 0.0
C506 C 0.77295 0.06631 0.77963 0.0
C507 C 0.73324 0.04773 0.83019 0.0
C508 C 0.69564 0.04074 0.84715 0.0
C509 C 0.80432 0.06516 0.80254 0.0
C510 C 0.80029 0.05362 0.83932 0.0
C511 C 0.76476 0.04521 0.85261 0.0
C512 C 0.83217 0.05082 0.86501 0.0
C513 C 0.84116 0.07715 0.78725 0.0
C514 C 0.86364 0.03095 0.8561 0.0
C515 C 0.89285 0.02754 0.8812 0.0
C516 C 0.89049 0.04309 0.916 0.0
C517 C 0.85893 0.06271 0.92498 0.0
C518 C 0.8302 0.06673 0.89964 0.0
H519 H 0.83735 0.09513 0.76365 0.0
H520 H 0.85801 0.09041 0.80855 0.0
H521 H 0.85697 0.0544 0.77716 0.0
H522 H 0.86535 1.01754 0.83003 0.0
H523 H 0.91676 1.01199 0.8738 0.0
H524 H 0.39525 0.30597 1.00259 0.0
H525 H 0.33982 0.26979 0.99633 0.0
H526 H 0.29695 0.31037 0.09832 0.0
H527 H 0.35218 0.34676 0.10471 0.0
H528 H 0.29509 0.23914 0.09523 0.0
H529 H 0.23319 0.296 0.96916 0.0
H530 H 0.28102 0.28365 0.96398 0.0
H531 H 0.26881 0.3177 0.99539 0.0
C532 C 0.37373 0.30766 0.02336 0.0
C533 C 0.37816 0.32925 0.05417 0.0
C534 C 0.34204 0.28698 1.01972 0.0
C535 C 0.31404 0.28772 0.04662 0.0
C536 C 0.3182 0.30948 0.07719 0.0
H537 H 0.0973 0.18643 0.03407 0.0
H538 H 0.14749 0.22899 0.0383 0.0
C539 C 0.34986 0.33011 0.08089 0.0
C540 C 0.28149 0.2643 0.04406 0.0
H541 H 0.20802 0.2421 0.98953 0.0
C542 C 0.27592 0.23994 0.07223 0.0
C543 C 0.25628 0.26563 1.01424 0.0
C544 C 0.25982 0.29236 0.98413 0.0
C545 C 0.24635 0.21631 0.07097 0.0
C546 C 0.22203 0.21671 0.04044 0.0
C547 C 0.22696 0.24164 1.01271 0.0
C548 C 0.19166 0.19107 0.03667 0.0
C549 C 0.24125 0.19122 0.10247 0.0
C550 C 0.19994 0.15573 0.03365 0.0
C551 C 0.17143 0.13132 0.03126 0.0
C552 C 0.13393 0.14176 0.03166 0.0
C553 C 0.12578 0.17736 0.03384 0.0
C554 C 0.15441 0.20177 0.03621 0.0
H555 H 0.25584 0.20008 0.12767 0.0
H556 H 0.21134 0.18764 0.109 0.0
H557 H 0.25293 0.1657 0.09463 0.0
H558 H 0.22854 0.14699 0.03325 0.0
H559 H 0.17894 0.10424 0.02934 0.0
H560 H 0.35044 0.70298 0.0525 0.0
H561 H 0.29434 0.73855 0.05808 0.0
H562 H 0.33911 0.8111 0.97943 0.0
H563 H 0.39549 0.77629 0.97423 0.0
H564 H 0.28885 0.81058 0.07859 0.0
H565 H 0.23498 0.78532 0.93818 0.0
H566 H 0.26972 0.75835 0.95979 0.0
H567 H 0.28265 0.7991 0.93955 0.0
C568 C 0.3485 0.72664 0.0366 0.0
C569 C 0.37742 0.73662 1.0127 0.0
C570 C 0.31634 0.74681 0.03969 0.0
C571 C 0.31239 0.77711 1.01872 0.0
C572 C 0.34132 0.78739 0.99525 0.0
H573 H 0.17602 0.95723 0.03859 0.0
H574 H 0.22474 0.91343 0.03873 0.0
C575 C 0.37349 0.76738 0.99226 0.0
C576 C 0.2784 0.79853 1.02174 0.0
H577 H 0.20674 0.83164 0.97124 0.0
C578 C 0.27065 0.81495 0.05526 0.0
C579 C 0.25449 0.80378 0.99139 0.0
C580 C 0.26057 0.78548 0.95525 0.0
C581 C 0.24039 0.83767 0.05879 0.0
C582 C 0.2176 0.84427 0.02787 0.0
C583 C 0.22446 0.82673 0.9948 0.0
C584 C 0.18757 0.87048 0.02876 0.0
C585 C 0.23318 0.85457 0.09549 0.0
C586 C 0.15052 0.86093 0.02237 0.0
C587 C 0.12242 0.88598 0.02211 0.0
C588 C 0.13099 0.92112 0.02782 0.0
C589 C 0.16827 0.9305 0.03401 0.0
C590 C 0.19622 0.90544 0.03443 0.0
H591 H 0.24631 0.83993 0.11838 0.0
H592 H 0.24512 0.88106 0.09528 0.0
H593 H 0.2029 0.85674 0.10096 0.0
H594 H 0.14335 0.83406 1.01763 0.0
H595 H 0.09409 0.87781 1.0171 0.0
H596 H 0.66035 0.34774 1.00168 0.0
H597 H 0.7161 0.31188 0.99508 0.0
H598 H 0.69918 0.27098 0.10431 0.0
H599 H 0.64364 0.30685 0.11119 0.0
H600 H 0.77234 0.28828 0.09093 0.0
H601 H 0.7156 0.20781 0.97763 0.0
H602 H 0.71566 0.25352 0.96857 0.0
H603 H 0.68686 0.23634 1.00469 0.0
C604 C 0.66843 0.33097 0.02421 0.0
C605 C 0.64749 0.33 0.0569 0.0
C606 C 0.70026 0.31049 1.02039 0.0
C607 C 0.71147 0.28838 0.04899 0.0
C608 C 0.69102 0.28785 0.08188 0.0
H609 H 0.84855 0.10745 0.04489 0.0
H610 H 0.79964 0.15084 0.0476 0.0
C611 C 0.65934 0.30844 0.08581 0.0
C612 C 0.74423 0.26541 0.04473 0.0
H613 H 0.77789 0.19752 0.99479 0.0
C614 C 0.77367 0.26851 0.06983 0.0
C615 C 0.74569 0.23943 1.01738 0.0
C616 C 0.71416 0.23375 0.99071 0.0
C617 C 0.8044 0.2461 0.06856 0.0
C618 C 0.80598 0.22032 0.04103 0.0
C619 C 0.77673 0.21749 1.01568 0.0
C620 C 0.83642 0.19448 0.03945 0.0
C621 C 0.83423 0.24943 0.09749 0.0
C622 C 0.87347 0.20457 0.03373 0.0
C623 C 0.90178 0.17972 0.03232 0.0
C624 C 0.89346 0.14429 0.03629 0.0
C625 C 0.85618 0.1344 0.04169 0.0
C626 C 0.82805 0.15921 0.04322 0.0
H627 H 0.82478 0.26513 0.1213 0.0
H628 H 0.84299 0.22356 0.10765 0.0
H629 H 0.85887 0.26237 0.08528 0.0
H630 H 0.88046 0.23162 0.03005 0.0
H631 H 0.93008 0.18831 0.02785 0.0
H632 H 0.65903 0.71975 0.06735 0.0
H633 H 0.71394 0.75686 0.0729 0.0
H634 H 0.69375 0.79773 0.96424 0.0
H635 H 0.63908 0.76059 0.95841 0.0
H636 H 0.76706 0.78154 0.9753 0.0
H637 H 0.713 0.86068 0.09098 0.0
H638 H 0.71394 0.81496 0.09989 0.0
H639 H 0.6838 0.83189 0.06478 0.0
C640 C 0.6662 0.73681 0.04475 0.0
C641 C 0.64465 0.73733 1.01248 0.0
C642 C 0.69753 0.75802 0.04798 0.0
C643 C 0.70761 0.78045 1.0192 0.0
C644 C 0.68646 0.78064 0.98679 0.0
H645 H 0.8459 0.96158 1.02169 0.0
H646 H 0.79617 0.91885 1.02016 0.0
C647 C 0.6553 0.75932 0.98345 0.0
C648 C 0.74018 0.80377 0.02262 0.0
H649 H 0.77494 0.87131 0.07234 0.0
C650 C 0.76887 0.80112 0.99657 0.0
C651 C 0.74225 0.82952 0.05018 0.0
C652 C 0.71149 0.83476 0.07787 0.0
C653 C 0.79949 0.82365 0.99715 0.0
C654 C 0.8018 0.84908 0.02501 0.0
C655 C 0.77323 0.85159 0.0512 0.0
C656 C 0.83253 0.87463 0.02629 0.0
C657 C 0.82844 0.82075 0.96725 0.0
C658 C 0.86957 0.86399 0.03062 0.0
C659 C 0.89829 0.88842 0.03132 0.0
C660 C 0.89043 0.924 0.02804 0.0
C661 C 0.85315 0.93448 0.02426 0.0
C662 C 0.82458 0.91007 0.02342 0.0
H663 H 0.81813 0.8057 0.94333 0.0
H664 H 0.83722 0.84676 0.95749 0.0
H665 H 0.85326 0.80728 0.97834 0.0
H666 H 0.87627 0.8368 0.03365 0.0
H667 H 0.92657 0.87937 0.03463 0.0
loop_
_geom_bond_atom_site_label_1
_geom_bond_atom_site_label_2
_geom_bond_distance
_geom_bond_site_symmetry_2
_ccdc_geom_bond_type
H0 C27 0.924 1_655 S
N1 C26 1.433 . S
N1 C32 1.435 . S
N1 C38 1.423 . S
H2 C28 0.930 1_655 S
H3 C31 0.931 . S
H4 C30 0.929 . S
H5 C33 0.930 . S
H6 C34 0.932 . S
H7 C37 0.929 . S
H8 C36 0.930 1_655 S
H9 C39 0.929 . S
H10 C43 0.932 . S
H11 C40 0.931 . S
H12 C42 0.929 . S
H13 C45 0.924 1_655 S
H14 C46 0.930 1_655 S
H15 C48 0.929 . S
H16 C49 0.931 . S
H17 C51 0.930 . S
H18 C52 0.932 . S
H19 C54 0.930 1_655 S
H20 C55 0.929 . S
H21 C57 0.929 . S
H22 C58 0.931 . S
H23 C60 0.929 . S
N24 C44 1.433 . S
N24 C50 1.435 . S
N24 C56 1.423 . S
H25 C61 0.932 . S
C26 N1 1.433 . S
C26 C27 1.367 . S
C26 C31 1.370 . S
C27 H0 0.924 1_455 S
C27 C26 1.367 . S
C27 C28 1.386 . S
C28 H2 0.930 1_455 S
C28 C27 1.386 . S
C28 C29 1.357 . S
C29 C28 1.357 . S
C29 C30 1.406 . S
C30 H4 0.929 . S
C30 C29 1.406 . S
C30 C31 1.391 . S
C31 H3 0.931 . S
C31 C26 1.370 . S
C31 C30 1.391 . S
C32 N1 1.435 . S
C32 C33 1.358 . S
C32 C37 1.371 1_455 S
C33 H5 0.930 . S
C33 C32 1.358 . S
C33 C34 1.405 . S
C34 H6 0.932 . S
C34 C33 1.405 . S
C34 C35 1.383 . S
C35 C34 1.383 . S
C35 C36 1.394 . S
C36 H8 0.930 1_455 S
C36 C35 1.394 . S
C36 C37 1.382 1_455 S
C37 H7 0.929 . S
C37 C32 1.371 1_655 S
C37 C36 1.382 1_655 S
C38 N1 1.423 . S
C38 C39 1.362 1_455 S
C38 C43 1.388 . S
C39 H9 0.929 . S
C39 C38 1.362 1_655 S
C39 C40 1.376 . S
C40 H11 0.931 . S
C40 C39 1.376 . S
C40 C41 1.380 1_655 S
C41 C40 1.380 1_455 S
C41 C42 1.364 . S
C41 C59 1.472 . S
C42 H12 0.929 . S
C42 C41 1.364 . S
C42 C43 1.443 . S
C43 H10 0.932 . S
C43 C38 1.388 . S
C43 C42 1.443 . S
C44 N24 1.433 . S
C44 C45 1.367 . S
C44 C49 1.370 . S
C45 H13 0.924 1_455 S
C45 C44 1.367 . S
C45 C46 1.386 . S
C46 H14 0.930 1_455 S
C46 C45 1.386 . S
C46 C47 1.357 . S
C47 C46 1.357 . S
C47 C48 1.406 . S
C48 H15 0.929 . S
C48 C47 1.406 . S
C48 C49 1.391 . S
C49 H16 0.931 . S
C49 C44 1.370 . S
C49 C48 1.391 . S
C50 N24 1.435 . S
C50 C51 1.358 . S
C50 C55 1.371 1_455 S
C51 H17 0.930 . S
C51 C50 1.358 . S
C51 C52 1.405 . S
C52 H18 0.932 . S
C52 C51 1.405 . S
C52 C53 1.383 . S
C53 C52 1.383 . S
C53 C54 1.394 . S
C54 H19 0.930 1_455 S
C54 C53 1.394 . S
C54 C55 1.382 1_455 S
C55 H20 0.929 . S
C55 C50 1.371 1_655 S
C55 C54 1.382 1_655 S
C56 N24 1.423 . S
C56 C57 1.362 1_455 S
C56 C61 1.388 . S
C57 H21 0.929 . S
C57 C56 1.362 1_655 S
C57 C58 1.376 . S
C58 H22 0.931 . S
C58 C57 1.376 . S
C58 C59 1.380 1_655 S
C59 C41 1.472 . S
C59 C58 1.380 1_455 S
C59 C60 1.364 . S
C60 H23 0.929 . S
C60 C59 1.364 . S
C60 C61 1.443 . S
C61 H25 0.932 . S
C61 C56 1.388 . S
C61 C60 1.443 . S
H62 C89 0.929 . S
N63 C88 1.433 . S
N63 C94 1.435 . S
N63 C100 1.423 . S
H64 C90 0.930 . S
H65 C93 0.931 . S
H66 C92 0.929 . S
H67 C95 0.930 . S
H68 C96 0.932 . S
H69 C99 0.929 . S
H70 C98 0.931 . S
H71 C101 0.929 . S
H72 C105 0.932 1_545 S
H73 C102 0.931 . S
H74 C104 0.929 1_545 S
H75 C107 0.929 . S
H76 C108 0.930 . S
H77 C110 0.929 . S
H78 C111 0.931 . S
H79 C113 0.930 . S
H80 C114 0.932 . S
H81 C116 0.931 . S
H82 C117 0.929 . S
H83 C119 0.929 . S
H84 C120 0.931 . S
H85 C122 0.929 1_545 S
N86 C106 1.433 . S
N86 C112 1.435 . S
N86 C118 1.423 . S
H87 C123 0.932 1_545 S
C88 N63 1.433 . S
C88 C89 1.363 . S
C88 C93 1.370 1_565 S
C89 H62 0.929 . S
C89 C88 1.363 . S
C89 C90 1.385 . S
C90 H64 0.930 . S
C90 C89 1.385 . S
C90 C91 1.357 . S
C91 C90 1.357 . S
C91 C92 1.406 1_565 S
C92 H66 0.929 . S
C92 C91 1.406 1_545 S
C92 C93 1.391 . S
C93 H65 0.931 . S
C93 C88 1.370 1_545 S
C93 C92 1.391 . S
C94 N63 1.435 . S
C94 C95 1.358 1_565 S
C94 C99 1.371 . S
C95 H67 0.930 . S
C95 C94 1.358 1_545 S
C95 C96 1.405 . S
C96 H68 0.932 . S
C96 C95 1.405 . S
C96 C97 1.383 1_545 S
C97 C96 1.383 1_565 S
C97 C98 1.393 . S
C98 H70 0.931 . S
C98 C97 1.393 . S
C98 C99 1.382 . S
C99 H69 0.929 . S
C99 C94 1.371 . S
C99 C98 1.382 . S
C100 N63 1.423 . S
C100 C101 1.362 . S
C100 C105 1.388 . S
C101 H71 0.929 . S
C101 C100 1.362 . S
C101 C102 1.376 . S
C102 H73 0.931 . S
C102 C101 1.376 . S
C102 C103 1.396 . S
C103 C102 1.396 . S
C103 C104 1.348 . S
C103 C121 1.472 . S
C104 H74 0.929 1_565 S
C104 C103 1.348 . S
C104 C105 1.443 . S
C105 H72 0.932 1_565 S
C105 C100 1.388 . S
C105 C104 1.443 . S
C106 N86 1.433 . S
C106 C107 1.363 . S
C106 C111 1.370 1_565 S
C107 H75 0.929 . S
C107 C106 1.363 . S
C107 C108 1.385 . S
C108 H76 0.930 . S
C108 C107 1.385 . S
C108 C109 1.357 . S
C109 C108 1.357 . S
C109 C110 1.406 1_565 S
C110 H77 0.929 . S
C110 C109 1.406 1_545 S
C110 C111 1.391 . S
C111 H78 0.931 . S
C111 C106 1.370 1_545 S
C111 C110 1.391 . S
C112 N86 1.435 . S
C112 C113 1.358 1_565 S
C112 C117 1.371 . S
C113 H79 0.930 . S
C113 C112 1.358 1_545 S
C113 C114 1.405 . S
C114 H80 0.932 . S
C114 C113 1.405 . S
C114 C115 1.383 1_545 S
C115 C114 1.383 1_565 S
C115 C116 1.393 . S
C116 H81 0.931 . S
C116 C115 1.393 . S
C116 C117 1.382 . S
C117 H82 0.929 . S
C117 C112 1.371 . S
C117 C116 1.382 . S
C118 N86 1.423 . S
C118 C119 1.362 . S
C118 C123 1.388 . S
C119 H83 0.929 . S
C119 C118 1.362 . S
C119 C120 1.376 . S
C120 H84 0.931 . S
C120 C119 1.376 . S
C120 C121 1.396 . S
C121 C103 1.472 . S
C121 C120 1.396 . S
C121 C122 1.348 . S
C122 H85 0.929 1_565 S
C122 C121 1.348 . S
C122 C123 1.443 . S
C123 H87 0.932 1_565 S
C123 C118 1.388 . S
C123 C122 1.443 . S
H124 C151 0.929 . S
N125 C150 1.433 . S
N125 C156 1.435 . S
N125 C162 1.423 . S
H126 C152 0.930 . S
H127 C155 0.931 . S
H128 C154 0.929 . S
H129 C157 0.930 . S
H130 C158 0.932 . S
H131 C161 0.929 . S
H132 C160 0.931 . S
H133 C163 0.929 . S
H134 C167 0.932 1_556 S
H135 C164 0.931 . S
H136 C166 0.929 . S
H137 C169 0.929 . S
H138 C170 0.930 . S
H139 C172 0.929 . S
H140 C173 0.931 . S
H141 C175 0.930 . S
H142 C176 0.932 . S
H143 C178 0.931 . S
H144 C179 0.929 . S
H145 C181 0.929 . S
H146 C182 0.931 . S
H147 C184 0.929 . S
N148 C168 1.433 . S
N148 C174 1.435 . S
N148 C180 1.423 . S
H149 C185 0.932 1_556 S
C150 N125 1.433 . S
C150 C151 1.363 . S
C150 C155 1.370 1_554 S
C151 H124 0.929 . S
C151 C150 1.363 . S
C151 C152 1.385 . S
C152 H126 0.930 . S
C152 C151 1.385 . S
C152 C153 1.357 . S
C153 C152 1.357 . S
C153 C154 1.406 1_554 S
C154 H128 0.929 . S
C154 C153 1.406 1_556 S
C154 C155 1.391 . S
C155 H127 0.931 . S
C155 C150 1.370 1_556 S
C155 C154 1.391 . S
C156 N125 1.435 . S
C156 C157 1.358 1_554 S
C156 C161 1.371 . S
C157 H129 0.930 . S
C157 C156 1.358 1_556 S
C157 C158 1.405 . S
C158 H130 0.932 . S
C158 C157 1.405 . S
C158 C159 1.383 1_556 S
C159 C158 1.383 1_554 S
C159 C160 1.393 . S
C160 H132 0.931 . S
C160 C159 1.393 . S
C160 C161 1.382 . S
C161 H131 0.929 . S
C161 C156 1.371 . S
C161 C160 1.382 . S
C162 N125 1.423 . S
C162 C163 1.362 . S
C162 C167 1.388 . S
C163 H133 0.929 . S
C163 C162 1.362 . S
C163 C164 1.376 . S
C164 H135 0.931 . S
C164 C163 1.376 . S
C164 C165 1.396 . S
C165 C164 1.396 . S
C165 C166 1.348 . S
C165 C183 1.472 . S
C166 H136 0.929 . S
C166 C165 1.348 . S
C166 C167 1.443 . S
C167 H134 0.932 1_554 S
C167 C162 1.388 . S
C167 C166 1.443 . S
C168 N148 1.433 . S
C168 C169 1.363 . S
C168 C173 1.370 1_554 S
C169 H137 0.929 . S
C169 C168 1.363 . S
C169 C170 1.385 . S
C170 H138 0.930 . S
C170 C169 1.385 . S
C170 C171 1.357 . S
C171 C170 1.357 . S
C171 C172 1.406 1_554 S
C172 H139 0.929 . S
C172 C171 1.406 1_556 S
C172 C173 1.391 . S
C173 H140 0.931 . S
C173 C168 1.370 1_556 S
C173 C172 1.391 . S
C174 N148 1.435 . S
C174 C175 1.358 1_554 S
C174 C179 1.371 . S
C175 H141 0.930 . S
C175 C174 1.358 1_556 S
C175 C176 1.405 . S
C176 H142 0.932 . S
C176 C175 1.405 . S
C176 C177 1.383 1_556 S
C177 C176 1.383 1_554 S
C177 C178 1.393 . S
C178 H143 0.931 . S
C178 C177 1.393 . S
C178 C179 1.382 . S
C179 H144 0.929 . S
C179 C174 1.371 . S
C179 C178 1.382 . S
C180 N148 1.423 . S
C180 C181 1.362 . S
C180 C185 1.388 . S
C181 H145 0.929 . S
C181 C180 1.362 . S
C181 C182 1.376 . S
C182 H146 0.931 . S
C182 C181 1.376 . S
C182 C183 1.396 . S
C183 C165 1.472 . S
C183 C182 1.396 . S
C183 C184 1.348 . S
C184 H147 0.929 . S
C184 C183 1.348 . S
C184 C185 1.443 . S
C185 H149 0.932 1_554 S
C185 C180 1.388 . S
C185 C184 1.443 . S
C186 O212 1.283 . S
C186 O230 1.283 . S
C187 O213 1.283 . S
C187 O228 1.283 . S
C188 O214 1.283 . S
C188 O231 1.283 . S
C189 O215 1.283 . S
C189 O229 1.283 . S
C190 O216 1.283 . S
C190 O225 1.283 . S
C191 O217 1.283 . S
C191 O227 1.283 . S
C192 O218 1.283 . S
C192 O224 1.283 . S
C193 O219 1.283 . S
C193 O226 1.283 . S
C194 O220 1.283 . S
C194 O235 1.283 . S
C195 O221 1.283 . S
C195 O233 1.283 . S
C196 O222 1.283 . S
C196 O234 1.283 . S
C197 O223 1.283 . S
C197 O232 1.283 . S
Eu198 O199 2.370 . S
Eu198 O200 2.370 1_454 S
Eu198 O203 2.370 1_554 S
Eu198 O204 2.370 1_455 S
Eu198 O212 2.363 1_554 S
Eu198 O213 2.363 . S
Eu198 O226 2.363 1_455 S
Eu198 O227 2.363 . S
O199 Eu198 2.370 . S
O199 Eu201 2.370 . S
O199 Eu206 2.370 . S
O200 Eu198 2.370 1_656 S
O200 Eu202 2.370 1_556 S
O200 Eu205 2.370 1_655 S
Eu201 O199 2.370 . S
Eu201 O203 2.370 1_554 S
Eu201 O207 2.370 1_544 S
Eu201 O208 2.370 1_545 S
Eu201 O216 2.363 1_545 S
Eu201 O217 2.363 . S
Eu201 O232 2.363 1_554 S
Eu201 O233 2.363 . S
Eu202 O200 2.370 1_554 S
Eu202 O204 2.370 . S
Eu202 O209 2.370 1_545 S
Eu202 O210 2.370 1_544 S
Eu202 O218 2.363 1_545 S
Eu202 O219 2.363 . S
Eu202 O234 2.363 1_554 S
Eu202 O235 2.363 . S
O203 Eu198 2.370 1_556 S
O203 Eu201 2.370 1_556 S
O203 Eu205 2.370 . S
O204 Eu198 2.370 1_655 S
O204 Eu202 2.370 . S
O204 Eu206 2.370 1_655 S
Eu205 O200 2.370 1_455 S
Eu205 O203 2.370 . S
Eu205 O207 2.370 1_545 S
Eu205 O210 2.370 1_445 S
Eu205 O222 2.363 1_455 S
Eu205 O223 2.363 . S
Eu205 O230 2.363 . S
Eu205 O231 2.363 1_545 S
Eu206 O199 2.370 . S
Eu206 O204 2.370 1_455 S
Eu206 O208 2.370 1_545 S
Eu206 O209 2.370 1_445 S
Eu206 O220 2.363 1_455 S
Eu206 O221 2.363 . S
Eu206 O228 2.363 . S
Eu206 O229 2.363 1_545 S
O207 Eu201 2.370 1_566 S
O207 Eu205 2.370 1_565 S
O207 Eu211 2.370 1_556 S
O208 Eu201 2.370 1_565 S
O208 Eu206 2.370 1_565 S
O208 Eu211 2.370 . S
O209 Eu202 2.370 1_565 S
O209 Eu206 2.370 1_665 S
O209 Eu211 2.370 1_655 S
O210 Eu202 2.370 1_566 S
O210 Eu205 2.370 1_665 S
O210 Eu211 2.370 1_656 S
Eu211 O207 2.370 1_554 S
Eu211 O208 2.370 . S
Eu211 O209 2.370 1_455 S
Eu211 O210 2.370 1_454 S
Eu211 O214 2.363 1_554 S
Eu211 O215 2.363 . S
Eu211 O224 2.363 1_455 S
Eu211 O225 2.363 . S
O212 C186 1.283 . S
O212 Eu198 2.363 1_556 S
O213 C187 1.283 . S
O213 Eu198 2.363 . S
O214 C188 1.283 . S
O214 Eu211 2.363 1_556 S
O215 C189 1.283 . S
O215 Eu211 2.363 . S
O216 C190 1.283 . S
O216 Eu201 2.363 1_565 S
O217 C191 1.283 . S
O217 Eu201 2.363 . S
O218 C192 1.283 . S
O218 Eu202 2.363 1_565 S
O219 C193 1.283 . S
O219 Eu202 2.363 . S
O220 C194 1.283 . S
O220 Eu206 2.363 1_655 S
O221 C195 1.283 . S
O221 Eu206 2.363 . S
O222 C196 1.283 . S
O222 Eu205 2.363 1_655 S
O223 C197 1.283 . S
O223 Eu205 2.363 . S
O224 C192 1.283 . S
O224 Eu211 2.363 1_655 S
O225 C190 1.283 . S
O225 Eu211 2.363 . S
O226 C193 1.283 . S
O226 Eu198 2.363 1_655 S
O227 C191 1.283 . S
O227 Eu198 2.363 . S
O228 C187 1.283 . S
O228 Eu206 2.363 . S
O229 C189 1.283 . S
O229 Eu206 2.363 1_565 S
O230 C186 1.283 . S
O230 Eu205 2.363 . S
O231 C188 1.283 . S
O231 Eu205 2.363 1_565 S
O232 C197 1.283 . S
O232 Eu201 2.363 1_556 S
O233 C195 1.283 . S
O233 Eu201 2.363 . S
O234 C196 1.283 . S
O234 Eu202 2.363 1_556 S
O235 C194 1.283 . S
O235 Eu202 2.363 . S
H236 C244 0.929 . S
H237 C246 0.930 . S
H238 C248 0.930 . S
H239 C251 0.929 . S
H240 C254 0.930 . S
H241 C256 0.960 . S
H242 C256 0.960 . S
H243 C256 0.960 . S
C244 H236 0.929 . S
C244 C245 1.377 . S
C244 C246 1.384 . S
C245 C244 1.377 . S
C245 C251 1.390 . S
C246 H237 0.930 . S
C246 C244 1.384 . S
C246 C247 1.372 . S
C247 C246 1.372 . S
C247 C248 1.400 . S
C247 C252 1.490 . S
C248 H238 0.930 . S
C248 C247 1.400 . S
C248 C251 1.386 . S
H249 C265 0.930 . S
H250 C266 0.931 . S
C251 H239 0.929 . S
C251 C245 1.390 . S
C251 C248 1.386 . S
C252 C247 1.490 . S
C252 C254 1.395 . S
C252 C255 1.403 . S
H253 C259 0.930 1_655 S
C254 H240 0.930 . S
C254 C252 1.395 . S
C254 C257 1.403 . S
C255 C252 1.403 . S
C255 C256 1.524 1_455 S
C255 C259 1.400 . S
C256 H241 0.960 . S
C256 H242 0.960 . S
C256 H243 0.960 . S
C256 C255 1.524 1_655 S
C257 C254 1.403 . S
C257 C258 1.392 . S
C257 C261 1.495 . S
C258 C257 1.392 . S
C258 C259 1.385 . S
C258 C260 1.478 . S
C259 H253 0.930 1_455 S
C259 C255 1.400 . S
C259 C258 1.385 . S
C260 C258 1.478 . S
C260 C262 1.381 . S
C260 C266 1.383 . S
C261 C257 1.495 . S
C261 H267 0.959 . S
C261 H268 0.961 . S
C261 H269 0.960 . S
C262 C260 1.381 . S
C262 C263 1.394 . S
C262 H270 0.930 . S
C263 C262 1.394 . S
C263 C264 1.383 . S
C263 H271 0.929 . S
C264 C263 1.383 . S
C264 C265 1.377 . S
C265 H249 0.930 . S
C265 C264 1.377 . S
C265 C266 1.379 . S
C266 H250 0.931 . S
C266 C260 1.383 . S
C266 C265 1.379 . S
H267 C261 0.959 . S
H268 C261 0.961 . S
H269 C261 0.960 . S
H270 C262 0.930 . S
H271 C263 0.929 . S
H272 C280 0.929 . S
H273 C282 0.930 . S
H274 C284 0.930 . S
H275 C287 0.929 . S
H276 C290 0.930 . S
H277 C292 0.960 . S
H278 C292 0.960 . S
H279 C292 0.960 . S
C280 H272 0.929 . S
C280 C281 1.376 . S
C280 C282 1.384 . S
C281 C280 1.376 . S
C281 C287 1.391 1_565 S
C282 H273 0.930 . S
C282 C280 1.384 . S
C282 C283 1.372 . S
C283 C282 1.372 . S
C283 C284 1.400 1_565 S
C283 C288 1.490 . S
C284 H274 0.930 . S
C284 C283 1.400 1_545 S
C284 C287 1.386 . S
H285 C301 0.930 . S
H286 C302 0.931 . S
C287 H275 0.929 . S
C287 C281 1.391 1_545 S
C287 C284 1.386 . S
C288 C283 1.490 . S
C288 C290 1.395 . S
C288 C291 1.403 1_565 S
H289 C295 0.930 . S
C290 H276 0.930 . S
C290 C288 1.395 . S
C290 C293 1.403 . S
C291 C288 1.403 1_545 S
C291 C292 1.524 . S
C291 C295 1.400 . S
C292 H277 0.960 . S
C292 H278 0.960 . S
C292 H279 0.960 . S
C292 C291 1.524 . S
C293 C290 1.403 . S
C293 C294 1.392 . S
C293 C297 1.495 . S
C294 C293 1.392 . S
C294 C295 1.385 1_565 S
C294 C296 1.478 . S
C295 H289 0.930 . S
C295 C291 1.400 . S
C295 C294 1.385 1_545 S
C296 C294 1.478 . S
C296 C298 1.381 . S
C296 C302 1.383 1_565 S
C297 C293 1.495 . S
C297 H303 0.959 . S
C297 H304 0.961 . S
C297 H305 0.960 . S
C298 C296 1.381 . S
C298 C299 1.394 . S
C298 H306 0.930 . S
C299 C298 1.394 . S
C299 C300 1.383 . S
C299 H307 0.929 . S
C300 C299 1.383 . S
C300 C301 1.377 1_565 S
C301 H285 0.930 . S
C301 C300 1.377 1_545 S
C301 C302 1.379 . S
C302 H286 0.931 . S
C302 C296 1.383 1_545 S
C302 C301 1.379 . S
H303 C297 0.959 . S
H304 C297 0.961 . S
H305 C297 0.960 . S
H306 C298 0.930 . S
H307 C299 0.929 . S
H308 C316 0.929 1_655 S
H309 C318 0.930 1_655 S
H310 C320 0.930 . S
H311 C323 0.929 . S
H312 C326 0.930 . S
H313 C328 0.960 . S
H314 C328 0.960 . S
H315 C328 0.960 . S
C316 H308 0.929 1_455 S
C316 C317 1.377 . S
C316 C318 1.384 . S
C317 C316 1.377 . S
C317 C323 1.390 . S
C318 H309 0.930 1_455 S
C318 C316 1.384 . S
C318 C319 1.372 . S
C319 C318 1.372 . S
C319 C320 1.400 . S
C319 C324 1.490 . S
C320 H310 0.930 . S
C320 C319 1.400 . S
C320 C323 1.386 . S
H321 C337 0.930 . S
H322 C338 0.931 . S
C323 H311 0.929 . S
C323 C317 1.390 . S
C323 C320 1.386 . S
C324 C319 1.490 . S
C324 C326 1.395 1_455 S
C324 C327 1.403 . S
H325 C331 0.930 . S
C326 H312 0.930 . S
C326 C324 1.395 1_655 S
C326 C329 1.403 . S
C327 C324 1.403 . S
C327 C328 1.524 . S
C327 C331 1.400 . S
C328 H313 0.960 . S
C328 H314 0.960 . S
C328 H315 0.960 . S
C328 C327 1.524 . S
C329 C326 1.403 . S
C329 C330 1.392 1_655 S
C329 C333 1.495 . S
C330 C329 1.392 1_455 S
C330 C331 1.385 . S
C330 C332 1.478 . S
C331 H325 0.930 . S
C331 C327 1.400 . S
C331 C330 1.385 . S
C332 C330 1.478 . S
C332 C334 1.381 . S
C332 C338 1.383 . S
C333 C329 1.495 . S
C333 H339 0.959 . S
C333 H340 0.961 . S
C333 H341 0.960 . S
C334 C332 1.381 . S
C334 C335 1.394 . S
C334 H342 0.930 1_455 S
C335 C334 1.394 . S
C335 C336 1.383 . S
C335 H343 0.929 1_455 S
C336 C335 1.383 . S
C336 C337 1.377 . S
C337 H321 0.930 . S
C337 C336 1.377 . S
C337 C338 1.379 . S
C338 H322 0.931 . S
C338 C332 1.383 . S
C338 C337 1.379 . S
H339 C333 0.959 . S
H340 C333 0.961 . S
H341 C333 0.960 . S
H342 C334 0.930 1_655 S
H343 C335 0.929 1_655 S
H344 C352 0.929 . S
H345 C354 0.930 . S
H346 C356 0.930 . S
H347 C359 0.929 . S
H348 C362 0.930 . S
H349 C364 0.960 . S
H350 C364 0.960 . S
H351 C364 0.960 . S
C352 H344 0.929 . S
C352 C353 1.380 . S
C352 C354 1.384 . S
C353 C352 1.380 . S
C353 C359 1.387 1_565 S
C354 H345 0.930 . S
C354 C352 1.384 . S
C354 C355 1.372 . S
C355 C354 1.372 . S
C355 C356 1.400 1_565 S
C355 C360 1.490 . S
C356 H346 0.930 . S
C356 C355 1.400 1_545 S
C356 C359 1.386 . S
H357 C373 0.930 . S
H358 C374 0.931 . S
C359 H347 0.929 . S
C359 C353 1.387 1_545 S
C359 C356 1.386 . S
C360 C355 1.490 . S
C360 C362 1.395 . S
C360 C363 1.403 1_565 S
H361 C367 0.930 . S
C362 H348 0.930 . S
C362 C360 1.395 . S
C362 C365 1.403 . S
C363 C360 1.403 1_545 S
C363 C364 1.524 . S
C363 C367 1.400 . S
C364 H349 0.960 . S
C364 H350 0.960 . S
C364 H351 0.960 . S
C364 C363 1.524 . S
C365 C362 1.403 . S
C365 C366 1.392 . S
C365 C369 1.495 . S
C366 C365 1.392 . S
C366 C367 1.385 1_565 S
C366 C368 1.478 . S
C367 H361 0.930 . S
C367 C363 1.400 . S
C367 C366 1.385 1_545 S
C368 C366 1.478 . S
C368 C370 1.381 . S
C368 C374 1.383 1_565 S
C369 C365 1.495 . S
C369 H375 0.959 . S
C369 H376 0.961 . S
C369 H377 0.960 . S
C370 C368 1.381 . S
C370 C371 1.394 . S
C370 H378 0.930 . S
C371 C370 1.394 . S
C371 C372 1.383 . S
C371 H379 0.929 . S
C372 C371 1.383 . S
C372 C373 1.377 1_565 S
C373 H357 0.930 . S
C373 C372 1.377 1_545 S
C373 C374 1.379 . S
C374 H358 0.931 . S
C374 C368 1.383 1_545 S
C374 C373 1.379 . S
H375 C369 0.959 . S
H376 C369 0.961 . S
H377 C369 0.960 . S
H378 C370 0.930 . S
H379 C371 0.929 . S
H380 C388 0.929 1_655 S
H381 C390 0.930 1_655 S
H382 C392 0.930 . S
H383 C395 0.929 . S
H384 C398 0.930 . S
H385 C400 0.960 . S
H386 C400 0.960 . S
H387 C400 0.960 . S
C388 H380 0.929 1_455 S
C388 C389 1.377 . S
C388 C390 1.384 . S
C389 C388 1.377 . S
C389 C395 1.390 . S
C390 H381 0.930 1_455 S
C390 C388 1.384 . S
C390 C391 1.372 . S
C391 C390 1.372 . S
C391 C392 1.400 . S
C391 C396 1.490 . S
C392 H382 0.930 . S
C392 C391 1.400 . S
C392 C395 1.386 . S
H393 C409 0.930 . S
H394 C410 0.931 . S
C395 H383 0.929 . S
C395 C389 1.390 . S
C395 C392 1.386 . S
C396 C391 1.490 . S
C396 C398 1.395 1_455 S
C396 C399 1.403 . S
H397 C403 0.930 . S
C398 H384 0.930 . S
C398 C396 1.395 1_655 S
C398 C401 1.403 . S
C399 C396 1.403 . S
C399 C400 1.524 . S
C399 C403 1.400 . S
C400 H385 0.960 . S
C400 H386 0.960 . S
C400 H387 0.960 . S
C400 C399 1.524 . S
C401 C398 1.403 . S
C401 C402 1.392 1_655 S
C401 C405 1.495 . S
C402 C401 1.392 1_455 S
C402 C403 1.385 . S
C402 C404 1.478 . S
C403 H397 0.930 . S
C403 C399 1.400 . S
C403 C402 1.385 . S
C404 C402 1.478 . S
C404 C406 1.381 1_455 S
C404 C410 1.383 . S
C405 C401 1.495 . S
C405 H411 0.959 . S
C405 H412 0.961 . S
C405 H413 0.960 . S
C406 C404 1.381 1_655 S
C406 C407 1.394 1_655 S
C406 H414 0.930 . S
C407 C406 1.394 1_455 S
C407 C408 1.383 . S
C407 H415 0.929 1_455 S
C408 C407 1.383 . S
C408 C409 1.377 . S
C409 H393 0.930 . S
C409 C408 1.377 . S
C409 C410 1.379 . S
C410 H394 0.931 . S
C410 C404 1.383 . S
C410 C409 1.379 . S
H411 C405 0.959 . S
H412 C405 0.961 . S
H413 C405 0.960 . S
H414 C406 0.930 . S
H415 C407 0.929 1_655 S
H416 C424 0.929 . S
H417 C426 0.930 . S
H418 C428 0.930 . S
H419 C431 0.929 . S
H420 C434 0.930 . S
H421 C436 0.960 . S
H422 C436 0.960 . S
H423 C436 0.960 . S
C424 H416 0.929 . S
C424 C425 1.389 . S
C424 C426 1.384 . S
C425 C424 1.389 . S
C425 C431 1.379 1_545 S
C426 H417 0.930 . S
C426 C424 1.384 . S
C426 C427 1.372 . S
C427 C426 1.372 . S
C427 C428 1.400 1_545 S
C427 C432 1.490 . S
C428 H418 0.930 . S
C428 C427 1.400 1_565 S
C428 C431 1.386 . S
H429 C445 0.930 . S
H430 C446 0.931 . S
C431 H419 0.929 . S
C431 C425 1.379 1_565 S
C431 C428 1.386 . S
C432 C427 1.490 . S
C432 C434 1.395 1_545 S
C432 C435 1.403 . S
H433 C439 0.930 . S
C434 H420 0.930 . S
C434 C432 1.395 1_565 S
C434 C437 1.403 . S
C435 C432 1.403 . S
C435 C436 1.524 . S
C435 C439 1.400 . S
C436 H421 0.960 . S
C436 H422 0.960 . S
C436 H423 0.960 . S
C436 C435 1.524 . S
C437 C434 1.403 . S
C437 C438 1.392 . S
C437 C441 1.495 . S
C438 C437 1.392 . S
C438 C439 1.385 1_565 S
C438 C440 1.478 . S
C439 H433 0.930 . S
C439 C435 1.400 . S
C439 C438 1.385 1_545 S
C440 C438 1.478 . S
C440 C442 1.381 1_565 S
C440 C446 1.383 . S
C441 C437 1.495 . S
C441 H447 0.959 . S
C441 H448 0.961 . S
C441 H449 0.960 . S
C442 C440 1.381 1_545 S
C442 C443 1.394 . S
C442 H450 0.930 . S
C443 C442 1.394 . S
C443 C444 1.361 1_545 S
C443 H451 0.929 . S
C444 C443 1.361 1_565 S
C444 C445 1.400 . S
C445 H429 0.930 . S
C445 C444 1.400 . S
C445 C446 1.379 . S
C446 H430 0.931 . S
C446 C440 1.383 . S
C446 C445 1.379 . S
H447 C441 0.959 . S
H448 C441 0.961 . S
H449 C441 0.960 . S
H450 C442 0.930 . S
H451 C443 0.929 . S
H452 C460 0.929 . S
H453 C462 0.930 . S
H454 C464 0.930 . S
H455 C467 0.929 . S
H456 C470 0.930 . S
H457 C472 0.960 . S
H458 C472 0.960 1_455 S
H459 C472 0.960 . S
C460 H452 0.929 . S
C460 C461 1.377 . S
C460 C462 1.384 . S
C461 C460 1.377 . S
C461 C467 1.390 1_455 S
C462 H453 0.930 . S
C462 C460 1.384 . S
C462 C463 1.372 . S
C463 C462 1.372 . S
C463 C464 1.400 1_455 S
C463 C468 1.490 . S
C464 H454 0.930 . S
C464 C463 1.400 1_655 S
C464 C467 1.386 . S
H465 C481 0.930 . S
H466 C482 0.923 1_655 S
C467 H455 0.929 . S
C467 C461 1.390 1_655 S
C467 C464 1.386 . S
C468 C463 1.490 . S
C468 C470 1.395 . S
C468 C471 1.403 . S
H469 C475 0.938 . S
C470 H456 0.930 . S
C470 C468 1.395 . S
C470 C473 1.403 . S
C471 C468 1.403 . S
C471 C472 1.524 1_455 S
C471 C475 1.400 . S
C472 H457 0.960 . S
C472 H458 0.960 1_655 S
C472 H459 0.960 . S
C472 C471 1.524 1_655 S
C473 C470 1.403 . S
C473 C474 1.392 . S
C473 C477 1.495 . S
C474 C473 1.392 . S
C474 C475 1.385 . S
C474 C476 1.478 . S
C475 H469 0.938 . S
C475 C471 1.400 . S
C475 C474 1.385 . S
C476 C474 1.478 . S
C476 C478 1.381 . S
C476 C482 1.390 . S
C477 C473 1.495 . S
C477 H483 0.959 . S
C477 H484 0.961 . S
C477 H485 0.960 . S
C478 C476 1.381 . S
C478 C479 1.394 . S
C478 H486 0.930 . S
C479 C478 1.394 . S
C479 C480 1.383 . S
C479 H487 0.929 . S
C480 C479 1.383 . S
C480 C481 1.377 1_455 S
C481 H465 0.930 . S
C481 C480 1.377 1_655 S
C481 C482 1.379 1_655 S
C482 H466 0.923 1_455 S
C482 C476 1.390 . S
C482 C481 1.379 1_455 S
H483 C477 0.959 . S
H484 C477 0.961 . S
H485 C477 0.960 . S
H486 C478 0.930 . S
H487 C479 0.929 . S
H488 C496 0.929 . S
H489 C498 0.930 . S
H490 C500 0.930 . S
H491 C503 0.929 . S
H492 C506 0.930 . S
H493 C508 0.960 . S
H494 C508 0.960 . S
H495 C508 0.960 1_545 S
C496 H488 0.929 . S
C496 C497 1.386 . S
C496 C498 1.384 . S
C497 C496 1.386 . S
C497 C503 1.381 1_565 S
C498 H489 0.930 . S
C498 C496 1.384 . S
C498 C499 1.372 . S
C499 C498 1.372 . S
C499 C500 1.400 1_565 S
C499 C504 1.490 . S
C500 H490 0.930 . S
C500 C499 1.400 1_545 S
C500 C503 1.386 . S
H501 C517 0.930 . S
H502 C518 0.931 . S
C503 H491 0.929 . S
C503 C497 1.381 1_545 S
C503 C500 1.386 . S
C504 C499 1.490 . S
C504 C506 1.395 . S
C504 C507 1.403 . S
H505 C511 0.930 1_545 S
C506 H492 0.930 . S
C506 C504 1.395 . S
C506 C509 1.403 . S
C507 C504 1.403 . S
C507 C508 1.524 . S
C507 C511 1.400 . S
C508 H493 0.960 . S
C508 H494 0.960 . S
C508 H495 0.960 1_565 S
C508 C507 1.524 . S
C509 C506 1.403 . S
C509 C510 1.392 . S
C509 C513 1.495 . S
C510 C509 1.392 . S
C510 C511 1.385 . S
C510 C512 1.478 . S
C511 H505 0.930 1_565 S
C511 C507 1.400 . S
C511 C510 1.385 . S
C512 C510 1.478 . S
C512 C514 1.382 . S
C512 C518 1.381 1_565 S
C513 C509 1.495 . S
C513 H519 0.959 . S
C513 H520 0.961 1_565 S
C513 H521 0.960 . S
C514 C512 1.382 . S
C514 C515 1.394 . S
C514 H522 0.930 . S
C515 C514 1.394 . S
C515 C516 1.377 1_565 S
C515 H523 0.929 . S
C516 C515 1.377 1_545 S
C516 C517 1.383 . S
C517 H501 0.930 . S
C517 C516 1.383 . S
C517 C518 1.379 . S
C518 H502 0.931 . S
C518 C512 1.381 1_545 S
C518 C517 1.379 . S
H519 C513 0.959 . S
H520 C513 0.961 1_545 S
H521 C513 0.960 . S
H522 C514 0.930 . S
H523 C515 0.929 . S
H524 C532 0.929 . S
H525 C534 0.930 . S
H526 C536 0.930 . S
H527 C539 0.929 . S
H528 C542 0.930 . S
H529 C544 0.960 . S
H530 C544 0.960 . S
H531 C544 0.960 . S
C532 H524 0.929 . S
C532 C533 1.377 1_556 S
C532 C534 1.384 . S
C533 C532 1.377 1_554 S
C533 C539 1.390 . S
C534 H525 0.930 . S
C534 C532 1.384 . S
C534 C535 1.372 1_556 S
C535 C534 1.372 1_554 S
C535 C536 1.400 . S
C535 C540 1.490 . S
C536 H526 0.930 . S
C536 C535 1.400 . S
C536 C539 1.386 . S
H537 C553 0.930 . S
H538 C554 0.931 . S
C539 H527 0.929 . S
C539 C533 1.390 . S
C539 C536 1.386 . S
C540 C535 1.490 . S
C540 C542 1.395 1_554 S
C540 C543 1.403 . S
H541 C547 0.930 . S
C542 H528 0.930 . S
C542 C540 1.395 1_556 S
C542 C545 1.403 . S
C543 C540 1.403 . S
C543 C544 1.524 . S
C543 C547 1.400 . S
C544 H529 0.960 . S
C544 H530 0.960 . S
C544 H531 0.960 . S
C544 C543 1.524 . S
C545 C542 1.403 . S
C545 C546 1.392 1_556 S
C545 C549 1.495 . S
C546 C545 1.392 1_554 S
C546 C547 1.385 . S
C546 C548 1.478 . S
C547 H541 0.930 . S
C547 C543 1.400 . S
C547 C546 1.385 . S
C548 C546 1.478 . S
C548 C550 1.381 1_554 S
C548 C554 1.383 . S
C549 C545 1.495 . S
C549 H555 0.959 . S
C549 H556 0.941 1_556 S
C549 H557 0.960 . S
C550 C548 1.381 1_556 S
C550 C551 1.394 . S
C550 H558 0.930 . S
C551 C550 1.394 . S
C551 C552 1.383 1_556 S
C551 H559 0.929 . S
C552 C551 1.383 1_554 S
C552 C553 1.377 . S
C553 H537 0.930 . S
C553 C552 1.377 . S
C553 C554 1.379 . S
C554 H538 0.931 . S
C554 C548 1.383 . S
C554 C553 1.379 . S
H555 C549 0.959 . S
H556 C549 0.941 1_554 S
H557 C549 0.960 . S
H558 C550 0.930 . S
H559 C551 0.929 . S
H560 C568 0.929 . S
H561 C570 0.930 . S
H562 C572 0.930 . S
H563 C575 0.929 . S
H564 C578 0.930 . S
H565 C580 0.960 . S
H566 C580 0.960 . S
H567 C580 0.960 . S
C568 H560 0.929 . S
C568 C569 1.377 . S
C568 C570 1.384 . S
C569 C568 1.377 . S
C569 C575 1.390 1_554 S
C570 H561 0.930 . S
C570 C568 1.384 . S
C570 C571 1.372 . S
C571 C570 1.372 . S
C571 C572 1.400 1_554 S
C571 C576 1.490 . S
C572 H562 0.930 . S
C572 C571 1.400 1_556 S
C572 C575 1.386 . S
H573 C589 0.930 . S
H574 C590 0.931 . S
C575 H563 0.929 . S
C575 C569 1.390 1_556 S
C575 C572 1.386 . S
C576 C571 1.490 . S
C576 C578 1.395 . S
C576 C579 1.403 1_554 S
H577 C583 0.930 . S
C578 H564 0.930 . S
C578 C576 1.395 . S
C578 C581 1.403 . S
C579 C576 1.403 1_556 S
C579 C580 1.524 . S
C579 C583 1.400 . S
C580 H565 0.960 . S
C580 H566 0.960 . S
C580 H567 0.960 . S
C580 C579 1.524 . S
C581 C578 1.403 . S
C581 C582 1.392 . S
C581 C585 1.495 . S
C582 C581 1.392 . S
C582 C583 1.385 1_554 S
C582 C584 1.478 . S
C583 H577 0.930 . S
C583 C579 1.400 . S
C583 C582 1.385 1_556 S
C584 C582 1.478 . S
C584 C586 1.381 . S
C584 C590 1.383 1_554 S
C585 C581 1.495 . S
C585 H591 0.959 . S
C585 H592 0.961 . S
C585 H593 0.960 . S
C586 C584 1.381 . S
C586 C587 1.394 . S
C586 H594 0.930 . S
C587 C586 1.394 . S
C587 C588 1.383 . S
C587 H595 0.929 . S
C588 C587 1.383 . S
C588 C589 1.377 1_554 S
C589 H573 0.930 . S
C589 C588 1.377 1_556 S
C589 C590 1.379 . S
C590 H574 0.931 . S
C590 C584 1.383 1_556 S
C590 C589 1.379 . S
H591 C585 0.959 . S
H592 C585 0.961 . S
H593 C585 0.960 . S
H594 C586 0.930 . S
H595 C587 0.929 . S
H596 C604 0.929 . S
H597 C606 0.930 . S
H598 C608 0.930 . S
H599 C611 0.929 . S
H600 C614 0.930 . S
H601 C616 0.960 . S
H602 C616 0.960 . S
H603 C616 0.960 1_554 S
C604 H596 0.929 . S
C604 C605 1.377 1_556 S
C604 C606 1.384 . S
C605 C604 1.377 1_554 S
C605 C611 1.390 . S
C606 H597 0.930 . S
C606 C604 1.384 . S
C606 C607 1.372 1_556 S
C607 C606 1.372 1_554 S
C607 C608 1.400 . S
C607 C612 1.490 . S
C608 H598 0.930 . S
C608 C607 1.400 . S
C608 C611 1.386 . S
H609 C625 0.930 . S
H610 C626 0.931 . S
C611 H599 0.929 . S
C611 C605 1.390 . S
C611 C608 1.386 . S
C612 C607 1.490 . S
C612 C614 1.395 . S
C612 C615 1.401 1_554 S
H613 C619 0.928 1_556 S
C614 H600 0.930 . S
C614 C612 1.395 . S
C614 C617 1.403 . S
C615 C612 1.401 1_556 S
C615 C616 1.526 . S
C615 C619 1.399 1_556 S
C616 H601 0.960 . S
C616 H602 0.960 . S
C616 H603 0.960 1_556 S
C616 C615 1.526 . S
C617 C614 1.403 . S
C617 C618 1.392 . S
C617 C621 1.495 . S
C618 C617 1.392 . S
C618 C619 1.390 . S
C618 C620 1.478 . S
C619 H613 0.928 1_554 S
C619 C615 1.399 1_554 S
C619 C618 1.390 . S
C620 C618 1.478 . S
C620 C622 1.381 1_554 S
C620 C626 1.383 . S
C621 C617 1.495 . S
C621 H627 0.959 . S
C621 H628 0.961 . S
C621 H629 0.960 1_554 S
C622 C620 1.381 1_556 S
C622 C623 1.394 . S
C622 H630 0.930 . S
C623 C622 1.394 . S
C623 C624 1.383 1_556 S
C623 H631 0.929 . S
C624 C623 1.383 1_554 S
C624 C625 1.377 . S
C625 H609 0.930 . S
C625 C624 1.377 . S
C625 C626 1.379 . S
C626 H610 0.931 . S
C626 C620 1.383 . S
C626 C625 1.379 . S
H627 C621 0.959 . S
H628 C621 0.961 . S
H629 C621 0.960 1_556 S
H630 C622 0.930 . S
H631 C623 0.929 . S
H632 C640 0.927 1_556 S
H633 C642 0.930 1_556 S
H634 C644 0.930 . S
H635 C647 0.929 . S
H636 C650 0.930 . S
H637 C652 0.960 . S
H638 C652 0.960 . S
H639 C652 0.960 . S
C640 H632 0.927 1_554 S
C640 C641 1.377 . S
C640 C642 1.384 . S
C641 C640 1.377 . S
C641 C647 1.390 . S
C642 H633 0.930 1_554 S
C642 C640 1.384 . S
C642 C643 1.372 . S
C643 C642 1.372 . S
C643 C644 1.400 . S
C643 C648 1.490 . S
C644 H634 0.930 . S
C644 C643 1.400 . S
C644 C647 1.386 . S
H645 C661 0.930 . S
H646 C662 0.931 . S
C647 H635 0.929 . S
C647 C641 1.390 . S
C647 C644 1.386 . S
C648 C643 1.490 . S
C648 C650 1.395 1_554 S
C648 C651 1.403 . S
H649 C655 0.930 . S
C650 H636 0.930 . S
C650 C648 1.395 1_556 S
C650 C653 1.403 . S
C651 C648 1.403 . S
C651 C652 1.524 . S
C651 C655 1.400 . S
C652 H637 0.960 . S
C652 H638 0.960 . S
C652 H639 0.960 . S
C652 C651 1.524 . S
C653 C650 1.403 . S
C653 C654 1.403 . S
C653 C657 1.495 . S
C654 C653 1.403 . S
C654 C655 1.374 1_556 S
C654 C656 1.477 . S
C655 H649 0.930 . S
C655 C651 1.400 . S
C655 C654 1.374 1_554 S
C656 C654 1.477 . S
C656 C658 1.382 . S
C656 C662 1.381 1_556 S
C657 C653 1.495 . S
C657 H663 0.959 . S
C657 H664 0.961 . S
C657 H665 0.960 . S
C658 C656 1.382 . S
C658 C659 1.394 1_556 S
C658 H666 0.930 . S
C659 C658 1.394 1_554 S
C659 C660 1.383 . S
C659 H667 0.929 . S
C660 C659 1.383 . S
C660 C661 1.377 . S
C661 H645 0.930 . S
C661 C660 1.377 . S
C661 C662 1.379 . S
C662 H646 0.931 . S
C662 C656 1.381 1_554 S
C662 C661 1.379 . S
H663 C657 0.959 . S
H664 C657 0.961 . S
H665 C657 0.960 . S
H666 C658 0.930 . S
H667 C659 0.929 . S
C264 C187 2.059 . S
C245 C53 2.060 . S
C300 C194 1.053 1_565 S
C281 C97 1.064 . S
C336 C189 2.055 . S
C317 C35 2.065 . S
C372 C195 1.234 1_565 S
C353 C91 1.196 . S
C389 C29 2.209 . S
C408 C188 2.267 . S
C444 C197 1.234 1_565 S
C425 C109 1.201 1_545 S
C461 C47 2.210 . S
C480 C186 2.263 . S
C497 C115 1.064 . S
C516 C196 1.072 . S
C533 C153 1.670 . S
C552 C191 1.725 . S
C569 C171 1.671 . S
C588 C190 1.729 . S
C624 C193 1.496 . S
C605 C159 1.493 . S
C660 C192 1.494 . S
C641 C177 1.496 . S
