# Generated by pormake.
# Topology pyr, (3,6)-cn, num edge types: 1
# Building blocks:
#     Node 0, Type 0, BuildingBlock: VETTIZ_charged_linker_0, # of connection points: 3
#     Node 1, Type 0, BuildingBlock: VETTIZ_charged_linker_0, # of connection points: 3
#     Node 2, Type 0, BuildingBlock: VETTIZ_charged_linker_0, # of connection points: 3
#     Node 3, Type 0, BuildingBlock: VETTIZ_charged_linker_0, # of connection points: 3
#     Node 4, Type 0, BuildingBlock: VETTIZ_charged_linker_0, # of connection points: 3
#     Node 5, Type 0, BuildingBlock: VETTIZ_charged_linker_0, # of connection points: 3
#     Node 6, Type 0, BuildingBlock: VETTIZ_charged_linker_0, # of connection points: 3
#     Node 7, Type 0, BuildingBlock: VETTIZ_charged_linker_0, # of connection points: 3
#     Node 8, Type 1, BuildingBlock: MIDCAF_clean_sbu_0, # of connection points: 6
#     Node 9, Type 1, BuildingBlock: MIDCAF_clean_sbu_0, # of connection points: 6
#     Node 10, Type 1, BuildingBlock: MIDCAF_clean_sbu_0, # of connection points: 6
#     Node 11, Type 1, BuildingBlock: MIDCAF_clean_sbu_0, # of connection points: 6
#     Edge 12, Type (0, 1), BuildingBlock: ZUJKAS_clean_linker_0, # of connection points: 2
#     Edge 13, Type (0, 1), BuildingBlock: ZUJKAS_clean_linker_0, # of connection points: 2
#     Edge 14, Type (0, 1), BuildingBlock: ZUJKAS_clean_linker_0, # of connection points: 2
#     Edge 15, Type (0, 1), BuildingBlock: ZUJKAS_clean_linker_0, # of connection points: 2
#     Edge 16, Type (0, 1), BuildingBlock: ZUJKAS_clean_linker_0, # of connection points: 2
#     Edge 17, Type (0, 1), BuildingBlock: ZUJKAS_clean_linker_0, # of connection points: 2
#     Edge 18, Type (0, 1), BuildingBlock: ZUJKAS_clean_linker_0, # of connection points: 2
#     Edge 19, Type (0, 1), BuildingBlock: ZUJKAS_clean_linker_0, # of connection points: 2
#     Edge 20, Type (0, 1), BuildingBlock: ZUJKAS_clean_linker_0, # of connection points: 2
#     Edge 21, Type (0, 1), BuildingBlock: ZUJKAS_clean_linker_0, # of connection points: 2
#     Edge 22, Type (0, 1), BuildingBlock: ZUJKAS_clean_linker_0, # of connection points: 2
#     Edge 23, Type (0, 1), BuildingBlock: ZUJKAS_clean_linker_0, # of connection points: 2
#     Edge 24, Type (0, 1), BuildingBlock: ZUJKAS_clean_linker_0, # of connection points: 2
#     Edge 25, Type (0, 1), BuildingBlock: ZUJKAS_clean_linker_0, # of connection points: 2
#     Edge 26, Type (0, 1), BuildingBlock: ZUJKAS_clean_linker_0, # of connection points: 2
#     Edge 27, Type (0, 1), BuildingBlock: ZUJKAS_clean_linker_0, # of connection points: 2
#     Edge 28, Type (0, 1), BuildingBlock: ZUJKAS_clean_linker_0, # of connection points: 2
#     Edge 29, Type (0, 1), BuildingBlock: ZUJKAS_clean_linker_0, # of connection points: 2
#     Edge 30, Type (0, 1), BuildingBlock: ZUJKAS_clean_linker_0, # of connection points: 2
#     Edge 31, Type (0, 1), BuildingBlock: ZUJKAS_clean_linker_0, # of connection points: 2
#     Edge 32, Type (0, 1), BuildingBlock: ZUJKAS_clean_linker_0, # of connection points: 2
#     Edge 33, Type (0, 1), BuildingBlock: ZUJKAS_clean_linker_0, # of connection points: 2
#     Edge 34, Type (0, 1), BuildingBlock: ZUJKAS_clean_linker_0, # of connection points: 2
#     Edge 35, Type (0, 1), BuildingBlock: ZUJKAS_clean_linker_0, # of connection points: 2
# Relax obj value: 0.019
# Max RMSD: 0.063
# Mean RMSD: 0.021
data_MOF--net-pyr--node1-MIDCAF_clean_sbu_0--node2-VETTIZ_charged_linker_0--edge1-ZUJKAS_clean_linker_0
_symmetry_space_group_name_H-M    P1
_symmetry_Int_Tables_number       1
_symmetry_cell_setting            triclinic
loop_
_symmetry_equiv_pos_as_xyz
'x, y, z'
_cell_length_a     54.227523
_cell_length_b     54.272441
_cell_length_c     54.262231
_cell_angle_alpha  89.959821
_cell_angle_beta   90.061765
_cell_angle_gamma 90.103893
loop_
_atom_site_label
_atom_site_type_symbol
_atom_site_fract_x
_atom_site_fract_y
_atom_site_fract_z
_atom_type_partial_charge
C0 C 0.19153 0.19186 0.30074 0.0
C1 C 0.17155 0.20438 0.31156 0.0
C2 C 0.16392 0.22697 0.30115 0.0
C3 C 0.19527 0.22368 0.26947 0.0
C4 C 0.20312 0.20185 0.27995 0.0
C5 C 0.22471 0.19091 0.26646 0.0
H6 H 0.30456 0.19573 0.17078 0.0
C7 C 0.21089 0.22866 0.24768 0.0
C8 C 0.22831 0.20961 0.24595 0.0
H9 H 0.30092 0.14124 0.22885 0.0
H10 H 0.26715 0.16319 0.24769 0.0
H11 H 0.29751 0.24265 0.2054 0.0
H12 H 0.24624 0.19975 0.16263 0.0
H13 H 0.23795 0.23078 0.15899 0.0
H14 H 0.26789 0.22062 0.14879 0.0
H15 H 0.29595 0.24467 0.17242 0.0
H16 H 0.2767 0.26346 0.19194 0.0
C17 C 0.24703 0.19021 0.28432 0.0
C18 C 0.21682 0.1654 0.25635 0.0
C19 C 0.19244 0.30217 0.19242 0.0
C20 C 0.20295 0.31072 0.17029 0.0
C21 C 0.22357 0.29829 0.16057 0.0
C22 C 0.2333 0.27751 0.17241 0.0
C23 C 0.22228 0.26889 0.19422 0.0
C24 C 0.20232 0.28129 0.20398 0.0
C25 C 0.1929 0.26934 0.22719 0.0
C26 C 0.21039 0.24764 0.22963 0.0
C27 C 0.22751 0.24747 0.21023 0.0
C28 C 0.19593 0.2879 0.24867 0.0
C29 C 0.16599 0.26089 0.22253 0.0
C30 C 0.29639 0.18842 0.18747 0.0
C31 C 0.30539 0.16665 0.19828 0.0
C32 C 0.29449 0.15807 0.22026 0.0
C33 C 0.27478 0.17079 0.2311 0.0
C34 C 0.26584 0.19238 0.21989 0.0
C35 C 0.27676 0.20092 0.19853 0.0
C36 C 0.26499 0.22421 0.18924 0.0
C37 C 0.24523 0.22831 0.20858 0.0
C38 C 0.24571 0.20955 0.22641 0.0
C39 C 0.28471 0.24492 0.18952 0.0
C40 C 0.25376 0.21882 0.1635 0.0
H41 H 0.16885 0.25381 0.27316 0.0
H42 H 0.19781 0.17435 0.30795 0.0
H43 H 0.19755 0.16599 0.2493 0.0
H44 H 0.22804 0.15928 0.24055 0.0
H45 H 0.21765 0.15111 0.27099 0.0
H46 H 0.24646 0.20589 0.29751 0.0
H47 H 0.24718 0.17292 0.29528 0.0
H48 H 0.2649 0.19226 0.27475 0.0
H49 H 0.17642 0.31109 0.20025 0.0
H50 H 0.23221 0.30466 0.14373 0.0
H51 H 0.24892 0.26885 0.16398 0.0
H52 H 0.21249 0.29974 0.24594 0.0
H53 H 0.17967 0.30023 0.25009 0.0
H54 H 0.19903 0.27878 0.26662 0.0
H55 H 0.16397 0.25317 0.20364 0.0
H56 H 0.15997 0.246 0.235 0.0
H57 H 0.15297 0.27658 0.22424 0.0
H58 H 0.14894 0.23732 0.30927 0.0
C59 C 0.17562 0.23664 0.28022 0.0
C60 C 0.24037 0.84961 0.6855 0.0
C61 C 0.23073 0.87074 0.69707 0.0
C62 C 0.24199 0.87921 0.71894 0.0
C63 C 0.27227 0.84642 0.71681 0.0
C64 C 0.26101 0.83781 0.69565 0.0
C65 C 0.27368 0.81533 0.6855 0.0
H66 H 0.3677 0.73349 0.69195 0.0
C67 C 0.29371 0.83042 0.72212 0.0
C68 C 0.29458 0.81209 0.70388 0.0
H69 H 0.30773 0.73538 0.63931 0.0
H70 H 0.29084 0.77108 0.65953 0.0
H71 H 0.37732 0.79147 0.69354 0.0
H72 H 0.33361 0.74385 0.73968 0.0
H73 H 0.34889 0.76486 0.75902 0.0
H74 H 0.3667 0.74386 0.74046 0.0
H75 H 0.39091 0.77038 0.7151 0.0
H76 H 0.38173 0.80098 0.72416 0.0
C77 C 0.28335 0.82162 0.65939 0.0
C78 C 0.25521 0.79352 0.68633 0.0
C79 C 0.34961 0.84995 0.79488 0.0
C80 C 0.37151 0.83932 0.80383 0.0
C81 C 0.38106 0.81839 0.79178 0.0
C82 C 0.3691 0.80833 0.77115 0.0
C83 C 0.34736 0.81933 0.7623 0.0
C84 C 0.33796 0.83977 0.77419 0.0
C85 C 0.31498 0.84935 0.76195 0.0
C86 C 0.31206 0.83124 0.74083 0.0
C87 C 0.33107 0.81369 0.74111 0.0
C88 C 0.3203 0.87585 0.75266 0.0
C89 C 0.29346 0.8474 0.78063 0.0
C90 C 0.35076 0.74136 0.68491 0.0
C91 C 0.33914 0.73148 0.66388 0.0
C92 C 0.31734 0.74273 0.6552 0.0
C93 C 0.30743 0.76341 0.66709 0.0
C94 C 0.31935 0.77308 0.68798 0.0
C95 C 0.34057 0.76197 0.69663 0.0
C96 C 0.35063 0.7746 0.7192 0.0
C97 C 0.33192 0.79508 0.72271 0.0
C98 C 0.31371 0.7942 0.70428 0.0
C99 C 0.37658 0.78482 0.71293 0.0
C100 C 0.35018 0.75592 0.7408 0.0
H101 H 0.27035 0.87468 0.74545 0.0
H102 H 0.2324 0.84267 0.66856 0.0
H103 H 0.24258 0.79514 0.7024 0.0
H104 H 0.26436 0.77551 0.68881 0.0
H105 H 0.24365 0.79294 0.66942 0.0
H106 H 0.29091 0.84069 0.65885 0.0
H107 H 0.26833 0.82045 0.6455 0.0
H108 H 0.29871 0.80971 0.65349 0.0
H109 H 0.34197 0.86628 0.80342 0.0
H110 H 0.39778 0.8097 0.7984 0.0
H111 H 0.37735 0.79244 0.76281 0.0
H112 H 0.33962 0.87753 0.74596 0.0
H113 H 0.31775 0.88955 0.76763 0.0
H114 H 0.30881 0.88118 0.73674 0.0
H115 H 0.29545 0.83073 0.79241 0.0
H116 H 0.2753 0.84525 0.77165 0.0
H117 H 0.29297 0.86369 0.793 0.0
H118 H 0.23478 0.89514 0.72852 0.0
C119 C 0.26263 0.8672 0.72884 0.0
C120 C 0.70984 0.24064 0.85695 0.0
C121 C 0.68901 0.22694 0.84969 0.0
C122 C 0.67697 0.23326 0.82749 0.0
C123 C 0.70602 0.2666 0.82063 0.0
C124 C 0.71796 0.26026 0.84223 0.0
C125 C 0.73957 0.27685 0.84755 0.0
H126 H 0.80877 0.37612 0.81671 0.0
C127 C 0.71893 0.28811 0.80987 0.0
C128 C 0.7387 0.2941 0.82553 0.0
H129 H 0.81648 0.32859 0.88024 0.0
H130 H 0.78268 0.30349 0.86597 0.0
H131 H 0.74962 0.37824 0.8177 0.0
H132 H 0.80074 0.33302 0.77755 0.0
H133 H 0.776 0.33879 0.75751 0.0
H134 H 0.79441 0.36422 0.76869 0.0
H135 H 0.76887 0.38988 0.79342 0.0
H136 H 0.73915 0.37644 0.78709 0.0
C137 C 0.73441 0.29052 0.87208 0.0
C138 C 0.76327 0.26093 0.84766 0.0
C139 C 0.68644 0.32836 0.73146 0.0
C140 C 0.69451 0.34871 0.71746 0.0
C141 C 0.71644 0.36087 0.7245 0.0
C142 C 0.72964 0.35348 0.74542 0.0
C143 C 0.72096 0.33364 0.7596 0.0
C144 C 0.69994 0.32115 0.75233 0.0
C145 C 0.69387 0.30014 0.76945 0.0
C146 C 0.71449 0.30237 0.78833 0.0
C147 C 0.73016 0.32217 0.78253 0.0
C148 C 0.66825 0.30514 0.78098 0.0
C149 C 0.69552 0.2758 0.75464 0.0
C150 C 0.80336 0.36013 0.82739 0.0
C151 C 0.81525 0.35446 0.84973 0.0
C152 C 0.8074 0.33362 0.86318 0.0
C153 C 0.7878 0.31899 0.85481 0.0
C154 C 0.77574 0.32522 0.83275 0.0
C155 C 0.7837 0.34537 0.81933 0.0
C156 C 0.76855 0.34931 0.79643 0.0
C157 C 0.7501 0.3283 0.79841 0.0
C158 C 0.75437 0.3143 0.81975 0.0
C159 C 0.75592 0.37482 0.79849 0.0
C160 C 0.78568 0.3464 0.77376 0.0
H161 H 0.67525 0.25692 0.79643 0.0
H162 H 0.7197 0.23617 0.87373 0.0
H163 H 0.76206 0.246 0.83367 0.0
H164 H 0.77996 0.27147 0.84264 0.0
H165 H 0.76616 0.25211 0.86591 0.0
H166 H 0.71445 0.29483 0.87397 0.0
H167 H 0.73983 0.27911 0.8882 0.0
H168 H 0.74376 0.30856 0.87329 0.0
H169 H 0.66967 0.31861 0.72669 0.0
H170 H 0.72345 0.3762 0.71381 0.0
H171 H 0.74601 0.36367 0.74983 0.0
H172 H 0.66611 0.32503 0.78542 0.0
H173 H 0.6532 0.29996 0.76807 0.0
H174 H 0.6654 0.29543 0.79862 0.0
H175 H 0.71016 0.27692 0.74032 0.0
H176 H 0.70078 0.25987 0.76617 0.0
H177 H 0.67784 0.27168 0.74514 0.0
H178 H 0.66069 0.22329 0.82158 0.0
C179 C 0.68535 0.25294 0.81296 0.0
C180 C 0.85179 0.79657 0.34961 0.0
C181 C 0.84139 0.80587 0.37146 0.0
C182 C 0.82037 0.79415 0.38133 0.0
C183 C 0.82087 0.76416 0.34822 0.0
C184 C 0.8413 0.77579 0.33838 0.0
C185 C 0.85039 0.76324 0.31539 0.0
H186 H 0.84043 0.66928 0.23386 0.0
C187 C 0.81484 0.74281 0.33239 0.0
C188 C 0.83202 0.7422 0.31306 0.0
H189 H 0.89394 0.72849 0.23427 0.0
H190 H 0.87476 0.74586 0.27036 0.0
H191 H 0.84056 0.65985 0.29221 0.0
H192 H 0.79348 0.7035 0.24551 0.0
H193 H 0.77456 0.68951 0.26774 0.0
H194 H 0.79155 0.6705 0.24641 0.0
H195 H 0.81907 0.64644 0.27087 0.0
H196 H 0.80993 0.65495 0.30161 0.0
C197 C 0.8769 0.75383 0.32033 0.0
C198 C 0.84826 0.78169 0.2937 0.0
C199 C 0.74348 0.68653 0.35541 0.0
C200 C 0.73349 0.66516 0.34463 0.0
C201 C 0.74377 0.65634 0.32246 0.0
C202 C 0.76389 0.66836 0.31147 0.0
C203 C 0.77389 0.68949 0.3227 0.0
C204 C 0.76352 0.69834 0.34418 0.0
C205 C 0.77632 0.72114 0.35341 0.0
C206 C 0.7962 0.72446 0.33401 0.0
C207 C 0.79479 0.7058 0.31614 0.0
C208 C 0.78737 0.71533 0.37912 0.0
C209 C 0.75751 0.74262 0.35314 0.0
C210 C 0.84785 0.68617 0.24149 0.0
C211 C 0.86881 0.69747 0.23112 0.0
C212 C 0.87804 0.71921 0.24202 0.0
C213 C 0.86679 0.72934 0.26294 0.0
C214 C 0.84606 0.71765 0.27324 0.0
C215 C 0.83684 0.69651 0.2624 0.0
C216 C 0.81469 0.68656 0.27584 0.0
C217 C 0.8122 0.70513 0.29659 0.0
C218 C 0.83067 0.72326 0.29502 0.0
C219 C 0.82114 0.66051 0.28559 0.0
C220 C 0.79233 0.68731 0.25805 0.0
H221 H 0.79413 0.76536 0.37834 0.0
H222 H 0.86811 0.80493 0.34168 0.0
H223 H 0.83163 0.7935 0.29575 0.0
H224 H 0.84589 0.77253 0.27568 0.0
H225 H 0.86459 0.79404 0.29287 0.0
H226 H 0.87878 0.74711 0.33962 0.0
H227 H 0.89068 0.76874 0.31758 0.0
H228 H 0.88197 0.73791 0.30877 0.0
H229 H 0.7358 0.69403 0.37222 0.0
H230 H 0.73656 0.63981 0.31388 0.0
H231 H 0.77102 0.66058 0.29477 0.0
H232 H 0.79445 0.69611 0.37984 0.0
H233 H 0.77326 0.71727 0.39381 0.0
H234 H 0.80343 0.72697 0.38375 0.0
H235 H 0.7443 0.74066 0.33755 0.0
H236 H 0.76627 0.76078 0.35025 0.0
H237 H 0.7466 0.74308 0.37045 0.0
H238 H 0.81179 0.80109 0.39795 0.0
C239 C 0.81006 0.77343 0.36984 0.0
C240 C 0.91873 0.83401 0.95552 0.0
C241 C 0.93949 0.81931 0.95061 0.0
C242 C 0.95582 0.82663 0.9317 0.0
C243 C 0.93043 0.86224 0.92277 0.0
C244 C 0.91456 0.85522 0.94141 0.0
C245 C 0.89289 0.87231 0.9437 0.0
H246 H 0.83021 0.97216 0.90296 0.0
C247 C 0.92051 0.88487 0.91131 0.0
C248 C 0.89855 0.8909 0.92356 0.0
H249 H 0.8091 0.92022 0.95952 0.0
H250 H 0.84733 0.89823 0.9542 0.0
H251 H 0.84939 0.93162 0.86584 0.0
H252 H 0.88839 0.97652 0.91839 0.0
H253 H 0.90681 0.97487 0.89183 0.0
H254 H 0.87661 0.98872 0.88998 0.0
H255 H 0.8545 0.96398 0.86126 0.0
H256 H 0.87679 0.94136 0.85167 0.0
C257 C 0.86906 0.85737 0.93823 0.0
C258 C 0.89373 0.88421 0.96962 0.0
C259 C 0.96376 0.92317 0.83741 0.0
C260 C 0.95864 0.94404 0.8229 0.0
C261 C 0.93863 0.95928 0.82944 0.0
C262 C 0.92364 0.95355 0.84963 0.0
C263 C 0.92852 0.93226 0.86348 0.0
C264 C 0.94858 0.91772 0.8576 0.0
C265 C 0.95115 0.8961 0.87479 0.0
C266 C 0.92898 0.89975 0.89149 0.0
C267 C 0.9157 0.92087 0.88463 0.0
C268 C 0.94898 0.87218 0.85935 0.0
C269 C 0.97582 0.89888 0.88897 0.0
C270 C 0.83408 0.95621 0.91433 0.0
C271 C 0.81676 0.9478 0.93164 0.0
C272 C 0.82218 0.92683 0.94594 0.0
C273 C 0.84437 0.91411 0.94282 0.0
C274 C 0.86126 0.92224 0.92496 0.0
C275 C 0.85606 0.94299 0.91111 0.0
C276 C 0.87569 0.9481 0.8922 0.0
C277 C 0.89345 0.92699 0.89699 0.0
C278 C 0.88493 0.91201 0.91629 0.0
C279 C 0.86365 0.94639 0.86632 0.0
C280 C 0.8875 0.97343 0.89813 0.0
H281 H 0.96446 0.85238 0.90363 0.0
H282 H 0.90589 0.82913 0.97 0.0
H283 H 0.91301 0.88905 0.97478 0.0
H284 H 0.88341 0.90169 0.97068 0.0
H285 H 0.88651 0.87136 0.98384 0.0
H286 H 0.8728 0.84165 0.92563 0.0
H287 H 0.861 0.84968 0.95541 0.0
H288 H 0.85491 0.86834 0.92852 0.0
H289 H 0.97916 0.91126 0.83306 0.0
H290 H 0.93407 0.97531 0.81845 0.0
H291 H 0.90854 0.96572 0.85338 0.0
H292 H 0.93478 0.87424 0.84468 0.0
H293 H 0.96676 0.86772 0.85024 0.0
H294 H 0.94293 0.85612 0.87027 0.0
H295 H 0.98018 0.91863 0.8924 0.0
H296 H 0.97529 0.89042 0.90749 0.0
H297 H 0.99138 0.89089 0.87838 0.0
H298 H 0.97174 0.81551 0.92717 0.0
C299 C 0.95145 0.84799 0.91786 0.0
C300 C 0.70927 0.09934 0.43311 0.0
C301 C 0.71903 0.07948 0.4196 0.0
C302 C 0.70597 0.07083 0.39883 0.0
C303 C 0.6746 0.10205 0.40486 0.0
C304 C 0.68715 0.11029 0.42545 0.0
C305 C 0.6746 0.13194 0.43736 0.0
H306 H 0.58212 0.2157 0.43589 0.0
C307 C 0.65269 0.11788 0.40141 0.0
C308 C 0.65253 0.1354 0.42046 0.0
H309 H 0.6423 0.21029 0.48799 0.0
H310 H 0.65723 0.17392 0.46718 0.0
H311 H 0.57017 0.1571 0.43292 0.0
H312 H 0.6143 0.20618 0.38886 0.0
H313 H 0.59966 0.18585 0.36841 0.0
H314 H 0.58125 0.20601 0.38732 0.0
H315 H 0.55697 0.1799 0.4129 0.0
H316 H 0.56489 0.14959 0.40185 0.0
C317 C 0.66672 0.12428 0.46371 0.0
C318 C 0.69245 0.15425 0.43639 0.0
C319 C 0.59673 0.10469 0.32727 0.0
C320 C 0.57578 0.11717 0.31843 0.0
C321 C 0.56633 0.13706 0.33218 0.0
C322 C 0.57767 0.14453 0.3542 0.0
C323 C 0.59883 0.13212 0.36256 0.0
C324 C 0.60793 0.11248 0.34921 0.0
C325 C 0.63081 0.10175 0.36066 0.0
C326 C 0.63399 0.11823 0.38305 0.0
C327 C 0.61521 0.13598 0.38406 0.0
C328 C 0.62521 0.07473 0.36805 0.0
C329 C 0.6523 0.10478 0.34206 0.0
C330 C 0.5986 0.2068 0.4428 0.0
C331 C 0.61111 0.21608 0.46357 0.0
C332 C 0.63218 0.2035 0.47216 0.0
C333 C 0.64094 0.18246 0.45992 0.0
C334 C 0.62856 0.17387 0.43879 0.0
C335 C 0.60764 0.18592 0.43073 0.0
C336 C 0.59699 0.17453 0.40781 0.0
C337 C 0.61498 0.15364 0.40336 0.0
C338 C 0.63347 0.15332 0.42153 0.0
C339 C 0.5708 0.16486 0.41394 0.0
C340 C 0.59784 0.19405 0.38693 0.0
H341 H 0.6749 0.07454 0.37543 0.0
H342 H 0.71893 0.10666 0.44898 0.0
H343 H 0.7031 0.15432 0.41887 0.0
H344 H 0.68285 0.17215 0.4367 0.0
H345 H 0.70591 0.15363 0.45183 0.0
H346 H 0.66053 0.10472 0.46408 0.0
H347 H 0.6823 0.12614 0.47689 0.0
H348 H 0.65083 0.1349 0.47062 0.0
H349 H 0.60467 0.08955 0.317 0.0
H350 H 0.55008 0.14681 0.32593 0.0
H351 H 0.5696 0.15982 0.36374 0.0
H352 H 0.60583 0.07275 0.37449 0.0
H353 H 0.62775 0.06207 0.35219 0.0
H354 H 0.63657 0.06827 0.38366 0.0
H355 H 0.65057 0.12237 0.33166 0.0
H356 H 0.67055 0.10586 0.35102 0.0
H357 H 0.65242 0.08951 0.32844 0.0
H358 H 0.71284 0.05535 0.3883 0.0
C359 C 0.68385 0.08194 0.39144 0.0
C360 C 0.4557 0.63303 0.20849 0.0
C361 C 0.44798 0.61597 0.22636 0.0
C362 C 0.42727 0.60102 0.22168 0.0
C363 C 0.42169 0.62059 0.18198 0.0
C364 C 0.44211 0.63522 0.18656 0.0
C365 C 0.44641 0.65371 0.16632 0.0
H366 H 0.40744 0.70719 0.06042 0.0
C367 C 0.41108 0.62809 0.15805 0.0
C368 C 0.42538 0.64758 0.1488 0.0
H369 H 0.46957 0.7276 0.1062 0.0
H370 H 0.46179 0.69294 0.13273 0.0
H371 H 0.37058 0.69569 0.10469 0.0
H372 H 0.41771 0.6484 0.06198 0.0
H373 H 0.39027 0.63205 0.06733 0.0
H374 H 0.38935 0.6604 0.0499 0.0
H375 H 0.36478 0.6886 0.0729 0.0
H376 H 0.35372 0.66902 0.09732 0.0
C377 C 0.44385 0.67988 0.17751 0.0
C378 C 0.47187 0.64836 0.15462 0.0
C379 C 0.33409 0.58518 0.12593 0.0
C380 C 0.31945 0.58858 0.10479 0.0
C381 C 0.32661 0.60652 0.08734 0.0
C382 C 0.34767 0.62106 0.09108 0.0
C383 C 0.36177 0.61781 0.11256 0.0
C384 C 0.35505 0.59991 0.12941 0.0
C385 C 0.37217 0.59913 0.15121 0.0
C386 C 0.39026 0.61948 0.14465 0.0
C387 C 0.384 0.63046 0.12207 0.0
C388 C 0.35704 0.60532 0.17466 0.0
C389 C 0.38473 0.57352 0.15168 0.0
C390 C 0.41934 0.70422 0.07618 0.0
C391 C 0.43912 0.72029 0.08117 0.0
C392 C 0.45439 0.71542 0.10168 0.0
C393 C 0.44969 0.69539 0.11727 0.0
C394 C 0.42938 0.68003 0.11252 0.0
C395 C 0.41482 0.68431 0.09204 0.0
C396 C 0.39403 0.66603 0.08995 0.0
C397 C 0.39817 0.65048 0.11287 0.0
C398 C 0.41886 0.65884 0.12606 0.0
C399 C 0.36939 0.6804 0.09109 0.0
C400 C 0.39776 0.65095 0.06601 0.0
H401 H 0.39855 0.59124 0.19714 0.0
H402 H 0.47142 0.64491 0.21187 0.0
H403 H 0.47511 0.62816 0.1533 0.0
H404 H 0.47342 0.65523 0.13552 0.0
H405 H 0.48701 0.65637 0.16586 0.0
H406 H 0.43002 0.68007 0.19265 0.0
H407 H 0.46165 0.68639 0.1853 0.0
H408 H 0.437 0.69362 0.16417 0.0
H409 H 0.32931 0.57142 0.13959 0.0
H410 H 0.31555 0.60981 0.07105 0.0
H411 H 0.35192 0.63455 0.07726 0.0
H412 H 0.34132 0.61774 0.17029 0.0
H413 H 0.3493 0.5884 0.18322 0.0
H414 H 0.36787 0.61552 0.18859 0.0
H415 H 0.38944 0.56744 0.13268 0.0
H416 H 0.4024 0.57349 0.16179 0.0
H417 H 0.37234 0.55939 0.15984 0.0
H418 H 0.42116 0.58772 0.23529 0.0
C419 C 0.41419 0.60311 0.19954 0.0
C420 C 0.10682 0.32685 0.60011 0.0
C421 C 0.11897 0.31859 0.57881 0.0
C422 C 0.13802 0.33308 0.56869 0.0
C423 C 0.13338 0.36284 0.60178 0.0
C424 C 0.11418 0.34895 0.61114 0.0
C425 C 0.103 0.36028 0.63378 0.0
H426 H 0.1048 0.44941 0.72074 0.0
C427 C 0.13686 0.38438 0.61815 0.0
C428 C 0.11893 0.38308 0.63677 0.0
H429 H 0.05425 0.38802 0.71425 0.0
H430 H 0.0745 0.375 0.67693 0.0
H431 H 0.10453 0.46409 0.66237 0.0
H432 H 0.15264 0.41959 0.70711 0.0
H433 H 0.17142 0.43625 0.68672 0.0
H434 H 0.15268 0.45262 0.7087 0.0
H435 H 0.12524 0.47708 0.68471 0.0
H436 H 0.135 0.47079 0.65356 0.0
C437 C 0.0758 0.3669 0.62795 0.0
C438 C 0.10636 0.34198 0.65547 0.0
C439 C 0.20916 0.4425 0.60445 0.0
C440 C 0.21807 0.46309 0.61749 0.0
C441 C 0.20462 0.47171 0.63796 0.0
C442 C 0.18299 0.45977 0.6456 0.0
C443 C 0.1747 0.43883 0.63276 0.0
C444 C 0.18759 0.43071 0.61238 0.0
C445 C 0.17618 0.40806 0.60111 0.0
C446 C 0.15455 0.40371 0.61831 0.0
C447 C 0.1538 0.42178 0.63684 0.0
C448 C 0.1676 0.41453 0.57464 0.0
C449 C 0.19531 0.38692 0.60248 0.0
C450 C 0.09786 0.43336 0.71109 0.0
C451 C 0.07787 0.41972 0.7205 0.0
C452 C 0.06976 0.39869 0.70756 0.0
C453 C 0.0815 0.39122 0.68582 0.0
C454 C 0.1017 0.40481 0.67689 0.0
C455 C 0.10945 0.4256 0.68939 0.0
C456 C 0.13142 0.43757 0.67737 0.0
C457 C 0.13547 0.42062 0.6555 0.0
C458 C 0.11808 0.40143 0.65538 0.0
C459 C 0.12391 0.46385 0.66915 0.0
C460 C 0.15324 0.43672 0.69583 0.0
H461 H 0.16017 0.36522 0.57174 0.0
H462 H 0.09176 0.31634 0.60801 0.0
H463 H 0.12459 0.33267 0.65436 0.0
H464 H 0.10625 0.35101 0.67367 0.0
H465 H 0.0919 0.32746 0.65515 0.0
H466 H 0.07351 0.37208 0.60824 0.0
H467 H 0.06334 0.35106 0.63166 0.0
H468 H 0.06925 0.38313 0.63832 0.0
H469 H 0.21916 0.43519 0.58882 0.0
H470 H 0.21087 0.48772 0.64813 0.0
H471 H 0.17372 0.46714 0.66141 0.0
H472 H 0.1616 0.43409 0.5734 0.0
H473 H 0.18271 0.41185 0.56111 0.0
H474 H 0.15131 0.40374 0.56877 0.0
H475 H 0.20525 0.3873 0.62043 0.0
H476 H 0.18691 0.36844 0.60143 0.0
H477 H 0.20925 0.38869 0.5876 0.0
H478 H 0.14758 0.32707 0.55224 0.0
C479 C 0.14533 0.35514 0.5801 0.0
Zn480 Zn 0.98276 0.05702 0.5516 0.0
Zn481 Zn 0.04257 0.99969 0.4964 0.0
Zn482 Zn 0.01233 0.02812 0.52461 0.0
C483 C 0.05377 0.04909 0.48633 0.0
C484 C 0.99326 0.98829 0.4842 0.0
O485 O 0.01744 0.01797 0.56381 0.0
O486 O 0.99377 0.04427 0.58407 0.0
C487 C 0.0145 0.08807 0.52595 0.0
O488 O 0.03639 0.0523 0.5022 0.0
O489 O 0.06072 0.02761 0.48071 0.0
O490 O 0.01518 0.98321 0.47819 0.0
O491 O 0.98891 0.00466 0.50085 0.0
O492 O 0.99598 0.08908 0.53998 0.0
O493 O 0.02295 0.06711 0.51869 0.0
O494 O 0.97358 0.02223 0.51253 0.0
O495 O 0.95112 0.04528 0.53755 0.0
C496 C 0.95246 0.03046 0.51968 0.0
O497 O 0.03471 0.0048 0.54965 0.0
O498 O 0.05784 0.98215 0.52483 0.0
C499 C 0.00877 0.0265 0.5842 0.0
C500 C 0.05138 0.98821 0.54636 0.0
Zn501 Zn 0.49443 0.04345 0.99546 0.0
Zn502 Zn 0.55302 0.98647 0.0515 0.0
Zn503 Zn 0.52425 0.01476 0.02326 0.0
C504 C 0.58377 0.01254 0.0193 0.0
C505 C 0.521 0.95496 0.02638 0.0
O506 O 0.50144 0.03762 0.0481 0.0
O507 O 0.47803 0.06033 0.02353 0.0
C508 C 0.54346 0.05451 0.98265 0.0
O509 O 0.56288 0.02087 0.01162 0.0
O510 O 0.58469 0.99754 0.03707 0.0
O511 O 0.53896 0.95432 0.04119 0.0
O512 O 0.51327 0.97573 0.0178 0.0
O513 O 0.52153 0.06042 0.9775 0.0
O514 O 0.54785 0.03778 0.99896 0.0
O515 O 0.50058 0.99036 1.00043 0.0
O516 O 0.47707 0.01576 0.97878 0.0
C517 C 0.48371 0.99409 0.98407 0.0
O518 O 0.51978 0.02599 0.06252 0.0
O519 O 0.5434 1.00039 0.08374 0.0
C520 C 0.48438 0.05386 0.04498 0.0
C521 C 0.52879 0.01847 0.08322 0.0
Zn522 Zn 0.54019 0.53845 0.54506 0.0
Zn523 Zn 0.48455 0.48288 0.48305 0.0
Zn524 Zn 0.51259 0.50965 0.51391 0.0
C525 C 0.51702 0.45051 0.50716 0.0
C526 C 0.50927 0.51716 0.45426 0.0
O527 O 0.48772 0.53201 0.53764 0.0
O528 O 0.51186 0.55528 0.56098 0.0
C529 C 0.55197 0.4883 0.55322 0.0
O530 O 0.52326 0.47036 0.51864 0.0
O531 O 0.50096 0.45115 0.49031 0.0
O532 O 0.49383 0.49987 0.45222 0.0
O533 O 0.51818 0.52291 0.47554 0.0
O534 O 0.55551 0.50958 0.56201 0.0
O535 O 0.53724 0.48502 0.53486 0.0
O536 O 0.53568 0.53395 0.4911 0.0
O537 O 0.55821 0.5555 0.51754 0.0
C538 C 0.55261 0.55003 0.49558 0.0
O539 O 0.47377 0.51385 0.52531 0.0
O540 O 0.45251 0.49077 0.49915 0.0
C541 C 0.49052 0.5489 0.55414 0.0
C542 C 0.45311 0.5048 0.51772 0.0
Zn543 Zn 0.05659 0.55409 0.98553 0.0
Zn544 Zn 0.99766 0.49618 0.04169 0.0
Zn545 Zn 0.02708 0.52574 0.01374 0.0
C546 C 0.04687 0.48644 0.05453 0.0
C547 C 0.98867 0.48502 0.99201 0.0
O548 O 0.01553 0.56451 0.01874 0.0
O549 O 0.04132 0.58581 0.9953 0.0
C550 C 0.08667 0.5297 0.01947 0.0
O551 O 0.05076 0.5032 0.03813 0.0
O552 O 0.02512 0.48018 0.06008 0.0
O553 O 0.98234 0.47846 0.01343 0.0
O554 O 0.00513 0.50192 0.98893 0.0
O555 O 0.08807 0.54425 1.00135 0.0
O556 O 0.06563 0.52099 0.02633 0.0
O557 O 0.02321 0.51411 0.97472 0.0
O558 O 0.04756 0.53905 0.95344 0.0
C559 C 0.03267 0.52114 0.95407 0.0
O560 O 0.00241 0.54971 0.03564 0.0
O561 O 0.97932 0.52383 0.05726 0.0
C562 C 0.02324 0.5852 0.00995 0.0
C563 C 0.9853 0.54562 0.05162 0.0
H564 H 0.12193 0.20539 0.3216 0.0
H565 H 0.10027 0.18602 0.35594 0.0
H566 H 0.16926 0.15797 0.38377 0.0
H567 H 0.19125 0.1786 0.35048 0.0
H568 H 0.09673 0.13875 0.36492 0.0
H569 H 0.13972 0.18209 0.44652 0.0
H570 H 0.14361 0.19432 0.41582 0.0
H571 H 0.16248 0.16915 0.42645 0.0
C572 C 0.13263 0.19572 0.33539 0.0
C573 C 0.15841 0.19364 0.33319 0.0
C574 C 0.12016 0.18447 0.35495 0.0
C575 C 0.13313 0.17084 0.37272 0.0
C576 C 0.15886 0.16892 0.37072 0.0
H577 H 0.10157 0.05414 0.47231 0.0
H578 H 0.11946 0.08697 0.44692 0.0
C579 C 0.17139 0.18038 0.35134 0.0
C580 C 0.11959 0.15678 0.39197 0.0
H581 H 0.11875 0.14342 0.45355 0.0
C582 C 0.10122 0.14017 0.38435 0.0
C583 C 0.1254 0.1586 0.41738 0.0
C584 C 0.1437 0.17721 0.42705 0.0
C585 C 0.08931 0.12461 0.40122 0.0
C586 C 0.0959 0.1257 0.42639 0.0
C587 C 0.11376 0.1427 0.43421 0.0
C588 C 0.08568 0.10793 0.44435 0.0
C589 C 0.07046 0.10633 0.39193 0.0
C590 C 0.06091 0.10921 0.45168 0.0
C591 C 0.05065 0.09045 0.46612 0.0
C592 C 0.06509 0.0703 0.47357 0.0
C593 C 0.09008 0.06953 0.46686 0.0
C594 C 0.10033 0.08828 0.4525 0.0
H595 H 0.06949 0.10589 0.37148 0.0
H596 H 0.07488 0.08753 0.39872 0.0
H597 H 0.05199 0.11132 0.39913 0.0
H598 H 0.04934 0.12425 0.44551 0.0
H599 H 0.03121 0.09119 0.47058 0.0
H600 H 0.35175 0.85703 0.84675 0.0
H601 H 0.37322 0.87861 0.88015 0.0
H602 H 0.44247 0.86841 0.84265 0.0
H603 H 0.42115 0.84715 0.80898 0.0
H604 H 0.41692 0.86344 0.91127 0.0
H605 H 0.43205 0.94513 0.85087 0.0
H606 H 0.40927 0.92183 0.84393 0.0
H607 H 0.44137 0.9157 0.83885 0.0
C608 C 0.37156 0.85932 0.84564 0.0
C609 C 0.38471 0.85054 0.82511 0.0
C610 C 0.38381 0.87145 0.86483 0.0
C611 C 0.40938 0.87518 0.86377 0.0
C612 C 0.4227 0.86575 0.84375 0.0
H613 H 0.5055 0.95086 0.96981 0.0
H614 H 0.48791 0.91906 0.94273 0.0
C615 C 0.4105 0.85351 0.8246 0.0
C616 C 0.42177 0.89054 0.88266 0.0
H617 H 0.44757 0.9473 0.89128 0.0
C618 C 0.42384 0.88169 0.90692 0.0
C619 C 0.43052 0.91441 0.8769 0.0
C620 C 0.42812 0.92503 0.8513 0.0
C621 C 0.43445 0.89624 0.92561 0.0
C622 C 0.44298 0.92015 0.91981 0.0
C623 C 0.44108 0.92887 0.89555 0.0
C624 C 0.45262 0.93718 0.9388 0.0
C625 C 0.43584 0.88646 0.9516 0.0
C626 C 0.43848 0.95762 0.9457 0.0
C627 C 0.44834 0.97556 0.96128 0.0
C628 C 0.47257 0.97342 0.97023 0.0
C629 C 0.48657 0.95265 0.96371 0.0
C630 C 0.47661 0.93456 0.94818 0.0
H631 H 0.42786 0.86767 0.95327 0.0
H632 H 0.45535 0.88592 0.95772 0.0
H633 H 0.42586 0.89905 0.96425 0.0
H634 H 0.42001 0.96002 0.93848 0.0
H635 H 0.43719 0.99145 0.96588 0.0
H636 H 0.66972 0.32176 0.68219 0.0
H637 H 0.6455 0.33755 0.64736 0.0
H638 H 0.66197 0.41199 0.66974 0.0
H639 H 0.68564 0.39655 0.70462 0.0
H640 H 0.60405 0.36899 0.64847 0.0
H641 H 0.68062 0.41155 0.59631 0.0
H642 H 0.68561 0.38886 0.62019 0.0
H643 H 0.68069 0.42068 0.62809 0.0
C644 C 0.66812 0.3415 0.67972 0.0
C645 C 0.67988 0.35788 0.69609 0.0
C646 C 0.65441 0.35046 0.65973 0.0
C647 C 0.65242 0.37592 0.65566 0.0
C648 C 0.66386 0.39226 0.67212 0.0
H649 H 0.55294 0.47787 0.60176 0.0
H650 H 0.57592 0.44518 0.62254 0.0
C651 C 0.67743 0.38337 0.69207 0.0
C652 C 0.63744 0.38584 0.63505 0.0
H653 H 0.63989 0.42775 0.58818 0.0
C654 C 0.61193 0.38141 0.63492 0.0
C655 C 0.64778 0.40163 0.61704 0.0
C656 C 0.67523 0.40577 0.6152 0.0
C657 C 0.59629 0.39399 0.61857 0.0
C658 C 0.60642 0.41161 0.60224 0.0
C659 C 0.6321 0.41446 0.60094 0.0
C660 C 0.59071 0.42957 0.58897 0.0
C661 C 0.56894 0.38902 0.61953 0.0
C662 C 0.59166 0.43187 0.56319 0.0
C663 C 0.57833 0.45051 0.55126 0.0
C664 C 0.56431 0.46728 0.56505 0.0
C665 C 0.56345 0.46496 0.59077 0.0
C666 C 0.5764 0.4462 0.6026 0.0
H667 H 0.56505 0.37014 0.62646 0.0
H668 H 0.56017 0.4023 0.63233 0.0
H669 H 0.56034 0.39121 0.60108 0.0
H670 H 0.60297 0.41953 0.55238 0.0
H671 H 0.5795 0.45225 0.53141 0.0
H672 H 0.84752 0.67614 0.19051 0.0
H673 H 0.8682 0.6546 0.15671 0.0
H674 H 0.93892 0.67198 0.18855 0.0
H675 H 0.91849 0.6931 0.22278 0.0
H676 H 0.9236 0.67737 0.127 0.0
H677 H 0.91569 0.58856 0.17822 0.0
H678 H 0.89079 0.61053 0.17942 0.0
H679 H 0.91949 0.61748 0.19424 0.0
C680 C 0.86748 0.67544 0.19034 0.0
C681 C 0.88133 0.68622 0.20947 0.0
C682 C 0.87924 0.66335 0.17089 0.0
C683 C 0.90502 0.66187 0.17017 0.0
C684 C 0.91899 0.67319 0.18874 0.0
H685 H 0.00568 0.58883 0.0679 0.0
H686 H 0.98624 0.61952 0.09478 0.0
C687 C 0.90726 0.68527 0.20823 0.0
C688 C 0.91722 0.64662 0.15123 0.0
H689 H 0.93322 0.58723 0.13877 0.0
C690 C 0.92579 0.65767 0.12947 0.0
C691 C 0.91995 0.62101 0.15465 0.0
C692 C 0.9111 0.6085 0.17787 0.0
C693 C 0.9368 0.64351 0.11075 0.0
C694 C 0.93951 0.61779 0.11418 0.0
C695 C 0.93106 0.60692 0.13611 0.0
C696 C 0.9506 0.60144 0.09529 0.0
C697 C 0.945 0.65606 0.08734 0.0
C698 C 0.93705 0.58119 0.08655 0.0
C699 C 0.94815 0.56365 0.07145 0.0
C700 C 0.97299 0.56608 0.06459 0.0
C701 C 0.98636 0.58681 0.07254 0.0
C702 C 0.97526 0.60435 0.08785 0.0
H703 H 0.93617 0.67437 0.085 0.0
H704 H 0.96524 0.65888 0.0881 0.0
H705 H 0.94078 0.64455 0.07095 0.0
H706 H 0.91804 0.57854 0.09209 0.0
H707 H 0.93746 0.5478 0.06562 0.0
H708 H 0.34551 0.14505 0.22031 0.0
H709 H 0.37926 0.12273 0.2002 0.0
H710 H 0.34517 0.13497 0.12942 0.0
H711 H 0.31121 0.15674 0.14933 0.0
H712 H 0.36151 0.08555 0.13812 0.0
H713 H 0.43412 0.15559 0.1577 0.0
H714 H 0.41646 0.14448 0.18348 0.0
H715 H 0.40164 0.16246 0.16001 0.0
C716 C 0.34513 0.14281 0.20048 0.0
C717 C 0.32577 0.1528 0.18638 0.0
C718 C 0.36452 0.13025 0.18902 0.0
C719 C 0.36482 0.12747 0.16332 0.0
C720 C 0.34533 0.13704 0.14928 0.0
H721 H 0.46572 0.1 0.04897 0.0
H722 H 0.43914 0.11609 0.08156 0.0
C723 C 0.32603 0.14963 0.16067 0.0
C724 C 0.38534 0.11466 0.15073 0.0
H725 H 0.44575 0.12115 0.13414 0.0
C726 C 0.38003 0.09309 0.1375 0.0
C727 C 0.40941 0.1247 0.14993 0.0
C728 C 0.41588 0.14817 0.16337 0.0
C729 C 0.39796 0.0817 0.12279 0.0
C730 C 0.42189 0.09205 0.12152 0.0
C731 C 0.42743 0.11319 0.13537 0.0
C732 C 0.44035 0.08292 0.10366 0.0
C733 C 0.39083 0.05942 0.10773 0.0
C734 C 0.45029 0.05912 0.10561 0.0
C735 C 0.46543 0.04985 0.08692 0.0
C736 C 0.47101 0.06435 0.06618 0.0
C737 C 0.46175 0.08846 0.06478 0.0
C738 C 0.44667 0.09769 0.08341 0.0
H739 H 0.37062 0.05602 0.10796 0.0
H740 H 0.39685 0.0617 0.08831 0.0
H741 H 0.40017 0.04289 0.11531 0.0
H742 H 0.44576 0.04751 0.12121 0.0
H743 H 0.47202 0.03107 0.08825 0.0
H744 H 0.18938 0.85153 0.67492 0.0
H745 H 0.15605 0.874 0.65441 0.0
H746 H 0.19013 0.94296 0.67449 0.0
H747 H 0.22397 0.92073 0.69421 0.0
H748 H 0.12209 0.91027 0.67167 0.0
H749 H 0.18471 0.94688 0.59914 0.0
H750 H 0.19358 0.92216 0.61953 0.0
H751 H 0.19387 0.95347 0.63026 0.0
C752 C 0.18988 0.87148 0.67487 0.0
C753 C 0.20953 0.88428 0.68604 0.0
C754 C 0.17068 0.88429 0.66335 0.0
C755 C 0.17076 0.91014 0.66269 0.0
C756 C 0.18986 0.923 0.67452 0.0
H757 H 0.06563 0.0098 0.58972 0.0
H758 H 0.09227 0.99175 0.6217 0.0
C759 C 0.20909 0.91023 0.68599 0.0
C760 C 0.15155 0.92354 0.64855 0.0
H761 H 0.14321 0.95951 0.59753 0.0
C762 C 0.12671 0.9212 0.65558 0.0
C763 C 0.15762 0.93769 0.62747 0.0
C764 C 0.18385 0.94011 0.61845 0.0
C765 C 0.10779 0.93253 0.64192 0.0
C766 C 0.11393 0.94632 0.62075 0.0
C767 C 0.13871 0.94904 0.61396 0.0
C768 C 0.09491 0.95619 0.60393 0.0
C769 C 0.08129 0.9293 0.64966 0.0
C770 C 0.08737 0.94199 0.58373 0.0
C771 C 0.07222 0.95217 0.5656 0.0
C772 C 0.06424 0.97672 0.56742 0.0
C773 C 0.07108 0.99068 0.58816 0.0
C774 C 0.08636 0.98046 0.60632 0.0
H775 H 0.07963 0.92009 0.66788 0.0
H776 H 0.07201 0.9475 0.65051 0.0
H777 H 0.07143 0.91807 0.63567 0.0
H778 H 0.09398 0.92329 0.58154 0.0
H779 H 0.06732 0.94106 0.54975 0.0
H780 H 0.82185 0.36994 0.89712 0.0
H781 H 0.85471 0.39605 0.91342 0.0
H782 H 0.88646 0.4021 0.84084 0.0
H783 H 0.85377 0.3754 0.82437 0.0
H784 H 0.92109 0.39123 0.87828 0.0
H785 H 0.86277 0.47073 0.90388 0.0
H786 H 0.851 0.44215 0.91571 0.0
H787 H 0.85245 0.44699 0.88293 0.0
C788 C 0.83588 0.37668 0.88461 0.0
C789 C 0.83522 0.37055 0.85945 0.0
C790 C 0.85449 0.39186 0.89391 0.0
C791 C 0.87277 0.40135 0.87827 0.0
C792 C 0.87236 0.39515 0.85317 0.0
H793 H 0.97402 0.50701 0.94908 0.0
H794 H 0.94927 0.48841 0.91592 0.0
C795 C 0.85364 0.38 0.84379 0.0
C796 C 0.89271 0.41696 0.8886 0.0
H797 H 0.90211 0.4678 0.92438 0.0
C798 C 0.91705 0.40822 0.88797 0.0
C799 C 0.88752 0.43939 0.90078 0.0
C800 C 0.86205 0.45052 0.90067 0.0
C801 C 0.936 0.42042 0.90078 0.0
C802 C 0.93031 0.44163 0.91476 0.0
C803 C 0.90638 0.45136 0.91386 0.0
C804 C 0.94796 0.45225 0.93271 0.0
C805 C 0.96181 0.41017 0.89984 0.0
C806 C 0.95545 0.43805 0.95298 0.0
C807 C 0.96938 0.44861 0.97185 0.0
C808 C 0.97623 0.47353 0.97073 0.0
C809 C 0.96928 0.48765 0.95015 0.0
C810 C 0.95513 0.47709 0.93129 0.0
H811 H 0.96476 0.39903 0.88293 0.0
H812 H 0.97577 0.42517 0.90045 0.0
H813 H 0.9648 0.398 0.91601 0.0
H814 H 0.94965 0.41902 0.95471 0.0
H815 H 0.97437 0.4374 0.98761 0.0
H816 H 0.72805 0.65502 0.39362 0.0
H817 H 0.69408 0.63336 0.41381 0.0
H818 H 0.65833 0.62313 0.34354 0.0
H819 H 0.69216 0.64526 0.32315 0.0
H820 H 0.62662 0.64041 0.38227 0.0
H821 H 0.68062 0.55836 0.41027 0.0
H822 H 0.69476 0.58705 0.41888 0.0
H823 H 0.69104 0.57958 0.38681 0.0
C824 C 0.7129 0.64831 0.38245 0.0
C825 C 0.71281 0.65186 0.35677 0.0
C826 C 0.69363 0.63573 0.39399 0.0
C827 C 0.67388 0.62636 0.38012 0.0
C828 C 0.67351 0.63007 0.35453 0.0
H829 H 0.56577 0.52919 0.45174 0.0
H830 H 0.59216 0.54713 0.41967 0.0
C831 C 0.6929 0.64258 0.34292 0.0
C832 C 0.6535 0.61311 0.39262 0.0
H833 H 0.64188 0.56421 0.43049 0.0
C834 C 0.62984 0.62357 0.39255 0.0
C835 C 0.65765 0.59092 0.40566 0.0
C836 C 0.68233 0.57815 0.40527 0.0
C837 C 0.61055 0.61312 0.40636 0.0
C838 C 0.61519 0.59186 0.42067 0.0
C839 C 0.63845 0.58066 0.41965 0.0
C840 C 0.59687 0.58203 0.43834 0.0
C841 C 0.58545 0.62503 0.40589 0.0
C842 C 0.59072 0.59578 0.45934 0.0
C843 C 0.57576 0.58557 0.47764 0.0
C844 C 0.5665 0.56151 0.47516 0.0
C845 C 0.57221 0.54797 0.45386 0.0
C846 C 0.58737 0.55812 0.43562 0.0
H847 H 0.58319 0.63728 0.38963 0.0
H848 H 0.57065 0.61086 0.40563 0.0
H849 H 0.5831 0.63633 0.42276 0.0
H850 H 0.59823 0.6141 0.46198 0.0
H851 H 0.57175 0.59635 0.49395 0.0
H852 H 0.19473 0.31492 0.12076 0.0
H853 H 0.17411 0.34848 0.09889 0.0
H854 H 0.16457 0.3874 0.16746 0.0
H855 H 0.18567 0.35411 0.18945 0.0
H856 H 0.12564 0.36256 0.10844 0.0
H857 H 0.1898 0.44149 0.11999 0.0
H858 H 0.19923 0.40986 0.12437 0.0
H859 H 0.18252 0.42564 0.14816 0.0
C860 C 0.18875 0.33087 0.13114 0.0
C861 C 0.19186 0.33186 0.15686 0.0
C862 C 0.17689 0.34998 0.11861 0.0
C863 C 0.16811 0.37057 0.1315 0.0
C864 C 0.17162 0.37189 0.1571 0.0
H865 H 0.04838 0.46747 0.10078 0.0
H866 H 0.08022 0.44092 0.11857 0.0
C867 C 0.1834 0.35272 0.16967 0.0
C868 C 0.15314 0.38939 0.11857 0.0
H869 H 0.149 0.45102 0.10608 0.0
C870 C 0.13089 0.38185 0.10771 0.0
C871 C 0.16011 0.41452 0.11751 0.0
C872 C 0.18433 0.4234 0.12792 0.0
C873 C 0.115 0.39887 0.09657 0.0
C874 C 0.12146 0.42409 0.09643 0.0
C875 C 0.14408 0.43164 0.10648 0.0
C876 C 0.10417 0.44275 0.08679 0.0
C877 C 0.09116 0.38988 0.08533 0.0
C878 C 0.10746 0.4529 0.06325 0.0
C879 C 0.08917 0.46791 0.05294 0.0
C880 C 0.06759 0.47323 0.06624 0.0
C881 C 0.06487 0.46374 0.09017 0.0
C882 C 0.08303 0.44867 0.10037 0.0
H883 H 0.09083 0.36952 0.08321 0.0
H884 H 0.07555 0.39531 0.09736 0.0
H885 H 0.0882 0.39849 0.06699 0.0
H886 H 0.12361 0.44833 0.05246 0.0
H887 H 0.09143 0.47442 0.03422 0.0
H888 H 0.68501 0.22598 0.9 0.0
H889 H 0.66716 0.19353 0.92572 0.0
H890 H 0.65241 0.15002 0.86087 0.0
H891 H 0.67096 0.18201 0.83509 0.0
H892 H 0.61951 0.17798 0.92326 0.0
H893 H 0.68189 0.0989 0.90728 0.0
H894 H 0.69029 0.13018 0.89951 0.0
H895 H 0.6709 0.1125 0.87919 0.0
C896 C 0.67849 0.20927 0.89124 0.0
C897 C 0.67942 0.20661 0.86546 0.0
C898 C 0.6682 0.19078 0.90597 0.0
C899 C 0.65877 0.16918 0.89528 0.0
C900 C 0.66004 0.16627 0.8696 0.0
H901 H 0.54307 0.07284 0.93622 0.0
H902 H 0.57395 0.09932 0.91678 0.0
C903 C 0.67033 0.18476 0.85485 0.0
C904 C 0.6455 0.1508 0.91064 0.0
H905 H 0.64206 0.08939 0.92446 0.0
C906 C 0.62471 0.1587 0.92382 0.0
C907 C 0.65235 0.12564 0.9115 0.0
C908 C 0.67522 0.11631 0.89881 0.0
C909 C 0.60996 0.14196 0.93689 0.0
C910 C 0.61608 0.11668 0.93667 0.0
C911 C 0.6374 0.10881 0.92441 0.0
C912 C 0.59925 0.0982 0.94756 0.0
C913 C 0.58747 0.15124 0.95032 0.0
C914 C 0.60359 0.08844 0.97112 0.0
C915 C 0.58585 0.07337 0.98238 0.0
C916 C 0.56372 0.06773 0.97008 0.0
C917 C 0.55996 0.07686 0.94613 0.0
C918 C 0.57758 0.0919 0.93497 0.0
H919 H 0.58746 0.17164 0.95205 0.0
H920 H 0.57066 0.1456 0.94007 0.0
H921 H 0.58642 0.14299 0.96902 0.0
H922 H 0.62017 0.09332 0.98116 0.0
H923 H 0.58892 0.06716 1.00109 0.0
H924 H 0.84904 0.81165 0.42096 0.0
H925 H 0.86933 0.84599 0.442 0.0
H926 H 0.88064 0.88232 0.37221 0.0
H927 H 0.85983 0.8483 0.35105 0.0
H928 H 0.91775 0.86055 0.43391 0.0
H929 H 0.85335 0.93785 0.41604 0.0
H930 H 0.84449 0.90594 0.41249 0.0
H931 H 0.86209 0.92111 0.38887 0.0
C932 C 0.85539 0.82717 0.41012 0.0
C933 C 0.85277 0.82726 0.38432 0.0
C934 C 0.86707 0.84673 0.42217 0.0
C935 C 0.87617 0.86687 0.40872 0.0
C936 C 0.87332 0.86719 0.38301 0.0
H937 H 0.99232 0.96867 0.4382 0.0
H938 H 0.96144 0.94066 0.42087 0.0
C939 C 0.86171 0.84759 0.37091 0.0
C940 C 0.89046 0.88647 0.42134 0.0
H941 H 0.89348 0.94867 0.43104 0.0
C942 C 0.91229 0.87977 0.4335 0.0
C943 C 0.88322 0.91152 0.42091 0.0
C944 C 0.85938 0.91958 0.40908 0.0
C945 C 0.92751 0.89754 0.4445 0.0
C946 C 0.92078 0.92263 0.44321 0.0
C947 C 0.89859 0.92936 0.43179 0.0
C948 C 0.93747 0.94199 0.45264 0.0
C949 C 0.951 0.8895 0.45707 0.0
C950 C 0.93386 0.95229 0.47605 0.0
C951 C 0.95159 0.96816 0.48611 0.0
C952 C 0.97297 0.97415 0.47272 0.0
C953 C 0.97599 0.96445 0.44891 0.0
C954 C 0.95837 0.94854 0.43895 0.0
H955 H 0.95187 0.86919 0.45948 0.0
H956 H 0.96706 0.89542 0.44584 0.0
H957 H 0.95267 0.89841 0.47542 0.0
H958 H 0.91788 0.94723 0.48692 0.0
H959 H 0.94909 0.97486 0.50472 0.0
H960 H 0.34163 0.72304 0.61404 0.0
H961 H 0.36032 0.68804 0.59284 0.0
H962 H 0.38092 0.65649 0.66284 0.0
H963 H 0.36125 0.69076 0.68422 0.0
H964 H 0.40765 0.67504 0.59322 0.0
H965 H 0.35262 0.59693 0.62882 0.0
H966 H 0.34308 0.62857 0.63251 0.0
H967 H 0.36524 0.61519 0.65332 0.0
C968 C 0.34961 0.70838 0.62499 0.0
C969 C 0.34984 0.70976 0.6509 0.0
C970 C 0.36044 0.68843 0.6128 0.0
C971 C 0.37167 0.66937 0.62621 0.0
C972 C 0.37184 0.67062 0.65206 0.0
H973 H 0.48568 0.56681 0.60052 0.0
H974 H 0.45328 0.59393 0.6162 0.0
C975 C 0.36092 0.69049 0.66427 0.0
C976 C 0.38497 0.64926 0.61322 0.0
H977 H 0.39206 0.58666 0.61097 0.0
C978 C 0.4039 0.65573 0.59677 0.0
C979 C 0.38005 0.62399 0.61772 0.0
C980 C 0.35896 0.61575 0.63386 0.0
C981 C 0.41876 0.63773 0.58571 0.0
C982 C 0.41463 0.61263 0.59122 0.0
C983 C 0.39519 0.60599 0.6069 0.0
C984 C 0.43192 0.59347 0.58256 0.0
C985 C 0.43949 0.64558 0.56891 0.0
C986 C 0.43025 0.58386 0.55861 0.0
C987 C 0.44876 0.56831 0.54959 0.0
C988 C 0.46912 0.56219 0.56445 0.0
C989 C 0.47017 0.57117 0.58871 0.0
C990 C 0.45167 0.58657 0.59772 0.0
H991 H 0.44025 0.66589 0.5664 0.0
H992 H 0.45738 0.63926 0.5766 0.0
H993 H 0.43718 0.6368 0.55058 0.0
H994 H 0.41515 0.58914 0.54664 0.0
H995 H 0.44773 0.56201 0.53068 0.0
H996 H 0.97393 0.91154 0.78749 0.0
H997 H 0.99174 0.92148 0.74718 0.0
H998 H 0.99291 0.9985 0.7665 0.0
H999 H 0.97543 0.98876 0.80685 0.0
H1000 H 0.96404 0.98399 0.72328 0.0
H1001 H 0.06033 0.94839 0.72102 0.0
H1002 H 0.03662 0.92894 0.73383 0.0
H1003 H 0.04522 0.95671 0.74951 0.0
C1004 C 0.97869 0.93051 0.78344 0.0
C1005 C 0.97303 0.94942 0.80025 0.0
C1006 C 0.9889 0.93613 0.76042 0.0
C1007 C 0.99374 0.96069 0.75397 0.0
C1008 C 0.98938 0.97941 0.77121 0.0
H1009 H 0.01628 0.04984 0.62753 0.0
H1010 H 0.01692 0.03128 0.66856 0.0
C1011 C 0.97921 0.97384 0.79417 0.0
C1012 C 0.99972 0.96741 0.72823 0.0
H1013 H 0.04498 0.96657 0.68443 0.0
C1014 C 0.98171 0.98012 0.71478 0.0
C1015 C 0.02265 0.96196 0.71714 0.0
C1016 C 0.04248 0.94834 0.73104 0.0
C1017 C 0.98613 0.98797 0.69063 0.0
C1018 C 0.00939 0.98344 0.6798 0.0
C1019 C 0.02724 0.97008 0.69291 0.0
C1020 C 0.01531 0.99375 0.65529 0.0
C1021 C 0.9659 0.00131 0.67692 0.0
C1022 C 0.01551 0.97865 0.6343 0.0
C1023 C 0.01523 0.98927 0.61074 0.0
C1024 C 0.01477 0.01502 0.60807 0.0
C1025 C 0.01651 0.02993 0.62913 0.0
C1026 C 0.01696 0.01937 0.65253 0.0
H1027 H 0.94756 0.99825 0.68552 0.0
H1028 H 0.96976 0.02139 0.67714 0.0
H1029 H 0.96505 0.99524 0.6574 0.0
H1030 H 0.01419 0.95882 0.63613 0.0
H1031 H 0.01371 0.97741 0.59475 0.0
H1032 H 0.55968 0.14732 0.28132 0.0
H1033 H 0.54301 0.1352 0.24112 0.0
H1034 H 0.55004 0.05866 0.26122 0.0
H1035 H 0.5663 0.0706 0.30156 0.0
H1036 H 0.56846 0.10632 0.20658 0.0
H1037 H 0.47986 0.06247 0.23239 0.0
H1038 H 0.49643 0.08299 0.25276 0.0
H1039 H 0.5057 0.05133 0.24984 0.0
C1040 C 0.55721 0.12791 0.27736 0.0
C1041 C 0.56429 0.10991 0.29463 0.0
C1042 C 0.54777 0.12104 0.25436 0.0
C1043 C 0.54495 0.09606 0.24833 0.0
C1044 C 0.55161 0.07805 0.26567 0.0
H1045 H 0.52776 0.99895 0.1292 0.0
H1046 H 0.52742 0.02111 0.1683 0.0
C1047 C 0.56117 0.0849 0.28861 0.0
C1048 C 0.53708 0.08865 0.22322 0.0
H1049 H 0.49553 0.05291 0.19217 0.0
C1050 C 0.55226 0.09503 0.20328 0.0
C1051 C 0.51594 0.07395 0.21905 0.0
C1052 C 0.49839 0.06745 0.2396 0.0
C1053 C 0.54775 0.08584 0.17952 0.0
C1054 C 0.52711 0.0703 0.1755 0.0
C1055 C 0.51129 0.06485 0.19526 0.0
C1056 C 0.52348 0.05718 0.15178 0.0
C1057 C 0.56598 0.09162 0.1593 0.0
C1058 C 0.52045 0.07003 0.12947 0.0
C1059 C 0.52091 0.05736 0.10698 0.0
C1060 C 0.52394 0.03165 0.10654 0.0
C1061 C 0.52542 0.01878 0.12897 0.0
C1062 C 0.52514 0.03141 0.15134 0.0
H1063 H 0.58327 0.09987 0.1666 0.0
H1064 H 0.57076 0.07471 0.14884 0.0
H1065 H 0.55762 0.10497 0.14627 0.0
H1066 H 0.51872 0.0899 0.12941 0.0
H1067 H 0.52008 0.06779 0.08999 0.0
H1068 H 0.42886 0.62563 0.27128 0.0
H1069 H 0.44734 0.61673 0.31145 0.0
H1070 H 0.51347 0.59122 0.27541 0.0
H1071 H 0.49524 0.60119 0.23516 0.0
H1072 H 0.45751 0.57157 0.32428 0.0
H1073 H 0.54306 0.6267 0.33371 0.0
H1074 H 0.51976 0.63354 0.3109 0.0
H1075 H 0.54189 0.60947 0.30552 0.0
C1076 C 0.4476 0.61876 0.27206 0.0
C1077 C 0.46069 0.61401 0.25032 0.0
C1078 C 0.45816 0.61371 0.29495 0.0
C1079 C 0.48189 0.60345 0.29653 0.0
C1080 C 0.49542 0.59968 0.27477 0.0
H1081 H 0.51788 0.49938 0.4086 0.0
H1082 H 0.51678 0.52265 0.37005 0.0
C1083 C 0.48495 0.60517 0.25179 0.0
C1084 C 0.49058 0.59333 0.32045 0.0
H1085 H 0.53848 0.59249 0.36159 0.0
C1086 C 0.47511 0.57643 0.33249 0.0
C1087 C 0.51354 0.59963 0.33125 0.0
C1088 C 0.53042 0.61852 0.31981 0.0
C1089 C 0.48199 0.56542 0.35475 0.0
C1090 C 0.50535 0.57086 0.36502 0.0
C1091 C 0.52074 0.58813 0.35342 0.0
C1092 C 0.5136 0.55821 0.38772 0.0
C1093 C 0.4641 0.54799 0.3671 0.0
C1094 C 0.51393 0.57073 0.41036 0.0
C1095 C 0.51486 0.55742 0.43249 0.0
C1096 C 0.5153 0.53154 0.43204 0.0
C1097 C 0.51735 0.51932 0.40936 0.0
C1098 C 0.51678 0.53258 0.38737 0.0
H1099 H 0.44498 0.55046 0.36015 0.0
H1100 H 0.46972 0.52872 0.36328 0.0
H1101 H 0.46407 0.55069 0.38739 0.0
H1102 H 0.51151 0.59052 0.41095 0.0
H1103 H 0.5132 0.5672 0.4498 0.0
H1104 H 0.06376 0.38972 0.75853 0.0
H1105 H 0.04691 0.40196 0.79853 0.0
H1106 H 0.04947 0.47821 0.77625 0.0
H1107 H 0.06575 0.4661 0.73605 0.0
H1108 H 0.07129 0.43221 0.83161 0.0
H1109 H 0.9808 0.47237 0.80703 0.0
H1110 H 0.99773 0.45246 0.78645 0.0
H1111 H 0.00568 0.48457 0.78893 0.0
C1112 C 0.06021 0.40905 0.76194 0.0
C1113 C 0.06609 0.42696 0.74412 0.0
C1114 C 0.05067 0.41601 0.78483 0.0
C1115 C 0.04659 0.44094 0.79022 0.0
C1116 C 0.05198 0.45881 0.7723 0.0
H1117 H 0.03107 0.53991 0.90778 0.0
H1118 H 0.03006 0.51705 0.86903 0.0
C1119 C 0.06159 0.4519 0.74945 0.0
C1120 C 0.03905 0.44858 0.81533 0.0
H1121 H 0.99741 0.48383 0.84655 0.0
C1122 C 0.05488 0.44308 0.83503 0.0
C1123 C 0.01763 0.46273 0.81967 0.0
C1124 C 0.99934 0.46819 0.79944 0.0
C1125 C 0.05073 0.45266 0.85867 0.0
C1126 C 0.02985 0.46772 0.8628 0.0
C1127 C 0.01338 0.47226 0.84335 0.0
C1128 C 0.02656 0.48125 0.88628 0.0
C1129 C 0.06957 0.44782 0.87861 0.0
C1130 C 0.02411 0.46876 0.90883 0.0
C1131 C 0.02501 0.48181 0.93106 0.0
C1132 C 0.02783 0.50756 0.931 0.0
C1133 C 0.02886 0.52007 0.90836 0.0
C1134 C 0.02816 0.50704 0.88622 0.0
H1135 H 0.08681 0.4397 0.87114 0.0
H1136 H 0.07431 0.46511 0.88847 0.0
H1137 H 0.06176 0.43468 0.89221 0.0
H1138 H 0.02251 0.44887 0.90927 0.0
H1139 H 0.02466 0.47167 0.94824 0.0
H1140 H 0.77164 0.92677 0.92776 0.0
H1141 H 0.73167 0.94548 0.9366 0.0
H1142 H 0.76761 0.01484 0.9519 0.0
H1143 H 0.80769 0.99624 0.94208 0.0
H1144 H 0.72006 0.96181 0.98058 0.0
H1145 H 0.708 0.03818 0.91369 0.0
H1146 H 0.73087 0.01435 0.90971 0.0
H1147 H 0.73653 0.03956 0.93046 0.0
C1148 C 0.7709 0.94613 0.93256 0.0
C1149 C 0.79263 0.96008 0.93442 0.0
C1150 C 0.7481 0.95683 0.93754 0.0
C1151 C 0.74656 0.98163 0.94477 0.0
C1152 C 0.76822 0.99586 0.94582 0.0
H1153 H 0.62747 0.02443 0.04016 0.0
H1154 H 0.66793 0.02277 0.02036 0.0
C1155 C 0.7911 0.9852 0.94041 0.0
C1156 C 0.72275 0.9913 0.95413 0.0
H1157 H 0.67971 0.03685 0.94745 0.0
C1158 C 0.71124 0.97816 0.97319 0.0
C1159 C 0.71118 0.01261 0.94447 0.0
C1160 C 0.72214 0.02689 0.92329 0.0
C1161 C 0.68853 0.98554 0.98282 0.0
C1162 C 0.67728 0.00726 0.97377 0.0
C1163 C 0.68859 0.02044 0.95458 0.0
C1164 C 0.6534 0.01569 0.98389 0.0
C1165 C 0.67654 0.96964 0.00231 0.0
C1166 C 0.63187 0.01427 0.96954 0.0
C1167 C 0.60868 0.01571 0.98079 0.0
C1168 C 0.60693 0.01837 0.00646 0.0
C1169 C 0.62844 0.02219 0.02034 0.0
C1170 C 0.65151 0.02121 0.00907 0.0
H1171 H 0.68436 0.95073 0.00261 0.0
H1172 H 0.67971 0.97799 0.02071 0.0
H1173 H 0.65633 0.96822 0.99927 0.0
H1174 H 0.63298 0.01011 0.95005 0.0
H1175 H 0.59228 0.01267 0.96977 0.0
H1176 H 0.73583 0.06869 0.46602 0.0
H1177 H 0.77635 0.0526 0.47769 0.0
H1178 H 0.79683 0.04825 0.40108 0.0
H1179 H 0.75663 0.06493 0.38924 0.0
H1180 H 0.80141 0.0074 0.46324 0.0
H1181 H 0.85044 0.09248 0.43303 0.0
H1182 H 0.81749 0.09162 0.43764 0.0
H1183 H 0.83078 0.07792 0.41065 0.0
C1184 C 0.74898 0.06439 0.45165 0.0
C1185 C 0.74304 0.06828 0.4267 0.0
C1186 C 0.77203 0.055 0.45834 0.0
C1187 C 0.78964 0.04945 0.44025 0.0
C1188 C 0.78357 0.05264 0.41532 0.0
H1189 H 0.94666 0.02427 0.46998 0.0
H1190 H 0.90749 0.02287 0.44725 0.0
C1191 C 0.76051 0.06199 0.4086 0.0
C1192 C 0.81468 0.04144 0.44769 0.0
H1193 H 0.87437 0.06126 0.45084 0.0
C1194 C 0.81743 0.01903 0.46033 0.0
C1195 C 0.83557 0.05655 0.44366 0.0
C1196 C 0.83357 0.08108 0.43066 0.0
C1197 C 0.84046 0.01165 0.46963 0.0
C1198 C 0.8611 0.02734 0.46663 0.0
C1199 C 0.85854 0.04921 0.45304 0.0
C1200 C 0.88464 0.02319 0.47993 0.0
C1201 C 0.84247 0.98727 0.48284 0.0
C1202 C 0.88478 0.0233 0.50579 0.0
C1203 C 0.90702 0.02406 0.51871 0.0
C1204 C 0.92959 0.0247 0.50605 0.0
C1205 C 0.92954 0.02337 0.48019 0.0
C1206 C 0.9072 0.02269 0.46721 0.0
H1207 H 0.82805 0.97416 0.47647 0.0
H1208 H 0.86087 0.9788 0.48001 0.0
H1209 H 0.83978 0.99025 0.50289 0.0
H1210 H 0.86766 0.02427 0.516 0.0
H1211 H 0.90655 0.02527 0.53864 0.0
H1212 H 0.30124 0.56867 0.06207 0.0
H1213 H 0.26098 0.54936 0.05566 0.0
H1214 H 0.24518 0.55606 0.13322 0.0
H1215 H 0.28504 0.57624 0.13969 0.0
H1216 H 0.23704 0.50712 0.07667 0.0
H1217 H 0.18964 0.59518 0.09967 0.0
H1218 H 0.22234 0.59374 0.09382 0.0
H1219 H 0.21014 0.58299 0.12266 0.0
C1220 C 0.28921 0.56606 0.07778 0.0
C1221 C 0.29624 0.57434 0.10133 0.0
C1222 C 0.26632 0.55478 0.07413 0.0
C1223 C 0.24999 0.55158 0.09392 0.0
C1224 C 0.2574 0.55865 0.11766 0.0
H1225 H 0.09206 0.52544 0.06936 0.0
H1226 H 0.13111 0.52419 0.09235 0.0
C1227 C 0.28029 0.57001 0.12134 0.0
C1228 C 0.22459 0.54267 0.08912 0.0
H1229 H 0.16507 0.56266 0.08568 0.0
C1230 C 0.22122 0.51909 0.07898 0.0
C1231 C 0.20396 0.55827 0.09233 0.0
C1232 C 0.20656 0.58402 0.10255 0.0
C1233 C 0.19787 0.51113 0.07102 0.0
C1234 C 0.17758 0.52731 0.07289 0.0
C1235 C 0.18068 0.55026 0.08436 0.0
C1236 C 0.15406 0.52269 0.05979 0.0
C1237 C 0.19517 0.48572 0.06011 0.0
C1238 C 0.15406 0.52181 0.03395 0.0
C1239 C 0.13193 0.5227 0.02089 0.0
C1240 C 0.10937 0.52433 0.03342 0.0
C1241 C 0.10923 0.52387 0.05931 0.0
C1242 C 0.13147 0.52319 0.07242 0.0
H1243 H 0.20961 0.47305 0.06719 0.0
H1244 H 0.17674 0.47776 0.06424 0.0
H1245 H 0.19723 0.48689 0.0398 0.0
H1246 H 0.17126 0.52199 0.02381 0.0
H1247 H 0.1325 0.52314 1.00093 0.0
H1248 H 0.23505 0.47321 0.57104 0.0
H1249 H 0.27591 0.48846 0.55942 0.0
H1250 H 0.29562 0.49506 0.63613 0.0
H1251 H 0.25505 0.47917 0.64795 0.0
H1252 H 0.30269 0.53321 0.57246 0.0
H1253 H 0.34747 0.44738 0.60665 0.0
H1254 H 0.31464 0.44943 0.6016 0.0
H1255 H 0.32832 0.46371 0.62815 0.0
C1256 C 0.24806 0.47792 0.58545 0.0
C1257 C 0.24187 0.47473 0.61042 0.0
C1258 C 0.27131 0.48683 0.57878 0.0
C1259 C 0.28883 0.49261 0.59692 0.0
C1260 C 0.28241 0.49045 0.62186 0.0
H1261 H 0.44686 0.51146 0.56727 0.0
H1262 H 0.40763 0.51427 0.58962 0.0
C1263 C 0.25915 0.48156 0.62856 0.0
C1264 C 0.31426 0.49931 0.58955 0.0
H1265 H 0.37286 0.47658 0.58746 0.0
C1266 C 0.31812 0.521 0.57597 0.0
C1267 C 0.33436 0.48341 0.59431 0.0
C1268 C 0.33113 0.45958 0.60832 0.0
C1269 C 0.34148 0.52685 0.56641 0.0
C1270 C 0.36126 0.51032 0.57014 0.0
C1271 C 0.35765 0.48924 0.58468 0.0
C1272 C 0.38495 0.51282 0.55681 0.0
C1273 C 0.34474 0.55048 0.55212 0.0
C1274 C 0.38518 0.51133 0.531 0.0
C1275 C 0.40746 0.50974 0.51827 0.0
C1276 C 0.42995 0.50965 0.53111 0.0
C1277 C 0.42979 0.51193 0.55691 0.0
C1278 C 0.40743 0.51344 0.56967 0.0
H1279 H 0.33081 0.56444 0.55756 0.0
H1280 H 0.36346 0.55834 0.55495 0.0
H1281 H 0.34231 0.54666 0.53218 0.0
H1282 H 0.36807 0.51022 0.52073 0.0
H1283 H 0.40706 0.50787 0.4984 0.0
H1284 H 0.98348 0.80035 0.96671 0.0
H1285 H 0.99074 0.76032 0.98594 0.0
H1286 H 0.9125 0.746 0.98645 0.0
H1287 H 0.90511 0.78546 0.96603 0.0
H1288 H 0.97491 0.73873 0.02958 0.0
H1289 H 0.93914 0.68774 0.94798 0.0
H1290 H 0.9453 0.72038 0.94718 0.0
H1291 H 0.91796 0.7089 0.96199 0.0
C1292 C 0.9678 0.78864 0.97074 0.0
C1293 C 0.94374 0.79601 0.96445 0.0
C1294 C 0.97197 0.76588 0.98199 0.0
C1295 C 0.95219 0.75002 0.98726 0.0
C1296 C 0.92806 0.75777 0.98213 0.0
H1297 H 0.97377 0.59267 0.01661 0.0
H1298 H 0.9525 0.63253 0.01835 0.0
C1299 C 0.92387 0.78047 0.97069 0.0
C1300 C 0.95722 0.72492 0.99681 0.0
H1301 H 0.95545 0.66431 0.98023 0.0
C1302 C 0.97036 0.72241 0.01897 0.0
C1303 C 0.95115 0.70362 0.98302 0.0
C1304 C 0.93778 0.70516 0.95863 0.0
C1305 C 0.9785 0.69928 0.0272 0.0
C1306 C 0.97352 0.67815 0.01275 0.0
C1307 C 0.95912 0.6805 0.99137 0.0
C1308 C 0.98601 0.65426 0.01713 0.0
C1309 C 0.993 0.69792 0.05089 0.0
C1310 C 0.01185 0.65325 0.01645 0.0
C1311 C 0.02393 0.63062 0.01564 0.0
C1312 C 0.01044 0.60852 0.01542 0.0
C1313 C 0.98462 0.60943 0.01725 0.0
C1314 C 0.97247 0.63216 0.0181 0.0
H1315 H 0.9859 0.71145 0.06449 0.0
H1316 H 0.9924 0.67927 0.05922 0.0
H1317 H 0.01253 0.70274 0.04706 0.0
H1318 H 0.02268 0.66998 0.01508 0.0
H1319 H 0.04385 0.63043 0.01409 0.0
H1320 H 0.48306 0.74006 0.06591 0.0
H1321 H 0.48979 0.77995 0.04611 0.0
H1322 H 0.41122 0.79111 0.04153 0.0
H1323 H 0.40429 0.75166 0.06226 0.0
H1324 H 0.47432 0.80155 1.00114 0.0
H1325 H 0.43498 0.8496 0.08283 0.0
H1326 H 0.4426 0.81728 0.08335 0.0
H1327 H 0.41527 0.82763 0.06778 0.0
C1328 C 0.46719 0.75097 0.06068 0.0
C1329 C 0.44315 0.74282 0.06605 0.0
C1330 C 0.47107 0.77366 0.04914 0.0
C1331 C 0.45101 0.78865 0.04272 0.0
C1332 C 0.42695 0.77997 0.04669 0.0
H1333 H 0.47164 0.94717 0.01904 0.0
H1334 H 0.45062 0.90721 0.01552 0.0
C1335 C 0.42304 0.7573 0.05834 0.0
C1336 C 0.45561 0.81408 0.03379 0.0
H1337 H 0.45267 0.87409 0.0522 0.0
C1338 C 0.46925 0.81747 0.01207 0.0
C1339 C 0.44885 0.83485 0.04801 0.0
C1340 C 0.43477 0.83231 0.07188 0.0
C1341 C 0.47725 0.841 0.00477 0.0
C1342 C 0.47176 0.86157 0.01979 0.0
C1343 C 0.4568 0.85833 0.04065 0.0
C1344 C 0.4842 0.88573 0.01662 0.0
C1345 C 0.49212 0.84341 0.98142 0.0
C1346 C 0.51003 0.88694 0.0179 0.0
C1347 C 0.52198 0.90963 0.01973 0.0
C1348 C 0.50838 0.9316 0.02036 0.0
C1349 C 0.48259 0.93052 0.01811 0.0
C1350 C 0.47058 0.90773 0.01621 0.0
H1351 H 0.48588 0.8298 0.96744 0.0
H1352 H 0.49083 0.86217 0.97338 0.0
H1353 H 0.51176 0.83946 0.98558 0.0
H1354 H 0.52093 0.87026 0.01893 0.0
H1355 H 0.54188 0.90994 0.02162 0.0
H1356 H 0.10909 0.30871 0.53023 0.0
H1357 H 0.09305 0.27001 0.51288 0.0
H1358 H 0.09732 0.23616 0.58469 0.0
H1359 H 0.11283 0.2747 0.6021 0.0
H1360 H 0.10966 0.22048 0.51152 0.0
H1361 H 0.02441 0.23023 0.56665 0.0
H1362 H 0.04629 0.25504 0.56302 0.0
H1363 H 0.05164 0.23115 0.58541 0.0
C1364 C 0.10685 0.29288 0.54218 0.0
C1365 C 0.11178 0.29476 0.56756 0.0
C1366 C 0.09772 0.27083 0.53228 0.0
C1367 C 0.09353 0.25041 0.54761 0.0
C1368 C 0.09987 0.25188 0.57265 0.0
H1369 H 0.06388 0.09729 0.52665 0.0
H1370 H 0.08362 0.13791 0.52572 0.0
C1371 C 0.10871 0.27389 0.58257 0.0
C1372 C 0.08117 0.22797 0.5381 0.0
H1373 H 0.0319 0.19062 0.54928 0.0
C1374 C 0.0925 0.21402 0.5195 0.0
C1375 C 0.05846 0.21993 0.54807 0.0
C1376 C 0.04435 0.235 0.56669 0.0
C1377 C 0.08225 0.19154 0.5115 0.0
C1378 C 0.06047 0.18266 0.52283 0.0
C1379 C 0.04869 0.19725 0.54064 0.0
C1380 C 0.04993 0.15787 0.5178 0.0
C1381 C 0.09481 0.17764 0.49101 0.0
C1382 C 0.02454 0.15541 0.51325 0.0
C1383 C 0.01322 0.13234 0.51443 0.0
C1384 C 0.02716 0.11124 0.51968 0.0
C1385 C 0.05283 0.11333 0.52232 0.0
C1386 C 0.06413 0.13653 0.5216 0.0
H1387 H 0.105 0.19037 0.47862 0.0
H1388 H 0.10839 0.16465 0.49906 0.0
H1389 H 0.08138 0.16693 0.47984 0.0
H1390 H 0.0132 0.17156 0.51023 0.0
H1391 H 0.99339 0.13112 0.5123 0.0
H1392 H 0.60918 0.22725 0.51312 0.0
H1393 H 0.59384 0.26536 0.53215 0.0
H1394 H 0.57845 0.2951 0.4601 0.0
H1395 H 0.59414 0.25768 0.441 0.0
H1396 H 0.60931 0.31812 0.5221 0.0
H1397 H 0.51167 0.29768 0.4999 0.0
H1398 H 0.5351 0.27406 0.50137 0.0
H1399 H 0.53218 0.29305 0.47435 0.0
C1400 C 0.60276 0.24202 0.50134 0.0
C1401 C 0.60258 0.23925 0.47552 0.0
C1402 C 0.59393 0.26371 0.51226 0.0
C1403 C 0.58469 0.28282 0.49751 0.0
C1404 C 0.58511 0.28035 0.4718 0.0
H1405 H 0.53531 0.42064 0.47247 0.0
H1406 H 0.55239 0.37944 0.47761 0.0
C1407 C 0.59396 0.25886 0.46092 0.0
C1408 C 0.5742 0.30549 0.50844 0.0
H1409 H 0.52207 0.34041 0.50605 0.0
C1410 C 0.59008 0.32284 0.51931 0.0
C1411 C 0.54905 0.3114 0.50509 0.0
C1412 C 0.53093 0.29298 0.49476 0.0
C1413 C 0.58185 0.34681 0.52475 0.0
C1414 C 0.55729 0.35335 0.51907 0.0
C1415 C 0.54096 0.33533 0.51026 0.0
C1416 C 0.54943 0.37937 0.51735 0.0
C1417 C 0.59969 0.36555 0.5349 0.0
C1418 C 0.54248 0.39314 0.53813 0.0
C1419 C 0.53266 0.41692 0.53519 0.0
C1420 C 0.52979 0.42697 0.51148 0.0
C1421 C 0.53739 0.4133 0.49093 0.0
C1422 C 0.54716 0.3898 0.49384 0.0
H1423 H 0.6181 0.35747 0.53877 0.0
H1424 H 0.6019 0.38092 0.52156 0.0
H1425 H 0.5922 0.37341 0.55223 0.0
H1426 H 0.54395 0.38525 0.5564 0.0
H1427 H 0.52658 0.42705 0.55126 0.0
loop_
_geom_bond_atom_site_label_1
_geom_bond_atom_site_label_2
_geom_bond_distance
_geom_bond_site_symmetry_2
_ccdc_geom_bond_type
C0 C1 1.391 . S
C0 C4 1.391 . S
C0 H42 0.948 . S
C1 C0 1.391 . S
C1 C2 1.391 . S
C2 C1 1.391 . S
C2 H58 0.947 . S
C2 C59 1.392 . S
C3 C4 1.391 . S
C3 C7 1.397 . S
C3 C59 1.419 . S
C4 C0 1.391 . S
C4 C3 1.391 . S
C4 C5 1.399 . S
C5 C4 1.399 . S
C5 C8 1.396 . S
C5 C17 1.453 . S
C5 C18 1.684 . S
H6 C30 0.948 . S
C7 C3 1.397 . S
C7 C8 1.394 . S
C7 C26 1.723 . S
C8 C5 1.396 . S
C8 C7 1.394 . S
C8 C38 1.723 . S
H9 C32 0.947 . S
H10 C33 0.948 . S
H11 C39 0.982 . S
H12 C40 0.979 . S
H13 C40 0.980 . S
H14 C40 0.983 . S
H15 C39 0.979 . S
H16 C39 0.977 . S
C17 C5 1.453 . S
C17 H46 0.982 . S
C17 H47 0.979 . S
C17 H48 0.977 . S
C18 C5 1.684 . S
C18 H43 0.979 . S
C18 H44 0.980 . S
C18 H45 0.983 . S
C19 C20 1.391 . S
C19 C24 1.391 . S
C19 H49 0.948 . S
C20 C19 1.391 . S
C20 C21 1.391 . S
C21 C20 1.391 . S
C21 C22 1.392 . S
C21 H50 0.947 . S
C22 C21 1.392 . S
C22 C23 1.419 . S
C22 H51 0.948 . S
C23 C22 1.419 . S
C23 C24 1.391 . S
C23 C27 1.397 . S
C24 C19 1.391 . S
C24 C23 1.391 . S
C24 C25 1.399 . S
C25 C24 1.399 . S
C25 C26 1.396 . S
C25 C28 1.453 . S
C25 C29 1.684 . S
C26 C7 1.723 . S
C26 C25 1.396 . S
C26 C27 1.394 . S
C27 C23 1.397 . S
C27 C26 1.394 . S
C27 C37 1.723 . S
C28 C25 1.453 . S
C28 H52 0.982 . S
C28 H53 0.979 . S
C28 H54 0.977 . S
C29 C25 1.684 . S
C29 H55 0.979 . S
C29 H56 0.980 . S
C29 H57 0.983 . S
C30 H6 0.948 . S
C30 C31 1.391 . S
C30 C35 1.391 . S
C31 C30 1.391 . S
C31 C32 1.391 . S
C32 H9 0.947 . S
C32 C31 1.391 . S
C32 C33 1.392 . S
C33 H10 0.948 . S
C33 C32 1.392 . S
C33 C34 1.419 . S
C34 C33 1.419 . S
C34 C35 1.391 . S
C34 C38 1.397 . S
C35 C30 1.391 . S
C35 C34 1.391 . S
C35 C36 1.399 . S
C36 C35 1.399 . S
C36 C37 1.396 . S
C36 C39 1.453 . S
C36 C40 1.684 . S
C37 C27 1.723 . S
C37 C36 1.396 . S
C37 C38 1.394 . S
C38 C8 1.723 . S
C38 C34 1.397 . S
C38 C37 1.394 . S
C39 H11 0.982 . S
C39 H15 0.979 . S
C39 H16 0.977 . S
C39 C36 1.453 . S
C40 H12 0.979 . S
C40 H13 0.980 . S
C40 H14 0.983 . S
C40 C36 1.684 . S
H41 C59 0.948 . S
H42 C0 0.948 . S
H43 C18 0.979 . S
H44 C18 0.980 . S
H45 C18 0.983 . S
H46 C17 0.982 . S
H47 C17 0.979 . S
H48 C17 0.977 . S
H49 C19 0.948 . S
H50 C21 0.947 . S
H51 C22 0.948 . S
H52 C28 0.982 . S
H53 C28 0.979 . S
H54 C28 0.977 . S
H55 C29 0.979 . S
H56 C29 0.980 . S
H57 C29 0.983 . S
H58 C2 0.947 . S
C59 C2 1.392 . S
C59 C3 1.419 . S
C59 H41 0.948 . S
C60 C61 1.391 . S
C60 C64 1.391 . S
C60 H102 0.948 . S
C61 C60 1.391 . S
C61 C62 1.391 . S
C62 C61 1.391 . S
C62 H118 0.947 . S
C62 C119 1.392 . S
C63 C64 1.391 . S
C63 C67 1.397 . S
C63 C119 1.419 . S
C64 C60 1.391 . S
C64 C63 1.391 . S
C64 C65 1.399 . S
C65 C64 1.399 . S
C65 C68 1.396 . S
C65 C77 1.453 . S
C65 C78 1.684 . S
H66 C90 0.948 . S
C67 C63 1.397 . S
C67 C68 1.394 . S
C67 C86 1.723 . S
C68 C65 1.396 . S
C68 C67 1.394 . S
C68 C98 1.723 . S
H69 C92 0.947 . S
H70 C93 0.948 . S
H71 C99 0.982 . S
H72 C100 0.979 . S
H73 C100 0.980 . S
H74 C100 0.983 . S
H75 C99 0.979 . S
H76 C99 0.977 . S
C77 C65 1.453 . S
C77 H106 0.982 . S
C77 H107 0.979 . S
C77 H108 0.977 . S
C78 C65 1.684 . S
C78 H103 0.979 . S
C78 H104 0.980 . S
C78 H105 0.983 . S
C79 C80 1.391 . S
C79 C84 1.391 . S
C79 H109 0.948 . S
C80 C79 1.391 . S
C80 C81 1.391 . S
C81 C80 1.391 . S
C81 C82 1.392 . S
C81 H110 0.947 . S
C82 C81 1.392 . S
C82 C83 1.419 . S
C82 H111 0.948 . S
C83 C82 1.419 . S
C83 C84 1.391 . S
C83 C87 1.397 . S
C84 C79 1.391 . S
C84 C83 1.391 . S
C84 C85 1.399 . S
C85 C84 1.399 . S
C85 C86 1.396 . S
C85 C88 1.453 . S
C85 C89 1.684 . S
C86 C67 1.723 . S
C86 C85 1.396 . S
C86 C87 1.394 . S
C87 C83 1.397 . S
C87 C86 1.394 . S
C87 C97 1.723 . S
C88 C85 1.453 . S
C88 H112 0.982 . S
C88 H113 0.979 . S
C88 H114 0.977 . S
C89 C85 1.684 . S
C89 H115 0.979 . S
C89 H116 0.980 . S
C89 H117 0.983 . S
C90 H66 0.948 . S
C90 C91 1.391 . S
C90 C95 1.391 . S
C91 C90 1.391 . S
C91 C92 1.391 . S
C92 H69 0.947 . S
C92 C91 1.391 . S
C92 C93 1.392 . S
C93 H70 0.948 . S
C93 C92 1.392 . S
C93 C94 1.419 . S
C94 C93 1.419 . S
C94 C95 1.391 . S
C94 C98 1.397 . S
C95 C90 1.391 . S
C95 C94 1.391 . S
C95 C96 1.399 . S
C96 C95 1.399 . S
C96 C97 1.396 . S
C96 C99 1.453 . S
C96 C100 1.684 . S
C97 C87 1.723 . S
C97 C96 1.396 . S
C97 C98 1.394 . S
C98 C68 1.723 . S
C98 C94 1.397 . S
C98 C97 1.394 . S
C99 H71 0.982 . S
C99 H75 0.979 . S
C99 H76 0.977 . S
C99 C96 1.453 . S
C100 H72 0.979 . S
C100 H73 0.980 . S
C100 H74 0.983 . S
C100 C96 1.684 . S
H101 C119 0.948 . S
H102 C60 0.948 . S
H103 C78 0.979 . S
H104 C78 0.980 . S
H105 C78 0.983 . S
H106 C77 0.982 . S
H107 C77 0.979 . S
H108 C77 0.977 . S
H109 C79 0.948 . S
H110 C81 0.947 . S
H111 C82 0.948 . S
H112 C88 0.982 . S
H113 C88 0.979 . S
H114 C88 0.977 . S
H115 C89 0.979 . S
H116 C89 0.980 . S
H117 C89 0.983 . S
H118 C62 0.947 . S
C119 C62 1.392 . S
C119 C63 1.419 . S
C119 H101 0.948 . S
C120 C121 1.391 . S
C120 C124 1.391 . S
C120 H162 0.948 . S
C121 C120 1.391 . S
C121 C122 1.391 . S
C122 C121 1.391 . S
C122 H178 0.947 . S
C122 C179 1.392 . S
C123 C124 1.391 . S
C123 C127 1.397 . S
C123 C179 1.419 . S
C124 C120 1.391 . S
C124 C123 1.391 . S
C124 C125 1.399 . S
C125 C124 1.399 . S
C125 C128 1.396 . S
C125 C137 1.453 . S
C125 C138 1.684 . S
H126 C150 0.948 . S
C127 C123 1.397 . S
C127 C128 1.394 . S
C127 C146 1.723 . S
C128 C125 1.396 . S
C128 C127 1.394 . S
C128 C158 1.723 . S
H129 C152 0.947 . S
H130 C153 0.948 . S
H131 C159 0.982 . S
H132 C160 0.979 . S
H133 C160 0.980 . S
H134 C160 0.983 . S
H135 C159 0.979 . S
H136 C159 0.977 . S
C137 C125 1.453 . S
C137 H166 0.982 . S
C137 H167 0.979 . S
C137 H168 0.977 . S
C138 C125 1.684 . S
C138 H163 0.979 . S
C138 H164 0.980 . S
C138 H165 0.983 . S
C139 C140 1.391 . S
C139 C144 1.391 . S
C139 H169 0.948 . S
C140 C139 1.391 . S
C140 C141 1.391 . S
C141 C140 1.391 . S
C141 C142 1.392 . S
C141 H170 0.947 . S
C142 C141 1.392 . S
C142 C143 1.419 . S
C142 H171 0.948 . S
C143 C142 1.419 . S
C143 C144 1.391 . S
C143 C147 1.397 . S
C144 C139 1.391 . S
C144 C143 1.391 . S
C144 C145 1.399 . S
C145 C144 1.399 . S
C145 C146 1.396 . S
C145 C148 1.453 . S
C145 C149 1.684 . S
C146 C127 1.723 . S
C146 C145 1.396 . S
C146 C147 1.394 . S
C147 C143 1.397 . S
C147 C146 1.394 . S
C147 C157 1.723 . S
C148 C145 1.453 . S
C148 H172 0.982 . S
C148 H173 0.979 . S
C148 H174 0.977 . S
C149 C145 1.684 . S
C149 H175 0.979 . S
C149 H176 0.980 . S
C149 H177 0.983 . S
C150 H126 0.948 . S
C150 C151 1.391 . S
C150 C155 1.391 . S
C151 C150 1.391 . S
C151 C152 1.391 . S
C152 H129 0.947 . S
C152 C151 1.391 . S
C152 C153 1.392 . S
C153 H130 0.948 . S
C153 C152 1.392 . S
C153 C154 1.419 . S
C154 C153 1.419 . S
C154 C155 1.391 . S
C154 C158 1.397 . S
C155 C150 1.391 . S
C155 C154 1.391 . S
C155 C156 1.399 . S
C156 C155 1.399 . S
C156 C157 1.396 . S
C156 C159 1.453 . S
C156 C160 1.684 . S
C157 C147 1.723 . S
C157 C156 1.396 . S
C157 C158 1.394 . S
C158 C128 1.723 . S
C158 C154 1.397 . S
C158 C157 1.394 . S
C159 H131 0.982 . S
C159 H135 0.979 . S
C159 H136 0.977 . S
C159 C156 1.453 . S
C160 H132 0.979 . S
C160 H133 0.980 . S
C160 H134 0.983 . S
C160 C156 1.684 . S
H161 C179 0.948 . S
H162 C120 0.948 . S
H163 C138 0.979 . S
H164 C138 0.980 . S
H165 C138 0.983 . S
H166 C137 0.982 . S
H167 C137 0.979 . S
H168 C137 0.977 . S
H169 C139 0.948 . S
H170 C141 0.947 . S
H171 C142 0.948 . S
H172 C148 0.982 . S
H173 C148 0.979 . S
H174 C148 0.977 . S
H175 C149 0.979 . S
H176 C149 0.980 . S
H177 C149 0.983 . S
H178 C122 0.947 . S
C179 C122 1.392 . S
C179 C123 1.419 . S
C179 H161 0.948 . S
C180 C181 1.391 . S
C180 C184 1.391 . S
C180 H222 0.948 . S
C181 C180 1.391 . S
C181 C182 1.391 . S
C182 C181 1.391 . S
C182 H238 0.947 . S
C182 C239 1.392 . S
C183 C184 1.391 . S
C183 C187 1.397 . S
C183 C239 1.419 . S
C184 C180 1.391 . S
C184 C183 1.391 . S
C184 C185 1.399 . S
C185 C184 1.399 . S
C185 C188 1.396 . S
C185 C197 1.453 . S
C185 C198 1.684 . S
H186 C210 0.948 . S
C187 C183 1.397 . S
C187 C188 1.394 . S
C187 C206 1.723 . S
C188 C185 1.396 . S
C188 C187 1.394 . S
C188 C218 1.723 . S
H189 C212 0.947 . S
H190 C213 0.948 . S
H191 C219 0.982 . S
H192 C220 0.979 . S
H193 C220 0.980 . S
H194 C220 0.983 . S
H195 C219 0.979 . S
H196 C219 0.977 . S
C197 C185 1.453 . S
C197 H226 0.982 . S
C197 H227 0.979 . S
C197 H228 0.977 . S
C198 C185 1.684 . S
C198 H223 0.979 . S
C198 H224 0.980 . S
C198 H225 0.983 . S
C199 C200 1.391 . S
C199 C204 1.391 . S
C199 H229 0.948 . S
C200 C199 1.391 . S
C200 C201 1.391 . S
C201 C200 1.391 . S
C201 C202 1.392 . S
C201 H230 0.947 . S
C202 C201 1.392 . S
C202 C203 1.419 . S
C202 H231 0.948 . S
C203 C202 1.419 . S
C203 C204 1.391 . S
C203 C207 1.397 . S
C204 C199 1.391 . S
C204 C203 1.391 . S
C204 C205 1.399 . S
C205 C204 1.399 . S
C205 C206 1.396 . S
C205 C208 1.453 . S
C205 C209 1.684 . S
C206 C187 1.723 . S
C206 C205 1.396 . S
C206 C207 1.394 . S
C207 C203 1.397 . S
C207 C206 1.394 . S
C207 C217 1.723 . S
C208 C205 1.453 . S
C208 H232 0.982 . S
C208 H233 0.979 . S
C208 H234 0.977 . S
C209 C205 1.684 . S
C209 H235 0.979 . S
C209 H236 0.980 . S
C209 H237 0.983 . S
C210 H186 0.948 . S
C210 C211 1.391 . S
C210 C215 1.391 . S
C211 C210 1.391 . S
C211 C212 1.391 . S
C212 H189 0.947 . S
C212 C211 1.391 . S
C212 C213 1.392 . S
C213 H190 0.948 . S
C213 C212 1.392 . S
C213 C214 1.419 . S
C214 C213 1.419 . S
C214 C215 1.391 . S
C214 C218 1.397 . S
C215 C210 1.391 . S
C215 C214 1.391 . S
C215 C216 1.399 . S
C216 C215 1.399 . S
C216 C217 1.396 . S
C216 C219 1.453 . S
C216 C220 1.684 . S
C217 C207 1.723 . S
C217 C216 1.396 . S
C217 C218 1.394 . S
C218 C188 1.723 . S
C218 C214 1.397 . S
C218 C217 1.394 . S
C219 H191 0.982 . S
C219 H195 0.979 . S
C219 H196 0.977 . S
C219 C216 1.453 . S
C220 H192 0.979 . S
C220 H193 0.980 . S
C220 H194 0.983 . S
C220 C216 1.684 . S
H221 C239 0.948 . S
H222 C180 0.948 . S
H223 C198 0.979 . S
H224 C198 0.980 . S
H225 C198 0.983 . S
H226 C197 0.982 . S
H227 C197 0.979 . S
H228 C197 0.977 . S
H229 C199 0.948 . S
H230 C201 0.947 . S
H231 C202 0.948 . S
H232 C208 0.982 . S
H233 C208 0.979 . S
H234 C208 0.977 . S
H235 C209 0.979 . S
H236 C209 0.980 . S
H237 C209 0.983 . S
H238 C182 0.947 . S
C239 C182 1.392 . S
C239 C183 1.419 . S
C239 H221 0.948 . S
C240 C241 1.391 . S
C240 C244 1.391 . S
C240 H282 0.948 . S
C241 C240 1.391 . S
C241 C242 1.391 . S
C242 C241 1.391 . S
C242 H298 0.947 1_655 S
C242 C299 1.392 . S
C243 C244 1.391 . S
C243 C247 1.397 . S
C243 C299 1.419 . S
C244 C240 1.391 . S
C244 C243 1.391 . S
C244 C245 1.399 . S
C245 C244 1.399 . S
C245 C248 1.396 . S
C245 C257 1.453 . S
C245 C258 1.684 1_556 S
H246 C270 0.948 . S
C247 C243 1.397 . S
C247 C248 1.394 . S
C247 C266 1.723 . S
C248 C245 1.396 . S
C248 C247 1.394 . S
C248 C278 1.723 . S
H249 C272 0.947 1_554 S
H250 C273 0.948 . S
H251 C279 0.982 . S
H252 C280 0.979 . S
H253 C280 0.980 . S
H254 C280 0.983 . S
H255 C279 0.979 . S
H256 C279 0.977 . S
C257 C245 1.453 . S
C257 H286 0.982 . S
C257 H287 0.979 . S
C257 H288 0.977 . S
C258 C245 1.684 1_554 S
C258 H283 0.979 . S
C258 H284 0.980 . S
C258 H285 0.983 . S
C259 C260 1.391 . S
C259 C264 1.391 . S
C259 H289 0.948 . S
C260 C259 1.391 . S
C260 C261 1.391 . S
C261 C260 1.391 . S
C261 C262 1.392 . S
C261 H290 0.947 1_565 S
C262 C261 1.392 . S
C262 C263 1.419 . S
C262 H291 0.948 . S
C263 C262 1.419 . S
C263 C264 1.391 . S
C263 C267 1.397 . S
C264 C259 1.391 . S
C264 C263 1.391 . S
C264 C265 1.399 . S
C265 C264 1.399 . S
C265 C266 1.396 . S
C265 C268 1.453 . S
C265 C269 1.684 1_655 S
C266 C247 1.723 . S
C266 C265 1.396 . S
C266 C267 1.394 . S
C267 C263 1.397 . S
C267 C266 1.394 . S
C267 C277 1.723 . S
C268 C265 1.453 . S
C268 H292 0.982 . S
C268 H293 0.979 . S
C268 H294 0.977 . S
C269 C265 1.684 1_455 S
C269 H295 0.979 . S
C269 H296 0.980 . S
C269 H297 0.983 . S
C270 H246 0.948 . S
C270 C271 1.391 . S
C270 C275 1.391 . S
C271 C270 1.391 . S
C271 C272 1.391 . S
C272 H249 0.947 1_556 S
C272 C271 1.391 . S
C272 C273 1.392 . S
C273 H250 0.948 . S
C273 C272 1.392 . S
C273 C274 1.419 . S
C274 C273 1.419 . S
C274 C275 1.391 . S
C274 C278 1.397 . S
C275 C270 1.391 . S
C275 C274 1.391 . S
C275 C276 1.399 . S
C276 C275 1.399 . S
C276 C277 1.396 . S
C276 C279 1.453 . S
C276 C280 1.684 1_565 S
C277 C267 1.723 . S
C277 C276 1.396 . S
C277 C278 1.394 . S
C278 C248 1.723 . S
C278 C274 1.397 . S
C278 C277 1.394 . S
C279 H251 0.982 . S
C279 H255 0.979 . S
C279 H256 0.977 . S
C279 C276 1.453 . S
C280 H252 0.979 . S
C280 H253 0.980 . S
C280 H254 0.983 . S
C280 C276 1.684 1_545 S
H281 C299 0.948 . S
H282 C240 0.948 . S
H283 C258 0.979 . S
H284 C258 0.980 . S
H285 C258 0.983 . S
H286 C257 0.982 . S
H287 C257 0.979 . S
H288 C257 0.977 . S
H289 C259 0.948 . S
H290 C261 0.947 1_545 S
H291 C262 0.948 . S
H292 C268 0.982 . S
H293 C268 0.979 . S
H294 C268 0.977 . S
H295 C269 0.979 . S
H296 C269 0.980 . S
H297 C269 0.983 . S
H298 C242 0.947 1_455 S
C299 C242 1.392 . S
C299 C243 1.419 . S
C299 H281 0.948 . S
C300 C301 1.391 . S
C300 C304 1.391 . S
C300 H342 0.948 . S
C301 C300 1.391 . S
C301 C302 1.391 . S
C302 C301 1.391 . S
C302 H358 0.947 . S
C302 C359 1.392 . S
C303 C304 1.391 . S
C303 C307 1.397 . S
C303 C359 1.419 . S
C304 C300 1.391 . S
C304 C303 1.391 . S
C304 C305 1.399 . S
C305 C304 1.399 . S
C305 C308 1.396 . S
C305 C317 1.453 . S
C305 C318 1.684 . S
H306 C330 0.948 . S
C307 C303 1.397 . S
C307 C308 1.394 . S
C307 C326 1.723 . S
C308 C305 1.396 . S
C308 C307 1.394 . S
C308 C338 1.723 . S
H309 C332 0.947 . S
H310 C333 0.948 . S
H311 C339 0.982 . S
H312 C340 0.979 . S
H313 C340 0.980 . S
H314 C340 0.983 . S
H315 C339 0.979 . S
H316 C339 0.977 . S
C317 C305 1.453 . S
C317 H346 0.982 . S
C317 H347 0.979 . S
C317 H348 0.977 . S
C318 C305 1.684 . S
C318 H343 0.979 . S
C318 H344 0.980 . S
C318 H345 0.983 . S
C319 C320 1.391 . S
C319 C324 1.391 . S
C319 H349 0.948 . S
C320 C319 1.391 . S
C320 C321 1.391 . S
C321 C320 1.391 . S
C321 C322 1.392 . S
C321 H350 0.947 . S
C322 C321 1.392 . S
C322 C323 1.419 . S
C322 H351 0.948 . S
C323 C322 1.419 . S
C323 C324 1.391 . S
C323 C327 1.397 . S
C324 C319 1.391 . S
C324 C323 1.391 . S
C324 C325 1.399 . S
C325 C324 1.399 . S
C325 C326 1.396 . S
C325 C328 1.453 . S
C325 C329 1.684 . S
C326 C307 1.723 . S
C326 C325 1.396 . S
C326 C327 1.394 . S
C327 C323 1.397 . S
C327 C326 1.394 . S
C327 C337 1.723 . S
C328 C325 1.453 . S
C328 H352 0.982 . S
C328 H353 0.979 . S
C328 H354 0.977 . S
C329 C325 1.684 . S
C329 H355 0.979 . S
C329 H356 0.980 . S
C329 H357 0.983 . S
C330 H306 0.948 . S
C330 C331 1.391 . S
C330 C335 1.391 . S
C331 C330 1.391 . S
C331 C332 1.391 . S
C332 H309 0.947 . S
C332 C331 1.391 . S
C332 C333 1.392 . S
C333 H310 0.948 . S
C333 C332 1.392 . S
C333 C334 1.419 . S
C334 C333 1.419 . S
C334 C335 1.391 . S
C334 C338 1.397 . S
C335 C330 1.391 . S
C335 C334 1.391 . S
C335 C336 1.399 . S
C336 C335 1.399 . S
C336 C337 1.396 . S
C336 C339 1.453 . S
C336 C340 1.684 . S
C337 C327 1.723 . S
C337 C336 1.396 . S
C337 C338 1.394 . S
C338 C308 1.723 . S
C338 C334 1.397 . S
C338 C337 1.394 . S
C339 H311 0.982 . S
C339 H315 0.979 . S
C339 H316 0.977 . S
C339 C336 1.453 . S
C340 H312 0.979 . S
C340 H313 0.980 . S
C340 H314 0.983 . S
C340 C336 1.684 . S
H341 C359 0.948 . S
H342 C300 0.948 . S
H343 C318 0.979 . S
H344 C318 0.980 . S
H345 C318 0.983 . S
H346 C317 0.982 . S
H347 C317 0.979 . S
H348 C317 0.977 . S
H349 C319 0.948 . S
H350 C321 0.947 . S
H351 C322 0.948 . S
H352 C328 0.982 . S
H353 C328 0.979 . S
H354 C328 0.977 . S
H355 C329 0.979 . S
H356 C329 0.980 . S
H357 C329 0.983 . S
H358 C302 0.947 . S
C359 C302 1.392 . S
C359 C303 1.419 . S
C359 H341 0.948 . S
C360 C361 1.391 . S
C360 C364 1.391 . S
C360 H402 0.948 . S
C361 C360 1.391 . S
C361 C362 1.391 . S
C362 C361 1.391 . S
C362 H418 0.947 . S
C362 C419 1.392 . S
C363 C364 1.391 . S
C363 C367 1.397 . S
C363 C419 1.419 . S
C364 C360 1.391 . S
C364 C363 1.391 . S
C364 C365 1.399 . S
C365 C364 1.399 . S
C365 C368 1.396 . S
C365 C377 1.453 . S
C365 C378 1.684 . S
H366 C390 0.948 . S
C367 C363 1.397 . S
C367 C368 1.394 . S
C367 C386 1.723 . S
C368 C365 1.396 . S
C368 C367 1.394 . S
C368 C398 1.723 . S
H369 C392 0.947 . S
H370 C393 0.948 . S
H371 C399 0.982 . S
H372 C400 0.979 . S
H373 C400 0.980 . S
H374 C400 0.983 . S
H375 C399 0.979 . S
H376 C399 0.977 . S
C377 C365 1.453 . S
C377 H406 0.982 . S
C377 H407 0.979 . S
C377 H408 0.977 . S
C378 C365 1.684 . S
C378 H403 0.979 . S
C378 H404 0.980 . S
C378 H405 0.983 . S
C379 C380 1.391 . S
C379 C384 1.391 . S
C379 H409 0.948 . S
C380 C379 1.391 . S
C380 C381 1.391 . S
C381 C380 1.391 . S
C381 C382 1.392 . S
C381 H410 0.947 . S
C382 C381 1.392 . S
C382 C383 1.419 . S
C382 H411 0.948 . S
C383 C382 1.419 . S
C383 C384 1.391 . S
C383 C387 1.397 . S
C384 C379 1.391 . S
C384 C383 1.391 . S
C384 C385 1.399 . S
C385 C384 1.399 . S
C385 C386 1.396 . S
C385 C388 1.453 . S
C385 C389 1.684 . S
C386 C367 1.723 . S
C386 C385 1.396 . S
C386 C387 1.394 . S
C387 C383 1.397 . S
C387 C386 1.394 . S
C387 C397 1.723 . S
C388 C385 1.453 . S
C388 H412 0.982 . S
C388 H413 0.979 . S
C388 H414 0.977 . S
C389 C385 1.684 . S
C389 H415 0.979 . S
C389 H416 0.980 . S
C389 H417 0.983 . S
C390 H366 0.948 . S
C390 C391 1.391 . S
C390 C395 1.391 . S
C391 C390 1.391 . S
C391 C392 1.391 . S
C392 H369 0.947 . S
C392 C391 1.391 . S
C392 C393 1.392 . S
C393 H370 0.948 . S
C393 C392 1.392 . S
C393 C394 1.419 . S
C394 C393 1.419 . S
C394 C395 1.391 . S
C394 C398 1.397 . S
C395 C390 1.391 . S
C395 C394 1.391 . S
C395 C396 1.399 . S
C396 C395 1.399 . S
C396 C397 1.396 . S
C396 C399 1.453 . S
C396 C400 1.684 . S
C397 C387 1.723 . S
C397 C396 1.396 . S
C397 C398 1.394 . S
C398 C368 1.723 . S
C398 C394 1.397 . S
C398 C397 1.394 . S
C399 H371 0.982 . S
C399 H375 0.979 . S
C399 H376 0.977 . S
C399 C396 1.453 . S
C400 H372 0.979 . S
C400 H373 0.980 . S
C400 H374 0.983 . S
C400 C396 1.684 . S
H401 C419 0.948 . S
H402 C360 0.948 . S
H403 C378 0.979 . S
H404 C378 0.980 . S
H405 C378 0.983 . S
H406 C377 0.982 . S
H407 C377 0.979 . S
H408 C377 0.977 . S
H409 C379 0.948 . S
H410 C381 0.947 . S
H411 C382 0.948 . S
H412 C388 0.982 . S
H413 C388 0.979 . S
H414 C388 0.977 . S
H415 C389 0.979 . S
H416 C389 0.980 . S
H417 C389 0.983 . S
H418 C362 0.947 . S
C419 C362 1.392 . S
C419 C363 1.419 . S
C419 H401 0.948 . S
C420 C421 1.391 . S
C420 C424 1.391 . S
C420 H462 0.948 . S
C421 C420 1.391 . S
C421 C422 1.391 . S
C422 C421 1.391 . S
C422 H478 0.947 . S
C422 C479 1.392 . S
C423 C424 1.391 . S
C423 C427 1.397 . S
C423 C479 1.419 . S
C424 C420 1.391 . S
C424 C423 1.391 . S
C424 C425 1.399 . S
C425 C424 1.399 . S
C425 C428 1.396 . S
C425 C437 1.453 . S
C425 C438 1.684 . S
H426 C450 0.948 . S
C427 C423 1.397 . S
C427 C428 1.394 . S
C427 C446 1.723 . S
C428 C425 1.396 . S
C428 C427 1.394 . S
C428 C458 1.723 . S
H429 C452 0.947 . S
H430 C453 0.948 . S
H431 C459 0.982 . S
H432 C460 0.979 . S
H433 C460 0.980 . S
H434 C460 0.983 . S
H435 C459 0.979 . S
H436 C459 0.977 . S
C437 C425 1.453 . S
C437 H466 0.982 . S
C437 H467 0.979 . S
C437 H468 0.977 . S
C438 C425 1.684 . S
C438 H463 0.979 . S
C438 H464 0.980 . S
C438 H465 0.983 . S
C439 C440 1.391 . S
C439 C444 1.391 . S
C439 H469 0.948 . S
C440 C439 1.391 . S
C440 C441 1.391 . S
C441 C440 1.391 . S
C441 C442 1.392 . S
C441 H470 0.947 . S
C442 C441 1.392 . S
C442 C443 1.419 . S
C442 H471 0.948 . S
C443 C442 1.419 . S
C443 C444 1.391 . S
C443 C447 1.397 . S
C444 C439 1.391 . S
C444 C443 1.391 . S
C444 C445 1.399 . S
C445 C444 1.399 . S
C445 C446 1.396 . S
C445 C448 1.453 . S
C445 C449 1.684 . S
C446 C427 1.723 . S
C446 C445 1.396 . S
C446 C447 1.394 . S
C447 C443 1.397 . S
C447 C446 1.394 . S
C447 C457 1.723 . S
C448 C445 1.453 . S
C448 H472 0.982 . S
C448 H473 0.979 . S
C448 H474 0.977 . S
C449 C445 1.684 . S
C449 H475 0.979 . S
C449 H476 0.980 . S
C449 H477 0.983 . S
C450 H426 0.948 . S
C450 C451 1.391 . S
C450 C455 1.391 . S
C451 C450 1.391 . S
C451 C452 1.391 . S
C452 H429 0.947 . S
C452 C451 1.391 . S
C452 C453 1.392 . S
C453 H430 0.948 . S
C453 C452 1.392 . S
C453 C454 1.419 . S
C454 C453 1.419 . S
C454 C455 1.391 . S
C454 C458 1.397 . S
C455 C450 1.391 . S
C455 C454 1.391 . S
C455 C456 1.399 . S
C456 C455 1.399 . S
C456 C457 1.396 . S
C456 C459 1.453 . S
C456 C460 1.684 . S
C457 C447 1.723 . S
C457 C456 1.396 . S
C457 C458 1.394 . S
C458 C428 1.723 . S
C458 C454 1.397 . S
C458 C457 1.394 . S
C459 H431 0.982 . S
C459 H435 0.979 . S
C459 H436 0.977 . S
C459 C456 1.453 . S
C460 H432 0.979 . S
C460 H433 0.980 . S
C460 H434 0.983 . S
C460 C456 1.684 . S
H461 C479 0.948 . S
H462 C420 0.948 . S
H463 C438 0.979 . S
H464 C438 0.980 . S
H465 C438 0.983 . S
H466 C437 0.982 . S
H467 C437 0.979 . S
H468 C437 0.977 . S
H469 C439 0.948 . S
H470 C441 0.947 . S
H471 C442 0.948 . S
H472 C448 0.982 . S
H473 C448 0.979 . S
H474 C448 0.977 . S
H475 C449 0.979 . S
H476 C449 0.980 . S
H477 C449 0.983 . S
H478 C422 0.947 . S
C479 C422 1.392 . S
C479 C423 1.419 . S
C479 H461 0.948 . S
Zn480 O486 1.920 . S
Zn480 O492 1.898 . S
Zn480 O495 1.905 . S
Zn481 O489 1.905 1_565 S
Zn481 O490 1.898 . S
Zn481 O498 1.920 . S
Zn482 O485 2.080 1_455 S
Zn482 O488 2.114 . S
Zn482 O491 2.120 1_445 S
Zn482 O493 2.120 . S
Zn482 O494 2.114 1_455 S
Zn482 O497 2.080 . S
C483 O488 1.166 . S
C483 O489 1.182 . S
C484 O490 1.167 1_655 S
C484 O491 1.299 . S
O485 Zn482 2.080 1_655 S
O485 C499 1.305 . S
O486 Zn480 1.920 . S
O486 C499 1.234 . S
C487 O492 1.167 1_455 S
C487 O493 1.299 . S
O488 Zn482 2.114 . S
O488 C483 1.166 . S
O489 Zn481 1.905 1_545 S
O489 C483 1.182 . S
O490 Zn481 1.898 . S
O490 C484 1.167 1_455 S
O491 Zn482 2.120 1_665 S
O491 C484 1.299 . S
O492 Zn480 1.898 . S
O492 C487 1.167 1_655 S
O493 Zn482 2.120 . S
O493 C487 1.299 . S
O494 Zn482 2.114 1_655 S
O494 C496 1.166 . S
O495 Zn480 1.905 . S
O495 C496 1.182 . S
C496 O494 1.166 . S
C496 O495 1.182 . S
O497 Zn482 2.080 . S
O497 C500 1.304 . S
O498 Zn481 1.920 . S
O498 C500 1.235 1_565 S
C499 O485 1.305 . S
C499 O486 1.234 . S
C500 O497 1.304 . S
C500 O498 1.235 1_545 S
Zn501 O507 1.920 1_556 S
Zn501 O513 1.898 . S
Zn501 O516 1.905 . S
Zn502 O510 1.905 . S
Zn502 O511 1.898 . S
Zn502 O519 1.920 . S
Zn503 O506 2.080 . S
Zn503 O509 2.114 1_545 S
Zn503 O512 2.120 1_545 S
Zn503 O514 2.120 . S
Zn503 O515 2.114 1_544 S
Zn503 O518 2.080 . S
C504 O509 1.166 . S
C504 O510 1.182 . S
C505 O511 1.167 . S
C505 O512 1.299 . S
O506 Zn503 2.080 . S
O506 C520 1.305 . S
O507 Zn501 1.920 1_554 S
O507 C520 1.234 . S
C508 O513 1.167 . S
C508 O514 1.299 1_556 S
O509 Zn503 2.114 1_565 S
O509 C504 1.166 . S
O510 Zn502 1.905 . S
O510 C504 1.182 . S
O511 Zn502 1.898 . S
O511 C505 1.167 . S
O512 Zn503 2.120 1_565 S
O512 C505 1.299 . S
O513 Zn501 1.898 . S
O513 C508 1.167 . S
O514 Zn503 2.120 . S
O514 C508 1.299 1_554 S
O515 Zn503 2.114 1_566 S
O515 C517 1.166 . S
O516 Zn501 1.905 . S
O516 C517 1.182 1_545 S
C517 O515 1.166 . S
C517 O516 1.182 1_565 S
O518 Zn503 2.080 . S
O518 C521 1.305 . S
O519 Zn502 1.920 . S
O519 C521 1.234 1_565 S
C520 O506 1.305 . S
C520 O507 1.234 . S
C521 O518 1.305 . S
C521 O519 1.234 1_545 S
Zn522 O528 1.920 . S
Zn522 O534 1.898 . S
Zn522 O537 1.905 . S
Zn523 O531 1.905 . S
Zn523 O532 1.898 . S
Zn523 O540 1.920 . S
Zn524 O527 2.080 . S
Zn524 O530 2.114 . S
Zn524 O533 2.120 . S
Zn524 O535 2.120 . S
Zn524 O536 2.114 . S
Zn524 O539 2.080 . S
C525 O530 1.166 . S
C525 O531 1.182 . S
C526 O532 1.167 . S
C526 O533 1.299 . S
O527 Zn524 2.080 . S
O527 C541 1.305 . S
O528 Zn522 1.920 . S
O528 C541 1.234 . S
C529 O534 1.167 . S
C529 O535 1.299 . S
O530 Zn524 2.114 . S
O530 C525 1.166 . S
O531 Zn523 1.905 . S
O531 C525 1.182 . S
O532 Zn523 1.898 . S
O532 C526 1.167 . S
O533 Zn524 2.120 . S
O533 C526 1.299 . S
O534 Zn522 1.898 . S
O534 C529 1.167 . S
O535 Zn524 2.120 . S
O535 C529 1.299 . S
O536 Zn524 2.114 . S
O536 C538 1.166 . S
O537 Zn522 1.905 . S
O537 C538 1.182 . S
C538 O536 1.166 . S
C538 O537 1.182 . S
O539 Zn524 2.080 . S
O539 C542 1.305 . S
O540 Zn523 1.920 . S
O540 C542 1.234 . S
C541 O527 1.305 . S
C541 O528 1.234 . S
C542 O539 1.305 . S
C542 O540 1.234 . S
Zn543 O549 1.920 . S
Zn543 O555 1.898 . S
Zn543 O558 1.905 . S
Zn544 O552 1.905 1_655 S
Zn544 O553 1.898 . S
Zn544 O561 1.920 . S
Zn545 O548 2.080 1_554 S
Zn545 O551 2.114 . S
Zn545 O554 2.120 1_454 S
Zn545 O556 2.120 . S
Zn545 O557 2.114 1_554 S
Zn545 O560 2.080 . S
C546 O551 1.166 . S
C546 O552 1.182 . S
C547 O553 1.167 1_556 S
C547 O554 1.299 . S
O548 Zn545 2.080 1_556 S
O548 C562 1.305 . S
O549 Zn543 1.920 . S
O549 C562 1.234 . S
C550 O555 1.167 1_554 S
C550 O556 1.299 . S
O551 Zn545 2.114 . S
O551 C546 1.166 . S
O552 Zn544 1.905 1_455 S
O552 C546 1.182 . S
O553 Zn544 1.898 . S
O553 C547 1.167 1_554 S
O554 Zn545 2.120 1_656 S
O554 C547 1.299 . S
O555 Zn543 1.898 . S
O555 C550 1.167 1_556 S
O556 Zn545 2.120 . S
O556 C550 1.299 . S
O557 Zn545 2.114 1_556 S
O557 C559 1.166 . S
O558 Zn543 1.905 . S
O558 C559 1.182 . S
C559 O557 1.166 . S
C559 O558 1.182 . S
O560 Zn545 2.080 . S
O560 C563 1.275 1_455 S
O561 Zn544 1.920 . S
O561 C563 1.257 . S
C562 O548 1.305 . S
C562 O549 1.234 . S
C563 O560 1.275 1_655 S
C563 O561 1.257 . S
H564 C572 0.929 . S
H565 C574 0.930 . S
H566 C576 0.930 . S
H567 C579 0.929 . S
H568 C582 0.930 . S
H569 C584 0.960 . S
H570 C584 0.960 . S
H571 C584 0.960 . S
C572 H564 0.929 . S
C572 C573 1.377 . S
C572 C574 1.384 . S
C573 C572 1.377 . S
C573 C579 1.390 . S
C574 H565 0.930 . S
C574 C572 1.384 . S
C574 C575 1.372 . S
C575 C574 1.372 . S
C575 C576 1.400 . S
C575 C580 1.490 . S
C576 H566 0.930 . S
C576 C575 1.400 . S
C576 C579 1.386 . S
H577 C593 0.930 . S
H578 C594 0.931 . S
C579 H567 0.929 . S
C579 C573 1.390 . S
C579 C576 1.386 . S
C580 C575 1.490 . S
C580 C582 1.395 . S
C580 C583 1.403 . S
H581 C587 0.930 . S
C582 H568 0.930 . S
C582 C580 1.395 . S
C582 C585 1.403 . S
C583 C580 1.403 . S
C583 C584 1.524 . S
C583 C587 1.400 . S
C584 H569 0.960 . S
C584 H570 0.960 . S
C584 H571 0.960 . S
C584 C583 1.524 . S
C585 C582 1.403 . S
C585 C586 1.392 . S
C585 C589 1.495 . S
C586 C585 1.392 . S
C586 C587 1.385 . S
C586 C588 1.478 . S
C587 H581 0.930 . S
C587 C583 1.400 . S
C587 C586 1.385 . S
C588 C586 1.478 . S
C588 C590 1.381 . S
C588 C594 1.383 . S
C589 C585 1.495 . S
C589 H595 0.959 . S
C589 H596 0.961 . S
C589 H597 0.960 . S
C590 C588 1.381 . S
C590 C591 1.394 . S
C590 H598 0.930 . S
C591 C590 1.394 . S
C591 C592 1.383 . S
C591 H599 0.929 . S
C592 C591 1.383 . S
C592 C593 1.377 . S
C593 H577 0.930 . S
C593 C592 1.377 . S
C593 C594 1.379 . S
C594 H578 0.931 . S
C594 C588 1.383 . S
C594 C593 1.379 . S
H595 C589 0.959 . S
H596 C589 0.961 . S
H597 C589 0.960 . S
H598 C590 0.930 . S
H599 C591 0.929 . S
H600 C608 0.929 . S
H601 C610 0.930 . S
H602 C612 0.930 . S
H603 C615 0.929 . S
H604 C618 0.930 . S
H605 C620 0.960 . S
H606 C620 0.960 . S
H607 C620 0.960 . S
C608 H600 0.929 . S
C608 C609 1.377 . S
C608 C610 1.384 . S
C609 C608 1.377 . S
C609 C615 1.390 . S
C610 H601 0.930 . S
C610 C608 1.384 . S
C610 C611 1.372 . S
C611 C610 1.372 . S
C611 C612 1.400 . S
C611 C616 1.490 . S
C612 H602 0.930 . S
C612 C611 1.400 . S
C612 C615 1.386 . S
H613 C629 0.930 . S
H614 C630 0.931 . S
C615 H603 0.929 . S
C615 C609 1.390 . S
C615 C612 1.386 . S
C616 C611 1.490 . S
C616 C618 1.395 . S
C616 C619 1.403 . S
H617 C623 0.930 . S
C618 H604 0.930 . S
C618 C616 1.395 . S
C618 C621 1.403 . S
C619 C616 1.403 . S
C619 C620 1.524 . S
C619 C623 1.400 . S
C620 H605 0.960 . S
C620 H606 0.960 . S
C620 H607 0.960 . S
C620 C619 1.524 . S
C621 C618 1.403 . S
C621 C622 1.392 . S
C621 C625 1.495 . S
C622 C621 1.392 . S
C622 C623 1.385 . S
C622 C624 1.478 . S
C623 H617 0.930 . S
C623 C619 1.400 . S
C623 C622 1.385 . S
C624 C622 1.478 . S
C624 C626 1.381 . S
C624 C630 1.383 . S
C625 C621 1.495 . S
C625 H631 0.959 . S
C625 H632 0.961 . S
C625 H633 0.960 . S
C626 C624 1.381 . S
C626 C627 1.394 . S
C626 H634 0.930 . S
C627 C626 1.394 . S
C627 C628 1.383 . S
C627 H635 0.929 . S
C628 C627 1.383 . S
C628 C629 1.377 . S
C629 H613 0.930 . S
C629 C628 1.377 . S
C629 C630 1.379 . S
C630 H614 0.931 . S
C630 C624 1.383 . S
C630 C629 1.379 . S
H631 C625 0.959 . S
H632 C625 0.961 . S
H633 C625 0.960 . S
H634 C626 0.930 . S
H635 C627 0.929 . S
H636 C644 0.929 . S
H637 C646 0.930 . S
H638 C648 0.930 . S
H639 C651 0.929 . S
H640 C654 0.930 . S
H641 C656 0.960 . S
H642 C656 0.960 . S
H643 C656 0.960 . S
C644 H636 0.929 . S
C644 C645 1.377 . S
C644 C646 1.384 . S
C645 C644 1.377 . S
C645 C651 1.390 . S
C646 H637 0.930 . S
C646 C644 1.384 . S
C646 C647 1.372 . S
C647 C646 1.372 . S
C647 C648 1.400 . S
C647 C652 1.490 . S
C648 H638 0.930 . S
C648 C647 1.400 . S
C648 C651 1.386 . S
H649 C665 0.930 . S
H650 C666 0.931 . S
C651 H639 0.929 . S
C651 C645 1.390 . S
C651 C648 1.386 . S
C652 C647 1.490 . S
C652 C654 1.395 . S
C652 C655 1.403 . S
H653 C659 0.930 . S
C654 H640 0.930 . S
C654 C652 1.395 . S
C654 C657 1.403 . S
C655 C652 1.403 . S
C655 C656 1.524 . S
C655 C659 1.400 . S
C656 H641 0.960 . S
C656 H642 0.960 . S
C656 H643 0.960 . S
C656 C655 1.524 . S
C657 C654 1.403 . S
C657 C658 1.392 . S
C657 C661 1.495 . S
C658 C657 1.392 . S
C658 C659 1.385 . S
C658 C660 1.478 . S
C659 H653 0.930 . S
C659 C655 1.400 . S
C659 C658 1.385 . S
C660 C658 1.478 . S
C660 C662 1.381 . S
C660 C666 1.383 . S
C661 C657 1.495 . S
C661 H667 0.959 . S
C661 H668 0.961 . S
C661 H669 0.960 . S
C662 C660 1.381 . S
C662 C663 1.394 . S
C662 H670 0.930 . S
C663 C662 1.394 . S
C663 C664 1.383 . S
C663 H671 0.929 . S
C664 C663 1.383 . S
C664 C665 1.377 . S
C665 H649 0.930 . S
C665 C664 1.377 . S
C665 C666 1.379 . S
C666 H650 0.931 . S
C666 C660 1.383 . S
C666 C665 1.379 . S
H667 C661 0.959 . S
H668 C661 0.961 . S
H669 C661 0.960 . S
H670 C662 0.930 . S
H671 C663 0.929 . S
H672 C680 0.929 . S
H673 C682 0.930 . S
H674 C684 0.930 . S
H675 C687 0.929 . S
H676 C690 0.930 . S
H677 C692 0.960 . S
H678 C692 0.960 . S
H679 C692 0.960 . S
C680 H672 0.929 . S
C680 C681 1.377 . S
C680 C682 1.384 . S
C681 C680 1.377 . S
C681 C687 1.390 . S
C682 H673 0.930 . S
C682 C680 1.384 . S
C682 C683 1.372 . S
C683 C682 1.372 . S
C683 C684 1.400 . S
C683 C688 1.490 . S
C684 H674 0.930 . S
C684 C683 1.400 . S
C684 C687 1.386 . S
H685 C701 0.930 . S
H686 C702 0.931 . S
C687 H675 0.929 . S
C687 C681 1.390 . S
C687 C684 1.386 . S
C688 C683 1.490 . S
C688 C690 1.395 . S
C688 C691 1.403 . S
H689 C695 0.930 . S
C690 H676 0.930 . S
C690 C688 1.395 . S
C690 C693 1.403 . S
C691 C688 1.403 . S
C691 C692 1.524 . S
C691 C695 1.400 . S
C692 H677 0.960 . S
C692 H678 0.960 . S
C692 H679 0.960 . S
C692 C691 1.524 . S
C693 C690 1.403 . S
C693 C694 1.392 . S
C693 C697 1.495 . S
C694 C693 1.392 . S
C694 C695 1.385 . S
C694 C696 1.478 . S
C695 H689 0.930 . S
C695 C691 1.400 . S
C695 C694 1.385 . S
C696 C694 1.478 . S
C696 C698 1.381 . S
C696 C702 1.383 . S
C697 C693 1.495 . S
C697 H703 0.959 1_655 S
C697 H704 0.961 1_655 S
C697 H705 0.960 . S
C698 C696 1.381 . S
C698 C699 1.394 . S
C698 H706 0.930 . S
C699 C698 1.394 . S
C699 C700 1.383 . S
C699 H707 0.929 . S
C700 C699 1.383 . S
C700 C701 1.377 . S
C701 H685 0.930 . S
C701 C700 1.377 . S
C701 C702 1.379 . S
C702 H686 0.931 . S
C702 C696 1.383 . S
C702 C701 1.379 . S
H703 C697 0.959 1_455 S
H704 C697 0.961 1_455 S
H705 C697 0.960 . S
H706 C698 0.930 . S
H707 C699 0.929 . S
H708 C716 0.929 . S
H709 C718 0.930 . S
H710 C720 0.930 . S
H711 C723 0.929 . S
H712 C726 0.930 . S
H713 C728 0.960 . S
H714 C728 0.960 . S
H715 C728 0.960 . S
C716 H708 0.929 . S
C716 C717 1.377 . S
C716 C718 1.384 . S
C717 C716 1.377 . S
C717 C723 1.390 . S
C718 H709 0.930 . S
C718 C716 1.384 . S
C718 C719 1.372 . S
C719 C718 1.372 . S
C719 C720 1.400 . S
C719 C724 1.490 . S
C720 H710 0.930 . S
C720 C719 1.400 . S
C720 C723 1.386 . S
H721 C737 0.930 . S
H722 C738 0.931 . S
C723 H711 0.929 . S
C723 C717 1.390 . S
C723 C720 1.386 . S
C724 C719 1.490 . S
C724 C726 1.395 . S
C724 C727 1.403 . S
H725 C731 0.930 . S
C726 H712 0.930 . S
C726 C724 1.395 . S
C726 C729 1.403 . S
C727 C724 1.403 . S
C727 C728 1.524 . S
C727 C731 1.400 . S
C728 H713 0.960 . S
C728 H714 0.960 . S
C728 H715 0.960 . S
C728 C727 1.524 . S
C729 C726 1.403 . S
C729 C730 1.392 . S
C729 C733 1.495 . S
C730 C729 1.392 . S
C730 C731 1.385 . S
C730 C732 1.478 . S
C731 H725 0.930 . S
C731 C727 1.400 . S
C731 C730 1.385 . S
C732 C730 1.478 . S
C732 C734 1.381 . S
C732 C738 1.383 . S
C733 C729 1.495 . S
C733 H739 0.959 . S
C733 H740 0.961 . S
C733 H741 0.960 . S
C734 C732 1.381 . S
C734 C735 1.394 . S
C734 H742 0.930 . S
C735 C734 1.394 . S
C735 C736 1.383 . S
C735 H743 0.929 . S
C736 C735 1.383 . S
C736 C737 1.377 . S
C737 H721 0.930 . S
C737 C736 1.377 . S
C737 C738 1.379 . S
C738 H722 0.931 . S
C738 C732 1.383 . S
C738 C737 1.379 . S
H739 C733 0.959 . S
H740 C733 0.961 . S
H741 C733 0.960 . S
H742 C734 0.930 . S
H743 C735 0.929 . S
H744 C752 0.929 . S
H745 C754 0.930 . S
H746 C756 0.930 . S
H747 C759 0.929 . S
H748 C762 0.930 . S
H749 C764 0.960 . S
H750 C764 0.960 . S
H751 C764 0.960 . S
C752 H744 0.929 . S
C752 C753 1.377 . S
C752 C754 1.384 . S
C753 C752 1.377 . S
C753 C759 1.390 . S
C754 H745 0.930 . S
C754 C752 1.384 . S
C754 C755 1.372 . S
C755 C754 1.372 . S
C755 C756 1.400 . S
C755 C760 1.490 . S
C756 H746 0.930 . S
C756 C755 1.400 . S
C756 C759 1.386 . S
H757 C773 0.930 . S
H758 C774 0.931 1_545 S
C759 H747 0.929 . S
C759 C753 1.390 . S
C759 C756 1.386 . S
C760 C755 1.490 . S
C760 C762 1.395 . S
C760 C763 1.403 . S
H761 C767 0.930 . S
C762 H748 0.930 . S
C762 C760 1.395 . S
C762 C765 1.403 . S
C763 C760 1.403 . S
C763 C764 1.524 . S
C763 C767 1.400 . S
C764 H749 0.960 . S
C764 H750 0.960 . S
C764 H751 0.960 . S
C764 C763 1.524 . S
C765 C762 1.403 . S
C765 C766 1.392 . S
C765 C769 1.495 . S
C766 C765 1.392 . S
C766 C767 1.385 . S
C766 C768 1.478 . S
C767 H761 0.930 . S
C767 C763 1.400 . S
C767 C766 1.385 . S
C768 C766 1.478 . S
C768 C770 1.381 . S
C768 C774 1.383 . S
C769 C765 1.495 . S
C769 H775 0.959 . S
C769 H776 0.961 . S
C769 H777 0.960 . S
C770 C768 1.381 . S
C770 C771 1.394 . S
C770 H778 0.930 . S
C771 C770 1.394 . S
C771 C772 1.383 . S
C771 H779 0.929 . S
C772 C771 1.383 . S
C772 C773 1.377 1_565 S
C773 H757 0.930 . S
C773 C772 1.377 1_545 S
C773 C774 1.379 1_545 S
C774 H758 0.931 1_565 S
C774 C768 1.383 . S
C774 C773 1.379 1_565 S
H775 C769 0.959 . S
H776 C769 0.961 . S
H777 C769 0.960 . S
H778 C770 0.930 . S
H779 C771 0.929 . S
H780 C788 0.929 . S
H781 C790 0.930 . S
H782 C792 0.930 . S
H783 C795 0.929 . S
H784 C798 0.930 . S
H785 C800 0.960 . S
H786 C800 0.960 . S
H787 C800 0.960 . S
C788 H780 0.929 . S
C788 C789 1.377 . S
C788 C790 1.384 . S
C789 C788 1.377 . S
C789 C795 1.390 . S
C790 H781 0.930 . S
C790 C788 1.384 . S
C790 C791 1.372 . S
C791 C790 1.372 . S
C791 C792 1.400 . S
C791 C796 1.490 . S
C792 H782 0.930 . S
C792 C791 1.400 . S
C792 C795 1.386 . S
H793 C809 0.930 . S
H794 C810 0.931 . S
C795 H783 0.929 . S
C795 C789 1.390 . S
C795 C792 1.386 . S
C796 C791 1.490 . S
C796 C798 1.395 . S
C796 C799 1.403 . S
H797 C803 0.930 . S
C798 H784 0.930 . S
C798 C796 1.395 . S
C798 C801 1.403 . S
C799 C796 1.403 . S
C799 C800 1.524 . S
C799 C803 1.400 . S
C800 H785 0.960 . S
C800 H786 0.960 . S
C800 H787 0.960 . S
C800 C799 1.524 . S
C801 C798 1.403 . S
C801 C802 1.392 . S
C801 C805 1.495 . S
C802 C801 1.392 . S
C802 C803 1.385 . S
C802 C804 1.478 . S
C803 H797 0.930 . S
C803 C799 1.400 . S
C803 C802 1.385 . S
C804 C802 1.478 . S
C804 C806 1.381 . S
C804 C810 1.383 . S
C805 C801 1.495 . S
C805 H811 0.959 . S
C805 H812 0.961 . S
C805 H813 0.960 . S
C806 C804 1.381 . S
C806 C807 1.394 . S
C806 H814 0.930 . S
C807 C806 1.394 . S
C807 C808 1.383 . S
C807 H815 0.929 1_556 S
C808 C807 1.383 . S
C808 C809 1.377 . S
C809 H793 0.930 . S
C809 C808 1.377 . S
C809 C810 1.379 . S
C810 H794 0.931 . S
C810 C804 1.383 . S
C810 C809 1.379 . S
H811 C805 0.959 . S
H812 C805 0.961 . S
H813 C805 0.960 . S
H814 C806 0.930 . S
H815 C807 0.929 1_554 S
H816 C824 0.929 . S
H817 C826 0.930 . S
H818 C828 0.930 . S
H819 C831 0.929 . S
H820 C834 0.930 . S
H821 C836 0.960 . S
H822 C836 0.960 . S
H823 C836 0.960 . S
C824 H816 0.929 . S
C824 C825 1.377 . S
C824 C826 1.384 . S
C825 C824 1.377 . S
C825 C831 1.390 . S
C826 H817 0.930 . S
C826 C824 1.384 . S
C826 C827 1.372 . S
C827 C826 1.372 . S
C827 C828 1.400 . S
C827 C832 1.490 . S
C828 H818 0.930 . S
C828 C827 1.400 . S
C828 C831 1.386 . S
H829 C845 0.930 . S
H830 C846 0.931 . S
C831 H819 0.929 . S
C831 C825 1.390 . S
C831 C828 1.386 . S
C832 C827 1.490 . S
C832 C834 1.395 . S
C832 C835 1.403 . S
H833 C839 0.930 . S
C834 H820 0.930 . S
C834 C832 1.395 . S
C834 C837 1.403 . S
C835 C832 1.403 . S
C835 C836 1.524 . S
C835 C839 1.400 . S
C836 H821 0.960 . S
C836 H822 0.960 . S
C836 H823 0.960 . S
C836 C835 1.524 . S
C837 C834 1.403 . S
C837 C838 1.392 . S
C837 C841 1.495 . S
C838 C837 1.392 . S
C838 C839 1.385 . S
C838 C840 1.478 . S
C839 H833 0.930 . S
C839 C835 1.400 . S
C839 C838 1.385 . S
C840 C838 1.478 . S
C840 C842 1.381 . S
C840 C846 1.383 . S
C841 C837 1.495 . S
C841 H847 0.959 . S
C841 H848 0.961 . S
C841 H849 0.960 . S
C842 C840 1.381 . S
C842 C843 1.394 . S
C842 H850 0.930 . S
C843 C842 1.394 . S
C843 C844 1.383 . S
C843 H851 0.929 . S
C844 C843 1.383 . S
C844 C845 1.377 . S
C845 H829 0.930 . S
C845 C844 1.377 . S
C845 C846 1.379 . S
C846 H830 0.931 . S
C846 C840 1.383 . S
C846 C845 1.379 . S
H847 C841 0.959 . S
H848 C841 0.961 . S
H849 C841 0.960 . S
H850 C842 0.930 . S
H851 C843 0.929 . S
H852 C860 0.929 . S
H853 C862 0.930 . S
H854 C864 0.930 . S
H855 C867 0.929 . S
H856 C870 0.930 . S
H857 C872 0.960 . S
H858 C872 0.960 . S
H859 C872 0.960 . S
C860 H852 0.929 . S
C860 C861 1.377 . S
C860 C862 1.384 . S
C861 C860 1.377 . S
C861 C867 1.390 . S
C862 H853 0.930 . S
C862 C860 1.384 . S
C862 C863 1.372 . S
C863 C862 1.372 . S
C863 C864 1.400 . S
C863 C868 1.490 . S
C864 H854 0.930 . S
C864 C863 1.400 . S
C864 C867 1.386 . S
H865 C881 0.930 . S
H866 C882 0.931 . S
C867 H855 0.929 . S
C867 C861 1.390 . S
C867 C864 1.386 . S
C868 C863 1.490 . S
C868 C870 1.395 . S
C868 C871 1.403 . S
H869 C875 0.930 . S
C870 H856 0.930 . S
C870 C868 1.395 . S
C870 C873 1.403 . S
C871 C868 1.403 . S
C871 C872 1.524 . S
C871 C875 1.400 . S
C872 H857 0.960 . S
C872 H858 0.960 . S
C872 H859 0.960 . S
C872 C871 1.524 . S
C873 C870 1.403 . S
C873 C874 1.392 . S
C873 C877 1.495 . S
C874 C873 1.392 . S
C874 C875 1.385 . S
C874 C876 1.478 . S
C875 H869 0.930 . S
C875 C871 1.400 . S
C875 C874 1.385 . S
C876 C874 1.478 . S
C876 C878 1.381 . S
C876 C882 1.383 . S
C877 C873 1.495 . S
C877 H883 0.959 . S
C877 H884 0.961 . S
C877 H885 0.960 . S
C878 C876 1.381 . S
C878 C879 1.394 . S
C878 H886 0.930 . S
C879 C878 1.394 . S
C879 C880 1.383 . S
C879 H887 0.929 . S
C880 C879 1.383 . S
C880 C881 1.377 . S
C881 H865 0.930 . S
C881 C880 1.377 . S
C881 C882 1.379 . S
C882 H866 0.931 . S
C882 C876 1.383 . S
C882 C881 1.379 . S
H883 C877 0.959 . S
H884 C877 0.961 . S
H885 C877 0.960 . S
H886 C878 0.930 . S
H887 C879 0.929 . S
H888 C896 0.929 . S
H889 C898 0.930 . S
H890 C900 0.930 . S
H891 C903 0.929 . S
H892 C906 0.930 . S
H893 C908 0.960 . S
H894 C908 0.960 . S
H895 C908 0.960 . S
C896 H888 0.929 . S
C896 C897 1.377 . S
C896 C898 1.384 . S
C897 C896 1.377 . S
C897 C903 1.390 . S
C898 H889 0.930 . S
C898 C896 1.384 . S
C898 C899 1.372 . S
C899 C898 1.372 . S
C899 C900 1.400 . S
C899 C904 1.490 . S
C900 H890 0.930 . S
C900 C899 1.400 . S
C900 C903 1.386 . S
H901 C917 0.930 . S
H902 C918 0.931 . S
C903 H891 0.929 . S
C903 C897 1.390 . S
C903 C900 1.386 . S
C904 C899 1.490 . S
C904 C906 1.395 . S
C904 C907 1.403 . S
H905 C911 0.930 . S
C906 H892 0.930 . S
C906 C904 1.395 . S
C906 C909 1.403 . S
C907 C904 1.403 . S
C907 C908 1.524 . S
C907 C911 1.400 . S
C908 H893 0.960 . S
C908 H894 0.960 . S
C908 H895 0.960 . S
C908 C907 1.524 . S
C909 C906 1.403 . S
C909 C910 1.392 . S
C909 C913 1.495 . S
C910 C909 1.392 . S
C910 C911 1.385 . S
C910 C912 1.478 . S
C911 H905 0.930 . S
C911 C907 1.400 . S
C911 C910 1.385 . S
C912 C910 1.478 . S
C912 C914 1.381 . S
C912 C918 1.383 . S
C913 C909 1.495 . S
C913 H919 0.959 . S
C913 H920 0.961 . S
C913 H921 0.960 . S
C914 C912 1.381 . S
C914 C915 1.394 1_556 S
C914 H922 0.930 1_556 S
C915 C914 1.394 1_554 S
C915 C916 1.383 1_554 S
C915 H923 0.929 . S
C916 C915 1.383 1_556 S
C916 C917 1.377 . S
C917 H901 0.930 . S
C917 C916 1.377 . S
C917 C918 1.379 . S
C918 H902 0.931 . S
C918 C912 1.383 . S
C918 C917 1.379 . S
H919 C913 0.959 . S
H920 C913 0.961 . S
H921 C913 0.960 . S
H922 C914 0.930 1_554 S
H923 C915 0.929 . S
H924 C932 0.929 . S
H925 C934 0.930 . S
H926 C936 0.930 . S
H927 C939 0.929 . S
H928 C942 0.930 . S
H929 C944 0.960 . S
H930 C944 0.960 . S
H931 C944 0.960 . S
C932 H924 0.929 . S
C932 C933 1.377 . S
C932 C934 1.384 . S
C933 C932 1.377 . S
C933 C939 1.390 . S
C934 H925 0.930 . S
C934 C932 1.384 . S
C934 C935 1.372 . S
C935 C934 1.372 . S
C935 C936 1.400 . S
C935 C940 1.490 . S
C936 H926 0.930 . S
C936 C935 1.400 . S
C936 C939 1.386 . S
H937 C953 0.930 . S
H938 C954 0.931 . S
C939 H927 0.929 . S
C939 C933 1.390 . S
C939 C936 1.386 . S
C940 C935 1.490 . S
C940 C942 1.395 . S
C940 C943 1.403 . S
H941 C947 0.930 . S
C942 H928 0.930 . S
C942 C940 1.395 . S
C942 C945 1.403 . S
C943 C940 1.403 . S
C943 C944 1.524 . S
C943 C947 1.400 . S
C944 H929 0.960 . S
C944 H930 0.960 . S
C944 H931 0.960 . S
C944 C943 1.524 . S
C945 C942 1.403 . S
C945 C946 1.392 . S
C945 C949 1.495 . S
C946 C945 1.392 . S
C946 C947 1.385 . S
C946 C948 1.478 . S
C947 H941 0.930 . S
C947 C943 1.400 . S
C947 C946 1.385 . S
C948 C946 1.478 . S
C948 C950 1.381 . S
C948 C954 1.383 . S
C949 C945 1.495 . S
C949 H955 0.959 . S
C949 H956 0.961 . S
C949 H957 0.950 1_655 S
C950 C948 1.381 . S
C950 C951 1.394 . S
C950 H958 0.930 . S
C951 C950 1.394 . S
C951 C952 1.383 . S
C951 H959 0.921 1_655 S
C952 C951 1.383 . S
C952 C953 1.377 . S
C953 H937 0.930 . S
C953 C952 1.377 . S
C953 C954 1.379 . S
C954 H938 0.931 . S
C954 C948 1.383 . S
C954 C953 1.379 . S
H955 C949 0.959 . S
H956 C949 0.961 . S
H957 C949 0.950 1_455 S
H958 C950 0.930 . S
H959 C951 0.921 1_455 S
H960 C968 0.929 . S
H961 C970 0.930 . S
H962 C972 0.930 . S
H963 C975 0.929 . S
H964 C978 0.930 . S
H965 C980 0.960 . S
H966 C980 0.960 . S
H967 C980 0.960 . S
C968 H960 0.929 . S
C968 C969 1.377 . S
C968 C970 1.384 . S
C969 C968 1.377 . S
C969 C975 1.390 . S
C970 H961 0.930 . S
C970 C968 1.384 . S
C970 C971 1.372 . S
C971 C970 1.372 . S
C971 C972 1.400 . S
C971 C976 1.490 . S
C972 H962 0.930 . S
C972 C971 1.400 . S
C972 C975 1.386 . S
H973 C989 0.930 . S
H974 C990 0.931 . S
C975 H963 0.929 . S
C975 C969 1.390 . S
C975 C972 1.386 . S
C976 C971 1.490 . S
C976 C978 1.395 . S
C976 C979 1.403 . S
H977 C983 0.930 . S
C978 H964 0.930 . S
C978 C976 1.395 . S
C978 C981 1.403 . S
C979 C976 1.403 . S
C979 C980 1.524 . S
C979 C983 1.400 . S
C980 H965 0.960 . S
C980 H966 0.960 . S
C980 H967 0.960 . S
C980 C979 1.524 . S
C981 C978 1.403 . S
C981 C982 1.392 . S
C981 C985 1.495 . S
C982 C981 1.392 . S
C982 C983 1.385 . S
C982 C984 1.478 . S
C983 H977 0.930 . S
C983 C979 1.400 . S
C983 C982 1.385 . S
C984 C982 1.478 . S
C984 C986 1.381 . S
C984 C990 1.383 . S
C985 C981 1.495 . S
C985 H991 0.959 . S
C985 H992 0.961 . S
C985 H993 0.960 . S
C986 C984 1.381 . S
C986 C987 1.394 . S
C986 H994 0.930 . S
C987 C986 1.394 . S
C987 C988 1.383 . S
C987 H995 0.929 . S
C988 C987 1.383 . S
C988 C989 1.377 . S
C989 H973 0.930 . S
C989 C988 1.377 . S
C989 C990 1.379 . S
C990 H974 0.931 . S
C990 C984 1.383 . S
C990 C989 1.379 . S
H991 C985 0.959 . S
H992 C985 0.961 . S
H993 C985 0.960 . S
H994 C986 0.930 . S
H995 C987 0.929 . S
H996 C1004 0.929 . S
H997 C1006 0.930 . S
H998 C1008 0.930 1_455 S
H999 C1011 0.934 . S
H1000 C1014 0.930 . S
H1001 C1016 0.960 . S
H1002 C1016 0.960 . S
H1003 C1016 0.960 . S
C1004 H996 0.929 . S
C1004 C1005 1.377 . S
C1004 C1006 1.384 . S
C1005 C1004 1.377 . S
C1005 C1011 1.390 1_565 S
C1006 H997 0.930 . S
C1006 C1004 1.384 . S
C1006 C1007 1.372 . S
C1007 C1006 1.372 . S
C1007 C1008 1.400 1_565 S
C1007 C1012 1.490 . S
C1008 H998 0.930 1_655 S
C1008 C1007 1.400 1_545 S
C1008 C1011 1.386 . S
H1009 C1025 0.930 . S
H1010 C1026 0.931 1_455 S
C1011 H999 0.934 . S
C1011 C1005 1.390 1_545 S
C1011 C1008 1.386 . S
C1012 C1007 1.490 . S
C1012 C1014 1.395 1_565 S
C1012 C1015 1.403 1_655 S
H1013 C1019 0.930 . S
C1014 H1000 0.930 . S
C1014 C1012 1.395 1_545 S
C1014 C1017 1.403 . S
C1015 C1012 1.403 1_455 S
C1015 C1016 1.524 . S
C1015 C1019 1.400 . S
C1016 H1001 0.960 . S
C1016 H1002 0.960 . S
C1016 H1003 0.960 . S
C1016 C1015 1.524 . S
C1017 C1014 1.403 . S
C1017 C1018 1.392 . S
C1017 C1021 1.495 . S
C1018 C1017 1.392 . S
C1018 C1019 1.385 1_645 S
C1018 C1020 1.478 . S
C1019 H1013 0.930 . S
C1019 C1015 1.400 . S
C1019 C1018 1.385 1_465 S
C1020 C1018 1.478 . S
C1020 C1022 1.381 1_545 S
C1020 C1026 1.383 . S
C1021 C1017 1.495 . S
C1021 H1027 0.959 . S
C1021 H1028 0.961 . S
C1021 H1029 0.960 . S
C1022 C1020 1.381 1_565 S
C1022 C1023 1.394 . S
C1022 H1030 0.930 . S
C1023 C1022 1.394 . S
C1023 C1024 1.383 1_565 S
C1023 H1031 0.929 . S
C1024 C1023 1.383 1_545 S
C1024 C1025 1.377 1_655 S
C1025 H1009 0.930 . S
C1025 C1024 1.377 1_455 S
C1025 C1026 1.379 1_455 S
C1026 H1010 0.931 1_655 S
C1026 C1020 1.383 . S
C1026 C1025 1.379 1_655 S
H1027 C1021 0.959 . S
H1028 C1021 0.961 . S
H1029 C1021 0.960 . S
H1030 C1022 0.930 . S
H1031 C1023 0.929 . S
H1032 C1040 0.929 . S
H1033 C1042 0.930 . S
H1034 C1044 0.930 . S
H1035 C1047 0.929 . S
H1036 C1050 0.930 . S
H1037 C1052 0.960 1_565 S
H1038 C1052 0.960 . S
H1039 C1052 0.960 1_565 S
C1040 H1032 0.929 . S
C1040 C1041 1.377 . S
C1040 C1042 1.384 . S
C1041 C1040 1.377 . S
C1041 C1047 1.390 . S
C1042 H1033 0.930 . S
C1042 C1040 1.384 . S
C1042 C1043 1.372 . S
C1043 C1042 1.372 . S
C1043 C1044 1.400 . S
C1043 C1048 1.490 . S
C1044 H1034 0.930 . S
C1044 C1043 1.400 . S
C1044 C1047 1.386 . S
H1045 C1061 0.930 1_565 S
H1046 C1062 0.931 . S
C1047 H1035 0.929 . S
C1047 C1041 1.390 . S
C1047 C1044 1.386 . S
C1048 C1043 1.490 . S
C1048 C1050 1.395 . S
C1048 C1051 1.403 . S
H1049 C1055 0.930 . S
C1050 H1036 0.930 . S
C1050 C1048 1.395 . S
C1050 C1053 1.403 . S
C1051 C1048 1.403 . S
C1051 C1052 1.524 . S
C1051 C1055 1.400 . S
C1052 H1037 0.960 1_545 S
C1052 H1038 0.960 . S
C1052 H1039 0.960 1_545 S
C1052 C1051 1.524 . S
C1053 C1050 1.403 . S
C1053 C1054 1.392 . S
C1053 C1057 1.495 . S
C1054 C1053 1.392 . S
C1054 C1055 1.385 . S
C1054 C1056 1.478 . S
C1055 H1049 0.930 . S
C1055 C1051 1.400 . S
C1055 C1054 1.385 . S
C1056 C1054 1.478 . S
C1056 C1058 1.381 . S
C1056 C1062 1.383 . S
C1057 C1053 1.495 . S
C1057 H1063 0.959 . S
C1057 H1064 0.961 . S
C1057 H1065 0.960 . S
C1058 C1056 1.381 . S
C1058 C1059 1.394 . S
C1058 H1066 0.930 . S
C1059 C1058 1.394 . S
C1059 C1060 1.383 . S
C1059 H1067 0.929 . S
C1060 C1059 1.383 . S
C1060 C1061 1.377 . S
C1061 H1045 0.930 1_545 S
C1061 C1060 1.377 . S
C1061 C1062 1.379 . S
C1062 H1046 0.931 . S
C1062 C1056 1.383 . S
C1062 C1061 1.379 . S
H1063 C1057 0.959 . S
H1064 C1057 0.961 . S
H1065 C1057 0.960 . S
H1066 C1058 0.930 . S
H1067 C1059 0.929 . S
H1068 C1076 0.929 . S
H1069 C1078 0.930 . S
H1070 C1080 0.930 . S
H1071 C1083 0.929 . S
H1072 C1086 0.930 . S
H1073 C1088 0.960 . S
H1074 C1088 0.960 . S
H1075 C1088 0.960 . S
C1076 H1068 0.929 . S
C1076 C1077 1.377 . S
C1076 C1078 1.384 . S
C1077 C1076 1.377 . S
C1077 C1083 1.390 . S
C1078 H1069 0.930 . S
C1078 C1076 1.384 . S
C1078 C1079 1.372 . S
C1079 C1078 1.372 . S
C1079 C1080 1.400 . S
C1079 C1084 1.490 . S
C1080 H1070 0.930 . S
C1080 C1079 1.400 . S
C1080 C1083 1.386 . S
H1081 C1097 0.930 . S
H1082 C1098 0.931 . S
C1083 H1071 0.929 . S
C1083 C1077 1.390 . S
C1083 C1080 1.386 . S
C1084 C1079 1.490 . S
C1084 C1086 1.395 . S
C1084 C1087 1.403 . S
H1085 C1091 0.930 . S
C1086 H1072 0.930 . S
C1086 C1084 1.395 . S
C1086 C1089 1.403 . S
C1087 C1084 1.403 . S
C1087 C1088 1.524 . S
C1087 C1091 1.400 . S
C1088 H1073 0.960 . S
C1088 H1074 0.960 . S
C1088 H1075 0.960 . S
C1088 C1087 1.524 . S
C1089 C1086 1.403 . S
C1089 C1090 1.392 . S
C1089 C1093 1.495 . S
C1090 C1089 1.392 . S
C1090 C1091 1.385 . S
C1090 C1092 1.478 . S
C1091 H1085 0.930 . S
C1091 C1087 1.400 . S
C1091 C1090 1.385 . S
C1092 C1090 1.478 . S
C1092 C1094 1.381 . S
C1092 C1098 1.383 . S
C1093 C1089 1.495 . S
C1093 H1099 0.959 . S
C1093 H1100 0.961 . S
C1093 H1101 0.960 . S
C1094 C1092 1.381 . S
C1094 C1095 1.394 . S
C1094 H1102 0.930 . S
C1095 C1094 1.394 . S
C1095 C1096 1.383 . S
C1095 H1103 0.929 . S
C1096 C1095 1.383 . S
C1096 C1097 1.377 . S
C1097 H1081 0.930 . S
C1097 C1096 1.377 . S
C1097 C1098 1.379 . S
C1098 H1082 0.931 . S
C1098 C1092 1.383 . S
C1098 C1097 1.379 . S
H1099 C1093 0.959 . S
H1100 C1093 0.961 . S
H1101 C1093 0.960 . S
H1102 C1094 0.930 . S
H1103 C1095 0.929 . S
H1104 C1112 0.929 . S
H1105 C1114 0.930 . S
H1106 C1116 0.930 . S
H1107 C1119 0.929 . S
H1108 C1122 0.930 . S
H1109 C1124 0.960 . S
H1110 C1124 0.960 . S
H1111 C1124 0.960 . S
C1112 H1104 0.929 . S
C1112 C1113 1.377 . S
C1112 C1114 1.384 . S
C1113 C1112 1.377 . S
C1113 C1119 1.390 . S
C1114 H1105 0.930 . S
C1114 C1112 1.384 . S
C1114 C1115 1.372 . S
C1115 C1114 1.372 . S
C1115 C1116 1.400 . S
C1115 C1120 1.490 . S
C1116 H1106 0.930 . S
C1116 C1115 1.400 . S
C1116 C1119 1.386 . S
H1117 C1133 0.930 . S
H1118 C1134 0.931 . S
C1119 H1107 0.929 . S
C1119 C1113 1.390 . S
C1119 C1116 1.386 . S
C1120 C1115 1.490 . S
C1120 C1122 1.395 . S
C1120 C1123 1.403 . S
H1121 C1127 0.930 . S
C1122 H1108 0.930 . S
C1122 C1120 1.395 . S
C1122 C1125 1.403 . S
C1123 C1120 1.403 . S
C1123 C1124 1.524 . S
C1123 C1127 1.400 . S
C1124 H1109 0.960 . S
C1124 H1110 0.960 . S
C1124 H1111 0.960 . S
C1124 C1123 1.524 . S
C1125 C1122 1.403 . S
C1125 C1126 1.392 . S
C1125 C1129 1.495 . S
C1126 C1125 1.392 . S
C1126 C1127 1.385 . S
C1126 C1128 1.478 . S
C1127 H1121 0.930 . S
C1127 C1123 1.400 . S
C1127 C1126 1.385 . S
C1128 C1126 1.478 . S
C1128 C1130 1.381 . S
C1128 C1134 1.383 . S
C1129 C1125 1.495 . S
C1129 H1135 0.959 . S
C1129 H1136 0.961 . S
C1129 H1137 0.960 . S
C1130 C1128 1.381 . S
C1130 C1131 1.394 . S
C1130 H1138 0.930 . S
C1131 C1130 1.394 . S
C1131 C1132 1.383 . S
C1131 H1139 0.929 . S
C1132 C1131 1.383 . S
C1132 C1133 1.377 . S
C1133 H1117 0.930 . S
C1133 C1132 1.377 . S
C1133 C1134 1.379 . S
C1134 H1118 0.931 . S
C1134 C1128 1.383 . S
C1134 C1133 1.379 . S
H1135 C1129 0.959 . S
H1136 C1129 0.961 . S
H1137 C1129 0.960 . S
H1138 C1130 0.930 . S
H1139 C1131 0.929 . S
H1140 C1148 0.929 . S
H1141 C1150 0.930 . S
H1142 C1152 0.926 1_545 S
H1143 C1155 0.929 1_545 S
H1144 C1158 0.930 . S
H1145 C1160 0.960 . S
H1146 C1160 0.957 . S
H1147 C1160 0.960 . S
C1148 H1140 0.929 . S
C1148 C1149 1.377 . S
C1148 C1150 1.384 . S
C1149 C1148 1.377 . S
C1149 C1155 1.390 . S
C1150 H1141 0.930 . S
C1150 C1148 1.384 . S
C1150 C1151 1.372 . S
C1151 C1150 1.372 . S
C1151 C1152 1.404 . S
C1151 C1156 1.490 . S
C1152 H1142 0.926 1_565 S
C1152 C1151 1.404 . S
C1152 C1155 1.386 . S
H1153 C1169 0.930 . S
H1154 C1170 0.931 . S
C1155 H1143 0.929 1_565 S
C1155 C1149 1.390 . S
C1155 C1152 1.386 . S
C1156 C1151 1.490 . S
C1156 C1158 1.395 1_556 S
C1156 C1159 1.403 . S
H1157 C1163 0.930 1_545 S
C1158 H1144 0.930 . S
C1158 C1156 1.395 1_554 S
C1158 C1161 1.403 . S
C1159 C1156 1.403 . S
C1159 C1160 1.524 1_565 S
C1159 C1163 1.400 . S
C1160 H1145 0.960 . S
C1160 H1146 0.957 . S
C1160 H1147 0.960 . S
C1160 C1159 1.524 1_545 S
C1161 C1158 1.403 . S
C1161 C1162 1.392 . S
C1161 C1165 1.495 . S
C1162 C1161 1.392 . S
C1162 C1163 1.385 1_554 S
C1162 C1164 1.478 . S
C1163 H1157 0.930 1_565 S
C1163 C1159 1.400 . S
C1163 C1162 1.385 1_556 S
C1164 C1162 1.478 . S
C1164 C1166 1.381 . S
C1164 C1170 1.383 1_565 S
C1165 C1161 1.495 . S
C1165 H1171 0.959 . S
C1165 H1172 0.961 . S
C1165 H1173 0.960 . S
C1166 C1164 1.381 . S
C1166 C1167 1.394 . S
C1166 H1174 0.930 . S
C1167 C1166 1.394 . S
C1167 C1168 1.383 . S
C1167 H1175 0.929 . S
C1168 C1167 1.383 . S
C1168 C1169 1.377 1_565 S
C1169 H1153 0.930 . S
C1169 C1168 1.377 1_545 S
C1169 C1170 1.379 . S
C1170 H1154 0.931 . S
C1170 C1164 1.383 1_545 S
C1170 C1169 1.379 . S
H1171 C1165 0.959 . S
H1172 C1165 0.961 . S
H1173 C1165 0.960 . S
H1174 C1166 0.930 . S
H1175 C1167 0.929 . S
H1176 C1184 0.929 . S
H1177 C1186 0.930 . S
H1178 C1188 0.930 . S
H1179 C1191 0.929 . S
H1180 C1194 0.930 . S
H1181 C1196 0.960 . S
H1182 C1196 0.960 . S
H1183 C1196 0.960 . S
C1184 H1176 0.929 . S
C1184 C1185 1.377 . S
C1184 C1186 1.384 . S
C1185 C1184 1.377 . S
C1185 C1191 1.390 . S
C1186 H1177 0.930 . S
C1186 C1184 1.384 . S
C1186 C1187 1.372 . S
C1187 C1186 1.372 . S
C1187 C1188 1.400 . S
C1187 C1192 1.490 . S
C1188 H1178 0.930 . S
C1188 C1187 1.400 . S
C1188 C1191 1.386 . S
H1189 C1205 0.930 . S
H1190 C1206 0.931 . S
C1191 H1179 0.929 . S
C1191 C1185 1.390 . S
C1191 C1188 1.386 . S
C1192 C1187 1.490 . S
C1192 C1194 1.395 . S
C1192 C1195 1.403 . S
H1193 C1199 0.930 . S
C1194 H1180 0.930 . S
C1194 C1192 1.395 . S
C1194 C1197 1.403 . S
C1195 C1192 1.403 . S
C1195 C1196 1.524 . S
C1195 C1199 1.400 . S
C1196 H1181 0.960 . S
C1196 H1182 0.960 . S
C1196 H1183 0.960 . S
C1196 C1195 1.524 . S
C1197 C1194 1.403 . S
C1197 C1198 1.392 . S
C1197 C1201 1.495 . S
C1198 C1197 1.392 . S
C1198 C1199 1.385 . S
C1198 C1200 1.478 . S
C1199 H1193 0.930 . S
C1199 C1195 1.400 . S
C1199 C1198 1.385 . S
C1200 C1198 1.478 . S
C1200 C1202 1.381 . S
C1200 C1206 1.383 . S
C1201 C1197 1.495 . S
C1201 H1207 0.959 . S
C1201 H1208 0.961 . S
C1201 H1209 0.960 . S
C1202 C1200 1.381 . S
C1202 C1203 1.394 . S
C1202 H1210 0.930 . S
C1203 C1202 1.394 . S
C1203 C1204 1.383 . S
C1203 H1211 0.929 . S
C1204 C1203 1.383 . S
C1204 C1205 1.377 . S
C1205 H1189 0.930 . S
C1205 C1204 1.377 . S
C1205 C1206 1.379 . S
C1206 H1190 0.931 . S
C1206 C1200 1.383 . S
C1206 C1205 1.379 . S
H1207 C1201 0.959 . S
H1208 C1201 0.961 . S
H1209 C1201 0.960 . S
H1210 C1202 0.930 . S
H1211 C1203 0.929 . S
H1212 C1220 0.929 . S
H1213 C1222 0.930 . S
H1214 C1224 0.930 . S
H1215 C1227 0.929 . S
H1216 C1230 0.930 . S
H1217 C1232 0.960 . S
H1218 C1232 0.960 . S
H1219 C1232 0.960 . S
C1220 H1212 0.929 . S
C1220 C1221 1.377 . S
C1220 C1222 1.384 . S
C1221 C1220 1.377 . S
C1221 C1227 1.390 . S
C1222 H1213 0.930 . S
C1222 C1220 1.384 . S
C1222 C1223 1.372 . S
C1223 C1222 1.372 . S
C1223 C1224 1.400 . S
C1223 C1228 1.490 . S
C1224 H1214 0.930 . S
C1224 C1223 1.400 . S
C1224 C1227 1.386 . S
H1225 C1241 0.930 . S
H1226 C1242 0.931 . S
C1227 H1215 0.929 . S
C1227 C1221 1.390 . S
C1227 C1224 1.386 . S
C1228 C1223 1.490 . S
C1228 C1230 1.395 . S
C1228 C1231 1.403 . S
H1229 C1235 0.930 . S
C1230 H1216 0.930 . S
C1230 C1228 1.395 . S
C1230 C1233 1.403 . S
C1231 C1228 1.403 . S
C1231 C1232 1.524 . S
C1231 C1235 1.400 . S
C1232 H1217 0.960 . S
C1232 H1218 0.960 . S
C1232 H1219 0.960 . S
C1232 C1231 1.524 . S
C1233 C1230 1.403 . S
C1233 C1234 1.392 . S
C1233 C1237 1.495 . S
C1234 C1233 1.392 . S
C1234 C1235 1.385 . S
C1234 C1236 1.478 . S
C1235 H1229 0.930 . S
C1235 C1231 1.400 . S
C1235 C1234 1.385 . S
C1236 C1234 1.478 . S
C1236 C1238 1.381 . S
C1236 C1242 1.383 . S
C1237 C1233 1.495 . S
C1237 H1243 0.959 . S
C1237 H1244 0.961 . S
C1237 H1245 0.960 . S
C1238 C1236 1.381 . S
C1238 C1239 1.391 1_554 S
C1238 H1246 0.930 1_554 S
C1239 C1238 1.391 1_556 S
C1239 C1240 1.362 1_556 S
C1239 H1247 0.954 . S
C1240 C1239 1.362 1_554 S
C1240 C1241 1.377 . S
C1241 H1225 0.930 . S
C1241 C1240 1.377 . S
C1241 C1242 1.379 . S
C1242 H1226 0.931 . S
C1242 C1236 1.383 . S
C1242 C1241 1.379 . S
H1243 C1237 0.959 . S
H1244 C1237 0.961 . S
H1245 C1237 0.960 . S
H1246 C1238 0.930 1_556 S
H1247 C1239 0.954 . S
H1248 C1256 0.929 . S
H1249 C1258 0.930 . S
H1250 C1260 0.930 . S
H1251 C1263 0.929 . S
H1252 C1266 0.930 . S
H1253 C1268 0.960 . S
H1254 C1268 0.960 . S
H1255 C1268 0.960 . S
C1256 H1248 0.929 . S
C1256 C1257 1.377 . S
C1256 C1258 1.384 . S
C1257 C1256 1.377 . S
C1257 C1263 1.390 . S
C1258 H1249 0.930 . S
C1258 C1256 1.384 . S
C1258 C1259 1.372 . S
C1259 C1258 1.372 . S
C1259 C1260 1.400 . S
C1259 C1264 1.490 . S
C1260 H1250 0.930 . S
C1260 C1259 1.400 . S
C1260 C1263 1.386 . S
H1261 C1277 0.930 . S
H1262 C1278 0.931 . S
C1263 H1251 0.929 . S
C1263 C1257 1.390 . S
C1263 C1260 1.386 . S
C1264 C1259 1.490 . S
C1264 C1266 1.395 . S
C1264 C1267 1.403 . S
H1265 C1271 0.930 . S
C1266 H1252 0.930 . S
C1266 C1264 1.395 . S
C1266 C1269 1.403 . S
C1267 C1264 1.403 . S
C1267 C1268 1.524 . S
C1267 C1271 1.400 . S
C1268 H1253 0.960 . S
C1268 H1254 0.960 . S
C1268 H1255 0.960 . S
C1268 C1267 1.524 . S
C1269 C1266 1.403 . S
C1269 C1270 1.392 . S
C1269 C1273 1.495 . S
C1270 C1269 1.392 . S
C1270 C1271 1.385 . S
C1270 C1272 1.478 . S
C1271 H1265 0.930 . S
C1271 C1267 1.400 . S
C1271 C1270 1.385 . S
C1272 C1270 1.478 . S
C1272 C1274 1.381 . S
C1272 C1278 1.383 . S
C1273 C1269 1.495 . S
C1273 H1279 0.959 . S
C1273 H1280 0.961 . S
C1273 H1281 0.960 . S
C1274 C1272 1.381 . S
C1274 C1275 1.394 . S
C1274 H1282 0.930 . S
C1275 C1274 1.394 . S
C1275 C1276 1.383 . S
C1275 H1283 0.929 . S
C1276 C1275 1.383 . S
C1276 C1277 1.377 . S
C1277 H1261 0.930 . S
C1277 C1276 1.377 . S
C1277 C1278 1.379 . S
C1278 H1262 0.931 . S
C1278 C1272 1.383 . S
C1278 C1277 1.379 . S
H1279 C1273 0.959 . S
H1280 C1273 0.961 . S
H1281 C1273 0.960 . S
H1282 C1274 0.930 . S
H1283 C1275 0.929 . S
H1284 C1292 0.929 . S
H1285 C1294 0.930 . S
H1286 C1296 0.930 . S
H1287 C1299 0.929 . S
H1288 C1302 0.930 . S
H1289 C1304 0.960 . S
H1290 C1304 0.974 . S
H1291 C1304 0.960 . S
C1292 H1284 0.929 . S
C1292 C1293 1.377 1_455 S
C1292 C1294 1.384 . S
C1293 C1292 1.377 1_655 S
C1293 C1299 1.390 . S
C1294 H1285 0.930 . S
C1294 C1292 1.384 . S
C1294 C1295 1.372 1_455 S
C1295 C1294 1.372 1_655 S
C1295 C1296 1.400 . S
C1295 C1300 1.490 . S
C1296 H1286 0.930 . S
C1296 C1295 1.400 . S
C1296 C1299 1.386 . S
H1297 C1313 0.930 . S
H1298 C1314 0.931 . S
C1299 H1287 0.929 . S
C1299 C1293 1.390 . S
C1299 C1296 1.386 . S
C1300 C1295 1.490 . S
C1300 C1302 1.395 1_656 S
C1300 C1303 1.403 . S
H1301 C1307 0.930 . S
C1302 H1288 0.930 . S
C1302 C1300 1.395 1_454 S
C1302 C1305 1.403 . S
C1303 C1300 1.403 . S
C1303 C1304 1.524 . S
C1303 C1307 1.400 . S
C1304 H1289 0.960 . S
C1304 H1290 0.974 . S
C1304 H1291 0.960 . S
C1304 C1303 1.524 . S
C1305 C1302 1.403 . S
C1305 C1306 1.392 1_554 S
C1305 C1309 1.495 . S
C1306 C1305 1.392 1_556 S
C1306 C1307 1.385 1_455 S
C1306 C1308 1.478 . S
C1307 H1301 0.930 . S
C1307 C1303 1.400 . S
C1307 C1306 1.385 1_655 S
C1308 C1306 1.478 . S
C1308 C1310 1.381 . S
C1308 C1314 1.383 1_455 S
C1309 C1305 1.495 . S
C1309 H1315 0.959 . S
C1309 H1316 0.961 . S
C1309 H1317 0.960 . S
C1310 C1308 1.381 . S
C1310 C1311 1.394 . S
C1310 H1318 0.930 . S
C1311 C1310 1.394 . S
C1311 C1312 1.383 . S
C1311 H1319 0.929 . S
C1312 C1311 1.383 . S
C1312 C1313 1.377 1_455 S
C1313 H1297 0.930 . S
C1313 C1312 1.377 1_655 S
C1313 C1314 1.379 . S
C1314 H1298 0.931 . S
C1314 C1308 1.383 1_655 S
C1314 C1313 1.379 . S
H1315 C1309 0.959 . S
H1316 C1309 0.961 . S
H1317 C1309 0.960 . S
H1318 C1310 0.930 . S
H1319 C1311 0.929 . S
H1320 C1328 0.929 . S
H1321 C1330 0.930 . S
H1322 C1332 0.930 . S
H1323 C1335 0.929 . S
H1324 C1338 0.930 . S
H1325 C1340 0.960 . S
H1326 C1340 0.960 . S
H1327 C1340 0.960 . S
C1328 H1320 0.929 . S
C1328 C1329 1.377 . S
C1328 C1330 1.384 . S
C1329 C1328 1.377 . S
C1329 C1335 1.390 . S
C1330 H1321 0.930 . S
C1330 C1328 1.384 . S
C1330 C1331 1.372 . S
C1331 C1330 1.372 . S
C1331 C1332 1.400 . S
C1331 C1336 1.490 . S
C1332 H1322 0.930 . S
C1332 C1331 1.400 . S
C1332 C1335 1.386 . S
H1333 C1349 0.930 . S
H1334 C1350 0.931 . S
C1335 H1323 0.929 . S
C1335 C1329 1.390 . S
C1335 C1332 1.386 . S
C1336 C1331 1.490 . S
C1336 C1338 1.395 . S
C1336 C1339 1.403 . S
H1337 C1343 0.930 . S
C1338 H1324 0.930 . S
C1338 C1336 1.395 . S
C1338 C1341 1.403 . S
C1339 C1336 1.403 . S
C1339 C1340 1.524 . S
C1339 C1343 1.400 . S
C1340 H1325 0.960 . S
C1340 H1326 0.960 . S
C1340 H1327 0.960 . S
C1340 C1339 1.524 . S
C1341 C1338 1.403 . S
C1341 C1342 1.392 . S
C1341 C1345 1.495 1_554 S
C1342 C1341 1.392 . S
C1342 C1343 1.385 . S
C1342 C1344 1.478 . S
C1343 H1337 0.930 . S
C1343 C1339 1.400 . S
C1343 C1342 1.385 . S
C1344 C1342 1.478 . S
C1344 C1346 1.381 . S
C1344 C1350 1.383 . S
C1345 C1341 1.495 1_556 S
C1345 H1351 0.959 . S
C1345 H1352 0.961 . S
C1345 H1353 0.960 . S
C1346 C1344 1.381 . S
C1346 C1347 1.394 . S
C1346 H1354 0.930 . S
C1347 C1346 1.394 . S
C1347 C1348 1.383 . S
C1347 H1355 0.929 . S
C1348 C1347 1.383 . S
C1348 C1349 1.377 . S
C1349 H1333 0.930 . S
C1349 C1348 1.377 . S
C1349 C1350 1.379 . S
C1350 H1334 0.931 . S
C1350 C1344 1.383 . S
C1350 C1349 1.379 . S
H1351 C1345 0.959 . S
H1352 C1345 0.961 . S
H1353 C1345 0.960 . S
H1354 C1346 0.930 . S
H1355 C1347 0.929 . S
H1356 C1364 0.929 . S
H1357 C1366 0.930 . S
H1358 C1368 0.930 . S
H1359 C1371 0.929 . S
H1360 C1374 0.930 . S
H1361 C1376 0.960 . S
H1362 C1376 0.960 . S
H1363 C1376 0.960 . S
C1364 H1356 0.929 . S
C1364 C1365 1.377 . S
C1364 C1366 1.384 . S
C1365 C1364 1.377 . S
C1365 C1371 1.390 . S
C1366 H1357 0.930 . S
C1366 C1364 1.384 . S
C1366 C1367 1.372 . S
C1367 C1366 1.372 . S
C1367 C1368 1.400 . S
C1367 C1372 1.490 . S
C1368 H1358 0.930 . S
C1368 C1367 1.400 . S
C1368 C1371 1.386 . S
H1369 C1385 0.930 . S
H1370 C1386 0.931 . S
C1371 H1359 0.929 . S
C1371 C1365 1.390 . S
C1371 C1368 1.386 . S
C1372 C1367 1.490 . S
C1372 C1374 1.395 . S
C1372 C1375 1.403 . S
H1373 C1379 0.930 . S
C1374 H1360 0.930 . S
C1374 C1372 1.395 . S
C1374 C1377 1.403 . S
C1375 C1372 1.403 . S
C1375 C1376 1.524 1_455 S
C1375 C1379 1.400 . S
C1376 H1361 0.960 . S
C1376 H1362 0.960 . S
C1376 H1363 0.960 . S
C1376 C1375 1.524 1_655 S
C1377 C1374 1.403 . S
C1377 C1378 1.392 . S
C1377 C1381 1.495 . S
C1378 C1377 1.392 . S
C1378 C1379 1.385 . S
C1378 C1380 1.478 . S
C1379 H1373 0.930 . S
C1379 C1375 1.400 . S
C1379 C1378 1.385 . S
C1380 C1378 1.478 . S
C1380 C1382 1.381 . S
C1380 C1386 1.383 . S
C1381 C1377 1.495 . S
C1381 H1387 0.959 . S
C1381 H1388 0.961 . S
C1381 H1389 0.960 . S
C1382 C1380 1.381 . S
C1382 C1383 1.394 . S
C1382 H1390 0.930 . S
C1383 C1382 1.394 . S
C1383 C1384 1.383 . S
C1383 H1391 0.929 . S
C1384 C1383 1.383 . S
C1384 C1385 1.377 . S
C1385 H1369 0.930 . S
C1385 C1384 1.377 . S
C1385 C1386 1.379 . S
C1386 H1370 0.931 . S
C1386 C1380 1.383 . S
C1386 C1385 1.379 . S
H1387 C1381 0.959 . S
H1388 C1381 0.961 . S
H1389 C1381 0.960 . S
H1390 C1382 0.930 . S
H1391 C1383 0.929 . S
H1392 C1400 0.929 . S
H1393 C1402 0.930 . S
H1394 C1404 0.930 . S
H1395 C1407 0.929 . S
H1396 C1410 0.930 . S
H1397 C1412 0.960 . S
H1398 C1412 0.960 . S
H1399 C1412 0.960 . S
C1400 H1392 0.929 . S
C1400 C1401 1.377 . S
C1400 C1402 1.384 . S
C1401 C1400 1.377 . S
C1401 C1407 1.390 . S
C1402 H1393 0.930 . S
C1402 C1400 1.384 . S
C1402 C1403 1.372 . S
C1403 C1402 1.372 . S
C1403 C1404 1.400 . S
C1403 C1408 1.490 . S
C1404 H1394 0.930 . S
C1404 C1403 1.400 . S
C1404 C1407 1.386 . S
H1405 C1421 0.930 . S
H1406 C1422 0.931 . S
C1407 H1395 0.929 . S
C1407 C1401 1.390 . S
C1407 C1404 1.386 . S
C1408 C1403 1.490 . S
C1408 C1410 1.395 . S
C1408 C1411 1.403 . S
H1409 C1415 0.930 . S
C1410 H1396 0.930 . S
C1410 C1408 1.395 . S
C1410 C1413 1.403 . S
C1411 C1408 1.403 . S
C1411 C1412 1.524 . S
C1411 C1415 1.400 . S
C1412 H1397 0.960 . S
C1412 H1398 0.960 . S
C1412 H1399 0.960 . S
C1412 C1411 1.524 . S
C1413 C1410 1.403 . S
C1413 C1414 1.392 . S
C1413 C1417 1.495 . S
C1414 C1413 1.392 . S
C1414 C1415 1.385 . S
C1414 C1416 1.478 . S
C1415 H1409 0.930 . S
C1415 C1411 1.400 . S
C1415 C1414 1.385 . S
C1416 C1414 1.478 . S
C1416 C1418 1.381 . S
C1416 C1422 1.383 . S
C1417 C1413 1.495 . S
C1417 H1423 0.959 . S
C1417 H1424 0.961 . S
C1417 H1425 0.960 . S
C1418 C1416 1.381 . S
C1418 C1419 1.394 . S
C1418 H1426 0.930 . S
C1419 C1418 1.394 . S
C1419 C1420 1.383 . S
C1419 H1427 0.929 . S
C1420 C1419 1.383 . S
C1420 C1421 1.377 . S
C1421 H1405 0.930 . S
C1421 C1420 1.377 . S
C1421 C1422 1.379 . S
C1422 H1406 0.931 . S
C1422 C1416 1.383 . S
C1422 C1421 1.379 . S
H1423 C1417 0.959 . S
H1424 C1417 0.961 . S
H1425 C1417 0.960 . S
H1426 C1418 0.930 . S
H1427 C1419 0.929 . S
C573 C1 1.514 . S
C592 C483 1.415 . S
C609 C80 1.494 . S
C628 C517 1.435 . S
C664 C529 1.429 . S
C645 C140 1.479 . S
C681 C211 1.496 . S
C700 C563 1.442 . S
C736 C520 1.416 . S
C717 C31 1.509 . S
C772 C500 1.426 1_565 S
C753 C61 1.493 . S
C808 C547 1.390 . S
C789 C151 1.470 . S
C844 C538 1.405 . S
C825 C200 1.502 . S
C861 C20 1.509 . S
C880 C546 1.389 . S
C916 C508 1.369 . S
C897 C121 1.488 . S
C933 C181 1.491 . S
C952 C484 1.359 . S
C969 C91 1.495 . S
C988 C541 1.383 . S
C1024 C499 1.572 . S
C1005 C260 1.708 . S
C1041 C320 1.635 . S
C1060 C521 1.605 . S
C1077 C361 1.730 . S
C1096 C526 1.584 . S
C1113 C451 1.666 . S
C1132 C559 1.648 . S
C1149 C271 1.717 . S
C1168 C504 1.582 . S
C1204 C496 1.621 . S
C1185 C301 1.662 . S
C1240 C550 1.636 . S
C1221 C380 1.733 . S
C1276 C542 1.604 . S
C1257 C440 1.642 . S
C1293 C241 1.687 . S
C1312 C562 1.599 . S
C1348 C505 1.639 . S
C1329 C391 1.732 . S
C1384 C487 1.621 . S
C1365 C421 1.645 . S
C1401 C331 1.647 . S
C1420 C525 1.635 . S
