# Generated by pormake.
# Topology zzz, (3,6)-cn, num edge types: 1
# Building blocks:
#     Node 0, Type 0, BuildingBlock: BETDAH_clean_linker_0, # of connection points: 3
#     Node 1, Type 0, BuildingBlock: BETDAH_clean_linker_0, # of connection points: 3
#     Node 2, Type 0, BuildingBlock: BETDAH_clean_linker_0, # of connection points: 3
#     Node 3, Type 0, BuildingBlock: BETDAH_clean_linker_0, # of connection points: 3
#     Node 4, Type 0, BuildingBlock: BETDAH_clean_linker_0, # of connection points: 3
#     Node 5, Type 0, BuildingBlock: BETDAH_clean_linker_0, # of connection points: 3
#     Node 6, Type 0, BuildingBlock: BETDAH_clean_linker_0, # of connection points: 3
#     Node 7, Type 0, BuildingBlock: BETDAH_clean_linker_0, # of connection points: 3
#     Node 8, Type 1, BuildingBlock: MIFKUJ_clean_sbu_0, # of connection points: 6
#     Node 9, Type 1, BuildingBlock: MIFKUJ_clean_sbu_0, # of connection points: 6
#     Node 10, Type 1, BuildingBlock: MIFKUJ_clean_sbu_0, # of connection points: 6
#     Node 11, Type 1, BuildingBlock: MIFKUJ_clean_sbu_0, # of connection points: 6
#     Edge 12, Type (0, 1), BuildingBlock: AJUNOK_clean_linker_0, # of connection points: 2
#     Edge 13, Type (0, 1), BuildingBlock: AJUNOK_clean_linker_0, # of connection points: 2
#     Edge 14, Type (0, 1), BuildingBlock: AJUNOK_clean_linker_0, # of connection points: 2
#     Edge 15, Type (0, 1), BuildingBlock: AJUNOK_clean_linker_0, # of connection points: 2
#     Edge 16, Type (0, 1), BuildingBlock: AJUNOK_clean_linker_0, # of connection points: 2
#     Edge 17, Type (0, 1), BuildingBlock: AJUNOK_clean_linker_0, # of connection points: 2
#     Edge 18, Type (0, 1), BuildingBlock: AJUNOK_clean_linker_0, # of connection points: 2
#     Edge 19, Type (0, 1), BuildingBlock: AJUNOK_clean_linker_0, # of connection points: 2
#     Edge 20, Type (0, 1), BuildingBlock: AJUNOK_clean_linker_0, # of connection points: 2
#     Edge 21, Type (0, 1), BuildingBlock: AJUNOK_clean_linker_0, # of connection points: 2
#     Edge 22, Type (0, 1), BuildingBlock: AJUNOK_clean_linker_0, # of connection points: 2
#     Edge 23, Type (0, 1), BuildingBlock: AJUNOK_clean_linker_0, # of connection points: 2
#     Edge 24, Type (0, 1), BuildingBlock: AJUNOK_clean_linker_0, # of connection points: 2
#     Edge 25, Type (0, 1), BuildingBlock: AJUNOK_clean_linker_0, # of connection points: 2
#     Edge 26, Type (0, 1), BuildingBlock: AJUNOK_clean_linker_0, # of connection points: 2
#     Edge 27, Type (0, 1), BuildingBlock: AJUNOK_clean_linker_0, # of connection points: 2
#     Edge 28, Type (0, 1), BuildingBlock: AJUNOK_clean_linker_0, # of connection points: 2
#     Edge 29, Type (0, 1), BuildingBlock: AJUNOK_clean_linker_0, # of connection points: 2
#     Edge 30, Type (0, 1), BuildingBlock: AJUNOK_clean_linker_0, # of connection points: 2
#     Edge 31, Type (0, 1), BuildingBlock: AJUNOK_clean_linker_0, # of connection points: 2
#     Edge 32, Type (0, 1), BuildingBlock: AJUNOK_clean_linker_0, # of connection points: 2
#     Edge 33, Type (0, 1), BuildingBlock: AJUNOK_clean_linker_0, # of connection points: 2
#     Edge 34, Type (0, 1), BuildingBlock: AJUNOK_clean_linker_0, # of connection points: 2
#     Edge 35, Type (0, 1), BuildingBlock: AJUNOK_clean_linker_0, # of connection points: 2
# Relax obj value: 0.124
# Max RMSD: 0.124
# Mean RMSD: 0.085
data_MOF--net-zzz--node1-MIFKUJ_clean_sbu_0--node2-BETDAH_clean_linker_0--edge1-AJUNOK_clean_linker_0
_symmetry_space_group_name_H-M    P1
_symmetry_Int_Tables_number       1
_symmetry_cell_setting            triclinic
loop_
_symmetry_equiv_pos_as_xyz
'x, y, z'
_cell_length_a     35.931271
_cell_length_b     36.273019
_cell_length_c     12.92613
_cell_angle_alpha  89.747773
_cell_angle_beta   89.897195
_cell_angle_gamma 89.563222
loop_
_atom_site_label
_atom_site_type_symbol
_atom_site_fract_x
_atom_site_fract_y
_atom_site_fract_z
_atom_type_partial_charge
H0 H 0.85108 0.5355 0.06878 0.0
H1 H 0.74339 0.53879 0.92936 0.0
H2 H 0.75449 0.55089 0.26079 0.0
C3 C 0.82114 0.53881 0.07694 0.0
C4 C 0.80578 0.54482 0.17443 0.0
C5 C 0.79866 0.53585 -0.01011 0.0
C6 C 0.76016 0.54009 -0.00144 0.0
C7 C 0.74376 0.54542 0.09667 0.0
C8 C 0.76682 0.54741 0.18487 0.0
N9 N 0.70446 0.54822 0.10872 0.0
C10 C 0.67954 0.5455 0.02656 0.0
H11 H 0.05933 0.85521 0.08695 0.0
H12 H 0.05309 0.7532 0.92062 0.0
H13 H 1.00376 0.76298 0.22452 0.0
C14 C 0.05104 0.82652 0.08344 0.0
C15 C 0.03056 0.81168 0.16499 0.0
C16 C 0.05989 0.8055 -0.00378 0.0
C17 C 0.04734 0.769 -0.01022 0.0
C18 C 0.02712 0.75337 0.07257 0.0
C19 C 1.01927 0.7748 0.16068 0.0
N20 N 1.01374 0.71662 0.06948 0.0
C21 C 1.01572 0.69354 -0.01626 0.0
H22 H 0.68561 0.02254 0.11384 0.0
H23 H 0.79038 1.01957 0.95633 0.0
H24 H 0.78495 0.99739 0.28503 0.0
C25 C 0.71555 1.01829 0.11598 0.0
C26 C 0.7325 1.00857 0.20909 0.0
C27 C 0.73631 0.02299 0.0258 0.0
C28 C 0.7748 1.01689 0.02749 0.0
C29 C 0.79275 1.00764 0.12116 0.0
C30 C 0.77139 1.00395 0.21239 0.0
N31 N 0.83198 1.00213 0.12591 0.0
C32 C 0.85554 1.00443 0.04026 0.0
H33 H 0.493 0.69609 0.08301 0.0
H34 H 0.49453 0.80114 0.93065 0.0
H35 H 0.52836 0.79144 0.25037 0.0
C36 C 0.49761 0.72562 0.08569 0.0
C37 C 0.51122 0.74109 0.17631 0.0
C38 C 0.49124 0.7471 -0.00244 0.0
C39 C 0.49883 0.78491 -0.00011 0.0
C40 C 0.51241 0.80124 0.09102 0.0
C41 C 0.51802 0.77916 0.17987 0.0
N42 N 0.52153 0.83931 0.09498 0.0
C43 C 0.52029 0.86325 0.01025 0.0
H44 H 0.19527 0.54312 0.06412 0.0
H45 H 0.3013 0.53523 0.21332 0.0
H46 H 0.29212 0.51612 0.88408 0.0
C47 C 0.22514 0.53858 0.05913 0.0
C48 C 0.2409 0.52896 -0.03545 0.0
C49 C 0.24683 0.5414 0.14795 0.0
C50 C 0.28506 0.53413 0.14297 0.0
C51 C 0.30186 0.52528 0.04738 0.0
C52 C 0.27955 0.52305 0.95779 0.0
N53 N 0.34073 0.51801 0.03963 0.0
C54 C 0.36472 0.51761 0.12431 0.0
H55 H 1.0022 0.18961 0.09578 0.0
H56 H 1.0019 0.29598 0.23943 0.0
H57 H 0.02538 0.28561 0.91251 0.0
C58 C 1.00536 0.2193 0.08997 0.0
C59 C 1.01465 0.23485 -0.00514 0.0
C60 C 1.00014 0.24112 0.17754 0.0
C61 C 1.00532 0.27931 0.17073 0.0
C62 C 1.01478 0.29565 0.07504 0.0
C63 C 1.01871 0.27325 -0.01335 0.0
N64 N 0.02063 0.33425 0.06551 0.0
C65 C 0.0219 0.35831 0.14922 0.0
H66 H 0.34421 1.00518 0.07881 0.0
H67 H 0.23841 1.01008 0.23139 0.0
H68 H 0.24633 0.03096 0.90218 0.0
C69 C 0.31422 1.00899 0.07484 0.0
C70 C 0.298 1.01872 -0.01912 0.0
C71 C 0.29288 1.00534 0.16437 0.0
C72 C 0.25446 1.01183 0.1606 0.0
C73 C 0.23724 0.02081 0.06562 0.0
C74 C 0.25924 0.02389 -0.02461 0.0
N75 N 0.19825 0.02749 0.05908 0.0
C76 C 0.17453 0.02773 0.14457 0.0
H77 H 0.54815 0.35839 0.07875 0.0
H78 H 0.5424 0.25327 0.23011 0.0
H79 H 0.51201 0.26406 0.90781 0.0
C80 C 0.54282 0.32899 0.07516 0.0
C81 C 0.52946 0.31405 -0.01654 0.0
C82 C 0.54804 0.30723 0.16336 0.0
C83 C 0.53949 0.26965 0.16032 0.0
C84 C 0.52667 0.25371 0.06778 0.0
C85 C 0.52211 0.27605 -0.02103 0.0
N86 N 0.51732 0.21572 0.06258 0.0
C87 C 0.51639 0.19226 0.14829 0.0
Zn88 Zn 0.99871 0.06131 0.56887 0.0
Zn89 Zn 0.03343 0.97638 0.62259 0.0
C90 C 0.995 0.11208 0.72403 0.0
O91 O 0.96063 0.10816 0.69166 0.0
C92 C 0.03654 0.92586 0.46651 0.0
O93 O 0.07119 0.93022 0.49567 0.0
O94 O 0.97808 0.10386 0.48599 0.0
O95 O 0.03716 0.04111 0.46927 0.0
O96 O 0.07513 1.00764 0.56515 0.0
C97 C 1.00279 0.12867 0.47731 0.0
O98 O 0.03649 0.12163 0.51175 0.0
O99 O 1.01976 0.0896 0.69123 0.0
C100 C 0.08713 0.92149 0.72158 0.0
O101 O 0.11694 0.93917 0.69069 0.0
O102 O 0.05484 0.93446 0.70404 0.0
O103 O 0.99416 0.99643 0.72133 0.0
O104 O 0.95695 0.02956 0.6219 0.0
O105 O 1.0115 0.94699 0.50412 0.0
C106 C 0.06891 0.02645 0.48375 0.0
C107 C 0.96257 1.01132 0.70462 0.0
Zn108 Zn 0.47554 1.01274 0.55271 0.0
Zn109 Zn 0.55655 0.0441 0.62779 0.0
C110 C 0.4217 1.00404 0.7032 0.0
O111 O 0.42637 0.97082 0.66486 0.0
C112 C 0.61284 0.03974 0.48562 0.0
O113 O 0.61241 0.07415 0.51697 0.0
O114 O 0.43536 0.99256 0.46243 0.0
O115 O 0.49482 0.05513 0.46578 0.0
O116 O 0.5321 0.08865 0.56193 0.0
C117 C 0.40873 1.01573 0.45446 0.0
O118 O 0.41271 0.04863 0.495 0.0
O119 O 0.44416 0.02932 0.67566 0.0
C120 C 0.61979 0.03158 0.7354 0.0
O121 O 0.60897 0.99902 0.70366 0.0
O122 O 0.59859 0.05934 0.72011 0.0
O123 O 0.52746 1.00952 0.72121 0.0
O124 O 0.50929 0.97136 0.6014 0.0
O125 O 0.58641 1.01867 0.51403 0.0
C126 C 0.51227 0.08492 0.48134 0.0
C127 C 0.51993 0.97688 0.69355 0.0
Zn128 Zn 0.54052 0.48733 0.54894 0.0
Zn129 Zn 0.50141 0.56733 0.60927 0.0
C130 C 0.54364 0.435 0.70183 0.0
O131 O 0.57822 0.43931 0.67129 0.0
C132 C 0.49755 0.61986 0.45631 0.0
O133 O 0.46304 0.61555 0.48762 0.0
O134 O 0.56389 0.44654 0.46584 0.0
O135 O 0.50252 0.50741 0.44772 0.0
O136 O 0.46166 0.53456 0.54917 0.0
C137 C 0.54064 0.42063 0.45393 0.0
O138 O 0.50631 0.42549 0.48669 0.0
O139 O 0.5189 0.45754 0.66896 0.0
C140 C 0.50012 0.63381 0.70622 0.0
O141 O 0.53453 0.62969 0.67336 0.0
O142 O 0.47736 0.6075 0.6936 0.0
O143 O 0.54079 0.54794 0.70877 0.0
O144 O 0.58062 0.51985 0.60593 0.0
O145 O 0.52247 0.5977 0.49008 0.0
C146 C 0.46953 0.51866 0.4644 0.0
C147 C 0.57347 0.53592 0.69081 0.0
Zn148 Zn 0.06402 0.54103 0.53759 0.0
Zn149 Zn 0.97961 0.51234 0.60029 0.0
C150 C 0.11735 0.54817 0.68884 0.0
O151 O 0.11385 0.58145 0.64928 0.0
C152 C 0.928 0.51294 0.44648 0.0
O153 O 0.92888 0.47895 0.48211 0.0
O154 O 0.10542 0.5592 0.44758 0.0
O155 O 0.04368 0.49903 0.45112 0.0
O156 O 1.00593 0.46664 0.54991 0.0
C157 C 0.13124 0.53511 0.44112 0.0
O158 O 0.12601 0.50253 0.48336 0.0
O159 O 0.09413 0.52359 0.66195 0.0
C160 C 0.91343 0.52688 0.69412 0.0
O161 O 0.92399 0.55856 0.65453 0.0
O162 O 0.93513 0.49911 0.68619 0.0
O163 O 1.00553 0.54789 0.69585 0.0
O164 O 0.03238 0.58442 0.58354 0.0
O165 O 0.95298 0.53524 0.47669 0.0
C166 C 0.02622 0.46936 0.46966 0.0
C167 C 1.01659 0.5798 0.67054 0.0
C168 C 0.15302 1.00376 0.314 0.0
C169 C 0.14907 0.02879 0.2315 0.0
C170 C 0.12767 1.00382 0.39713 0.0
C171 C 0.09737 0.02876 0.39996 0.0
H172 H 0.17555 0.98374 0.31376 0.0
H173 H 0.13138 0.98359 0.4582 0.0
S174 S 0.07674 0.10134 0.20349 0.0
N175 N 0.11418 0.08004 0.15861 0.0
N176 N 0.06644 0.08042 0.31343 0.0
C177 C 0.09391 0.05449 0.31812 0.0
C178 C 0.11979 0.05441 0.23416 0.0
C179 C 0.54016 0.16749 0.31484 0.0
C180 C 0.51395 0.16672 0.23443 0.0
C181 C 0.53877 0.14174 0.39655 0.0
C182 C 0.51122 0.11425 0.40009 0.0
H183 H 0.56218 0.18774 0.31385 0.0
H184 H 0.56005 0.1428 0.4557 0.0
S185 S 0.43489 0.1026 0.20901 0.0
N186 N 0.45896 0.13787 0.16432 0.0
N187 N 0.45598 0.0895 0.31659 0.0
C188 C 0.48432 0.11407 0.32051 0.0
C189 C 0.4858 0.14031 0.23795 0.0
C190 C 0.38447 0.5394 0.29693 0.0
C191 C 0.39025 0.51655 0.21087 0.0
C192 C 0.40962 0.53922 0.38024 0.0
C193 C 0.44156 0.51637 0.37973 0.0
H194 H 0.36062 0.55782 0.29947 0.0
H195 H 0.40442 0.55775 0.44421 0.0
S196 S 0.46767 0.45007 0.17254 0.0
N197 N 0.42885 0.46965 0.13057 0.0
N198 N 0.47628 0.46911 0.28573 0.0
C199 C 0.44701 0.49289 0.29405 0.0
C200 C 0.42131 0.49305 0.2099 0.0
C201 C 0.99862 0.38466 0.31387 0.0
C202 C 0.02453 0.38474 0.23246 0.0
C203 C 1.00001 0.41138 0.39237 0.0
C204 C 0.02726 0.4392 0.3916 0.0
H205 H 0.97682 0.36419 0.3161 0.0
H206 H 0.97897 0.41077 0.45244 0.0
S207 S 0.10283 0.4493 0.19651 0.0
N208 N 0.07898 0.41328 0.15693 0.0
N209 N 0.08196 0.46348 0.30322 0.0
C210 C 0.0539 0.43868 0.31111 0.0
C211 C 0.05242 0.41145 0.23179 0.0
C212 C 0.9123 0.98269 0.95167 0.0
C213 C 0.88104 1.00602 0.95345 0.0
C214 C 0.93803 0.98423 0.86996 0.0
C215 C 0.93331 1.00902 0.78639 0.0
H216 H 0.91713 0.96333 0.01438 0.0
H217 H 0.96194 0.96589 0.87289 0.0
S218 S 0.85507 0.07577 0.75575 0.0
N219 N 0.84634 0.05461 0.86645 0.0
N220 N 0.89395 0.0571 0.71119 0.0
C221 C 0.90154 0.0321 0.78698 0.0
C222 C 0.87561 0.03074 0.87105 0.0
C223 C 0.51996 0.92818 0.95489 0.0
C224 C 0.51989 0.89075 0.92855 0.0
C225 C 0.52004 0.95568 0.87825 0.0
C226 C 0.51972 0.94676 0.77212 0.0
H227 H 0.52009 0.93634 0.03547 0.0
H228 H 0.52009 0.9842 0.90275 0.0
S229 S 0.52053 0.85214 0.66361 0.0
N230 N 0.52055 0.84573 0.79021 0.0
N231 N 0.51993 0.89726 0.64555 0.0
C232 C 0.51962 0.90918 0.74505 0.0
C233 C 0.51993 0.88119 0.82346 0.0
C234 C 0.62181 0.56524 0.93884 0.0
C235 C 0.65385 0.54298 0.94074 0.0
C236 C 0.59636 0.56309 0.85685 0.0
C237 C 0.60221 0.5388 0.77323 0.0
H238 H 0.61622 0.58429 0.00143 0.0
H239 H 0.57183 0.58063 0.85931 0.0
S240 S 0.68251 0.47452 0.74369 0.0
N241 N 0.69028 0.49566 0.85438 0.0
N242 N 0.6432 0.49213 0.69863 0.0
C243 C 0.63466 0.5167 0.77422 0.0
C244 C 0.66027 0.51863 0.85856 0.0
C245 C 0.03762 0.66895 0.81492 0.0
C246 C 1.0147 0.66615 0.90269 0.0
C247 C 0.03748 0.64142 0.7384 0.0
C248 C 1.01465 0.6101 0.74787 0.0
H249 H 0.05602 0.69227 0.80589 0.0
H250 H 0.05601 0.64432 0.67271 0.0
S251 S 0.94809 0.59163 -0.03754 0.0
N252 N 0.96766 0.63109 -0.00635 0.0
N253 N 0.96731 0.57929 0.85168 0.0
C254 C 0.9911 0.60769 0.83518 0.0
C255 C 0.99118 0.63575 0.91215 0.0
C256 C 0.96473 0.19488 0.27869 0.0
C257 C 0.9926 0.22197 0.27602 0.0
C258 C 0.96622 0.16597 0.35051 0.0
C259 C 0.99554 0.16353 0.42183 0.0
H260 H 0.94385 0.19402 0.21838 0.0
H261 H 0.94616 0.14395 0.34416 0.0
S262 S 0.06911 0.23317 0.46426 0.0
N263 N 0.04589 0.24851 0.36253 0.0
N264 N 0.04813 0.19486 0.50036 0.0
C265 C 1.02043 0.19323 0.42904 0.0
C266 C 1.019 0.22249 0.35548 0.0
C267 C 0.31492 0.02993 0.33008 0.0
C268 C 0.31306 1.00006 0.26208 0.0
C269 C 0.34501 0.03343 0.39743 0.0
C270 C 0.37414 1.00717 0.39861 0.0
H271 H 0.29515 0.05255 0.32384 0.0
H272 H 0.34656 0.05819 0.44373 0.0
S273 S 0.37713 0.91972 0.25115 0.0
N274 N 0.33872 0.9407 0.21169 0.0
N275 N 0.39557 0.94706 0.33879 0.0
C276 C 0.37014 0.97497 0.33975 0.0
C277 C 0.33938 0.97143 0.27145 0.0
C278 C 0.52826 0.32693 0.33701 0.0
C279 C 0.55605 0.32641 0.26086 0.0
C280 C 0.52546 0.3564 0.40575 0.0
C281 C 0.55038 0.38614 0.40026 0.0
H282 H 0.50616 0.30677 0.33612 0.0
H283 H 0.5019 0.35713 0.45815 0.0
S284 S 0.63393 0.39206 0.23269 0.0
N285 N 0.61342 0.35349 0.1976 0.0
N286 N 0.60815 0.40929 0.327 0.0
C287 C 0.58133 0.3832 0.33434 0.0
C288 C 0.58423 0.35305 0.26458 0.0
C289 C 0.22392 0.51693 0.31365 0.0
C290 C 0.22711 0.54704 0.24618 0.0
C291 C 0.19385 0.51455 0.38187 0.0
C292 C 0.1661 0.54222 0.3844 0.0
H293 H 0.24253 0.49342 0.30637 0.0
H294 H 0.19116 0.48964 0.42773 0.0
S295 S 0.16716 0.63048 0.23848 0.0
N296 N 0.20434 0.60781 0.1974 0.0
N297 N 0.14759 0.60364 0.32629 0.0
C298 C 0.17156 0.57448 0.32593 0.0
C299 C 0.20228 0.57686 0.2567 0.0
C300 C 0.05557 0.82934 0.81761 0.0
C301 C 0.07692 0.82484 0.9075 0.0
C302 C 0.06166 0.85923 0.75138 0.0
C303 C 0.08948 0.88527 0.77263 0.0
H304 H 0.03144 0.81223 0.80449 0.0
H305 H 0.04253 0.86363 0.68768 0.0
S306 S 0.15839 0.88045 -0.01544 0.0
N307 N 0.13119 0.84455 0.00422 0.0
N308 N 0.14268 0.90097 0.87873 0.0
C309 C 0.11418 0.87825 0.85411 0.0
C310 C 0.10789 0.84782 0.92194 0.0
C311 C 0.69037 0.06172 0.93158 0.0
C312 C 0.71582 0.03201 0.93046 0.0
C313 C 0.66055 0.06313 0.86234 0.0
C314 C 0.6554 0.0348 0.79037 0.0
H315 H 0.69163 0.08213 -0.00756 0.0
H316 H 0.63992 0.08485 0.8709 0.0
S317 S 0.71967 0.95624 0.74 0.0
N318 N 0.73782 0.97743 0.84061 0.0
N319 N 0.68223 0.98037 0.70816 0.0
C320 C 0.68329 1.00754 0.78022 0.0
C321 C 0.71358 1.00614 0.8508 0.0
C322 C 0.51042 0.72789 0.82287 0.0
C323 C 0.48318 0.72756 0.90059 0.0
C324 C 0.51367 0.69849 0.75399 0.0
C325 C 0.48973 0.66799 0.76068 0.0
H326 H 0.53184 0.74876 0.82246 0.0
H327 H 0.53687 0.69847 0.7003 0.0
S328 S 0.40774 0.65939 0.93323 0.0
N329 N 0.42723 0.69862 -0.03286 0.0
N330 N 0.43334 0.643 0.83738 0.0
C331 C 0.45922 0.66995 0.82847 0.0
C332 C 0.45588 0.7 0.89848 0.0
C333 C 0.82595 0.55915 0.82824 0.0
C334 C 0.81728 0.52891 0.89106 0.0
C335 C 0.85579 0.55727 0.75908 0.0
C336 C 0.87799 0.52515 0.7515 0.0
H337 H 0.81187 0.58537 0.83949 0.0
H338 H 0.86289 0.58205 0.71659 0.0
S339 S 0.86146 0.43643 0.88703 0.0
N340 N 0.82905 0.4646 0.93232 0.0
N341 N 0.88531 0.46069 0.80153 0.0
C342 C 0.86696 0.49353 0.80634 0.0
C343 C 0.83646 0.49552 0.87647 0.0
C344 C 0.98601 0.20762 0.83954 0.0
C345 C 1.01675 0.20959 0.90572 0.0
C346 C 0.98003 0.17629 0.77907 0.0
C347 C 1.00466 0.1458 0.78224 0.0
H348 H 0.96495 0.22917 0.84047 0.0
H349 H 0.95513 0.17558 0.73206 0.0
S350 S 0.0919 0.13968 0.93388 0.0
N351 N 0.07385 0.18019 -0.03509 0.0
N352 N 0.06308 0.12145 0.84917 0.0
C353 C 0.03704 0.14869 0.84216 0.0
C354 C 0.04295 0.18055 0.90448 0.0
C355 C 0.32576 0.99248 0.82172 0.0
C356 C 0.32328 0.02194 0.89114 0.0
C357 C 0.35737 0.98766 0.75945 0.0
C358 C 0.38766 1.01216 0.76428 0.0
H359 H 0.30441 0.97153 0.82107 0.0
H360 H 0.3585 0.96376 0.70954 0.0
S361 S 0.39281 0.09578 0.92726 0.0
N362 N 0.35216 0.07745 0.95657 0.0
N363 N 0.41148 0.06876 0.83831 0.0
C364 C 0.38432 0.04316 0.82841 0.0
C365 C 0.35215 0.04795 0.89213 0.0
C366 C 0.50348 0.37218 0.90772 0.0
C367 C 0.52466 0.33957 0.89461 0.0
C368 C 0.50781 0.40252 0.84105 0.0
C369 C 0.53386 0.40132 0.7602 0.0
H370 H 0.48538 0.37512 -0.02561 0.0
H371 H 0.49263 0.42778 0.85721 0.0
S372 S 0.59112 0.32037 0.68223 0.0
N373 N 0.56881 0.3064 0.78697 0.0
N374 N 0.57701 0.36318 0.66123 0.0
C375 C 0.55272 0.36781 0.74096 0.0
C376 C 0.54802 0.33691 0.80817 0.0
C377 C 0.21364 0.55665 0.80622 0.0
C378 C 0.21534 0.52688 0.87547 0.0
C379 C 0.18211 0.56261 0.74455 0.0
C380 C 0.15111 0.53897 0.74981 0.0
H381 H 0.23561 0.57696 0.8052 0.0
H382 H 0.18165 0.58669 0.6947 0.0
S383 S 0.14368 0.45496 0.91263 0.0
N384 N 0.18488 0.47201 0.94127 0.0
N385 N 0.12571 0.48283 0.82412 0.0
C386 C 0.1536 0.50767 0.81385 0.0
C387 C 0.18569 0.50174 0.87697 0.0
C388 C 0.04575 0.83235 0.34206 0.0
C389 C 0.02296 0.83567 0.25463 0.0
C390 C 0.04822 0.86118 0.41334 0.0
C391 C 0.0277 0.89413 0.40012 0.0
H392 H 0.06392 0.80858 0.35115 0.0
H393 H 0.06765 0.85828 0.47696 0.0
S394 S 0.96123 0.91469 0.18887 0.0
N395 N 0.97754 0.87309 0.16189 0.0
N396 N 0.98149 0.92706 0.29791 0.0
C397 C 1.00265 0.89663 0.31736 0.0
C398 C 1.00052 0.86743 0.24387 0.0
C399 C 0.70997 0.03703 0.3712 0.0
C400 C 0.70825 1.00761 0.30157 0.0
C401 C 0.67936 0.04603 0.43366 0.0
C402 C 0.64596 0.02586 0.42897 0.0
H403 H 0.73379 0.05518 0.37081 0.0
H404 H 0.6814 0.07009 0.4826 0.0
S405 S 0.62988 0.94263 0.27061 0.0
N406 N 0.6725 0.95558 0.23986 0.0
N407 N 0.61498 0.97224 0.35846 0.0
C408 C 0.64524 0.99425 0.36686 0.0
C409 C 0.67642 0.98517 0.30292 0.0
C410 C 0.48939 0.71608 0.34393 0.0
C411 C 0.51637 0.71602 0.26557 0.0
C412 C 0.48472 0.68522 0.40804 0.0
C413 C 0.50701 0.65332 0.39636 0.0
H414 H 0.46982 0.73884 0.35024 0.0
H415 H 0.46242 0.68585 0.46456 0.0
S416 S 0.58446 0.6413 0.20992 0.0
N417 N 0.56779 0.68298 0.185 0.0
N418 N 0.55943 0.62512 0.30717 0.0
C419 C 0.53608 0.65412 0.32391 0.0
C420 C 0.54064 0.68547 0.25801 0.0
C421 C 0.8314 0.51284 0.32854 0.0
C422 C 0.83172 0.54371 0.26308 0.0
C423 C 0.86246 0.50384 0.38917 0.0
C424 C 0.89496 0.52546 0.38696 0.0
H425 H 0.80815 0.49399 0.32708 0.0
H426 H 0.86127 0.47897 0.43573 0.0
S427 S 0.90772 0.6118 0.23712 0.0
N428 N 0.86557 0.59785 0.20579 0.0
N429 N 0.92389 0.58122 0.32116 0.0
C430 C 0.89453 0.55794 0.3275 0.0
C431 C 0.8629 0.56699 0.26528 0.0
loop_
_geom_bond_atom_site_label_1
_geom_bond_atom_site_label_2
_geom_bond_distance
_geom_bond_site_symmetry_2
_ccdc_geom_bond_type
H0 C3 0.929 . S
H1 C6 0.929 . S
H2 C8 0.930 . S
C3 H0 0.929 . S
C3 C4 1.398 . S
C3 C5 1.396 1_554 S
C4 C3 1.398 . S
C4 C8 1.407 . S
C5 C3 1.396 1_556 S
C5 C6 1.394 . S
C6 H1 0.929 . S
C6 C5 1.394 . S
C6 C7 1.382 1_556 S
C7 C6 1.382 1_554 S
C7 C8 1.392 . S
C7 N9 1.420 . S
C8 H2 0.930 . S
C8 C4 1.407 . S
C8 C7 1.392 . S
N9 C7 1.420 . S
N9 C10 1.244 1_554 S
C10 N9 1.244 1_556 S
H11 C14 0.929 . S
H12 C17 0.929 . S
H13 C19 0.930 . S
C14 H11 0.929 . S
C14 C15 1.398 1_655 S
C14 C16 1.394 1_654 S
C15 C14 1.398 1_455 S
C15 C19 1.407 . S
C16 C14 1.394 1_456 S
C16 C17 1.397 . S
C17 H12 0.929 . S
C17 C16 1.397 . S
C17 C18 1.382 1_556 S
C18 C17 1.382 1_554 S
C18 C19 1.392 . S
C18 N20 1.420 . S
C19 H13 0.930 . S
C19 C15 1.407 . S
C19 C18 1.392 . S
N20 C18 1.420 . S
N20 C21 1.232 1_454 S
C21 N20 1.232 1_656 S
H22 C25 0.929 . S
H23 C28 0.929 . S
H24 C30 0.930 . S
C25 H22 0.929 . S
C25 C26 1.398 . S
C25 C27 1.396 1_554 S
C26 C25 1.398 . S
C26 C30 1.407 . S
C27 C25 1.396 1_556 S
C27 C28 1.394 . S
C28 H23 0.929 . S
C28 C27 1.394 . S
C28 C29 1.382 1_556 S
C29 C28 1.382 1_554 S
C29 C30 1.392 . S
C29 N31 1.420 . S
C30 H24 0.930 . S
C30 C26 1.407 . S
C30 C29 1.392 . S
N31 C29 1.420 . S
N31 C32 1.244 1_554 S
C32 N31 1.244 1_556 S
H33 C36 0.929 . S
H34 C39 0.929 . S
H35 C41 0.930 . S
C36 H33 0.929 . S
C36 C37 1.398 . S
C36 C38 1.396 1_554 S
C37 C36 1.398 . S
C37 C41 1.407 . S
C38 C36 1.396 1_556 S
C38 C39 1.394 . S
C39 H34 0.929 . S
C39 C38 1.394 . S
C39 C40 1.382 1_556 S
C40 C39 1.382 1_554 S
C40 C41 1.392 . S
C40 N42 1.420 . S
C41 H35 0.930 . S
C41 C37 1.407 . S
C41 C40 1.392 . S
N42 C40 1.420 . S
N42 C43 1.244 1_554 S
C43 N42 1.244 1_556 S
H44 C47 0.929 . S
H45 C50 0.929 . S
H46 C52 0.930 . S
C47 H44 0.929 . S
C47 C48 1.398 . S
C47 C49 1.396 . S
C48 C47 1.398 . S
C48 C52 1.407 . S
C49 C47 1.396 . S
C49 C50 1.394 . S
C50 H45 0.929 . S
C50 C49 1.394 . S
C50 C51 1.382 . S
C51 C50 1.382 . S
C51 C52 1.392 . S
C51 N53 1.420 . S
C52 H46 0.930 . S
C52 C48 1.407 . S
C52 C51 1.392 . S
N53 C51 1.420 . S
N53 C54 1.244 . S
C54 N53 1.244 . S
H55 C58 0.929 . S
H56 C61 0.929 . S
H57 C63 0.930 . S
C58 H55 0.929 . S
C58 C59 1.398 1_655 S
C58 C60 1.394 1_655 S
C59 C58 1.398 1_455 S
C59 C63 1.407 . S
C60 C58 1.394 1_455 S
C60 C61 1.398 . S
C61 H56 0.929 . S
C61 C60 1.398 . S
C61 C62 1.382 . S
C62 C61 1.382 . S
C62 C63 1.392 . S
C62 N64 1.420 . S
C63 H57 0.930 . S
C63 C59 1.407 . S
C63 C62 1.392 . S
N64 C62 1.420 . S
N64 C65 1.235 1_455 S
C65 N64 1.235 1_655 S
H66 C69 0.929 . S
H67 C72 0.929 . S
H68 C74 0.930 . S
C69 H66 0.929 . S
C69 C70 1.398 . S
C69 C71 1.396 . S
C70 C69 1.398 . S
C70 C74 1.407 . S
C71 C69 1.396 . S
C71 C72 1.394 . S
C72 H67 0.929 . S
C72 C71 1.394 . S
C72 C73 1.382 . S
C73 C72 1.382 . S
C73 C74 1.392 . S
C73 N75 1.420 . S
C74 H68 0.930 . S
C74 C70 1.407 . S
C74 C73 1.392 . S
N75 C73 1.420 . S
N75 C76 1.244 . S
C76 N75 1.244 . S
H77 C80 0.929 . S
H78 C83 0.929 . S
H79 C85 0.930 . S
C80 H77 0.929 . S
C80 C81 1.398 . S
C80 C82 1.396 . S
C81 C80 1.398 . S
C81 C85 1.407 . S
C82 C80 1.396 . S
C82 C83 1.394 . S
C83 H78 0.929 . S
C83 C82 1.394 . S
C83 C84 1.382 . S
C84 C83 1.382 . S
C84 C85 1.392 . S
C84 N86 1.420 . S
C85 H79 0.930 . S
C85 C81 1.407 . S
C85 C84 1.392 . S
N86 C84 1.420 . S
N86 C87 1.244 . S
C87 N86 1.244 . S
Zn88 O94 1.969 . S
Zn88 O95 1.965 1_655 S
Zn88 O99 2.024 1_655 S
Zn88 O104 1.969 . S
Zn89 O96 1.969 . S
Zn89 O102 1.969 . S
Zn89 O103 1.965 1_455 S
Zn89 O105 2.024 1_455 S
C90 O91 1.229 1_455 S
C90 O99 1.058 . S
O91 C90 1.229 1_655 S
C92 O93 1.229 1_655 S
C92 O105 1.058 . S
O93 C92 1.229 1_455 S
O94 Zn88 1.969 . S
O94 C97 1.267 . S
O95 Zn88 1.965 1_455 S
O95 C106 1.260 . S
O96 Zn89 1.969 . S
O96 C106 1.258 1_565 S
C97 O94 1.267 . S
C97 O98 1.228 1_655 S
O98 C97 1.228 1_455 S
O99 Zn88 2.024 1_455 S
O99 C90 1.058 . S
C100 O101 1.228 1_455 S
C100 O102 1.267 . S
O101 C100 1.228 1_655 S
O102 Zn89 1.969 . S
O102 C100 1.267 . S
O103 Zn89 1.965 1_655 S
O103 C107 1.260 1_565 S
O104 Zn88 1.969 . S
O104 C107 1.258 . S
O105 Zn89 2.024 1_655 S
O105 C92 1.058 . S
C106 O95 1.260 . S
C106 O96 1.258 1_545 S
C107 O103 1.260 1_545 S
C107 O104 1.258 . S
Zn108 O114 1.969 1_545 S
Zn108 O115 1.965 . S
Zn108 O119 2.024 . S
Zn108 O124 1.969 1_545 S
Zn109 O116 1.983 . S
Zn109 O122 1.975 . S
Zn109 O123 1.958 1_545 S
Zn109 O125 2.015 1_545 S
C110 O111 1.229 . S
C110 O119 1.058 . S
O111 C110 1.229 . S
C112 O113 1.229 1_565 S
C112 O125 1.058 . S
O113 C112 1.229 1_545 S
O114 Zn108 1.969 1_565 S
O114 C117 1.267 1_565 S
O115 Zn108 1.965 . S
O115 C126 1.260 . S
O116 Zn109 1.983 . S
O116 C126 1.258 . S
C117 O114 1.267 1_545 S
C117 O118 1.228 . S
O118 C117 1.228 . S
O119 Zn108 2.024 . S
O119 C110 1.058 . S
C120 O121 1.228 . S
C120 O122 1.267 1_565 S
O121 C120 1.228 . S
O122 Zn109 1.975 . S
O122 C120 1.267 1_545 S
O123 Zn109 1.958 1_565 S
O123 C127 1.260 . S
O124 Zn108 1.969 1_565 S
O124 C127 1.258 . S
O125 Zn109 2.015 1_565 S
O125 C112 1.058 . S
C126 O115 1.260 . S
C126 O116 1.258 . S
C127 O123 1.260 . S
C127 O124 1.258 . S
Zn128 O134 1.969 . S
Zn128 O135 1.965 . S
Zn128 O139 2.024 . S
Zn128 O144 1.969 . S
Zn129 O136 1.969 . S
Zn129 O142 1.969 . S
Zn129 O143 1.965 . S
Zn129 O145 2.024 . S
C130 O131 1.229 . S
C130 O139 1.058 . S
O131 C130 1.229 . S
C132 O133 1.229 . S
C132 O145 1.058 . S
O133 C132 1.229 . S
O134 Zn128 1.969 . S
O134 C137 1.267 . S
O135 Zn128 1.965 . S
O135 C146 1.260 . S
O136 Zn129 1.969 . S
O136 C146 1.258 . S
C137 O134 1.267 . S
C137 O138 1.228 . S
O138 C137 1.228 . S
O139 Zn128 2.024 . S
O139 C130 1.058 . S
C140 O141 1.228 . S
C140 O142 1.267 . S
O141 C140 1.228 . S
O142 Zn129 1.969 . S
O142 C140 1.267 . S
O143 Zn129 1.965 . S
O143 C147 1.260 . S
O144 Zn128 1.969 . S
O144 C147 1.258 . S
O145 Zn129 2.024 . S
O145 C132 1.058 . S
C146 O135 1.260 . S
C146 O136 1.258 . S
C147 O143 1.260 . S
C147 O144 1.258 . S
Zn148 O154 1.969 . S
Zn148 O155 1.965 . S
Zn148 O159 2.024 . S
Zn148 O164 1.969 . S
Zn149 O156 1.969 . S
Zn149 O162 1.969 . S
Zn149 O163 1.965 . S
Zn149 O165 2.024 . S
C150 O151 1.229 . S
C150 O159 1.058 . S
O151 C150 1.229 . S
C152 O153 1.229 . S
C152 O165 1.058 . S
O153 C152 1.229 . S
O154 Zn148 1.969 . S
O154 C157 1.267 . S
O155 Zn148 1.965 . S
O155 C166 1.260 1_455 S
O156 Zn149 1.969 . S
O156 C166 1.258 . S
C157 O154 1.267 . S
C157 O158 1.228 . S
O158 C157 1.228 . S
O159 Zn148 2.024 . S
O159 C150 1.058 . S
C160 O161 1.228 . S
C160 O162 1.267 . S
O161 C160 1.228 . S
O162 Zn149 1.969 . S
O162 C160 1.267 . S
O163 Zn149 1.965 . S
O163 C167 1.260 1_655 S
O164 Zn148 1.969 . S
O164 C167 1.258 . S
O165 Zn149 2.024 . S
O165 C152 1.058 . S
C166 O155 1.260 1_655 S
C166 O156 1.258 . S
C167 O163 1.260 1_455 S
C167 O164 1.258 . S
C168 C169 1.369 . S
C168 C170 1.419 . S
C168 H172 0.930 1_545 S
C169 C168 1.369 . S
C169 C178 1.429 . S
C170 C168 1.419 . S
C170 C171 1.363 . S
C170 H173 0.929 1_545 S
C171 C170 1.363 . S
C171 C177 1.428 . S
H172 C168 0.930 1_565 S
H173 C170 0.929 1_565 S
S174 N175 1.613 . S
S174 N176 1.610 . S
N175 S174 1.613 . S
N175 C178 1.350 . S
N176 S174 1.610 . S
N176 C177 1.351 . S
C177 C171 1.428 . S
C177 N176 1.351 . S
C177 C178 1.434 . S
C178 C169 1.429 . S
C178 N175 1.350 . S
C178 C177 1.434 . S
C179 C180 1.369 . S
C179 C181 1.419 . S
C179 H183 0.930 . S
C180 C179 1.369 . S
C180 C189 1.429 . S
C181 C179 1.419 . S
C181 C182 1.363 . S
C181 H184 0.929 . S
C182 C181 1.363 . S
C182 C188 1.428 . S
H183 C179 0.930 . S
H184 C181 0.929 . S
S185 N186 1.613 . S
S185 N187 1.610 . S
N186 S185 1.613 . S
N186 C189 1.350 . S
N187 S185 1.610 . S
N187 C188 1.351 . S
C188 C182 1.428 . S
C188 N187 1.351 . S
C188 C189 1.434 . S
C189 C180 1.429 . S
C189 N186 1.350 . S
C189 C188 1.434 . S
C190 C191 1.369 . S
C190 C192 1.419 . S
C190 H194 0.930 . S
C191 C190 1.369 . S
C191 C200 1.429 . S
C192 C190 1.419 . S
C192 C193 1.363 . S
C192 H195 0.929 . S
C193 C192 1.363 . S
C193 C199 1.428 . S
H194 C190 0.930 . S
H195 C192 0.929 . S
S196 N197 1.613 . S
S196 N198 1.610 . S
N197 S196 1.613 . S
N197 C200 1.350 . S
N198 S196 1.610 . S
N198 C199 1.351 . S
C199 C193 1.428 . S
C199 N198 1.351 . S
C199 C200 1.434 . S
C200 C191 1.429 . S
C200 N197 1.350 . S
C200 C199 1.434 . S
C201 C202 1.368 1_455 S
C201 C203 1.419 . S
C201 H205 0.930 . S
C202 C201 1.368 1_655 S
C202 C211 1.430 . S
C203 C201 1.419 . S
C203 C204 1.363 1_455 S
C203 H206 0.929 . S
C204 C203 1.363 1_655 S
C204 C210 1.428 . S
H205 C201 0.930 . S
H206 C203 0.929 . S
S207 N208 1.613 . S
S207 N209 1.610 . S
N208 S207 1.613 . S
N208 C211 1.350 . S
N209 S207 1.610 . S
N209 C210 1.351 . S
C210 C204 1.428 . S
C210 N209 1.351 . S
C210 C211 1.434 . S
C211 C202 1.430 . S
C211 N208 1.350 . S
C211 C210 1.434 . S
C212 C213 1.369 . S
C212 C214 1.419 . S
C212 H216 0.930 . S
C213 C212 1.369 . S
C213 C222 1.429 1_565 S
C214 C212 1.419 . S
C214 C215 1.363 . S
C214 H217 0.929 . S
C215 C214 1.363 . S
C215 C221 1.428 1_565 S
H216 C212 0.930 . S
H217 C214 0.929 . S
S218 N219 1.613 . S
S218 N220 1.610 . S
N219 S218 1.613 . S
N219 C222 1.350 . S
N220 S218 1.610 . S
N220 C221 1.351 . S
C221 C215 1.428 1_545 S
C221 N220 1.351 . S
C221 C222 1.434 . S
C222 C213 1.429 1_545 S
C222 N219 1.350 . S
C222 C221 1.434 . S
C223 C224 1.369 . S
C223 C225 1.419 . S
C223 H227 0.938 . S
C224 C223 1.369 . S
C224 C233 1.429 . S
C225 C223 1.419 . S
C225 C226 1.363 . S
C225 H228 0.929 . S
C226 C225 1.363 . S
C226 C232 1.428 . S
H227 C223 0.938 . S
H228 C225 0.929 . S
S229 N230 1.613 . S
S229 N231 1.610 . S
N230 S229 1.613 . S
N230 C233 1.350 . S
N231 S229 1.610 . S
N231 C232 1.351 . S
C232 C226 1.428 . S
C232 N231 1.351 . S
C232 C233 1.434 . S
C233 C224 1.429 . S
C233 N230 1.350 . S
C233 C232 1.434 . S
C234 C235 1.369 . S
C234 C236 1.419 . S
C234 H238 0.930 1_556 S
C235 C234 1.369 . S
C235 C244 1.429 . S
C236 C234 1.419 . S
C236 C237 1.363 . S
C236 H239 0.929 . S
C237 C236 1.363 . S
C237 C243 1.428 . S
H238 C234 0.930 1_554 S
H239 C236 0.929 . S
S240 N241 1.613 . S
S240 N242 1.610 . S
N241 S240 1.613 . S
N241 C244 1.350 . S
N242 S240 1.610 . S
N242 C243 1.351 . S
C243 C237 1.428 . S
C243 N242 1.351 . S
C243 C244 1.434 . S
C244 C235 1.429 . S
C244 N241 1.350 . S
C244 C243 1.434 . S
C245 C246 1.372 . S
C245 C247 1.419 . S
C245 H249 0.930 . S
C246 C245 1.372 . S
C246 C255 1.426 1_455 S
C247 C245 1.419 . S
C247 C248 1.363 . S
C247 H250 0.929 . S
C248 C247 1.363 . S
C248 C254 1.428 1_455 S
H249 C245 0.930 . S
H250 C247 0.929 . S
S251 N252 1.613 . S
S251 N253 1.610 1_554 S
N252 S251 1.613 . S
N252 C255 1.350 1_554 S
N253 S251 1.610 1_556 S
N253 C254 1.351 . S
C254 C248 1.428 1_655 S
C254 N253 1.351 . S
C254 C255 1.434 . S
C255 C246 1.426 1_655 S
C255 N252 1.350 1_556 S
C255 C254 1.434 . S
C256 C257 1.398 . S
C256 C258 1.419 . S
C256 H260 0.930 . S
C257 C256 1.398 . S
C257 C266 1.405 1_655 S
C258 C256 1.419 . S
C258 C259 1.363 . S
C258 H261 0.929 . S
C259 C258 1.363 . S
C259 C265 1.428 1_655 S
H260 C256 0.930 . S
H261 C258 0.929 . S
S262 N263 1.613 . S
S262 N264 1.610 . S
N263 S262 1.613 . S
N263 C266 1.350 . S
N264 S262 1.610 . S
N264 C265 1.351 . S
C265 C259 1.428 1_455 S
C265 N264 1.351 . S
C265 C266 1.434 . S
C266 C257 1.405 1_455 S
C266 N263 1.350 . S
C266 C265 1.434 . S
C267 C268 1.369 . S
C267 C269 1.419 . S
C267 H271 0.930 . S
C268 C267 1.369 . S
C268 C277 1.429 . S
C269 C267 1.419 . S
C269 C270 1.363 . S
C269 H272 0.929 . S
C270 C269 1.363 . S
C270 C276 1.428 . S
H271 C267 0.930 . S
H272 C269 0.929 . S
S273 N274 1.613 . S
S273 N275 1.610 . S
N274 S273 1.613 . S
N274 C277 1.350 . S
N275 S273 1.610 . S
N275 C276 1.351 . S
C276 C270 1.428 . S
C276 N275 1.351 . S
C276 C277 1.434 . S
C277 C268 1.429 . S
C277 N274 1.350 . S
C277 C276 1.434 . S
C278 C279 1.369 . S
C278 C280 1.419 . S
C278 H282 0.930 . S
C279 C278 1.369 . S
C279 C288 1.429 . S
C280 C278 1.419 . S
C280 C281 1.363 . S
C280 H283 0.929 . S
C281 C280 1.363 . S
C281 C287 1.428 . S
H282 C278 0.930 . S
H283 C280 0.929 . S
S284 N285 1.613 . S
S284 N286 1.610 . S
N285 S284 1.613 . S
N285 C288 1.350 . S
N286 S284 1.610 . S
N286 C287 1.351 . S
C287 C281 1.428 . S
C287 N286 1.351 . S
C287 C288 1.434 . S
C288 C279 1.429 . S
C288 N285 1.350 . S
C288 C287 1.434 . S
C289 C290 1.369 . S
C289 C291 1.419 . S
C289 H293 0.930 . S
C290 C289 1.369 . S
C290 C299 1.429 . S
C291 C289 1.419 . S
C291 C292 1.363 . S
C291 H294 0.929 . S
C292 C291 1.363 . S
C292 C298 1.428 . S
H293 C289 0.930 . S
H294 C291 0.929 . S
S295 N296 1.613 . S
S295 N297 1.610 . S
N296 S295 1.613 . S
N296 C299 1.350 . S
N297 S295 1.610 . S
N297 C298 1.351 . S
C298 C292 1.428 . S
C298 N297 1.351 . S
C298 C299 1.434 . S
C299 C290 1.429 . S
C299 N296 1.350 . S
C299 C298 1.434 . S
C300 C301 1.369 1_655 S
C300 C302 1.419 1_655 S
C300 H304 0.930 . S
C301 C300 1.369 1_455 S
C301 C310 1.429 1_556 S
C302 C300 1.419 1_455 S
C302 C303 1.363 . S
C302 H305 0.929 . S
C303 C302 1.363 . S
C303 C309 1.428 . S
H304 C300 0.930 . S
H305 C302 0.929 . S
S306 N307 1.613 . S
S306 N308 1.610 . S
N307 S306 1.613 . S
N307 C310 1.350 . S
N308 S306 1.610 . S
N308 C309 1.351 1_554 S
C309 C303 1.428 . S
C309 N308 1.351 1_556 S
C309 C310 1.434 1_556 S
C310 C301 1.429 1_554 S
C310 N307 1.350 . S
C310 C309 1.434 1_554 S
C311 C312 1.369 . S
C311 C313 1.419 1_565 S
C311 H315 0.930 1_565 S
C312 C311 1.369 . S
C312 C321 1.429 . S
C313 C311 1.419 1_545 S
C313 C314 1.363 1_545 S
C313 H316 0.929 . S
C314 C313 1.363 1_565 S
C314 C320 1.428 . S
H315 C311 0.930 1_545 S
H316 C313 0.929 . S
S317 N318 1.613 . S
S317 N319 1.610 . S
N318 S317 1.613 . S
N318 C321 1.350 . S
N319 S317 1.610 . S
N319 C320 1.351 . S
C320 C314 1.428 . S
C320 N319 1.351 . S
C320 C321 1.434 . S
C321 C312 1.429 . S
C321 N318 1.350 . S
C321 C320 1.434 . S
C322 C323 1.369 . S
C322 C324 1.419 . S
C322 H326 0.930 1_556 S
C323 C322 1.369 . S
C323 C332 1.429 . S
C324 C322 1.419 . S
C324 C325 1.363 . S
C324 H327 0.929 . S
C325 C324 1.363 . S
C325 C331 1.428 . S
H326 C322 0.930 1_554 S
H327 C324 0.929 . S
S328 N329 1.613 . S
S328 N330 1.610 . S
N329 S328 1.613 . S
N329 C332 1.350 . S
N330 S328 1.610 . S
N330 C331 1.351 . S
C331 C325 1.428 . S
C331 N330 1.351 . S
C331 C332 1.434 . S
C332 C323 1.429 . S
C332 N329 1.350 . S
C332 C331 1.434 . S
C333 C334 1.369 . S
C333 C335 1.419 . S
C333 H337 0.930 1_556 S
C334 C333 1.369 . S
C334 C343 1.429 . S
C335 C333 1.419 . S
C335 C336 1.363 . S
C335 H338 0.929 . S
C336 C335 1.363 . S
C336 C342 1.428 . S
H337 C333 0.930 1_554 S
H338 C335 0.929 . S
S339 N340 1.613 . S
S339 N341 1.610 . S
N340 S339 1.613 . S
N340 C343 1.350 . S
N341 S339 1.610 . S
N341 C342 1.351 . S
C342 C336 1.428 . S
C342 N341 1.351 . S
C342 C343 1.434 . S
C343 C334 1.429 . S
C343 N340 1.350 . S
C343 C342 1.434 . S
C344 C345 1.369 1_655 S
C344 C346 1.419 . S
C344 H348 0.930 1_556 S
C345 C344 1.369 1_455 S
C345 C354 1.429 . S
C346 C344 1.419 . S
C346 C347 1.363 1_655 S
C346 H349 0.929 . S
C347 C346 1.363 1_455 S
C347 C353 1.428 . S
H348 C344 0.930 1_554 S
H349 C346 0.929 . S
S350 N351 1.613 . S
S350 N352 1.610 . S
N351 S350 1.613 . S
N351 C354 1.350 . S
N352 S350 1.610 . S
N352 C353 1.351 . S
C353 C347 1.428 . S
C353 N352 1.351 . S
C353 C354 1.434 . S
C354 C345 1.429 . S
C354 N351 1.350 . S
C354 C353 1.434 . S
C355 C356 1.369 . S
C355 C357 1.419 . S
C355 H359 0.930 . S
C356 C355 1.369 . S
C356 C365 1.429 1_556 S
C357 C355 1.419 . S
C357 C358 1.363 . S
C357 H360 0.929 . S
C358 C357 1.363 . S
C358 C364 1.428 . S
H359 C355 0.930 . S
H360 C357 0.929 . S
S361 N362 1.613 . S
S361 N363 1.610 . S
N362 S361 1.613 . S
N362 C365 1.350 . S
N363 S361 1.610 . S
N363 C364 1.351 1_554 S
C364 C358 1.428 . S
C364 N363 1.351 1_556 S
C364 C365 1.434 1_556 S
C365 C356 1.429 1_554 S
C365 N362 1.350 . S
C365 C364 1.434 1_554 S
C366 C367 1.369 1_554 S
C366 C368 1.419 1_554 S
C366 H370 0.930 . S
C367 C366 1.369 1_556 S
C367 C376 1.429 . S
C368 C366 1.419 1_556 S
C368 C369 1.363 . S
C368 H371 0.929 1_556 S
C369 C368 1.363 . S
C369 C375 1.428 . S
H370 C366 0.930 . S
H371 C368 0.929 1_554 S
S372 N373 1.613 . S
S372 N374 1.610 . S
N373 S372 1.613 . S
N373 C376 1.350 . S
N374 S372 1.610 . S
N374 C375 1.351 . S
C375 C369 1.428 . S
C375 N374 1.351 . S
C375 C376 1.434 . S
C376 C367 1.429 . S
C376 N373 1.350 . S
C376 C375 1.434 . S
C377 C378 1.369 . S
C377 C379 1.419 . S
C377 H381 0.930 . S
C378 C377 1.369 . S
C378 C387 1.429 1_556 S
C379 C377 1.419 . S
C379 C380 1.363 . S
C379 H382 0.929 . S
C380 C379 1.363 . S
C380 C386 1.428 . S
H381 C377 0.930 . S
H382 C379 0.929 . S
S383 N384 1.613 . S
S383 N385 1.610 . S
N384 S383 1.613 . S
N384 C387 1.350 . S
N385 S383 1.610 . S
N385 C386 1.351 1_554 S
C386 C380 1.428 . S
C386 N385 1.351 1_556 S
C386 C387 1.434 1_556 S
C387 C378 1.429 1_554 S
C387 N384 1.350 . S
C387 C386 1.434 1_554 S
C388 C389 1.369 . S
C388 C390 1.419 . S
C388 H392 0.930 . S
C389 C388 1.369 . S
C389 C398 1.429 . S
C390 C388 1.419 . S
C390 C391 1.363 . S
C390 H393 0.929 . S
C391 C390 1.363 . S
C391 C397 1.428 . S
H392 C388 0.930 . S
H393 C390 0.929 . S
S394 N395 1.613 . S
S394 N396 1.610 1_455 S
N395 S394 1.613 . S
N395 C398 1.350 1_455 S
N396 S394 1.610 1_655 S
N396 C397 1.351 . S
C397 C391 1.428 . S
C397 N396 1.351 . S
C397 C398 1.434 . S
C398 C389 1.429 . S
C398 N395 1.350 1_655 S
C398 C397 1.434 . S
C399 C400 1.369 . S
C399 C401 1.419 . S
C399 H403 0.930 1_565 S
C400 C399 1.369 . S
C400 C409 1.429 . S
C401 C399 1.419 . S
C401 C402 1.363 . S
C401 H404 0.929 1_565 S
C402 C401 1.363 . S
C402 C408 1.428 . S
H403 C399 0.930 1_545 S
H404 C401 0.929 1_545 S
S405 N406 1.613 . S
S405 N407 1.610 . S
N406 S405 1.613 . S
N406 C409 1.350 . S
N407 S405 1.610 . S
N407 C408 1.351 . S
C408 C402 1.428 . S
C408 N407 1.351 . S
C408 C409 1.434 . S
C409 C400 1.429 . S
C409 N406 1.350 . S
C409 C408 1.434 . S
C410 C411 1.369 . S
C410 C412 1.419 . S
C410 H414 0.930 . S
C411 C410 1.369 . S
C411 C420 1.429 . S
C412 C410 1.419 . S
C412 C413 1.363 . S
C412 H415 0.929 . S
C413 C412 1.363 . S
C413 C419 1.428 . S
H414 C410 0.930 . S
H415 C412 0.929 . S
S416 N417 1.613 . S
S416 N418 1.610 . S
N417 S416 1.613 . S
N417 C420 1.350 . S
N418 S416 1.610 . S
N418 C419 1.351 . S
C419 C413 1.428 . S
C419 N418 1.351 . S
C419 C420 1.434 . S
C420 C411 1.429 . S
C420 N417 1.350 . S
C420 C419 1.434 . S
C421 C422 1.369 . S
C421 C423 1.419 . S
C421 H425 0.930 . S
C422 C421 1.369 . S
C422 C431 1.429 . S
C423 C421 1.419 . S
C423 C424 1.363 . S
C423 H426 0.929 . S
C424 C423 1.363 . S
C424 C430 1.428 . S
H425 C421 0.930 . S
H426 C423 0.929 . S
S427 N428 1.613 . S
S427 N429 1.610 . S
N428 S427 1.613 . S
N428 C431 1.350 . S
N429 S427 1.610 . S
N429 C430 1.351 . S
C430 C424 1.428 . S
C430 N429 1.351 . S
C430 C431 1.434 . S
C431 C422 1.429 . S
C431 N428 1.350 . S
C431 C430 1.434 . S
C169 C76 1.557 . S
C171 C106 1.591 . S
C182 C126 1.508 . S
C180 C87 1.504 . S
C193 C146 1.592 . S
C191 C54 1.556 . S
C204 C166 1.507 . S
C202 C65 1.508 . S
C215 C107 1.592 1_565 S
C213 C32 1.566 . S
C224 C43 1.499 . S
C226 C127 1.512 . S
C235 C10 1.559 . S
C237 C147 1.595 . S
C246 C21 1.508 1_455 S
C248 C167 1.508 . S
C259 C97 0.983 . S
C257 C60 1.010 1_655 S
C270 C117 1.010 . S
C268 C71 1.054 . S
C281 C137 0.993 . S
C279 C82 1.012 . S
C290 C49 1.049 . S
C292 C157 1.010 . S
C301 C16 1.005 . S
C303 C100 0.988 . S
C314 C120 1.008 . S
C312 C27 1.048 . S
C325 C140 0.989 . S
C323 C38 1.012 . S
C334 C5 1.040 . S
C336 C160 1.015 . S
C345 C59 1.523 1_556 S
C347 C90 1.456 . S
C356 C70 1.546 1_556 S
C358 C110 1.498 . S
C369 C130 1.450 . S
C367 C81 1.519 1_556 S
C380 C150 1.501 . S
C378 C48 1.547 1_556 S
C389 C15 1.529 1_655 S
C391 C92 1.456 . S
C402 C112 1.498 . S
C400 C26 1.539 . S
C413 C132 1.459 . S
C411 C37 1.520 . S
C422 C4 1.542 . S
C424 C152 1.504 . S
