# Generated by pormake.
# Topology nom, (4,4)-cn, num edge types: 1
# Building blocks:
#     Node 0, Type 0, BuildingBlock: AZAVOO_clean_linker_0, # of connection points: 4
#     Node 1, Type 0, BuildingBlock: AZAVOO_clean_linker_0, # of connection points: 4
#     Node 2, Type 0, BuildingBlock: AZAVOO_clean_linker_0, # of connection points: 4
#     Node 3, Type 0, BuildingBlock: AZAVOO_clean_linker_0, # of connection points: 4
#     Node 4, Type 0, BuildingBlock: AZAVOO_clean_linker_0, # of connection points: 4
#     Node 5, Type 0, BuildingBlock: AZAVOO_clean_linker_0, # of connection points: 4
#     Node 6, Type 1, BuildingBlock: CEKHIL_clean_sbu_0, # of connection points: 4
#     Node 7, Type 1, BuildingBlock: CEKHIL_clean_sbu_0, # of connection points: 4
#     Node 8, Type 1, BuildingBlock: CEKHIL_clean_sbu_0, # of connection points: 4
#     Node 9, Type 1, BuildingBlock: CEKHIL_clean_sbu_0, # of connection points: 4
#     Node 10, Type 1, BuildingBlock: CEKHIL_clean_sbu_0, # of connection points: 4
#     Node 11, Type 1, BuildingBlock: CEKHIL_clean_sbu_0, # of connection points: 4
#     Edge 12, Type (0, 1), BuildingBlock: MIFKUJ_clean_linker_0, # of connection points: 2
#     Edge 13, Type (0, 1), BuildingBlock: MIFKUJ_clean_linker_0, # of connection points: 2
#     Edge 14, Type (0, 1), BuildingBlock: MIFKUJ_clean_linker_0, # of connection points: 2
#     Edge 15, Type (0, 1), BuildingBlock: MIFKUJ_clean_linker_0, # of connection points: 2
#     Edge 16, Type (0, 1), BuildingBlock: MIFKUJ_clean_linker_0, # of connection points: 2
#     Edge 17, Type (0, 1), BuildingBlock: MIFKUJ_clean_linker_0, # of connection points: 2
#     Edge 18, Type (0, 1), BuildingBlock: MIFKUJ_clean_linker_0, # of connection points: 2
#     Edge 19, Type (0, 1), BuildingBlock: MIFKUJ_clean_linker_0, # of connection points: 2
#     Edge 20, Type (0, 1), BuildingBlock: MIFKUJ_clean_linker_0, # of connection points: 2
#     Edge 21, Type (0, 1), BuildingBlock: MIFKUJ_clean_linker_0, # of connection points: 2
#     Edge 22, Type (0, 1), BuildingBlock: MIFKUJ_clean_linker_0, # of connection points: 2
#     Edge 23, Type (0, 1), BuildingBlock: MIFKUJ_clean_linker_0, # of connection points: 2
#     Edge 24, Type (0, 1), BuildingBlock: MIFKUJ_clean_linker_0, # of connection points: 2
#     Edge 25, Type (0, 1), BuildingBlock: MIFKUJ_clean_linker_0, # of connection points: 2
#     Edge 26, Type (0, 1), BuildingBlock: MIFKUJ_clean_linker_0, # of connection points: 2
#     Edge 27, Type (0, 1), BuildingBlock: MIFKUJ_clean_linker_0, # of connection points: 2
#     Edge 28, Type (0, 1), BuildingBlock: MIFKUJ_clean_linker_0, # of connection points: 2
#     Edge 29, Type (0, 1), BuildingBlock: MIFKUJ_clean_linker_0, # of connection points: 2
#     Edge 30, Type (0, 1), BuildingBlock: MIFKUJ_clean_linker_0, # of connection points: 2
#     Edge 31, Type (0, 1), BuildingBlock: MIFKUJ_clean_linker_0, # of connection points: 2
#     Edge 32, Type (0, 1), BuildingBlock: MIFKUJ_clean_linker_0, # of connection points: 2
#     Edge 33, Type (0, 1), BuildingBlock: MIFKUJ_clean_linker_0, # of connection points: 2
#     Edge 34, Type (0, 1), BuildingBlock: MIFKUJ_clean_linker_0, # of connection points: 2
#     Edge 35, Type (0, 1), BuildingBlock: MIFKUJ_clean_linker_0, # of connection points: 2
# Relax obj value: 0.131
# Max RMSD: 0.224
# Mean RMSD: 0.146
data_MOF--net-nom--node1-CEKHIL_clean_sbu_0--node2-AZAVOO_clean_linker_0--edge1-MIFKUJ_clean_linker_0
_symmetry_space_group_name_H-M    P1
_symmetry_Int_Tables_number       1
_symmetry_cell_setting            triclinic
loop_
_symmetry_equiv_pos_as_xyz
'x, y, z'
_cell_length_a     61.119904
_cell_length_b     61.087358
_cell_length_c     74.960056
_cell_angle_alpha  89.999903
_cell_angle_beta   90.016291
_cell_angle_gamma 123.09726
loop_
_atom_site_label
_atom_site_type_symbol
_atom_site_fract_x
_atom_site_fract_y
_atom_site_fract_z
_atom_type_partial_charge
H0 H 0.05466 0.5877 0.2105 0.0
H1 H 0.18186 0.72749 0.39169 0.0
H2 H 0.99818 0.56106 0.3013 0.0
H3 H 0.96854 0.54082 0.27599 0.0
H4 H 0.96449 0.609 0.27087 0.0
H5 H 0.99373 0.62881 0.29664 0.0
H6 H 0.05536 0.58843 0.2886 0.0
H7 H 0.05749 0.58295 0.2564 0.0
H8 H 0.04517 0.64527 0.24678 0.0
H9 H 0.04318 0.65055 0.279 0.0
H10 H 0.09979 0.61634 0.31873 0.0
H11 H 0.14465 0.63737 0.30781 0.0
H12 H 0.14075 0.70119 0.28699 0.0
H13 H 0.09569 0.67963 0.29763 0.0
H14 H 0.0841 0.61484 0.35787 0.0
H15 H 0.12062 0.6383 0.3788 0.0
H16 H 0.13564 0.71179 0.35896 0.0
H17 H 0.09874 0.68809 0.33843 0.0
H18 H 0.02474 0.58228 0.36363 0.0
H19 H 0.03748 0.58406 0.3947 0.0
H20 H 0.0638 0.6656 0.39698 0.0
H21 H 0.05139 0.66367 0.36572 0.0
H22 H 0.97379 0.56267 0.33195 0.0
H23 H 0.93007 0.5493 0.3415 0.0
H24 H 0.96002 0.62836 0.35899 0.0
H25 H 0.00318 0.64185 0.34799 0.0
O26 O 0.05435 0.59054 0.22318 0.0
O27 O 0.05036 0.62425 0.21902 0.0
O28 O 0.15685 0.67946 0.39469 0.0
O29 O 0.16769 0.71773 0.3833 0.0
C30 C 0.02079 0.61065 0.31289 0.0
C31 C 0.04603 0.62186 0.30552 0.0
C32 C 0.06817 0.6346 0.31662 0.0
C33 C 0.06519 0.63569 0.33516 0.0
C34 C 0.03995 0.62421 0.34265 0.0
C35 C 0.0177 0.61228 0.33147 0.0
C36 C 0.99798 0.59631 0.30081 0.0
C37 C 0.99015 0.57121 0.29509 0.0
C38 C 0.97351 0.55986 0.28049 0.0
C39 C 0.96459 0.57354 0.2712 0.0
C40 C 0.97095 0.59794 0.27778 0.0
C41 C 0.98757 0.60926 0.29251 0.0
C42 C 0.04914 0.61988 0.28606 0.0
C43 C 0.05338 0.60102 0.27949 0.0
C44 C 0.05446 0.59787 0.26111 0.0
C45 C 0.05141 0.61362 0.24902 0.0
C46 C 0.04758 0.63281 0.25572 0.0
C47 C 0.04648 0.6359 0.2741 0.0
C48 C 0.09462 0.64651 0.30893 0.0
C49 C 0.10862 0.63475 0.31166 0.0
C50 C 0.13426 0.64689 0.30554 0.0
C51 C 0.14633 0.67105 0.29663 0.0
C52 C 0.13194 0.68246 0.29361 0.0
C53 C 0.10627 0.67025 0.29971 0.0
C54 C 0.0887 0.64979 0.34675 0.0
C55 C 0.09536 0.636 0.35805 0.0
C56 C 0.11621 0.64944 0.36997 0.0
C57 C 0.13096 0.67694 0.37059 0.0
C58 C 0.12466 0.69064 0.35885 0.0
C59 C 0.10367 0.67717 0.34706 0.0
C60 C 0.03741 0.6229 0.36237 0.0
C61 C 0.03205 0.60017 0.37109 0.0
C62 C 0.0395 0.60129 0.38887 0.0
C63 C 0.0523 0.62517 0.39818 0.0
C64 C 0.05455 0.64707 0.39003 0.0
C65 C 0.04712 0.64593 0.37225 0.0
C66 C 0.99164 0.60332 0.339 0.0
C67 C 0.97084 0.57712 0.3377 0.0
C68 C 0.94587 0.56946 0.34343 0.0
C69 C 0.94131 0.58776 0.35097 0.0
C70 C 0.96254 0.61381 0.35289 0.0
C71 C 0.98736 0.62152 0.34683 0.0
C72 C 0.05202 0.60988 0.2295 0.0
C73 C 0.15262 0.69134 0.38358 0.0
H74 H 0.60761 0.10776 0.37728 0.0
H75 H 0.52002 0.16299 0.5549 0.0
H76 H 0.56728 0.02827 0.45793 0.0
H77 H 0.56183 0.99897 0.43359 0.0
H78 H 0.4788 0.96655 0.43326 0.0
H79 H 0.48446 0.99556 0.45781 0.0
H80 H 0.59146 0.09144 0.4543 0.0
H81 H 0.60597 0.1029 0.42333 0.0
H82 H 0.52557 0.05644 0.40573 0.0
H83 H 0.51133 0.04544 0.43677 0.0
H84 H 0.58869 0.12582 0.48837 0.0
H85 H 0.59996 0.16986 0.48141 0.0
H86 H 0.53287 0.13726 0.44644 0.0
H87 H 0.52083 0.09336 0.45453 0.0
H88 H 0.57121 0.09782 0.52416 0.0
H89 H 0.57086 0.12702 0.54636 0.0
H90 H 0.50634 0.12236 0.5187 0.0
H91 H 0.50644 0.09265 0.49689 0.0
H92 H 0.55507 0.04037 0.52636 0.0
H93 H 0.55611 0.0472 0.55848 0.0
H94 H 0.48683 0.04946 0.55422 0.0
H95 H 0.48632 0.0431 0.52196 0.0
H96 H 0.5366 0.9925 0.49222 0.0
H97 H 0.5094 0.94635 0.50128 0.0
H98 H 0.44456 0.95479 0.51029 0.0
H99 H 0.4715 0.00041 0.50099 0.0
O100 O 0.60144 0.10307 0.38944 0.0
O101 O 0.5598 0.07876 0.38109 0.0
O102 O 0.55154 0.1506 0.56121 0.0
O103 O 0.521 0.15197 0.5461 0.0
C104 C 0.53018 0.03428 0.47249 0.0
C105 C 0.54175 0.06039 0.46659 0.0
C106 C 0.54461 0.07969 0.47852 0.0
C107 C 0.53711 0.0732 0.49653 0.0
C108 C 0.52623 0.04729 0.50252 0.0
C109 C 0.5218 0.02761 0.49039 0.0
C110 C 0.52627 0.01402 0.45959 0.0
C111 C 0.54787 0.01445 0.4528 0.0
C112 C 0.54473 0.99784 0.43883 0.0
C113 C 0.5199 0.98054 0.43138 0.0
C114 C 0.49813 0.97937 0.43882 0.0
C115 C 0.5013 0.99596 0.45282 0.0
C116 C 0.55038 0.06747 0.44776 0.0
C117 C 0.57703 0.08382 0.44373 0.0
C118 C 0.58525 0.0903 0.42603 0.0
C119 C 0.56693 0.08052 0.41204 0.0
C120 C 0.5402 0.06424 0.41617 0.0
C121 C 0.53201 0.05785 0.43388 0.0
C122 C 0.55387 0.10638 0.47204 0.0
C123 C 0.57657 0.12827 0.47911 0.0
C124 C 0.58306 0.15344 0.47501 0.0
C125 C 0.56716 0.15718 0.46351 0.0
C126 C 0.54522 0.13515 0.45569 0.0
C127 C 0.53851 0.11001 0.46005 0.0
C128 C 0.53878 0.09304 0.50897 0.0
C129 C 0.5571 0.10322 0.52289 0.0
C130 C 0.55685 0.11989 0.53555 0.0
C131 C 0.53848 0.12693 0.53434 0.0
C132 C 0.5207 0.1173 0.52004 0.0
C133 C 0.52079 0.10043 0.50752 0.0
C134 C 0.52084 0.04159 0.52184 0.0
C135 C 0.53945 0.04115 0.53248 0.0
C136 C 0.54003 0.04514 0.55086 0.0
C137 C 0.52188 0.04947 0.55885 0.0
C138 C 0.50141 0.04675 0.54839 0.0
C139 C 0.50088 0.0428 0.53 0.0
C140 C 0.50608 -0.00015 0.49609 0.0
C141 C 0.51651 0.9843 0.49612 0.0
C142 C 0.50099 0.95802 0.50124 0.0
C143 C 0.47496 0.94711 0.50661 0.0
C144 C 0.46466 0.96279 0.5065 0.0
C145 C 0.48002 0.98884 0.50121 0.0
C146 C 0.57573 0.08734 0.39325 0.0
C147 C 0.53753 0.14392 0.54803 0.0
H148 H 0.45422 0.42421 0.76257 0.0
H149 H 0.50814 0.39316 0.56852 0.0
H150 H 0.44432 0.49812 0.67322 0.0
H151 H 0.4324 0.51141 0.70033 0.0
H152 H 0.36324 0.43356 0.70548 0.0
H153 H 0.37489 0.42072 0.67788 0.0
H154 H 0.46855 0.46402 0.68977 0.0
H155 H 0.46905 0.4545 0.72142 0.0
H156 H 0.39467 0.38122 0.71504 0.0
H157 H 0.39449 0.39104 0.68335 0.0
H158 H 0.49443 0.44273 0.65869 0.0
H159 H 0.50993 0.41507 0.66813 0.0
H160 H 0.43022 0.34811 0.66898 0.0
H161 H 0.41515 0.37578 0.65888 0.0
H162 H 0.49802 0.47257 0.62407 0.0
H163 H 0.5234 0.46557 0.60228 0.0
H164 H 0.45892 0.38522 0.5962 0.0
H165 H 0.43354 0.39267 0.61779 0.0
H166 H 0.47443 0.50293 0.62067 0.0
H167 H 0.49344 0.51833 0.59102 0.0
H168 H 0.43563 0.44278 0.56907 0.0
H169 H 0.41641 0.42786 0.59866 0.0
H170 H 0.44331 0.50985 0.63763 0.0
H171 H 0.4191 0.52956 0.6289 0.0
H172 H 0.34817 0.45258 0.62571 0.0
H173 H 0.37272 0.43317 0.6339 0.0
O174 O 0.45329 0.42776 0.75011 0.0
O175 O 0.41383 0.39157 0.74664 0.0
O176 O 0.53026 0.43842 0.57979 0.0
O177 O 0.49855 0.39642 0.57722 0.0
C178 C 0.4212 0.44933 0.65995 0.0
C179 C 0.43147 0.43446 0.66523 0.0
C180 C 0.44414 0.4279 0.65267 0.0
C181 C 0.44831 0.43789 0.63517 0.0
C182 C 0.43819 0.45296 0.62991 0.0
C183 C 0.4238 0.45784 0.64213 0.0
C184 C 0.41056 0.45844 0.67371 0.0
C185 C 0.42613 0.48422 0.67986 0.0
C186 C 0.41944 0.49166 0.69544 0.0
C187 C 0.39716 0.47337 0.70521 0.0
C188 C 0.38048 0.4481 0.69822 0.0
C189 C 0.38714 0.4407 0.68253 0.0
C190 C 0.43152 0.42819 0.68434 0.0
C191 C 0.45243 0.4459 0.69525 0.0
C192 C 0.45264 0.44042 0.71331 0.0
C193 C 0.4319 0.41708 0.72076 0.0
C194 C 0.41094 0.39937 0.70973 0.0
C195 C 0.41079 0.40488 0.69164 0.0
C196 C 0.4537 0.41121 0.65811 0.0
C197 C 0.48041 0.42204 0.6608 0.0
C198 C 0.48916 0.40624 0.66634 0.0
C199 C 0.4713 0.37935 0.66937 0.0
C200 C 0.44454 0.36863 0.66655 0.0
C201 C 0.43585 0.38442 0.66092 0.0
C202 C 0.46392 0.43316 0.62242 0.0
C203 C 0.48939 0.4535 0.61797 0.0
C204 C 0.50386 0.44943 0.60555 0.0
C205 C 0.49319 0.42481 0.59751 0.0
C206 C 0.46773 0.40439 0.60217 0.0
C207 C 0.45321 0.40855 0.61451 0.0
C208 C 0.44397 0.46434 0.61176 0.0
C209 C 0.46508 0.49018 0.6093 0.0
C210 C 0.47613 0.49882 0.59241 0.0
C211 C 0.46622 0.48169 0.57776 0.0
C212 C 0.44355 0.45657 0.58003 0.0
C213 C 0.4325 0.44797 0.59692 0.0
C214 C 0.4098 0.47009 0.63615 0.0
C215 C 0.42264 0.4973 0.63475 0.0
C216 C 0.4087 0.50849 0.62996 0.0
C217 C 0.38167 0.49264 0.62656 0.0
C218 C 0.36901 0.46535 0.62791 0.0
C219 C 0.38295 0.45422 0.63268 0.0
C220 C 0.43233 0.41129 0.73994 0.0
C221 C 0.50853 0.4204 0.58433 0.0
H222 H 0.0416 0.59755 0.94308 0.0
H223 H 0.17248 0.6097 0.76599 0.0
H224 H 0.98773 0.57691 0.85712 0.0
H225 H 0.95568 0.5582 0.88119 0.0
H226 H 0.93474 0.48083 0.86576 0.0
H227 H 0.96794 0.49994 0.8424 0.0
H228 H 0.04953 0.60822 0.86538 0.0
H229 H 0.05053 0.61179 0.89794 0.0
H230 H 0.01303 0.52808 0.9022 0.0
H231 H 0.0125 0.52485 0.86966 0.0
H232 H 0.09736 0.6223 0.83656 0.0
H233 H 0.13991 0.63247 0.84735 0.0
H234 H 0.10392 0.55201 0.86372 0.0
H235 H 0.0619 0.5422 0.85308 0.0
H236 H 0.07298 0.61589 0.79557 0.0
H237 H 0.112 0.63356 0.77695 0.0
H238 H 0.12047 0.57104 0.79426 0.0
H239 H 0.08115 0.55329 0.81254 0.0
H240 H 0.01421 0.58521 0.78365 0.0
H241 H 0.02289 0.58883 0.75151 0.0
H242 H 0.04525 0.53301 0.7562 0.0
H243 H 0.03549 0.52882 0.78799 0.0
H244 H 0.96302 0.55695 0.81488 0.0
H245 H 0.91892 0.52632 0.80318 0.0
H246 H 0.94026 0.47108 0.79122 0.0
H247 H 0.98407 0.5018 0.80265 0.0
O248 O 0.04157 0.59578 0.93024 0.0
O249 O 0.02253 0.55271 0.93169 0.0
O250 O 0.1503 0.63336 0.76339 0.0
O251 O 0.15701 0.60315 0.77325 0.0
C252 C 0.0042 0.55163 0.83687 0.0
C253 C 0.02886 0.56413 0.84539 0.0
C254 C 0.05173 0.5738 0.83518 0.0
C255 C 0.05021 0.57244 0.81638 0.0
C256 C 0.02559 0.55959 0.80785 0.0
C257 C 0.00253 0.54863 0.8181 0.0
C258 C 0.98028 0.53983 0.84806 0.0
C259 C 0.97572 0.55587 0.85867 0.0
C260 C 0.9573 0.54509 0.8724 0.0
C261 C 0.94286 0.51799 0.87561 0.0
C262 C 0.94592 0.50181 0.86392 0.0
C263 C 0.9646 0.51265 0.85035 0.0
C264 C 0.03073 0.56628 0.86518 0.0
C265 C 0.04173 0.59072 0.87339 0.0
C266 C 0.04218 0.59268 0.89198 0.0
C267 C 0.03171 0.5702 0.90268 0.0
C268 C 0.02116 0.54577 0.89437 0.0
C269 C 0.0208 0.54386 0.87578 0.0
C270 C 0.07659 0.58155 0.84412 0.0
C271 C 0.0987 0.60709 0.84284 0.0
C272 C 0.12293 0.6128 0.84888 0.0
C273 C 0.12528 0.59303 0.85636 0.0
C274 C 0.10276 0.56779 0.85832 0.0
C275 C 0.0787 0.56213 0.85224 0.0
C276 C 0.07439 0.58347 0.80552 0.0
C277 C 0.08333 0.60608 0.79533 0.0
C278 C 0.1056 0.61611 0.78471 0.0
C279 C 0.11942 0.60376 0.78417 0.0
C280 C 0.11038 0.58109 0.79443 0.0
C281 C 0.08799 0.57098 0.80494 0.0
C282 C 0.02444 0.55693 0.78813 0.0
C283 C 0.02007 0.5731 0.77756 0.0
C284 C 0.02535 0.57536 0.75926 0.0
C285 C 0.0352 0.56155 0.75129 0.0
C286 C 0.03749 0.54378 0.76177 0.0
C287 C 0.03203 0.54141 0.77999 0.0
C288 C 0.97674 0.53164 0.80947 0.0
C289 C 0.95818 0.53837 0.80947 0.0
C290 C 0.93301 0.5208 0.80292 0.0
C291 C 0.92609 0.49626 0.79627 0.0
C292 C 0.94504 0.48996 0.79593 0.0
C293 C 0.97009 0.50748 0.80247 0.0
C294 C 0.03165 0.57226 0.92241 0.0
C295 C 0.14315 0.61439 0.77296 0.0
H296 H 0.55285 0.99334 0.86822 0.0
H297 H 0.58798 0.87827 0.03984 0.0
H298 H 0.58447 0.0505 0.96245 0.0
H299 H 0.5871 0.08184 0.94094 0.0
H300 H 0.6651 0.10358 0.92659 0.0
H301 H 0.6627 0.07329 0.94904 0.0
H302 H 0.56069 0.99297 0.94602 0.0
H303 H 0.54948 0.98922 0.91431 0.0
H304 H 0.63038 0.02195 0.90062 0.0
H305 H 0.64124 0.02545 0.93237 0.0
H306 H 0.55353 0.95026 0.97695 0.0
H307 H 0.53422 0.90532 0.96719 0.0
H308 H 0.60413 0.92902 0.93697 0.0
H309 H 0.62389 0.97377 0.94786 0.0
H310 H 0.56977 0.97202 0.01465 0.0
H311 H 0.55767 0.93443 0.03361 0.0
H312 H 0.61776 0.92804 0.00866 0.0
H313 H 0.62995 0.96593 0.98998 0.0
H314 H 0.59698 0.03532 0.0207 0.0
H315 H 0.59297 0.02878 0.05283 0.0
H316 H 0.64453 0.00088 0.05061 0.0
H317 H 0.65047 0.01011 0.01872 0.0
H318 H 0.60645 0.07149 0.9932 0.0
H319 H 0.62967 0.11618 0.00481 0.0
H320 H 0.69988 0.11578 0.00996 0.0
H321 H 0.6765 0.0711 0.99821 0.0
O322 O 0.55762 0.99457 0.88066 0.0
O323 O 0.59927 0.01054 0.87433 0.0
O324 O 0.56197 0.89753 0.04506 0.0
O325 O 0.59237 0.89318 0.03251 0.0
C326 C 0.62 0.03807 0.96845 0.0
C327 C 0.60869 0.01312 0.96064 0.0
C328 C 0.60296 0.99158 0.97125 0.0
C329 C 0.60843 0.99493 0.98974 0.0
C330 C 0.62031 0.02007 0.99754 0.0
C331 C 0.62634 0.0417 0.98679 0.0
C332 C 0.62346 0.05983 0.95736 0.0
C333 C 0.60237 0.06262 0.95499 0.0
C334 C 0.60381 0.08028 0.94249 0.0
C335 C 0.62618 0.09506 0.93177 0.0
C336 C 0.64768 0.09285 0.93471 0.0
C337 C 0.64637 0.07549 0.94749 0.0
C338 C 0.60174 0.00945 0.94143 0.0
C339 C 0.57588 0.9991 0.93613 0.0
C340 C 0.56958 0.99708 0.91802 0.0
C341 C 0.58905 0.00537 0.90492 0.0
C342 C 0.61492 0.01542 0.91035 0.0
C343 C 0.62118 0.01742 0.92845 0.0
C344 C 0.59017 0.96516 0.96324 0.0
C345 C 0.56459 0.94573 0.96814 0.0
C346 C 0.55352 0.92007 0.96239 0.0
C347 C 0.56763 0.91342 0.9513 0.0
C348 C 0.59288 0.9333 0.94576 0.0
C349 C 0.6041 0.95894 0.95177 0.0
C350 C 0.60083 0.97177 0.00102 0.0
C351 C 0.58035 0.96252 0.01335 0.0
C352 C 0.57345 0.94102 0.02413 0.0
C353 C 0.58678 0.92824 0.02266 0.0
C354 C 0.60712 0.93744 0.01015 0.0
C355 C 0.61409 0.95903 -0.00056 0.0
C356 C 0.6237 0.02282 0.01726 0.0
C357 C 0.6084 0.02899 0.02726 0.0
C358 C 0.60569 0.02466 0.04563 0.0
C359 C 0.61757 0.01327 0.05431 0.0
C360 C 0.63496 0.00956 0.04451 0.0
C361 C 0.63829 0.01469 0.02619 0.0
C362 C 0.63993 0.06826 0.99461 0.0
C363 C 0.62689 0.08115 0.99671 0.0
C364 C 0.64015 0.10662 0.00335 0.0
C365 C 0.66663 0.11952 0.00817 0.0
C366 C 0.67944 0.10627 0.00647 0.0
C367 C 0.66618 0.08084 -0.00028 0.0
C368 C 0.58239 0.00367 0.88571 0.0
C369 C 0.57955 0.90541 0.03411 0.0
H370 H 0.42505 0.40526 0.05362 0.0
H371 H 0.61112 0.46006 0.20445 0.0
H372 H 0.43554 0.47328 0.13621 0.0
H373 H 0.41165 0.48131 0.11375 0.0
H374 H 0.48208 0.55606 0.10185 0.0
H375 H 0.50546 0.54808 0.12465 0.0
H376 H 0.45587 0.43426 0.12813 0.0
H377 H 0.43809 0.41473 0.09889 0.0
H378 H 0.49003 0.4898 0.07395 0.0
H379 H 0.50788 0.50897 0.10324 0.0
H380 H 0.49719 0.42935 0.15276 0.0
H381 H 0.52129 0.41032 0.14216 0.0
H382 H 0.56807 0.47782 0.10837 0.0
H383 H 0.54371 0.49616 0.11874 0.0
H384 H 0.50128 0.45691 0.19176 0.0
H385 H 0.52602 0.44321 0.20879 0.0
H386 H 0.59233 0.48926 0.17396 0.0
H387 H 0.56755 0.50316 0.15727 0.0
H388 H 0.48083 0.4998 0.19809 0.0
H389 H 0.49384 0.51053 0.22931 0.0
H390 H 0.57459 0.54524 0.21405 0.0
H391 H 0.5615 0.53629 0.18287 0.0
H392 H 0.4543 0.51559 0.16644 0.0
H393 H 0.45268 0.55336 0.1747 0.0
H394 H 0.53717 0.60126 0.17602 0.0
H395 H 0.53845 0.56403 0.16624 0.0
O396 O 0.43254 0.41332 0.06503 0.0
O397 O 0.45945 0.45241 0.05289 0.0
O398 O 0.56611 0.44142 0.2153 0.0
O399 O 0.60097 0.46535 0.19807 0.0
C400 C 0.48763 0.50288 0.14277 0.0
C401 C 0.49306 0.48488 0.13567 0.0
C402 C 0.50861 0.47854 0.14536 0.0
C403 C 0.51724 0.48869 0.1627 0.0
C404 C 0.51177 0.50666 0.16984 0.0
C405 C 0.49794 0.51466 0.15953 0.0
C406 C 0.47219 0.51007 0.13196 0.0
C407 C 0.44553 0.49169 0.12908 0.0
C408 C 0.43201 0.49623 0.11616 0.0
C409 C 0.44503 0.51917 0.10584 0.0
C410 C 0.47135 0.53831 0.10967 0.0
C411 C 0.48481 0.5338 0.12266 0.0
C412 C 0.48297 0.47305 0.1178 0.0
C413 C 0.46344 0.4464 0.11632 0.0
C414 C 0.45329 0.43533 0.0996 0.0
C415 C 0.46255 0.45073 0.08408 0.0
C416 C 0.48238 0.4774 0.08563 0.0
C417 C 0.49256 0.48842 0.10234 0.0
C418 C 0.51881 0.46415 0.13654 0.0
C419 C 0.51217 0.43956 0.14269 0.0
C420 C 0.52607 0.42886 0.13672 0.0
C421 C 0.54677 0.44263 0.12451 0.0
C422 C 0.55204 0.46643 0.11754 0.0
C423 C 0.53816 0.47703 0.12348 0.0
C424 C 0.53255 0.48087 0.17322 0.0
C425 C 0.52118 0.46408 0.18789 0.0
C426 C 0.53534 0.45625 0.19755 0.0
C427 C 0.56112 0.46505 0.19268 0.0
C428 C 0.57251 0.48207 0.17805 0.0
C429 C 0.55838 0.48998 0.16846 0.0
C430 C 0.52016 0.51666 0.18828 0.0
C431 C 0.50138 0.51035 0.2015 0.0
C432 C 0.50886 0.5163 0.21934 0.0
C433 C 0.53523 0.52826 0.22431 0.0
C434 C 0.55414 0.53619 0.21082 0.0
C435 C 0.54667 0.53072 0.19296 0.0
C436 C 0.49648 0.53702 0.16562 0.0
C437 C 0.47242 0.53433 0.16834 0.0
C438 C 0.47158 0.55593 0.1733 0.0
C439 C 0.49482 0.58056 0.17601 0.0
C440 C 0.51885 0.58289 0.17368 0.0
C441 C 0.51964 0.56147 0.16834 0.0
C442 C 0.4515 0.43897 0.06637 0.0
C443 C 0.57611 0.4565 0.20273 0.0
Co444 Co 0.63336 0.44954 0.40974 0.0
O445 O 0.66012 0.4518 0.39505 0.0
O446 O 0.66462 0.48459 0.41095 0.0
C447 C 0.62209 0.41147 0.42267 0.0
O448 O 0.60998 0.45363 0.42701 0.0
Co449 Co 0.57586 0.40314 0.40408 0.0
O450 O 0.56925 0.41748 0.42555 0.0
C451 C 0.59938 0.44773 0.3792 0.0
C452 C 0.67497 0.47584 0.40028 0.0
C453 C 0.58601 0.43972 0.43221 0.0
O454 O 0.61996 0.45999 0.38902 0.0
O455 O 0.58055 0.42415 0.38221 0.0
O456 O 0.64188 0.43339 0.42862 0.0
O457 O 0.61132 0.41307 0.40835 0.0
Co458 Co 0.24344 0.6528 0.57568 0.0
O459 O 0.26319 0.64677 0.59263 0.0
O460 O 0.23366 0.61686 0.57421 0.0
C461 C 0.27797 0.6905 0.56504 0.0
O462 O 0.22009 0.65214 0.55592 0.0
Co463 Co 0.24042 0.70176 0.5783 0.0
O464 O 0.22708 0.69217 0.55352 0.0
C465 C 0.20873 0.65707 0.60267 0.0
C466 C 0.25117 0.62309 0.58651 0.0
C467 C 0.21735 0.66903 0.54773 0.0
O468 O 0.21562 0.64346 0.59416 0.0
O469 O 0.21792 0.68113 0.59918 0.0
O470 O 0.27279 0.66819 0.55907 0.0
O471 O 0.26345 0.68928 0.57803 0.0
Co472 Co 0.63018 0.24895 0.73919 0.0
O473 O 0.62335 0.26683 0.72123 0.0
O474 O 0.5949 0.24074 0.74174 0.0
C475 C 0.66939 0.2837 0.74713 0.0
O476 O 0.63092 0.2284 0.76045 0.0
Co477 Co 0.67662 0.24226 0.73561 0.0
O478 O 0.671 0.23537 0.76157 0.0
C479 C 0.6291 0.2089 0.71424 0.0
C480 C 0.60034 0.25633 0.72824 0.0
C481 C 0.64896 0.22752 0.76866 0.0
O482 O 0.61771 0.21846 0.72253 0.0
O483 O 0.65298 0.21663 0.71688 0.0
O484 O 0.64813 0.28049 0.75365 0.0
O485 O 0.66624 0.26713 0.73502 0.0
Co486 Co 0.39291 0.60138 0.90221 0.0
O487 O 0.37763 0.61135 0.88416 0.0
O488 O 0.35543 0.57922 0.90363 0.0
C489 C 0.42187 0.64206 0.91193 0.0
O490 O 0.40131 0.58629 0.92331 0.0
Co491 Co 0.45052 0.6184 0.90077 0.0
O492 O 0.44474 0.6063 0.92587 0.0
C493 C 0.4124 0.57775 0.87616 0.0
C494 C 0.35519 0.59313 0.8906 0.0
C495 C 0.42171 0.59129 0.93198 0.0
O496 O 0.39381 0.57671 0.88495 0.0
O497 O 0.43657 0.5944 0.87955 0.0
O498 O 0.39785 0.62931 0.91746 0.0
O499 O 0.42722 0.63075 0.89966 0.0
Co500 Co 0.79925 0.42284 0.08033 0.0
O501 O 0.77215 0.41289 0.09765 0.0
O502 O 0.78631 0.44531 0.07825 0.0
C503 C 0.78401 0.38222 0.07044 0.0
O504 O 0.82536 0.43792 0.05979 0.0
Co505 Co 0.83742 0.40475 0.08314 0.0
O506 O 0.84472 0.41563 0.05779 0.0
C507 C 0.84363 0.44587 0.10733 0.0
C508 C 0.77016 0.43134 0.09096 0.0
C509 C 0.83933 0.43144 0.05132 0.0
O510 O 0.8263 0.44699 0.09837 0.0
O511 O 0.84968 0.42923 0.10405 0.0
O512 O 0.77442 0.39523 0.06444 0.0
O513 O 0.80084 0.39317 0.08324 0.0
Co514 Co 0.45568 0.81943 0.23233 0.0
O515 O 0.44894 0.79262 0.21566 0.0
O516 O 0.48163 0.81073 0.23509 0.0
C517 C 0.41403 0.79991 0.24153 0.0
O518 O 0.4674 0.84608 0.25242 0.0
Co519 Co 0.43015 0.8511 0.2272 0.0
O520 O 0.44302 0.86342 0.25174 0.0
C521 C 0.47466 0.86255 0.20458 0.0
C522 C 0.46875 0.79343 0.22268 0.0
C523 C 0.45981 0.86023 0.25923 0.0
O524 O 0.47838 0.84748 0.2143 0.0
O525 O 0.45517 0.86478 0.20665 0.0
O526 O 0.42907 0.79312 0.24824 0.0
O527 O 0.42385 0.81647 0.22854 0.0
H528 H 0.16822 0.69777 0.26553 0.0
H529 H 0.21405 0.72096 0.25661 0.0
H530 H 0.23277 0.69757 0.30559 0.0
H531 H 0.18719 0.67531 0.31496 0.0
H532 H 0.2682 0.74734 0.29883 0.0
H533 H 0.228 0.66737 0.26593 0.0
H534 H 0.1959 0.63271 0.24576 0.0
H535 H 0.22066 0.68835 0.20313 0.0
H536 H 0.25268 0.72344 0.22313 0.0
H537 H 0.39127 0.77052 0.27137 0.0
H538 H 0.34593 0.75027 0.2811 0.0
H539 H 0.33076 0.78352 0.23574 0.0
H540 H 0.37612 0.80404 0.22601 0.0
H541 H 0.29392 0.72938 0.24058 0.0
H542 H 0.33554 0.80919 0.27438 0.0
H543 H 0.36841 0.8424 0.29495 0.0
H544 H 0.34153 0.78495 0.33653 0.0
H545 H 0.30875 0.75127 0.3161 0.0
C546 C 0.18212 0.69774 0.27447 0.0
C547 C 0.17403 0.6846 0.29093 0.0
C548 C 0.20827 0.71079 0.26928 0.0
C549 C 0.22677 0.71072 0.28034 0.0
C550 C 0.2188 0.69779 0.29682 0.0
C551 C 0.19269 0.68485 0.30207 0.0
C552 C 0.25448 0.72426 0.27478 0.0
C553 C 0.27383 0.74317 0.28619 0.0
C554 C 0.2618 0.71914 0.25815 0.0
C555 C 0.24255 0.69809 0.24609 0.0
C556 C 0.22645 0.67226 0.2523 0.0
C557 C 0.20829 0.65253 0.24089 0.0
C558 C 0.20619 0.65834 0.22319 0.0
C559 C 0.22228 0.68389 0.21685 0.0
C560 C 0.24045 0.7037 0.22822 0.0
C561 C 0.37831 0.77365 0.26355 0.0
C562 C 0.38716 0.78881 0.24793 0.0
C563 C 0.35249 0.76214 0.26914 0.0
C564 C 0.33511 0.76549 0.25914 0.0
C565 C 0.34394 0.78074 0.24361 0.0
C566 C 0.36983 0.7925 0.23812 0.0
C567 C 0.30749 0.7524 0.26461 0.0
C568 C 0.2882 0.73355 0.25319 0.0
C569 C 0.30027 0.75737 0.28129 0.0
C570 C 0.31985 0.77764 0.29365 0.0
C571 C 0.33678 0.80358 0.28786 0.0
C572 C 0.35537 0.8225 0.29951 0.0
C573 C 0.35711 0.81578 0.31703 0.0
C574 C 0.34019 0.79012 0.32295 0.0
C575 C 0.32158 0.77111 0.31134 0.0
H576 H 0.37151 0.83045 0.32602 0.0
H577 H 0.19213 0.64303 0.21437 0.0
H578 H 0.53185 0.17131 0.45996 0.0
H579 H 0.54072 0.21482 0.45457 0.0
H580 H 0.62348 0.24723 0.45563 0.0
H581 H 0.61491 0.20353 0.46017 0.0
H582 H 0.60414 0.27447 0.4772 0.0
H583 H 0.60068 0.24129 0.41776 0.0
H584 H 0.58012 0.20852 0.39373 0.0
H585 H 0.51356 0.21492 0.39444 0.0
H586 H 0.53358 0.24746 0.41867 0.0
H587 H 0.65289 0.40022 0.44128 0.0
H588 H 0.64241 0.35714 0.45029 0.0
H589 H 0.56365 0.32254 0.43076 0.0
H590 H 0.57473 0.36554 0.42069 0.0
H591 H 0.57986 0.29535 0.41949 0.0
H592 H 0.58133 0.32844 0.47743 0.0
H593 H 0.59882 0.35965 0.5025 0.0
H594 H 0.66444 0.35201 0.50649 0.0
H595 H 0.64752 0.32101 0.48129 0.0
C596 C 0.55197 0.18754 0.45874 0.0
C597 C 0.57267 0.18378 0.46032 0.0
C598 C 0.55696 0.21243 0.45586 0.0
C599 C 0.58271 0.2341 0.45471 0.0
C600 C 0.60346 0.23066 0.45659 0.0
C601 C 0.5985 0.20569 0.45923 0.0
C602 C 0.58786 0.26027 0.45111 0.0
C603 C 0.59916 0.27928 0.46454 0.0
C604 C 0.58043 0.266 0.43482 0.0
C605 C 0.5685 0.2466 0.42015 0.0
C606 C 0.58156 0.23554 0.4129 0.0
C607 C 0.57002 0.21704 0.39922 0.0
C608 C 0.54552 0.20959 0.3926 0.0
C609 C 0.53253 0.22068 0.3996 0.0
C610 C 0.54397 0.23917 0.41329 0.0
C611 C 0.63324 0.38344 0.43917 0.0
C612 C 0.6146 0.3861 0.43029 0.0
C613 C 0.62718 0.35881 0.44442 0.0
C614 C 0.6021 0.33649 0.44143 0.0
C615 C 0.58317 0.33939 0.43317 0.0
C616 C 0.58944 0.36394 0.42748 0.0
C617 C 0.59621 0.31001 0.44563 0.0
C618 C 0.58477 0.29078 0.43226 0.0
C619 C 0.60305 0.30398 0.46215 0.0
C620 C 0.61325 0.32256 0.47736 0.0
C621 C 0.59958 0.33355 0.48357 0.0
C622 C 0.60938 0.35118 0.49782 0.0
C623 C 0.63276 0.35785 0.50606 0.0
C624 C 0.64635 0.34684 0.50009 0.0
C625 C 0.63664 0.32921 0.48584 0.0
H626 H 0.64031 0.37151 0.51708 0.0
H627 H 0.53662 0.19527 0.38201 0.0
H628 H 0.38649 0.53622 0.64111 0.0
H629 H 0.3607 0.55473 0.63437 0.0
H630 H 0.31606 0.49375 0.59572 0.0
H631 H 0.34247 0.47568 0.60189 0.0
H632 H 0.32832 0.53999 0.58303 0.0
H633 H 0.29086 0.49169 0.63696 0.0
H634 H 0.29123 0.47835 0.66795 0.0
H635 H 0.3219 0.55667 0.68598 0.0
H636 H 0.32208 0.57058 0.65506 0.0
H637 H 0.23529 0.57484 0.57292 0.0
H638 H 0.25301 0.5483 0.58021 0.0
H639 H 0.30315 0.60491 0.61988 0.0
H640 H 0.28534 0.63116 0.61291 0.0
H641 H 0.28401 0.55644 0.63168 0.0
H642 H 0.32544 0.60549 0.57788 0.0
H643 H 0.32629 0.61967 0.54694 0.0
H644 H 0.28886 0.54037 0.52882 0.0
H645 H 0.28748 0.52568 0.55971 0.0
C646 C 0.37142 0.52692 0.63101 0.0
C647 C 0.3665 0.5044 0.62209 0.0
C648 C 0.35647 0.53735 0.62732 0.0
C649 C 0.33612 0.52535 0.61476 0.0
C650 C 0.33152 0.50321 0.60556 0.0
C651 C 0.34651 0.4928 0.6092 0.0
C652 C 0.31981 0.53607 0.61116 0.0
C653 C 0.31824 0.54314 0.59362 0.0
C654 C 0.30698 0.54058 0.62502 0.0
C655 C 0.30667 0.53222 0.64366 0.0
C656 C 0.29785 0.50611 0.64752 0.0
C657 C 0.29793 0.49844 0.66508 0.0
C658 C 0.30663 0.51666 0.67892 0.0
C659 C 0.31518 0.54258 0.67524 0.0
C660 C 0.31517 0.55037 0.6577 0.0
C661 C 0.24977 0.58137 0.58339 0.0
C662 C 0.25905 0.60518 0.59225 0.0
C663 C 0.25999 0.56628 0.58747 0.0
C664 C 0.27972 0.57483 0.60041 0.0
C665 C 0.28801 0.59794 0.60984 0.0
C666 C 0.27784 0.61297 0.60578 0.0
C667 C 0.29283 0.56066 0.6036 0.0
C668 C 0.29382 0.55295 0.62106 0.0
C669 C 0.30519 0.55563 0.58969 0.0
C670 C 0.30608 0.56445 0.57112 0.0
C671 C 0.3172 0.59106 0.56731 0.0
C672 C 0.31781 0.59919 0.54978 0.0
C673 C 0.30756 0.58093 0.53593 0.0
C674 C 0.29674 0.55449 0.53957 0.0
C675 C 0.29605 0.54625 0.55708 0.0
H676 H 0.30805 0.58726 0.52237 0.0
H677 H 0.30669 0.51069 0.6925 0.0
H678 H 0.91038 0.46343 0.76753 0.0
H679 H 0.866 0.42843 0.75963 0.0
H680 H 0.8359 0.45003 0.80355 0.0
H681 H 0.88045 0.4844 0.81205 0.0
H682 H 0.81362 0.39869 0.80281 0.0
H683 H 0.82924 0.46374 0.76006 0.0
H684 H 0.85322 0.49652 0.73648 0.0
H685 H 0.84715 0.43718 0.70213 0.0
H686 H 0.82344 0.40409 0.72561 0.0
H687 H 0.68103 0.3191 0.77359 0.0
H688 H 0.72424 0.35612 0.78224 0.0
H689 H 0.75975 0.33419 0.74238 0.0
H690 H 0.71659 0.29715 0.73361 0.0
H691 H 0.77812 0.38675 0.74151 0.0
H692 H 0.76323 0.32202 0.78496 0.0
H693 H 0.73829 0.28938 0.80845 0.0
H694 H 0.74214 0.34876 0.84155 0.0
H695 H 0.76675 0.3817 0.81812 0.0
C696 C 0.89433 0.46074 0.77553 0.0
C697 C 0.89896 0.47668 0.79044 0.0
C698 C 0.86894 0.44087 0.77089 0.0
C699 C 0.84759 0.43677 0.7809 0.0
C700 C 0.85208 0.4529 0.79562 0.0
C701 C 0.87754 0.47272 0.80034 0.0
C702 C 0.82072 0.41499 0.77633 0.0
C703 C 0.80569 0.39633 0.78949 0.0
C704 C 0.81057 0.41163 0.75885 0.0
C705 C 0.82474 0.43147 0.74466 0.0
C706 C 0.83318 0.45771 0.74753 0.0
C707 C 0.8467 0.47634 0.73417 0.0
C708 C 0.85176 0.46895 0.71783 0.0
C709 C 0.84324 0.44289 0.7148 0.0
C710 C 0.82973 0.42418 0.72812 0.0
C711 C 0.69805 0.32209 0.76673 0.0
C712 C 0.69548 0.30528 0.75292 0.0
C713 C 0.7227 0.34319 0.77171 0.0
C714 C 0.74513 0.34779 0.76298 0.0
C715 C 0.74262 0.33096 0.74925 0.0
C716 C 0.71799 0.30978 0.74431 0.0
C717 C 0.77124 0.37045 0.76794 0.0
C718 C 0.78606 0.38925 0.75485 0.0
C719 C 0.78111 0.374 0.78549 0.0
C720 C 0.76662 0.35429 0.7997 0.0
C721 C 0.75859 0.32809 0.79719 0.0
C722 C 0.74454 0.30954 0.8105 0.0
C723 C 0.7386 0.31699 0.82646 0.0
C724 C 0.74675 0.34302 0.82916 0.0
C725 C 0.76076 0.36164 0.81588 0.0
H726 H 0.72777 0.30261 0.83675 0.0
H727 H 0.86223 0.48341 0.70751 0.0
H728 H 0.59305 0.88789 0.94794 0.0
H729 H 0.57374 0.84149 0.94168 0.0
H730 H 0.49751 0.82942 0.93824 0.0
H731 H 0.51661 0.87589 0.94345 0.0
H732 H 0.50614 0.79525 0.96359 0.0
H733 H 0.51894 0.82859 0.90234 0.0
H734 H 0.54656 0.85718 0.87774 0.0
H735 H 0.59373 0.82497 0.88094 0.0
H736 H 0.56658 0.79644 0.90576 0.0
H737 H 0.41163 0.67426 0.92942 0.0
H738 H 0.44215 0.71973 0.93743 0.0
H739 H 0.50604 0.71606 0.91681 0.0
H740 H 0.47504 0.67048 0.90787 0.0
H741 H 0.51179 0.7585 0.90603 0.0
H742 H 0.49691 0.72041 0.96312 0.0
H743 H 0.47208 0.69198 0.98856 0.0
H744 H 0.4336 0.73283 0.99545 0.0
H745 H 0.45789 0.76127 0.96989 0.0
C746 C 0.57226 0.87555 0.94543 0.0
C747 C 0.55638 0.88569 0.9463 0.0
C748 C 0.56129 0.84902 0.94202 0.0
C749 C 0.53427 0.8322 0.93966 0.0
C750 C 0.51842 0.8422 0.94021 0.0
C751 C 0.52938 0.86873 0.94329 0.0
C752 C 0.52216 0.80393 0.93708 0.0
C753 C 0.5072 0.78706 0.95102 0.0
C754 C 0.52477 0.79359 0.92098 0.0
C755 C 0.54096 0.81066 0.90604 0.0
C756 C 0.53537 0.82781 0.89792 0.0
C757 C 0.55089 0.84395 0.88391 0.0
C758 C 0.57195 0.84296 0.87782 0.0
C759 C 0.57746 0.82576 0.8857 0.0
C760 C 0.562 0.8096 0.89973 0.0
C761 C 0.43221 0.683 0.92677 0.0
C762 C 0.441 0.66886 0.91806 0.0
C763 C 0.44972 0.70901 0.93148 0.0
C764 C 0.47654 0.72126 0.92809 0.0
C765 C 0.48546 0.707 0.91964 0.0
C766 C 0.46779 0.681 0.91458 0.0
C767 C 0.49468 0.74939 0.93236 0.0
C768 C 0.51096 0.7664 0.91879 0.0
C769 C 0.49377 0.75988 0.94901 0.0
C770 C 0.47918 0.74292 0.96451 0.0
C771 C 0.48304 0.72325 0.96999 0.0
C772 C 0.46907 0.70713 0.98444 0.0
C773 C 0.45126 0.71058 0.9936 0.0
C774 C 0.44742 0.73019 0.98835 0.0
C775 C 0.46132 0.74635 0.9739 0.0
H776 H 0.44045 0.69808 0.00478 0.0
H777 H 0.58394 0.85547 0.86697 0.0
H778 H 0.56487 0.42126 0.1476 0.0
H779 H 0.60042 0.41488 0.14254 0.0
H780 H 0.60689 0.44055 0.08806 0.0
H781 H 0.57016 0.44527 0.09265 0.0
H782 H 0.61755 0.40467 0.08949 0.0
H783 H 0.64459 0.48312 0.12233 0.0
H784 H 0.64234 0.50848 0.14704 0.0
H785 H 0.65834 0.46599 0.18471 0.0
H786 H 0.66027 0.44007 0.16022 0.0
H787 H 0.75127 0.4564 0.07293 0.0
H788 H 0.71179 0.45581 0.07984 0.0
H789 H 0.70117 0.41246 0.128 0.0
H790 H 0.74039 0.41254 0.12104 0.0
H791 H 0.69236 0.45533 0.1309 0.0
H792 H 0.66726 0.37838 0.09619 0.0
H793 H 0.6702 0.35502 0.07042 0.0
H794 H 0.65201 0.39812 0.03494 0.0
H795 H 0.64938 0.42206 0.06049 0.0
C796 C 0.57319 0.42467 0.13435 0.0
C797 C 0.56488 0.43415 0.12058 0.0
C798 C 0.59381 0.42137 0.13156 0.0
C799 C 0.60686 0.42803 0.11509 0.0
C800 C 0.59734 0.4356 0.10095 0.0
C801 C 0.57647 0.43851 0.10364 0.0
C802 C 0.63153 0.42906 0.11292 0.0
C803 C 0.63393 0.4159 0.09848 0.0
C804 C 0.6529 0.44355 0.12475 0.0
C805 C 0.65234 0.4595 0.13946 0.0
C806 C 0.64751 0.4791 0.13589 0.0
C807 C 0.64629 0.49357 0.14985 0.0
C808 C 0.65017 0.48883 0.16743 0.0
C809 C 0.65533 0.46964 0.17108 0.0
C810 C 0.6565 0.45505 0.15717 0.0
C811 C 0.74078 0.44713 0.08515 0.0
C812 C 0.74878 0.43439 0.09641 0.0
C813 C 0.71821 0.44672 0.08902 0.0
C814 C 0.70354 0.43388 0.10433 0.0
C815 C 0.71227 0.42241 0.11611 0.0
C816 C 0.73461 0.42244 0.1121 0.0
C817 C 0.67827 0.43111 0.10744 0.0
C818 C 0.67584 0.44398 0.12203 0.0
C819 C 0.65703 0.41672 0.0956 0.0
C820 C 0.65839 0.4022 0.08024 0.0
C821 C 0.66412 0.38305 0.08288 0.0
C822 C 0.66569 0.36967 0.06831 0.0
C823 C 0.66137 0.37513 0.05105 0.0
C824 C 0.6554 0.39394 0.04832 0.0
C825 C 0.65384 0.4074 0.06284 0.0
H826 H 0.66258 0.36475 0.03979 0.0
H827 H 0.64922 0.50006 0.17822 0.0
H828 H 0.44404 0.92823 0.53604 0.0
H829 H 0.414 0.88262 0.54459 0.0
H830 H 0.43807 0.85789 0.49888 0.0
H831 H 0.46812 0.90378 0.4901 0.0
H832 H 0.38435 0.83071 0.50243 0.0
H833 H 0.45707 0.85195 0.53888 0.0
H834 H 0.49315 0.8781 0.56001 0.0
H835 H 0.43831 0.86819 0.60013 0.0
H836 H 0.40189 0.84229 0.57914 0.0
H837 H 0.30874 0.69873 0.53604 0.0
H838 H 0.34511 0.74075 0.52474 0.0
H839 H 0.33178 0.78091 0.56638 0.0
H840 H 0.29549 0.73915 0.57769 0.0
H841 H 0.38387 0.79774 0.56303 0.0
H842 H 0.31197 0.78062 0.52543 0.0
H843 H 0.2758 0.75462 0.50431 0.0
H844 H 0.3295 0.75682 0.46628 0.0
H845 H 0.36595 0.78247 0.48732 0.0
C846 C 0.443 0.91308 0.52784 0.0
C847 C 0.45834 0.9195 0.51239 0.0
C848 C 0.42597 0.88705 0.5328 0.0
C849 C 0.42395 0.8669 0.52244 0.0
C850 C 0.43942 0.8732 0.50708 0.0
C851 C 0.45667 0.89935 0.50216 0.0
C852 C 0.40484 0.83932 0.52746 0.0
C853 C 0.38454 0.82326 0.51553 0.0
C854 C 0.40491 0.82982 0.54465 0.0
C855 C 0.42675 0.84531 0.55738 0.0
C856 C 0.4527 0.85551 0.55216 0.0
C857 C 0.47322 0.87026 0.56412 0.0
C858 C 0.46803 0.87484 0.58139 0.0
C859 C 0.4423 0.86463 0.58674 0.0
C860 C 0.42171 0.84988 0.57483 0.0
C861 C 0.31353 0.71654 0.54273 0.0
C862 C 0.2993 0.71569 0.55774 0.0
C863 C 0.33426 0.74049 0.53625 0.0
C864 C 0.34109 0.76389 0.54474 0.0
C865 C 0.32687 0.76304 0.5597 0.0
C866 C 0.30607 0.73918 0.56608 0.0
C867 C 0.3631 0.7894 0.53817 0.0
C868 C 0.38393 0.80504 0.54982 0.0
C869 C 0.36351 0.79847 0.52073 0.0
C870 C 0.34164 0.78317 0.50804 0.0
C871 C 0.31603 0.77535 0.51263 0.0
C872 C 0.29549 0.76071 0.50066 0.0
C873 C 0.30034 0.754 0.48398 0.0
C874 C 0.32576 0.76198 0.47922 0.0
C875 C 0.34637 0.77656 0.49116 0.0
H876 H 0.28441 0.74268 0.47473 0.0
H877 H 0.48394 0.88627 0.59064 0.0
H878 H 0.45383 0.3293 0.65901 0.0
H879 H 0.46859 0.30162 0.66961 0.0
H880 H 0.52512 0.36407 0.70369 0.0
H881 H 0.50964 0.39138 0.69381 0.0
H882 H 0.5132 0.30614 0.66664 0.0
H883 H 0.53591 0.34076 0.74074 0.0
H884 H 0.5184 0.3553 0.76426 0.0
H885 H 0.44327 0.31395 0.73879 0.0
H886 H 0.46021 0.29883 0.71527 0.0
H887 H 0.60972 0.29185 0.70263 0.0
H888 H 0.58128 0.30573 0.69272 0.0
H889 H 0.52093 0.25029 0.72848 0.0
H890 H 0.54987 0.23672 0.73895 0.0
H891 H 0.52529 0.29527 0.73077 0.0
H892 H 0.51547 0.24033 0.68268 0.0
H893 H 0.52937 0.22219 0.65919 0.0
H894 H 0.57094 0.29654 0.63268 0.0
H895 H 0.55762 0.31525 0.65614 0.0
C896 C 0.46912 0.33701 0.66897 0.0
C897 C 0.48048 0.36256 0.6756 0.0
C898 C 0.47768 0.32122 0.67492 0.0
C899 C 0.49773 0.33061 0.68762 0.0
C900 C 0.50927 0.35618 0.69413 0.0
C901 C 0.50064 0.37193 0.68828 0.0
C902 C 0.50736 0.31413 0.6936 0.0
C903 C 0.51567 0.30361 0.68066 0.0
C904 C 0.50987 0.31012 0.7119 0.0
C905 C 0.49942 0.31882 0.72616 0.0
C906 C 0.51562 0.33464 0.74021 0.0
C907 C 0.5058 0.34301 0.75353 0.0
C908 C 0.47976 0.33561 0.753 0.0
C909 C 0.46346 0.31974 0.73916 0.0
C910 C 0.47317 0.31129 0.72582 0.0
C911 C 0.59032 0.28238 0.70831 0.0
C912 C 0.58201 0.26312 0.72155 0.0
C913 C 0.57398 0.29026 0.70253 0.0
C914 C 0.54877 0.27877 0.70962 0.0
C915 C 0.54027 0.25935 0.72276 0.0
C916 C 0.55677 0.25156 0.72869 0.0
C917 C 0.53207 0.28821 0.7038 0.0
C918 C 0.52244 0.29744 0.71675 0.0
C919 C 0.52773 0.29044 0.68551 0.0
C920 C 0.53562 0.27923 0.67124 0.0
C921 C 0.5277 0.25286 0.6719 0.0
C922 C 0.53546 0.24247 0.65858 0.0
C923 C 0.55105 0.25821 0.64446 0.0
C924 C 0.55885 0.28437 0.64361 0.0
C925 C 0.55116 0.29486 0.65691 0.0
H926 H 0.55706 0.25013 0.63417 0.0
H927 H 0.4722 0.34214 0.76331 0.0
H928 H 0.13831 0.57523 0.88531 0.0
H929 H 0.17879 0.57723 0.89014 0.0
H930 H 0.2116 0.62399 0.8426 0.0
H931 H 0.17054 0.62091 0.83717 0.0
H932 H 0.21962 0.58613 0.8424 0.0
H933 H 0.2331 0.65017 0.8849 0.0
H934 H 0.22242 0.66901 0.90989 0.0
H935 H 0.21447 0.60945 0.94491 0.0
H936 H 0.22474 0.59002 0.92007 0.0
H937 H 0.34877 0.61768 0.86263 0.0
H938 H 0.31 0.61824 0.85565 0.0
H939 H 0.26806 0.56358 0.89833 0.0
H940 H 0.30676 0.56294 0.90543 0.0
H941 H 0.26662 0.60809 0.90019 0.0
H942 H 0.25317 0.54429 0.85603 0.0
H943 H 0.26569 0.5279 0.83052 0.0
H944 H 0.27624 0.59082 0.79798 0.0
H945 H 0.2642 0.60785 0.82338 0.0
C946 C 0.15419 0.58608 0.87593 0.0
C947 C 0.15118 0.59781 0.86082 0.0
C948 C 0.17743 0.58742 0.8788 0.0
C949 C 0.19832 0.60092 0.8668 0.0
C950 C 0.19573 0.61348 0.85204 0.0
C951 C 0.17237 0.61197 0.84907 0.0
C952 C 0.22214 0.60045 0.86912 0.0
C953 C 0.23018 0.59139 0.85494 0.0
C954 C 0.23566 0.60688 0.88557 0.0
C955 C 0.22948 0.61851 0.90057 0.0
C956 C 0.22887 0.64096 0.8979 0.0
C957 C 0.22293 0.65177 0.91204 0.0
C958 C 0.21772 0.6404 0.92896 0.0
C959 C 0.21849 0.61822 0.93179 0.0
C960 C 0.22441 0.60732 0.91768 0.0
C961 C 0.33115 0.60543 0.87033 0.0
C962 C 0.33081 0.59037 0.88464 0.0
C963 C 0.30903 0.60575 0.86631 0.0
C964 C 0.28624 0.591 0.87652 0.0
C965 C 0.28553 0.57516 0.89035 0.0
C966 C 0.3076 0.57471 0.89432 0.0
C967 C 0.26376 0.59344 0.87358 0.0
C968 C 0.25606 0.60295 0.88764 0.0
C969 C 0.25084 0.58779 0.85696 0.0
C970 C 0.25801 0.57749 0.84167 0.0
C971 C 0.25839 0.55477 0.84348 0.0
C972 C 0.26536 0.54534 0.82903 0.0
C973 C 0.27179 0.55834 0.81265 0.0
C974 C 0.27127 0.58079 0.81068 0.0
C975 C 0.26436 0.59033 0.82509 0.0
H976 H 0.27708 0.55097 0.80146 0.0
H977 H 0.21312 0.6488 0.9399 0.0
H978 H 0.66531 0.16011 0.9944 0.0
H979 H 0.68882 0.20527 0.00499 0.0
H980 H 0.72414 0.1861 0.0468 0.0
H981 H 0.70025 0.14067 0.03645 0.0
H982 H 0.7053 0.21493 0.05904 0.0
H983 H 0.75963 0.21962 0.01142 0.0
H984 H 0.76985 0.21287 0.98089 0.0
H985 H 0.74422 0.26068 0.95998 0.0
H986 H 0.73344 0.26738 0.99036 0.0
H987 H 0.79496 0.34759 0.08372 0.0
H988 H 0.77838 0.30333 0.07288 0.0
H989 H 0.73781 0.31423 0.03023 0.0
H990 H 0.75423 0.35839 0.04099 0.0
H991 H 0.76244 0.28969 0.01902 0.0
H992 H 0.70476 0.2819 0.06586 0.0
H993 H 0.69363 0.28843 0.09616 0.0
H994 H 0.72501 0.24628 0.11825 0.0
H995 H 0.73668 0.23983 0.08806 0.0
C996 C 0.67795 0.16548 0.00592 0.0
C997 C 0.68095 0.14688 0.01461 0.0
C998 C 0.69156 0.19132 0.01185 0.0
C999 C 0.70844 0.19906 0.02655 0.0
C1000 C 0.7113 0.18051 0.03537 0.0
C1001 C 0.69778 0.15465 0.02939 0.0
C1002 C 0.72262 0.22644 0.03291 0.0
C1003 C 0.71818 0.23127 0.0504 0.0
C1004 C 0.73898 0.24772 0.02148 0.0
C1005 C 0.7455 0.2438 0.00317 0.0
C1006 C 0.75596 0.22851 0.0003 0.0
C1007 C 0.76189 0.22473 0.98302 0.0
C1008 C 0.75763 0.23629 0.9685 0.0
C1009 C 0.74748 0.25171 0.97124 0.0
C1010 C 0.74148 0.25552 0.98849 0.0
C1011 C 0.78268 0.34061 0.07195 0.0
C1012 C 0.77568 0.35631 0.06327 0.0
C1013 C 0.77319 0.31534 0.06581 0.0
C1014 C 0.75669 0.30548 0.05087 0.0
C1015 C 0.7505 0.3215 0.0418 0.0
C1016 C 0.7598 0.34665 0.04801 0.0
C1017 C 0.74494 0.27811 0.04508 0.0
C1018 C 0.74979 0.27331 0.02769 0.0
C1019 C 0.7289 0.25684 0.05657 0.0
C1020 C 0.72188 0.26067 0.07473 0.0
C1021 C 0.70951 0.27424 0.07719 0.0
C1022 C 0.70306 0.27788 0.09434 0.0
C1023 C 0.70869 0.26785 0.10913 0.0
C1024 C 0.72071 0.25409 0.10679 0.0
C1025 C 0.72724 0.25042 0.08966 0.0
H1026 H 0.70366 0.27068 0.1224 0.0
H1027 H 0.76224 0.23334 0.95513 0.0
H1028 H 0.45911 0.58238 0.19729 0.0
H1029 H 0.45749 0.62049 0.20451 0.0
H1030 H 0.52791 0.66979 0.17436 0.0
H1031 H 0.52892 0.63176 0.16601 0.0
H1032 H 0.52134 0.68524 0.21388 0.0
H1033 H 0.48504 0.66223 0.15348 0.0
H1034 H 0.45464 0.63058 0.13108 0.0
H1035 H 0.3894 0.61323 0.16383 0.0
H1036 H 0.41947 0.64449 0.18656 0.0
H1037 H 0.51622 0.79938 0.21776 0.0
H1038 H 0.52379 0.76528 0.20899 0.0
H1039 H 0.44053 0.70814 0.20998 0.0
H1040 H 0.43311 0.74242 0.21717 0.0
H1041 H 0.45671 0.69775 0.18368 0.0
H1042 H 0.48809 0.71665 0.24423 0.0
H1043 H 0.51509 0.74409 0.26945 0.0
H1044 H 0.58473 0.76457 0.24094 0.0
H1045 H 0.55814 0.73748 0.21546 0.0
C1046 C 0.47409 0.6012 0.19194 0.0
C1047 C 0.49413 0.60381 0.181 0.0
C1048 C 0.47326 0.62299 0.19627 0.0
C1049 C 0.49265 0.64783 0.19002 0.0
C1050 C 0.51293 0.65073 0.17943 0.0
C1051 C 0.51351 0.62892 0.17478 0.0
C1052 C 0.49114 0.67063 0.19401 0.0
C1053 C 0.50749 0.68832 0.20719 0.0
C1054 C 0.47256 0.67399 0.18556 0.0
C1055 C 0.45451 0.65549 0.17179 0.0
C1056 C 0.46423 0.65149 0.15598 0.0
C1057 C 0.44706 0.63366 0.14321 0.0
C1058 C 0.42011 0.61985 0.14605 0.0
C1059 C 0.41028 0.62391 0.16165 0.0
C1060 C 0.42737 0.64169 0.17447 0.0
C1061 C 0.49968 0.7795 0.21602 0.0
C1062 C 0.47413 0.77342 0.21801 0.0
C1063 C 0.50396 0.75996 0.21117 0.0
C1064 C 0.48275 0.73389 0.20902 0.0
C1065 C 0.45727 0.728 0.21135 0.0
C1066 C 0.45301 0.7476 0.21552 0.0
C1067 C 0.48662 0.7126 0.20401 0.0
C1068 C 0.47073 0.69504 0.1905 0.0
C1069 C 0.50514 0.70898 0.21258 0.0
C1070 C 0.52114 0.72529 0.22787 0.0
C1071 C 0.50917 0.72716 0.24329 0.0
C1072 C 0.5244 0.74262 0.25764 0.0
C1073 C 0.55161 0.75613 0.25678 0.0
C1074 C 0.56365 0.75414 0.24158 0.0
C1075 C 0.54852 0.73872 0.22719 0.0
H1076 H 0.56336 0.76809 0.2679 0.0
H1077 H 0.40684 0.60606 0.13615 0.0
H1078 H 0.91894 0.61645 0.34877 0.0
H1079 H 0.87454 0.60286 0.35702 0.0
H1080 H 0.85777 0.52728 0.37255 0.0
H1081 H 0.90249 0.54101 0.36542 0.0
H1082 H 0.82155 0.53112 0.34589 0.0
H1083 H 0.86484 0.56095 0.40409 0.0
H1084 H 0.89859 0.59459 0.42404 0.0
H1085 H 0.87154 0.64493 0.41288 0.0
H1086 H 0.83785 0.6117 0.39265 0.0
H1087 H 0.70391 0.45732 0.38935 0.0
H1088 H 0.74935 0.48177 0.38024 0.0
H1089 H 0.75443 0.55421 0.38927 0.0
H1090 H 0.70865 0.52943 0.39938 0.0
H1091 H 0.79727 0.55935 0.40035 0.0
H1092 H 0.75107 0.53026 0.34601 0.0
H1093 H 0.71784 0.49979 0.32443 0.0
H1094 H 0.75052 0.45292 0.325 0.0
H1095 H 0.78373 0.48289 0.34679 0.0
C1096 C 0.90609 0.59712 0.35431 0.0
C1097 C 0.91446 0.57984 0.35639 0.0
C1098 C 0.88064 0.58936 0.35887 0.0
C1099 C 0.86302 0.56411 0.36533 0.0
C1100 C 0.87118 0.54683 0.36748 0.0
C1101 C 0.89671 0.55469 0.36325 0.0
C1102 C 0.83572 0.5552 0.36937 0.0
C1103 C 0.81612 0.53711 0.35783 0.0
C1104 C 0.82896 0.56417 0.38444 0.0
C1105 C 0.84907 0.58399 0.3967 0.0
C1106 C 0.86626 0.5793 0.40575 0.0
C1107 C 0.88534 0.59826 0.41714 0.0
C1108 C 0.88726 0.62192 0.41968 0.0
C1109 C 0.87006 0.62662 0.41088 0.0
C1110 C 0.85097 0.60772 0.39946 0.0
C1111 C 0.7146 0.47847 0.38935 0.0
C1112 C 0.70267 0.49149 0.39487 0.0
C1113 C 0.74061 0.49246 0.38402 0.0
C1114 C 0.75518 0.51986 0.38352 0.0
C1115 C 0.7435 0.53306 0.38936 0.0
C1116 C 0.7174 0.51894 0.3951 0.0
C1117 C 0.78271 0.53423 0.37723 0.0
C1118 C 0.80248 0.55353 0.38823 0.0
C1119 C 0.7897 0.52687 0.36135 0.0
C1120 C 0.76985 0.5088 0.34812 0.0
C1121 C 0.75109 0.51338 0.34162 0.0
C1122 C 0.73226 0.4962 0.32934 0.0
C1123 C 0.73205 0.47442 0.32337 0.0
C1124 C 0.75071 0.46981 0.32964 0.0
C1125 C 0.76958 0.48692 0.34193 0.0
H1126 H 0.71745 0.46114 0.31386 0.0
H1127 H 0.90204 0.63658 0.4285 0.0
H1128 H 0.10125 0.66536 0.4073 0.0
H1129 H 0.12729 0.66832 0.43288 0.0
H1130 H 0.0631 0.59414 0.45218 0.0
H1131 H 0.03651 0.5913 0.42666 0.0
H1132 H 0.08694 0.62807 0.47928 0.0
H1133 H 0.11232 0.59789 0.43083 0.0
H1134 H 0.12707 0.59576 0.4007 0.0
H1135 H 0.20016 0.6683 0.40972 0.0
H1136 H 0.18549 0.67145 0.43968 0.0
H1137 H 0.17517 0.62047 0.53939 0.0
H1138 H 0.14524 0.6087 0.51403 0.0
H1139 H 0.1925 0.68768 0.49431 0.0
H1140 H 0.22206 0.69974 0.51977 0.0
H1141 H 0.17472 0.64455 0.46783 0.0
H1142 H 0.14356 0.67542 0.51549 0.0
H1143 H 0.1284 0.67392 0.54623 0.0
H1144 H 0.06536 0.59405 0.53866 0.0
H1145 H 0.08041 0.59498 0.50795 0.0
C1146 C 0.09237 0.64991 0.41716 0.0
C1147 C 0.06671 0.62811 0.41494 0.0
C1148 C 0.10745 0.65148 0.43168 0.0
C1149 C 0.09732 0.63124 0.44428 0.0
C1150 C 0.07137 0.6099 0.44254 0.0
C1151 C 0.05624 0.60827 0.42794 0.0
C1152 C 0.11412 0.63239 0.45906 0.0
C1153 C 0.10594 0.63125 0.47673 0.0
C1154 C 0.13894 0.63645 0.45577 0.0
C1155 C 0.14764 0.63505 0.43751 0.0
C1156 C 0.13138 0.61363 0.42632 0.0
C1157 C 0.13975 0.61221 0.40926 0.0
C1158 C 0.16453 0.63188 0.40329 0.0
C1159 C 0.18097 0.65305 0.41437 0.0
C1160 C 0.17258 0.65473 0.43137 0.0
C1161 C 0.17933 0.63521 0.52951 0.0
C1162 C 0.20086 0.66105 0.53156 0.0
C1163 C 0.1622 0.62849 0.51511 0.0
C1164 C 0.16667 0.64738 0.5024 0.0
C1165 C 0.18876 0.67286 0.50401 0.0
C1166 C 0.20555 0.67973 0.51857 0.0
C1167 C 0.14781 0.64109 0.48781 0.0
C1168 C 0.1556 0.64117 0.47022 0.0
C1169 C 0.12252 0.6356 0.49115 0.0
C1170 C 0.11329 0.63517 0.50951 0.0
C1171 C 0.12661 0.65747 0.52044 0.0
C1172 C 0.11801 0.65674 0.53785 0.0
C1173 C 0.09599 0.63387 0.54442 0.0
C1174 C 0.08245 0.61173 0.53357 0.0
C1175 C 0.091 0.61235 0.51616 0.0
H1176 H 0.08938 0.63334 0.55791 0.0
H1177 H 0.17099 0.63072 0.39009 0.0
H1178 H 0.51738 0.08926 0.57015 0.0
H1179 H 0.53175 0.11256 0.59843 0.0
H1180 H 0.55379 0.06027 0.61678 0.0
H1181 H 0.53854 0.03614 0.58858 0.0
H1182 H 0.53359 0.07278 0.64371 0.0
H1183 H 0.59766 0.11761 0.59901 0.0
H1184 H 0.61721 0.13932 0.57037 0.0
H1185 H 0.60114 0.19799 0.58214 0.0
H1186 H 0.58063 0.17611 0.6106 0.0
H1187 H 0.63686 0.17122 0.7026 0.0
H1188 H 0.61399 0.13988 0.67828 0.0
H1189 H 0.56573 0.17042 0.67 0.0
H1190 H 0.58791 0.20131 0.69461 0.0
H1191 H 0.5997 0.16801 0.63885 0.0
H1192 H 0.53351 0.1189 0.6843 0.0
H1193 H 0.51873 0.09747 0.71365 0.0
H1194 H 0.54579 0.04762 0.7008 0.0
H1195 H 0.56111 0.06906 0.67146 0.0
C1196 C 0.52452 0.08215 0.58037 0.0
C1197 C 0.52682 0.0608 0.57708 0.0
C1198 C 0.53304 0.09573 0.59647 0.0
C1199 C 0.54429 0.08846 0.60958 0.0
C1200 C 0.5453 0.0663 0.6068 0.0
C1201 C 0.53671 0.05263 0.59065 0.0
C1202 C 0.55638 0.10498 0.62566 0.0
C1203 C 0.54818 0.09356 0.64262 0.0
C1204 C 0.57556 0.13212 0.62426 0.0
C1205 C 0.58725 0.14497 0.60688 0.0
C1206 C 0.5979 0.1349 0.59539 0.0
C1207 C 0.60922 0.14728 0.5792 0.0
C1208 C 0.6104 0.17001 0.57443 0.0
C1209 C 0.60022 0.18038 0.58585 0.0
C1210 C 0.58863 0.16792 0.60198 0.0
C1211 C 0.62116 0.17104 0.69574 0.0
C1212 C 0.61419 0.18873 0.70048 0.0
C1213 C 0.6081 0.1531 0.68193 0.0
C1214 C 0.5882 0.15289 0.67248 0.0
C1215 C 0.58097 0.17027 0.67728 0.0
C1216 C 0.59361 0.18782 0.69133 0.0
C1217 C 0.57633 0.13592 0.6567 0.0
C1218 C 0.58489 0.14727 0.63982 0.0
C1219 C 0.558 0.10873 0.65819 0.0
C1220 C 0.54875 0.09581 0.67579 0.0
C1221 C 0.53658 0.10358 0.68781 0.0
C1222 C 0.52803 0.09138 0.70443 0.0
C1223 C 0.5314 0.07125 0.70911 0.0
C1224 C 0.54324 0.06324 0.69717 0.0
C1225 C 0.55184 0.0754 0.68054 0.0
H1226 H 0.52476 0.06182 0.72198 0.0
H1227 H 0.6192 0.17958 0.56189 0.0
H1228 H 0.43391 0.4985 0.73096 0.0
H1229 H 0.42798 0.50804 0.76142 0.0
H1230 H 0.34547 0.47128 0.75187 0.0
H1231 H 0.35143 0.46213 0.72092 0.0
H1232 H 0.36636 0.51739 0.76993 0.0
H1233 H 0.36442 0.43987 0.77667 0.0
H1234 H 0.37741 0.40843 0.7727 0.0
H1235 H 0.45079 0.46151 0.79831 0.0
H1236 H 0.43848 0.49353 0.80216 0.0
H1237 H 0.36363 0.54236 0.86273 0.0
H1238 H 0.35293 0.51615 0.83563 0.0
H1239 H 0.43458 0.54642 0.82766 0.0
H1240 H 0.4455 0.57241 0.85478 0.0
H1241 H 0.40301 0.4939 0.81995 0.0
H1242 H 0.40521 0.57405 0.80716 0.0
H1243 H 0.3897 0.60339 0.81186 0.0
H1244 H 0.31163 0.54109 0.79835 0.0
H1245 H 0.32665 0.51135 0.79377 0.0
C1246 C 0.41453 0.49275 0.73521 0.0
C1247 C 0.39316 0.47977 0.72349 0.0
C1248 C 0.41111 0.4979 0.75271 0.0
C1249 C 0.38622 0.48999 0.75898 0.0
C1250 C 0.36481 0.47736 0.7473 0.0
C1251 C 0.36822 0.4721 0.72969 0.0
C1252 C 0.38319 0.49569 0.77769 0.0
C1253 C 0.37378 0.51173 0.78094 0.0
C1254 C 0.39281 0.48823 0.79205 0.0
C1255 C 0.40053 0.46917 0.78965 0.0
C1256 C 0.38343 0.44496 0.78133 0.0
C1257 C 0.39066 0.42701 0.77912 0.0
C1258 C 0.41488 0.43295 0.78528 0.0
C1259 C 0.432 0.45692 0.79358 0.0
C1260 C 0.42489 0.47497 0.7958 0.0
C1261 C 0.37932 0.5432 0.85537 0.0
C1262 C 0.4055 0.55975 0.86086 0.0
C1263 C 0.37313 0.52823 0.83986 0.0
C1264 C 0.393 0.52962 0.82954 0.0
C1265 C 0.41895 0.5451 0.83544 0.0
C1266 C 0.42517 0.56006 0.85092 0.0
C1267 C 0.3873 0.51649 0.81199 0.0
C1268 C 0.39505 0.49902 0.80898 0.0
C1269 C 0.3758 0.52232 0.79792 0.0
C1270 C 0.36699 0.54043 0.8003 0.0
C1271 C 0.38472 0.56661 0.80527 0.0
C1272 C 0.37601 0.5833 0.80791 0.0
C1273 C 0.34967 0.5741 0.80547 0.0
C1274 C 0.33201 0.54821 0.80028 0.0
C1275 C 0.34061 0.53143 0.79764 0.0
H1276 H 0.34294 0.58703 0.80755 0.0
H1277 H 0.42033 0.41893 0.7837 0.0
H1278 H 0.91174 0.53194 0.8918 0.0
H1279 H 0.89017 0.5174 0.92089 0.0
H1280 H 0.91654 0.46506 0.92591 0.0
H1281 H 0.93867 0.47987 0.89724 0.0
H1282 H 0.86549 0.44242 0.93699 0.0
H1283 H 0.9496 0.52232 0.94582 0.0
H1284 H 0.98351 0.56874 0.94048 0.0
H1285 H 0.93105 0.59049 0.95807 0.0
H1286 H 0.89665 0.54411 0.96325 0.0
H1287 H 0.86603 0.41934 0.02843 0.0
H1288 H 0.8795 0.43449 0.99794 0.0
H1289 H 0.8479 0.48244 0.00217 0.0
H1290 H 0.8343 0.46742 0.03291 0.0
H1291 H 0.89684 0.50799 0.98568 0.0
H1292 H 0.81412 0.42727 0.98003 0.0
H1293 H 0.78133 0.38066 0.98578 0.0
H1294 H 0.83191 0.36011 0.96244 0.0
H1295 H 0.86521 0.40666 0.95681 0.0
C1296 C 0.91288 0.51727 0.89907 0.0
C1297 C 0.92699 0.50711 0.89214 0.0
C1298 C 0.90047 0.50893 0.91565 0.0
C1299 C 0.90193 0.49028 0.92558 0.0
C1300 C 0.91506 0.47936 0.9184 0.0
C1301 C 0.92758 0.48777 0.90193 0.0
C1302 C 0.89108 0.48306 0.94388 0.0
C1303 C 0.87239 0.45672 0.94766 0.0
C1304 C 0.89974 0.50184 0.95769 0.0
C1305 C 0.92045 0.52973 0.95472 0.0
C1306 C 0.94522 0.53698 0.94841 0.0
C1307 C 0.96454 0.56329 0.94543 0.0
C1308 C 0.95941 0.58255 0.94888 0.0
C1309 C 0.93497 0.57554 0.95537 0.0
C1310 C 0.91555 0.54925 0.95833 0.0
C1311 C 0.86203 0.43323 0.023 0.0
C1312 C 0.84895 0.44206 0.03316 0.0
C1313 C 0.86965 0.44177 0.0055 0.0
C1314 C 0.86435 0.45928 0.99772 0.0
C1315 C 0.85204 0.46881 0.00793 0.0
C1316 C 0.84427 0.46017 0.02547 0.0
C1317 C 0.87154 0.46727 0.97885 0.0
C1318 C 0.88959 0.49374 0.97497 0.0
C1319 C 0.86237 0.44858 0.96495 0.0
C1320 C 0.84226 0.4205 0.96812 0.0
C1321 C 0.81834 0.41284 0.97624 0.0
C1322 C 0.79965 0.38642 0.97946 0.0
C1323 C 0.80456 0.36744 0.97451 0.0
C1324 C 0.82814 0.37484 0.96628 0.0
C1325 C 0.84693 0.40124 0.96305 0.0
H1326 H 0.79006 0.347 0.97703 0.0
H1327 H 0.9744 0.6029 0.94657 0.0
H1328 H 0.56898 0.99071 0.06905 0.0
H1329 H 0.55413 0.97028 0.09807 0.0
H1330 H 0.63108 0.98783 0.11003 0.0
H1331 H 0.64685 0.00989 0.08111 0.0
H1332 H 0.58607 0.93265 0.1154 0.0
H1333 H 0.61648 0.01972 0.13297 0.0
H1334 H 0.62236 0.06287 0.13041 0.0
H1335 H 0.53943 0.02689 0.13417 0.0
H1336 H 0.533 0.98347 0.13648 0.0
H1337 H 0.52421 0.87304 0.19982 0.0
H1338 H 0.55661 0.90224 0.17761 0.0
H1339 H 0.50106 0.91764 0.15559 0.0
H1340 H 0.46904 0.8892 0.17776 0.0
H1341 H 0.54672 0.96174 0.15963 0.0
H1342 H 0.51576 0.87543 0.13572 0.0
H1343 H 0.50808 0.83138 0.13667 0.0
H1344 H 0.59023 0.86504 0.14369 0.0
H1345 H 0.59835 0.9093 0.14298 0.0
C1346 C 0.58315 0.99112 0.07794 0.0
C1347 C 0.60931 0.00241 0.07268 0.0
C1348 C 0.57446 0.97909 0.09451 0.0
C1349 C 0.59154 0.97766 0.10617 0.0
C1350 C 0.61764 0.98877 0.10114 0.0
C1351 C 0.62655 0.00128 0.08459 0.0
C1352 C 0.58127 0.96366 0.1233 0.0
C1353 C 0.57806 0.93925 0.12538 0.0
C1354 C 0.57052 0.9722 0.13608 0.0
C1355 C 0.57426 0.9983 0.13482 0.0
C1356 C 0.59947 0.02098 0.13312 0.0
C1357 C 0.60291 0.0455 0.13174 0.0
C1358 C 0.58128 0.04762 0.13211 0.0
C1359 C 0.55617 0.02522 0.13389 0.0
C1360 C 0.55262 0.00065 0.13527 0.0
C1361 C 0.51889 0.88256 0.19017 0.0
C1362 C 0.49404 0.87883 0.19063 0.0
C1363 C 0.53742 0.89923 0.17749 0.0
C1364 C 0.53128 0.91217 0.16493 0.0
C1365 C 0.50636 0.9081 0.16524 0.0
C1366 C 0.488 0.8917 0.17793 0.0
C1367 C 0.55045 0.93013 0.15138 0.0
C1368 C 0.55533 0.95536 0.14998 0.0
C1369 C 0.5625 0.9222 0.13916 0.0
C1370 C 0.55761 0.89563 0.13954 0.0
C1371 C 0.53215 0.87342 0.13761 0.0
C1372 C 0.52773 0.84842 0.13808 0.0
C1373 C 0.54864 0.84541 0.14031 0.0
C1374 C 0.57404 0.8674 0.14201 0.0
C1375 C 0.57857 0.89244 0.14157 0.0
H1376 H 0.54518 0.82604 0.14066 0.0
H1377 H 0.58398 0.06662 0.13103 0.0
H1378 H 0.58007 0.5665 0.24136 0.0
H1379 H 0.59554 0.56322 0.27075 0.0
H1380 H 0.52265 0.48989 0.27984 0.0
H1381 H 0.50747 0.49228 0.25043 0.0
H1382 H 0.54318 0.52138 0.3108 0.0
H1383 H 0.56936 0.4883 0.26178 0.0
H1384 H 0.59085 0.49304 0.23293 0.0
H1385 H 0.66425 0.55413 0.25473 0.0
H1386 H 0.64299 0.5502 0.28363 0.0
H1387 H 0.55557 0.43214 0.35963 0.0
H1388 H 0.54986 0.45623 0.33625 0.0
H1389 H 0.6305 0.51958 0.34151 0.0
H1390 H 0.63655 0.49555 0.36514 0.0
H1391 H 0.61384 0.50463 0.30589 0.0
H1392 H 0.58758 0.52967 0.35748 0.0
H1393 H 0.56465 0.52315 0.38597 0.0
H1394 H 0.49072 0.4758 0.35952 0.0
H1395 H 0.5132 0.48167 0.3309 0.0
C1396 C 0.56721 0.5498 0.24968 0.0
C1397 C 0.54264 0.52948 0.24335 0.0
C1398 C 0.57601 0.54811 0.26652 0.0
C1399 C 0.56029 0.52621 0.27734 0.0
C1400 C 0.535 0.50702 0.2717 0.0
C1401 C 0.52632 0.50851 0.25484 0.0
C1402 C 0.57102 0.5212 0.29334 0.0
C1403 C 0.55873 0.51787 0.30981 0.0
C1404 C 0.59166 0.51715 0.29202 0.0
C1405 C 0.60453 0.51922 0.27477 0.0
C1406 C 0.59003 0.5029 0.26037 0.0
C1407 C 0.60217 0.50541 0.24402 0.0
C1408 C 0.62889 0.52388 0.24198 0.0
C1409 C 0.64354 0.53986 0.25632 0.0
C1410 C 0.63145 0.53754 0.27268 0.0
C1411 C 0.57221 0.45113 0.35583 0.0
C1412 C 0.59653 0.46192 0.36432 0.0
C1413 C 0.56883 0.46496 0.34254 0.0
C1414 C 0.58965 0.48983 0.3374 0.0
C1415 C 0.61416 0.50048 0.34545 0.0
C1416 C 0.61755 0.48671 0.35891 0.0
C1417 C 0.58551 0.50411 0.32329 0.0
C1418 C 0.59893 0.50903 0.30711 0.0
C1419 C 0.56581 0.50948 0.32487 0.0
C1420 C 0.55212 0.50603 0.34204 0.0
C1421 C 0.56644 0.51772 0.35775 0.0
C1422 C 0.55351 0.51416 0.37392 0.0
C1423 C 0.52625 0.49905 0.37456 0.0
C1424 C 0.51185 0.48751 0.35901 0.0
C1425 C 0.52467 0.49098 0.34279 0.0
H1426 H 0.51628 0.49631 0.38709 0.0
H1427 H 0.63826 0.52577 0.2293 0.0
H1428 H 0.55193 0.99692 0.40222 0.0
H1429 H 0.54453 0.97394 0.374 0.0
H1430 H 0.4735 0.90725 0.39494 0.0
H1431 H 0.48095 0.92997 0.4234 0.0
H1432 H 0.53764 0.92769 0.36275 0.0
H1433 H 0.42721 0.88646 0.36192 0.0
H1434 H 0.39634 0.89627 0.37486 0.0
H1435 H 0.45779 0.97744 0.37882 0.0
H1436 H 0.48887 0.96818 0.36565 0.0
H1437 H 0.4782 0.84439 0.2863 0.0
H1438 H 0.49093 0.86301 0.31635 0.0
H1439 H 0.47817 0.92346 0.30142 0.0
H1440 H 0.46447 0.90435 0.27176 0.0
H1441 H 0.45626 0.9048 0.33141 0.0
H1442 H 0.54112 0.93392 0.30731 0.0
H1443 H 0.5743 0.92851 0.29313 0.0
H1444 H 0.56829 0.8794 0.33638 0.0
H1445 H 0.53484 0.88428 0.35071 0.0
C1446 C 0.53508 0.97711 0.40102 0.0
C1447 C 0.51693 0.96534 0.41505 0.0
C1448 C 0.53086 0.96402 0.38485 0.0
C1449 C 0.50836 0.93902 0.38233 0.0
C1450 C 0.49086 0.92667 0.39657 0.0
C1451 C 0.49507 0.93973 0.41277 0.0
C1452 C 0.50208 0.92696 0.36435 0.0
C1453 C 0.5198 0.92251 0.35589 0.0
C1454 C 0.47904 0.9207 0.35532 0.0
C1455 C 0.46041 0.92654 0.36302 0.0
C1456 C 0.43409 0.9064 0.36551 0.0
C1457 C 0.41657 0.91187 0.37288 0.0
C1458 C 0.42513 0.93745 0.37773 0.0
C1459 C 0.4512 0.95763 0.37513 0.0
C1460 C 0.46878 0.95227 0.36773 0.0
C1461 C 0.47845 0.86184 0.2894 0.0
C1462 C 0.47028 0.87288 0.27671 0.0
C1463 C 0.48577 0.87251 0.30657 0.0
C1464 C 0.48562 0.89474 0.31118 0.0
C1465 C 0.47826 0.9062 0.29827 0.0
C1466 C 0.47051 0.8953 0.28129 0.0
C1467 C 0.49188 0.90555 0.32959 0.0
C1468 C 0.47405 0.9097 0.33823 0.0
C1469 C 0.51512 0.9121 0.33855 0.0
C1470 C 0.5353 0.90926 0.32999 0.0
C1471 C 0.54675 0.92182 0.31373 0.0
C1472 C 0.56562 0.91888 0.30568 0.0
C1473 C 0.57335 0.90356 0.31382 0.0
C1474 C 0.56227 0.89123 0.33007 0.0
C1475 C 0.54337 0.8941 0.33817 0.0
H1476 H 0.58796 0.9013 0.30757 0.0
H1477 H 0.41154 0.94163 0.38345 0.0
H1478 H 0.44835 0.47261 0.54329 0.0
H1479 H 0.4723 0.47371 0.51676 0.0
H1480 H 0.54249 0.50556 0.54811 0.0
H1481 H 0.51874 0.50434 0.57465 0.0
H1482 H 0.55157 0.52424 0.51186 0.0
H1483 H 0.5045 0.44356 0.54579 0.0
H1484 H 0.46458 0.40729 0.55995 0.0
H1485 H 0.42653 0.38392 0.50898 0.0
H1486 H 0.46583 0.42066 0.49458 0.0
H1487 H 0.61388 0.47429 0.45938 0.0
H1488 H 0.59654 0.48833 0.48318 0.0
H1489 H 0.51995 0.44315 0.45921 0.0
H1490 H 0.53683 0.42841 0.43605 0.0
H1491 H 0.51565 0.43301 0.49248 0.0
H1492 H 0.56013 0.5122 0.45801 0.0
H1493 H 0.59769 0.54986 0.44288 0.0
H1494 H 0.63881 0.57612 0.49272 0.0
H1495 H 0.6016 0.53841 0.50811 0.0
C1496 C 0.46903 0.48046 0.54441 0.0
C1497 C 0.48158 0.48813 0.56107 0.0
C1498 C 0.4827 0.48119 0.52926 0.0
C1499 C 0.50905 0.48939 0.53058 0.0
C1500 C 0.5222 0.49926 0.54682 0.0
C1501 C 0.50857 0.49857 0.56198 0.0
C1502 C 0.52155 0.48371 0.516 0.0
C1503 C 0.54391 0.50433 0.50763 0.0
C1504 C 0.51132 0.45771 0.51049 0.0
C1505 C 0.48805 0.43503 0.51912 0.0
C1506 C 0.48758 0.4308 0.53761 0.0
C1507 C 0.46506 0.41017 0.54569 0.0
C1508 C 0.4431 0.3933 0.53538 0.0
C1509 C 0.44357 0.39702 0.51696 0.0
C1510 C 0.46593 0.41779 0.50883 0.0
C1511 C 0.59341 0.46755 0.45919 0.0
C1512 C 0.57665 0.45002 0.446 0.0
C1513 C 0.58353 0.47568 0.47272 0.0
C1514 C 0.5569 0.46685 0.47298 0.0
C1515 C 0.54048 0.45005 0.45943 0.0
C1516 C 0.55018 0.44162 0.44618 0.0
C1517 C 0.54546 0.47359 0.4878 0.0
C1518 C 0.52338 0.45303 0.49649 0.0
C1519 C 0.55581 0.49964 0.49339 0.0
C1520 C 0.57819 0.52233 0.48417 0.0
C1521 C 0.57727 0.52589 0.46572 0.0
C1522 C 0.59847 0.54726 0.4571 0.0
C1523 C 0.62065 0.56533 0.46683 0.0
C1524 C 0.62163 0.56209 0.4852 0.0
C1525 C 0.60048 0.54073 0.49388 0.0
H1526 H 0.63705 0.58187 0.46013 0.0
H1527 H 0.4257 0.37733 0.54166 0.0
H1528 H 0.03261 0.528 0.72562 0.0
H1529 H 0.0571 0.53984 0.69759 0.0
H1530 H 0.08684 0.62104 0.70725 0.0
H1531 H 0.06316 0.60959 0.73541 0.0
H1532 H 0.07387 0.60631 0.67122 0.0
H1533 H 0.12144 0.59783 0.71971 0.0
H1534 H 0.12635 0.57366 0.74402 0.0
H1535 H 0.11693 0.5158 0.7067 0.0
H1536 H 0.11126 0.53927 0.68219 0.0
H1537 H 0.19226 0.68014 0.62549 0.0
H1538 H 0.15817 0.65929 0.648 0.0
H1539 H 0.1449 0.58429 0.63458 0.0
H1540 H 0.17951 0.60512 0.61207 0.0
H1541 H 0.14503 0.59002 0.66995 0.0
H1542 H 0.10214 0.60019 0.62086 0.0
H1543 H 0.09624 0.62325 0.59622 0.0
H1544 H 0.09586 0.6763 0.6336 0.0
H1545 H 0.10216 0.65381 0.65846 0.0
C1546 C 0.04417 0.54835 0.72171 0.0
C1547 C 0.04605 0.56784 0.73288 0.0
C1548 C 0.05804 0.55505 0.70565 0.0
C1549 C 0.07396 0.58133 0.70047 0.0
C1550 C 0.07458 0.60063 0.71099 0.0
C1551 C 0.06088 0.594 0.72708 0.0
C1552 C 0.09183 0.58914 0.685 0.0
C1553 C 0.08949 0.60286 0.67093 0.0
C1554 C 0.11175 0.58397 0.68446 0.0
C1555 C 0.1156 0.57013 0.69915 0.0
C1556 C 0.12019 0.57984 0.7167 0.0
C1557 C 0.12314 0.56628 0.73052 0.0
C1558 C 0.12194 0.54321 0.72692 0.0
C1559 C 0.11781 0.53365 0.70948 0.0
C1560 C 0.11469 0.54705 0.69562 0.0
C1561 C 0.18217 0.6592 0.62726 0.0
C1562 C 0.18859 0.64431 0.61684 0.0
C1563 C 0.16253 0.64727 0.64011 0.0
C1564 C 0.1486 0.62015 0.64274 0.0
C1565 C 0.15528 0.60524 0.63268 0.0
C1566 C 0.17508 0.61719 0.61982 0.0
C1567 C 0.12743 0.60767 0.65624 0.0
C1568 C 0.12917 0.59313 0.67001 0.0
C1569 C 0.10683 0.61192 0.65642 0.0
C1570 C 0.1028 0.62539 0.64153 0.0
C1571 C 0.10097 0.61688 0.62383 0.0
C1572 C 0.09753 0.62983 0.60982 0.0
C1573 C 0.09572 0.65125 0.61334 0.0
C1574 C 0.09728 0.65971 0.63089 0.0
C1575 C 0.10074 0.64684 0.64495 0.0
H1576 H 0.09308 0.66126 0.60248 0.0
H1577 H 0.12425 0.53276 0.73764 0.0
H1578 H 0.5853 0.08443 0.9101 0.0
H1579 H 0.58594 0.10922 0.88452 0.0
H1580 H 0.66817 0.16583 0.89267 0.0
H1581 H 0.66731 0.14216 0.9192 0.0
H1582 H 0.64592 0.18996 0.88226 0.0
H1583 H 0.6445 0.11472 0.86193 0.0
H1584 H 0.62761 0.06776 0.85993 0.0
H1585 H 0.55528 0.05231 0.83858 0.0
H1586 H 0.57159 0.09915 0.84073 0.0
H1587 H 0.68507 0.23619 0.79374 0.0
H1588 H 0.67752 0.21561 0.82294 0.0
H1589 H 0.59437 0.17244 0.81395 0.0
H1590 H 0.60176 0.19319 0.78457 0.0
H1591 H 0.6135 0.14154 0.82509 0.0
H1592 H 0.61914 0.21982 0.84293 0.0
H1593 H 0.63903 0.26741 0.84418 0.0
H1594 H 0.70729 0.27786 0.86925 0.0
H1595 H 0.68802 0.23037 0.86786 0.0
C1596 C 0.60343 0.10251 0.90682 0.0
C1597 C 0.62632 0.11117 0.91677 0.0
C1598 C 0.60382 0.11649 0.89196 0.0
C1599 C 0.62723 0.13908 0.88639 0.0
C1600 C 0.6499 0.14834 0.89662 0.0
C1601 C 0.64945 0.13458 0.91169 0.0
C1602 C 0.62832 0.15238 0.8695 0.0
C1603 C 0.63902 0.1794 0.86974 0.0
C1604 C 0.61891 0.13854 0.85318 0.0
C1605 C 0.60917 0.1104 0.85166 0.0
C1606 C 0.62493 0.10128 0.85692 0.0
C1607 C 0.61546 0.07469 0.85575 0.0
C1608 C 0.59037 0.05706 0.84917 0.0
C1609 C 0.5747 0.06599 0.8437 0.0
C1610 C 0.58405 0.09256 0.84488 0.0
C1611 C 0.66514 0.22243 0.79798 0.0
C1612 C 0.64399 0.21619 0.7868 0.0
C1613 C 0.66087 0.21081 0.81472 0.0
C1614 C 0.6354 0.19261 0.82061 0.0
C1615 C 0.61418 0.18651 0.80962 0.0
C1616 C 0.61842 0.19843 0.7929 0.0
C1617 C 0.63124 0.17905 0.83787 0.0
C1618 C 0.62007 0.152 0.83767 0.0
C1619 C 0.64066 0.19294 0.85413 0.0
C1620 C 0.65219 0.22151 0.85516 0.0
C1621 C 0.63848 0.23227 0.84858 0.0
C1622 C 0.64964 0.25924 0.84933 0.0
C1623 C 0.67443 0.27565 0.85676 0.0
C1624 C 0.68809 0.26512 0.8635 0.0
C1625 C 0.67705 0.23817 0.86274 0.0
H1626 H 0.68307 0.29653 0.8573 0.0
H1627 H 0.58308 0.03649 0.84825 0.0
H1628 H 0.4486 0.56323 0.09329 0.0
H1629 H 0.43453 0.56894 0.06415 0.0
H1630 H 0.39836 0.48682 0.05312 0.0
H1631 H 0.41352 0.48124 0.08177 0.0
H1632 H 0.42887 0.51369 0.02724 0.0
H1633 H 0.36157 0.5142 0.05798 0.0
H1634 H 0.34157 0.52645 0.08117 0.0
H1635 H 0.38675 0.60614 0.06332 0.0
H1636 H 0.40732 0.59446 0.04017 0.0
H1637 H 0.37616 0.56006 0.95056 0.0
H1638 H 0.37108 0.54137 0.98031 0.0
H1639 H 0.4544 0.57732 0.98362 0.0
H1640 H 0.45971 0.59581 0.95394 0.0
H1641 H 0.39009 0.56467 0.01243 0.0
H1642 H 0.46737 0.53756 0.00493 0.0
H1643 H 0.48418 0.52215 0.9815 0.0
H1644 H 0.41208 0.48887 0.95266 0.0
H1645 H 0.39469 0.50373 0.97603 0.0
C1646 C 0.43739 0.54633 0.08474 0.0
C1647 C 0.43237 0.52184 0.08982 0.0
C1648 C 0.42907 0.54955 0.06816 0.0
C1649 C 0.41528 0.52827 0.05645 0.0
C1650 C 0.40895 0.50351 0.06193 0.0
C1651 C 0.41743 0.50031 0.07843 0.0
C1652 C 0.41038 0.53253 0.03779 0.0
C1653 C 0.42013 0.5246 0.02403 0.0
C1654 C 0.3985 0.5463 0.03353 0.0
C1655 C 0.38611 0.55346 0.04739 0.0
C1656 C 0.36739 0.53438 0.05907 0.0
C1657 C 0.35592 0.54121 0.0722 0.0
C1658 C 0.36292 0.56706 0.07374 0.0
C1659 C 0.38135 0.58612 0.06211 0.0
C1660 C 0.39289 0.57939 0.04896 0.0
C1661 C 0.39341 0.56387 0.95756 0.0
C1662 C 0.41835 0.57935 0.94979 0.0
C1663 C 0.39045 0.55325 0.97459 0.0
C1664 C 0.41232 0.55775 0.98407 0.0
C1665 C 0.43721 0.57327 0.9764 0.0
C1666 C 0.4402 0.5839 0.95943 0.0
C1667 C 0.40947 0.54664 0.00211 0.0
C1668 C 0.39837 0.55335 0.0157 0.0
C1669 C 0.4196 0.53124 0.00622 0.0
C1670 C 0.42981 0.52194 0.99219 0.0
C1671 C 0.45505 0.52683 0.99364 0.0
C1672 C 0.46469 0.51822 0.98036 0.0
C1673 C 0.44923 0.5046 0.96558 0.0
C1674 C 0.42407 0.4995 0.96408 0.0
C1675 C 0.41432 0.50805 0.97733 0.0
H1676 H 0.45674 0.49796 0.95531 0.0
H1677 H 0.35402 0.57232 0.08392 0.0
H1678 H 0.97668 0.55168 0.24454 0.0
H1679 H 0.95498 0.53519 0.21591 0.0
H1680 H 0.90083 0.55718 0.22922 0.0
H1681 H 0.92207 0.57304 0.25842 0.0
H1682 H 0.87596 0.50918 0.21434 0.0
H1683 H 0.94929 0.59306 0.19933 0.0
H1684 H 0.99548 0.62966 0.19874 0.0
H1685 H 0.01617 0.58119 0.17215 0.0
H1686 H 0.97016 0.54415 0.1728 0.0
H1687 H 0.82889 0.47561 0.1244 0.0
H1688 H 0.84865 0.50266 0.15107 0.0
H1689 H 0.90726 0.48398 0.15142 0.0
H1690 H 0.88778 0.45703 0.12486 0.0
H1691 H 0.9278 0.53628 0.15841 0.0
H1692 H 0.85529 0.45123 0.1778 0.0
H1693 H 0.80904 0.41471 0.17834 0.0
H1694 H 0.7869 0.46661 0.19658 0.0
H1695 H 0.83303 0.50354 0.19592 0.0
C1696 C 0.95993 0.55272 0.24153 0.0
C1697 C 0.95093 0.56344 0.25384 0.0
C1698 C 0.94777 0.54361 0.22502 0.0
C1699 C 0.92653 0.54531 0.22029 0.0
C1700 C 0.9173 0.55583 0.23256 0.0
C1701 C 0.9295 0.56497 0.24918 0.0
C1702 C 0.91382 0.53543 0.20264 0.0
C1703 C 0.88716 0.51555 0.20206 0.0
C1704 C 0.92849 0.54353 0.18662 0.0
C1705 C 0.95624 0.56577 0.18618 0.0
C1706 C 0.9637 0.59013 0.19346 0.0
C1707 C 0.98986 0.61098 0.1931 0.0
C1708 C 0.00873 0.60776 0.18539 0.0
C1709 C 0.00151 0.58366 0.17808 0.0
C1710 C 0.97539 0.56275 0.17842 0.0
C1711 C 0.84616 0.4775 0.13003 0.0
C1712 C 0.85665 0.46401 0.12255 0.0
C1713 C 0.85736 0.49288 0.14531 0.0
C1714 C 0.87928 0.49514 0.15329 0.0
C1715 C 0.89034 0.4825 0.14547 0.0
C1716 C 0.87908 0.46699 0.13032 0.0
C1717 C 0.89022 0.50962 0.17024 0.0
C1718 C 0.91653 0.53035 0.17067 0.0
C1719 C 0.87522 0.50239 0.18608 0.0
C1720 C 0.84754 0.48018 0.1866 0.0
C1721 C 0.84053 0.45489 0.18179 0.0
C1722 C 0.81435 0.43411 0.18214 0.0
C1723 C 0.79503 0.43835 0.18743 0.0
C1724 C 0.80188 0.46337 0.19245 0.0
C1725 C 0.82803 0.48422 0.19209 0.0
H1726 H 0.77477 0.42224 0.1877 0.0
H1727 H 0.02895 0.62394 0.18506 0.0
loop_
_geom_bond_atom_site_label_1
_geom_bond_atom_site_label_2
_geom_bond_distance
_geom_bond_site_symmetry_2
_ccdc_geom_bond_type
H0 O26 0.856 . S
H1 O29 0.854 . S
H2 C37 0.930 . S
H3 C38 0.930 . S
H4 C40 0.930 . S
H5 C41 0.930 . S
H6 C43 0.931 . S
H7 C44 0.930 . S
H8 C46 0.930 . S
H9 C47 0.929 . S
H10 C49 0.930 . S
H11 C50 0.931 . S
H12 C52 0.930 . S
H13 C53 0.929 . S
H14 C55 0.931 . S
H15 C56 0.930 . S
H16 C58 0.930 . S
H17 C59 0.932 . S
H18 C61 0.930 . S
H19 C62 0.929 . S
H20 C64 0.931 . S
H21 C65 0.930 . S
H22 C67 0.929 . S
H23 C68 0.931 . S
H24 C70 0.930 . S
H25 C71 0.929 1_455 S
O26 H0 0.856 . S
O26 C72 1.300 . S
O27 C72 1.209 . S
O28 C73 1.199 . S
O29 H1 0.854 . S
O29 C73 1.297 . S
C30 C31 1.404 . S
C30 C35 1.397 . S
C30 C36 1.492 . S
C31 C30 1.404 . S
C31 C32 1.396 . S
C31 C42 1.492 . S
C32 C31 1.396 . S
C32 C33 1.397 . S
C32 C48 1.509 . S
C33 C32 1.397 . S
C33 C34 1.412 . S
C33 C54 1.485 . S
C34 C33 1.412 . S
C34 C35 1.388 . S
C34 C60 1.490 . S
C35 C30 1.397 . S
C35 C34 1.388 . S
C35 C66 1.519 . S
C36 C30 1.492 . S
C36 C37 1.363 . S
C36 C41 1.390 1_455 S
C37 H2 0.930 . S
C37 C36 1.363 . S
C37 C38 1.372 1_455 S
C38 H3 0.930 . S
C38 C37 1.372 1_655 S
C38 C39 1.383 . S
C39 C38 1.383 . S
C39 C40 1.395 . S
C40 H4 0.930 . S
C40 C39 1.395 . S
C40 C41 1.362 . S
C41 H5 0.930 . S
C41 C36 1.390 1_655 S
C41 C40 1.362 . S
C42 C31 1.492 . S
C42 C43 1.377 . S
C42 C47 1.397 . S
C43 H6 0.931 . S
C43 C42 1.377 . S
C43 C44 1.376 . S
C44 H7 0.930 . S
C44 C43 1.376 . S
C44 C45 1.376 . S
C45 C44 1.376 . S
C45 C46 1.378 . S
C45 C72 1.486 . S
C46 H8 0.930 . S
C46 C45 1.378 . S
C46 C47 1.376 . S
C47 H9 0.929 . S
C47 C42 1.397 . S
C47 C46 1.376 . S
C48 C32 1.509 . S
C48 C49 1.391 . S
C48 C53 1.386 . S
C49 H10 0.930 . S
C49 C48 1.391 . S
C49 C50 1.375 . S
C50 H11 0.931 . S
C50 C49 1.375 . S
C50 C51 1.375 . S
C51 C50 1.375 . S
C51 C52 1.361 . S
C52 H12 0.930 . S
C52 C51 1.361 . S
C52 C53 1.399 . S
C53 H13 0.929 . S
C53 C48 1.386 . S
C53 C52 1.399 . S
C54 C33 1.485 . S
C54 C55 1.394 . S
C54 C59 1.360 . S
C55 H14 0.931 . S
C55 C54 1.394 . S
C55 C56 1.372 . S
C56 H15 0.930 . S
C56 C55 1.372 . S
C56 C57 1.397 . S
C57 C56 1.397 . S
C57 C58 1.390 . S
C57 C73 1.476 . S
C58 H16 0.930 . S
C58 C57 1.390 . S
C58 C59 1.366 . S
C59 H17 0.932 . S
C59 C54 1.360 . S
C59 C58 1.366 . S
C60 C34 1.490 . S
C60 C61 1.380 . S
C60 C65 1.386 . S
C61 H18 0.930 . S
C61 C60 1.380 . S
C61 C62 1.381 . S
C62 H19 0.929 . S
C62 C61 1.381 . S
C62 C63 1.371 . S
C63 C62 1.371 . S
C63 C64 1.380 . S
C64 H20 0.931 . S
C64 C63 1.380 . S
C64 C65 1.387 . S
C65 H21 0.930 . S
C65 C60 1.386 . S
C65 C64 1.387 . S
C66 C35 1.519 . S
C66 C67 1.377 1_455 S
C66 C71 1.361 1_455 S
C67 H22 0.929 . S
C67 C66 1.377 1_655 S
C67 C68 1.386 . S
C68 H23 0.931 . S
C68 C67 1.386 . S
C68 C69 1.363 . S
C69 C68 1.363 . S
C69 C70 1.385 . S
C70 H24 0.930 . S
C70 C69 1.385 . S
C70 C71 1.396 . S
C71 H25 0.929 1_655 S
C71 C66 1.361 1_655 S
C71 C70 1.396 . S
C72 O26 1.300 . S
C72 O27 1.209 . S
C72 C45 1.486 . S
C73 O28 1.199 . S
C73 O29 1.297 . S
C73 C57 1.476 . S
H74 O100 0.856 . S
H75 O103 0.854 . S
H76 C111 0.930 . S
H77 C112 0.930 . S
H78 C114 0.930 1_565 S
H79 C115 0.930 . S
H80 C117 0.931 . S
H81 C118 0.930 . S
H82 C120 0.930 . S
H83 C121 0.929 . S
H84 C123 0.930 . S
H85 C124 0.931 . S
H86 C126 0.930 . S
H87 C127 0.929 . S
H88 C129 0.931 . S
H89 C130 0.930 . S
H90 C132 0.930 . S
H91 C133 0.932 . S
H92 C135 0.930 . S
H93 C136 0.929 . S
H94 C138 0.931 . S
H95 C139 0.930 . S
H96 C141 0.929 . S
H97 C142 0.931 . S
H98 C144 0.930 . S
H99 C145 0.929 . S
O100 H74 0.856 . S
O100 C146 1.300 . S
O101 C146 1.209 . S
O102 C147 1.199 . S
O103 H75 0.854 . S
O103 C147 1.297 . S
C104 C105 1.404 . S
C104 C109 1.397 . S
C104 C110 1.492 . S
C105 C104 1.404 . S
C105 C106 1.396 . S
C105 C116 1.492 . S
C106 C105 1.396 . S
C106 C107 1.397 . S
C106 C122 1.509 . S
C107 C106 1.397 . S
C107 C108 1.412 . S
C107 C128 1.485 . S
C108 C107 1.412 . S
C108 C109 1.388 . S
C108 C134 1.490 . S
C109 C104 1.397 . S
C109 C108 1.388 . S
C109 C140 1.519 . S
C110 C104 1.492 . S
C110 C111 1.363 . S
C110 C115 1.390 . S
C111 H76 0.930 . S
C111 C110 1.363 . S
C111 C112 1.372 . S
C112 H77 0.930 . S
C112 C111 1.372 . S
C112 C113 1.382 1_545 S
C113 C112 1.382 1_565 S
C113 C114 1.391 1_565 S
C114 H78 0.930 1_545 S
C114 C113 1.391 1_545 S
C114 C115 1.362 . S
C115 H79 0.930 . S
C115 C110 1.390 . S
C115 C114 1.362 . S
C116 C105 1.492 . S
C116 C117 1.377 . S
C116 C121 1.397 . S
C117 H80 0.931 . S
C117 C116 1.377 . S
C117 C118 1.376 . S
C118 H81 0.930 . S
C118 C117 1.376 . S
C118 C119 1.376 . S
C119 C118 1.376 . S
C119 C120 1.378 . S
C119 C146 1.486 . S
C120 H82 0.930 . S
C120 C119 1.378 . S
C120 C121 1.376 . S
C121 H83 0.929 . S
C121 C116 1.397 . S
C121 C120 1.376 . S
C122 C106 1.509 . S
C122 C123 1.391 . S
C122 C127 1.386 . S
C123 H84 0.930 . S
C123 C122 1.391 . S
C123 C124 1.375 . S
C124 H85 0.931 . S
C124 C123 1.375 . S
C124 C125 1.375 . S
C125 C124 1.375 . S
C125 C126 1.361 . S
C126 H86 0.930 . S
C126 C125 1.361 . S
C126 C127 1.399 . S
C127 H87 0.929 . S
C127 C122 1.386 . S
C127 C126 1.399 . S
C128 C107 1.485 . S
C128 C129 1.394 . S
C128 C133 1.360 . S
C129 H88 0.931 . S
C129 C128 1.394 . S
C129 C130 1.372 . S
C130 H89 0.930 . S
C130 C129 1.372 . S
C130 C131 1.397 . S
C131 C130 1.397 . S
C131 C132 1.390 . S
C131 C147 1.476 . S
C132 H90 0.930 . S
C132 C131 1.390 . S
C132 C133 1.366 . S
C133 H91 0.932 . S
C133 C128 1.360 . S
C133 C132 1.366 . S
C134 C108 1.490 . S
C134 C135 1.380 . S
C134 C139 1.386 . S
C135 H92 0.930 . S
C135 C134 1.380 . S
C135 C136 1.381 . S
C136 H93 0.929 . S
C136 C135 1.381 . S
C136 C137 1.371 . S
C137 C136 1.371 . S
C137 C138 1.380 . S
C138 H94 0.931 . S
C138 C137 1.380 . S
C138 C139 1.387 . S
C139 H95 0.930 . S
C139 C134 1.386 . S
C139 C138 1.387 . S
C140 C109 1.519 . S
C140 C141 1.377 . S
C140 C145 1.361 . S
C141 H96 0.929 . S
C141 C140 1.377 . S
C141 C142 1.386 1_545 S
C142 H97 0.931 . S
C142 C141 1.386 1_565 S
C142 C143 1.363 . S
C143 C142 1.363 . S
C143 C144 1.385 . S
C144 H98 0.930 . S
C144 C143 1.385 . S
C144 C145 1.396 1_565 S
C145 H99 0.929 . S
C145 C140 1.361 . S
C145 C144 1.396 1_545 S
C146 O100 1.300 . S
C146 O101 1.209 . S
C146 C119 1.486 . S
C147 O102 1.199 . S
C147 O103 1.297 . S
C147 C131 1.476 . S
H148 O174 0.856 . S
H149 O177 0.854 . S
H150 C185 0.930 . S
H151 C186 0.930 . S
H152 C188 0.930 . S
H153 C189 0.930 . S
H154 C191 0.931 . S
H155 C192 0.930 . S
H156 C194 0.930 . S
H157 C195 0.929 . S
H158 C197 0.930 . S
H159 C198 0.931 . S
H160 C200 0.930 . S
H161 C201 0.929 . S
H162 C203 0.931 . S
H163 C204 0.930 . S
H164 C206 0.930 . S
H165 C207 0.932 . S
H166 C209 0.930 . S
H167 C210 0.929 . S
H168 C212 0.931 . S
H169 C213 0.930 . S
H170 C215 0.929 . S
H171 C216 0.931 . S
H172 C218 0.930 . S
H173 C219 0.929 . S
O174 H148 0.856 . S
O174 C220 1.300 . S
O175 C220 1.209 . S
O176 C221 1.199 . S
O177 H149 0.854 . S
O177 C221 1.297 . S
C178 C179 1.404 . S
C178 C183 1.397 . S
C178 C184 1.492 . S
C179 C178 1.404 . S
C179 C180 1.396 . S
C179 C190 1.492 . S
C180 C179 1.396 . S
C180 C181 1.397 . S
C180 C196 1.509 . S
C181 C180 1.397 . S
C181 C182 1.412 . S
C181 C202 1.485 . S
C182 C181 1.412 . S
C182 C183 1.388 . S
C182 C208 1.490 . S
C183 C178 1.397 . S
C183 C182 1.388 . S
C183 C214 1.519 . S
C184 C178 1.492 . S
C184 C185 1.363 . S
C184 C189 1.390 . S
C185 H150 0.930 . S
C185 C184 1.363 . S
C185 C186 1.372 . S
C186 H151 0.930 . S
C186 C185 1.372 . S
C186 C187 1.383 . S
C187 C186 1.383 . S
C187 C188 1.395 . S
C188 H152 0.930 . S
C188 C187 1.395 . S
C188 C189 1.362 . S
C189 H153 0.930 . S
C189 C184 1.390 . S
C189 C188 1.362 . S
C190 C179 1.492 . S
C190 C191 1.377 . S
C190 C195 1.397 . S
C191 H154 0.931 . S
C191 C190 1.377 . S
C191 C192 1.376 . S
C192 H155 0.930 . S
C192 C191 1.376 . S
C192 C193 1.376 . S
C193 C192 1.376 . S
C193 C194 1.378 . S
C193 C220 1.486 . S
C194 H156 0.930 . S
C194 C193 1.378 . S
C194 C195 1.376 . S
C195 H157 0.929 . S
C195 C190 1.397 . S
C195 C194 1.376 . S
C196 C180 1.509 . S
C196 C197 1.391 . S
C196 C201 1.386 . S
C197 H158 0.930 . S
C197 C196 1.391 . S
C197 C198 1.375 . S
C198 H159 0.931 . S
C198 C197 1.375 . S
C198 C199 1.375 . S
C199 C198 1.375 . S
C199 C200 1.361 . S
C200 H160 0.930 . S
C200 C199 1.361 . S
C200 C201 1.399 . S
C201 H161 0.929 . S
C201 C196 1.386 . S
C201 C200 1.399 . S
C202 C181 1.485 . S
C202 C203 1.394 . S
C202 C207 1.360 . S
C203 H162 0.931 . S
C203 C202 1.394 . S
C203 C204 1.372 . S
C204 H163 0.930 . S
C204 C203 1.372 . S
C204 C205 1.397 . S
C205 C204 1.397 . S
C205 C206 1.390 . S
C205 C221 1.476 . S
C206 H164 0.930 . S
C206 C205 1.390 . S
C206 C207 1.366 . S
C207 H165 0.932 . S
C207 C202 1.360 . S
C207 C206 1.366 . S
C208 C182 1.490 . S
C208 C209 1.380 . S
C208 C213 1.386 . S
C209 H166 0.930 . S
C209 C208 1.380 . S
C209 C210 1.381 . S
C210 H167 0.929 . S
C210 C209 1.381 . S
C210 C211 1.371 . S
C211 C210 1.371 . S
C211 C212 1.380 . S
C212 H168 0.931 . S
C212 C211 1.380 . S
C212 C213 1.387 . S
C213 H169 0.930 . S
C213 C208 1.386 . S
C213 C212 1.387 . S
C214 C183 1.519 . S
C214 C215 1.377 . S
C214 C219 1.361 . S
C215 H170 0.929 . S
C215 C214 1.377 . S
C215 C216 1.386 . S
C216 H171 0.931 . S
C216 C215 1.386 . S
C216 C217 1.363 . S
C217 C216 1.363 . S
C217 C218 1.385 . S
C218 H172 0.930 . S
C218 C217 1.385 . S
C218 C219 1.396 . S
C219 H173 0.929 . S
C219 C214 1.361 . S
C219 C218 1.396 . S
C220 O174 1.300 . S
C220 O175 1.209 . S
C220 C193 1.486 . S
C221 O176 1.199 . S
C221 O177 1.297 . S
C221 C205 1.476 . S
H222 O248 0.856 . S
H223 O251 0.854 . S
H224 C259 0.930 1_455 S
H225 C260 0.930 . S
H226 C262 0.930 . S
H227 C263 0.930 . S
H228 C265 0.931 . S
H229 C266 0.930 . S
H230 C268 0.930 . S
H231 C269 0.929 . S
H232 C271 0.930 . S
H233 C272 0.931 . S
H234 C274 0.930 . S
H235 C275 0.929 . S
H236 C277 0.931 . S
H237 C278 0.930 . S
H238 C280 0.930 . S
H239 C281 0.932 . S
H240 C283 0.930 . S
H241 C284 0.929 . S
H242 C286 0.931 . S
H243 C287 0.930 . S
H244 C289 0.929 . S
H245 C290 0.931 . S
H246 C292 0.930 . S
H247 C293 0.929 . S
O248 H222 0.856 . S
O248 C294 1.300 . S
O249 C294 1.209 . S
O250 C295 1.199 . S
O251 H223 0.854 . S
O251 C295 1.297 . S
C252 C253 1.404 . S
C252 C257 1.397 . S
C252 C258 1.492 1_455 S
C253 C252 1.404 . S
C253 C254 1.396 . S
C253 C264 1.492 . S
C254 C253 1.396 . S
C254 C255 1.397 . S
C254 C270 1.509 . S
C255 C254 1.397 . S
C255 C256 1.412 . S
C255 C276 1.485 . S
C256 C255 1.412 . S
C256 C257 1.388 . S
C256 C282 1.490 . S
C257 C252 1.397 . S
C257 C256 1.388 . S
C257 C288 1.519 1_455 S
C258 C252 1.492 1_655 S
C258 C259 1.363 . S
C258 C263 1.390 . S
C259 H224 0.930 1_655 S
C259 C258 1.363 . S
C259 C260 1.372 . S
C260 H225 0.930 . S
C260 C259 1.372 . S
C260 C261 1.383 . S
C261 C260 1.383 . S
C261 C262 1.395 . S
C262 H226 0.930 . S
C262 C261 1.395 . S
C262 C263 1.362 . S
C263 H227 0.930 . S
C263 C258 1.390 . S
C263 C262 1.362 . S
C264 C253 1.492 . S
C264 C265 1.377 . S
C264 C269 1.397 . S
C265 H228 0.931 . S
C265 C264 1.377 . S
C265 C266 1.376 . S
C266 H229 0.930 . S
C266 C265 1.376 . S
C266 C267 1.376 . S
C267 C266 1.376 . S
C267 C268 1.378 . S
C267 C294 1.486 . S
C268 H230 0.930 . S
C268 C267 1.378 . S
C268 C269 1.376 . S
C269 H231 0.929 . S
C269 C264 1.397 . S
C269 C268 1.376 . S
C270 C254 1.509 . S
C270 C271 1.391 . S
C270 C275 1.386 . S
C271 H232 0.930 . S
C271 C270 1.391 . S
C271 C272 1.375 . S
C272 H233 0.931 . S
C272 C271 1.375 . S
C272 C273 1.375 . S
C273 C272 1.375 . S
C273 C274 1.361 . S
C274 H234 0.930 . S
C274 C273 1.361 . S
C274 C275 1.399 . S
C275 H235 0.929 . S
C275 C270 1.386 . S
C275 C274 1.399 . S
C276 C255 1.485 . S
C276 C277 1.394 . S
C276 C281 1.360 . S
C277 H236 0.931 . S
C277 C276 1.394 . S
C277 C278 1.372 . S
C278 H237 0.930 . S
C278 C277 1.372 . S
C278 C279 1.397 . S
C279 C278 1.397 . S
C279 C280 1.390 . S
C279 C295 1.476 . S
C280 H238 0.930 . S
C280 C279 1.390 . S
C280 C281 1.366 . S
C281 H239 0.932 . S
C281 C276 1.360 . S
C281 C280 1.366 . S
C282 C256 1.490 . S
C282 C283 1.380 . S
C282 C287 1.386 . S
C283 H240 0.930 . S
C283 C282 1.380 . S
C283 C284 1.381 . S
C284 H241 0.929 . S
C284 C283 1.381 . S
C284 C285 1.371 . S
C285 C284 1.371 . S
C285 C286 1.380 . S
C286 H242 0.931 . S
C286 C285 1.380 . S
C286 C287 1.387 . S
C287 H243 0.930 . S
C287 C282 1.386 . S
C287 C286 1.387 . S
C288 C257 1.519 1_655 S
C288 C289 1.377 . S
C288 C293 1.361 . S
C289 H244 0.929 . S
C289 C288 1.377 . S
C289 C290 1.386 . S
C290 H245 0.931 . S
C290 C289 1.386 . S
C290 C291 1.363 . S
C291 C290 1.363 . S
C291 C292 1.385 . S
C292 H246 0.930 . S
C292 C291 1.385 . S
C292 C293 1.396 . S
C293 H247 0.929 . S
C293 C288 1.361 . S
C293 C292 1.396 . S
C294 O248 1.300 . S
C294 O249 1.209 . S
C294 C267 1.486 . S
C295 O250 1.199 . S
C295 O251 1.297 . S
C295 C279 1.476 . S
H296 O322 0.856 . S
H297 O325 0.854 . S
H298 C333 0.930 . S
H299 C334 0.930 . S
H300 C336 0.930 . S
H301 C337 0.930 . S
H302 C339 0.931 . S
H303 C340 0.930 . S
H304 C342 0.930 1_545 S
H305 C343 0.929 1_545 S
H306 C345 0.930 . S
H307 C346 0.931 . S
H308 C348 0.930 . S
H309 C349 0.929 . S
H310 C351 0.931 . S
H311 C352 0.930 . S
H312 C354 0.930 . S
H313 C355 0.948 . S
H314 C357 0.930 . S
H315 C358 0.929 . S
H316 C360 0.931 . S
H317 C361 0.930 . S
H318 C363 0.929 . S
H319 C364 0.931 . S
H320 C366 0.930 . S
H321 C367 0.929 . S
O322 H296 0.856 . S
O322 C368 1.300 . S
O323 C368 1.209 . S
O324 C369 1.199 . S
O325 H297 0.854 . S
O325 C369 1.297 . S
C326 C327 1.404 1_545 S
C326 C331 1.397 . S
C326 C332 1.492 . S
C327 C326 1.404 1_565 S
C327 C328 1.396 . S
C327 C338 1.492 . S
C328 C327 1.396 . S
C328 C329 1.397 . S
C328 C344 1.509 . S
C329 C328 1.397 . S
C329 C330 1.412 1_556 S
C329 C350 1.485 1_556 S
C330 C329 1.412 1_554 S
C330 C331 1.388 1_564 S
C330 C356 1.498 . S
C331 C326 1.397 . S
C331 C330 1.388 1_546 S
C331 C362 1.519 . S
C332 C326 1.492 . S
C332 C333 1.363 . S
C332 C337 1.390 . S
C333 H298 0.930 . S
C333 C332 1.363 . S
C333 C334 1.372 . S
C334 H299 0.930 . S
C334 C333 1.372 . S
C334 C335 1.383 . S
C335 C334 1.383 . S
C335 C336 1.395 . S
C336 H300 0.930 . S
C336 C335 1.395 . S
C336 C337 1.362 . S
C337 H301 0.930 . S
C337 C332 1.390 . S
C337 C336 1.362 . S
C338 C327 1.492 . S
C338 C339 1.377 . S
C338 C343 1.397 . S
C339 H302 0.931 . S
C339 C338 1.377 . S
C339 C340 1.376 . S
C340 H303 0.930 . S
C340 C339 1.376 . S
C340 C341 1.376 . S
C341 C340 1.376 . S
C341 C342 1.378 . S
C341 C368 1.486 . S
C342 H304 0.930 1_565 S
C342 C341 1.378 . S
C342 C343 1.376 . S
C343 H305 0.929 1_565 S
C343 C338 1.397 . S
C343 C342 1.376 . S
C344 C328 1.509 . S
C344 C345 1.391 . S
C344 C349 1.386 . S
C345 H306 0.930 . S
C345 C344 1.391 . S
C345 C346 1.375 . S
C346 H307 0.931 . S
C346 C345 1.375 . S
C346 C347 1.375 . S
C347 C346 1.375 . S
C347 C348 1.361 . S
C348 H308 0.930 . S
C348 C347 1.361 . S
C348 C349 1.399 . S
C349 H309 0.929 . S
C349 C344 1.386 . S
C349 C348 1.399 . S
C350 C329 1.485 1_554 S
C350 C351 1.394 . S
C350 C355 1.360 . S
C351 H310 0.931 . S
C351 C350 1.394 . S
C351 C352 1.372 . S
C352 H311 0.930 . S
C352 C351 1.372 . S
C352 C353 1.397 . S
C353 C352 1.397 . S
C353 C354 1.390 . S
C353 C369 1.476 . S
C354 H312 0.930 . S
C354 C353 1.390 . S
C354 C355 1.366 . S
C355 H313 0.948 . S
C355 C350 1.360 . S
C355 C354 1.366 . S
C356 C330 1.498 . S
C356 C357 1.347 1_565 S
C356 C361 1.412 . S
C357 H314 0.930 . S
C357 C356 1.347 1_545 S
C357 C358 1.381 . S
C358 H315 0.929 . S
C358 C357 1.381 . S
C358 C359 1.371 . S
C359 C358 1.371 . S
C359 C360 1.380 1_545 S
C360 H316 0.931 . S
C360 C359 1.380 1_565 S
C360 C361 1.387 . S
C361 H317 0.930 . S
C361 C356 1.412 . S
C361 C360 1.387 . S
C362 C331 1.519 . S
C362 C363 1.377 . S
C362 C367 1.361 1_556 S
C363 H318 0.929 . S
C363 C362 1.377 . S
C363 C364 1.386 1_556 S
C364 H319 0.931 . S
C364 C363 1.386 1_554 S
C364 C365 1.363 . S
C365 C364 1.363 . S
C365 C366 1.385 . S
C366 H320 0.930 . S
C366 C365 1.385 . S
C366 C367 1.396 . S
C367 H321 0.929 . S
C367 C362 1.361 1_554 S
C367 C366 1.396 . S
C368 O322 1.300 . S
C368 O323 1.209 . S
C368 C341 1.486 . S
C369 O324 1.199 . S
C369 O325 1.297 . S
C369 C353 1.476 . S
H370 O396 0.856 . S
H371 O399 0.854 . S
H372 C407 0.930 . S
H373 C408 0.930 . S
H374 C410 0.930 . S
H375 C411 0.930 . S
H376 C413 0.931 . S
H377 C414 0.930 . S
H378 C416 0.930 . S
H379 C417 0.929 . S
H380 C419 0.930 . S
H381 C420 0.931 . S
H382 C422 0.930 . S
H383 C423 0.929 . S
H384 C425 0.931 . S
H385 C426 0.930 . S
H386 C428 0.930 . S
H387 C429 0.932 . S
H388 C431 0.930 . S
H389 C432 0.929 . S
H390 C434 0.931 . S
H391 C435 0.930 . S
H392 C437 0.929 . S
H393 C438 0.931 . S
H394 C440 0.930 . S
H395 C441 0.929 . S
O396 H370 0.856 . S
O396 C442 1.300 . S
O397 C442 1.209 . S
O398 C443 1.199 . S
O399 H371 0.854 . S
O399 C443 1.297 . S
C400 C401 1.404 . S
C400 C405 1.397 . S
C400 C406 1.492 . S
C401 C400 1.404 . S
C401 C402 1.396 . S
C401 C412 1.492 . S
C402 C401 1.396 . S
C402 C403 1.397 . S
C402 C418 1.509 . S
C403 C402 1.397 . S
C403 C404 1.412 . S
C403 C424 1.485 . S
C404 C403 1.412 . S
C404 C405 1.388 . S
C404 C430 1.490 . S
C405 C400 1.397 . S
C405 C404 1.388 . S
C405 C436 1.519 . S
C406 C400 1.492 . S
C406 C407 1.363 . S
C406 C411 1.390 . S
C407 H372 0.930 . S
C407 C406 1.363 . S
C407 C408 1.372 . S
C408 H373 0.930 . S
C408 C407 1.372 . S
C408 C409 1.383 . S
C409 C408 1.383 . S
C409 C410 1.395 . S
C410 H374 0.930 . S
C410 C409 1.395 . S
C410 C411 1.362 . S
C411 H375 0.930 . S
C411 C406 1.390 . S
C411 C410 1.362 . S
C412 C401 1.492 . S
C412 C413 1.377 . S
C412 C417 1.397 . S
C413 H376 0.931 . S
C413 C412 1.377 . S
C413 C414 1.376 . S
C414 H377 0.930 . S
C414 C413 1.376 . S
C414 C415 1.376 . S
C415 C414 1.376 . S
C415 C416 1.378 . S
C415 C442 1.486 . S
C416 H378 0.930 . S
C416 C415 1.378 . S
C416 C417 1.376 . S
C417 H379 0.929 . S
C417 C412 1.397 . S
C417 C416 1.376 . S
C418 C402 1.509 . S
C418 C419 1.391 . S
C418 C423 1.386 . S
C419 H380 0.930 . S
C419 C418 1.391 . S
C419 C420 1.375 . S
C420 H381 0.931 . S
C420 C419 1.375 . S
C420 C421 1.375 . S
C421 C420 1.375 . S
C421 C422 1.361 . S
C422 H382 0.930 . S
C422 C421 1.361 . S
C422 C423 1.399 . S
C423 H383 0.929 . S
C423 C418 1.386 . S
C423 C422 1.399 . S
C424 C403 1.485 . S
C424 C425 1.394 . S
C424 C429 1.360 . S
C425 H384 0.931 . S
C425 C424 1.394 . S
C425 C426 1.372 . S
C426 H385 0.930 . S
C426 C425 1.372 . S
C426 C427 1.397 . S
C427 C426 1.397 . S
C427 C428 1.390 . S
C427 C443 1.476 . S
C428 H386 0.930 . S
C428 C427 1.390 . S
C428 C429 1.366 . S
C429 H387 0.932 . S
C429 C424 1.360 . S
C429 C428 1.366 . S
C430 C404 1.490 . S
C430 C431 1.380 . S
C430 C435 1.386 . S
C431 H388 0.930 . S
C431 C430 1.380 . S
C431 C432 1.381 . S
C432 H389 0.929 . S
C432 C431 1.381 . S
C432 C433 1.371 . S
C433 C432 1.371 . S
C433 C434 1.380 . S
C434 H390 0.931 . S
C434 C433 1.380 . S
C434 C435 1.387 . S
C435 H391 0.930 . S
C435 C430 1.386 . S
C435 C434 1.387 . S
C436 C405 1.519 . S
C436 C437 1.377 . S
C436 C441 1.361 . S
C437 H392 0.929 . S
C437 C436 1.377 . S
C437 C438 1.386 . S
C438 H393 0.931 . S
C438 C437 1.386 . S
C438 C439 1.363 . S
C439 C438 1.363 . S
C439 C440 1.385 . S
C440 H394 0.930 . S
C440 C439 1.385 . S
C440 C441 1.396 . S
C441 H395 0.929 . S
C441 C436 1.361 . S
C441 C440 1.396 . S
C442 O396 1.300 . S
C442 O397 1.209 . S
C442 C415 1.486 . S
C443 O398 1.199 . S
C443 O399 1.297 . S
C443 C427 1.476 . S
Co444 O445 2.216 . S
Co444 O446 2.091 . S
Co444 O448 2.004 . S
Co444 O454 2.021 . S
Co444 O456 2.137 . S
Co444 O457 2.244 . S
O445 Co444 2.216 . S
O445 C452 1.247 . S
O446 Co444 2.091 . S
O446 C452 1.261 . S
C447 O456 1.247 . S
C447 O457 1.272 . S
O448 Co444 2.004 . S
O448 C453 1.259 . S
Co449 O450 2.061 . S
Co449 O455 2.052 . S
Co449 O457 2.135 . S
O450 Co449 2.061 . S
O450 C453 1.235 . S
C451 O454 1.238 . S
C451 O455 1.241 . S
C452 O445 1.247 . S
C452 O446 1.261 . S
C453 O448 1.259 . S
C453 O450 1.235 . S
O454 Co444 2.021 . S
O454 C451 1.238 . S
O455 Co449 2.052 . S
O455 C451 1.241 . S
O456 Co444 2.137 . S
O456 C447 1.247 . S
O457 Co444 2.244 . S
O457 C447 1.272 . S
O457 Co449 2.135 . S
Co458 O459 2.216 . S
Co458 O460 2.091 . S
Co458 O462 2.004 . S
Co458 O468 2.021 . S
Co458 O470 2.137 . S
Co458 O471 2.244 . S
O459 Co458 2.216 . S
O459 C466 1.247 . S
O460 Co458 2.091 . S
O460 C466 1.261 . S
C461 O470 1.247 . S
C461 O471 1.272 . S
O462 Co458 2.004 . S
O462 C467 1.259 . S
Co463 O464 2.061 . S
Co463 O469 2.052 . S
Co463 O471 2.135 . S
O464 Co463 2.061 . S
O464 C467 1.235 . S
C465 O468 1.238 . S
C465 O469 1.241 . S
C466 O459 1.247 . S
C466 O460 1.261 . S
C467 O462 1.259 . S
C467 O464 1.235 . S
O468 Co458 2.021 . S
O468 C465 1.238 . S
O469 Co463 2.052 . S
O469 C465 1.241 . S
O470 Co458 2.137 . S
O470 C461 1.247 . S
O471 Co458 2.244 . S
O471 C461 1.272 . S
O471 Co463 2.135 . S
Co472 O473 2.216 . S
Co472 O474 2.091 . S
Co472 O476 2.004 . S
Co472 O482 2.021 . S
Co472 O484 2.137 . S
Co472 O485 2.244 . S
O473 Co472 2.216 . S
O473 C480 1.247 . S
O474 Co472 2.091 . S
O474 C480 1.261 . S
C475 O484 1.247 . S
C475 O485 1.272 . S
O476 Co472 2.004 . S
O476 C481 1.259 . S
Co477 O478 2.061 . S
Co477 O483 2.052 . S
Co477 O485 2.135 . S
O478 Co477 2.061 . S
O478 C481 1.235 . S
C479 O482 1.238 . S
C479 O483 1.241 . S
C480 O473 1.247 . S
C480 O474 1.261 . S
C481 O476 1.259 . S
C481 O478 1.235 . S
O482 Co472 2.021 . S
O482 C479 1.238 . S
O483 Co477 2.052 . S
O483 C479 1.241 . S
O484 Co472 2.137 . S
O484 C475 1.247 . S
O485 Co472 2.244 . S
O485 C475 1.272 . S
O485 Co477 2.135 . S
Co486 O487 2.216 . S
Co486 O488 2.091 . S
Co486 O490 2.004 . S
Co486 O496 2.021 . S
Co486 O498 2.137 . S
Co486 O499 2.244 . S
O487 Co486 2.216 . S
O487 C494 1.247 . S
O488 Co486 2.091 . S
O488 C494 1.261 . S
C489 O498 1.247 . S
C489 O499 1.272 . S
O490 Co486 2.004 . S
O490 C495 1.259 . S
Co491 O492 2.061 . S
Co491 O497 2.052 . S
Co491 O499 2.135 . S
O492 Co491 2.061 . S
O492 C495 1.235 . S
C493 O496 1.238 . S
C493 O497 1.241 . S
C494 O487 1.247 . S
C494 O488 1.261 . S
C495 O490 1.259 . S
C495 O492 1.235 . S
O496 Co486 2.021 . S
O496 C493 1.238 . S
O497 Co491 2.052 . S
O497 C493 1.241 . S
O498 Co486 2.137 . S
O498 C489 1.247 . S
O499 Co486 2.244 . S
O499 C489 1.272 . S
O499 Co491 2.135 . S
Co500 O501 2.216 . S
Co500 O502 2.091 . S
Co500 O504 2.004 . S
Co500 O510 2.021 . S
Co500 O512 2.137 . S
Co500 O513 2.244 . S
O501 Co500 2.216 . S
O501 C508 1.247 . S
O502 Co500 2.091 . S
O502 C508 1.261 . S
C503 O512 1.247 . S
C503 O513 1.272 . S
O504 Co500 2.004 . S
O504 C509 1.259 . S
Co505 O506 2.061 . S
Co505 O511 2.052 . S
Co505 O513 2.135 . S
O506 Co505 2.061 . S
O506 C509 1.235 . S
C507 O510 1.238 . S
C507 O511 1.241 . S
C508 O501 1.247 . S
C508 O502 1.261 . S
C509 O504 1.259 . S
C509 O506 1.235 . S
O510 Co500 2.021 . S
O510 C507 1.238 . S
O511 Co505 2.052 . S
O511 C507 1.241 . S
O512 Co500 2.137 . S
O512 C503 1.247 . S
O513 Co500 2.244 . S
O513 C503 1.272 . S
O513 Co505 2.135 . S
Co514 O515 2.216 . S
Co514 O516 2.091 . S
Co514 O518 2.004 . S
Co514 O524 2.021 . S
Co514 O526 2.137 . S
Co514 O527 2.244 . S
O515 Co514 2.216 . S
O515 C522 1.247 . S
O516 Co514 2.091 . S
O516 C522 1.261 . S
C517 O526 1.247 . S
C517 O527 1.272 . S
O518 Co514 2.004 . S
O518 C523 1.259 . S
Co519 O520 2.061 . S
Co519 O525 2.052 . S
Co519 O527 2.135 . S
O520 Co519 2.061 . S
O520 C523 1.235 . S
C521 O524 1.238 . S
C521 O525 1.241 . S
C522 O515 1.247 . S
C522 O516 1.261 . S
C523 O518 1.259 . S
C523 O520 1.235 . S
O524 Co514 2.021 . S
O524 C521 1.238 . S
O525 Co519 2.052 . S
O525 C521 1.241 . S
O526 Co514 2.137 . S
O526 C517 1.247 . S
O527 Co514 2.244 . S
O527 C517 1.272 . S
O527 Co519 2.135 . S
H528 C546 0.951 . S
H529 C548 0.951 . S
H530 C550 0.950 . S
H531 C551 0.950 . S
H532 C553 0.950 . S
H533 C556 0.950 . S
H534 C557 0.950 . S
H535 C559 0.950 . S
H536 C560 0.950 . S
H537 C561 0.951 . S
H538 C563 0.951 . S
H539 C565 0.950 . S
H540 C566 0.950 . S
H541 C568 0.950 . S
H542 C571 0.950 . S
H543 C572 0.950 . S
H544 C574 0.950 . S
H545 C575 0.950 . S
C546 H528 0.951 . S
C546 C547 1.366 . S
C546 C548 1.388 . S
C547 C546 1.366 . S
C547 C551 1.385 . S
C548 H529 0.951 . S
C548 C546 1.388 . S
C548 C549 1.366 . S
C549 C548 1.366 . S
C549 C550 1.414 . S
C549 C552 1.499 . S
C550 H530 0.950 . S
C550 C549 1.414 . S
C550 C551 1.374 . S
C551 H531 0.950 . S
C551 C547 1.385 . S
C551 C550 1.374 . S
C552 C549 1.499 . S
C552 C553 1.373 . S
C552 C554 1.389 . S
C553 H532 0.950 . S
C553 C552 1.373 . S
C553 C569 1.377 . S
C554 C552 1.389 . S
C554 C555 1.524 . S
C554 C568 1.377 . S
C555 C554 1.524 . S
C555 C556 1.397 . S
C555 C560 1.363 . S
C556 H533 0.950 . S
C556 C555 1.397 . S
C556 C557 1.334 . S
C557 H534 0.950 . S
C557 C556 1.334 . S
C557 C558 1.287 . S
C558 C557 1.287 . S
C558 C559 1.524 . S
C558 H577 0.913 . S
C559 H535 0.950 . S
C559 C558 1.524 . S
C559 C560 1.415 . S
C560 H536 0.950 . S
C560 C555 1.363 . S
C560 C559 1.415 . S
C561 H537 0.951 . S
C561 C562 1.366 . S
C561 C563 1.388 . S
C562 C561 1.366 . S
C562 C566 1.385 . S
C563 H538 0.951 . S
C563 C561 1.388 . S
C563 C564 1.366 . S
C564 C563 1.366 . S
C564 C565 1.414 . S
C564 C567 1.499 . S
C565 H539 0.950 . S
C565 C564 1.414 . S
C565 C566 1.374 . S
C566 H540 0.950 . S
C566 C562 1.385 . S
C566 C565 1.374 . S
C567 C564 1.499 . S
C567 C568 1.373 . S
C567 C569 1.389 . S
C568 H541 0.950 . S
C568 C554 1.377 . S
C568 C567 1.373 . S
C569 C553 1.377 . S
C569 C567 1.389 . S
C569 C570 1.524 . S
C570 C569 1.524 . S
C570 C571 1.397 . S
C570 C575 1.363 . S
C571 H542 0.950 . S
C571 C570 1.397 . S
C571 C572 1.334 . S
C572 H543 0.950 . S
C572 C571 1.334 . S
C572 C573 1.287 . S
C573 C572 1.287 . S
C573 C574 1.524 . S
C573 H576 0.999 . S
C574 H544 0.950 . S
C574 C573 1.524 . S
C574 C575 1.415 . S
C575 H545 0.950 . S
C575 C570 1.363 . S
C575 C574 1.415 . S
H576 C573 0.999 . S
H577 C558 0.913 . S
H578 C596 0.951 . S
H579 C598 0.951 . S
H580 C600 0.950 . S
H581 C601 0.950 . S
H582 C603 0.950 . S
H583 C606 0.950 . S
H584 C607 0.950 . S
H585 C609 0.950 . S
H586 C610 0.950 . S
H587 C611 0.951 . S
H588 C613 0.951 . S
H589 C615 0.950 . S
H590 C616 0.950 . S
H591 C618 0.950 . S
H592 C621 0.950 . S
H593 C622 0.950 . S
H594 C624 0.950 . S
H595 C625 0.950 . S
C596 H578 0.951 . S
C596 C597 1.366 . S
C596 C598 1.388 . S
C597 C596 1.366 . S
C597 C601 1.385 . S
C598 H579 0.951 . S
C598 C596 1.388 . S
C598 C599 1.366 . S
C599 C598 1.366 . S
C599 C600 1.414 . S
C599 C602 1.499 . S
C600 H580 0.950 . S
C600 C599 1.414 . S
C600 C601 1.374 . S
C601 H581 0.950 . S
C601 C597 1.385 . S
C601 C600 1.374 . S
C602 C599 1.499 . S
C602 C603 1.373 . S
C602 C604 1.389 . S
C603 H582 0.950 . S
C603 C602 1.373 . S
C603 C619 1.377 . S
C604 C602 1.389 . S
C604 C605 1.524 . S
C604 C618 1.377 . S
C605 C604 1.524 . S
C605 C606 1.397 . S
C605 C610 1.363 . S
C606 H583 0.950 . S
C606 C605 1.397 . S
C606 C607 1.334 . S
C607 H584 0.950 . S
C607 C606 1.334 . S
C607 C608 1.287 . S
C608 C607 1.287 . S
C608 C609 1.524 . S
C608 H627 0.913 . S
C609 H585 0.950 . S
C609 C608 1.524 . S
C609 C610 1.415 . S
C610 H586 0.950 . S
C610 C605 1.363 . S
C610 C609 1.415 . S
C611 H587 0.951 . S
C611 C612 1.366 . S
C611 C613 1.388 . S
C612 C611 1.366 . S
C612 C616 1.385 . S
C613 H588 0.951 . S
C613 C611 1.388 . S
C613 C614 1.366 . S
C614 C613 1.366 . S
C614 C615 1.414 . S
C614 C617 1.499 . S
C615 H589 0.950 . S
C615 C614 1.414 . S
C615 C616 1.374 . S
C616 H590 0.950 . S
C616 C612 1.385 . S
C616 C615 1.374 . S
C617 C614 1.499 . S
C617 C618 1.373 . S
C617 C619 1.389 . S
C618 H591 0.950 . S
C618 C604 1.377 . S
C618 C617 1.373 . S
C619 C603 1.377 . S
C619 C617 1.389 . S
C619 C620 1.524 . S
C620 C619 1.524 . S
C620 C621 1.397 . S
C620 C625 1.363 . S
C621 H592 0.950 . S
C621 C620 1.397 . S
C621 C622 1.334 . S
C622 H593 0.950 . S
C622 C621 1.334 . S
C622 C623 1.287 . S
C623 C622 1.287 . S
C623 C624 1.524 . S
C623 H626 0.999 . S
C624 H594 0.950 . S
C624 C623 1.524 . S
C624 C625 1.415 . S
C625 H595 0.950 . S
C625 C620 1.363 . S
C625 C624 1.415 . S
H626 C623 0.999 . S
H627 C608 0.913 . S
H628 C646 0.951 . S
H629 C648 0.951 . S
H630 C650 0.950 . S
H631 C651 0.950 . S
H632 C653 0.950 . S
H633 C656 0.950 . S
H634 C657 0.950 . S
H635 C659 0.950 . S
H636 C660 0.950 . S
H637 C661 0.951 . S
H638 C663 0.951 . S
H639 C665 0.950 . S
H640 C666 0.950 . S
H641 C668 0.950 . S
H642 C671 0.950 . S
H643 C672 0.950 . S
H644 C674 0.950 . S
H645 C675 0.950 . S
C646 H628 0.951 . S
C646 C647 1.366 . S
C646 C648 1.388 . S
C647 C646 1.366 . S
C647 C651 1.385 . S
C648 H629 0.951 . S
C648 C646 1.388 . S
C648 C649 1.366 . S
C649 C648 1.366 . S
C649 C650 1.414 . S
C649 C652 1.499 . S
C650 H630 0.950 . S
C650 C649 1.414 . S
C650 C651 1.374 . S
C651 H631 0.950 . S
C651 C647 1.385 . S
C651 C650 1.374 . S
C652 C649 1.499 . S
C652 C653 1.373 . S
C652 C654 1.389 . S
C653 H632 0.950 . S
C653 C652 1.373 . S
C653 C669 1.377 . S
C654 C652 1.389 . S
C654 C655 1.524 . S
C654 C668 1.377 . S
C655 C654 1.524 . S
C655 C656 1.397 . S
C655 C660 1.363 . S
C656 H633 0.950 . S
C656 C655 1.397 . S
C656 C657 1.334 . S
C657 H634 0.950 . S
C657 C656 1.334 . S
C657 C658 1.287 . S
C658 C657 1.287 . S
C658 C659 1.524 . S
C658 H677 0.913 . S
C659 H635 0.950 . S
C659 C658 1.524 . S
C659 C660 1.415 . S
C660 H636 0.950 . S
C660 C655 1.363 . S
C660 C659 1.415 . S
C661 H637 0.951 . S
C661 C662 1.366 . S
C661 C663 1.388 . S
C662 C661 1.366 . S
C662 C666 1.385 . S
C663 H638 0.951 . S
C663 C661 1.388 . S
C663 C664 1.366 . S
C664 C663 1.366 . S
C664 C665 1.414 . S
C664 C667 1.499 . S
C665 H639 0.950 . S
C665 C664 1.414 . S
C665 C666 1.374 . S
C666 H640 0.950 . S
C666 C662 1.385 . S
C666 C665 1.374 . S
C667 C664 1.499 . S
C667 C668 1.373 . S
C667 C669 1.389 . S
C668 H641 0.950 . S
C668 C654 1.377 . S
C668 C667 1.373 . S
C669 C653 1.377 . S
C669 C667 1.389 . S
C669 C670 1.524 . S
C670 C669 1.524 . S
C670 C671 1.397 . S
C670 C675 1.363 . S
C671 H642 0.950 . S
C671 C670 1.397 . S
C671 C672 1.334 . S
C672 H643 0.950 . S
C672 C671 1.334 . S
C672 C673 1.287 . S
C673 C672 1.287 . S
C673 C674 1.524 . S
C673 H676 0.999 . S
C674 H644 0.950 . S
C674 C673 1.524 . S
C674 C675 1.415 . S
C675 H645 0.950 . S
C675 C670 1.363 . S
C675 C674 1.415 . S
H676 C673 0.999 . S
H677 C658 0.913 . S
H678 C696 0.951 . S
H679 C698 0.951 . S
H680 C700 0.950 . S
H681 C701 0.950 . S
H682 C703 0.950 . S
H683 C706 0.950 . S
H684 C707 0.950 . S
H685 C709 0.950 . S
H686 C710 0.950 . S
H687 C711 0.951 . S
H688 C713 0.951 . S
H689 C715 0.950 . S
H690 C716 0.950 . S
H691 C718 0.950 . S
H692 C721 0.950 . S
H693 C722 0.950 . S
H694 C724 0.950 . S
H695 C725 0.950 . S
C696 H678 0.951 . S
C696 C697 1.366 . S
C696 C698 1.388 . S
C697 C696 1.366 . S
C697 C701 1.385 . S
C698 H679 0.951 . S
C698 C696 1.388 . S
C698 C699 1.366 . S
C699 C698 1.366 . S
C699 C700 1.414 . S
C699 C702 1.499 . S
C700 H680 0.950 . S
C700 C699 1.414 . S
C700 C701 1.374 . S
C701 H681 0.950 . S
C701 C697 1.385 . S
C701 C700 1.374 . S
C702 C699 1.499 . S
C702 C703 1.373 . S
C702 C704 1.389 . S
C703 H682 0.950 . S
C703 C702 1.373 . S
C703 C719 1.377 . S
C704 C702 1.389 . S
C704 C705 1.524 . S
C704 C718 1.377 . S
C705 C704 1.524 . S
C705 C706 1.397 . S
C705 C710 1.363 . S
C706 H683 0.950 . S
C706 C705 1.397 . S
C706 C707 1.334 . S
C707 H684 0.950 . S
C707 C706 1.334 . S
C707 C708 1.287 . S
C708 C707 1.287 . S
C708 C709 1.524 . S
C708 H727 0.913 . S
C709 H685 0.950 . S
C709 C708 1.524 . S
C709 C710 1.415 . S
C710 H686 0.950 . S
C710 C705 1.363 . S
C710 C709 1.415 . S
C711 H687 0.951 . S
C711 C712 1.366 . S
C711 C713 1.388 . S
C712 C711 1.366 . S
C712 C716 1.385 . S
C713 H688 0.951 . S
C713 C711 1.388 . S
C713 C714 1.366 . S
C714 C713 1.366 . S
C714 C715 1.414 . S
C714 C717 1.499 . S
C715 H689 0.950 . S
C715 C714 1.414 . S
C715 C716 1.374 . S
C716 H690 0.950 . S
C716 C712 1.385 . S
C716 C715 1.374 . S
C717 C714 1.499 . S
C717 C718 1.373 . S
C717 C719 1.389 . S
C718 H691 0.950 . S
C718 C704 1.377 . S
C718 C717 1.373 . S
C719 C703 1.377 . S
C719 C717 1.389 . S
C719 C720 1.524 . S
C720 C719 1.524 . S
C720 C721 1.397 . S
C720 C725 1.363 . S
C721 H692 0.950 . S
C721 C720 1.397 . S
C721 C722 1.334 . S
C722 H693 0.950 . S
C722 C721 1.334 . S
C722 C723 1.287 . S
C723 C722 1.287 . S
C723 C724 1.524 . S
C723 H726 0.999 . S
C724 H694 0.950 . S
C724 C723 1.524 . S
C724 C725 1.415 . S
C725 H695 0.950 . S
C725 C720 1.363 . S
C725 C724 1.415 . S
H726 C723 0.999 . S
H727 C708 0.913 . S
H728 C746 0.951 . S
H729 C748 0.951 . S
H730 C750 0.950 . S
H731 C751 0.950 . S
H732 C753 0.950 . S
H733 C756 0.950 . S
H734 C757 0.950 . S
H735 C759 0.950 . S
H736 C760 0.950 . S
H737 C761 0.951 . S
H738 C763 0.951 . S
H739 C765 0.950 . S
H740 C766 0.950 . S
H741 C768 0.950 . S
H742 C771 0.950 . S
H743 C772 0.950 . S
H744 C774 0.950 . S
H745 C775 0.950 . S
C746 H728 0.951 . S
C746 C747 1.366 . S
C746 C748 1.388 . S
C747 C746 1.366 . S
C747 C751 1.385 . S
C748 H729 0.951 . S
C748 C746 1.388 . S
C748 C749 1.366 . S
C749 C748 1.366 . S
C749 C750 1.414 . S
C749 C752 1.499 . S
C750 H730 0.950 . S
C750 C749 1.414 . S
C750 C751 1.374 . S
C751 H731 0.950 . S
C751 C747 1.385 . S
C751 C750 1.374 . S
C752 C749 1.499 . S
C752 C753 1.373 . S
C752 C754 1.389 . S
C753 H732 0.950 . S
C753 C752 1.373 . S
C753 C769 1.377 . S
C754 C752 1.389 . S
C754 C755 1.524 . S
C754 C768 1.377 . S
C755 C754 1.524 . S
C755 C756 1.397 . S
C755 C760 1.363 . S
C756 H733 0.950 . S
C756 C755 1.397 . S
C756 C757 1.334 . S
C757 H734 0.950 . S
C757 C756 1.334 . S
C757 C758 1.287 . S
C758 C757 1.287 . S
C758 C759 1.524 . S
C758 H777 0.913 . S
C759 H735 0.950 . S
C759 C758 1.524 . S
C759 C760 1.415 . S
C760 H736 0.950 . S
C760 C755 1.363 . S
C760 C759 1.415 . S
C761 H737 0.951 . S
C761 C762 1.366 . S
C761 C763 1.388 . S
C762 C761 1.366 . S
C762 C766 1.385 . S
C763 H738 0.951 . S
C763 C761 1.388 . S
C763 C764 1.366 . S
C764 C763 1.366 . S
C764 C765 1.414 . S
C764 C767 1.499 . S
C765 H739 0.950 . S
C765 C764 1.414 . S
C765 C766 1.374 . S
C766 H740 0.950 . S
C766 C762 1.385 . S
C766 C765 1.374 . S
C767 C764 1.499 . S
C767 C768 1.373 . S
C767 C769 1.389 . S
C768 H741 0.950 . S
C768 C754 1.377 . S
C768 C767 1.373 . S
C769 C753 1.377 . S
C769 C767 1.389 . S
C769 C770 1.524 . S
C770 C769 1.524 . S
C770 C771 1.397 . S
C770 C775 1.363 . S
C771 H742 0.950 . S
C771 C770 1.397 . S
C771 C772 1.334 . S
C772 H743 0.950 . S
C772 C771 1.334 . S
C772 C773 1.287 . S
C773 C772 1.287 . S
C773 C774 1.524 . S
C773 H776 0.999 . S
C774 H744 0.950 . S
C774 C773 1.524 . S
C774 C775 1.415 . S
C775 H745 0.950 . S
C775 C770 1.363 . S
C775 C774 1.415 . S
H776 C773 0.999 . S
H777 C758 0.913 . S
H778 C796 0.951 . S
H779 C798 0.951 . S
H780 C800 0.950 . S
H781 C801 0.950 . S
H782 C803 0.950 . S
H783 C806 0.950 . S
H784 C807 0.950 . S
H785 C809 0.950 . S
H786 C810 0.950 . S
H787 C811 0.951 . S
H788 C813 0.951 . S
H789 C815 0.950 . S
H790 C816 0.950 . S
H791 C818 0.950 . S
H792 C821 0.950 . S
H793 C822 0.950 . S
H794 C824 0.950 . S
H795 C825 0.950 . S
C796 H778 0.951 . S
C796 C797 1.366 . S
C796 C798 1.388 . S
C797 C796 1.366 . S
C797 C801 1.385 . S
C798 H779 0.951 . S
C798 C796 1.388 . S
C798 C799 1.366 . S
C799 C798 1.366 . S
C799 C800 1.414 . S
C799 C802 1.499 . S
C800 H780 0.950 . S
C800 C799 1.414 . S
C800 C801 1.374 . S
C801 H781 0.950 . S
C801 C797 1.385 . S
C801 C800 1.374 . S
C802 C799 1.499 . S
C802 C803 1.373 . S
C802 C804 1.389 . S
C803 H782 0.950 . S
C803 C802 1.373 . S
C803 C819 1.377 . S
C804 C802 1.389 . S
C804 C805 1.524 . S
C804 C818 1.377 . S
C805 C804 1.524 . S
C805 C806 1.397 . S
C805 C810 1.363 . S
C806 H783 0.950 . S
C806 C805 1.397 . S
C806 C807 1.334 . S
C807 H784 0.950 . S
C807 C806 1.334 . S
C807 C808 1.287 . S
C808 C807 1.287 . S
C808 C809 1.524 . S
C808 H827 0.913 . S
C809 H785 0.950 . S
C809 C808 1.524 . S
C809 C810 1.415 . S
C810 H786 0.950 . S
C810 C805 1.363 . S
C810 C809 1.415 . S
C811 H787 0.951 . S
C811 C812 1.366 . S
C811 C813 1.388 . S
C812 C811 1.366 . S
C812 C816 1.385 . S
C813 H788 0.951 . S
C813 C811 1.388 . S
C813 C814 1.366 . S
C814 C813 1.366 . S
C814 C815 1.414 . S
C814 C817 1.499 . S
C815 H789 0.950 . S
C815 C814 1.414 . S
C815 C816 1.374 . S
C816 H790 0.950 . S
C816 C812 1.385 . S
C816 C815 1.374 . S
C817 C814 1.499 . S
C817 C818 1.373 . S
C817 C819 1.389 . S
C818 H791 0.950 . S
C818 C804 1.377 . S
C818 C817 1.373 . S
C819 C803 1.377 . S
C819 C817 1.389 . S
C819 C820 1.524 . S
C820 C819 1.524 . S
C820 C821 1.397 . S
C820 C825 1.363 . S
C821 H792 0.950 . S
C821 C820 1.397 . S
C821 C822 1.334 . S
C822 H793 0.950 . S
C822 C821 1.334 . S
C822 C823 1.287 . S
C823 C822 1.287 . S
C823 C824 1.524 . S
C823 H826 0.999 . S
C824 H794 0.950 . S
C824 C823 1.524 . S
C824 C825 1.415 . S
C825 H795 0.950 . S
C825 C820 1.363 . S
C825 C824 1.415 . S
H826 C823 0.999 . S
H827 C808 0.913 . S
H828 C846 0.951 . S
H829 C848 0.951 . S
H830 C850 0.950 . S
H831 C851 0.950 . S
H832 C853 0.950 . S
H833 C856 0.950 . S
H834 C857 0.950 . S
H835 C859 0.950 . S
H836 C860 0.950 . S
H837 C861 0.951 . S
H838 C863 0.951 . S
H839 C865 0.950 . S
H840 C866 0.950 . S
H841 C868 0.950 . S
H842 C871 0.950 . S
H843 C872 0.950 . S
H844 C874 0.950 . S
H845 C875 0.950 . S
C846 H828 0.951 . S
C846 C847 1.366 . S
C846 C848 1.388 . S
C847 C846 1.366 . S
C847 C851 1.385 . S
C848 H829 0.951 . S
C848 C846 1.388 . S
C848 C849 1.366 . S
C849 C848 1.366 . S
C849 C850 1.414 . S
C849 C852 1.499 . S
C850 H830 0.950 . S
C850 C849 1.414 . S
C850 C851 1.374 . S
C851 H831 0.950 . S
C851 C847 1.385 . S
C851 C850 1.374 . S
C852 C849 1.499 . S
C852 C853 1.373 . S
C852 C854 1.389 . S
C853 H832 0.950 . S
C853 C852 1.373 . S
C853 C869 1.377 . S
C854 C852 1.389 . S
C854 C855 1.524 . S
C854 C868 1.377 . S
C855 C854 1.524 . S
C855 C856 1.397 . S
C855 C860 1.363 . S
C856 H833 0.950 . S
C856 C855 1.397 . S
C856 C857 1.334 . S
C857 H834 0.950 . S
C857 C856 1.334 . S
C857 C858 1.287 . S
C858 C857 1.287 . S
C858 C859 1.524 . S
C858 H877 0.913 . S
C859 H835 0.950 . S
C859 C858 1.524 . S
C859 C860 1.415 . S
C860 H836 0.950 . S
C860 C855 1.363 . S
C860 C859 1.415 . S
C861 H837 0.951 . S
C861 C862 1.366 . S
C861 C863 1.388 . S
C862 C861 1.366 . S
C862 C866 1.385 . S
C863 H838 0.951 . S
C863 C861 1.388 . S
C863 C864 1.366 . S
C864 C863 1.366 . S
C864 C865 1.414 . S
C864 C867 1.499 . S
C865 H839 0.950 . S
C865 C864 1.414 . S
C865 C866 1.374 . S
C866 H840 0.950 . S
C866 C862 1.385 . S
C866 C865 1.374 . S
C867 C864 1.499 . S
C867 C868 1.373 . S
C867 C869 1.389 . S
C868 H841 0.950 . S
C868 C854 1.377 . S
C868 C867 1.373 . S
C869 C853 1.377 . S
C869 C867 1.389 . S
C869 C870 1.524 . S
C870 C869 1.524 . S
C870 C871 1.397 . S
C870 C875 1.363 . S
C871 H842 0.950 . S
C871 C870 1.397 . S
C871 C872 1.334 . S
C872 H843 0.950 . S
C872 C871 1.334 . S
C872 C873 1.287 . S
C873 C872 1.287 . S
C873 C874 1.524 . S
C873 H876 0.999 . S
C874 H844 0.950 . S
C874 C873 1.524 . S
C874 C875 1.415 . S
C875 H845 0.950 . S
C875 C870 1.363 . S
C875 C874 1.415 . S
H876 C873 0.999 . S
H877 C858 0.913 . S
H878 C896 0.951 . S
H879 C898 0.951 . S
H880 C900 0.950 . S
H881 C901 0.950 . S
H882 C903 0.950 . S
H883 C906 0.950 . S
H884 C907 0.950 . S
H885 C909 0.950 . S
H886 C910 0.950 . S
H887 C911 0.951 . S
H888 C913 0.951 . S
H889 C915 0.950 . S
H890 C916 0.950 . S
H891 C918 0.950 . S
H892 C921 0.950 . S
H893 C922 0.950 . S
H894 C924 0.950 . S
H895 C925 0.950 . S
C896 H878 0.951 . S
C896 C897 1.366 . S
C896 C898 1.388 . S
C897 C896 1.366 . S
C897 C901 1.385 . S
C898 H879 0.951 . S
C898 C896 1.388 . S
C898 C899 1.366 . S
C899 C898 1.366 . S
C899 C900 1.414 . S
C899 C902 1.499 . S
C900 H880 0.950 . S
C900 C899 1.414 . S
C900 C901 1.374 . S
C901 H881 0.950 . S
C901 C897 1.385 . S
C901 C900 1.374 . S
C902 C899 1.499 . S
C902 C903 1.373 . S
C902 C904 1.389 . S
C903 H882 0.950 . S
C903 C902 1.373 . S
C903 C919 1.377 . S
C904 C902 1.389 . S
C904 C905 1.524 . S
C904 C918 1.377 . S
C905 C904 1.524 . S
C905 C906 1.397 . S
C905 C910 1.363 . S
C906 H883 0.950 . S
C906 C905 1.397 . S
C906 C907 1.334 . S
C907 H884 0.950 . S
C907 C906 1.334 . S
C907 C908 1.287 . S
C908 C907 1.287 . S
C908 C909 1.524 . S
C908 H927 0.913 . S
C909 H885 0.950 . S
C909 C908 1.524 . S
C909 C910 1.415 . S
C910 H886 0.950 . S
C910 C905 1.363 . S
C910 C909 1.415 . S
C911 H887 0.951 . S
C911 C912 1.366 . S
C911 C913 1.388 . S
C912 C911 1.366 . S
C912 C916 1.385 . S
C913 H888 0.951 . S
C913 C911 1.388 . S
C913 C914 1.366 . S
C914 C913 1.366 . S
C914 C915 1.414 . S
C914 C917 1.499 . S
C915 H889 0.950 . S
C915 C914 1.414 . S
C915 C916 1.374 . S
C916 H890 0.950 . S
C916 C912 1.385 . S
C916 C915 1.374 . S
C917 C914 1.499 . S
C917 C918 1.373 . S
C917 C919 1.389 . S
C918 H891 0.950 . S
C918 C904 1.377 . S
C918 C917 1.373 . S
C919 C903 1.377 . S
C919 C917 1.389 . S
C919 C920 1.524 . S
C920 C919 1.524 . S
C920 C921 1.397 . S
C920 C925 1.363 . S
C921 H892 0.950 . S
C921 C920 1.397 . S
C921 C922 1.334 . S
C922 H893 0.950 . S
C922 C921 1.334 . S
C922 C923 1.287 . S
C923 C922 1.287 . S
C923 C924 1.524 . S
C923 H926 0.999 . S
C924 H894 0.950 . S
C924 C923 1.524 . S
C924 C925 1.415 . S
C925 H895 0.950 . S
C925 C920 1.363 . S
C925 C924 1.415 . S
H926 C923 0.999 . S
H927 C908 0.913 . S
H928 C946 0.951 . S
H929 C948 0.951 . S
H930 C950 0.950 . S
H931 C951 0.950 . S
H932 C953 0.950 . S
H933 C956 0.950 . S
H934 C957 0.950 . S
H935 C959 0.950 . S
H936 C960 0.950 . S
H937 C961 0.951 . S
H938 C963 0.951 . S
H939 C965 0.950 . S
H940 C966 0.950 . S
H941 C968 0.950 . S
H942 C971 0.950 . S
H943 C972 0.950 . S
H944 C974 0.950 . S
H945 C975 0.950 . S
C946 H928 0.951 . S
C946 C947 1.366 . S
C946 C948 1.388 . S
C947 C946 1.366 . S
C947 C951 1.385 . S
C948 H929 0.951 . S
C948 C946 1.388 . S
C948 C949 1.366 . S
C949 C948 1.366 . S
C949 C950 1.414 . S
C949 C952 1.499 . S
C950 H930 0.950 . S
C950 C949 1.414 . S
C950 C951 1.374 . S
C951 H931 0.950 . S
C951 C947 1.385 . S
C951 C950 1.374 . S
C952 C949 1.499 . S
C952 C953 1.373 . S
C952 C954 1.389 . S
C953 H932 0.950 . S
C953 C952 1.373 . S
C953 C969 1.377 . S
C954 C952 1.389 . S
C954 C955 1.524 . S
C954 C968 1.377 . S
C955 C954 1.524 . S
C955 C956 1.397 . S
C955 C960 1.363 . S
C956 H933 0.950 . S
C956 C955 1.397 . S
C956 C957 1.334 . S
C957 H934 0.950 . S
C957 C956 1.334 . S
C957 C958 1.287 . S
C958 C957 1.287 . S
C958 C959 1.524 . S
C958 H977 0.913 . S
C959 H935 0.950 . S
C959 C958 1.524 . S
C959 C960 1.415 . S
C960 H936 0.950 . S
C960 C955 1.363 . S
C960 C959 1.415 . S
C961 H937 0.951 . S
C961 C962 1.366 . S
C961 C963 1.388 . S
C962 C961 1.366 . S
C962 C966 1.385 . S
C963 H938 0.951 . S
C963 C961 1.388 . S
C963 C964 1.366 . S
C964 C963 1.366 . S
C964 C965 1.414 . S
C964 C967 1.499 . S
C965 H939 0.950 . S
C965 C964 1.414 . S
C965 C966 1.374 . S
C966 H940 0.950 . S
C966 C962 1.385 . S
C966 C965 1.374 . S
C967 C964 1.499 . S
C967 C968 1.373 . S
C967 C969 1.389 . S
C968 H941 0.950 . S
C968 C954 1.377 . S
C968 C967 1.373 . S
C969 C953 1.377 . S
C969 C967 1.389 . S
C969 C970 1.524 . S
C970 C969 1.524 . S
C970 C971 1.397 . S
C970 C975 1.363 . S
C971 H942 0.950 . S
C971 C970 1.397 . S
C971 C972 1.334 . S
C972 H943 0.950 . S
C972 C971 1.334 . S
C972 C973 1.287 . S
C973 C972 1.287 . S
C973 C974 1.524 . S
C973 H976 0.999 . S
C974 H944 0.950 . S
C974 C973 1.524 . S
C974 C975 1.415 . S
C975 H945 0.950 . S
C975 C970 1.363 . S
C975 C974 1.415 . S
H976 C973 0.999 . S
H977 C958 0.913 . S
H978 C996 0.951 1_556 S
H979 C998 0.951 . S
H980 C1000 0.950 . S
H981 C1001 0.950 . S
H982 C1003 0.950 . S
H983 C1006 0.950 . S
H984 C1007 0.950 . S
H985 C1009 0.950 . S
H986 C1010 0.978 . S
H987 C1011 0.951 . S
H988 C1013 0.951 . S
H989 C1015 0.950 . S
H990 C1016 0.950 . S
H991 C1018 0.950 . S
H992 C1021 0.950 . S
H993 C1022 0.950 . S
H994 C1024 0.950 . S
H995 C1025 0.950 . S
C996 H978 0.951 1_554 S
C996 C997 1.366 . S
C996 C998 1.388 . S
C997 C996 1.366 . S
C997 C1001 1.385 . S
C998 H979 0.951 . S
C998 C996 1.388 . S
C998 C999 1.366 . S
C999 C998 1.366 . S
C999 C1000 1.414 . S
C999 C1002 1.499 . S
C1000 H980 0.950 . S
C1000 C999 1.414 . S
C1000 C1001 1.374 . S
C1001 H981 0.950 . S
C1001 C997 1.385 . S
C1001 C1000 1.374 . S
C1002 C999 1.499 . S
C1002 C1003 1.373 . S
C1002 C1004 1.389 . S
C1003 H982 0.950 . S
C1003 C1002 1.373 . S
C1003 C1019 1.377 . S
C1004 C1002 1.389 . S
C1004 C1005 1.524 . S
C1004 C1018 1.377 . S
C1005 C1004 1.524 . S
C1005 C1006 1.397 . S
C1005 C1010 1.363 . S
C1006 H983 0.950 . S
C1006 C1005 1.397 . S
C1006 C1007 1.334 . S
C1007 H984 0.950 . S
C1007 C1006 1.334 . S
C1007 C1008 1.287 . S
C1008 C1007 1.287 . S
C1008 C1009 1.524 1_554 S
C1008 H1027 0.913 . S
C1009 H985 0.950 . S
C1009 C1008 1.524 1_556 S
C1009 C1010 1.415 1_556 S
C1010 H986 0.978 . S
C1010 C1005 1.363 . S
C1010 C1009 1.415 1_554 S
C1011 H987 0.951 . S
C1011 C1012 1.366 . S
C1011 C1013 1.388 . S
C1012 C1011 1.366 . S
C1012 C1016 1.385 . S
C1013 H988 0.951 . S
C1013 C1011 1.388 . S
C1013 C1014 1.366 . S
C1014 C1013 1.366 . S
C1014 C1015 1.414 . S
C1014 C1017 1.499 . S
C1015 H989 0.950 . S
C1015 C1014 1.414 . S
C1015 C1016 1.374 . S
C1016 H990 0.950 . S
C1016 C1012 1.385 . S
C1016 C1015 1.374 . S
C1017 C1014 1.499 . S
C1017 C1018 1.373 . S
C1017 C1019 1.389 . S
C1018 H991 0.950 . S
C1018 C1004 1.377 . S
C1018 C1017 1.373 . S
C1019 C1003 1.377 . S
C1019 C1017 1.389 . S
C1019 C1020 1.524 . S
C1020 C1019 1.524 . S
C1020 C1021 1.397 . S
C1020 C1025 1.363 . S
C1021 H992 0.950 . S
C1021 C1020 1.397 . S
C1021 C1022 1.334 . S
C1022 H993 0.950 . S
C1022 C1021 1.334 . S
C1022 C1023 1.287 . S
C1023 C1022 1.287 . S
C1023 C1024 1.524 . S
C1023 H1026 0.999 . S
C1024 H994 0.950 . S
C1024 C1023 1.524 . S
C1024 C1025 1.415 . S
C1025 H995 0.950 . S
C1025 C1020 1.363 . S
C1025 C1024 1.415 . S
H1026 C1023 0.999 . S
H1027 C1008 0.913 . S
H1028 C1046 0.951 . S
H1029 C1048 0.951 . S
H1030 C1050 0.950 . S
H1031 C1051 0.950 . S
H1032 C1053 0.950 . S
H1033 C1056 0.950 . S
H1034 C1057 0.950 . S
H1035 C1059 0.950 . S
H1036 C1060 0.950 . S
H1037 C1061 0.951 . S
H1038 C1063 0.951 . S
H1039 C1065 0.950 . S
H1040 C1066 0.950 . S
H1041 C1068 0.950 . S
H1042 C1071 0.950 . S
H1043 C1072 0.950 . S
H1044 C1074 0.950 . S
H1045 C1075 0.950 . S
C1046 H1028 0.951 . S
C1046 C1047 1.366 . S
C1046 C1048 1.388 . S
C1047 C1046 1.366 . S
C1047 C1051 1.385 . S
C1048 H1029 0.951 . S
C1048 C1046 1.388 . S
C1048 C1049 1.366 . S
C1049 C1048 1.366 . S
C1049 C1050 1.414 . S
C1049 C1052 1.499 . S
C1050 H1030 0.950 . S
C1050 C1049 1.414 . S
C1050 C1051 1.374 . S
C1051 H1031 0.950 . S
C1051 C1047 1.385 . S
C1051 C1050 1.374 . S
C1052 C1049 1.499 . S
C1052 C1053 1.373 . S
C1052 C1054 1.389 . S
C1053 H1032 0.950 . S
C1053 C1052 1.373 . S
C1053 C1069 1.377 . S
C1054 C1052 1.389 . S
C1054 C1055 1.524 . S
C1054 C1068 1.377 . S
C1055 C1054 1.524 . S
C1055 C1056 1.397 . S
C1055 C1060 1.363 . S
C1056 H1033 0.950 . S
C1056 C1055 1.397 . S
C1056 C1057 1.334 . S
C1057 H1034 0.950 . S
C1057 C1056 1.334 . S
C1057 C1058 1.287 . S
C1058 C1057 1.287 . S
C1058 C1059 1.524 . S
C1058 H1077 0.913 . S
C1059 H1035 0.950 . S
C1059 C1058 1.524 . S
C1059 C1060 1.415 . S
C1060 H1036 0.950 . S
C1060 C1055 1.363 . S
C1060 C1059 1.415 . S
C1061 H1037 0.951 . S
C1061 C1062 1.366 . S
C1061 C1063 1.388 . S
C1062 C1061 1.366 . S
C1062 C1066 1.385 . S
C1063 H1038 0.951 . S
C1063 C1061 1.388 . S
C1063 C1064 1.366 . S
C1064 C1063 1.366 . S
C1064 C1065 1.414 . S
C1064 C1067 1.499 . S
C1065 H1039 0.950 . S
C1065 C1064 1.414 . S
C1065 C1066 1.374 . S
C1066 H1040 0.950 . S
C1066 C1062 1.385 . S
C1066 C1065 1.374 . S
C1067 C1064 1.499 . S
C1067 C1068 1.373 . S
C1067 C1069 1.389 . S
C1068 H1041 0.950 . S
C1068 C1054 1.377 . S
C1068 C1067 1.373 . S
C1069 C1053 1.377 . S
C1069 C1067 1.389 . S
C1069 C1070 1.524 . S
C1070 C1069 1.524 . S
C1070 C1071 1.397 . S
C1070 C1075 1.363 . S
C1071 H1042 0.950 . S
C1071 C1070 1.397 . S
C1071 C1072 1.334 . S
C1072 H1043 0.950 . S
C1072 C1071 1.334 . S
C1072 C1073 1.287 . S
C1073 C1072 1.287 . S
C1073 C1074 1.524 . S
C1073 H1076 0.999 . S
C1074 H1044 0.950 . S
C1074 C1073 1.524 . S
C1074 C1075 1.415 . S
C1075 H1045 0.950 . S
C1075 C1070 1.363 . S
C1075 C1074 1.415 . S
H1076 C1073 0.999 . S
H1077 C1058 0.913 . S
H1078 C1096 0.951 . S
H1079 C1098 0.951 . S
H1080 C1100 0.950 . S
H1081 C1101 0.950 . S
H1082 C1103 0.950 . S
H1083 C1106 0.950 . S
H1084 C1107 0.950 . S
H1085 C1109 0.950 . S
H1086 C1110 0.950 . S
H1087 C1111 0.951 . S
H1088 C1113 0.951 . S
H1089 C1115 0.950 . S
H1090 C1116 0.950 . S
H1091 C1118 0.950 . S
H1092 C1121 0.950 . S
H1093 C1122 0.950 . S
H1094 C1124 0.950 . S
H1095 C1125 0.950 . S
C1096 H1078 0.951 . S
C1096 C1097 1.366 . S
C1096 C1098 1.388 . S
C1097 C1096 1.366 . S
C1097 C1101 1.385 . S
C1098 H1079 0.951 . S
C1098 C1096 1.388 . S
C1098 C1099 1.366 . S
C1099 C1098 1.366 . S
C1099 C1100 1.414 . S
C1099 C1102 1.499 . S
C1100 H1080 0.950 . S
C1100 C1099 1.414 . S
C1100 C1101 1.374 . S
C1101 H1081 0.950 . S
C1101 C1097 1.385 . S
C1101 C1100 1.374 . S
C1102 C1099 1.499 . S
C1102 C1103 1.373 . S
C1102 C1104 1.389 . S
C1103 H1082 0.950 . S
C1103 C1102 1.373 . S
C1103 C1119 1.377 . S
C1104 C1102 1.389 . S
C1104 C1105 1.524 . S
C1104 C1118 1.377 . S
C1105 C1104 1.524 . S
C1105 C1106 1.397 . S
C1105 C1110 1.363 . S
C1106 H1083 0.950 . S
C1106 C1105 1.397 . S
C1106 C1107 1.334 . S
C1107 H1084 0.950 . S
C1107 C1106 1.334 . S
C1107 C1108 1.287 . S
C1108 C1107 1.287 . S
C1108 C1109 1.524 . S
C1108 H1127 0.913 . S
C1109 H1085 0.950 . S
C1109 C1108 1.524 . S
C1109 C1110 1.415 . S
C1110 H1086 0.950 . S
C1110 C1105 1.363 . S
C1110 C1109 1.415 . S
C1111 H1087 0.951 . S
C1111 C1112 1.366 . S
C1111 C1113 1.388 . S
C1112 C1111 1.366 . S
C1112 C1116 1.385 . S
C1113 H1088 0.951 . S
C1113 C1111 1.388 . S
C1113 C1114 1.366 . S
C1114 C1113 1.366 . S
C1114 C1115 1.414 . S
C1114 C1117 1.499 . S
C1115 H1089 0.950 . S
C1115 C1114 1.414 . S
C1115 C1116 1.374 . S
C1116 H1090 0.950 . S
C1116 C1112 1.385 . S
C1116 C1115 1.374 . S
C1117 C1114 1.499 . S
C1117 C1118 1.373 . S
C1117 C1119 1.389 . S
C1118 H1091 0.950 . S
C1118 C1104 1.377 . S
C1118 C1117 1.373 . S
C1119 C1103 1.377 . S
C1119 C1117 1.389 . S
C1119 C1120 1.524 . S
C1120 C1119 1.524 . S
C1120 C1121 1.397 . S
C1120 C1125 1.363 . S
C1121 H1092 0.950 . S
C1121 C1120 1.397 . S
C1121 C1122 1.334 . S
C1122 H1093 0.950 . S
C1122 C1121 1.334 . S
C1122 C1123 1.287 . S
C1123 C1122 1.287 . S
C1123 C1124 1.524 . S
C1123 H1126 0.999 . S
C1124 H1094 0.950 . S
C1124 C1123 1.524 . S
C1124 C1125 1.415 . S
C1125 H1095 0.950 . S
C1125 C1120 1.363 . S
C1125 C1124 1.415 . S
H1126 C1123 0.999 . S
H1127 C1108 0.913 . S
H1128 C1146 0.951 . S
H1129 C1148 0.951 . S
H1130 C1150 0.950 . S
H1131 C1151 0.950 . S
H1132 C1153 0.950 . S
H1133 C1156 0.950 . S
H1134 C1157 0.950 . S
H1135 C1159 0.950 . S
H1136 C1160 0.950 . S
H1137 C1161 0.951 . S
H1138 C1163 0.951 . S
H1139 C1165 0.950 . S
H1140 C1166 0.950 . S
H1141 C1168 0.950 . S
H1142 C1171 0.950 . S
H1143 C1172 0.950 . S
H1144 C1174 0.950 . S
H1145 C1175 0.950 . S
C1146 H1128 0.951 . S
C1146 C1147 1.366 . S
C1146 C1148 1.388 . S
C1147 C1146 1.366 . S
C1147 C1151 1.385 . S
C1148 H1129 0.951 . S
C1148 C1146 1.388 . S
C1148 C1149 1.366 . S
C1149 C1148 1.366 . S
C1149 C1150 1.414 . S
C1149 C1152 1.499 . S
C1150 H1130 0.950 . S
C1150 C1149 1.414 . S
C1150 C1151 1.374 . S
C1151 H1131 0.950 . S
C1151 C1147 1.385 . S
C1151 C1150 1.374 . S
C1152 C1149 1.499 . S
C1152 C1153 1.373 . S
C1152 C1154 1.389 . S
C1153 H1132 0.950 . S
C1153 C1152 1.373 . S
C1153 C1169 1.377 . S
C1154 C1152 1.389 . S
C1154 C1155 1.524 . S
C1154 C1168 1.377 . S
C1155 C1154 1.524 . S
C1155 C1156 1.397 . S
C1155 C1160 1.363 . S
C1156 H1133 0.950 . S
C1156 C1155 1.397 . S
C1156 C1157 1.334 . S
C1157 H1134 0.950 . S
C1157 C1156 1.334 . S
C1157 C1158 1.287 . S
C1158 C1157 1.287 . S
C1158 C1159 1.524 . S
C1158 H1177 0.913 . S
C1159 H1135 0.950 . S
C1159 C1158 1.524 . S
C1159 C1160 1.415 . S
C1160 H1136 0.950 . S
C1160 C1155 1.363 . S
C1160 C1159 1.415 . S
C1161 H1137 0.951 . S
C1161 C1162 1.366 . S
C1161 C1163 1.388 . S
C1162 C1161 1.366 . S
C1162 C1166 1.385 . S
C1163 H1138 0.951 . S
C1163 C1161 1.388 . S
C1163 C1164 1.366 . S
C1164 C1163 1.366 . S
C1164 C1165 1.414 . S
C1164 C1167 1.499 . S
C1165 H1139 0.950 . S
C1165 C1164 1.414 . S
C1165 C1166 1.374 . S
C1166 H1140 0.950 . S
C1166 C1162 1.385 . S
C1166 C1165 1.374 . S
C1167 C1164 1.499 . S
C1167 C1168 1.373 . S
C1167 C1169 1.389 . S
C1168 H1141 0.950 . S
C1168 C1154 1.377 . S
C1168 C1167 1.373 . S
C1169 C1153 1.377 . S
C1169 C1167 1.389 . S
C1169 C1170 1.524 . S
C1170 C1169 1.524 . S
C1170 C1171 1.397 . S
C1170 C1175 1.363 . S
C1171 H1142 0.950 . S
C1171 C1170 1.397 . S
C1171 C1172 1.334 . S
C1172 H1143 0.950 . S
C1172 C1171 1.334 . S
C1172 C1173 1.287 . S
C1173 C1172 1.287 . S
C1173 C1174 1.524 . S
C1173 H1176 0.999 . S
C1174 H1144 0.950 . S
C1174 C1173 1.524 . S
C1174 C1175 1.415 . S
C1175 H1145 0.950 . S
C1175 C1170 1.363 . S
C1175 C1174 1.415 . S
H1176 C1173 0.999 . S
H1177 C1158 0.913 . S
H1178 C1196 0.951 . S
H1179 C1198 0.951 . S
H1180 C1200 0.950 . S
H1181 C1201 0.950 . S
H1182 C1203 0.950 . S
H1183 C1206 0.950 . S
H1184 C1207 0.950 . S
H1185 C1209 0.950 . S
H1186 C1210 0.950 . S
H1187 C1211 0.951 . S
H1188 C1213 0.951 . S
H1189 C1215 0.950 . S
H1190 C1216 0.950 . S
H1191 C1218 0.950 . S
H1192 C1221 0.950 . S
H1193 C1222 0.950 . S
H1194 C1224 0.950 . S
H1195 C1225 0.950 . S
C1196 H1178 0.951 . S
C1196 C1197 1.366 . S
C1196 C1198 1.388 . S
C1197 C1196 1.366 . S
C1197 C1201 1.385 . S
C1198 H1179 0.951 . S
C1198 C1196 1.388 . S
C1198 C1199 1.366 . S
C1199 C1198 1.366 . S
C1199 C1200 1.414 . S
C1199 C1202 1.499 . S
C1200 H1180 0.950 . S
C1200 C1199 1.414 . S
C1200 C1201 1.374 . S
C1201 H1181 0.950 . S
C1201 C1197 1.385 . S
C1201 C1200 1.374 . S
C1202 C1199 1.499 . S
C1202 C1203 1.373 . S
C1202 C1204 1.389 . S
C1203 H1182 0.950 . S
C1203 C1202 1.373 . S
C1203 C1219 1.377 . S
C1204 C1202 1.389 . S
C1204 C1205 1.524 . S
C1204 C1218 1.377 . S
C1205 C1204 1.524 . S
C1205 C1206 1.397 . S
C1205 C1210 1.363 . S
C1206 H1183 0.950 . S
C1206 C1205 1.397 . S
C1206 C1207 1.334 . S
C1207 H1184 0.950 . S
C1207 C1206 1.334 . S
C1207 C1208 1.287 . S
C1208 C1207 1.287 . S
C1208 C1209 1.524 . S
C1208 H1227 0.913 . S
C1209 H1185 0.950 . S
C1209 C1208 1.524 . S
C1209 C1210 1.415 . S
C1210 H1186 0.950 . S
C1210 C1205 1.363 . S
C1210 C1209 1.415 . S
C1211 H1187 0.951 . S
C1211 C1212 1.366 . S
C1211 C1213 1.388 . S
C1212 C1211 1.366 . S
C1212 C1216 1.385 . S
C1213 H1188 0.951 . S
C1213 C1211 1.388 . S
C1213 C1214 1.366 . S
C1214 C1213 1.366 . S
C1214 C1215 1.414 . S
C1214 C1217 1.499 . S
C1215 H1189 0.950 . S
C1215 C1214 1.414 . S
C1215 C1216 1.374 . S
C1216 H1190 0.950 . S
C1216 C1212 1.385 . S
C1216 C1215 1.374 . S
C1217 C1214 1.499 . S
C1217 C1218 1.373 . S
C1217 C1219 1.389 . S
C1218 H1191 0.950 . S
C1218 C1204 1.377 . S
C1218 C1217 1.373 . S
C1219 C1203 1.377 . S
C1219 C1217 1.389 . S
C1219 C1220 1.524 . S
C1220 C1219 1.524 . S
C1220 C1221 1.397 . S
C1220 C1225 1.363 . S
C1221 H1192 0.950 . S
C1221 C1220 1.397 . S
C1221 C1222 1.334 . S
C1222 H1193 0.950 . S
C1222 C1221 1.334 . S
C1222 C1223 1.287 . S
C1223 C1222 1.287 . S
C1223 C1224 1.524 . S
C1223 H1226 0.999 . S
C1224 H1194 0.950 . S
C1224 C1223 1.524 . S
C1224 C1225 1.415 . S
C1225 H1195 0.950 . S
C1225 C1220 1.363 . S
C1225 C1224 1.415 . S
H1226 C1223 0.999 . S
H1227 C1208 0.913 . S
H1228 C1246 0.951 . S
H1229 C1248 0.951 . S
H1230 C1250 0.950 . S
H1231 C1251 0.950 . S
H1232 C1253 0.950 . S
H1233 C1256 0.950 . S
H1234 C1257 0.950 . S
H1235 C1259 0.950 . S
H1236 C1260 0.950 . S
H1237 C1261 0.951 . S
H1238 C1263 0.951 . S
H1239 C1265 0.950 . S
H1240 C1266 0.950 . S
H1241 C1268 0.950 . S
H1242 C1271 0.950 . S
H1243 C1272 0.950 . S
H1244 C1274 0.950 . S
H1245 C1275 0.950 . S
C1246 H1228 0.951 . S
C1246 C1247 1.366 . S
C1246 C1248 1.388 . S
C1247 C1246 1.366 . S
C1247 C1251 1.385 . S
C1248 H1229 0.951 . S
C1248 C1246 1.388 . S
C1248 C1249 1.366 . S
C1249 C1248 1.366 . S
C1249 C1250 1.414 . S
C1249 C1252 1.499 . S
C1250 H1230 0.950 . S
C1250 C1249 1.414 . S
C1250 C1251 1.374 . S
C1251 H1231 0.950 . S
C1251 C1247 1.385 . S
C1251 C1250 1.374 . S
C1252 C1249 1.499 . S
C1252 C1253 1.373 . S
C1252 C1254 1.389 . S
C1253 H1232 0.950 . S
C1253 C1252 1.373 . S
C1253 C1269 1.377 . S
C1254 C1252 1.389 . S
C1254 C1255 1.524 . S
C1254 C1268 1.377 . S
C1255 C1254 1.524 . S
C1255 C1256 1.397 . S
C1255 C1260 1.363 . S
C1256 H1233 0.950 . S
C1256 C1255 1.397 . S
C1256 C1257 1.334 . S
C1257 H1234 0.950 . S
C1257 C1256 1.334 . S
C1257 C1258 1.287 . S
C1258 C1257 1.287 . S
C1258 C1259 1.524 . S
C1258 H1277 0.913 . S
C1259 H1235 0.950 . S
C1259 C1258 1.524 . S
C1259 C1260 1.415 . S
C1260 H1236 0.950 . S
C1260 C1255 1.363 . S
C1260 C1259 1.415 . S
C1261 H1237 0.951 . S
C1261 C1262 1.366 . S
C1261 C1263 1.388 . S
C1262 C1261 1.366 . S
C1262 C1266 1.385 . S
C1263 H1238 0.951 . S
C1263 C1261 1.388 . S
C1263 C1264 1.366 . S
C1264 C1263 1.366 . S
C1264 C1265 1.414 . S
C1264 C1267 1.499 . S
C1265 H1239 0.950 . S
C1265 C1264 1.414 . S
C1265 C1266 1.374 . S
C1266 H1240 0.950 . S
C1266 C1262 1.385 . S
C1266 C1265 1.374 . S
C1267 C1264 1.499 . S
C1267 C1268 1.373 . S
C1267 C1269 1.389 . S
C1268 H1241 0.950 . S
C1268 C1254 1.377 . S
C1268 C1267 1.373 . S
C1269 C1253 1.377 . S
C1269 C1267 1.389 . S
C1269 C1270 1.524 . S
C1270 C1269 1.524 . S
C1270 C1271 1.397 . S
C1270 C1275 1.363 . S
C1271 H1242 0.950 . S
C1271 C1270 1.397 . S
C1271 C1272 1.334 . S
C1272 H1243 0.950 . S
C1272 C1271 1.334 . S
C1272 C1273 1.287 . S
C1273 C1272 1.287 . S
C1273 C1274 1.524 . S
C1273 H1276 0.999 . S
C1274 H1244 0.950 . S
C1274 C1273 1.524 . S
C1274 C1275 1.415 . S
C1275 H1245 0.950 . S
C1275 C1270 1.363 . S
C1275 C1274 1.415 . S
H1276 C1273 0.999 . S
H1277 C1258 0.913 . S
H1278 C1296 0.951 . S
H1279 C1298 0.951 . S
H1280 C1300 0.950 . S
H1281 C1301 0.950 . S
H1282 C1303 0.950 . S
H1283 C1306 0.950 . S
H1284 C1307 0.950 . S
H1285 C1309 0.950 . S
H1286 C1310 0.950 . S
H1287 C1311 0.951 . S
H1288 C1313 0.951 . S
H1289 C1315 0.935 1_556 S
H1290 C1316 0.950 . S
H1291 C1318 0.950 . S
H1292 C1321 0.950 . S
H1293 C1322 0.950 . S
H1294 C1324 0.950 . S
H1295 C1325 0.950 . S
C1296 H1278 0.951 . S
C1296 C1297 1.366 . S
C1296 C1298 1.388 . S
C1297 C1296 1.366 . S
C1297 C1301 1.385 . S
C1298 H1279 0.951 . S
C1298 C1296 1.388 . S
C1298 C1299 1.366 . S
C1299 C1298 1.366 . S
C1299 C1300 1.414 . S
C1299 C1302 1.499 . S
C1300 H1280 0.950 . S
C1300 C1299 1.414 . S
C1300 C1301 1.374 . S
C1301 H1281 0.950 . S
C1301 C1297 1.385 . S
C1301 C1300 1.374 . S
C1302 C1299 1.499 . S
C1302 C1303 1.373 . S
C1302 C1304 1.389 . S
C1303 H1282 0.950 . S
C1303 C1302 1.373 . S
C1303 C1319 1.377 . S
C1304 C1302 1.389 . S
C1304 C1305 1.524 . S
C1304 C1318 1.377 . S
C1305 C1304 1.524 . S
C1305 C1306 1.397 . S
C1305 C1310 1.363 . S
C1306 H1283 0.950 . S
C1306 C1305 1.397 . S
C1306 C1307 1.334 . S
C1307 H1284 0.950 . S
C1307 C1306 1.334 . S
C1307 C1308 1.287 . S
C1308 C1307 1.287 . S
C1308 C1309 1.524 . S
C1308 H1327 0.913 . S
C1309 H1285 0.950 . S
C1309 C1308 1.524 . S
C1309 C1310 1.415 . S
C1310 H1286 0.950 . S
C1310 C1305 1.363 . S
C1310 C1309 1.415 . S
C1311 H1287 0.951 . S
C1311 C1312 1.366 . S
C1311 C1313 1.388 1_554 S
C1312 C1311 1.366 . S
C1312 C1316 1.385 . S
C1313 H1288 0.951 . S
C1313 C1311 1.388 1_556 S
C1313 C1314 1.366 . S
C1314 C1313 1.366 . S
C1314 C1315 1.414 1_556 S
C1314 C1317 1.499 . S
C1315 H1289 0.935 1_554 S
C1315 C1314 1.414 1_554 S
C1315 C1316 1.374 . S
C1316 H1290 0.950 . S
C1316 C1312 1.385 . S
C1316 C1315 1.374 . S
C1317 C1314 1.499 . S
C1317 C1318 1.373 . S
C1317 C1319 1.389 . S
C1318 H1291 0.950 . S
C1318 C1304 1.377 . S
C1318 C1317 1.373 . S
C1319 C1303 1.377 . S
C1319 C1317 1.389 . S
C1319 C1320 1.524 . S
C1320 C1319 1.524 . S
C1320 C1321 1.397 . S
C1320 C1325 1.363 . S
C1321 H1292 0.950 . S
C1321 C1320 1.397 . S
C1321 C1322 1.334 . S
C1322 H1293 0.950 . S
C1322 C1321 1.334 . S
C1322 C1323 1.287 . S
C1323 C1322 1.287 . S
C1323 C1324 1.524 . S
C1323 H1326 0.999 . S
C1324 H1294 0.950 . S
C1324 C1323 1.524 . S
C1324 C1325 1.415 . S
C1325 H1295 0.950 . S
C1325 C1320 1.363 . S
C1325 C1324 1.415 . S
H1326 C1323 0.999 . S
H1327 C1308 0.913 . S
H1328 C1346 0.951 1_545 S
H1329 C1348 0.951 . S
H1330 C1350 0.950 . S
H1331 C1351 0.950 . S
H1332 C1353 0.950 . S
H1333 C1356 0.950 . S
H1334 C1357 0.950 . S
H1335 C1359 0.950 . S
H1336 C1360 0.950 . S
H1337 C1361 0.951 . S
H1338 C1363 0.951 . S
H1339 C1365 0.950 . S
H1340 C1366 0.950 . S
H1341 C1368 0.950 . S
H1342 C1371 0.950 . S
H1343 C1372 0.950 . S
H1344 C1374 0.950 . S
H1345 C1375 0.950 . S
C1346 H1328 0.951 1_565 S
C1346 C1347 1.366 1_565 S
C1346 C1348 1.388 . S
C1347 C1346 1.366 1_545 S
C1347 C1351 1.385 1_545 S
C1348 H1329 0.951 . S
C1348 C1346 1.388 . S
C1348 C1349 1.366 . S
C1349 C1348 1.366 . S
C1349 C1350 1.414 . S
C1349 C1352 1.499 . S
C1350 H1330 0.950 . S
C1350 C1349 1.414 . S
C1350 C1351 1.374 . S
C1351 H1331 0.950 . S
C1351 C1347 1.385 1_565 S
C1351 C1350 1.374 . S
C1352 C1349 1.499 . S
C1352 C1353 1.373 . S
C1352 C1354 1.389 . S
C1353 H1332 0.950 . S
C1353 C1352 1.373 . S
C1353 C1369 1.377 . S
C1354 C1352 1.389 . S
C1354 C1355 1.524 . S
C1354 C1368 1.377 . S
C1355 C1354 1.524 . S
C1355 C1356 1.397 1_565 S
C1355 C1360 1.363 . S
C1356 H1333 0.950 . S
C1356 C1355 1.397 1_545 S
C1356 C1357 1.334 . S
C1357 H1334 0.950 . S
C1357 C1356 1.334 . S
C1357 C1358 1.287 . S
C1358 C1357 1.287 . S
C1358 C1359 1.524 . S
C1358 H1377 0.913 . S
C1359 H1335 0.950 . S
C1359 C1358 1.524 . S
C1359 C1360 1.415 1_545 S
C1360 H1336 0.950 . S
C1360 C1355 1.363 . S
C1360 C1359 1.415 1_565 S
C1361 H1337 0.951 . S
C1361 C1362 1.366 . S
C1361 C1363 1.388 . S
C1362 C1361 1.366 . S
C1362 C1366 1.385 . S
C1363 H1338 0.951 . S
C1363 C1361 1.388 . S
C1363 C1364 1.366 . S
C1364 C1363 1.366 . S
C1364 C1365 1.414 . S
C1364 C1367 1.499 . S
C1365 H1339 0.950 . S
C1365 C1364 1.414 . S
C1365 C1366 1.374 . S
C1366 H1340 0.950 . S
C1366 C1362 1.385 . S
C1366 C1365 1.374 . S
C1367 C1364 1.499 . S
C1367 C1368 1.373 . S
C1367 C1369 1.389 . S
C1368 H1341 0.950 . S
C1368 C1354 1.377 . S
C1368 C1367 1.373 . S
C1369 C1353 1.377 . S
C1369 C1367 1.389 . S
C1369 C1370 1.524 . S
C1370 C1369 1.524 . S
C1370 C1371 1.397 . S
C1370 C1375 1.363 . S
C1371 H1342 0.950 . S
C1371 C1370 1.397 . S
C1371 C1372 1.334 . S
C1372 H1343 0.950 . S
C1372 C1371 1.334 . S
C1372 C1373 1.287 . S
C1373 C1372 1.287 . S
C1373 C1374 1.524 . S
C1373 H1376 0.999 . S
C1374 H1344 0.950 . S
C1374 C1373 1.524 . S
C1374 C1375 1.415 . S
C1375 H1345 0.950 . S
C1375 C1370 1.363 . S
C1375 C1374 1.415 . S
H1376 C1373 0.999 . S
H1377 C1358 0.913 . S
H1378 C1396 0.951 . S
H1379 C1398 0.951 . S
H1380 C1400 0.950 . S
H1381 C1401 0.950 . S
H1382 C1403 0.950 . S
H1383 C1406 0.950 . S
H1384 C1407 0.950 . S
H1385 C1409 0.950 . S
H1386 C1410 0.950 . S
H1387 C1411 0.951 . S
H1388 C1413 0.951 . S
H1389 C1415 0.950 . S
H1390 C1416 0.950 . S
H1391 C1418 0.950 . S
H1392 C1421 0.950 . S
H1393 C1422 0.950 . S
H1394 C1424 0.950 . S
H1395 C1425 0.950 . S
C1396 H1378 0.951 . S
C1396 C1397 1.366 . S
C1396 C1398 1.388 . S
C1397 C1396 1.366 . S
C1397 C1401 1.385 . S
C1398 H1379 0.951 . S
C1398 C1396 1.388 . S
C1398 C1399 1.366 . S
C1399 C1398 1.366 . S
C1399 C1400 1.414 . S
C1399 C1402 1.499 . S
C1400 H1380 0.950 . S
C1400 C1399 1.414 . S
C1400 C1401 1.374 . S
C1401 H1381 0.950 . S
C1401 C1397 1.385 . S
C1401 C1400 1.374 . S
C1402 C1399 1.499 . S
C1402 C1403 1.373 . S
C1402 C1404 1.389 . S
C1403 H1382 0.950 . S
C1403 C1402 1.373 . S
C1403 C1419 1.377 . S
C1404 C1402 1.389 . S
C1404 C1405 1.524 . S
C1404 C1418 1.377 . S
C1405 C1404 1.524 . S
C1405 C1406 1.397 . S
C1405 C1410 1.363 . S
C1406 H1383 0.950 . S
C1406 C1405 1.397 . S
C1406 C1407 1.334 . S
C1407 H1384 0.950 . S
C1407 C1406 1.334 . S
C1407 C1408 1.287 . S
C1408 C1407 1.287 . S
C1408 C1409 1.524 . S
C1408 H1427 0.913 . S
C1409 H1385 0.950 . S
C1409 C1408 1.524 . S
C1409 C1410 1.415 . S
C1410 H1386 0.950 . S
C1410 C1405 1.363 . S
C1410 C1409 1.415 . S
C1411 H1387 0.951 . S
C1411 C1412 1.366 . S
C1411 C1413 1.388 . S
C1412 C1411 1.366 . S
C1412 C1416 1.385 . S
C1413 H1388 0.951 . S
C1413 C1411 1.388 . S
C1413 C1414 1.366 . S
C1414 C1413 1.366 . S
C1414 C1415 1.414 . S
C1414 C1417 1.499 . S
C1415 H1389 0.950 . S
C1415 C1414 1.414 . S
C1415 C1416 1.374 . S
C1416 H1390 0.950 . S
C1416 C1412 1.385 . S
C1416 C1415 1.374 . S
C1417 C1414 1.499 . S
C1417 C1418 1.373 . S
C1417 C1419 1.389 . S
C1418 H1391 0.950 . S
C1418 C1404 1.377 . S
C1418 C1417 1.373 . S
C1419 C1403 1.377 . S
C1419 C1417 1.389 . S
C1419 C1420 1.524 . S
C1420 C1419 1.524 . S
C1420 C1421 1.397 . S
C1420 C1425 1.363 . S
C1421 H1392 0.950 . S
C1421 C1420 1.397 . S
C1421 C1422 1.334 . S
C1422 H1393 0.950 . S
C1422 C1421 1.334 . S
C1422 C1423 1.287 . S
C1423 C1422 1.287 . S
C1423 C1424 1.524 . S
C1423 H1426 0.999 . S
C1424 H1394 0.950 . S
C1424 C1423 1.524 . S
C1424 C1425 1.415 . S
C1425 H1395 0.950 . S
C1425 C1420 1.363 . S
C1425 C1424 1.415 . S
H1426 C1423 0.999 . S
H1427 C1408 0.913 . S
H1428 C1446 0.951 1_545 S
H1429 C1448 0.951 . S
H1430 C1450 0.950 . S
H1431 C1451 0.950 . S
H1432 C1453 0.950 . S
H1433 C1456 0.950 . S
H1434 C1457 0.950 . S
H1435 C1459 0.907 1_545 S
H1436 C1460 0.950 . S
H1437 C1461 0.951 . S
H1438 C1463 0.951 . S
H1439 C1465 0.950 . S
H1440 C1466 0.950 . S
H1441 C1468 0.950 . S
H1442 C1471 0.950 . S
H1443 C1472 0.950 . S
H1444 C1474 0.950 . S
H1445 C1475 0.950 . S
C1446 H1428 0.951 1_565 S
C1446 C1447 1.366 . S
C1446 C1448 1.388 . S
C1447 C1446 1.366 . S
C1447 C1451 1.385 . S
C1448 H1429 0.951 . S
C1448 C1446 1.388 . S
C1448 C1449 1.366 . S
C1449 C1448 1.366 . S
C1449 C1450 1.414 . S
C1449 C1452 1.499 . S
C1450 H1430 0.950 . S
C1450 C1449 1.414 . S
C1450 C1451 1.374 . S
C1451 H1431 0.950 . S
C1451 C1447 1.385 . S
C1451 C1450 1.374 . S
C1452 C1449 1.499 . S
C1452 C1453 1.373 . S
C1452 C1454 1.389 . S
C1453 H1432 0.950 . S
C1453 C1452 1.373 . S
C1453 C1469 1.377 . S
C1454 C1452 1.389 . S
C1454 C1455 1.524 . S
C1454 C1468 1.377 . S
C1455 C1454 1.524 . S
C1455 C1456 1.397 . S
C1455 C1460 1.363 . S
C1456 H1433 0.950 . S
C1456 C1455 1.397 . S
C1456 C1457 1.334 . S
C1457 H1434 0.950 . S
C1457 C1456 1.334 . S
C1457 C1458 1.287 . S
C1458 C1457 1.287 . S
C1458 C1459 1.524 . S
C1458 H1477 0.913 . S
C1459 H1435 0.907 1_565 S
C1459 C1458 1.524 . S
C1459 C1460 1.415 . S
C1460 H1436 0.950 . S
C1460 C1455 1.363 . S
C1460 C1459 1.415 . S
C1461 H1437 0.951 . S
C1461 C1462 1.366 . S
C1461 C1463 1.388 . S
C1462 C1461 1.366 . S
C1462 C1466 1.385 . S
C1463 H1438 0.951 . S
C1463 C1461 1.388 . S
C1463 C1464 1.366 . S
C1464 C1463 1.366 . S
C1464 C1465 1.414 . S
C1464 C1467 1.499 . S
C1465 H1439 0.950 . S
C1465 C1464 1.414 . S
C1465 C1466 1.374 . S
C1466 H1440 0.950 . S
C1466 C1462 1.385 . S
C1466 C1465 1.374 . S
C1467 C1464 1.499 . S
C1467 C1468 1.373 . S
C1467 C1469 1.389 . S
C1468 H1441 0.950 . S
C1468 C1454 1.377 . S
C1468 C1467 1.373 . S
C1469 C1453 1.377 . S
C1469 C1467 1.389 . S
C1469 C1470 1.524 . S
C1470 C1469 1.524 . S
C1470 C1471 1.397 . S
C1470 C1475 1.363 . S
C1471 H1442 0.950 . S
C1471 C1470 1.397 . S
C1471 C1472 1.334 . S
C1472 H1443 0.950 . S
C1472 C1471 1.334 . S
C1472 C1473 1.287 . S
C1473 C1472 1.287 . S
C1473 C1474 1.524 . S
C1473 H1476 0.999 . S
C1474 H1444 0.950 . S
C1474 C1473 1.524 . S
C1474 C1475 1.415 . S
C1475 H1445 0.950 . S
C1475 C1470 1.363 . S
C1475 C1474 1.415 . S
H1476 C1473 0.999 . S
H1477 C1458 0.913 . S
H1478 C1496 0.951 . S
H1479 C1498 0.951 . S
H1480 C1500 0.950 . S
H1481 C1501 0.950 . S
H1482 C1503 0.950 . S
H1483 C1506 0.950 . S
H1484 C1507 0.950 . S
H1485 C1509 0.950 . S
H1486 C1510 0.950 . S
H1487 C1511 0.951 . S
H1488 C1513 0.951 . S
H1489 C1515 0.950 . S
H1490 C1516 0.950 . S
H1491 C1518 0.950 . S
H1492 C1521 0.950 . S
H1493 C1522 0.950 . S
H1494 C1524 0.950 . S
H1495 C1525 0.950 . S
C1496 H1478 0.951 . S
C1496 C1497 1.366 . S
C1496 C1498 1.388 . S
C1497 C1496 1.366 . S
C1497 C1501 1.385 . S
C1498 H1479 0.951 . S
C1498 C1496 1.388 . S
C1498 C1499 1.366 . S
C1499 C1498 1.366 . S
C1499 C1500 1.414 . S
C1499 C1502 1.499 . S
C1500 H1480 0.950 . S
C1500 C1499 1.414 . S
C1500 C1501 1.374 . S
C1501 H1481 0.950 . S
C1501 C1497 1.385 . S
C1501 C1500 1.374 . S
C1502 C1499 1.499 . S
C1502 C1503 1.373 . S
C1502 C1504 1.389 . S
C1503 H1482 0.950 . S
C1503 C1502 1.373 . S
C1503 C1519 1.377 . S
C1504 C1502 1.389 . S
C1504 C1505 1.524 . S
C1504 C1518 1.377 . S
C1505 C1504 1.524 . S
C1505 C1506 1.397 . S
C1505 C1510 1.363 . S
C1506 H1483 0.950 . S
C1506 C1505 1.397 . S
C1506 C1507 1.334 . S
C1507 H1484 0.950 . S
C1507 C1506 1.334 . S
C1507 C1508 1.287 . S
C1508 C1507 1.287 . S
C1508 C1509 1.524 . S
C1508 H1527 0.913 . S
C1509 H1485 0.950 . S
C1509 C1508 1.524 . S
C1509 C1510 1.415 . S
C1510 H1486 0.950 . S
C1510 C1505 1.363 . S
C1510 C1509 1.415 . S
C1511 H1487 0.951 . S
C1511 C1512 1.366 . S
C1511 C1513 1.388 . S
C1512 C1511 1.366 . S
C1512 C1516 1.385 . S
C1513 H1488 0.951 . S
C1513 C1511 1.388 . S
C1513 C1514 1.366 . S
C1514 C1513 1.366 . S
C1514 C1515 1.414 . S
C1514 C1517 1.499 . S
C1515 H1489 0.950 . S
C1515 C1514 1.414 . S
C1515 C1516 1.374 . S
C1516 H1490 0.950 . S
C1516 C1512 1.385 . S
C1516 C1515 1.374 . S
C1517 C1514 1.499 . S
C1517 C1518 1.373 . S
C1517 C1519 1.389 . S
C1518 H1491 0.950 . S
C1518 C1504 1.377 . S
C1518 C1517 1.373 . S
C1519 C1503 1.377 . S
C1519 C1517 1.389 . S
C1519 C1520 1.524 . S
C1520 C1519 1.524 . S
C1520 C1521 1.397 . S
C1520 C1525 1.363 . S
C1521 H1492 0.950 . S
C1521 C1520 1.397 . S
C1521 C1522 1.334 . S
C1522 H1493 0.950 . S
C1522 C1521 1.334 . S
C1522 C1523 1.287 . S
C1523 C1522 1.287 . S
C1523 C1524 1.524 . S
C1523 H1526 0.999 . S
C1524 H1494 0.950 . S
C1524 C1523 1.524 . S
C1524 C1525 1.415 . S
C1525 H1495 0.950 . S
C1525 C1520 1.363 . S
C1525 C1524 1.415 . S
H1526 C1523 0.999 . S
H1527 C1508 0.913 . S
H1528 C1546 0.951 . S
H1529 C1548 0.951 . S
H1530 C1550 0.950 . S
H1531 C1551 0.950 . S
H1532 C1553 0.950 . S
H1533 C1556 0.950 . S
H1534 C1557 0.950 . S
H1535 C1559 0.950 . S
H1536 C1560 0.950 . S
H1537 C1561 0.951 . S
H1538 C1563 0.951 . S
H1539 C1565 0.950 . S
H1540 C1566 0.950 . S
H1541 C1568 0.950 . S
H1542 C1571 0.950 . S
H1543 C1572 0.950 . S
H1544 C1574 0.950 . S
H1545 C1575 0.950 . S
C1546 H1528 0.951 . S
C1546 C1547 1.366 . S
C1546 C1548 1.388 . S
C1547 C1546 1.366 . S
C1547 C1551 1.385 . S
C1548 H1529 0.951 . S
C1548 C1546 1.388 . S
C1548 C1549 1.366 . S
C1549 C1548 1.366 . S
C1549 C1550 1.414 . S
C1549 C1552 1.499 . S
C1550 H1530 0.950 . S
C1550 C1549 1.414 . S
C1550 C1551 1.374 . S
C1551 H1531 0.950 . S
C1551 C1547 1.385 . S
C1551 C1550 1.374 . S
C1552 C1549 1.499 . S
C1552 C1553 1.373 . S
C1552 C1554 1.389 . S
C1553 H1532 0.950 . S
C1553 C1552 1.373 . S
C1553 C1569 1.377 . S
C1554 C1552 1.389 . S
C1554 C1555 1.524 . S
C1554 C1568 1.377 . S
C1555 C1554 1.524 . S
C1555 C1556 1.397 . S
C1555 C1560 1.363 . S
C1556 H1533 0.950 . S
C1556 C1555 1.397 . S
C1556 C1557 1.334 . S
C1557 H1534 0.950 . S
C1557 C1556 1.334 . S
C1557 C1558 1.287 . S
C1558 C1557 1.287 . S
C1558 C1559 1.524 . S
C1558 H1577 0.913 . S
C1559 H1535 0.950 . S
C1559 C1558 1.524 . S
C1559 C1560 1.415 . S
C1560 H1536 0.950 . S
C1560 C1555 1.363 . S
C1560 C1559 1.415 . S
C1561 H1537 0.951 . S
C1561 C1562 1.366 . S
C1561 C1563 1.388 . S
C1562 C1561 1.366 . S
C1562 C1566 1.385 . S
C1563 H1538 0.951 . S
C1563 C1561 1.388 . S
C1563 C1564 1.366 . S
C1564 C1563 1.366 . S
C1564 C1565 1.414 . S
C1564 C1567 1.499 . S
C1565 H1539 0.950 . S
C1565 C1564 1.414 . S
C1565 C1566 1.374 . S
C1566 H1540 0.950 . S
C1566 C1562 1.385 . S
C1566 C1565 1.374 . S
C1567 C1564 1.499 . S
C1567 C1568 1.373 . S
C1567 C1569 1.389 . S
C1568 H1541 0.950 . S
C1568 C1554 1.377 . S
C1568 C1567 1.373 . S
C1569 C1553 1.377 . S
C1569 C1567 1.389 . S
C1569 C1570 1.524 . S
C1570 C1569 1.524 . S
C1570 C1571 1.397 . S
C1570 C1575 1.363 . S
C1571 H1542 0.950 . S
C1571 C1570 1.397 . S
C1571 C1572 1.334 . S
C1572 H1543 0.950 . S
C1572 C1571 1.334 . S
C1572 C1573 1.287 . S
C1573 C1572 1.287 . S
C1573 C1574 1.524 . S
C1573 H1576 0.999 . S
C1574 H1544 0.950 . S
C1574 C1573 1.524 . S
C1574 C1575 1.415 . S
C1575 H1545 0.950 . S
C1575 C1570 1.363 . S
C1575 C1574 1.415 . S
H1576 C1573 0.999 . S
H1577 C1558 0.913 . S
H1578 C1596 0.951 . S
H1579 C1598 0.951 . S
H1580 C1600 0.950 . S
H1581 C1601 0.950 . S
H1582 C1603 0.950 . S
H1583 C1606 0.950 . S
H1584 C1607 0.950 . S
H1585 C1609 0.950 . S
H1586 C1610 0.950 . S
H1587 C1611 0.951 . S
H1588 C1613 0.951 . S
H1589 C1615 0.950 . S
H1590 C1616 0.950 . S
H1591 C1618 0.950 . S
H1592 C1621 0.950 . S
H1593 C1622 0.950 . S
H1594 C1624 0.950 . S
H1595 C1625 0.950 . S
C1596 H1578 0.951 . S
C1596 C1597 1.366 . S
C1596 C1598 1.388 . S
C1597 C1596 1.366 . S
C1597 C1601 1.385 . S
C1598 H1579 0.951 . S
C1598 C1596 1.388 . S
C1598 C1599 1.366 . S
C1599 C1598 1.366 . S
C1599 C1600 1.414 . S
C1599 C1602 1.499 . S
C1600 H1580 0.950 . S
C1600 C1599 1.414 . S
C1600 C1601 1.374 . S
C1601 H1581 0.950 . S
C1601 C1597 1.385 . S
C1601 C1600 1.374 . S
C1602 C1599 1.499 . S
C1602 C1603 1.373 . S
C1602 C1604 1.389 . S
C1603 H1582 0.950 . S
C1603 C1602 1.373 . S
C1603 C1619 1.377 . S
C1604 C1602 1.389 . S
C1604 C1605 1.524 . S
C1604 C1618 1.377 . S
C1605 C1604 1.524 . S
C1605 C1606 1.397 . S
C1605 C1610 1.363 . S
C1606 H1583 0.950 . S
C1606 C1605 1.397 . S
C1606 C1607 1.334 . S
C1607 H1584 0.950 . S
C1607 C1606 1.334 . S
C1607 C1608 1.287 . S
C1608 C1607 1.287 . S
C1608 C1609 1.524 . S
C1608 H1627 0.913 . S
C1609 H1585 0.950 . S
C1609 C1608 1.524 . S
C1609 C1610 1.415 . S
C1610 H1586 0.950 . S
C1610 C1605 1.363 . S
C1610 C1609 1.415 . S
C1611 H1587 0.951 . S
C1611 C1612 1.366 . S
C1611 C1613 1.388 . S
C1612 C1611 1.366 . S
C1612 C1616 1.385 . S
C1613 H1588 0.951 . S
C1613 C1611 1.388 . S
C1613 C1614 1.366 . S
C1614 C1613 1.366 . S
C1614 C1615 1.414 . S
C1614 C1617 1.499 . S
C1615 H1589 0.950 . S
C1615 C1614 1.414 . S
C1615 C1616 1.374 . S
C1616 H1590 0.950 . S
C1616 C1612 1.385 . S
C1616 C1615 1.374 . S
C1617 C1614 1.499 . S
C1617 C1618 1.373 . S
C1617 C1619 1.389 . S
C1618 H1591 0.950 . S
C1618 C1604 1.377 . S
C1618 C1617 1.373 . S
C1619 C1603 1.377 . S
C1619 C1617 1.389 . S
C1619 C1620 1.524 . S
C1620 C1619 1.524 . S
C1620 C1621 1.397 . S
C1620 C1625 1.363 . S
C1621 H1592 0.950 . S
C1621 C1620 1.397 . S
C1621 C1622 1.334 . S
C1622 H1593 0.950 . S
C1622 C1621 1.334 . S
C1622 C1623 1.287 . S
C1623 C1622 1.287 . S
C1623 C1624 1.524 . S
C1623 H1626 0.999 . S
C1624 H1594 0.950 . S
C1624 C1623 1.524 . S
C1624 C1625 1.415 . S
C1625 H1595 0.950 . S
C1625 C1620 1.363 . S
C1625 C1624 1.415 . S
H1626 C1623 0.999 . S
H1627 C1608 0.913 . S
H1628 C1646 0.951 . S
H1629 C1648 0.951 . S
H1630 C1650 0.950 . S
H1631 C1651 0.950 . S
H1632 C1653 0.950 . S
H1633 C1656 0.950 . S
H1634 C1657 0.950 . S
H1635 C1659 0.950 . S
H1636 C1660 0.950 . S
H1637 C1661 0.951 . S
H1638 C1663 0.951 . S
H1639 C1665 0.950 . S
H1640 C1666 0.950 . S
H1641 C1668 0.950 . S
H1642 C1671 0.950 . S
H1643 C1672 0.950 . S
H1644 C1674 0.950 . S
H1645 C1675 0.950 . S
C1646 H1628 0.951 . S
C1646 C1647 1.366 . S
C1646 C1648 1.388 . S
C1647 C1646 1.366 . S
C1647 C1651 1.385 . S
C1648 H1629 0.951 . S
C1648 C1646 1.388 . S
C1648 C1649 1.366 . S
C1649 C1648 1.366 . S
C1649 C1650 1.414 . S
C1649 C1652 1.499 . S
C1650 H1630 0.950 . S
C1650 C1649 1.414 . S
C1650 C1651 1.374 . S
C1651 H1631 0.950 . S
C1651 C1647 1.385 . S
C1651 C1650 1.374 . S
C1652 C1649 1.499 . S
C1652 C1653 1.373 . S
C1652 C1654 1.389 . S
C1653 H1632 0.950 . S
C1653 C1652 1.373 . S
C1653 C1669 1.377 . S
C1654 C1652 1.389 . S
C1654 C1655 1.524 . S
C1654 C1668 1.377 . S
C1655 C1654 1.524 . S
C1655 C1656 1.397 . S
C1655 C1660 1.363 . S
C1656 H1633 0.950 . S
C1656 C1655 1.397 . S
C1656 C1657 1.334 . S
C1657 H1634 0.950 . S
C1657 C1656 1.334 . S
C1657 C1658 1.287 . S
C1658 C1657 1.287 . S
C1658 C1659 1.524 . S
C1658 H1677 0.913 . S
C1659 H1635 0.950 . S
C1659 C1658 1.524 . S
C1659 C1660 1.415 . S
C1660 H1636 0.950 . S
C1660 C1655 1.363 . S
C1660 C1659 1.415 . S
C1661 H1637 0.951 . S
C1661 C1662 1.366 . S
C1661 C1663 1.388 . S
C1662 C1661 1.366 . S
C1662 C1666 1.385 . S
C1663 H1638 0.951 . S
C1663 C1661 1.388 . S
C1663 C1664 1.366 . S
C1664 C1663 1.366 . S
C1664 C1665 1.414 . S
C1664 C1667 1.499 1_556 S
C1665 H1639 0.950 . S
C1665 C1664 1.414 . S
C1665 C1666 1.374 . S
C1666 H1640 0.950 . S
C1666 C1662 1.385 . S
C1666 C1665 1.374 . S
C1667 C1664 1.499 1_554 S
C1667 C1668 1.373 . S
C1667 C1669 1.389 . S
C1668 H1641 0.950 . S
C1668 C1654 1.377 . S
C1668 C1667 1.373 . S
C1669 C1653 1.377 . S
C1669 C1667 1.389 . S
C1669 C1670 1.524 1_554 S
C1670 C1669 1.524 1_556 S
C1670 C1671 1.397 . S
C1670 C1675 1.363 . S
C1671 H1642 0.950 . S
C1671 C1670 1.397 . S
C1671 C1672 1.334 . S
C1672 H1643 0.950 . S
C1672 C1671 1.334 . S
C1672 C1673 1.287 . S
C1673 C1672 1.287 . S
C1673 C1674 1.524 . S
C1673 H1676 0.999 . S
C1674 H1644 0.950 . S
C1674 C1673 1.524 . S
C1674 C1675 1.415 . S
C1675 H1645 0.950 . S
C1675 C1670 1.363 . S
C1675 C1674 1.415 . S
H1676 C1673 0.999 . S
H1677 C1658 0.913 . S
H1678 C1696 0.951 . S
H1679 C1698 0.951 . S
H1680 C1700 0.950 . S
H1681 C1701 0.950 . S
H1682 C1703 0.950 . S
H1683 C1706 0.950 . S
H1684 C1707 0.950 . S
H1685 C1709 0.950 . S
H1686 C1710 0.950 . S
H1687 C1711 0.951 . S
H1688 C1713 0.951 . S
H1689 C1715 0.950 . S
H1690 C1716 0.950 . S
H1691 C1718 0.950 . S
H1692 C1721 0.950 . S
H1693 C1722 0.950 . S
H1694 C1724 0.950 . S
H1695 C1725 0.950 . S
C1696 H1678 0.951 . S
C1696 C1697 1.366 . S
C1696 C1698 1.388 . S
C1697 C1696 1.366 . S
C1697 C1701 1.385 . S
C1698 H1679 0.951 . S
C1698 C1696 1.388 . S
C1698 C1699 1.366 . S
C1699 C1698 1.366 . S
C1699 C1700 1.414 . S
C1699 C1702 1.499 . S
C1700 H1680 0.950 . S
C1700 C1699 1.414 . S
C1700 C1701 1.374 . S
C1701 H1681 0.950 . S
C1701 C1697 1.385 . S
C1701 C1700 1.374 . S
C1702 C1699 1.499 . S
C1702 C1703 1.373 . S
C1702 C1704 1.389 . S
C1703 H1682 0.950 . S
C1703 C1702 1.373 . S
C1703 C1719 1.377 . S
C1704 C1702 1.389 . S
C1704 C1705 1.524 . S
C1704 C1718 1.377 . S
C1705 C1704 1.524 . S
C1705 C1706 1.397 . S
C1705 C1710 1.363 . S
C1706 H1683 0.950 . S
C1706 C1705 1.397 . S
C1706 C1707 1.334 . S
C1707 H1684 0.950 . S
C1707 C1706 1.334 . S
C1707 C1708 1.287 . S
C1708 C1707 1.287 . S
C1708 C1709 1.524 . S
C1708 H1727 0.913 . S
C1709 H1685 0.950 . S
C1709 C1708 1.524 . S
C1709 C1710 1.415 . S
C1710 H1686 0.950 . S
C1710 C1705 1.363 . S
C1710 C1709 1.415 . S
C1711 H1687 0.951 . S
C1711 C1712 1.366 . S
C1711 C1713 1.388 . S
C1712 C1711 1.366 . S
C1712 C1716 1.385 . S
C1713 H1688 0.951 . S
C1713 C1711 1.388 . S
C1713 C1714 1.366 . S
C1714 C1713 1.366 . S
C1714 C1715 1.414 . S
C1714 C1717 1.499 . S
C1715 H1689 0.950 . S
C1715 C1714 1.414 . S
C1715 C1716 1.374 . S
C1716 H1690 0.950 . S
C1716 C1712 1.385 . S
C1716 C1715 1.374 . S
C1717 C1714 1.499 . S
C1717 C1718 1.373 . S
C1717 C1719 1.389 . S
C1718 H1691 0.950 . S
C1718 C1704 1.377 . S
C1718 C1717 1.373 . S
C1719 C1703 1.377 . S
C1719 C1717 1.389 . S
C1719 C1720 1.524 . S
C1720 C1719 1.524 . S
C1720 C1721 1.397 . S
C1720 C1725 1.363 . S
C1721 H1692 0.950 . S
C1721 C1720 1.397 . S
C1721 C1722 1.334 . S
C1722 H1693 0.950 . S
C1722 C1721 1.334 . S
C1722 C1723 1.287 . S
C1723 C1722 1.287 . S
C1723 C1724 1.524 . S
C1723 H1726 0.999 . S
C1724 H1694 0.950 . S
C1724 C1723 1.524 . S
C1724 C1725 1.415 . S
C1725 H1695 0.950 . S
C1725 C1720 1.363 . S
C1725 C1724 1.415 . S
H1726 C1723 0.999 . S
H1727 C1708 0.913 . S
C562 C517 0.971 . S
C547 C51 0.964 . S
C597 C125 1.825 . S
C612 C447 1.842 . S
C647 C217 2.422 . S
C662 C466 2.419 . S
C697 C291 2.063 . S
C712 C475 2.096 . S
C762 C489 0.391 . S
C747 C347 0.416 . S
C797 C421 1.117 . S
C812 C508 1.132 . S
C847 C143 2.768 . S
C862 C461 2.794 . S
C897 C199 1.105 . S
C912 C480 1.106 . S
C947 C273 0.871 . S
C962 C494 0.877 . S
C1012 C503 1.257 . S
C997 C365 1.254 . S
C1062 C522 2.325 . S
C1047 C439 2.302 . S
C1112 C452 2.042 . S
C1097 C69 2.059 . S
C1147 C63 1.468 . S
C1162 C467 1.521 . S
C1197 C137 1.350 . S
C1212 C479 1.394 . S
C1262 C493 1.371 . S
C1247 C187 1.342 . S
C1297 C261 1.471 . S
C1312 C509 1.530 . S
C1362 C521 1.259 . S
C1347 C359 1.217 . S
C1412 C451 1.186 . S
C1397 C433 1.157 . S
C1462 C523 1.499 . S
C1447 C113 1.488 . S
C1497 C211 1.414 . S
C1512 C453 1.438 . S
C1562 C465 1.490 . S
C1547 C285 1.420 . S
C1597 C335 1.255 . S
C1612 C481 1.258 . S
C1647 C409 1.423 . S
C1662 C495 1.482 . S
C1697 C39 1.763 . S
C1712 C507 1.798 . S
