# Generated by pormake.
# Topology anh, (6,3)-cn, num edge types: 1
# Building blocks:
#     Node 0, Type 0, BuildingBlock: BETGAK_clean_sbu_0, # of connection points: 6
#     Node 1, Type 0, BuildingBlock: BETGAK_clean_sbu_0, # of connection points: 6
#     Node 2, Type 0, BuildingBlock: BETGAK_clean_sbu_0, # of connection points: 6
#     Node 3, Type 1, BuildingBlock: KAKCAD_clean_linker_0, # of connection points: 3
#     Node 4, Type 1, BuildingBlock: KAKCAD_clean_linker_0, # of connection points: 3
#     Node 5, Type 1, BuildingBlock: KAKCAD_clean_linker_0, # of connection points: 3
#     Node 6, Type 1, BuildingBlock: KAKCAD_clean_linker_0, # of connection points: 3
#     Node 7, Type 1, BuildingBlock: KAKCAD_clean_linker_0, # of connection points: 3
#     Node 8, Type 1, BuildingBlock: KAKCAD_clean_linker_0, # of connection points: 3
#     Edge 9, Type (0, 1), BuildingBlock: XIVTED_clean_linker_0, # of connection points: 2
#     Edge 10, Type (0, 1), BuildingBlock: XIVTED_clean_linker_0, # of connection points: 2
#     Edge 11, Type (0, 1), BuildingBlock: XIVTED_clean_linker_0, # of connection points: 2
#     Edge 12, Type (0, 1), BuildingBlock: XIVTED_clean_linker_0, # of connection points: 2
#     Edge 13, Type (0, 1), BuildingBlock: XIVTED_clean_linker_0, # of connection points: 2
#     Edge 14, Type (0, 1), BuildingBlock: XIVTED_clean_linker_0, # of connection points: 2
#     Edge 15, Type (0, 1), BuildingBlock: XIVTED_clean_linker_0, # of connection points: 2
#     Edge 16, Type (0, 1), BuildingBlock: XIVTED_clean_linker_0, # of connection points: 2
#     Edge 17, Type (0, 1), BuildingBlock: XIVTED_clean_linker_0, # of connection points: 2
#     Edge 18, Type (0, 1), BuildingBlock: XIVTED_clean_linker_0, # of connection points: 2
#     Edge 19, Type (0, 1), BuildingBlock: XIVTED_clean_linker_0, # of connection points: 2
#     Edge 20, Type (0, 1), BuildingBlock: XIVTED_clean_linker_0, # of connection points: 2
#     Edge 21, Type (0, 1), BuildingBlock: XIVTED_clean_linker_0, # of connection points: 2
#     Edge 22, Type (0, 1), BuildingBlock: XIVTED_clean_linker_0, # of connection points: 2
#     Edge 23, Type (0, 1), BuildingBlock: XIVTED_clean_linker_0, # of connection points: 2
#     Edge 24, Type (0, 1), BuildingBlock: XIVTED_clean_linker_0, # of connection points: 2
#     Edge 25, Type (0, 1), BuildingBlock: XIVTED_clean_linker_0, # of connection points: 2
#     Edge 26, Type (0, 1), BuildingBlock: XIVTED_clean_linker_0, # of connection points: 2
# Relax obj value: 0.183
# Max RMSD: 0.207
# Mean RMSD: 0.155
data_MOF--net-anh--node1-BETGAK_clean_sbu_0--node2-KAKCAD_clean_linker_0--edge1-XIVTED_clean_linker_0
_symmetry_space_group_name_H-M    P1
_symmetry_Int_Tables_number       1
_symmetry_cell_setting            triclinic
loop_
_symmetry_equiv_pos_as_xyz
'x, y, z'
_cell_length_a     37.275624
_cell_length_b     44.197289
_cell_length_c     67.278303
_cell_angle_alpha  93.221326
_cell_angle_beta   88.684857
_cell_angle_gamma 128.67505
loop_
_atom_site_label
_atom_site_type_symbol
_atom_site_fract_x
_atom_site_fract_y
_atom_site_fract_z
_atom_type_partial_charge
La0 La 0.10319 0.53638 0.14318 0.0
La1 La 1.05489 0.56645 0.15875 0.0
C2 C 0.15117 0.52479 0.12267 0.0
C3 C 0.19745 0.53666 0.1248 0.0
C4 C 0.21858 0.54714 0.14367 0.0
C5 C 0.2582 0.55079 0.14626 0.0
C6 C 0.27745 0.54457 0.12995 0.0
C7 C 0.25838 0.53739 0.11082 0.0
C8 C 0.21842 0.53325 0.10829 0.0
C9 C 0.0961 0.53674 0.18211 0.0
C10 C 0.15957 0.62872 0.15352 0.0
C11 C 1.00036 0.57188 0.17786 0.0
C12 C 0.95149 0.5403 0.18147 0.0
C13 C 0.92532 0.51009 0.16686 0.0
C14 C 0.88087 0.47751 0.17079 0.0
C15 C 0.86132 0.47427 0.18943 0.0
C16 C 0.88696 0.50488 0.20396 0.0
C17 C 0.93203 0.5376 0.20006 0.0
C18 C 0.06298 0.56447 0.1196 0.0
C19 C 0.99993 0.47514 0.15101 0.0
O20 O 0.12212 0.50157 0.13608 0.0
O21 O 0.14828 0.55208 0.11928 0.0
O22 O 0.09778 0.51225 0.17161 0.0
O23 O 0.10358 0.56217 0.17112 0.0
O24 O 0.15844 0.60041 0.14462 0.0
O25 O 0.12304 0.62147 0.16233 0.0
O26 O 1.01103 0.58106 0.1593 0.0
O27 O 1.02884 0.56856 0.1864 0.0
O28 O 0.06559 0.59165 0.12971 0.0
O29 O 1.05373 0.53928 0.13118 0.0
O30 O 1.0046 0.50337 0.16178 0.0
O31 O 1.03268 0.48302 0.13877 0.0
H32 H 0.20293 0.55022 0.15658 0.0
H33 H 0.27244 0.55652 0.16112 0.0
H34 H 0.27232 0.53209 0.09803 0.0
H35 H 0.20251 0.52524 0.09363 0.0
H36 H 0.93954 0.51117 0.15244 0.0
H37 H 0.86161 0.45487 0.15911 0.0
H38 H 0.87245 0.50319 0.21839 0.0
H39 H 0.95192 0.5604 0.21161 0.0
La40 La 0.62402 0.02941 0.48042 0.0
La41 La 0.56282 0.05001 0.47424 0.0
C42 C 0.66094 1.00158 0.49282 0.0
C43 C 0.64987 0.96371 0.4959 0.0
C44 C 0.67936 0.95664 0.48808 0.0
C45 C 0.67182 0.92223 0.49161 0.0
C46 C 0.63471 0.89405 0.50322 0.0
C47 C 0.60447 0.90078 0.51067 0.0
C48 C 0.61195 0.93526 0.50704 0.0
C49 C 0.6194 0.04368 0.44351 0.0
C50 C 0.51605 0.96227 0.47211 0.0
C51 C 0.52689 0.07976 0.46367 0.0
C52 C 0.53452 0.11657 0.4685 0.0
C53 C 0.49957 0.11538 0.47778 0.0
C54 C 0.50632 0.14964 0.48321 0.0
C55 C 0.54819 0.18607 0.4794 0.0
C56 C 0.58298 0.1872 0.46981 0.0
C57 C 0.57622 0.15285 0.4644 0.0
C58 C 0.56909 0.0369 0.51127 0.0
C59 C 0.67202 0.11767 0.4803 0.0
O60 O 0.66244 0.01004 0.47436 0.0
O61 O 0.6416 0.01232 0.50444 0.0
O62 O 0.65575 0.05189 0.45179 0.0
O63 O 0.58623 0.02554 0.45532 0.0
O64 O 0.55453 0.97259 0.48032 0.0
O65 O 0.51384 0.98858 0.46527 0.0
O66 O 0.51162 0.05621 0.47818 0.0
O67 O 0.55851 0.08156 0.45349 0.0
O68 O 0.53239 0.02833 0.50327 0.0
O69 O 0.60143 0.05475 0.49912 0.0
O70 O 0.63151 0.10713 0.47486 0.0
O71 O 0.67679 0.09192 0.48555 0.0
H72 H 0.70873 0.97807 0.47939 0.0
H73 H 0.69527 0.9178 0.48525 0.0
H74 H 0.57573 0.87992 0.51978 0.0
H75 H 0.58852 0.93988 0.51321 0.0
H76 H 0.46709 0.08782 0.48109 0.0
H77 H 0.47895 0.14751 0.49081 0.0
H78 H 0.61541 0.21463 0.46636 0.0
H79 H 0.60373 0.1548 0.4571 0.0
La80 La 0.61558 0.55927 0.84348 0.0
La81 La 0.54991 0.47255 0.84262 0.0
C82 C 0.65786 0.62943 0.83594 0.0
C83 C 0.64817 0.65598 0.83119 0.0
C84 C 0.67847 0.69485 0.83833 0.0
C85 C 0.67188 0.72137 0.83331 0.0
C86 C 0.63484 0.70972 0.82091 0.0
C87 C 0.60383 0.6704 0.81412 0.0
C88 C 0.61041 0.64378 0.81922 0.0
C89 C 0.59944 0.52826 0.87798 0.0
C90 C 0.50547 0.51432 0.84605 0.0
C91 C 0.50944 0.40201 0.84857 0.0
C92 C 0.5183 0.37391 0.84435 0.0
C93 C 0.48535 0.3389 0.83357 0.0
C94 C 0.49299 0.31208 0.82896 0.0
C95 C 0.53385 0.31954 0.83507 0.0
C96 C 0.56679 0.35462 0.846 0.0
C97 C 0.55907 0.38146 0.85063 0.0
C98 C 0.56467 0.50238 0.80784 0.0
C99 C 0.66105 0.5183 0.84247 0.0
O100 O 0.64841 0.61695 0.85397 0.0
O101 O 0.64639 0.60204 0.82246 0.0
O102 O 0.63927 0.55948 0.87312 0.0
O103 O 0.57066 0.51715 0.8643 0.0
O104 O 0.54703 0.54595 0.84117 0.0
O105 O 0.49959 0.48233 0.85013 0.0
O106 O 0.50168 0.4138 0.83304 0.0
O107 O 0.53585 0.43049 0.86185 0.0
O108 O 0.52584 0.47102 0.8132 0.0
O109 O 0.59462 0.5145 0.82124 0.0
O110 O 0.61825 0.48527 0.84392 0.0
O111 O 0.66852 0.55158 0.84045 0.0
H112 H 0.70768 0.70485 0.84767 0.0
H113 H 0.69593 0.7511 0.8392 0.0
H114 H 0.57511 0.66032 0.80444 0.0
H115 H 0.58641 0.61387 0.81357 0.0
H116 H 0.45367 0.33238 0.82854 0.0
H117 H 0.46712 0.28577 0.82027 0.0
H118 H 0.59839 0.36121 0.85118 0.0
H119 H 0.58503 0.40808 0.85909 0.0
C120 C 0.59533 0.07853 0.28693 0.0
C121 C 0.60013 0.05307 0.29568 0.0
C122 C 0.59359 0.07895 0.26618 0.0
C123 C 0.59583 0.05346 0.25382 0.0
C124 C 0.60012 0.02775 0.2626 0.0
C125 C 0.60256 0.02773 0.2833 0.0
C126 C 0.59341 0.05334 0.23181 0.0
C127 C 0.62117 0.0881 0.22195 0.0
C128 C 0.62014 0.08798 0.20106 0.0
C129 C 0.58978 0.0524 0.18996 0.0
C130 C 0.56101 0.01725 0.19973 0.0
C131 C 0.56359 0.0182 0.2206 0.0
C132 C 0.52655 0.97926 0.18875 0.0
C133 C 0.4947 0.9746 0.17545 0.0
C134 C 0.52165 0.94624 0.19345 0.0
C135 C 0.4845 0.90923 0.18592 0.0
C136 C 0.45101 0.90418 0.17356 0.0
C137 C 0.65206 0.12545 0.1913 0.0
C138 C 0.6519 0.15651 0.19668 0.0
C139 C 0.68627 0.13191 0.17849 0.0
C140 C 0.72113 0.16927 0.17207 0.0
C141 C 0.72223 0.20094 0.17813 0.0
C142 C 0.68614 0.1936 0.19001 0.0
C143 C 0.45721 0.93745 0.16802 0.0
H144 H 0.59367 0.09853 0.29612 0.0
H145 H 0.58999 0.0989 0.25979 0.0
H146 H 0.60217 0.00793 0.25343 0.0
H147 H 0.60596 0.00762 0.28963 0.0
H148 H 0.64481 0.1153 0.23053 0.0
H149 H 0.5412 0.99146 0.22828 0.0
H150 H 0.58849 0.0521 0.17387 0.0
H151 H 0.4974 0.99944 0.17164 0.0
H152 H 0.54577 0.94892 0.20359 0.0
H153 H 0.48082 0.88441 0.19063 0.0
H154 H 0.62577 0.15225 0.20648 0.0
H155 H 0.68744 0.10852 0.17431 0.0
H156 H 0.43243 0.9347 0.15831 0.0
H157 H 0.68466 0.21668 0.19455 0.0
H158 H 0.74828 0.17352 0.1631 0.0
C159 C 0.57452 0.55417 0.65137 0.0
C160 C 0.60066 0.54724 0.66193 0.0
C161 C 0.57574 0.5544 0.63061 0.0
C162 C 0.60329 0.54785 0.61983 0.0
C163 C 0.63007 0.54158 0.6304 0.0
C164 C 0.62882 0.54132 0.65121 0.0
C165 C 0.60353 0.54718 0.59766 0.0
C166 C 0.60295 0.57394 0.5877 0.0
C167 C 0.60172 0.573 0.5668 0.0
C168 C 0.60184 0.54504 0.55574 0.0
C169 C 0.60252 0.51791 0.56543 0.0
C170 C 0.60324 0.51928 0.5864 0.0
C171 C 0.6013 0.4874 0.55391 0.0
C172 C 0.57246 0.46744 0.53705 0.0
C173 C 0.62761 0.47679 0.56026 0.0
C174 C 0.62424 0.44639 0.55039 0.0
C175 C 0.59461 0.42577 0.53381 0.0
C176 C 0.60056 0.60163 0.55683 0.0
C177 C 0.57188 0.61017 0.564 0.0
C178 C 0.62973 0.62218 0.54092 0.0
C179 C 0.63147 0.65167 0.5329 0.0
C180 C 0.60378 0.66102 0.54052 0.0
C181 C 0.57342 0.63943 0.55595 0.0
C182 C 0.56914 0.437 0.52713 0.0
H183 H 0.55289 0.55933 0.65915 0.0
H184 H 0.55433 0.55897 0.62298 0.0
H185 H 0.65208 0.53689 0.62258 0.0
H186 H 0.64908 0.53555 0.65884 0.0
H187 H 0.6043 0.59615 0.59626 0.0
H188 H 0.60205 0.49771 0.59401 0.0
H189 H 0.60118 0.5443 0.53962 0.0
H190 H 0.55145 0.4746 0.53181 0.0
H191 H 0.65065 0.49184 0.57302 0.0
H192 H 0.64406 0.43842 0.55613 0.0
H193 H 0.54862 0.59455 0.5761 0.0
H194 H 0.65236 0.61638 0.53511 0.0
H195 H 0.54642 0.42217 0.51426 0.0
H196 H 0.55188 0.64599 0.5623 0.0
H197 H 0.65485 0.66742 0.52087 0.0
C198 C 0.12852 0.56972 0.96032 0.0
C199 C 0.08783 0.544 0.97085 0.0
C200 C 0.12918 0.56532 0.93954 0.0
C201 C 0.08899 0.53549 0.9288 0.0
C202 C 1.04837 0.50981 0.93935 0.0
C203 C 1.04785 0.51388 0.9601 0.0
C204 C 0.08888 0.53147 0.90665 0.0
C205 C 0.12298 0.5322 0.89678 0.0
C206 C 0.12278 0.52725 0.8759 0.0
C207 C 0.08674 0.52221 0.8647 0.0
C208 C 1.052 0.52207 0.87461 0.0
C209 C 1.05405 0.52648 0.8955 0.0
C210 C 1.01223 0.51724 0.86465 0.0
C211 C 1.01888 0.54727 0.85431 0.0
C212 C 0.96661 0.48659 0.86985 0.0
C213 C 0.92949 0.48637 0.8655 0.0
C214 C 0.93599 0.51703 0.85581 0.0
C215 C 0.16119 0.52755 0.86714 0.0
C216 C 0.20756 0.55914 0.87191 0.0
C217 C 0.15264 0.49414 0.8578 0.0
C218 C 0.18884 0.4921 0.854 0.0
C219 C 0.23524 0.52346 0.85929 0.0
C220 C 0.24362 0.55728 0.86798 0.0
C221 C 0.9816 0.54714 0.84995 0.0
H222 H 0.15996 0.59304 0.96818 0.0
H223 H 0.16093 0.58569 0.93182 0.0
H224 H 1.01693 0.48638 0.93152 0.0
H225 H 1.01587 0.49377 0.96772 0.0
H226 H 0.14942 0.53558 0.90558 0.0
H227 H 1.02835 0.52667 0.90325 0.0
H228 H 0.08578 0.51852 0.84863 0.0
H229 H 1.05336 0.572 0.8505 0.0
H230 H 0.95987 0.46343 0.87832 0.0
H231 H 0.89585 0.46275 0.8707 0.0
H232 H 0.21586 0.58513 0.8795 0.0
H233 H 0.1176 0.46878 0.85429 0.0
H234 H 0.98892 0.57125 0.84224 0.0
H235 H 0.27808 0.5821 0.87265 0.0
H236 H 0.18018 0.46553 0.84709 0.0
C237 C 1.04178 0.51169 0.34179 0.0
C238 C 0.08256 0.53234 0.33088 0.0
C239 C 1.0432 0.51157 0.36255 0.0
C240 C 0.08545 0.53159 0.37287 0.0
C241 C 0.12616 0.55169 0.3618 0.0
C242 C 0.12474 0.55233 0.34109 0.0
C243 C 0.0872 0.53213 0.39506 0.0
C244 C 1.05284 0.49947 0.40546 0.0
C245 C 1.05365 0.50002 0.42642 0.0
C246 C 0.0904 0.53401 0.43707 0.0
C247 C 0.12554 0.56684 0.42682 0.0
C248 C 0.12325 0.56558 0.40596 0.0
C249 C 0.165 0.60334 0.43728 0.0
C250 C 0.1581 0.62472 0.45071 0.0
C251 C 0.21009 0.61969 0.43161 0.0
C252 C 0.24731 0.65719 0.43852 0.0
C253 C 0.24042 0.67958 0.45112 0.0
C254 C 1.01575 0.46457 0.43666 0.0
C255 C 0.96992 0.44405 0.43027 0.0
C256 C 1.0249 0.44925 0.4517 0.0
C257 C 0.98923 0.41351 0.45955 0.0
C258 C 0.94351 0.39246 0.4527 0.0
C259 C 0.93441 0.40861 0.43814 0.0
C260 C 0.19541 0.66258 0.45746 0.0
H261 H 1.00879 0.49624 0.33427 0.0
H262 H 1.01117 0.49631 0.37051 0.0
H263 H 0.15929 0.56672 0.36908 0.0
H264 H 0.15666 0.56798 0.33301 0.0
H265 H 1.02566 0.47306 0.39719 0.0
H266 H 0.14939 0.5914 0.39824 0.0
H267 H 0.09166 0.53497 0.45319 0.0
H268 H 0.12366 0.61296 0.45515 0.0
H269 H 0.21634 0.60391 0.42117 0.0
H270 H 0.28128 0.66932 0.43316 0.0
H271 H 0.96153 0.45513 0.41884 0.0
H272 H 1.05982 0.46419 0.45689 0.0
H273 H 0.18892 0.67886 0.46732 0.0
H274 H 0.89991 0.39326 0.43228 0.0
H275 H 0.99753 0.40225 0.4709 0.0
C276 C 0.55704 0.02127 0.67038 0.0
C277 C 0.58496 0.01688 0.65829 0.0
C278 C 0.55892 0.02124 0.6911 0.0
C279 C 0.58872 0.01676 0.7003 0.0
C280 C 0.61655 0.01221 0.68824 0.0
C281 C 0.61482 0.01242 0.66747 0.0
C282 C 0.59087 0.01722 0.72241 0.0
C283 C 0.59173 0.99002 0.73171 0.0
C284 C 0.59273 0.98975 0.75261 0.0
C285 C 0.59337 0.01767 0.76426 0.0
C286 C 0.59283 0.04539 0.75517 0.0
C287 C 0.59144 0.04469 0.73426 0.0
C288 C 0.59273 0.07483 0.76716 0.0
C289 C 0.56372 0.0643 0.78356 0.0
C290 C 0.6195 0.11333 0.76134 0.0
C291 C 0.6161 0.1402 0.77112 0.0
C292 C 0.58589 0.12943 0.78707 0.0
C293 C 0.59321 0.96018 0.76199 0.0
C294 C 0.56446 0.9213 0.75452 0.0
C295 C 0.62371 0.97075 0.7778 0.0
C296 C 0.62635 0.94334 0.78551 0.0
C297 C 0.59825 0.90461 0.77773 0.0
C298 C 0.56687 0.8939 0.7623 0.0
C299 C 0.56025 0.09125 0.79337 0.0
H300 H 0.53403 0.02523 0.66385 0.0
H301 H 0.53668 0.02442 0.69993 0.0
H302 H 0.64014 0.009 0.69487 0.0
H303 H 0.63652 0.00866 0.65859 0.0
H304 H 0.59138 0.9688 0.72261 0.0
H305 H 0.59058 0.06562 0.72713 0.0
H306 H 0.59416 0.01776 0.78035 0.0
H307 H 0.54248 0.03487 0.78839 0.0
H308 H 0.64265 0.1226 0.74892 0.0
H309 H 0.63611 0.16911 0.76568 0.0
H310 H 0.54021 0.91206 0.7425 0.0
H311 H 0.64648 1.00047 0.78383 0.0
H312 H 0.53711 0.08202 0.80577 0.0
H313 H 0.54496 0.86449 0.75581 0.0
H314 H 0.65054 0.95253 0.79755 0.0
C315 C 0.48763 0.34702 0.00369 0.0
C316 C 0.53277 0.37924 -0.00094 0.0
C317 C 0.47668 0.33408 0.02303 0.0
C318 C 0.51086 0.35233 0.03792 0.0
C319 C 0.55654 0.38219 0.03302 0.0
C320 C 0.56741 0.3957 0.0138 0.0
C321 C 0.49813 0.34647 0.05905 0.0
C322 C 0.51158 0.33058 0.07144 0.0
C323 C 0.5058 0.33129 0.0922 0.0
C324 C 0.48746 0.34905 0.10025 0.0
C325 C 0.47401 0.36512 0.08796 0.0
C326 C 0.47816 0.36249 0.06728 0.0
C327 C 0.45972 0.38771 0.09678 0.0
C328 C 0.43387 0.37656 0.11428 0.0
C329 C 0.4732 0.4215 0.08801 0.0
C330 C 0.46022 0.44298 0.09619 0.0
C331 C 0.43428 0.43187 0.11367 0.0
C332 C 0.52401 0.31831 0.10591 0.0
C333 C 0.56634 0.32627 0.10215 0.0
C334 C 0.50231 0.30251 0.12412 0.0
C335 C 0.52467 0.29873 0.13898 0.0
C336 C 0.56861 0.30974 0.13571 0.0
C337 C 0.58824 0.32179 0.11686 0.0
C338 C 0.42167 0.39856 0.12272 0.0
H339 H 0.46025 0.33285 0.99263 0.0
H340 H 0.44115 0.31115 0.02661 0.0
H341 H 0.58324 0.3971 0.04445 0.0
H342 H 0.60243 0.42075 0.01098 0.0
H343 H 0.52733 0.31854 0.06492 0.0
H344 H 0.46807 0.37476 0.0575 0.0
H345 H 0.4865 0.35269 0.11625 0.0
H346 H 0.42266 0.35063 0.12141 0.0
H347 H 0.49414 0.4317 0.07483 0.0
H348 H 0.46994 0.46793 0.0885 0.0
H349 H 0.5844 0.33882 0.08846 0.0
H350 H 0.46912 0.29508 0.12732 0.0
H351 H 0.40227 0.38931 0.13633 0.0
H352 H 0.6224 0.33099 0.11401 0.0
H353 H 0.50872 0.28914 0.15336 0.0
H354 H 0.3574 0.57533 0.10979 0.0
H355 H 0.35308 0.40352 0.13231 0.0
H356 H 0.2742 0.49924 0.15672 0.0
H357 H 0.47899 0.51049 0.11322 0.0
H358 H 0.32404 0.43847 0.14164 0.0
H359 H 0.40391 0.55361 0.11068 0.0
C360 C 0.34968 0.55476 0.12057 0.0
C361 C 0.3119 0.53886 0.13312 0.0
C362 C 0.35833 0.45438 0.13569 0.0
C363 C 0.36387 0.51338 0.13391 0.0
C364 C 0.37514 0.43445 0.13041 0.0
C365 C 0.41847 0.45381 0.12165 0.0
C366 C 0.38445 0.49374 0.13179 0.0
C367 C 0.44481 0.49394 0.1193 0.0
C368 C 0.37618 0.54245 0.12112 0.0
C369 C 0.30319 0.51231 0.14686 0.0
N370 N 0.42702 0.51243 0.12397 0.0
N371 N 0.32837 0.49974 0.1466 0.0
H372 H 0.6737 0.18009 0.47735 0.0
H373 H 0.94552 0.3331 0.46116 0.0
H374 H 0.76389 0.1507 0.48151 0.0
H375 H 0.85417 0.36184 0.46076 0.0
H376 H 0.88101 0.26746 0.47044 0.0
H377 H 0.7403 0.24744 0.47294 0.0
C378 C 0.70754 0.18777 0.47744 0.0
C379 C 0.71297 0.15941 0.47968 0.0
C380 C 0.87516 0.28821 0.46844 0.0
C381 C 0.79002 0.23709 0.47452 0.0
C382 C 0.91212 0.32588 0.46325 0.0
C383 C 0.90546 0.35324 0.45999 0.0
C384 C 0.83103 0.27763 0.47039 0.0
C385 C 0.86102 0.34173 0.46271 0.0
C386 C 0.74572 0.2264 0.47494 0.0
C387 C 0.75794 0.17147 0.47986 0.0
N388 N 0.82568 0.30493 0.46763 0.0
N389 N 0.79465 0.20928 0.47715 0.0
H390 H 0.7024 0.78561 0.81185 0.0
H391 H 0.52941 0.82774 0.78485 0.0
H392 H 0.55496 0.70035 0.81584 0.0
H393 H 0.67693 0.91536 0.78735 0.0
H394 H 0.5377 0.7803 0.79549 0.0
H395 H 0.69335 0.83295 0.80235 0.0
C396 C 0.66806 0.77681 0.81091 0.0
C397 C 0.62941 0.73875 0.81483 0.0
C398 C 0.56825 0.80993 0.79378 0.0
C399 C 0.61878 0.79312 0.80352 0.0
C400 C 0.56357 0.83705 0.78762 0.0
C401 C 0.60253 0.87573 0.78515 0.0
C402 C 0.61226 0.82137 0.79743 0.0
C403 C 0.64585 0.88608 0.78925 0.0
C404 C 0.66293 0.80392 0.80534 0.0
C405 C 0.5858 0.7291 0.8128 0.0
N406 N 0.64952 0.85909 0.79507 0.0
N407 N 0.58169 0.75604 0.80731 0.0
H408 H 0.79133 0.47209 0.20506 0.0
H409 H 0.62213 0.28719 0.1379 0.0
H410 H 0.82168 0.39804 0.18084 0.0
H411 H 0.58291 0.34822 0.17139 0.0
H412 H 0.68741 0.31619 0.16067 0.0
H413 H 0.70936 0.41797 0.20086 0.0
C414 C 0.78069 0.44408 0.19946 0.0
C415 C 0.81319 0.43979 0.19267 0.0
C416 C 0.66385 0.32245 0.16344 0.0
C417 C 0.71973 0.3781 0.18732 0.0
C418 C 0.62655 0.30579 0.15044 0.0
C419 C 0.59782 0.31603 0.15254 0.0
C420 C 0.67307 0.35034 0.17826 0.0
C421 C 0.60457 0.33986 0.16914 0.0
C422 C 0.73384 0.41316 0.19695 0.0
C423 C 0.79758 0.40282 0.18563 0.0
N424 N 0.6423 0.35712 0.18105 0.0
N425 N 0.75198 0.37365 0.18266 0.0
H426 H 0.51028 0.89903 0.48015 0.0
H427 H 0.2418 0.74254 0.45197 0.0
H428 H 0.42855 0.9297 0.45941 0.0
H429 H 0.32904 0.71177 0.46197 0.0
H430 H 0.30802 0.81106 0.45801 0.0
H431 H 0.4429 0.83042 0.47649 0.0
C432 C 0.47821 0.89143 0.47484 0.0
C433 C 0.47531 0.92038 0.47 0.0
C434 C 0.31267 0.78932 0.45897 0.0
C435 C 0.39766 0.84154 0.46591 0.0
C436 C 0.27472 0.7501 0.4557 0.0
C437 C 0.2797 0.72117 0.45643 0.0
C438 C 0.35608 0.79992 0.46315 0.0
C439 C 0.32356 0.73299 0.46103 0.0
C440 C 0.4397 0.85216 0.47274 0.0
C441 C 0.43263 0.90853 0.46323 0.0
N442 N 0.35993 0.77133 0.4642 0.0
N443 N 0.3956 0.87013 0.46142 0.0
H444 H 0.47167 0.23974 0.83419 0.0
H445 H 0.6517 0.20814 0.79524 0.0
H446 H 0.61467 0.33385 0.82394 0.0
H447 H 0.50616 0.11509 0.80004 0.0
H448 H 0.63994 0.25416 0.80806 0.0
H449 H 0.48481 0.19351 0.824 0.0
C450 C 0.50585 0.25078 0.82975 0.0
C451 C 0.54201 0.29096 0.82982 0.0
C452 C 0.61059 0.22365 0.80639 0.0
C453 C 0.55745 0.2378 0.81832 0.0
C454 C 0.61724 0.19729 0.79898 0.0
C455 C 0.57985 0.15751 0.79639 0.0
C456 C 0.5662 0.21033 0.81132 0.0
C457 C 0.53616 0.14531 0.80193 0.0
C458 C 0.51337 0.22427 0.82403 0.0
C459 C 0.58577 0.30327 0.82432 0.0
N460 N 0.53056 0.17157 0.80901 0.0
N461 N 0.59217 0.27686 0.81873 0.0
H462 H 0.5542 0.81912 0.5059 0.0
H463 H 0.68241 0.73262 0.53145 0.0
H464 H 0.70151 0.8877 0.51147 0.0
H465 H 0.53512 0.66584 0.53322 0.0
H466 H 0.68941 0.78835 0.52147 0.0
H467 H 0.54593 0.7617 0.51394 0.0
C468 C 0.58481 0.82222 0.50887 0.0
C469 C 0.62866 0.85848 0.50792 0.0
C470 C 0.6555 0.76148 0.52397 0.0
C471 C 0.61938 0.79259 0.51691 0.0
C472 C 0.65145 0.72949 0.52951 0.0
C473 C 0.6081 0.69439 0.53321 0.0
C474 C 0.61594 0.75852 0.52203 0.0
C475 C 0.56929 0.69241 0.53077 0.0
C476 C 0.58004 0.78933 0.51335 0.0
C477 C 0.66703 0.8604 0.51165 0.0
N478 N 0.57413 0.724 0.52536 0.0
N479 N 0.66147 0.82803 0.51596 0.0
H480 H 0.66077 0.45531 0.84357 0.0
H481 H 0.93678 0.58073 0.85406 0.0
H482 H 0.75521 0.58015 0.84378 0.0
H483 H 0.84176 0.45556 0.8504 0.0
H484 H 0.8719 0.58127 0.85018 0.0
H485 H 0.7262 0.4551 0.84619 0.0
C486 C 0.69513 0.4828 0.84416 0.0
C487 C 0.70163 0.51781 0.84344 0.0
C488 C 0.86518 0.55363 0.8502 0.0
C489 C 0.77826 0.51777 0.84653 0.0
C490 C 0.9026 0.55321 0.85229 0.0
C491 C 0.89592 0.51801 0.85266 0.0
C492 C 0.81975 0.5186 0.84844 0.0
C493 C 0.84971 0.48366 0.85061 0.0
C494 C 0.73281 0.48263 0.84564 0.0
C495 C 0.74776 0.55229 0.84421 0.0
N496 N 0.81403 0.48488 0.84865 0.0
N497 N 0.7838 0.55137 0.84574 0.0
H498 H 0.24711 0.65556 0.14391 0.0
H499 H 0.36228 0.87831 0.17263 0.0
H500 H 0.17176 0.69483 0.16548 0.0
H501 H 0.44176 0.83865 0.16191 0.0
H502 H 0.29201 0.81198 0.16608 0.0
H503 H 0.31842 0.72289 0.14688 0.0
C504 C 0.24545 0.67827 0.14918 0.0
C505 C 0.20324 0.66935 0.15455 0.0
C506 C 0.3248 0.81776 0.16505 0.0
C507 C 0.28477 0.74654 0.15788 0.0
C508 C 0.36508 0.85579 0.16861 0.0
C509 C 0.40822 0.86428 0.16785 0.0
C510 C 0.32735 0.78769 0.16059 0.0
C511 C 0.40933 0.83351 0.1629 0.0
C512 C 0.28622 0.7167 0.15091 0.0
C513 C 0.20338 0.70011 0.16129 0.0
N514 N 0.36958 0.79665 0.15949 0.0
N515 N 0.24334 0.73715 0.16275 0.0
H516 H 0.4864 0.20061 0.47851 0.0
H517 H 0.66121 0.41746 0.52671 0.0
H518 H 0.6269 0.25507 0.49484 0.0
H519 H 0.51588 0.35659 0.51859 0.0
H520 H 0.65083 0.36031 0.51249 0.0
H521 H 0.49816 0.25944 0.49053 0.0
C522 C 0.51972 0.22484 0.48466 0.0
C523 C 0.5556 0.22257 0.48574 0.0
C524 C 0.62123 0.35951 0.51376 0.0
C525 C 0.56948 0.29052 0.49935 0.0
C526 C 0.62708 0.39212 0.52198 0.0
C527 C 0.58934 0.39197 0.52401 0.0
C528 C 0.57732 0.32634 0.50741 0.0
C529 C 0.54613 0.3584 0.51716 0.0
C530 C 0.52646 0.25856 0.49144 0.0
C531 C 0.59831 0.25543 0.49348 0.0
N532 N 0.54132 0.32699 0.50926 0.0
N533 N 0.60398 0.28791 0.50003 0.0
H534 H 0.50493 0.57596 0.84073 0.0
H535 H 0.23351 0.45937 0.86114 0.0
H536 H 0.4134 0.45566 0.85488 0.0
H537 H 0.32809 0.58165 0.85104 0.0
H538 H 0.29724 0.45669 0.8577 0.0
H539 H 0.44049 0.5778 0.84346 0.0
C540 C 0.47138 0.54979 0.8444 0.0
C541 C 0.4654 0.51556 0.84758 0.0
C542 C 0.30414 0.48415 0.85621 0.0
C543 C 0.38994 0.51754 0.85072 0.0
C544 C 0.26736 0.48573 0.85804 0.0
C545 C 0.27438 0.52087 0.85646 0.0
C546 C 0.34914 0.51788 0.85261 0.0
C547 C 0.32009 0.55384 0.85273 0.0
C548 C 0.4343 0.55091 0.84598 0.0
C549 C 0.42039 0.48283 0.85229 0.0
N550 N 0.3551 0.55148 0.85094 0.0
N551 N 0.38487 0.48464 0.85368 0.0
H552 H 0.9696 0.40861 0.12842 0.0
H553 H 0.76073 0.26867 0.20092 0.0
H554 H 0.93426 0.44861 0.17935 0.0
H555 H 0.7757 0.22699 0.14419 0.0
H556 H 0.82561 0.33442 0.19321 0.0
H557 H 0.90088 0.34177 0.13399 0.0
C558 C 0.94738 0.40344 0.14069 0.0
C559 C 0.95777 0.43445 0.15336 0.0
C560 C 0.81469 0.31097 0.18237 0.0
C561 C 0.87934 0.35801 0.15992 0.0
C562 C 0.77711 0.27316 0.18669 0.0
C563 C 0.7619 0.24169 0.17316 0.0
C564 C 0.8382 0.31788 0.16447 0.0
C565 C 0.78615 0.24995 0.15526 0.0
C566 C 0.90813 0.36528 0.14384 0.0
C567 C 0.92766 0.42588 0.16905 0.0
N568 N 0.82309 0.28712 0.15148 0.0
N569 N 0.89017 0.38864 0.1719 0.0
H570 H 1.04784 0.50418 0.09709 0.0
H571 H 0.12497 0.61077 0.9942 0.0
H572 H 0.09025 0.61934 0.09259 0.0
H573 H 1.04807 0.48737 -0.00214 0.0
H574 H 0.12055 0.61681 0.0305 0.0
H575 H 1.05555 0.49983 0.06106 0.0
C576 C 1.0588 0.52859 0.08849 0.0
C577 C 0.06818 0.5621 0.09781 0.0
C578 C 0.10468 0.58843 0.02334 0.0
C579 C 0.0774 0.55744 0.0565 0.0
C580 C 0.10744 0.58499 0.00264 0.0
C581 C 0.08675 0.54847 0.99294 0.0
C582 C 0.08156 0.55519 0.03448 0.0
C583 C 0.06408 0.51602 0.00465 0.0
C584 C 0.06314 0.52607 0.06791 0.0
C585 C 0.08246 0.59291 0.08595 0.0
N586 N 0.06223 0.52016 0.02475 0.0
N587 N 0.08674 0.58989 0.0659 0.0
H588 H 0.54526 0.02581 0.42258 0.0
H589 H 0.66256 0.05463 0.31711 0.0
H590 H 0.68513 0.0689 0.41569 0.0
H591 H 0.5452 0.05178 0.32416 0.0
H592 H 0.66705 0.05363 0.35322 0.0
H593 H 0.54035 0.02958 0.38648 0.0
C594 C 0.57491 0.03618 0.41348 0.0
C595 C 0.61561 0.04697 0.42206 0.0
C596 C 0.64037 0.05335 0.34691 0.0
C597 C 0.61012 0.05089 0.38098 0.0
C598 C 0.63765 0.05369 0.32629 0.0
C599 C 0.60343 0.05323 0.31765 0.0
C600 C 0.60826 0.052 0.35903 0.0
C601 C 0.5723 0.05242 0.33027 0.0
C602 C 0.57213 0.03837 0.39294 0.0
C603 C 0.65305 0.0602 0.40967 0.0
N604 N 0.57523 0.05155 0.35034 0.0
N605 N 0.64929 0.06151 0.38977 0.0
H606 H 0.64759 0.55224 0.78909 0.0
H607 H 0.52318 0.51296 0.68424 0.0
H608 H 0.50099 0.48116 0.77988 0.0
H609 H 0.66926 0.57493 0.68988 0.0
H610 H 0.51649 0.50714 0.72009 0.0
H611 H 0.65837 0.56701 0.75366 0.0
C612 C 0.61781 0.54013 0.77966 0.0
C613 C 0.57333 0.51523 0.7873 0.0
C614 C 0.55012 0.52216 0.71356 0.0
C615 C 0.58523 0.53177 0.74703 0.0
C616 C 0.55402 0.52574 0.69303 0.0
C617 C 0.59688 0.54454 0.68395 0.0
C618 C 0.58932 0.53737 0.72528 0.0
C619 C 0.63544 0.55981 0.6962 0.0
C620 C 0.62391 0.54839 0.75947 0.0
C621 C 0.53586 0.50023 0.77453 0.0
N622 N 0.63075 0.55584 0.71624 0.0
N623 N 0.54264 0.5086 0.75507 0.0
H624 H 0.64715 0.06555 0.53295 0.0
H625 H 0.50848 0.98172 0.63449 0.0
H626 H 0.50012 0.9971 0.53765 0.0
H627 H 0.65614 0.05218 0.63171 0.0
H628 H 0.50522 0.98472 0.59858 0.0
H629 H 0.65176 0.0585 0.5686 0.0
C630 C 0.61588 0.04885 0.54146 0.0
C631 C 0.57321 0.03196 0.53241 0.0
C632 C 0.5384 0.99949 0.60576 0.0
C633 C 0.57813 0.02393 0.57305 0.0
C634 C 0.54029 0.99794 0.62633 0.0
C635 C 0.58268 0.017 0.63622 0.0
C636 C 0.57921 0.02034 0.59485 0.0
C637 C 0.62267 0.03686 0.62473 0.0
C638 C 0.6185 0.0449 0.56179 0.0
C639 C 0.53375 0.01075 0.54408 0.0
N640 N 0.61999 0.03821 0.60468 0.0
N641 N 0.53718 0.00745 0.56375 0.0
H642 H 0.51593 0.47141 0.89271 0.0
H643 H 0.61191 0.41694 0.97674 0.0
H644 H 0.66095 0.53437 0.90297 0.0
H645 H 0.47666 0.3861 0.97761 0.0
H646 H 0.62908 0.45339 0.94711 0.0
H647 H 0.49947 0.43293 0.92127 0.0
C648 C 0.54431 0.47716 0.90106 0.0
C649 C 0.58983 0.50613 0.89562 0.0
C650 C 0.5956 0.43838 0.95379 0.0
C651 C 0.57132 0.46205 0.92816 0.0
C652 C 0.58572 0.4176 0.97074 0.0
C653 C 0.54266 0.39821 0.97983 0.0
C654 C 0.56206 0.43947 0.94572 0.0
C655 C 0.50998 0.39973 0.97104 0.0
C656 C 0.53492 0.45522 0.91734 0.0
C657 C 0.62537 0.51242 0.90685 0.0
N658 N 0.52037 0.41995 0.95454 0.0
N659 N 0.61538 0.49039 0.9226 0.0
H660 H 0.11782 0.59653 0.20789 0.0
H661 H 1.02912 0.47055 0.30414 0.0
H662 H 0.06353 0.47699 0.20576 0.0
H663 H 0.13303 0.59507 0.30767 0.0
H664 H 1.02958 0.47164 0.26772 0.0
H665 H 0.11212 0.59576 0.24439 0.0
C666 C 0.1045 0.57013 0.21512 0.0
C667 C 0.09143 0.53685 0.20392 0.0
C668 C 1.05217 0.49872 0.27649 0.0
C669 C 0.08432 0.53561 0.24537 0.0
C670 C 1.05174 0.49813 0.29723 0.0
C671 C 0.08123 0.53275 0.30888 0.0
C672 C 0.08177 0.53425 0.26735 0.0
C673 C 0.11011 0.5677 0.29919 0.0
C674 C 0.1014 0.56973 0.23589 0.0
C675 C 0.07432 0.50334 0.21393 0.0
N676 N 0.10957 0.5676 0.27897 0.0
N677 N 0.07112 0.50351 0.23408 0.0
loop_
_geom_bond_atom_site_label_1
_geom_bond_atom_site_label_2
_geom_bond_distance
_geom_bond_site_symmetry_2
_ccdc_geom_bond_type
La0 C2 2.928 . S
La0 O20 2.521 . S
La0 O21 2.628 . S
La0 O22 2.554 . S
La0 O23 2.757 . S
La0 O24 2.470 . S
La0 O29 2.482 . S
La0 O31 2.503 1_455 S
La1 C11 2.928 . S
La1 O23 2.482 1_655 S
La1 O25 2.503 1_655 S
La1 O26 2.521 . S
La1 O27 2.628 . S
La1 O28 2.554 . S
La1 O29 2.757 1_655 S
La1 O30 2.470 . S
C2 La0 2.928 . S
C2 C3 1.503 . S
C2 O20 1.261 . S
C2 O21 1.243 . S
C3 C2 1.503 . S
C3 C4 1.394 . S
C3 C8 1.373 . S
C4 C3 1.394 . S
C4 C5 1.380 . S
C4 H32 0.930 . S
C5 C4 1.380 . S
C5 C6 1.376 . S
C5 H33 0.930 . S
C6 C5 1.376 . S
C6 C7 1.370 . S
C7 C6 1.370 . S
C7 C8 1.396 . S
C7 H34 0.929 . S
C8 C3 1.373 . S
C8 C7 1.396 . S
C8 H35 0.929 . S
C9 O22 1.240 . S
C9 O23 1.289 . S
C10 O24 1.258 . S
C10 O25 1.256 . S
C11 La1 2.928 . S
C11 C12 1.503 . S
C11 O26 1.261 . S
C11 O27 1.243 . S
C12 C11 1.503 . S
C12 C13 1.394 . S
C12 C17 1.373 . S
C13 C12 1.394 . S
C13 C14 1.380 . S
C13 H36 0.930 . S
C14 C13 1.380 . S
C14 C15 1.376 . S
C14 H37 0.930 . S
C15 C14 1.376 . S
C15 C16 1.370 . S
C16 C15 1.370 . S
C16 C17 1.396 . S
C16 H38 0.929 . S
C17 C12 1.373 . S
C17 C16 1.396 . S
C17 H39 0.929 . S
C18 O28 1.239 1_455 S
C18 O29 1.289 . S
C19 O30 1.258 . S
C19 O31 1.256 . S
O20 La0 2.521 . S
O20 C2 1.261 . S
O21 La0 2.628 . S
O21 C2 1.243 . S
O22 La0 2.554 . S
O22 C9 1.240 . S
O23 La0 2.757 . S
O23 La1 2.482 1_455 S
O23 C9 1.289 . S
O24 La0 2.470 . S
O24 C10 1.258 . S
O25 La1 2.503 1_455 S
O25 C10 1.256 . S
O26 La1 2.521 . S
O26 C11 1.261 . S
O27 La1 2.628 . S
O27 C11 1.243 . S
O28 La1 2.554 . S
O28 C18 1.239 1_655 S
O29 La0 2.482 . S
O29 La1 2.757 1_455 S
O29 C18 1.289 . S
O30 La1 2.470 . S
O30 C19 1.258 . S
O31 La0 2.503 1_655 S
O31 C19 1.256 . S
H32 C4 0.930 . S
H33 C5 0.930 . S
H34 C7 0.929 . S
H35 C8 0.929 . S
H36 C13 0.930 . S
H37 C14 0.930 . S
H38 C16 0.929 . S
H39 C17 0.929 . S
La40 C42 2.928 . S
La40 O60 2.521 . S
La40 O61 2.628 . S
La40 O62 2.554 . S
La40 O63 2.757 1_565 S
La40 O64 2.470 . S
La40 O69 2.497 . S
La40 O71 2.503 1_565 S
La41 C51 2.928 . S
La41 O63 2.482 . S
La41 O65 2.503 1_545 S
La41 O66 2.521 . S
La41 O67 2.628 . S
La41 O68 2.554 . S
La41 O69 2.733 1_545 S
La41 O70 2.470 . S
C42 La40 2.928 . S
C42 C43 1.503 . S
C42 O60 1.261 . S
C42 O61 1.243 . S
C43 C42 1.503 . S
C43 C44 1.394 . S
C43 C48 1.373 . S
C44 C43 1.394 . S
C44 C45 1.380 . S
C44 H72 0.930 . S
C45 C44 1.380 . S
C45 C46 1.376 . S
C45 H73 0.930 . S
C46 C45 1.376 . S
C46 C47 1.370 . S
C47 C46 1.370 . S
C47 C48 1.396 . S
C47 H74 0.929 . S
C48 C43 1.373 . S
C48 C47 1.396 . S
C48 H75 0.929 . S
C49 O62 1.240 1_545 S
C49 O63 1.289 . S
C50 O64 1.258 . S
C50 O65 1.256 . S
C51 La41 2.928 . S
C51 C52 1.503 . S
C51 O66 1.261 . S
C51 O67 1.243 . S
C52 C51 1.503 . S
C52 C53 1.394 . S
C52 C57 1.373 . S
C53 C52 1.394 . S
C53 C54 1.380 . S
C53 H76 0.930 . S
C54 C53 1.380 . S
C54 C55 1.376 . S
C54 H77 0.930 . S
C55 C54 1.376 . S
C55 C56 1.370 . S
C56 C55 1.370 . S
C56 C57 1.396 . S
C56 H78 0.929 . S
C57 C52 1.373 . S
C57 C56 1.396 . S
C57 H79 0.929 . S
C58 O68 1.240 . S
C58 O69 1.276 1_545 S
C59 O70 1.258 . S
C59 O71 1.256 . S
O60 La40 2.521 . S
O60 C42 1.261 . S
O61 La40 2.628 . S
O61 C42 1.243 . S
O62 La40 2.554 . S
O62 C49 1.240 1_565 S
O63 La40 2.757 1_545 S
O63 La41 2.482 . S
O63 C49 1.289 . S
O64 La40 2.470 . S
O64 C50 1.258 . S
O65 La41 2.503 1_565 S
O65 C50 1.256 . S
O66 La41 2.521 . S
O66 C51 1.261 . S
O67 La41 2.628 . S
O67 C51 1.243 . S
O68 La41 2.554 . S
O68 C58 1.240 . S
O69 La40 2.497 . S
O69 La41 2.733 1_565 S
O69 C58 1.276 1_565 S
O70 La41 2.470 . S
O70 C59 1.258 . S
O71 La40 2.503 1_545 S
O71 C59 1.256 . S
H72 C44 0.930 . S
H73 C45 0.930 . S
H74 C47 0.929 . S
H75 C48 0.929 . S
H76 C53 0.930 . S
H77 C54 0.930 . S
H78 C56 0.929 . S
H79 C57 0.929 . S
La80 C82 2.928 . S
La80 O100 2.521 . S
La80 O101 2.628 . S
La80 O102 2.554 . S
La80 O103 2.757 . S
La80 O104 2.470 . S
La80 O109 2.482 . S
La80 O111 2.503 . S
La81 C91 2.928 . S
La81 O103 2.482 . S
La81 O105 2.503 . S
La81 O106 2.521 . S
La81 O107 2.628 . S
La81 O108 2.554 . S
La81 O109 2.757 . S
La81 O110 2.470 . S
C82 La80 2.928 . S
C82 C83 1.503 . S
C82 O100 1.261 . S
C82 O101 1.243 . S
C83 C82 1.503 . S
C83 C84 1.394 . S
C83 C88 1.373 . S
C84 C83 1.394 . S
C84 C85 1.380 . S
C84 H112 0.930 . S
C85 C84 1.380 . S
C85 C86 1.376 . S
C85 H113 0.930 . S
C86 C85 1.376 . S
C86 C87 1.370 . S
C87 C86 1.370 . S
C87 C88 1.396 . S
C87 H114 0.929 . S
C88 C83 1.373 . S
C88 C87 1.396 . S
C88 H115 0.929 . S
C89 O102 1.240 . S
C89 O103 1.289 . S
C90 O104 1.258 . S
C90 O105 1.256 . S
C91 La81 2.928 . S
C91 C92 1.503 . S
C91 O106 1.261 . S
C91 O107 1.243 . S
C92 C91 1.503 . S
C92 C93 1.394 . S
C92 C97 1.373 . S
C93 C92 1.394 . S
C93 C94 1.380 . S
C93 H116 0.930 . S
C94 C93 1.380 . S
C94 C95 1.376 . S
C94 H117 0.930 . S
C95 C94 1.376 . S
C95 C96 1.370 . S
C96 C95 1.370 . S
C96 C97 1.396 . S
C96 H118 0.929 . S
C97 C92 1.373 . S
C97 C96 1.396 . S
C97 H119 0.929 . S
C98 O108 1.240 . S
C98 O109 1.289 . S
C99 O110 1.258 . S
C99 O111 1.256 . S
O100 La80 2.521 . S
O100 C82 1.261 . S
O101 La80 2.628 . S
O101 C82 1.243 . S
O102 La80 2.554 . S
O102 C89 1.240 . S
O103 La80 2.757 . S
O103 La81 2.482 . S
O103 C89 1.289 . S
O104 La80 2.470 . S
O104 C90 1.258 . S
O105 La81 2.503 . S
O105 C90 1.256 . S
O106 La81 2.521 . S
O106 C91 1.261 . S
O107 La81 2.628 . S
O107 C91 1.243 . S
O108 La81 2.554 . S
O108 C98 1.240 . S
O109 La80 2.482 . S
O109 La81 2.757 . S
O109 C98 1.289 . S
O110 La81 2.470 . S
O110 C99 1.258 . S
O111 La80 2.503 . S
O111 C99 1.256 . S
H112 C84 0.930 . S
H113 C85 0.930 . S
H114 C87 0.929 . S
H115 C88 0.929 . S
H116 C93 0.930 . S
H117 C94 0.930 . S
H118 C96 0.929 . S
H119 C97 0.929 . S
C120 C121 1.386 . S
C120 C122 1.397 . S
C120 H144 0.931 . S
C121 C120 1.386 . S
C121 C125 1.397 1_545 S
C122 C120 1.397 . S
C122 C123 1.384 . S
C122 H145 0.930 . S
C123 C122 1.384 . S
C123 C124 1.377 1_545 S
C123 C126 1.481 . S
C124 C123 1.377 1_565 S
C124 C125 1.389 . S
C124 H146 0.929 . S
C125 C121 1.397 1_565 S
C125 C124 1.389 . S
C125 H147 0.931 . S
C126 C123 1.481 . S
C126 C127 1.387 . S
C126 C131 1.390 1_545 S
C127 C126 1.387 . S
C127 C128 1.401 . S
C127 H148 0.930 . S
C128 C127 1.401 . S
C128 C129 1.376 . S
C128 C137 1.511 . S
C129 C128 1.376 . S
C129 C130 1.392 1_545 S
C129 H150 0.931 . S
C130 C129 1.392 1_565 S
C130 C131 1.361 . S
C130 C132 1.500 . S
C131 C126 1.390 1_565 S
C131 C130 1.361 . S
C131 H149 0.931 . S
C132 C130 1.500 . S
C132 C133 1.371 . S
C132 C134 1.365 . S
C133 C132 1.371 . S
C133 C143 1.386 . S
C133 H151 0.931 . S
C134 C132 1.365 . S
C134 C135 1.409 . S
C134 H152 0.929 . S
C135 C134 1.409 . S
C135 C136 1.380 . S
C135 H153 0.930 . S
C136 C135 1.380 . S
C136 C143 1.357 . S
C137 C128 1.511 . S
C137 C138 1.341 . S
C137 C139 1.371 . S
C138 C137 1.341 . S
C138 C142 1.394 . S
C138 H154 0.930 . S
C139 C137 1.371 . S
C139 C140 1.392 . S
C139 H155 0.931 . S
C140 C139 1.392 . S
C140 C141 1.331 . S
C140 H158 0.932 . S
C141 C140 1.331 . S
C141 C142 1.336 . S
C142 C138 1.394 . S
C142 C141 1.336 . S
C142 H157 0.929 . S
C143 C133 1.386 . S
C143 C136 1.357 . S
C143 H156 0.928 . S
H144 C120 0.931 . S
H145 C122 0.930 . S
H146 C124 0.929 . S
H147 C125 0.931 . S
H148 C127 0.930 . S
H149 C131 0.931 . S
H150 C129 0.931 . S
H151 C133 0.931 . S
H152 C134 0.929 . S
H153 C135 0.930 . S
H154 C138 0.930 . S
H155 C139 0.931 . S
H156 C143 0.928 . S
H157 C142 0.929 . S
H158 C140 0.932 . S
C159 C160 1.386 . S
C159 C161 1.397 . S
C159 H183 0.931 . S
C160 C159 1.386 . S
C160 C164 1.397 . S
C161 C159 1.397 . S
C161 C162 1.384 . S
C161 H184 0.930 . S
C162 C161 1.384 . S
C162 C163 1.377 . S
C162 C165 1.481 . S
C163 C162 1.377 . S
C163 C164 1.389 . S
C163 H185 0.929 . S
C164 C160 1.397 . S
C164 C163 1.389 . S
C164 H186 0.931 . S
C165 C162 1.481 . S
C165 C166 1.387 . S
C165 C170 1.390 . S
C166 C165 1.387 . S
C166 C167 1.401 . S
C166 H187 0.930 . S
C167 C166 1.401 . S
C167 C168 1.376 . S
C167 C176 1.511 . S
C168 C167 1.376 . S
C168 C169 1.392 . S
C168 H189 0.931 . S
C169 C168 1.392 . S
C169 C170 1.361 . S
C169 C171 1.500 . S
C170 C165 1.390 . S
C170 C169 1.361 . S
C170 H188 0.931 . S
C171 C169 1.500 . S
C171 C172 1.371 . S
C171 C173 1.365 . S
C172 C171 1.371 . S
C172 C182 1.386 . S
C172 H190 0.931 . S
C173 C171 1.365 . S
C173 C174 1.409 . S
C173 H191 0.929 . S
C174 C173 1.409 . S
C174 C175 1.380 . S
C174 H192 0.930 . S
C175 C174 1.380 . S
C175 C182 1.357 . S
C176 C167 1.511 . S
C176 C177 1.341 . S
C176 C178 1.371 . S
C177 C176 1.341 . S
C177 C181 1.394 . S
C177 H193 0.930 . S
C178 C176 1.371 . S
C178 C179 1.392 . S
C178 H194 0.931 . S
C179 C178 1.392 . S
C179 C180 1.331 . S
C179 H197 0.932 . S
C180 C179 1.331 . S
C180 C181 1.336 . S
C181 C177 1.394 . S
C181 C180 1.336 . S
C181 H196 0.929 . S
C182 C172 1.386 . S
C182 C175 1.357 . S
C182 H195 0.928 . S
H183 C159 0.931 . S
H184 C161 0.930 . S
H185 C163 0.929 . S
H186 C164 0.931 . S
H187 C166 0.930 . S
H188 C170 0.931 . S
H189 C168 0.931 . S
H190 C172 0.931 . S
H191 C173 0.929 . S
H192 C174 0.930 . S
H193 C177 0.930 . S
H194 C178 0.931 . S
H195 C182 0.928 . S
H196 C181 0.929 . S
H197 C179 0.932 . S
C198 C199 1.386 . S
C198 C200 1.397 . S
C198 H222 0.931 . S
C199 C198 1.386 . S
C199 C203 1.397 . S
C200 C198 1.397 . S
C200 C201 1.384 . S
C200 H223 0.930 . S
C201 C200 1.384 . S
C201 C202 1.377 . S
C201 C204 1.481 . S
C202 C201 1.377 . S
C202 C203 1.389 . S
C202 H224 0.929 1_455 S
C203 C199 1.397 . S
C203 C202 1.389 . S
C203 H225 0.931 1_455 S
C204 C201 1.481 . S
C204 C205 1.387 . S
C204 C209 1.390 . S
C205 C204 1.387 . S
C205 C206 1.401 . S
C205 H226 0.930 . S
C206 C205 1.401 . S
C206 C207 1.376 . S
C206 C215 1.511 . S
C207 C206 1.376 . S
C207 C208 1.392 . S
C207 H228 0.931 . S
C208 C207 1.392 . S
C208 C209 1.361 . S
C208 C210 1.500 1_455 S
C209 C204 1.390 . S
C209 C208 1.361 . S
C209 H227 0.931 1_455 S
C210 C208 1.500 1_655 S
C210 C211 1.371 . S
C210 C212 1.365 . S
C211 C210 1.371 . S
C211 C221 1.386 . S
C211 H229 0.931 1_655 S
C212 C210 1.365 . S
C212 C213 1.409 . S
C212 H230 0.929 . S
C213 C212 1.409 . S
C213 C214 1.380 . S
C213 H231 0.930 . S
C214 C213 1.380 . S
C214 C221 1.357 . S
C215 C206 1.511 . S
C215 C216 1.341 . S
C215 C217 1.371 . S
C216 C215 1.341 . S
C216 C220 1.394 . S
C216 H232 0.930 . S
C217 C215 1.371 . S
C217 C218 1.392 . S
C217 H233 0.931 . S
C218 C217 1.392 . S
C218 C219 1.331 . S
C218 H236 0.932 . S
C219 C218 1.331 . S
C219 C220 1.336 . S
C220 C216 1.394 . S
C220 C219 1.336 . S
C220 H235 0.929 . S
C221 C211 1.386 . S
C221 C214 1.357 . S
C221 H234 0.928 . S
H222 C198 0.931 . S
H223 C200 0.930 . S
H224 C202 0.929 1_655 S
H225 C203 0.931 1_655 S
H226 C205 0.930 . S
H227 C209 0.931 1_655 S
H228 C207 0.931 . S
H229 C211 0.931 1_455 S
H230 C212 0.929 . S
H231 C213 0.930 . S
H232 C216 0.930 . S
H233 C217 0.931 . S
H234 C221 0.928 . S
H235 C220 0.929 . S
H236 C218 0.932 . S
C237 C238 1.398 . S
C237 C239 1.397 . S
C237 H261 0.931 . S
C238 C237 1.398 . S
C238 C242 1.386 1_655 S
C239 C237 1.397 . S
C239 C240 1.384 . S
C239 H262 0.930 . S
C240 C239 1.384 . S
C240 C241 1.377 1_655 S
C240 C243 1.481 . S
C241 C240 1.377 1_455 S
C241 C242 1.389 . S
C241 H263 0.929 . S
C242 C238 1.386 1_455 S
C242 C241 1.389 . S
C242 H264 0.931 . S
C243 C240 1.481 . S
C243 C244 1.387 . S
C243 C248 1.390 1_655 S
C244 C243 1.387 . S
C244 C245 1.401 . S
C244 H265 0.930 . S
C245 C244 1.401 . S
C245 C246 1.376 . S
C245 C254 1.511 . S
C246 C245 1.376 . S
C246 C247 1.392 1_655 S
C246 H267 0.931 . S
C247 C246 1.392 1_455 S
C247 C248 1.361 . S
C247 C249 1.500 . S
C248 C243 1.390 1_455 S
C248 C247 1.361 . S
C248 H266 0.931 . S
C249 C247 1.500 . S
C249 C250 1.371 . S
C249 C251 1.365 . S
C250 C249 1.371 . S
C250 C260 1.386 . S
C250 H268 0.931 . S
C251 C249 1.365 . S
C251 C252 1.409 . S
C251 H269 0.929 . S
C252 C251 1.409 . S
C252 C253 1.380 . S
C252 H270 0.930 . S
C253 C252 1.380 . S
C253 C260 1.357 . S
C254 C245 1.511 . S
C254 C255 1.341 . S
C254 C256 1.371 . S
C255 C254 1.341 . S
C255 C259 1.394 . S
C255 H271 0.930 . S
C256 C254 1.371 . S
C256 C257 1.392 . S
C256 H272 0.931 . S
C257 C256 1.392 . S
C257 C258 1.331 . S
C257 H275 0.932 . S
C258 C257 1.331 . S
C258 C259 1.336 . S
C259 C255 1.394 . S
C259 C258 1.336 . S
C259 H274 0.929 . S
C260 C250 1.386 . S
C260 C253 1.357 . S
C260 H273 0.928 . S
H261 C237 0.931 . S
H262 C239 0.930 . S
H263 C241 0.929 . S
H264 C242 0.931 . S
H265 C244 0.930 . S
H266 C248 0.931 . S
H267 C246 0.931 . S
H268 C250 0.931 . S
H269 C251 0.929 . S
H270 C252 0.930 . S
H271 C255 0.930 . S
H272 C256 0.931 . S
H273 C260 0.928 . S
H274 C259 0.929 . S
H275 C257 0.932 . S
C276 C277 1.386 . S
C276 C278 1.397 . S
C276 H300 0.931 . S
C277 C276 1.386 . S
C277 C281 1.397 1_565 S
C278 C276 1.397 . S
C278 C279 1.402 . S
C278 H301 0.930 . S
C279 C278 1.402 . S
C279 C280 1.358 1_565 S
C279 C282 1.483 1_565 S
C280 C279 1.358 1_545 S
C280 C281 1.389 . S
C280 H302 0.929 . S
C281 C277 1.397 1_545 S
C281 C280 1.389 . S
C281 H303 0.931 . S
C282 C279 1.483 1_545 S
C282 C283 1.369 1_545 S
C282 C287 1.409 . S
C283 C282 1.369 1_565 S
C283 C284 1.401 . S
C283 H304 0.930 . S
C284 C283 1.401 . S
C284 C285 1.376 1_565 S
C284 C293 1.511 . S
C285 C284 1.376 1_545 S
C285 C286 1.392 . S
C285 H306 0.931 . S
C286 C285 1.392 . S
C286 C287 1.361 . S
C286 C288 1.500 . S
C287 C282 1.409 . S
C287 C286 1.361 . S
C287 H305 0.931 . S
C288 C286 1.500 . S
C288 C289 1.371 . S
C288 C290 1.365 . S
C289 C288 1.371 . S
C289 C299 1.386 . S
C289 H307 0.931 . S
C290 C288 1.365 . S
C290 C291 1.409 . S
C290 H308 0.929 . S
C291 C290 1.409 . S
C291 C292 1.380 . S
C291 H309 0.930 . S
C292 C291 1.380 . S
C292 C299 1.357 . S
C293 C284 1.511 . S
C293 C294 1.341 . S
C293 C295 1.371 . S
C294 C293 1.341 . S
C294 C298 1.394 . S
C294 H310 0.930 . S
C295 C293 1.371 . S
C295 C296 1.392 . S
C295 H311 0.931 . S
C296 C295 1.392 . S
C296 C297 1.331 . S
C296 H314 0.932 . S
C297 C296 1.331 . S
C297 C298 1.336 . S
C298 C294 1.394 . S
C298 C297 1.336 . S
C298 H313 0.929 . S
C299 C289 1.386 . S
C299 C292 1.357 . S
C299 H312 0.928 . S
H300 C276 0.931 . S
H301 C278 0.930 . S
H302 C280 0.929 . S
H303 C281 0.931 . S
H304 C283 0.930 . S
H305 C287 0.931 . S
H306 C285 0.931 . S
H307 C289 0.931 . S
H308 C290 0.929 . S
H309 C291 0.930 . S
H310 C294 0.930 . S
H311 C295 0.931 . S
H312 C299 0.928 . S
H313 C298 0.929 . S
H314 C296 0.932 . S
C315 C316 1.386 . S
C315 C317 1.397 . S
C315 H339 0.931 . S
C316 C315 1.386 . S
C316 C320 1.397 . S
C317 C315 1.397 . S
C317 C318 1.384 . S
C317 H340 0.930 . S
C318 C317 1.384 . S
C318 C319 1.377 . S
C318 C321 1.481 . S
C319 C318 1.377 . S
C319 C320 1.389 . S
C319 H341 0.929 . S
C320 C316 1.397 . S
C320 C319 1.389 . S
C320 H342 0.931 . S
C321 C318 1.481 . S
C321 C322 1.387 . S
C321 C326 1.390 . S
C322 C321 1.387 . S
C322 C323 1.401 . S
C322 H343 0.930 . S
C323 C322 1.401 . S
C323 C324 1.376 . S
C323 C332 1.511 . S
C324 C323 1.376 . S
C324 C325 1.392 . S
C324 H345 0.931 . S
C325 C324 1.392 . S
C325 C326 1.361 . S
C325 C327 1.500 . S
C326 C321 1.390 . S
C326 C325 1.361 . S
C326 H344 0.931 . S
C327 C325 1.500 . S
C327 C328 1.371 . S
C327 C329 1.365 . S
C328 C327 1.371 . S
C328 C338 1.386 . S
C328 H346 0.931 . S
C329 C327 1.365 . S
C329 C330 1.409 . S
C329 H347 0.929 . S
C330 C329 1.409 . S
C330 C331 1.380 . S
C330 H348 0.930 . S
C331 C330 1.380 . S
C331 C338 1.357 . S
C332 C323 1.511 . S
C332 C333 1.341 . S
C332 C334 1.371 . S
C333 C332 1.341 . S
C333 C337 1.394 . S
C333 H349 0.930 . S
C334 C332 1.371 . S
C334 C335 1.392 . S
C334 H350 0.931 . S
C335 C334 1.392 . S
C335 C336 1.331 . S
C335 H353 0.932 . S
C336 C335 1.331 . S
C336 C337 1.336 . S
C337 C333 1.394 . S
C337 C336 1.336 . S
C337 H352 0.929 . S
C338 C328 1.386 . S
C338 C331 1.357 . S
C338 H351 0.928 . S
H339 C315 0.931 . S
H340 C317 0.930 . S
H341 C319 0.929 . S
H342 C320 0.931 . S
H343 C322 0.930 . S
H344 C326 0.931 . S
H345 C324 0.931 . S
H346 C328 0.931 . S
H347 C329 0.929 . S
H348 C330 0.930 . S
H349 C333 0.930 . S
H350 C334 0.931 . S
H351 C338 0.928 . S
H352 C337 0.929 . S
H353 C335 0.932 . S
H354 C360 0.930 . S
H355 C364 0.930 . S
H356 C369 0.929 . S
H357 C367 0.929 . S
H358 C362 0.929 . S
H359 C368 0.929 . S
C360 H354 0.930 . S
C360 C361 1.367 . S
C360 C368 1.378 . S
C361 C360 1.367 . S
C361 C369 1.433 . S
C362 H358 0.929 . S
C362 C364 1.378 . S
C362 C366 1.350 . S
C363 C366 1.463 . S
C363 C368 1.350 . S
C363 N371 1.427 . S
C364 H355 0.930 . S
C364 C362 1.378 . S
C364 C365 1.367 . S
C365 C364 1.367 . S
C365 C367 1.433 . S
C366 C362 1.350 . S
C366 C363 1.463 . S
C366 N370 1.427 . S
C367 H357 0.929 . S
C367 C365 1.433 . S
C367 N370 1.384 . S
C368 H359 0.929 . S
C368 C360 1.378 . S
C368 C363 1.350 . S
C369 H356 0.929 . S
C369 C361 1.433 . S
C369 N371 1.384 . S
N370 C366 1.427 . S
N370 C367 1.384 . S
N371 C363 1.427 . S
N371 C369 1.384 . S
H372 C378 0.930 . S
H373 C382 0.930 . S
H374 C387 0.929 . S
H375 C385 0.929 . S
H376 C380 0.929 . S
H377 C386 0.929 . S
C378 H372 0.930 . S
C378 C379 1.367 . S
C378 C386 1.378 . S
C379 C378 1.367 . S
C379 C387 1.433 . S
C380 H376 0.929 . S
C380 C382 1.378 . S
C380 C384 1.350 . S
C381 C384 1.463 . S
C381 C386 1.350 . S
C381 N389 1.427 . S
C382 H373 0.930 . S
C382 C380 1.378 . S
C382 C383 1.367 . S
C383 C382 1.367 . S
C383 C385 1.433 . S
C384 C380 1.350 . S
C384 C381 1.463 . S
C384 N388 1.427 . S
C385 H375 0.929 . S
C385 C383 1.433 . S
C385 N388 1.384 . S
C386 H377 0.929 . S
C386 C378 1.378 . S
C386 C381 1.350 . S
C387 H374 0.929 . S
C387 C379 1.433 . S
C387 N389 1.384 . S
N388 C384 1.427 . S
N388 C385 1.384 . S
N389 C381 1.427 . S
N389 C387 1.384 . S
H390 C396 0.930 . S
H391 C400 0.930 . S
H392 C405 0.929 . S
H393 C403 0.929 . S
H394 C398 0.929 . S
H395 C404 0.929 . S
C396 H390 0.930 . S
C396 C397 1.367 . S
C396 C404 1.378 . S
C397 C396 1.367 . S
C397 C405 1.433 . S
C398 H394 0.929 . S
C398 C400 1.378 . S
C398 C402 1.350 . S
C399 C402 1.463 . S
C399 C404 1.350 . S
C399 N407 1.427 . S
C400 H391 0.930 . S
C400 C398 1.378 . S
C400 C401 1.367 . S
C401 C400 1.367 . S
C401 C403 1.433 . S
C402 C398 1.350 . S
C402 C399 1.463 . S
C402 N406 1.427 . S
C403 H393 0.929 . S
C403 C401 1.433 . S
C403 N406 1.384 . S
C404 H395 0.929 . S
C404 C396 1.378 . S
C404 C399 1.350 . S
C405 H392 0.929 . S
C405 C397 1.433 . S
C405 N407 1.384 . S
N406 C402 1.427 . S
N406 C403 1.384 . S
N407 C399 1.427 . S
N407 C405 1.384 . S
H408 C414 0.930 . S
H409 C418 0.930 . S
H410 C423 0.929 . S
H411 C421 0.929 . S
H412 C416 0.929 . S
H413 C422 0.929 . S
C414 H408 0.930 . S
C414 C415 1.367 . S
C414 C422 1.378 . S
C415 C414 1.367 . S
C415 C423 1.433 . S
C416 H412 0.929 . S
C416 C418 1.378 . S
C416 C420 1.350 . S
C417 C420 1.463 . S
C417 C422 1.350 . S
C417 N425 1.427 . S
C418 H409 0.930 . S
C418 C416 1.378 . S
C418 C419 1.367 . S
C419 C418 1.367 . S
C419 C421 1.433 . S
C420 C416 1.350 . S
C420 C417 1.463 . S
C420 N424 1.427 . S
C421 H411 0.929 . S
C421 C419 1.433 . S
C421 N424 1.384 . S
C422 H413 0.929 . S
C422 C414 1.378 . S
C422 C417 1.350 . S
C423 H410 0.929 . S
C423 C415 1.433 . S
C423 N425 1.384 . S
N424 C420 1.427 . S
N424 C421 1.384 . S
N425 C417 1.427 . S
N425 C423 1.384 . S
H426 C432 0.930 . S
H427 C436 0.930 . S
H428 C441 0.929 . S
H429 C439 0.929 . S
H430 C434 0.929 . S
H431 C440 0.929 . S
C432 H426 0.930 . S
C432 C433 1.367 . S
C432 C440 1.378 . S
C433 C432 1.367 . S
C433 C441 1.433 . S
C434 H430 0.929 . S
C434 C436 1.378 . S
C434 C438 1.350 . S
C435 C438 1.463 . S
C435 C440 1.350 . S
C435 N443 1.427 . S
C436 H427 0.930 . S
C436 C434 1.378 . S
C436 C437 1.367 . S
C437 C436 1.367 . S
C437 C439 1.433 . S
C438 C434 1.350 . S
C438 C435 1.463 . S
C438 N442 1.427 . S
C439 H429 0.929 . S
C439 C437 1.433 . S
C439 N442 1.384 . S
C440 H431 0.929 . S
C440 C432 1.378 . S
C440 C435 1.350 . S
C441 H428 0.929 . S
C441 C433 1.433 . S
C441 N443 1.384 . S
N442 C438 1.427 . S
N442 C439 1.384 . S
N443 C435 1.427 . S
N443 C441 1.384 . S
H444 C450 0.930 . S
H445 C454 0.930 . S
H446 C459 0.929 . S
H447 C457 0.929 . S
H448 C452 0.929 . S
H449 C458 0.929 . S
C450 H444 0.930 . S
C450 C451 1.367 . S
C450 C458 1.378 . S
C451 C450 1.367 . S
C451 C459 1.433 . S
C452 H448 0.929 . S
C452 C454 1.378 . S
C452 C456 1.350 . S
C453 C456 1.463 . S
C453 C458 1.350 . S
C453 N461 1.427 . S
C454 H445 0.930 . S
C454 C452 1.378 . S
C454 C455 1.367 . S
C455 C454 1.367 . S
C455 C457 1.433 . S
C456 C452 1.350 . S
C456 C453 1.463 . S
C456 N460 1.427 . S
C457 H447 0.929 . S
C457 C455 1.433 . S
C457 N460 1.384 . S
C458 H449 0.929 . S
C458 C450 1.378 . S
C458 C453 1.350 . S
C459 H446 0.929 . S
C459 C451 1.433 . S
C459 N461 1.384 . S
N460 C456 1.427 . S
N460 C457 1.384 . S
N461 C453 1.427 . S
N461 C459 1.384 . S
H462 C468 0.930 . S
H463 C472 0.930 . S
H464 C477 0.929 . S
H465 C475 0.929 . S
H466 C470 0.929 . S
H467 C476 0.929 . S
C468 H462 0.930 . S
C468 C469 1.367 . S
C468 C476 1.378 . S
C469 C468 1.367 . S
C469 C477 1.433 . S
C470 H466 0.929 . S
C470 C472 1.378 . S
C470 C474 1.350 . S
C471 C474 1.463 . S
C471 C476 1.350 . S
C471 N479 1.427 . S
C472 H463 0.930 . S
C472 C470 1.378 . S
C472 C473 1.367 . S
C473 C472 1.367 . S
C473 C475 1.433 . S
C474 C470 1.350 . S
C474 C471 1.463 . S
C474 N478 1.427 . S
C475 H465 0.929 . S
C475 C473 1.433 . S
C475 N478 1.384 . S
C476 H467 0.929 . S
C476 C468 1.378 . S
C476 C471 1.350 . S
C477 H464 0.929 . S
C477 C469 1.433 . S
C477 N479 1.384 . S
N478 C474 1.427 . S
N478 C475 1.384 . S
N479 C471 1.427 . S
N479 C477 1.384 . S
H480 C486 0.930 . S
H481 C490 0.930 . S
H482 C495 0.929 . S
H483 C493 0.929 . S
H484 C488 0.929 . S
H485 C494 0.929 . S
C486 H480 0.930 . S
C486 C487 1.367 . S
C486 C494 1.378 . S
C487 C486 1.367 . S
C487 C495 1.433 . S
C488 H484 0.929 . S
C488 C490 1.378 . S
C488 C492 1.350 . S
C489 C492 1.463 . S
C489 C494 1.350 . S
C489 N497 1.427 . S
C490 H481 0.930 . S
C490 C488 1.378 . S
C490 C491 1.367 . S
C491 C490 1.367 . S
C491 C493 1.433 . S
C492 C488 1.350 . S
C492 C489 1.463 . S
C492 N496 1.427 . S
C493 H483 0.929 . S
C493 C491 1.433 . S
C493 N496 1.384 . S
C494 H485 0.929 . S
C494 C486 1.378 . S
C494 C489 1.350 . S
C495 H482 0.929 . S
C495 C487 1.433 . S
C495 N497 1.384 . S
N496 C492 1.427 . S
N496 C493 1.384 . S
N497 C489 1.427 . S
N497 C495 1.384 . S
H498 C504 0.930 . S
H499 C508 0.930 . S
H500 C513 0.929 . S
H501 C511 0.929 . S
H502 C506 0.929 . S
H503 C512 0.929 . S
C504 H498 0.930 . S
C504 C505 1.367 . S
C504 C512 1.378 . S
C505 C504 1.367 . S
C505 C513 1.433 . S
C506 H502 0.929 . S
C506 C508 1.378 . S
C506 C510 1.350 . S
C507 C510 1.463 . S
C507 C512 1.350 . S
C507 N515 1.427 . S
C508 H499 0.930 . S
C508 C506 1.378 . S
C508 C509 1.367 . S
C509 C508 1.367 . S
C509 C511 1.433 . S
C510 C506 1.350 . S
C510 C507 1.463 . S
C510 N514 1.427 . S
C511 H501 0.929 . S
C511 C509 1.433 . S
C511 N514 1.384 . S
C512 H503 0.929 . S
C512 C504 1.378 . S
C512 C507 1.350 . S
C513 H500 0.929 . S
C513 C505 1.433 . S
C513 N515 1.384 . S
N514 C510 1.427 . S
N514 C511 1.384 . S
N515 C507 1.427 . S
N515 C513 1.384 . S
H516 C522 0.930 . S
H517 C526 0.930 . S
H518 C531 0.929 . S
H519 C529 0.929 . S
H520 C524 0.929 . S
H521 C530 0.929 . S
C522 H516 0.930 . S
C522 C523 1.367 . S
C522 C530 1.378 . S
C523 C522 1.367 . S
C523 C531 1.433 . S
C524 H520 0.929 . S
C524 C526 1.378 . S
C524 C528 1.350 . S
C525 C528 1.463 . S
C525 C530 1.350 . S
C525 N533 1.427 . S
C526 H517 0.930 . S
C526 C524 1.378 . S
C526 C527 1.367 . S
C527 C526 1.367 . S
C527 C529 1.433 . S
C528 C524 1.350 . S
C528 C525 1.463 . S
C528 N532 1.427 . S
C529 H519 0.929 . S
C529 C527 1.433 . S
C529 N532 1.384 . S
C530 H521 0.929 . S
C530 C522 1.378 . S
C530 C525 1.350 . S
C531 H518 0.929 . S
C531 C523 1.433 . S
C531 N533 1.384 . S
N532 C528 1.427 . S
N532 C529 1.384 . S
N533 C525 1.427 . S
N533 C531 1.384 . S
H534 C540 0.930 . S
H535 C544 0.930 . S
H536 C549 0.929 . S
H537 C547 0.929 . S
H538 C542 0.929 . S
H539 C548 0.929 . S
C540 H534 0.930 . S
C540 C541 1.367 . S
C540 C548 1.378 . S
C541 C540 1.367 . S
C541 C549 1.433 . S
C542 H538 0.929 . S
C542 C544 1.378 . S
C542 C546 1.350 . S
C543 C546 1.463 . S
C543 C548 1.350 . S
C543 N551 1.427 . S
C544 H535 0.930 . S
C544 C542 1.378 . S
C544 C545 1.367 . S
C545 C544 1.367 . S
C545 C547 1.433 . S
C546 C542 1.350 . S
C546 C543 1.463 . S
C546 N550 1.427 . S
C547 H537 0.929 . S
C547 C545 1.433 . S
C547 N550 1.384 . S
C548 H539 0.929 . S
C548 C540 1.378 . S
C548 C543 1.350 . S
C549 H536 0.929 . S
C549 C541 1.433 . S
C549 N551 1.384 . S
N550 C546 1.427 . S
N550 C547 1.384 . S
N551 C543 1.427 . S
N551 C549 1.384 . S
H552 C558 0.930 . S
H553 C562 0.930 . S
H554 C567 0.929 . S
H555 C565 0.929 . S
H556 C560 0.929 . S
H557 C566 0.929 . S
C558 H552 0.930 . S
C558 C559 1.367 . S
C558 C566 1.378 . S
C559 C558 1.367 . S
C559 C567 1.433 . S
C560 H556 0.929 . S
C560 C562 1.378 . S
C560 C564 1.350 . S
C561 C564 1.463 . S
C561 C566 1.350 . S
C561 N569 1.427 . S
C562 H553 0.930 . S
C562 C560 1.378 . S
C562 C563 1.367 . S
C563 C562 1.367 . S
C563 C565 1.433 . S
C564 C560 1.350 . S
C564 C561 1.463 . S
C564 N568 1.427 . S
C565 H555 0.929 . S
C565 C563 1.433 . S
C565 N568 1.384 . S
C566 H557 0.929 . S
C566 C558 1.378 . S
C566 C561 1.350 . S
C567 H554 0.929 . S
C567 C559 1.433 . S
C567 N569 1.384 . S
N568 C564 1.427 . S
N568 C565 1.384 . S
N569 C561 1.427 . S
N569 C567 1.384 . S
H570 C576 0.930 . S
H571 C580 0.930 . S
H572 C585 0.929 . S
H573 C583 0.949 . S
H574 C578 0.929 . S
H575 C584 0.929 . S
C576 H570 0.930 . S
C576 C577 1.367 . S
C576 C584 1.378 . S
C577 C576 1.367 . S
C577 C585 1.433 . S
C578 H574 0.929 . S
C578 C580 1.378 . S
C578 C582 1.350 . S
C579 C582 1.463 . S
C579 C584 1.350 . S
C579 N587 1.427 . S
C580 H571 0.930 . S
C580 C578 1.378 . S
C580 C581 1.378 . S
C581 C580 1.378 . S
C581 C583 1.443 . S
C582 C578 1.350 . S
C582 C579 1.463 . S
C582 N586 1.427 . S
C583 H573 0.949 . S
C583 C581 1.443 . S
C583 N586 1.384 . S
C584 H575 0.929 . S
C584 C576 1.378 . S
C584 C579 1.350 . S
C585 H572 0.929 . S
C585 C577 1.433 . S
C585 N587 1.384 . S
N586 C582 1.427 . S
N586 C583 1.384 . S
N587 C579 1.427 . S
N587 C585 1.384 . S
H588 C594 0.930 . S
H589 C598 0.930 . S
H590 C603 0.929 . S
H591 C601 0.929 . S
H592 C596 0.929 . S
H593 C602 0.929 . S
C594 H588 0.930 . S
C594 C595 1.367 . S
C594 C602 1.378 . S
C595 C594 1.367 . S
C595 C603 1.433 . S
C596 H592 0.929 . S
C596 C598 1.378 . S
C596 C600 1.350 . S
C597 C600 1.463 . S
C597 C602 1.350 . S
C597 N605 1.427 . S
C598 H589 0.930 . S
C598 C596 1.378 . S
C598 C599 1.367 . S
C599 C598 1.367 . S
C599 C601 1.433 . S
C600 C596 1.350 . S
C600 C597 1.463 . S
C600 N604 1.427 . S
C601 H591 0.929 . S
C601 C599 1.433 . S
C601 N604 1.384 . S
C602 H593 0.929 . S
C602 C594 1.378 . S
C602 C597 1.350 . S
C603 H590 0.929 . S
C603 C595 1.433 . S
C603 N605 1.384 . S
N604 C600 1.427 . S
N604 C601 1.384 . S
N605 C597 1.427 . S
N605 C603 1.384 . S
H606 C612 0.930 . S
H607 C616 0.930 . S
H608 C621 0.929 . S
H609 C619 0.929 . S
H610 C614 0.929 . S
H611 C620 0.929 . S
C612 H606 0.930 . S
C612 C613 1.367 . S
C612 C620 1.378 . S
C613 C612 1.367 . S
C613 C621 1.433 . S
C614 H610 0.929 . S
C614 C616 1.378 . S
C614 C618 1.350 . S
C615 C618 1.463 . S
C615 C620 1.350 . S
C615 N623 1.427 . S
C616 H607 0.930 . S
C616 C614 1.378 . S
C616 C617 1.367 . S
C617 C616 1.367 . S
C617 C619 1.433 . S
C618 C614 1.350 . S
C618 C615 1.463 . S
C618 N622 1.427 . S
C619 H609 0.929 . S
C619 C617 1.433 . S
C619 N622 1.384 . S
C620 H611 0.929 . S
C620 C612 1.378 . S
C620 C615 1.350 . S
C621 H608 0.929 . S
C621 C613 1.433 . S
C621 N623 1.384 . S
N622 C618 1.427 . S
N622 C619 1.384 . S
N623 C615 1.427 . S
N623 C621 1.384 . S
H624 C630 0.930 . S
H625 C634 0.930 . S
H626 C639 0.929 . S
H627 C637 0.929 . S
H628 C632 0.929 . S
H629 C638 0.929 . S
C630 H624 0.930 . S
C630 C631 1.367 . S
C630 C638 1.378 . S
C631 C630 1.367 . S
C631 C639 1.433 1_545 S
C632 H628 0.929 . S
C632 C634 1.378 . S
C632 C636 1.350 1_565 S
C633 C636 1.463 . S
C633 C638 1.350 . S
C633 N641 1.427 1_545 S
C634 H625 0.930 . S
C634 C632 1.378 . S
C634 C635 1.367 . S
C635 C634 1.367 . S
C635 C637 1.433 1_565 S
C636 C632 1.350 1_545 S
C636 C633 1.463 . S
C636 N640 1.427 . S
C637 H627 0.929 . S
C637 C635 1.433 1_545 S
C637 N640 1.384 . S
C638 H629 0.929 . S
C638 C630 1.378 . S
C638 C633 1.350 . S
C639 H626 0.929 . S
C639 C631 1.433 1_565 S
C639 N641 1.384 . S
N640 C636 1.427 . S
N640 C637 1.384 . S
N641 C633 1.427 1_565 S
N641 C639 1.384 . S
H642 C648 0.930 . S
H643 C652 0.930 . S
H644 C657 0.929 . S
H645 C655 0.929 . S
H646 C650 0.929 . S
H647 C656 0.929 . S
C648 H642 0.930 . S
C648 C649 1.367 . S
C648 C656 1.378 . S
C649 C648 1.367 . S
C649 C657 1.433 . S
C650 H646 0.929 . S
C650 C652 1.378 . S
C650 C654 1.350 . S
C651 C654 1.463 . S
C651 C656 1.350 . S
C651 N659 1.427 . S
C652 H643 0.930 . S
C652 C650 1.378 . S
C652 C653 1.367 . S
C653 C652 1.367 . S
C653 C655 1.433 . S
C654 C650 1.350 . S
C654 C651 1.463 . S
C654 N658 1.427 . S
C655 H645 0.929 . S
C655 C653 1.433 . S
C655 N658 1.384 . S
C656 H647 0.929 . S
C656 C648 1.378 . S
C656 C651 1.350 . S
C657 H644 0.929 . S
C657 C649 1.433 . S
C657 N659 1.384 . S
N658 C654 1.427 . S
N658 C655 1.384 . S
N659 C651 1.427 . S
N659 C657 1.384 . S
H660 C666 0.930 . S
H661 C670 0.930 . S
H662 C675 0.929 . S
H663 C673 0.929 . S
H664 C668 0.929 . S
H665 C674 0.929 . S
C666 H660 0.930 . S
C666 C667 1.367 . S
C666 C674 1.378 . S
C667 C666 1.367 . S
C667 C675 1.433 1_455 S
C668 H664 0.929 . S
C668 C670 1.378 . S
C668 C672 1.350 1_655 S
C669 C672 1.463 . S
C669 C674 1.350 . S
C669 N677 1.427 1_455 S
C670 H661 0.930 . S
C670 C668 1.378 . S
C670 C671 1.361 1_655 S
C671 C670 1.361 1_455 S
C671 C673 1.441 . S
C672 C668 1.350 1_455 S
C672 C669 1.463 . S
C672 N676 1.427 . S
C673 H663 0.929 . S
C673 C671 1.441 . S
C673 N676 1.384 . S
C674 H665 0.929 . S
C674 C666 1.378 . S
C674 C669 1.350 . S
C675 H662 0.929 . S
C675 C667 1.433 1_655 S
C675 N677 1.384 . S
N676 C672 1.427 . S
N676 C673 1.384 . S
N677 C669 1.427 1_655 S
N677 C675 1.384 . S
C361 C6 0.605 . S
C365 C331 0.577 . S
C379 C59 1.929 . S
C383 C258 1.897 . S
C397 C86 1.234 . S
C401 C297 1.239 . S
C415 C15 0.393 . S
C419 C336 0.283 . S
C437 C253 1.984 . S
C433 C50 2.022 . S
C455 C292 1.300 . S
C451 C95 1.292 . S
C469 C46 1.207 . S
C473 C180 1.217 . S
C487 C99 3.133 . S
C491 C214 3.088 . S
C505 C10 2.051 . S
C509 C136 2.015 . S
C527 C175 1.289 . S
C523 C55 1.274 . S
C545 C219 2.995 . S
C541 C90 3.015 . S
C559 C19 1.920 . S
C563 C141 1.897 . S
C581 C199 1.758 1_554 S
C577 C18 1.710 . S
C595 C49 1.335 . S
C599 C121 1.376 . S
C613 C98 1.457 . S
C617 C160 1.508 . S
C635 C277 1.489 . S
C631 C58 1.436 . S
C653 C316 1.089 1_556 S
C649 C89 1.079 . S
C667 C9 1.322 . S
C671 C238 1.364 1_455 S
