# Generated by pormake.
# Topology myd, (4,6)-cn, num edge types: 1
# Building blocks:
#     Node 0, Type 0, BuildingBlock: IZENUY_clean_linker_0, # of connection points: 4
#     Node 1, Type 0, BuildingBlock: IZENUY_clean_linker_0, # of connection points: 4
#     Node 2, Type 0, BuildingBlock: IZENUY_clean_linker_0, # of connection points: 4
#     Node 3, Type 0, BuildingBlock: IZENUY_clean_linker_0, # of connection points: 4
#     Node 4, Type 0, BuildingBlock: IZENUY_clean_linker_0, # of connection points: 4
#     Node 5, Type 0, BuildingBlock: IZENUY_clean_linker_0, # of connection points: 4
#     Node 6, Type 0, BuildingBlock: IZENUY_clean_linker_0, # of connection points: 4
#     Node 7, Type 0, BuildingBlock: IZENUY_clean_linker_0, # of connection points: 4
#     Node 8, Type 0, BuildingBlock: IZENUY_clean_linker_0, # of connection points: 4
#     Node 9, Type 0, BuildingBlock: IZENUY_clean_linker_0, # of connection points: 4
#     Node 10, Type 0, BuildingBlock: IZENUY_clean_linker_0, # of connection points: 4
#     Node 11, Type 0, BuildingBlock: IZENUY_clean_linker_0, # of connection points: 4
#     Node 12, Type 1, BuildingBlock: FUNLAD_clean_sbu_0, # of connection points: 6
#     Node 13, Type 1, BuildingBlock: FUNLAD_clean_sbu_0, # of connection points: 6
#     Node 14, Type 1, BuildingBlock: FUNLAD_clean_sbu_0, # of connection points: 6
#     Node 15, Type 1, BuildingBlock: FUNLAD_clean_sbu_0, # of connection points: 6
#     Node 16, Type 1, BuildingBlock: FUNLAD_clean_sbu_0, # of connection points: 6
#     Node 17, Type 1, BuildingBlock: FUNLAD_clean_sbu_0, # of connection points: 6
#     Node 18, Type 1, BuildingBlock: FUNLAD_clean_sbu_0, # of connection points: 6
#     Node 19, Type 1, BuildingBlock: FUNLAD_clean_sbu_0, # of connection points: 6
#     Edge 20, Type (0, 1), None
#     Edge 21, Type (0, 1), None
#     Edge 22, Type (0, 1), None
#     Edge 23, Type (0, 1), None
#     Edge 24, Type (0, 1), None
#     Edge 25, Type (0, 1), None
#     Edge 26, Type (0, 1), None
#     Edge 27, Type (0, 1), None
#     Edge 28, Type (0, 1), None
#     Edge 29, Type (0, 1), None
#     Edge 30, Type (0, 1), None
#     Edge 31, Type (0, 1), None
#     Edge 32, Type (0, 1), None
#     Edge 33, Type (0, 1), None
#     Edge 34, Type (0, 1), None
#     Edge 35, Type (0, 1), None
#     Edge 36, Type (0, 1), None
#     Edge 37, Type (0, 1), None
#     Edge 38, Type (0, 1), None
#     Edge 39, Type (0, 1), None
#     Edge 40, Type (0, 1), None
#     Edge 41, Type (0, 1), None
#     Edge 42, Type (0, 1), None
#     Edge 43, Type (0, 1), None
#     Edge 44, Type (0, 1), None
#     Edge 45, Type (0, 1), None
#     Edge 46, Type (0, 1), None
#     Edge 47, Type (0, 1), None
#     Edge 48, Type (0, 1), None
#     Edge 49, Type (0, 1), None
#     Edge 50, Type (0, 1), None
#     Edge 51, Type (0, 1), None
#     Edge 52, Type (0, 1), None
#     Edge 53, Type (0, 1), None
#     Edge 54, Type (0, 1), None
#     Edge 55, Type (0, 1), None
#     Edge 56, Type (0, 1), None
#     Edge 57, Type (0, 1), None
#     Edge 58, Type (0, 1), None
#     Edge 59, Type (0, 1), None
#     Edge 60, Type (0, 1), None
#     Edge 61, Type (0, 1), None
#     Edge 62, Type (0, 1), None
#     Edge 63, Type (0, 1), None
#     Edge 64, Type (0, 1), None
#     Edge 65, Type (0, 1), None
#     Edge 66, Type (0, 1), None
#     Edge 67, Type (0, 1), None
# Relax obj value: 0.342
# Max RMSD: 0.289
# Mean RMSD: 0.231
data_MOF--net-myd--node1-FUNLAD_clean_sbu_0--node2-IZENUY_clean_linker_0--edge1-none
_symmetry_space_group_name_H-M    P1
_symmetry_Int_Tables_number       1
_symmetry_cell_setting            triclinic
loop_
_symmetry_equiv_pos_as_xyz
'x, y, z'
_cell_length_a     24.67854
_cell_length_b     24.097439
_cell_length_c     28.061986
_cell_angle_alpha  81.739673
_cell_angle_beta   80.386018
_cell_angle_gamma 89.179729
loop_
_atom_site_label
_atom_site_type_symbol
_atom_site_fract_x
_atom_site_fract_y
_atom_site_fract_z
_atom_type_partial_charge
H0 H 0.94912 0.37728 0.50605 0.0
H1 H 0.05227 0.29415 0.39835 0.0
H2 H 0.98538 0.45413 0.35594 0.0
H3 H 0.98366 0.23522 0.39892 0.0
H4 H 0.05267 0.13136 0.51227 0.0
H5 H 0.01291 0.06444 0.38777 0.0
N6 N 0.98719 0.27484 0.48498 0.0
N7 N 0.0219 0.23661 0.48283 0.0
C8 C 0.96988 0.37649 0.46897 0.0
C9 C 0.96774 0.42344 0.43281 0.0
C10 C 0.99883 0.32824 0.45635 0.0
C11 C 0.02836 0.32972 0.4089 0.0
C12 C 0.01899 0.37225 0.37256 0.0
C13 C 0.99009 0.41973 0.3845 0.0
C14 C 0.99578 0.19487 0.41561 0.0
C15 C 1.00079 0.15112 0.38772 0.0
C16 C 0.01266 0.18792 0.46192 0.0
C17 C 0.0339 0.13566 0.4797 0.0
C18 C 0.03356 0.09031 0.45314 0.0
C19 C 1.01209 0.09813 0.40954 0.0
H20 H 1.01079 0.66878 0.14553 0.0
H21 H 0.01475 0.71423 0.28772 0.0
H22 H 1.00626 0.54092 0.27152 0.0
H23 H 0.96989 0.81825 0.26109 0.0
H24 H 0.07254 0.89589 0.13013 0.0
H25 H 0.97519 0.99385 0.23009 0.0
N26 N 1.00098 0.75378 0.19977 0.0
N27 N 0.03399 0.79388 0.18417 0.0
C28 C 0.01441 0.65615 0.18349 0.0
C29 C 0.01304 0.59868 0.20275 0.0
C30 C 0.01689 0.69765 0.21398 0.0
C31 C 0.01766 0.68169 0.26444 0.0
C32 C 0.01381 0.62543 0.2865 0.0
C33 C 1.01175 0.58432 0.25485 0.0
C34 C 0.98089 0.85515 0.2343 0.0
C35 C 0.97811 0.9065 0.2514 0.0
C36 C 0.01521 0.84942 0.18989 0.0
C37 C 0.04044 0.89905 0.161 0.0
C38 C 0.02556 0.95257 0.17554 0.0
C39 C 0.98583 0.95413 0.21719 0.0
H40 H 0.25323 0.06763 0.21911 0.0
H41 H 0.41791 0.04692 0.14322 0.0
H42 H 0.28368 0.08705 0.06297 0.0
H43 H 0.41842 0.06632 0.33837 0.0
H44 H 0.25899 1.01766 0.31408 0.0
H45 H 0.29323 1.00331 0.46051 0.0
N46 N 0.35077 0.03562 0.23484 0.0
N47 N 0.35058 0.06563 0.26814 0.0
C48 C 0.28194 0.06905 0.18519 0.0
C49 C 0.26194 0.07795 0.14064 0.0
C50 C 0.33774 0.0575 0.18737 0.0
C51 C 0.37519 0.05708 0.1423 0.0
C52 C 0.35643 0.06919 0.09617 0.0
C53 C 0.29946 0.07841 0.09704 0.0
C54 C 0.37769 0.04909 0.35253 0.0
C55 C 0.36107 0.03417 0.40431 0.0
C56 C 0.34073 0.04235 0.31935 0.0
C57 C 0.28754 1.02135 0.33895 0.0
C58 C 0.26944 1.00868 0.38963 0.0
C59 C 0.30658 1.01483 0.42156 0.0
H60 H 0.65935 0.44087 0.23179 0.0
H61 H 0.81832 0.47891 0.26239 0.0
H62 H 0.80347 0.43823 0.12205 0.0
H63 H 0.7351 0.60249 0.27363 0.0
H64 H 0.58381 0.53239 0.35585 0.0
H65 H 0.65568 0.67937 0.39176 0.0
N66 N 0.71343 0.49741 0.28519 0.0
N67 N 0.66724 0.51891 0.28451 0.0
C68 C 0.70354 0.44309 0.22076 0.0
C69 C 0.72732 0.43427 0.1737 0.0
C70 C 0.73606 0.46208 0.25157 0.0
C71 C 0.79335 0.46368 0.23856 0.0
C72 C 0.81738 0.45546 0.1915 0.0
C73 C 0.78435 0.44158 0.15919 0.0
C74 C 0.69802 0.60757 0.29946 0.0
C75 C 0.70077 0.64118 0.33503 0.0
C76 C 0.65606 0.56699 0.30728 0.0
C77 C 0.61212 0.56771 0.34576 0.0
C78 C 0.6114 0.60921 0.37632 0.0
C79 C 0.6525 0.65115 0.36543 0.0
H80 H 0.40557 0.3939 1.04049 0.0
H81 H 0.34436 0.24748 0.9942 0.0
H82 H 0.51755 0.281 0.96791 0.0
H83 H 0.23099 0.2628 0.06456 0.0
H84 H 0.20105 0.44134 1.04194 0.0
H85 H 0.06909 0.3234 0.10413 0.0
N86 N 0.31436 0.32732 1.04467 0.0
N87 N 0.28006 0.36148 1.02988 0.0
C88 C 0.41305 0.35634 1.02343 0.0
C89 C 0.46722 0.34179 1.00408 0.0
C90 C 0.36853 0.32201 1.01923 0.0
C91 C 0.37868 0.27445 0.99565 0.0
C92 C 0.43225 0.25917 0.97731 0.0
C93 C 0.476 0.29248 0.98249 0.0
C94 C 0.20321 0.29795 0.06678 0.0
C95 C 0.14792 0.28717 0.08595 0.0
C96 C 0.22318 0.35328 0.05047 0.0
C97 C 0.18596 0.39866 0.05288 0.0
C98 C 0.12969 0.38819 0.07227 0.0
C99 C 0.11163 0.33208 0.08802 0.0
H100 H 0.37482 0.82496 0.54869 0.0
H101 H 0.40485 0.64673 0.57306 0.0
H102 H 0.49243 0.7595 0.63843 0.0
H103 H 0.26493 0.65733 0.51251 0.0
H104 H 0.26232 0.83505 0.46513 0.0
H105 H 0.13463 0.73018 0.44002 0.0
N106 N 0.34124 0.72123 0.5336 0.0
N107 N 0.3163 0.75874 0.51105 0.0
C108 C 0.39638 0.78966 0.56503 0.0
C109 C 0.43585 0.79901 0.59413 0.0
C110 C 0.38374 0.73393 0.55885 0.0
C111 C 0.41255 0.68893 0.57965 0.0
C112 C 0.45124 0.69822 0.60866 0.0
C113 C 0.46136 0.75272 0.61668 0.0
C114 C 0.24767 0.69327 0.49261 0.0
C115 C 0.1991 0.68694 0.47355 0.0
C116 C 0.27146 0.74731 0.48809 0.0
C117 C 0.24591 0.79339 0.46568 0.0
C118 C 0.19635 0.78724 0.44911 0.0
C119 C 0.17443 0.73416 0.45097 0.0
H120 H 0.73099 0.7628 0.56456 0.0
H121 H 0.70105 0.94134 0.54194 0.0
H122 H 0.56909 0.8234 0.60413 0.0
H123 H 0.90557 0.8939 0.54049 0.0
H124 H 0.84436 0.74748 0.4942 0.0
H125 H 0.01755 0.781 0.46791 0.0
N126 N 0.78006 0.86148 0.52988 0.0
N127 N 0.81436 0.82732 0.54467 0.0
C128 C 0.70321 0.79795 0.56678 0.0
C129 C 0.64792 0.78717 0.58595 0.0
C130 C 0.72318 0.85328 0.55046 0.0
C131 C 0.68596 0.89866 0.55288 0.0
C132 C 0.62969 0.88819 0.57227 0.0
C133 C 0.61163 0.83208 0.58802 0.0
C134 C 0.91305 0.85634 0.52343 0.0
C135 C 0.96722 0.84179 0.50408 0.0
C136 C 0.86853 0.82201 0.51923 0.0
C137 C 0.87868 0.77445 0.49565 0.0
C138 C 0.93225 0.75918 0.47731 0.0
C139 C 0.976 0.79248 0.48249 0.0
H140 H 0.44912 0.87728 1.00605 0.0
H141 H 0.55227 0.79415 0.89835 0.0
H142 H 0.48537 0.95413 0.85594 0.0
H143 H 0.48366 0.73522 0.89892 0.0
H144 H 0.55267 0.63136 1.01227 0.0
H145 H 0.51292 0.56444 0.88777 0.0
N146 N 0.48719 0.77484 0.98498 0.0
N147 N 0.5219 0.73661 0.98283 0.0
C148 C 0.46988 0.87649 0.96897 0.0
C149 C 0.46774 0.92344 0.9328 0.0
C150 C 0.49883 0.82824 0.95635 0.0
C151 C 0.52836 0.82972 0.9089 0.0
C152 C 0.51899 0.87225 0.87256 0.0
C153 C 0.49009 0.91973 0.8845 0.0
C154 C 0.49578 0.69487 0.91561 0.0
C155 C 0.50079 0.65112 0.88772 0.0
C156 C 0.51266 0.68792 0.96192 0.0
C157 C 0.5339 0.63566 0.9797 0.0
C158 C 0.53356 0.59031 0.95314 0.0
C159 C 0.51209 0.59813 0.90954 0.0
H160 H 0.51079 0.16878 0.64553 0.0
H161 H 0.51475 0.21423 0.78772 0.0
H162 H 0.50626 0.04092 0.77152 0.0
H163 H 0.46989 0.31825 0.76109 0.0
H164 H 0.57254 0.39589 0.63013 0.0
H165 H 0.47519 0.49385 0.73009 0.0
N166 N 0.50098 0.25378 0.69977 0.0
N167 N 0.53399 0.29388 0.68417 0.0
C168 C 0.51441 0.15615 0.68349 0.0
C169 C 0.51304 0.09868 0.70275 0.0
C170 C 0.51689 0.19765 0.71398 0.0
C171 C 0.51766 0.18169 0.76444 0.0
C172 C 0.51381 0.12543 0.7865 0.0
C173 C 0.51175 0.08432 0.75485 0.0
C174 C 0.48089 0.35515 0.7343 0.0
C175 C 0.47811 0.4065 0.7514 0.0
C176 C 0.51521 0.34942 0.68989 0.0
C177 C 0.54044 0.39905 0.661 0.0
C178 C 0.52556 0.45257 0.67554 0.0
C179 C 0.48583 0.45413 0.71719 0.0
H180 H 0.75323 0.56763 0.71911 0.0
H181 H 0.91791 0.54692 0.64322 0.0
H182 H 0.78368 0.58705 0.56297 0.0
H183 H 0.91842 0.56632 0.83837 0.0
H184 H 0.75899 0.51766 0.81408 0.0
H185 H 0.79323 0.50331 0.96051 0.0
N186 N 0.85077 0.53562 0.73484 0.0
N187 N 0.85058 0.56563 0.76814 0.0
C188 C 0.78194 0.56905 0.68519 0.0
C189 C 0.76194 0.57795 0.64064 0.0
C190 C 0.83774 0.5575 0.68737 0.0
C191 C 0.87519 0.55708 0.6423 0.0
C192 C 0.85643 0.56919 0.59617 0.0
C193 C 0.79946 0.57841 0.59704 0.0
C194 C 0.87769 0.54909 0.85253 0.0
C195 C 0.86107 0.53417 0.90431 0.0
C196 C 0.84073 0.54235 0.81935 0.0
C197 C 0.78754 0.52135 0.83895 0.0
C198 C 0.76944 0.50868 0.88963 0.0
C199 C 0.80658 0.51483 0.92156 0.0
H200 H 0.2351 0.10249 0.77363 0.0
H201 H 0.08381 0.03239 0.85585 0.0
H202 H 0.15568 0.17937 0.89176 0.0
H203 H 0.15935 0.94088 0.73179 0.0
H204 H 0.31832 0.97892 0.76239 0.0
H205 H 0.30347 0.93823 0.62205 0.0
N206 N 0.16724 1.01891 0.78451 0.0
N207 N 0.21343 0.99742 0.78519 0.0
C208 C 0.19802 0.10758 0.79946 0.0
C209 C 0.20077 0.14118 0.83503 0.0
C210 C 0.15606 0.06699 0.80728 0.0
C211 C 0.11212 0.06771 0.84576 0.0
C212 C 0.1114 0.10921 0.87632 0.0
C213 C 0.1525 0.15115 0.86543 0.0
C214 C 0.20354 0.9431 0.72076 0.0
C215 C 0.22732 0.93427 0.6737 0.0
C216 C 0.23606 0.96209 0.75157 0.0
C217 C 0.29335 0.96368 0.73855 0.0
C218 C 0.31738 0.95546 0.6915 0.0
C219 C 0.28435 0.94158 0.65919 0.0
H220 H 0.76493 0.15733 1.01251 0.0
H221 H 0.76232 0.33505 0.96513 0.0
H222 H 0.63463 0.23018 0.94002 0.0
H223 H 0.87482 0.32496 0.04869 0.0
H224 H 0.90485 0.14673 0.07306 0.0
H225 H 0.99243 0.2595 0.13843 0.0
N226 N 0.8163 0.25874 1.01105 0.0
N227 N 0.84124 0.22123 1.0336 0.0
C228 C 0.74767 0.19327 0.99261 0.0
C229 C 0.6991 0.18694 0.97355 0.0
C230 C 0.77146 0.24731 0.98809 0.0
C231 C 0.74591 0.29339 0.96568 0.0
C232 C 0.69635 0.28724 0.94911 0.0
C233 C 0.67443 0.23416 0.95097 0.0
C234 C 0.89638 0.28966 0.06503 0.0
C235 C 0.93585 0.29901 0.09414 0.0
C236 C 0.88374 0.23393 0.05885 0.0
C237 C 0.91255 0.18893 0.07965 0.0
C238 C 0.95124 0.19822 0.10866 0.0
C239 C 0.96136 0.25272 0.11668 0.0
C240 C 0.20199 0.08788 0.13907 0.0
N241 N 0.10191 0.10158 1.02327 0.0
C242 C 0.11709 0.05435 1.0035 0.0
C243 C 0.11043 0.05093 0.95564 0.0
C244 C 0.08844 0.09681 0.92833 0.0
C245 C 0.06709 0.14168 0.95166 0.0
C246 C 0.0763 0.14427 0.9986 0.0
Zn247 Zn 0.09784 0.1067 0.09464 0.0
C248 C 0.05532 1.00662 0.15597 0.0
N249 N 0.06298 0.13977 0.24107 0.0
C250 C 0.08833 0.17505 0.26438 0.0
C251 C 0.01263 0.11711 0.26149 0.0
C252 C 0.98723 0.12701 0.30761 0.0
C253 C 0.01378 0.16031 0.33375 0.0
C254 C 0.06435 0.18582 0.31109 0.0
Zn255 Zn 0.08809 0.12857 0.16912 0.0
O256 O 0.18296 0.08667 0.09933 0.0
C257 C 0.12849 0.22906 0.10502 0.0
O258 O 0.16976 0.10022 0.17671 0.0
H259 H 0.99148 0.09133 0.24189 0.0
H260 H 0.13516 1.01994 1.02447 0.0
H261 H 0.1273 0.19436 0.24705 0.0
O262 O 0.12279 0.19484 0.07561 0.0
O263 O 0.11803 0.21254 0.15069 0.0
H264 H 0.06262 0.18083 1.01527 0.0
O265 O 1.01133 0.15977 0.16014 0.0
O266 O 0.01451 0.12749 0.09167 0.0
O267 O 0.05714 0.04305 0.18465 0.0
O268 O 0.0743 1.01987 0.11118 0.0
C269 C 0.98961 0.15491 0.12343 0.0
H270 H 0.12749 1.01545 0.93872 0.0
H271 H 0.05049 0.17793 0.93152 0.0
H272 H 0.94899 0.10548 0.32423 0.0
H273 H 0.08692 0.21054 0.3307 0.0
C274 C 0.87647 0.46259 0.17433 0.0
N275 N 0.95186 0.5177 1.02587 0.0
C276 C 0.90684 0.5514 1.02593 0.0
C277 C 0.87963 0.5612 0.98495 0.0
C278 C 0.89828 0.53675 0.94233 0.0
C279 C 0.9471 0.50573 0.94187 0.0
C280 C 0.97286 0.49641 0.98391 0.0
Zn281 Zn 0.97487 0.47804 0.09472 0.0
C282 C 1.00758 0.55237 0.17161 0.0
N283 N 0.0124 0.38862 0.22705 0.0
C284 C 0.97742 0.35116 0.25738 0.0
C285 C 0.05881 0.40703 0.24056 0.0
C286 C 0.06699 0.39485 0.28854 0.0
C287 C 0.02743 0.36285 0.32191 0.0
C288 C 0.98463 0.33703 0.30572 0.0
Zn289 Zn 0.99123 0.43167 0.1664 0.0
O290 O 0.89351 0.48566 0.13071 0.0
C291 C 0.95121 0.35517 0.10403 0.0
O292 O 0.90973 0.43758 0.19979 0.0
H293 H 0.08622 0.43681 0.21589 0.0
H294 H 0.88908 0.56744 0.05908 0.0
H295 H 0.94107 0.33705 0.24561 0.0
O296 O 0.94842 0.39986 0.07432 0.0
O297 O 0.97031 0.35793 0.14294 0.0
H298 H 1.00723 0.46809 0.98397 0.0
O299 O 0.07193 0.42342 0.13369 0.0
O300 O 0.06006 0.4589 0.06018 0.0
O301 O 1.00869 0.50304 0.19331 0.0
O302 O 0.99863 0.55881 0.12673 0.0
C303 C 0.09014 0.43182 0.08848 0.0
H304 H 0.84201 0.5851 0.98778 0.0
H305 H 0.96282 0.48487 0.91076 0.0
H306 H 0.09986 0.41571 0.30052 0.0
H307 H 0.95318 0.31251 0.33138 0.0
C308 C 0.06324 0.03726 0.46275 0.0
N309 N 0.07301 0.93436 0.35735 0.0
C310 C 0.019 0.94969 0.36297 0.0
C311 C 0.98594 0.93871 0.32993 0.0
C312 C 1.0083 0.9103 0.29163 0.0
C313 C 0.06437 0.89566 0.286 0.0
C314 C 0.09623 0.90845 0.31935 0.0
Zn315 Zn 0.10942 0.93253 0.41646 0.0
C316 C 0.21212 0.98739 0.40903 0.0
N317 N 0.14272 0.93178 0.5557 0.0
C318 C 0.1173 0.95522 0.59462 0.0
C319 C 0.19072 0.9036 0.55696 0.0
C320 C 0.21493 0.89773 0.59817 0.0
C321 C 0.19301 0.92622 0.63691 0.0
C322 C 0.14252 0.95398 0.63565 0.0
Zn323 Zn 0.11464 0.93988 0.492 0.0
O324 O 0.07206 1.00757 0.42854 0.0
C325 C 0.01457 0.88085 0.49452 0.0
O326 O 0.08122 1.02079 0.502 0.0
H327 H 0.21229 0.88755 0.52531 0.0
H328 H 1.00007 0.9674 0.39481 0.0
H329 H 0.07911 0.97735 0.59284 0.0
O330 O 0.03991 0.88803 0.45125 0.0
O331 O 0.03548 0.90056 0.5271 0.0
H332 H 0.13876 0.89583 0.31597 0.0
O333 O 0.14762 0.85989 0.48216 0.0
O334 O 0.14872 0.85745 0.40428 0.0
O335 O 0.19451 0.97785 0.45506 0.0
O336 O 0.18095 0.9758 0.37991 0.0
C337 C 0.16115 0.83592 0.44469 0.0
H338 H 0.94347 0.95196 0.33432 0.0
H339 H 0.08378 0.87562 0.25547 0.0
H340 H 0.25282 0.87444 0.59798 0.0
H341 H 0.1242 0.97728 0.66437 0.0
C342 C 0.94264 0.70523 0.45814 0.0
N343 N 0.06513 0.5908 0.47759 0.0
C344 C 0.07087 0.61197 0.51892 0.0
C345 C 0.1215 0.63352 0.52376 0.0
C346 C 0.16545 0.63535 0.48476 0.0
C347 C 0.16085 0.60524 0.44643 0.0
C348 C 0.10981 0.58252 0.44377 0.0
Zn349 Zn 0.98848 0.59284 0.45783 0.0
C350 C 0.89225 0.57306 0.54567 0.0
N351 N 0.83691 0.60736 0.40771 0.0
C352 C 0.83537 0.65661 0.37682 0.0
C353 C 0.79555 0.56912 0.41567 0.0
C354 C 0.75065 0.5799 0.39174 0.0
C355 C 0.74837 0.63062 0.36 0.0
C356 C 0.79098 0.66936 0.35276 0.0
Zn357 Zn 0.90801 0.59423 0.43407 0.0
O358 O 0.98728 0.6797 0.46167 0.0
C359 C 0.99521 0.61272 0.34197 0.0
O360 O 0.90419 0.68015 0.44495 0.0
H361 H 0.79814 0.53001 0.43947 0.0
H362 H 0.03511 0.61888 0.54525 0.0
H363 H 0.8695 0.68584 0.3693 0.0
O364 O 0.02702 0.60823 0.37427 0.0
O365 O 0.94426 0.61116 0.35784 0.0
H366 H 0.10481 0.56447 0.41168 0.0
O367 O 0.91273 0.50596 0.42821 0.0
O368 O 0.99001 0.50673 0.45755 0.0
O369 O 0.86813 0.57595 0.50853 0.0
O370 O 0.94485 0.57801 0.53761 0.0
C371 C 0.95302 0.47968 0.44407 0.0
H372 H 0.1234 0.65721 0.5535 0.0
H373 H 0.19378 0.60634 0.41547 0.0
H374 H 0.71836 0.54862 0.39725 0.0
H375 H 0.79043 0.70836 0.32823 0.0
C376 C 0.37647 0.96259 0.67433 0.0
N377 N 0.45186 1.0177 0.52587 0.0
C378 C 0.40684 0.0514 0.52593 0.0
C379 C 0.37963 0.0612 0.48495 0.0
C380 C 0.39828 0.03675 0.44233 0.0
C381 C 0.4471 1.00573 0.44187 0.0
C382 C 0.47286 0.99641 0.48391 0.0
Zn383 Zn 0.47487 0.97804 0.59472 0.0
C384 C 0.50758 0.05237 0.67161 0.0
N385 N 0.5124 0.88862 0.72705 0.0
C386 C 0.47742 0.85116 0.75738 0.0
C387 C 0.55881 0.90703 0.74056 0.0
C388 C 0.56699 0.89485 0.78854 0.0
C389 C 0.52743 0.86285 0.82191 0.0
C390 C 0.48463 0.83703 0.80572 0.0
Zn391 Zn 0.49123 0.93167 0.6664 0.0
O392 O 0.39351 0.98566 0.63071 0.0
C393 C 0.45121 0.85517 0.60403 0.0
O394 O 0.40973 0.93758 0.69979 0.0
H395 H 0.58622 0.93681 0.71589 0.0
H396 H 0.38908 0.06744 0.55908 0.0
H397 H 0.44107 0.83705 0.74561 0.0
O398 O 0.44842 0.89986 0.57432 0.0
O399 O 0.47031 0.85793 0.64294 0.0
H400 H 0.50723 0.96809 0.48397 0.0
O401 O 0.57193 0.92342 0.63369 0.0
O402 O 0.56006 0.9589 0.56018 0.0
O403 O 0.50869 1.00304 0.69331 0.0
O404 O 0.49863 0.05881 0.62673 0.0
C405 C 0.59014 0.93182 0.58848 0.0
H406 H 0.34201 0.0851 0.48778 0.0
H407 H 0.46282 0.98487 0.41076 0.0
H408 H 0.59986 0.91571 0.80052 0.0
H409 H 0.45317 0.81251 0.83138 0.0
C410 C 0.70198 0.58788 0.63907 0.0
N411 N 0.60191 0.60158 0.52327 0.0
C412 C 0.61709 0.55435 0.5035 0.0
C413 C 0.61043 0.55093 0.45564 0.0
C414 C 0.58844 0.59681 0.42833 0.0
C415 C 0.56709 0.64168 0.45166 0.0
C416 C 0.5763 0.64427 0.4986 0.0
Zn417 Zn 0.59784 0.6067 0.59464 0.0
C418 C 0.55532 0.50662 0.65597 0.0
N419 N 0.56298 0.63977 0.74107 0.0
C420 C 0.58833 0.67505 0.76438 0.0
C421 C 0.51262 0.61711 0.76149 0.0
C422 C 0.48723 0.62701 0.80761 0.0
C423 C 0.51378 0.66031 0.83375 0.0
C424 C 0.56434 0.68582 0.81109 0.0
Zn425 Zn 0.58809 0.62857 0.66912 0.0
O426 O 0.68296 0.58667 0.59934 0.0
C427 C 0.62849 0.72906 0.60502 0.0
O428 O 0.66976 0.60022 0.67671 0.0
H429 H 0.49148 0.59133 0.74189 0.0
H430 H 0.63516 0.51994 0.52447 0.0
H431 H 0.6273 0.69436 0.74705 0.0
O432 O 0.62279 0.69484 0.57561 0.0
O433 O 0.61803 0.71254 0.65069 0.0
H434 H 0.56262 0.68083 0.51527 0.0
O435 O 0.51133 0.65977 0.66014 0.0
O436 O 0.51451 0.62749 0.59167 0.0
O437 O 0.55714 0.54305 0.68465 0.0
O438 O 0.5743 0.51987 0.61118 0.0
C439 C 0.48961 0.65491 0.62343 0.0
H440 H 0.62749 0.51545 0.43872 0.0
H441 H 0.5505 0.67792 0.43152 0.0
H442 H 0.44899 0.60548 0.82423 0.0
H443 H 0.58692 0.71054 0.8307 0.0
C444 C 0.56324 0.53726 0.96275 0.0
N445 N 0.57301 0.43436 0.85735 0.0
C446 C 0.519 0.44969 0.86297 0.0
C447 C 0.48594 0.43871 0.82993 0.0
C448 C 0.5083 0.4103 0.79163 0.0
C449 C 0.56437 0.39566 0.786 0.0
C450 C 0.59623 0.40845 0.81935 0.0
Zn451 Zn 0.60942 0.43253 0.91646 0.0
C452 C 0.71212 0.48739 0.90903 0.0
N453 N 0.64272 0.43178 0.0557 0.0
C454 C 0.6173 0.45522 0.09462 0.0
C455 C 0.69072 0.4036 0.05696 0.0
C456 C 0.71493 0.39774 0.09817 0.0
C457 C 0.69301 0.42622 0.13691 0.0
C458 C 0.64252 0.45398 0.13565 0.0
Zn459 Zn 0.61464 0.43988 0.992 0.0
O460 O 0.57206 0.50757 0.92854 0.0
C461 C 0.51457 0.38085 0.99452 0.0
O462 O 0.58122 0.52079 1.002 0.0
H463 H 0.71229 0.38755 1.02531 0.0
H464 H 0.50007 0.4674 0.89481 0.0
H465 H 0.57911 0.47735 0.09284 0.0
O466 O 0.53991 0.38803 0.95125 0.0
O467 O 0.53548 0.40056 1.0271 0.0
H468 H 0.63876 0.39583 0.81597 0.0
O469 O 0.64762 0.35989 0.98216 0.0
O470 O 0.64872 0.35745 0.90428 0.0
O471 O 0.69451 0.47785 0.95506 0.0
O472 O 0.68095 0.4758 0.87991 0.0
C473 C 0.66115 0.33592 0.9447 0.0
H474 H 0.44347 0.45196 0.83432 0.0
H475 H 0.58378 0.37562 0.75547 0.0
H476 H 0.75282 0.37444 0.09798 0.0
H477 H 0.6242 0.47728 0.16437 0.0
C478 C 0.44264 0.20523 0.95814 0.0
N479 N 0.56513 0.0908 0.97759 0.0
C480 C 0.57087 0.11196 1.01892 0.0
C481 C 0.6215 0.13352 1.02376 0.0
C482 C 0.66545 0.13535 0.98476 0.0
C483 C 0.66085 0.10524 0.94643 0.0
C484 C 0.60981 0.08252 0.94377 0.0
Zn485 Zn 0.48848 0.09284 0.95783 0.0
C486 C 0.39225 0.07306 1.04567 0.0
N487 N 0.33691 0.10736 0.90771 0.0
C488 C 0.33537 0.15661 0.87682 0.0
C489 C 0.29555 0.06912 0.91567 0.0
C490 C 0.25065 0.0799 0.89174 0.0
C491 C 0.24837 0.13062 0.86 0.0
C492 C 0.29098 0.16936 0.85276 0.0
Zn493 Zn 0.40801 0.09423 0.93407 0.0
O494 O 0.48728 0.1797 0.96167 0.0
C495 C 0.49521 0.11272 0.84197 0.0
O496 O 0.40419 0.18015 0.94495 0.0
H497 H 0.29814 0.03001 0.93947 0.0
H498 H 0.53511 0.11888 1.04525 0.0
H499 H 0.36951 0.18584 0.8693 0.0
O500 O 0.52702 0.10823 0.87427 0.0
O501 O 0.44426 0.11116 0.85784 0.0
H502 H 0.60481 0.06447 0.91168 0.0
O503 O 0.41273 1.00596 0.92821 0.0
O504 O 0.49002 1.00673 0.95755 0.0
O505 O 0.36813 0.07595 1.00853 0.0
O506 O 0.44485 0.078 1.03761 0.0
C507 C 0.45302 0.97968 0.94407 0.0
H508 H 0.6234 0.15721 0.0535 0.0
H509 H 0.69378 0.10634 0.91547 0.0
H510 H 0.21836 0.04862 0.89725 0.0
H511 H 0.29043 0.20836 0.82823 0.0
loop_
_geom_bond_atom_site_label_1
_geom_bond_atom_site_label_2
_geom_bond_distance
_geom_bond_site_symmetry_2
_ccdc_geom_bond_type
H0 C8 0.940 . S
H1 C11 0.940 . S
H2 C13 0.940 . S
H3 C14 0.940 . S
H4 C17 0.940 . S
H5 C19 0.940 . S
N6 N7 1.190 . S
N6 C10 1.477 . S
N7 N6 1.190 . S
N7 C16 1.477 1_655 S
C8 H0 0.940 . S
C8 C9 1.390 . S
C8 C10 1.322 . S
C9 C8 1.390 . S
C9 C13 1.370 . S
C10 N6 1.477 . S
C10 C8 1.322 . S
C10 C11 1.447 . S
C11 H1 0.940 . S
C11 C10 1.447 . S
C11 C12 1.373 . S
C12 C11 1.373 . S
C12 C13 1.417 . S
C13 H2 0.940 . S
C13 C9 1.370 . S
C13 C12 1.417 . S
C14 H3 0.940 . S
C14 C15 1.390 . S
C14 C16 1.322 . S
C15 C14 1.390 . S
C15 C19 1.370 . S
C16 N7 1.477 1_455 S
C16 C14 1.322 . S
C16 C17 1.447 . S
C17 H4 0.940 . S
C17 C16 1.447 . S
C17 C18 1.373 . S
C18 C17 1.373 . S
C18 C19 1.417 . S
C19 H5 0.940 . S
C19 C15 1.370 . S
C19 C18 1.417 . S
H20 C28 0.940 . S
H21 C31 0.940 . S
H22 C33 0.940 . S
H23 C34 0.940 . S
H24 C37 0.940 . S
H25 C39 0.940 . S
N26 N27 1.190 . S
N26 C30 1.477 . S
N27 N26 1.190 . S
N27 C36 1.471 1_655 S
C28 H20 0.940 . S
C28 C29 1.390 . S
C28 C30 1.322 . S
C29 C28 1.390 . S
C29 C33 1.370 . S
C30 N26 1.477 . S
C30 C28 1.322 . S
C30 C31 1.447 . S
C31 H21 0.940 . S
C31 C30 1.447 . S
C31 C32 1.373 . S
C32 C31 1.373 . S
C32 C33 1.417 . S
C33 H22 0.940 . S
C33 C29 1.370 . S
C33 C32 1.417 . S
C34 H23 0.940 . S
C34 C35 1.390 . S
C34 C36 1.322 . S
C35 C34 1.390 . S
C35 C39 1.370 . S
C36 N27 1.471 1_455 S
C36 C34 1.322 . S
C36 C37 1.447 . S
C37 H24 0.940 . S
C37 C36 1.447 . S
C37 C38 1.373 . S
C38 C37 1.373 . S
C38 C39 1.417 . S
C39 H25 0.940 . S
C39 C35 1.370 . S
C39 C38 1.417 . S
H40 C48 0.940 . S
H41 C51 0.940 . S
H42 C53 0.940 . S
H43 C54 0.940 1_545 S
H44 C57 0.940 . S
H45 C59 0.940 . S
N46 N47 1.190 . S
N46 C50 1.477 . S
N47 N46 1.190 . S
N47 C56 1.477 1_545 S
C48 H40 0.940 . S
C48 C49 1.390 . S
C48 C50 1.322 . S
C49 C48 1.390 . S
C49 C53 1.370 . S
C50 N46 1.477 . S
C50 C48 1.322 . S
C50 C51 1.447 . S
C51 H41 0.940 . S
C51 C50 1.447 . S
C51 C52 1.373 . S
C52 C51 1.373 . S
C52 C53 1.417 . S
C53 H42 0.940 . S
C53 C49 1.370 . S
C53 C52 1.417 . S
C54 H43 0.940 1_565 S
C54 C55 1.390 . S
C54 C56 1.322 . S
C55 C54 1.390 . S
C55 C59 1.370 . S
C56 N47 1.477 1_565 S
C56 C54 1.322 . S
C56 C57 1.447 . S
C57 H44 0.940 . S
C57 C56 1.447 . S
C57 C58 1.373 . S
C58 C57 1.373 . S
C58 C59 1.417 . S
C59 H45 0.940 . S
C59 C55 1.370 . S
C59 C58 1.417 . S
H60 C68 0.940 . S
H61 C71 0.940 . S
H62 C73 0.940 . S
H63 C74 0.940 . S
H64 C77 0.940 . S
H65 C79 0.940 . S
N66 N67 1.190 . S
N66 C70 1.477 . S
N67 N66 1.190 . S
N67 C76 1.477 . S
C68 H60 0.940 . S
C68 C69 1.390 . S
C68 C70 1.322 . S
C69 C68 1.390 . S
C69 C73 1.370 . S
C70 N66 1.477 . S
C70 C68 1.322 . S
C70 C71 1.447 . S
C71 H61 0.940 . S
C71 C70 1.447 . S
C71 C72 1.373 . S
C72 C71 1.373 . S
C72 C73 1.417 . S
C73 H62 0.940 . S
C73 C69 1.370 . S
C73 C72 1.417 . S
C74 H63 0.940 . S
C74 C75 1.390 . S
C74 C76 1.322 . S
C75 C74 1.390 . S
C75 C79 1.370 . S
C76 N67 1.477 . S
C76 C74 1.322 . S
C76 C77 1.447 . S
C77 H64 0.940 . S
C77 C76 1.447 . S
C77 C78 1.373 . S
C78 C77 1.373 . S
C78 C79 1.417 . S
C79 H65 0.940 . S
C79 C75 1.370 . S
C79 C78 1.417 . S
H80 C88 0.940 . S
H81 C91 0.940 . S
H82 C93 0.940 . S
H83 C94 0.940 . S
H84 C97 0.940 . S
H85 C99 0.940 . S
N86 N87 1.190 . S
N86 C90 1.477 . S
N87 N86 1.190 . S
N87 C96 1.477 1_556 S
C88 H80 0.940 . S
C88 C89 1.390 . S
C88 C90 1.322 . S
C89 C88 1.390 . S
C89 C93 1.370 . S
C90 N86 1.477 . S
C90 C88 1.322 . S
C90 C91 1.447 . S
C91 H81 0.940 . S
C91 C90 1.447 . S
C91 C92 1.373 . S
C92 C91 1.373 . S
C92 C93 1.417 . S
C93 H82 0.940 . S
C93 C89 1.370 . S
C93 C92 1.417 . S
C94 H83 0.940 . S
C94 C95 1.390 . S
C94 C96 1.322 . S
C95 C94 1.390 . S
C95 C99 1.370 . S
C96 N87 1.477 1_554 S
C96 C94 1.322 . S
C96 C97 1.447 . S
C97 H84 0.940 . S
C97 C96 1.447 . S
C97 C98 1.373 . S
C98 C97 1.373 . S
C98 C99 1.417 . S
C99 H85 0.940 . S
C99 C95 1.370 . S
C99 C98 1.417 . S
H100 C108 0.940 . S
H101 C111 0.940 . S
H102 C113 0.940 . S
H103 C114 0.940 . S
H104 C117 0.940 . S
H105 C119 0.940 . S
N106 N107 1.190 . S
N106 C110 1.477 . S
N107 N106 1.190 . S
N107 C116 1.477 . S
C108 H100 0.940 . S
C108 C109 1.390 . S
C108 C110 1.322 . S
C109 C108 1.390 . S
C109 C113 1.370 . S
C110 N106 1.477 . S
C110 C108 1.322 . S
C110 C111 1.447 . S
C111 H101 0.940 . S
C111 C110 1.447 . S
C111 C112 1.373 . S
C112 C111 1.373 . S
C112 C113 1.417 . S
C113 H102 0.940 . S
C113 C109 1.370 . S
C113 C112 1.417 . S
C114 H103 0.940 . S
C114 C115 1.390 . S
C114 C116 1.322 . S
C115 C114 1.390 . S
C115 C119 1.370 . S
C116 N107 1.477 . S
C116 C114 1.322 . S
C116 C117 1.447 . S
C117 H104 0.940 . S
C117 C116 1.447 . S
C117 C118 1.373 . S
C118 C117 1.373 . S
C118 C119 1.417 . S
C119 H105 0.940 . S
C119 C115 1.370 . S
C119 C118 1.417 . S
H120 C128 0.940 . S
H121 C131 0.940 . S
H122 C133 0.940 . S
H123 C134 0.940 . S
H124 C137 0.940 . S
H125 C139 0.940 . S
N126 N127 1.190 . S
N126 C130 1.477 . S
N127 N126 1.190 . S
N127 C136 1.477 . S
C128 H120 0.940 . S
C128 C129 1.390 . S
C128 C130 1.322 . S
C129 C128 1.390 . S
C129 C133 1.370 . S
C130 N126 1.477 . S
C130 C128 1.322 . S
C130 C131 1.447 . S
C131 H121 0.940 . S
C131 C130 1.447 . S
C131 C132 1.373 . S
C132 C131 1.373 . S
C132 C133 1.417 . S
C133 H122 0.940 . S
C133 C129 1.370 . S
C133 C132 1.417 . S
C134 H123 0.940 . S
C134 C135 1.390 . S
C134 C136 1.322 . S
C135 C134 1.390 . S
C135 C139 1.370 . S
C136 N127 1.477 . S
C136 C134 1.322 . S
C136 C137 1.447 . S
C137 H124 0.940 . S
C137 C136 1.447 . S
C137 C138 1.373 . S
C138 C137 1.373 . S
C138 C139 1.417 . S
C139 H125 0.940 . S
C139 C135 1.370 . S
C139 C138 1.417 . S
H140 C148 0.940 . S
H141 C151 0.940 . S
H142 C153 0.940 . S
H143 C154 0.940 . S
H144 C157 0.940 . S
H145 C159 0.940 . S
N146 N147 1.190 . S
N146 C150 1.477 . S
N147 N146 1.190 . S
N147 C156 1.477 . S
C148 H140 0.940 . S
C148 C149 1.390 . S
C148 C150 1.322 . S
C149 C148 1.390 . S
C149 C153 1.370 . S
C150 N146 1.477 . S
C150 C148 1.322 . S
C150 C151 1.447 . S
C151 H141 0.940 . S
C151 C150 1.447 . S
C151 C152 1.373 . S
C152 C151 1.373 . S
C152 C153 1.417 . S
C153 H142 0.940 . S
C153 C149 1.370 . S
C153 C152 1.417 . S
C154 H143 0.940 . S
C154 C155 1.390 . S
C154 C156 1.322 . S
C155 C154 1.390 . S
C155 C159 1.370 . S
C156 N147 1.477 . S
C156 C154 1.322 . S
C156 C157 1.447 . S
C157 H144 0.940 . S
C157 C156 1.447 . S
C157 C158 1.373 . S
C158 C157 1.373 . S
C158 C159 1.417 . S
C159 H145 0.940 . S
C159 C155 1.370 . S
C159 C158 1.417 . S
H160 C168 0.940 . S
H161 C171 0.940 . S
H162 C173 0.940 . S
H163 C174 0.940 . S
H164 C177 0.940 . S
H165 C179 0.940 . S
N166 N167 1.190 . S
N166 C170 1.477 . S
N167 N166 1.190 . S
N167 C176 1.477 . S
C168 H160 0.940 . S
C168 C169 1.390 . S
C168 C170 1.322 . S
C169 C168 1.390 . S
C169 C173 1.370 . S
C170 N166 1.477 . S
C170 C168 1.322 . S
C170 C171 1.447 . S
C171 H161 0.940 . S
C171 C170 1.447 . S
C171 C172 1.373 . S
C172 C171 1.373 . S
C172 C173 1.417 . S
C173 H162 0.940 . S
C173 C169 1.370 . S
C173 C172 1.417 . S
C174 H163 0.940 . S
C174 C175 1.390 . S
C174 C176 1.322 . S
C175 C174 1.390 . S
C175 C179 1.370 . S
C176 N167 1.477 . S
C176 C174 1.322 . S
C176 C177 1.447 . S
C177 H164 0.940 . S
C177 C176 1.447 . S
C177 C178 1.373 . S
C178 C177 1.373 . S
C178 C179 1.417 . S
C179 H165 0.940 . S
C179 C175 1.370 . S
C179 C178 1.417 . S
H180 C188 0.940 . S
H181 C191 0.940 . S
H182 C193 0.940 . S
H183 C194 0.940 . S
H184 C197 0.940 . S
H185 C199 0.940 . S
N186 N187 1.190 . S
N186 C190 1.477 . S
N187 N186 1.190 . S
N187 C196 1.477 . S
C188 H180 0.940 . S
C188 C189 1.390 . S
C188 C190 1.322 . S
C189 C188 1.390 . S
C189 C193 1.370 . S
C190 N186 1.477 . S
C190 C188 1.322 . S
C190 C191 1.447 . S
C191 H181 0.940 . S
C191 C190 1.447 . S
C191 C192 1.373 . S
C192 C191 1.373 . S
C192 C193 1.417 . S
C193 H182 0.940 . S
C193 C189 1.370 . S
C193 C192 1.417 . S
C194 H183 0.940 . S
C194 C195 1.390 . S
C194 C196 1.322 . S
C195 C194 1.390 . S
C195 C199 1.370 . S
C196 N187 1.477 . S
C196 C194 1.322 . S
C196 C197 1.447 . S
C197 H184 0.940 . S
C197 C196 1.447 . S
C197 C198 1.373 . S
C198 C197 1.373 . S
C198 C199 1.417 . S
C199 H185 0.940 . S
C199 C195 1.370 . S
C199 C198 1.417 . S
H200 C208 0.940 . S
H201 C211 0.941 . S
H202 C213 0.940 . S
H203 C214 0.940 . S
H204 C217 0.940 . S
H205 C219 0.940 . S
N206 N207 1.190 . S
N206 C210 1.477 1_565 S
N207 N206 1.190 . S
N207 C216 1.477 . S
C208 H200 0.940 . S
C208 C209 1.390 . S
C208 C210 1.322 . S
C209 C208 1.390 . S
C209 C213 1.370 . S
C210 N206 1.477 1_545 S
C210 C208 1.322 . S
C210 C211 1.447 . S
C211 H201 0.941 . S
C211 C210 1.447 . S
C211 C212 1.373 . S
C212 C211 1.373 . S
C212 C213 1.417 . S
C213 H202 0.940 . S
C213 C209 1.370 . S
C213 C212 1.417 . S
C214 H203 0.940 . S
C214 C215 1.390 . S
C214 C216 1.322 . S
C215 C214 1.390 . S
C215 C219 1.370 . S
C216 N207 1.477 . S
C216 C214 1.322 . S
C216 C217 1.447 . S
C217 H204 0.940 . S
C217 C216 1.447 . S
C217 C218 1.373 . S
C218 C217 1.373 . S
C218 C219 1.417 . S
C219 H205 0.940 . S
C219 C215 1.370 . S
C219 C218 1.417 . S
H220 C228 0.945 . S
H221 C231 0.940 . S
H222 C233 0.940 . S
H223 C234 0.940 . S
H224 C237 0.940 . S
H225 C239 0.940 . S
N226 N227 1.190 . S
N226 C230 1.477 1_554 S
N227 N226 1.190 . S
N227 C236 1.477 . S
C228 H220 0.945 . S
C228 C229 1.390 . S
C228 C230 1.322 . S
C229 C228 1.390 . S
C229 C233 1.370 . S
C230 N226 1.477 1_556 S
C230 C228 1.322 . S
C230 C231 1.447 . S
C231 H221 0.940 . S
C231 C230 1.447 . S
C231 C232 1.373 . S
C232 C231 1.373 . S
C232 C233 1.417 . S
C233 H222 0.940 . S
C233 C229 1.370 . S
C233 C232 1.417 . S
C234 H223 0.940 . S
C234 C235 1.390 . S
C234 C236 1.322 . S
C235 C234 1.390 . S
C235 C239 1.370 . S
C236 N227 1.477 . S
C236 C234 1.322 . S
C236 C237 1.447 . S
C237 H224 0.940 . S
C237 C236 1.447 . S
C237 C238 1.373 . S
C238 C237 1.373 . S
C238 C239 1.417 . S
C239 H225 0.940 . S
C239 C235 1.370 . S
C239 C238 1.417 . S
C240 O256 1.251 . S
C240 O258 1.254 . S
N241 C242 1.333 . S
N241 C246 1.307 . S
N241 Zn247 2.020 1_556 S
C242 N241 1.333 . S
C242 C243 1.379 1_545 S
C242 H260 0.952 . S
C243 C242 1.379 1_565 S
C243 C244 1.390 . S
C243 H270 0.949 . S
C244 C243 1.390 . S
C244 C245 1.357 . S
C245 C244 1.357 . S
C245 C246 1.370 1_565 S
C245 H271 0.950 . S
C246 N241 1.307 . S
C246 C245 1.370 1_545 S
C246 H264 0.948 . S
Zn247 N241 2.020 1_554 S
Zn247 O256 2.039 . S
Zn247 O262 2.034 . S
Zn247 O266 2.025 . S
Zn247 O268 2.024 1_545 S
C248 O267 1.246 1_565 S
C248 O268 1.249 . S
N249 C250 1.307 . S
N249 C251 1.333 1_455 S
N249 Zn255 2.020 . S
C250 N249 1.307 . S
C250 C254 1.370 . S
C250 H261 0.948 . S
C251 N249 1.333 1_655 S
C251 C252 1.379 . S
C251 H259 0.952 . S
C252 C251 1.379 . S
C252 C253 1.390 1_655 S
C252 H272 0.949 . S
C253 C252 1.390 1_455 S
C253 C254 1.357 . S
C254 C250 1.370 . S
C254 C253 1.357 . S
C254 H273 0.950 . S
Zn255 N249 2.020 . S
Zn255 O258 2.025 . S
Zn255 O263 2.024 . S
Zn255 O265 2.039 . S
Zn255 O267 2.034 . S
O256 C240 1.251 . S
O256 Zn247 2.039 . S
C257 O262 1.246 . S
C257 O263 1.249 . S
O258 C240 1.254 . S
O258 Zn255 2.025 . S
H259 C251 0.952 . S
H260 C242 0.952 . S
H261 C250 0.948 . S
O262 Zn247 2.034 . S
O262 C257 1.246 . S
O263 Zn255 2.024 . S
O263 C257 1.249 . S
H264 C246 0.948 . S
O265 Zn255 2.039 . S
O265 C269 1.251 . S
O266 Zn247 2.025 . S
O266 C269 1.254 . S
O267 C248 1.246 1_545 S
O267 Zn255 2.034 . S
O268 Zn247 2.024 1_565 S
O268 C248 1.249 . S
C269 O265 1.251 . S
C269 O266 1.254 . S
H270 C243 0.949 . S
H271 C245 0.950 . S
H272 C252 0.949 . S
H273 C254 0.950 . S
C274 O290 1.251 . S
C274 O292 1.254 . S
N275 C276 1.333 . S
N275 C280 1.307 . S
N275 Zn281 2.020 1_556 S
C276 N275 1.333 . S
C276 C277 1.379 . S
C276 H294 0.952 . S
C277 C276 1.379 . S
C277 C278 1.390 . S
C277 H304 0.949 . S
C278 C277 1.390 . S
C278 C279 1.357 . S
C279 C278 1.357 . S
C279 C280 1.370 . S
C279 H305 0.950 . S
C280 N275 1.307 . S
C280 C279 1.370 . S
C280 H298 0.948 . S
Zn281 N275 2.020 1_554 S
Zn281 O290 2.039 . S
Zn281 O296 2.034 . S
Zn281 O300 2.025 1_654 S
Zn281 O302 2.024 . S
C282 O301 1.246 . S
C282 O302 1.249 . S
N283 C284 1.307 . S
N283 C285 1.333 1_655 S
N283 Zn289 2.020 . S
C284 N283 1.307 . S
C284 C288 1.370 . S
C284 H295 0.948 . S
C285 N283 1.333 1_455 S
C285 C286 1.379 . S
C285 H293 0.952 . S
C286 C285 1.379 . S
C286 C287 1.390 1_455 S
C286 H306 0.949 . S
C287 C286 1.390 1_655 S
C287 C288 1.357 . S
C288 C284 1.370 . S
C288 C287 1.357 . S
C288 H307 0.950 . S
Zn289 N283 2.020 . S
Zn289 O292 2.025 . S
Zn289 O297 2.024 . S
Zn289 O299 2.039 1_655 S
Zn289 O301 2.034 . S
O290 C274 1.251 . S
O290 Zn281 2.039 . S
C291 O296 1.246 . S
C291 O297 1.249 . S
O292 C274 1.254 . S
O292 Zn289 2.025 . S
H293 C285 0.952 . S
H294 C276 0.952 . S
H295 C284 0.948 . S
O296 Zn281 2.034 . S
O296 C291 1.246 . S
O297 Zn289 2.024 . S
O297 C291 1.249 . S
H298 C280 0.948 . S
O299 Zn289 2.039 1_455 S
O299 C303 1.251 . S
O300 Zn281 2.025 1_456 S
O300 C303 1.254 1_556 S
O301 C282 1.246 . S
O301 Zn289 2.034 . S
O302 Zn281 2.024 . S
O302 C282 1.249 . S
C303 O299 1.251 . S
C303 O300 1.254 1_554 S
H304 C277 0.949 . S
H305 C279 0.950 . S
H306 C286 0.949 . S
H307 C288 0.950 . S
C308 O324 1.251 1_545 S
C308 O326 1.254 . S
N309 C310 1.333 . S
N309 C314 1.307 . S
N309 Zn315 2.020 . S
C310 N309 1.333 . S
C310 C311 1.379 . S
C310 H328 0.952 . S
C311 C310 1.379 . S
C311 C312 1.390 . S
C311 H338 0.949 1_455 S
C312 C311 1.390 . S
C312 C313 1.357 . S
C313 C312 1.357 . S
C313 C314 1.370 . S
C313 H339 0.950 . S
C314 N309 1.307 . S
C314 C313 1.370 . S
C314 H332 0.948 . S
Zn315 N309 2.020 . S
Zn315 O324 2.039 . S
Zn315 O330 2.034 . S
Zn315 O334 2.025 . S
Zn315 O336 2.024 . S
C316 O335 1.246 . S
C316 O336 1.249 . S
N317 C318 1.307 1_565 S
N317 C319 1.333 . S
N317 Zn323 2.020 . S
C318 N317 1.307 1_545 S
C318 C322 1.370 . S
C318 H329 0.948 . S
C319 N317 1.333 . S
C319 C320 1.379 . S
C319 H327 0.952 . S
C320 C319 1.379 . S
C320 C321 1.390 1_565 S
C320 H340 0.949 . S
C321 C320 1.390 1_545 S
C321 C322 1.357 . S
C322 C318 1.370 . S
C322 C321 1.357 . S
C322 H341 0.950 . S
Zn323 N317 2.020 . S
Zn323 O326 2.025 1_565 S
Zn323 O331 2.024 . S
Zn323 O333 2.039 . S
Zn323 O335 2.034 . S
O324 C308 1.251 1_565 S
O324 Zn315 2.039 . S
C325 O330 1.246 . S
C325 O331 1.249 . S
O326 C308 1.254 . S
O326 Zn323 2.025 1_545 S
H327 C319 0.952 . S
H328 C310 0.952 . S
H329 C318 0.948 . S
O330 Zn315 2.034 . S
O330 C325 1.246 . S
O331 Zn323 2.024 . S
O331 C325 1.249 . S
H332 C314 0.948 . S
O333 Zn323 2.039 . S
O333 C337 1.251 . S
O334 Zn315 2.025 . S
O334 C337 1.254 . S
O335 C316 1.246 . S
O335 Zn323 2.034 . S
O336 Zn315 2.024 . S
O336 C316 1.249 . S
C337 O333 1.251 . S
C337 O334 1.254 . S
H338 C311 0.949 1_655 S
H339 C313 0.950 . S
H340 C320 0.949 . S
H341 C322 0.950 . S
C342 O358 1.251 . S
C342 O360 1.254 . S
N343 C344 1.333 . S
N343 C348 1.307 . S
N343 Zn349 2.020 1_455 S
C344 N343 1.333 . S
C344 C345 1.379 . S
C344 H362 0.952 . S
C345 C344 1.379 . S
C345 C346 1.390 . S
C345 H372 0.949 . S
C346 C345 1.390 . S
C346 C347 1.357 . S
C347 C346 1.357 . S
C347 C348 1.370 . S
C347 H373 0.950 . S
C348 N343 1.307 . S
C348 C347 1.370 . S
C348 H366 0.948 . S
Zn349 N343 2.020 1_655 S
Zn349 O358 2.039 . S
Zn349 O364 2.034 1_655 S
Zn349 O368 2.025 1_655 S
Zn349 O370 2.024 . S
C350 O369 1.246 . S
C350 O370 1.249 . S
N351 C352 1.307 . S
N351 C353 1.333 . S
N351 Zn357 2.020 . S
C352 N351 1.307 . S
C352 C356 1.370 . S
C352 H363 0.948 . S
C353 N351 1.333 . S
C353 C354 1.379 . S
C353 H361 0.952 . S
C354 C353 1.379 . S
C354 C355 1.390 . S
C354 H374 0.949 . S
C355 C354 1.390 . S
C355 C356 1.357 . S
C356 C352 1.370 . S
C356 C355 1.357 . S
C356 H375 0.950 . S
Zn357 N351 2.020 . S
Zn357 O360 2.025 . S
Zn357 O365 2.024 . S
Zn357 O367 2.039 . S
Zn357 O369 2.034 . S
O358 C342 1.251 . S
O358 Zn349 2.039 . S
C359 O364 1.246 1_655 S
C359 O365 1.249 . S
O360 C342 1.254 . S
O360 Zn357 2.025 . S
H361 C353 0.952 . S
H362 C344 0.952 . S
H363 C352 0.948 . S
O364 Zn349 2.034 1_455 S
O364 C359 1.246 1_455 S
O365 Zn357 2.024 . S
O365 C359 1.249 . S
H366 C348 0.948 . S
O367 Zn357 2.039 . S
O367 C371 1.251 . S
O368 Zn349 2.025 1_455 S
O368 C371 1.254 1_455 S
O369 C350 1.246 . S
O369 Zn357 2.034 . S
O370 Zn349 2.024 . S
O370 C350 1.249 . S
C371 O367 1.251 . S
C371 O368 1.254 1_655 S
H372 C345 0.949 . S
H373 C347 0.950 . S
H374 C354 0.949 . S
H375 C356 0.950 . S
C376 O392 1.251 1_565 S
C376 O394 1.254 . S
N377 C378 1.333 . S
N377 C382 1.307 . S
N377 Zn383 2.020 1_545 S
C378 N377 1.333 . S
C378 C379 1.379 . S
C378 H396 0.952 . S
C379 C378 1.379 . S
C379 C380 1.390 . S
C379 H406 0.949 . S
C380 C379 1.390 . S
C380 C381 1.357 . S
C381 C380 1.357 . S
C381 C382 1.370 . S
C381 H407 0.950 . S
C382 N377 1.307 . S
C382 C381 1.370 . S
C382 H400 0.948 . S
Zn383 N377 2.020 1_565 S
Zn383 O392 2.039 1_565 S
Zn383 O398 2.034 . S
Zn383 O402 2.025 . S
Zn383 O404 2.024 1_565 S
C384 O403 1.246 . S
C384 O404 1.249 . S
N385 C386 1.307 . S
N385 C387 1.333 . S
N385 Zn391 2.020 . S
C386 N385 1.307 . S
C386 C390 1.370 . S
C386 H397 0.948 . S
C387 N385 1.333 . S
C387 C388 1.379 . S
C387 H395 0.952 . S
C388 C387 1.379 . S
C388 C389 1.390 . S
C388 H408 0.949 . S
C389 C388 1.390 . S
C389 C390 1.357 . S
C390 C386 1.370 . S
C390 C389 1.357 . S
C390 H409 0.950 . S
Zn391 N385 2.020 . S
Zn391 O394 2.025 . S
Zn391 O399 2.024 . S
Zn391 O401 2.039 . S
Zn391 O403 2.034 1_565 S
O392 C376 1.251 1_545 S
O392 Zn383 2.039 1_545 S
C393 O398 1.246 . S
C393 O399 1.249 . S
O394 C376 1.254 . S
O394 Zn391 2.025 . S
H395 C387 0.952 . S
H396 C378 0.952 . S
H397 C386 0.948 . S
O398 Zn383 2.034 . S
O398 C393 1.246 . S
O399 Zn391 2.024 . S
O399 C393 1.249 . S
H400 C382 0.948 . S
O401 Zn391 2.039 . S
O401 C405 1.251 . S
O402 Zn383 2.025 . S
O402 C405 1.254 . S
O403 C384 1.246 . S
O403 Zn391 2.034 1_545 S
O404 Zn383 2.024 1_545 S
O404 C384 1.249 . S
C405 O401 1.251 . S
C405 O402 1.254 . S
H406 C379 0.949 . S
H407 C381 0.950 . S
H408 C388 0.949 . S
H409 C390 0.950 . S
C410 O426 1.251 . S
C410 O428 1.254 . S
N411 C412 1.333 . S
N411 C416 1.307 . S
N411 Zn417 2.020 . S
C412 N411 1.333 . S
C412 C413 1.379 . S
C412 H430 0.952 . S
C413 C412 1.379 . S
C413 C414 1.390 . S
C413 H440 0.949 . S
C414 C413 1.390 . S
C414 C415 1.357 . S
C415 C414 1.357 . S
C415 C416 1.370 . S
C415 H441 0.950 . S
C416 N411 1.307 . S
C416 C415 1.370 . S
C416 H434 0.948 . S
Zn417 N411 2.020 . S
Zn417 O426 2.039 . S
Zn417 O432 2.034 . S
Zn417 O436 2.025 . S
Zn417 O438 2.024 . S
C418 O437 1.246 . S
C418 O438 1.249 . S
N419 C420 1.307 . S
N419 C421 1.333 . S
N419 Zn425 2.020 . S
C420 N419 1.307 . S
C420 C424 1.370 . S
C420 H431 0.948 . S
C421 N419 1.333 . S
C421 C422 1.379 . S
C421 H429 0.952 . S
C422 C421 1.379 . S
C422 C423 1.390 . S
C422 H442 0.949 . S
C423 C422 1.390 . S
C423 C424 1.357 . S
C424 C420 1.370 . S
C424 C423 1.357 . S
C424 H443 0.950 . S
Zn425 N419 2.020 . S
Zn425 O428 2.025 . S
Zn425 O433 2.024 . S
Zn425 O435 2.039 . S
Zn425 O437 2.034 . S
O426 C410 1.251 . S
O426 Zn417 2.039 . S
C427 O432 1.246 . S
C427 O433 1.249 . S
O428 C410 1.254 . S
O428 Zn425 2.025 . S
H429 C421 0.952 . S
H430 C412 0.952 . S
H431 C420 0.948 . S
O432 Zn417 2.034 . S
O432 C427 1.246 . S
O433 Zn425 2.024 . S
O433 C427 1.249 . S
H434 C416 0.948 . S
O435 Zn425 2.039 . S
O435 C439 1.251 . S
O436 Zn417 2.025 . S
O436 C439 1.254 . S
O437 C418 1.246 . S
O437 Zn425 2.034 . S
O438 Zn417 2.024 . S
O438 C418 1.249 . S
C439 O435 1.251 . S
C439 O436 1.254 . S
H440 C413 0.949 . S
H441 C415 0.950 . S
H442 C422 0.949 . S
H443 C424 0.950 . S
C444 O460 1.251 . S
C444 O462 1.254 . S
N445 C446 1.333 . S
N445 C450 1.307 . S
N445 Zn451 2.020 . S
C446 N445 1.333 . S
C446 C447 1.379 . S
C446 H464 0.952 . S
C447 C446 1.379 . S
C447 C448 1.390 . S
C447 H474 0.949 . S
C448 C447 1.390 . S
C448 C449 1.357 . S
C449 C448 1.357 . S
C449 C450 1.370 . S
C449 H475 0.950 . S
C450 N445 1.307 . S
C450 C449 1.370 . S
C450 H468 0.948 . S
Zn451 N445 2.020 . S
Zn451 O460 2.039 . S
Zn451 O466 2.034 . S
Zn451 O470 2.025 . S
Zn451 O472 2.024 . S
C452 O471 1.246 . S
C452 O472 1.249 . S
N453 C454 1.307 . S
N453 C455 1.333 . S
N453 Zn459 2.020 1_554 S
C454 N453 1.307 . S
C454 C458 1.370 . S
C454 H465 0.948 . S
C455 N453 1.333 . S
C455 C456 1.379 . S
C455 H463 0.952 . S
C456 C455 1.379 . S
C456 C457 1.390 . S
C456 H476 0.949 . S
C457 C456 1.390 . S
C457 C458 1.357 . S
C458 C454 1.370 . S
C458 C457 1.357 . S
C458 H477 0.950 . S
Zn459 N453 2.020 1_556 S
Zn459 O462 2.025 . S
Zn459 O467 2.024 . S
Zn459 O469 2.039 . S
Zn459 O471 2.034 . S
O460 C444 1.251 . S
O460 Zn451 2.039 . S
C461 O466 1.246 . S
C461 O467 1.249 . S
O462 C444 1.254 . S
O462 Zn459 2.025 . S
H463 C455 0.952 . S
H464 C446 0.952 . S
H465 C454 0.948 . S
O466 Zn451 2.034 . S
O466 C461 1.246 . S
O467 Zn459 2.024 . S
O467 C461 1.249 . S
H468 C450 0.948 . S
O469 Zn459 2.039 . S
O469 C473 1.251 . S
O470 Zn451 2.025 . S
O470 C473 1.254 . S
O471 C452 1.246 . S
O471 Zn459 2.034 . S
O472 Zn451 2.024 . S
O472 C452 1.249 . S
C473 O469 1.251 . S
C473 O470 1.254 . S
H474 C447 0.949 . S
H475 C449 0.950 . S
H476 C456 0.949 . S
H477 C458 0.950 . S
C478 O494 1.251 . S
C478 O496 1.254 . S
N479 C480 1.333 . S
N479 C484 1.307 . S
N479 Zn485 2.020 . S
C480 N479 1.333 . S
C480 C481 1.379 . S
C480 H498 0.952 . S
C481 C480 1.379 . S
C481 C482 1.390 . S
C481 H508 0.949 . S
C482 C481 1.390 . S
C482 C483 1.357 . S
C483 C482 1.357 . S
C483 C484 1.370 . S
C483 H509 0.950 1_556 S
C484 N479 1.307 . S
C484 C483 1.370 . S
C484 H502 0.948 . S
Zn485 N479 2.020 . S
Zn485 O494 2.039 . S
Zn485 O500 2.034 . S
Zn485 O504 2.025 1_545 S
Zn485 O506 2.038 . S
C486 O505 1.246 1_554 S
C486 O506 1.251 1_554 S
N487 C488 1.307 . S
N487 C489 1.333 1_545 S
N487 Zn493 2.020 . S
C488 N487 1.307 . S
C488 C492 1.370 . S
C488 H499 0.948 . S
C489 N487 1.333 1_565 S
C489 C490 1.379 . S
C489 H497 0.952 . S
C490 C489 1.379 . S
C490 C491 1.390 . S
C490 H510 0.949 . S
C491 C490 1.390 . S
C491 C492 1.357 1_565 S
C492 C488 1.370 . S
C492 C491 1.357 1_545 S
C492 H511 0.950 . S
Zn493 N487 2.020 . S
Zn493 O496 2.025 . S
Zn493 O501 2.024 . S
Zn493 O503 2.039 1_545 S
Zn493 O505 2.034 . S
O494 C478 1.251 . S
O494 Zn485 2.039 . S
C495 O500 1.246 . S
C495 O501 1.249 . S
O496 C478 1.254 . S
O496 Zn493 2.025 . S
H497 C489 0.952 . S
H498 C480 0.952 . S
H499 C488 0.948 . S
O500 Zn485 2.034 . S
O500 C495 1.246 . S
O501 Zn493 2.024 . S
O501 C495 1.249 . S
H502 C484 0.948 . S
O503 Zn493 2.039 1_565 S
O503 C507 1.251 . S
O504 Zn485 2.025 1_565 S
O504 C507 1.254 . S
O505 C486 1.246 1_556 S
O505 Zn493 2.034 . S
O506 Zn485 2.038 . S
O506 C486 1.251 1_556 S
C507 O503 1.251 . S
C507 O504 1.254 . S
H508 C481 0.949 . S
H509 C483 0.950 1_554 S
H510 C490 0.949 . S
H511 C492 0.950 . S
C18 C308 2.276 . S
C371 C9 2.550 . S
C248 C38 2.298 . S
C29 C282 2.490 . S
C52 C486 2.345 . S
C69 C457 1.269 . S
C380 C55 3.128 1_545 S
C78 C414 2.188 . S
C303 C98 2.916 . S
C346 C115 1.591 . S
C135 C325 2.746 1_655 S
C112 C439 2.335 . S
C444 C158 2.277 . S
C507 C149 2.551 . S
C178 C418 2.298 . S
C384 C169 2.491 . S
C192 C350 2.344 . S
C215 C321 1.268 1_565 S
C278 C195 3.128 . S
C212 C244 2.189 1_545 S
C405 C132 2.916 . S
C482 C229 1.591 . S
C89 C461 2.746 . S
C238 C269 2.334 1_655 S
C253 C15 1.984 . S
C12 C287 2.514 . S
C312 C35 1.535 . S
C359 C32 4.064 . S
C49 C240 2.660 . S
C72 C274 2.729 . S
C316 C58 2.067 . S
C75 C355 1.389 . S
C95 C257 2.949 . S
C337 C118 2.193 . S
C138 C342 2.757 . S
C109 C393 3.015 . S
C423 C155 1.982 . S
C152 C389 2.515 . S
C175 C448 1.535 . S
C172 C495 4.064 . S
C189 C410 2.660 . S
C376 C218 2.729 . S
C198 C452 2.067 . S
C491 C209 1.390 1_565 S
C427 C129 2.949 . S
C473 C232 2.193 . S
C478 C92 2.757 . S
C235 C291 3.015 . S
