# Generated by pormake.
# Topology apo, (3,6)-cn, num edge types: 1
# Building blocks:
#     Node 0, Type 0, BuildingBlock: ESEHIV_clean_linker_0, # of connection points: 3
#     Node 1, Type 0, BuildingBlock: ESEHIV_clean_linker_0, # of connection points: 3
#     Node 2, Type 0, BuildingBlock: ESEHIV_clean_linker_0, # of connection points: 3
#     Node 3, Type 0, BuildingBlock: ESEHIV_clean_linker_0, # of connection points: 3
#     Node 4, Type 0, BuildingBlock: ESEHIV_clean_linker_0, # of connection points: 3
#     Node 5, Type 0, BuildingBlock: ESEHIV_clean_linker_0, # of connection points: 3
#     Node 6, Type 0, BuildingBlock: ESEHIV_clean_linker_0, # of connection points: 3
#     Node 7, Type 0, BuildingBlock: ESEHIV_clean_linker_0, # of connection points: 3
#     Node 8, Type 1, BuildingBlock: KUMJIN_clean_sbu_1, # of connection points: 6
#     Node 9, Type 1, BuildingBlock: KUMJIN_clean_sbu_1, # of connection points: 6
#     Node 10, Type 1, BuildingBlock: KUMJIN_clean_sbu_1, # of connection points: 6
#     Node 11, Type 1, BuildingBlock: KUMJIN_clean_sbu_1, # of connection points: 6
#     Edge 12, Type (0, 1), BuildingBlock: CIFDUS_clean_linker_0, # of connection points: 2
#     Edge 13, Type (0, 1), BuildingBlock: CIFDUS_clean_linker_0, # of connection points: 2
#     Edge 14, Type (0, 1), BuildingBlock: CIFDUS_clean_linker_0, # of connection points: 2
#     Edge 15, Type (0, 1), BuildingBlock: CIFDUS_clean_linker_0, # of connection points: 2
#     Edge 16, Type (0, 1), BuildingBlock: CIFDUS_clean_linker_0, # of connection points: 2
#     Edge 17, Type (0, 1), BuildingBlock: CIFDUS_clean_linker_0, # of connection points: 2
#     Edge 18, Type (0, 1), BuildingBlock: CIFDUS_clean_linker_0, # of connection points: 2
#     Edge 19, Type (0, 1), BuildingBlock: CIFDUS_clean_linker_0, # of connection points: 2
#     Edge 20, Type (0, 1), BuildingBlock: CIFDUS_clean_linker_0, # of connection points: 2
#     Edge 21, Type (0, 1), BuildingBlock: CIFDUS_clean_linker_0, # of connection points: 2
#     Edge 22, Type (0, 1), BuildingBlock: CIFDUS_clean_linker_0, # of connection points: 2
#     Edge 23, Type (0, 1), BuildingBlock: CIFDUS_clean_linker_0, # of connection points: 2
#     Edge 24, Type (0, 1), BuildingBlock: CIFDUS_clean_linker_0, # of connection points: 2
#     Edge 25, Type (0, 1), BuildingBlock: CIFDUS_clean_linker_0, # of connection points: 2
#     Edge 26, Type (0, 1), BuildingBlock: CIFDUS_clean_linker_0, # of connection points: 2
#     Edge 27, Type (0, 1), BuildingBlock: CIFDUS_clean_linker_0, # of connection points: 2
#     Edge 28, Type (0, 1), BuildingBlock: CIFDUS_clean_linker_0, # of connection points: 2
#     Edge 29, Type (0, 1), BuildingBlock: CIFDUS_clean_linker_0, # of connection points: 2
#     Edge 30, Type (0, 1), BuildingBlock: CIFDUS_clean_linker_0, # of connection points: 2
#     Edge 31, Type (0, 1), BuildingBlock: CIFDUS_clean_linker_0, # of connection points: 2
#     Edge 32, Type (0, 1), BuildingBlock: CIFDUS_clean_linker_0, # of connection points: 2
#     Edge 33, Type (0, 1), BuildingBlock: CIFDUS_clean_linker_0, # of connection points: 2
#     Edge 34, Type (0, 1), BuildingBlock: CIFDUS_clean_linker_0, # of connection points: 2
#     Edge 35, Type (0, 1), BuildingBlock: CIFDUS_clean_linker_0, # of connection points: 2
# Relax obj value: 0.007
# Max RMSD: 0.124
# Mean RMSD: 0.094
data_MOF--net-apo--node1-KUMJIN_clean_sbu_1--node2-ESEHIV_clean_linker_0--edge1-CIFDUS_clean_linker_0
_symmetry_space_group_name_H-M    P1
_symmetry_Int_Tables_number       1
_symmetry_cell_setting            triclinic
loop_
_symmetry_equiv_pos_as_xyz
'x, y, z'
_cell_length_a     19.839935
_cell_length_b     34.513563
_cell_length_c     45.011937
_cell_angle_alpha  90.153686
_cell_angle_beta   89.82817
_cell_angle_gamma 90.494884
loop_
_atom_site_label
_atom_site_type_symbol
_atom_site_fract_x
_atom_site_fract_y
_atom_site_fract_z
_atom_type_partial_charge
H0 H 0.32293 0.43349 0.44042 0.0
H1 H 0.25919 0.39269 0.35473 0.0
H2 H 0.21631 0.32419 0.43189 0.0
C3 C 0.29748 0.41171 0.4271 0.0
C4 C 0.27101 0.37781 0.44054 0.0
C5 C 0.29343 0.41708 0.39616 0.0
C6 C 0.26237 0.38856 0.37856 0.0
C7 C 0.23499 0.35495 0.39132 0.0
C8 C 0.23942 0.34975 0.4222 0.0
H9 H 0.16953 0.06601 0.92643 0.0
H10 H 0.24521 0.12967 0.8517 0.0
H11 H 0.26528 0.17761 0.93971 0.0
C12 C 0.19516 0.09145 0.91776 0.0
C13 C 0.21593 0.12138 0.93721 0.0
C14 C 0.20485 0.09455 0.88699 0.0
C15 C 0.2382 0.12715 0.87553 0.0
C16 C 0.2611 0.15695 0.89433 0.0
C17 C 0.24932 0.15418 0.92522 0.0
H18 H 0.90186 0.09485 0.60298 0.0
H19 H 0.78058 0.13619 0.67523 0.0
H20 H 0.80375 0.2048 0.59582 0.0
C21 C 0.86895 0.11657 0.61244 0.0
C22 C 0.85209 0.1493 0.59556 0.0
C23 C 0.84476 0.11237 0.64166 0.0
C24 C 0.80238 0.14094 0.65346 0.0
C25 C 0.78843 0.17526 0.63789 0.0
C26 C 0.8129 0.17877 0.60849 0.0
H27 H 0.60876 0.39698 0.11735 0.0
H28 H 0.73899 0.36641 0.1894 0.0
H29 H 0.74505 0.30124 0.10779 0.0
C30 C 0.64746 0.37854 0.12649 0.0
C31 C 0.67349 0.34801 0.10929 0.0
C32 C 0.67141 0.38542 0.15536 0.0
C33 C 0.72104 0.36127 0.167 0.0
C34 C 0.74844 0.33103 0.15008 0.0
C35 C 0.7244 0.32452 0.12111 0.0
H36 H 0.60671 0.58536 0.60104 0.0
H37 H 0.70904 0.69536 0.59346 0.0
H38 H 0.70061 0.63652 0.67773 0.0
C39 C 0.63451 0.60911 0.61117 0.0
C40 C 0.65007 0.60737 0.64149 0.0
C41 C 0.6554 0.64053 0.59357 0.0
C42 C 0.69318 0.67071 0.6067 0.0
C43 C 0.70993 0.66918 0.63708 0.0
C44 C 0.68881 0.6373 0.65424 0.0
H45 H 0.79912 0.9389 0.08978 0.0
H46 H 0.7431 0.89568 0.17562 0.0
H47 H 0.69858 0.82788 0.09804 0.0
C48 C 0.77742 0.9159 0.10313 0.0
C49 C 0.74924 0.88257 0.0895 0.0
C50 C 0.77476 0.92063 0.13418 0.0
C51 C 0.74412 0.89195 0.1517 0.0
C52 C 0.71553 0.85861 0.13886 0.0
C53 C 0.71977 0.85385 0.10787 0.0
H54 H 0.19057 0.93588 0.43555 0.0
H55 H 0.28419 0.82358 0.43892 0.0
H56 H 0.27429 0.88549 0.35645 0.0
C57 C 0.21626 0.9121 0.42473 0.0
C58 C 0.23044 0.91422 0.39417 0.0
C59 C 0.23584 0.87944 0.44126 0.0
C60 C 0.26856 0.84879 0.42651 0.0
C61 C 0.28177 0.85041 0.39589 0.0
C62 C 0.26319 0.88349 0.38001 0.0
H63 H 0.32829 0.5779 0.93578 0.0
H64 H 0.21128 0.60903 0.85927 0.0
H65 H 0.21347 0.68253 0.93686 0.0
C66 C 0.2935 0.59716 0.92479 0.0
C67 C 0.27106 0.63023 0.93997 0.0
C68 C 0.27242 0.58914 0.89558 0.0
C69 C 0.22886 0.61531 0.88154 0.0
C70 C 0.20757 0.64943 0.89599 0.0
C71 C 0.22806 0.65616 0.92551 0.0
Eu72 Eu 0.12651 0.13479 0.23449 0.0
C73 C 0.80786 0.16684 0.26285 0.0
N74 N 0.86626 0.1813 0.27395 0.0
C75 C 0.82602 0.24604 0.26777 0.0
C76 C 0.75658 0.19151 0.2528 0.0
C77 C 0.87511 0.22025 0.27768 0.0
C78 C 0.76696 0.23163 0.25477 0.0
C79 C 0.73578 0.11093 0.25456 0.0
C80 C 0.79781 0.12727 0.2635 0.0
C81 C 0.68557 0.1351 0.24306 0.0
C82 C 0.69605 0.17535 0.24209 0.0
Eu83 Eu 0.9507 0.13604 0.28577 0.0
N84 N 0.8472 0.105 0.27488 0.0
C85 C 0.72544 0.07105 0.25844 0.0
C86 C 0.83623 0.06659 0.28039 0.0
C87 C 0.77549 0.0489 0.27191 0.0
H88 H 0.92101 0.23142 0.28752 0.0
H89 H 0.7675 0.01822 0.27555 0.0
H90 H 0.25815 0.10685 0.27394 0.0
H91 H 0.08618 0.27774 0.1832 0.0
H92 H 0.87541 0.0495 0.29048 0.0
H93 H 0.67847 0.05732 0.25186 0.0
H94 H 0.07747 0.2069 0.18626 0.0
H95 H 0.83395 0.27698 0.26996 0.0
H96 H 0.63783 0.12309 0.23567 0.0
H97 H 0.65627 0.19377 0.23393 0.0
H98 H 0.35025 0.13646 0.30373 0.0
H99 H 0.72901 0.25163 0.24712 0.0
H100 H 0.15962 0.3139 0.21806 0.0
N101 N 0.22 0.16098 0.25982 0.0
C102 C 0.22742 0.20003 0.25973 0.0
C103 C 0.31597 0.15467 0.29152 0.0
C104 C 0.27844 0.21823 0.27661 0.0
C105 C 0.26422 0.13801 0.27461 0.0
C106 C 0.3226 0.19501 0.29284 0.0
N107 N 0.13805 0.20273 0.22526 0.0
C108 C 0.10691 0.22213 0.20275 0.0
C109 C 0.19293 0.26221 0.24065 0.0
C110 C 0.18451 0.22163 0.24227 0.0
C111 C 0.15466 0.28272 0.22005 0.0
C112 C 0.11304 0.26243 0.2004 0.0
H113 H 0.36237 0.20788 0.30615 0.0
H114 H 0.322 0.27341 0.28983 0.0
H115 H 0.24753 0.31198 0.25806 0.0
O116 O 0.19084 0.14017 0.1949 0.0
O117 O 0.1249 0.14875 0.28417 0.0
O118 O 0.02887 0.18398 0.28702 0.0
O119 O 0.18819 0.0866 0.21899 0.0
O120 O 0.02975 0.15431 0.21277 0.0
O121 O 0.9892 0.18169 0.25456 0.0
O122 O 0.99424 0.12437 0.3295 0.0
O123 O 0.94622 0.09154 0.248 0.0
O124 O 0.04227 0.09554 0.21724 0.0
O125 O 0.89105 0.14283 0.32642 0.0
O126 O 0.00853 0.0798 0.28306 0.0
O127 O 0.12201 0.09199 0.27293 0.0
C128 C 0.09071 0.17752 0.29567 0.0
C129 C 0.20018 0.08225 0.1663 0.0
C130 C 0.19904 0.07989 0.11166 0.0
C131 C 0.18052 0.04053 0.11316 0.0
C132 C 0.1833 0.04259 0.16681 0.0
C133 C 0.17314 0.02209 0.14048 0.0
C134 C 0.20936 0.10067 0.13842 0.0
C135 C 0.98382 0.17498 0.22615 0.0
C136 C 0.20801 0.10393 0.19479 0.0
C137 C 0.28394 0.25881 0.27659 0.0
C138 C 0.24128 0.28077 0.25862 0.0
C139 C 0.98177 0.08163 0.22417 0.0
C140 C 0.95075 0.16105 0.36966 0.0
C141 C 0.9398 0.17555 0.42281 0.0
C142 C 0.97437 0.21076 0.4181 0.0
C143 C 0.98282 0.19695 0.36547 0.0
C144 C 0.92828 0.15065 0.39834 0.0
C145 C 0.9953 0.22142 0.38959 0.0
C146 C 0.07314 0.07295 0.28688 0.0
C147 C 0.94048 0.13457 0.3442 0.0
H148 H 0.17286 0.02374 0.09306 0.0
H149 H 0.17708 0.02729 0.18763 0.0
H150 H 0.15944 0.99168 0.14125 0.0
H151 H 0.22336 0.13106 0.13753 0.0
H152 H 0.98362 0.23056 0.43638 0.0
H153 H 0.99781 0.20608 0.34349 0.0
H154 H 0.90237 0.12321 0.40164 0.0
H155 H 0.02074 0.24893 0.38613 0.0
Eu156 Eu 0.43957 0.36407 0.73774 0.0
C157 C 0.72341 0.41149 0.79643 0.0
N158 N 0.69173 0.37643 0.79649 0.0
C159 C 0.7969 0.3449 0.78697 0.0
C160 C 0.79302 0.41471 0.79033 0.0
C161 C 0.72798 0.34325 0.7935 0.0
C162 C 0.82938 0.38085 0.78485 0.0
C163 C 0.71868 0.48071 0.80581 0.0
C164 C 0.6869 0.44407 0.80413 0.0
C165 C 0.78733 0.48428 0.79853 0.0
C166 C 0.82441 0.45136 0.79078 0.0
Eu167 Eu 0.57426 0.37673 0.80593 0.0
N168 N 0.62035 0.43981 0.81053 0.0
C169 C 0.68069 0.5125 0.81522 0.0
C170 C 0.58425 0.47008 0.82169 0.0
C171 C 0.61343 0.50702 0.82365 0.0
H172 H 0.70415 0.31549 0.79696 0.0
H173 H 0.58417 0.53118 0.83178 0.0
H174 H 0.30594 0.405 0.77001 0.0
H175 H 0.47647 0.21373 0.70209 0.0
H176 H 0.53277 0.4657 0.82874 0.0
H177 H 0.70323 0.54113 0.81679 0.0
H178 H 0.50193 0.28349 0.70452 0.0
H179 H 0.82512 0.31845 0.78409 0.0
H180 H 0.81252 0.51225 0.79939 0.0
H181 H 0.87769 0.45442 0.78587 0.0
H182 H 0.1964 0.38505 0.79172 0.0
H183 H 0.88292 0.38206 0.78008 0.0
H184 H 0.37269 0.18786 0.72562 0.0
N185 N 0.33341 0.34771 0.75803 0.0
C186 C 0.31434 0.30982 0.75629 0.0
C187 C 0.22933 0.36359 0.78202 0.0
C188 C 0.25258 0.29711 0.76853 0.0
C189 C 0.29145 0.37478 0.76988 0.0
C190 C 0.21005 0.32454 0.78159 0.0
N191 N 0.41751 0.29685 0.73163 0.0
C192 C 0.45843 0.27251 0.7161 0.0
C193 C 0.34036 0.24398 0.74156 0.0
C194 C 0.35801 0.28362 0.74306 0.0
C195 C 0.3844 0.21851 0.72725 0.0
C196 C 0.44321 0.23296 0.71409 0.0
H197 H 0.1621 0.31593 0.7912 0.0
H198 H 0.18844 0.24719 0.777 0.0
H199 H 0.26518 0.20069 0.75333 0.0
O200 O 0.42234 0.35365 0.69062 0.0
O201 O 0.42251 0.34017 0.78452 0.0
O202 O 0.52569 0.31825 0.79796 0.0
O203 O 0.37647 0.40318 0.71144 0.0
O204 O 0.5453 0.34187 0.72839 0.0
O205 O 0.59403 0.32626 0.77382 0.0
O206 O 0.53063 0.37948 0.85041 0.0
O207 O 0.5706 0.42478 0.77166 0.0
O208 O 0.53839 0.39497 0.72791 0.0
O209 O 0.63318 0.36052 0.84503 0.0
O210 O 0.46776 0.4006 0.80991 0.0
O211 O 0.43295 0.42064 0.76345 0.0
C212 C 0.46024 0.31365 0.79672 0.0
C213 C 0.32329 0.37609 0.66849 0.0
C214 C 0.27261 0.37412 0.61904 0.0
C215 C 0.21608 0.355 0.63106 0.0
C216 C 0.26616 0.35729 0.68014 0.0
C217 C 0.2127 0.347 0.66148 0.0
C218 C 0.32595 0.38491 0.63796 0.0
C219 C 0.58981 0.32308 0.74452 0.0
C220 C 0.38325 0.38323 0.68698 0.0
C221 C 0.23549 0.25757 0.76753 0.0
C222 C 0.27927 0.23108 0.7541 0.0
C223 C 0.56817 0.4232 0.74257 0.0
C224 C 0.57259 0.33657 0.88649 0.0
C225 C 0.58566 0.31534 0.93781 0.0
C226 C 0.54479 0.28285 0.93165 0.0
C227 C 0.53296 0.30365 0.8806 0.0
C228 C 0.59957 0.34207 0.91501 0.0
C229 C 0.51904 0.27695 0.9031 0.0
C230 C 0.43665 0.42533 0.7925 0.0
C231 C 0.58398 0.36626 0.86361 0.0
H232 H 0.1745 0.34637 0.61689 0.0
H233 H 0.26339 0.34995 0.70346 0.0
H234 H 0.1689 0.33228 0.67054 0.0
H235 H 0.37042 0.39893 0.62874 0.0
H236 H 0.53343 0.26185 0.94883 0.0
H237 H 0.51242 0.29886 0.85873 0.0
H238 H 0.63001 0.36762 0.91964 0.0
H239 H 0.48795 0.25173 0.89843 0.0
Eu240 Eu 0.09015 0.86689 0.73297 0.0
C241 C 0.77294 0.85946 0.76346 0.0
N242 N 0.81752 0.88916 0.76727 0.0
C243 C 0.73614 0.93433 0.7494 0.0
C244 C 0.70804 0.86609 0.75197 0.0
C245 C 0.79996 0.92631 0.76083 0.0
C246 C 0.69005 0.90408 0.74483 0.0
C247 C 0.74773 0.79068 0.76708 0.0
C248 C 0.79238 0.82224 0.77105 0.0
C249 C 0.6832 0.79711 0.75543 0.0
C250 C 0.66338 0.83472 0.74794 0.0
Eu251 Eu 0.92472 0.87283 0.78577 0.0
N252 N 0.85596 0.81678 0.7814 0.0
C253 C 0.76952 0.75356 0.77472 0.0
C254 C 0.87677 0.78087 0.78974 0.0
C255 C 0.83415 0.74869 0.78629 0.0
H256 H 0.83498 0.94989 0.76481 0.0
H257 H 0.85115 0.72016 0.79257 0.0
H258 H 0.20693 0.8244 0.77497 0.0
H259 H 0.08695 0.01487 0.68848 0.0
H260 H 0.92621 0.77684 0.79897 0.0
H261 H 0.73677 0.72853 0.77193 0.0
H262 H 0.05761 0.94553 0.68968 0.0
H263 H 0.72249 0.96383 0.7442 0.0
H264 H 0.64826 0.7732 0.75212 0.0
H265 H 0.61339 0.83923 0.73903 0.0
H266 H 0.3081 0.84312 0.80403 0.0
H267 H 0.64065 0.91038 0.73595 0.0
H268 H 0.17532 0.04072 0.72194 0.0
N269 N 0.18861 0.8817 0.76018 0.0
C270 C 0.20987 0.91928 0.75962 0.0
C271 C 0.2808 0.8648 0.79172 0.0
C272 C 0.26649 0.93132 0.7762 0.0
C273 C 0.22384 0.85425 0.77526 0.0
C274 C 0.30188 0.90354 0.79241 0.0
N275 N 0.11946 0.93332 0.72697 0.0
C276 C 0.0922 0.95689 0.70597 0.0
C277 C 0.19452 0.98505 0.74216 0.0
C278 C 0.1735 0.9459 0.74307 0.0
C279 C 0.16076 0.01044 0.72327 0.0
C280 C 0.11055 0.99604 0.70451 0.0
H281 H 0.34563 0.91167 0.80544 0.0
H282 H 0.32849 0.98047 0.7892 0.0
H283 H 0.26591 0.02743 0.75921 0.0
O284 O 0.11927 0.8693 0.68566 0.0
O285 O 0.09645 0.88581 0.78166 0.0
O286 O 0.00145 0.92121 0.78496 0.0
O287 O 0.17067 0.8302 0.71598 0.0
O288 O 0.99486 0.89365 0.71402 0.0
O289 O 0.95131 0.92306 0.75548 0.0
O290 O 0.92407 0.86026 0.83367 0.0
O291 O 0.90959 0.84053 0.74208 0.0
O292 O 0.01372 0.81829 0.7258 0.0
O293 O 0.86923 0.90916 0.81676 0.0
O294 O 0.00924 0.8322 0.80083 0.0
O295 O 0.06889 0.81255 0.75893 0.0
C296 C 0.06366 0.91524 0.79277 0.0
C297 C 0.20953 0.82943 0.66476 0.0
C298 C 0.23503 0.82234 0.61195 0.0
C299 C 0.28981 0.79869 0.61912 0.0
C300 C 0.26498 0.80593 0.67142 0.0
C301 C 0.30494 0.79084 0.64871 0.0
C302 C 0.19531 0.8381 0.63485 0.0
C303 C 0.95568 0.9197 0.72644 0.0
C304 C 0.16569 0.84329 0.68907 0.0
C305 C 0.2856 0.97058 0.77631 0.0
C306 C 0.24971 0.99737 0.75935 0.0
C307 C 0.94728 0.81685 0.72638 0.0
C308 C 0.82555 0.8797 0.86002 0.0
C309 C 0.77818 0.87789 0.91055 0.0
C310 C 0.71378 0.87225 0.89787 0.0
C311 C 0.76113 0.87279 0.84834 0.0
C312 C 0.83413 0.88148 0.89108 0.0
C313 C 0.70574 0.8691 0.86718 0.0
C314 C 0.05072 0.80834 0.78689 0.0
C315 C 0.88278 0.88832 0.83998 0.0
H316 H 0.32095 0.78634 0.60176 0.0
H317 H 0.27726 0.79895 0.69421 0.0
H318 H 0.34738 0.77266 0.65405 0.0
H319 H 0.15245 0.85594 0.62931 0.0
H320 H 0.66877 0.871 0.91144 0.0
H321 H 0.75324 0.87134 0.82461 0.0
H322 H 0.88438 0.88599 0.8998 0.0
H323 H 0.65597 0.86464 0.85792 0.0
Eu324 Eu 0.41335 0.6239 0.23327 0.0
C325 C 0.70658 0.67388 0.24975 0.0
N326 N 0.67849 0.63966 0.25839 0.0
C327 C 0.76747 0.60514 0.23394 0.0
C328 C 0.76462 0.67498 0.23159 0.0
C329 C 0.71034 0.60561 0.25222 0.0
C330 C 0.79399 0.63994 0.22309 0.0
C331 C 0.70955 0.74399 0.25372 0.0
C332 C 0.67959 0.70792 0.2606 0.0
C333 C 0.76525 0.74537 0.23442 0.0
C334 C 0.79268 0.71092 0.22333 0.0
Eu335 Eu 0.57692 0.64365 0.28641 0.0
N336 N 0.62468 0.70569 0.27852 0.0
C337 C 0.68295 0.77748 0.26672 0.0
C338 C 0.60054 0.73789 0.2925 0.0
C339 C 0.62877 0.77435 0.28653 0.0
H340 H 0.69213 0.57859 0.26141 0.0
H341 H 0.60851 0.79998 0.29705 0.0
H342 H 0.28412 0.64788 0.27718 0.0
H343 H 0.45829 0.48586 0.17669 0.0
H344 H 0.55822 0.73536 0.30758 0.0
H345 H 0.70444 0.80576 0.26195 0.0
H346 H 0.46461 0.55689 0.1833 0.0
H347 H 0.79141 0.57795 0.22851 0.0
H348 H 0.78827 0.77285 0.22842 0.0
H349 H 0.8367 0.71235 0.20906 0.0
H350 H 0.19599 0.61504 0.30747 0.0
H351 H 0.83858 0.63951 0.20913 0.0
H352 H 0.38588 0.44642 0.21001 0.0
N353 N 0.32327 0.59528 0.26006 0.0
C354 C 0.31636 0.55621 0.25802 0.0
C355 C 0.22975 0.59816 0.29376 0.0
C356 C 0.2676 0.53623 0.27502 0.0
C357 C 0.27924 0.61667 0.27656 0.0
C358 C 0.22456 0.55772 0.29334 0.0
N359 N 0.40229 0.55705 0.22176 0.0
C360 C 0.43497 0.53975 0.19863 0.0
C361 C 0.35104 0.49597 0.23519 0.0
C362 C 0.3579 0.53643 0.23858 0.0
C363 C 0.38951 0.47747 0.21332 0.0
C364 C 0.43049 0.49962 0.19449 0.0
H365 H 0.1865 0.54344 0.30683 0.0
H366 H 0.2266 0.47967 0.28617 0.0
H367 H 0.2994 0.44439 0.2511 0.0
O368 O 0.35754 0.6164 0.19161 0.0
O369 O 0.41469 0.60556 0.28213 0.0
O370 O 0.52284 0.58583 0.28982 0.0
O371 O 0.34928 0.66977 0.21611 0.0
O372 O 0.51689 0.60526 0.21718 0.0
O373 O 0.57241 0.58717 0.25979 0.0
O374 O 0.56851 0.65673 0.33367 0.0
O375 O 0.53955 0.68826 0.25333 0.0
O376 O 0.50696 0.65203 0.21344 0.0
O377 O 0.65833 0.62945 0.31726 0.0
O378 O 0.47674 0.66719 0.30285 0.0
O379 O 0.40868 0.67828 0.26165 0.0
C380 C 0.45777 0.58137 0.29379 0.0
C381 C 0.35623 0.67409 0.1637 0.0
C382 C 0.35106 0.68183 0.10972 0.0
C383 C 0.39964 0.71163 0.11165 0.0
C384 C 0.40452 0.70415 0.16496 0.0
C385 C 0.42588 0.72276 0.13911 0.0
C386 C 0.32911 0.66329 0.13597 0.0
C387 C 0.56005 0.58322 0.23119 0.0
C388 C 0.33818 0.65227 0.1909 0.0
C389 C 0.26304 0.49566 0.27295 0.0
C390 C 0.30466 0.47557 0.25305 0.0
C391 C 0.53739 0.6826 0.2246 0.0
C392 C 0.62195 0.61415 0.36601 0.0
C393 C 0.62771 0.60384 0.41954 0.0
C394 C 0.60201 0.56612 0.41542 0.0
C395 C 0.59679 0.57633 0.36229 0.0
C396 C 0.63812 0.62768 0.39462 0.0
C397 C 0.58714 0.55242 0.38693 0.0
C398 C 0.42735 0.68545 0.28929 0.0
C399 C 0.62535 0.64085 0.34069 0.0
H400 H 0.41702 0.72653 0.09187 0.0
H401 H 0.42647 0.71306 0.18591 0.0
H402 H 0.46334 0.7457 0.14035 0.0
H403 H 0.29259 0.63979 0.13472 0.0
H404 H 0.59367 0.5472 0.43427 0.0
H405 H 0.58362 0.56553 0.34045 0.0
H406 H 0.65647 0.65712 0.3976 0.0
H407 H 0.56727 0.52336 0.38397 0.0
H408 H 0.1046 0.93726 0.38009 0.0
H409 H 0.3145 0.96547 0.3673 0.0
H410 H 0.28468 0.01719 0.33268 0.0
H411 H 0.19911 0.05265 0.30486 0.0
H412 H 0.98868 0.02293 0.31637 0.0
H413 H 0.01845 0.97337 0.35235 0.0
C414 C 0.14344 0.95527 0.37002 0.0
C415 C 0.21142 0.9482 0.37635 0.0
C416 C 0.12593 0.98419 0.34958 0.0
C417 C 0.2618 0.97092 0.36283 0.0
C418 C 0.24478 1.00022 0.34295 0.0
C419 C 0.15967 0.03524 0.31505 0.0
C420 C 0.09177 0.04149 0.30763 0.0
C421 C 0.17704 0.00677 0.33585 0.0
C422 C 0.04145 0.01876 0.32142 0.0
C423 C 0.05834 0.99043 0.34216 0.0
H424 H 0.30828 0.58219 0.83687 0.0
H425 H 0.29333 0.51665 0.91829 0.0
H426 H 0.34196 0.46055 0.89356 0.0
H427 H 0.39162 0.43041 0.84936 0.0
H428 H 0.40213 0.49429 0.76722 0.0
H429 H 0.35076 0.55034 0.79154 0.0
C430 C 0.31449 0.55548 0.84915 0.0
C431 C 0.29766 0.55405 0.87962 0.0
C432 C 0.34164 0.52293 0.83464 0.0
C433 C 0.3071 0.51911 0.89507 0.0
C434 C 0.33453 0.48682 0.88089 0.0
C435 C 0.38243 0.45655 0.83672 0.0
C436 C 0.40101 0.45825 0.80655 0.0
C437 C 0.35265 0.48852 0.85079 0.0
C438 C 0.38806 0.49217 0.79043 0.0
C439 C 0.35898 0.52429 0.80438 0.0
H440 H 0.71833 0.56457 0.68231 0.0
H441 H 0.52362 0.57606 0.64095 0.0
H442 H 0.48186 0.5194 0.66781 0.0
H443 H 0.50066 0.46603 0.70284 0.0
H444 H 0.6948 0.45401 0.74396 0.0
H445 H 0.73667 0.5115 0.71795 0.0
C446 C 0.66659 0.55489 0.67947 0.0
C447 C 0.62434 0.57436 0.65952 0.0
C448 C 0.64279 0.52219 0.695 0.0
C449 C 0.55751 0.56125 0.65585 0.0
C450 C 0.53347 0.52891 0.67125 0.0
C451 C 0.55218 0.47604 0.7059 0.0
C452 C 0.59444 0.45646 0.72563 0.0
C453 C 0.57578 0.50896 0.69069 0.0
C454 C 0.66093 0.4695 0.72963 0.0
C455 C 0.685 0.50212 0.71449 0.0
H456 H 0.90411 0.94736 0.13396 0.0
H457 H 0.70616 0.97156 0.16854 0.0
H458 H 0.75195 0.02476 0.19858 0.0
H459 H 0.84922 0.06225 0.21683 0.0
H460 H 0.0482 0.0357 0.18454 0.0
H461 H 0.00149 0.98625 0.15151 0.0
C462 C 0.8711 0.9648 0.14771 0.0
C463 C 0.80197 0.95583 0.14901 0.0
C464 C 0.89812 0.9947 0.16554 0.0
C465 C 0.75958 0.97813 0.16722 0.0
C466 C 0.78576 0.00839 0.18446 0.0
C467 C 0.88244 0.04528 0.20293 0.0
C468 C 0.95234 0.05228 0.20365 0.0
C469 C 0.85515 0.01645 0.18426 0.0
C470 C 0.99431 0.03094 0.18454 0.0
C471 C 0.96759 0.00253 0.16565 0.0
H472 H 0.85644 0.03528 0.62722 0.0
H473 H 0.88215 0.11616 0.69972 0.0
H474 H 0.91319 0.06357 0.7327 0.0
H475 H 0.93562 0.9949 0.74107 0.0
H476 H 0.91616 0.91369 0.66864 0.0
H477 H 0.88013 0.96588 0.63564 0.0
C478 C 0.86924 0.04137 0.65017 0.0
C479 C 0.86607 0.07965 0.66097 0.0
C480 C 0.88785 0.01087 0.66915 0.0
C481 C 0.8827 0.08694 0.69088 0.0
C482 C 0.9008 0.05689 0.7098 0.0
C483 C 0.92245 0.98854 0.71818 0.0
C484 C 0.9279 0.95051 0.70734 0.0
C485 C 0.90335 0.01875 0.69924 0.0
C486 C 0.91209 0.9428 0.67748 0.0
C487 C 0.89175 0.97264 0.6586 0.0
H488 H 0.65839 0.46013 0.13788 0.0
H489 H 0.63196 0.38491 0.21346 0.0
H490 H 0.60219 0.44035 0.24458 0.0
H491 H 0.58281 0.51024 0.25016 0.0
H492 H 0.60354 0.58496 0.17413 0.0
H493 H 0.63816 0.52997 0.14343 0.0
C494 C 0.64526 0.45589 0.16107 0.0
C495 C 0.64727 0.41856 0.17336 0.0
C496 C 0.62846 0.48788 0.17884 0.0
C497 C 0.63113 0.41347 0.20356 0.0
C498 C 0.6143 0.44512 0.22137 0.0
C499 C 0.59577 0.51442 0.22699 0.0
C500 C 0.5907 0.55133 0.21432 0.0
C501 C 0.61326 0.48249 0.2093 0.0
C502 C 0.60721 0.5566 0.18424 0.0
C503 C 0.62645 0.5252 0.16667 0.0
H504 H 0.38452 0.42017 0.35141 0.0
H505 H 0.26324 0.49266 0.40791 0.0
H506 H 0.30088 0.55028 0.38038 0.0
H507 H 0.36723 0.57977 0.33927 0.0
H508 H 0.49381 0.507 0.28537 0.0
H509 H 0.45487 0.44968 0.31241 0.0
C510 C 0.36681 0.44867 0.35778 0.0
C511 C 0.32128 0.45231 0.38159 0.0
C512 C 0.38926 0.48149 0.34212 0.0
C513 C 0.29882 0.48931 0.3898 0.0
C514 C 0.31995 0.52214 0.37394 0.0
C515 C 0.38611 0.55128 0.33361 0.0
C516 C 0.43318 0.54735 0.31043 0.0
C517 C 0.36486 0.51857 0.34991 0.0
C518 C 0.45796 0.51054 0.3033 0.0
C519 C 0.4356 0.47782 0.31872 0.0
H520 H 0.22796 0.01674 0.88523 0.0
H521 H 0.11572 0.1074 0.84279 0.0
H522 H 0.06224 0.05996 0.80979 0.0
H523 H 0.045 0.99256 0.7939 0.0
H524 H 0.16141 0.90179 0.83386 0.0
H525 H 0.21622 0.94921 0.86676 0.0
C526 C 0.19184 0.02591 0.8687 0.0
C527 C 0.1753 0.06535 0.86649 0.0
C528 C 0.1621 0.99849 0.84944 0.0
C529 C 0.12915 0.07715 0.84479 0.0
C530 C 0.09848 0.05007 0.82601 0.0
C531 C 0.08218 0.98321 0.80994 0.0
C532 C 0.09854 0.9438 0.81189 0.0
C533 C 0.1141 0.01066 0.8283 0.0
C534 C 0.14787 0.93205 0.83218 0.0
C535 C 0.17907 0.95912 0.85097 0.0
H536 H 0.29624 0.13931 0.98546 0.0
H537 H 0.09799 0.0968 0.96218 0.0
H538 H 0.07363 0.08338 1.01415 0.0
H539 H 0.11121 0.07837 0.06573 0.0
H540 H 0.30779 0.12118 0.09042 0.0
H541 H 0.32947 0.14074 0.03881 0.0
C542 C 0.24737 0.1277 0.99183 0.0
C543 C 0.19972 0.11822 0.96965 0.0
C544 C 0.2333 0.12005 0.02211 0.0
C545 C 0.13649 0.10334 0.9785 0.0
C546 C 0.12223 0.09584 1.00832 0.0
C547 C 0.15851 0.09244 0.05987 0.0
C548 C 0.20803 0.098 0.08182 0.0
C549 C 0.17074 0.10315 0.03021 0.0
C550 C 0.26873 0.1167 0.07397 0.0
C551 C 0.28131 0.12758 0.04439 0.0
H552 H 0.26813 0.43191 0.48587 0.0
H553 H 0.28675 0.30884 0.47006 0.0
H554 H 0.28719 0.29709 0.52323 0.0
H555 H 0.28043 0.3212 0.57472 0.0
H556 H 0.27273 0.44403 0.59106 0.0
H557 H 0.27161 0.45646 0.53737 0.0
C558 C 0.27344 0.40252 0.49387 0.0
C559 C 0.27598 0.37135 0.47347 0.0
C560 C 0.27581 0.39586 0.52477 0.0
C561 C 0.28232 0.33351 0.48481 0.0
C562 C 0.28331 0.32666 0.51539 0.0
C563 C 0.27886 0.35066 0.5664 0.0
C564 C 0.27624 0.38169 0.58663 0.0
C565 C 0.27945 0.35752 0.53558 0.0
C566 C 0.27481 0.41976 0.57578 0.0
C567 C 0.27399 0.42681 0.54513 0.0
H568 H 0.74436 0.34447 0.05765 0.0
H569 H 0.54314 0.33554 0.09343 0.0
H570 H 0.49817 0.32355 0.04361 0.0
H571 H 0.51611 0.31616 0.98974 0.0
H572 H 0.71629 0.32897 0.95346 0.0
H573 H 0.76187 0.33899 1.00345 0.0
C574 C 0.69076 0.33971 0.05442 0.0
C575 C 0.64703 0.34065 0.07904 0.0
C576 C 0.6652 0.33365 0.02566 0.0
C577 C 0.57757 0.335 0.0747 0.0
C578 C 0.55193 0.3281 0.04628 0.0
C579 C 0.56972 0.32098 0.99289 0.0
C580 C 0.61293 0.32163 0.96809 0.0
C581 C 0.59524 0.32742 0.02159 0.0
C582 C 0.68215 0.32847 0.97229 0.0
C583 C 0.70818 0.33409 1.00083 0.0
H584 H 0.78312 0.14399 0.54356 0.0
H585 H 0.9814 0.16428 0.57932 0.0
H586 H 0.0268 0.17331 0.52905 0.0
H587 H 0.00938 0.17693 0.47488 0.0
H588 H 0.8123 0.1534 0.43872 0.0
H589 H 0.76716 0.14362 0.48891 0.0
C590 C 0.83623 0.15033 0.54018 0.0
C591 C 0.87896 0.15382 0.56495 0.0
C592 C 0.86211 0.15471 0.51115 0.0
C593 C 0.94777 0.16163 0.56049 0.0
C594 C 0.97362 0.16677 0.53179 0.0
C595 C 0.95663 0.16945 0.47803 0.0
C596 C 0.91419 0.16599 0.45311 0.0
C597 C 0.93123 0.16357 0.50695 0.0
C598 C 0.8461 0.15592 0.4575 0.0
C599 C 0.82019 0.15059 0.48621 0.0
H600 H 0.83978 0.91006 0.04731 0.0
H601 H 0.6521 0.84613 0.05571 0.0
H602 H 0.64997 0.83552 1.00266 0.0
H603 H 0.69929 0.84427 0.9538 0.0
H604 H 0.87438 0.91849 0.94322 0.0
H605 H 0.88356 0.92433 0.99698 0.0
C606 C 0.79779 0.89424 0.03768 0.0
C607 C 0.74727 0.87811 0.05626 0.0
C608 C 0.7946 0.88973 1.00651 0.0
C609 C 0.69367 0.85758 0.04274 0.0
C610 C 0.6917 0.85183 1.01209 0.0
C611 C 0.73879 0.86262 0.96284 0.0
C612 C 0.7857 0.88097 0.94376 0.0
C613 C 0.74177 0.86777 0.99377 0.0
C614 C 0.83787 0.9032 0.9568 0.0
C615 C 0.84281 0.90704 0.98776 0.0
H616 H 0.73729 0.65462 0.54565 0.0
H617 H 0.53228 0.62583 0.56968 0.0
H618 H 0.50491 0.61365 0.51771 0.0
H619 H 0.54154 0.60524 0.46606 0.0
H620 H 0.74508 0.63497 0.44094 0.0
H621 H 0.77074 0.65308 0.49249 0.0
C622 C 0.68634 0.64654 0.53936 0.0
C623 C 0.63717 0.64056 0.56154 0.0
C624 C 0.67093 0.63927 0.50929 0.0
C625 C 0.57132 0.62998 0.55307 0.0
C626 C 0.5556 0.62297 0.52337 0.0
C627 C 0.59135 0.61594 0.47191 0.0
C628 C 0.64165 0.61831 0.44997 0.0
C629 C 0.60543 0.62641 0.50142 0.0
C630 C 0.70569 0.63283 0.45759 0.0
C631 C 0.72035 0.64307 0.48703 0.0
H632 H 0.19686 0.64433 0.98982 0.0
H633 H 0.40125 0.63475 0.95808 0.0
H634 H 0.44398 0.64903 1.00786 0.0
H635 H 0.42338 0.66515 0.06023 0.0
H636 H 0.21951 0.67245 0.09296 0.0
H637 H 0.17621 0.65767 0.04319 0.0
C638 C 0.25068 0.64548 0.99392 0.0
C639 C 0.29595 0.6387 0.97038 0.0
C640 C 0.27487 0.65308 0.02276 0.0
C641 C 0.36557 0.63976 0.97592 0.0
C642 C 0.38997 0.64797 1.00433 0.0
C643 C 0.36946 0.66348 0.05643 0.0
C644 C 0.32465 0.67014 0.08014 0.0
C645 C 0.34513 0.65477 0.02789 0.0
C646 C 0.25494 0.66727 0.07506 0.0
C647 C 0.23023 0.65905 0.04659 0.0
H648 H 0.19564 0.81692 0.47372 0.0
H649 H 0.25216 0.93739 0.48257 0.0
H650 H 0.24862 0.93161 0.53668 0.0
H651 H 0.2418 0.89023 0.58156 0.0
H652 H 0.19478 0.76879 0.57178 0.0
H653 H 0.18282 0.7768 0.51807 0.0
C654 C 0.20723 0.84196 0.48745 0.0
C655 C 0.22503 0.8774 0.47401 0.0
C656 C 0.20727 0.83811 0.51847 0.0
C657 C 0.23799 0.90979 0.49223 0.0
C658 C 0.23656 0.90642 0.52322 0.0
C659 C 0.22774 0.86583 0.56759 0.0
C660 C 0.21902 0.829 0.58035 0.0
C661 C 0.22296 0.87048 0.53659 0.0
C662 C 0.20163 0.79735 0.56223 0.0
C663 C 0.19501 0.80192 0.53159 0.0
H664 H 0.25571 0.27694 0.38916 0.0
H665 H 0.13777 0.36797 0.35023 0.0
H666 H 0.08289 0.32111 0.31727 0.0
H667 H 0.06868 0.25447 0.29927 0.0
H668 H 0.18836 0.16321 0.33663 0.0
H669 H 0.24262 0.20981 0.37035 0.0
C670 C 0.21759 0.28633 0.3736 0.0
C671 C 0.20061 0.3258 0.37217 0.0
C672 C 0.18683 0.25925 0.35439 0.0
C673 C 0.15186 0.33777 0.35163 0.0
C674 C 0.12041 0.31101 0.33282 0.0
C675 C 0.10644 0.24481 0.31493 0.0
C676 C 0.12434 0.20554 0.3157 0.0
C677 C 0.13757 0.27174 0.33396 0.0
C678 C 0.17392 0.19338 0.33571 0.0
C679 C 0.20473 0.21997 0.35501 0.0
H680 H 0.37041 0.15748 0.85825 0.0
H681 H 0.22506 0.233 0.89904 0.0
H682 H 0.271 0.28816 0.87095 0.0
H683 H 0.35128 0.31445 0.83358 0.0
H684 H 0.50109 0.2392 0.79568 0.0
H685 H 0.45419 0.18421 0.82334 0.0
C686 C 0.34938 0.18616 0.8612 0.0
C687 C 0.29461 0.19128 0.8807 0.0
C688 C 0.37627 0.21758 0.84513 0.0
C689 C 0.26776 0.22851 0.88441 0.0
C690 C 0.2936 0.25991 0.86814 0.0
C691 C 0.37318 0.28589 0.83135 0.0
C692 C 0.42908 0.28059 0.81251 0.0
C693 C 0.34739 0.25471 0.84818 0.0
C694 C 0.45796 0.24376 0.81006 0.0
C695 C 0.43129 0.21242 0.82591 0.0
H696 H 0.78445 0.19283 0.69751 0.0
H697 H 0.70662 0.23132 0.61299 0.0
H698 H 0.64499 0.28258 0.63827 0.0
H699 H 0.60878 0.31472 0.68456 0.0
H700 H 0.66771 0.26606 0.76877 0.0
H701 H 0.74029 0.22027 0.7433 0.0
C702 C 0.75275 0.21144 0.68432 0.0
C703 C 0.75039 0.20729 0.65306 0.0
C704 C 0.71409 0.23945 0.69907 0.0
C705 C 0.7109 0.23359 0.63688 0.0
C706 C 0.67484 0.26286 0.6514 0.0
C707 C 0.63741 0.29411 0.69744 0.0
C708 C 0.63418 0.29499 0.7288 0.0
C709 C 0.67556 0.26582 0.68252 0.0
C710 C 0.67126 0.2676 0.74485 0.0
C711 C 0.71204 0.24081 0.73021 0.0
H712 H 0.76177 0.25227 0.14676 0.0
H713 H 0.85561 0.35528 0.18312 0.0
H714 H 0.93515 0.31579 0.21044 0.0
H715 H 0.97495 0.25223 0.22591 0.0
H716 H 0.88978 0.1489 0.18699 0.0
H717 H 0.80947 0.18815 0.15874 0.0
C718 C 0.8004 0.26606 0.16022 0.0
C719 C 0.80184 0.30666 0.1633 0.0
C720 C 0.84699 0.24315 0.17558 0.0
C721 C 0.8522 0.32406 0.18094 0.0
C722 C 0.89794 0.30156 0.1965 0.0
C723 C 0.93922 0.23849 0.21093 0.0
C724 C 0.9376 0.1981 0.20832 0.0
C725 C 0.89508 0.26116 0.19435 0.0
C726 C 0.8915 0.18019 0.18905 0.0
C727 C 0.84578 0.20256 0.17302 0.0
H728 H 0.83603 0.66777 0.65994 0.0
H729 H 0.66577 0.74232 0.64698 0.0
H730 H 0.72333 0.79464 0.67417 0.0
H731 H 0.82199 0.81879 0.70199 0.0
H732 H 0.99509 0.74532 0.71238 0.0
H733 H 0.93711 0.69311 0.68565 0.0
C734 C 0.81207 0.69566 0.66291 0.0
C735 C 0.7471 0.70146 0.6515 0.0
C736 C 0.846 0.72571 0.67804 0.0
C737 C 0.7161 0.73752 0.65541 0.0
C738 C 0.74886 0.76729 0.67102 0.0
C739 C 0.847 0.79135 0.69835 0.0
C740 C 0.91273 0.78591 0.70918 0.0
C741 C 0.81377 0.76168 0.6825 0.0
C742 C 0.94473 0.75034 0.70407 0.0
C743 C 0.9115 0.72041 0.68889 0.0
H744 H 0.71053 0.77928 0.13302 0.0
H745 H 0.63555 0.87315 0.18724 0.0
H746 H 0.57499 0.8271 0.21842 0.0
H747 H 0.54143 0.76033 0.23016 0.0
H748 H 0.60972 0.66661 0.17468 0.0
H749 H 0.67267 0.71254 0.14347 0.0
C750 C 0.68028 0.78984 0.15138 0.0
C751 C 0.6785 0.82986 0.15774 0.0
C752 C 0.6436 0.76323 0.16883 0.0
C753 C 0.63959 0.84261 0.18206 0.0
C754 C 0.60409 0.81631 0.19978 0.0
C755 C 0.57008 0.7501 0.21118 0.0
C756 C 0.57156 0.71035 0.20472 0.0
C757 C 0.60564 0.77662 0.19336 0.0
C758 C 0.60785 0.69724 0.1799 0.0
C759 C 0.64409 0.72344 0.16222 0.0
H760 H 0.24847 0.81925 0.34241 0.0
H761 H 0.38976 0.80809 0.41453 0.0
H762 H 0.44561 0.75512 0.38839 0.0
H763 H 0.45623 0.71343 0.34451 0.0
H764 H 0.31671 0.7261 0.27169 0.0
H765 H 0.25881 0.7774 0.29861 0.0
C766 C 0.29183 0.80544 0.35231 0.0
C767 C 0.31501 0.8177 0.38034 0.0
C768 C 0.32415 0.77538 0.33703 0.0
C769 C 0.37044 0.79897 0.39312 0.0
C770 C 0.40266 0.76884 0.37811 0.0
C771 C 0.41304 0.72726 0.33449 0.0
C772 C 0.39111 0.71586 0.30603 0.0
C773 C 0.38015 0.75696 0.34998 0.0
C774 C 0.335 0.73426 0.2935 0.0
C775 C 0.30174 0.76364 0.30888 0.0
H776 H 0.22083 0.67044 0.83804 0.0
H777 H 0.10536 0.69597 0.91702 0.0
H778 H 0.04611 0.74715 0.8905 0.0
H779 H 0.02881 0.78576 0.84482 0.0
H780 H 0.14251 0.75674 0.76586 0.0
H781 H 0.19902 0.70546 0.79235 0.0
C782 C 0.18175 0.68652 0.84944 0.0
C783 C 0.16786 0.6791 0.87958 0.0
C784 C 0.14729 0.71551 0.83401 0.0
C785 C 0.11802 0.70122 0.89395 0.0
C786 C 0.08375 0.73043 0.87874 0.0
C787 C 0.06568 0.76811 0.83337 0.0
C788 C 0.08142 0.77561 0.80335 0.0
C789 C 0.09833 0.73808 0.84877 0.0
C790 C 0.12918 0.75208 0.78893 0.0
C791 C 0.16185 0.72258 0.80408 0.0
loop_
_geom_bond_atom_site_label_1
_geom_bond_atom_site_label_2
_geom_bond_distance
_geom_bond_site_symmetry_2
_ccdc_geom_bond_type
H0 C3 0.931 . S
H1 C6 0.928 . S
H2 C8 0.930 . S
C3 H0 0.931 . S
C3 C4 1.413 . S
C3 C5 1.360 . S
C4 C3 1.413 . S
C4 C8 1.429 . S
C5 C3 1.360 . S
C5 C6 1.372 . S
C6 H1 0.928 . S
C6 C5 1.372 . S
C6 C7 1.404 . S
C7 C6 1.404 . S
C7 C8 1.391 . S
C8 H2 0.930 . S
C8 C4 1.429 . S
C8 C7 1.391 . S
H9 C12 0.931 . S
H10 C15 0.928 . S
H11 C17 0.930 . S
C12 H9 0.931 . S
C12 C13 1.413 . S
C12 C14 1.360 . S
C13 C12 1.413 . S
C13 C17 1.429 . S
C14 C12 1.360 . S
C14 C15 1.372 . S
C15 H10 0.928 . S
C15 C14 1.372 . S
C15 C16 1.404 . S
C16 C15 1.404 . S
C16 C17 1.391 . S
C17 H11 0.930 . S
C17 C13 1.429 . S
C17 C16 1.391 . S
H18 C21 0.931 . S
H19 C24 0.928 . S
H20 C26 0.930 . S
C21 H18 0.931 . S
C21 C22 1.413 . S
C21 C23 1.360 . S
C22 C21 1.413 . S
C22 C26 1.429 . S
C23 C21 1.360 . S
C23 C24 1.372 . S
C24 H19 0.928 . S
C24 C23 1.372 . S
C24 C25 1.404 . S
C25 C24 1.404 . S
C25 C26 1.391 . S
C26 H20 0.930 . S
C26 C22 1.429 . S
C26 C25 1.391 . S
H27 C30 0.931 . S
H28 C33 0.928 . S
H29 C35 0.930 . S
C30 H27 0.931 . S
C30 C31 1.413 . S
C30 C32 1.360 . S
C31 C30 1.413 . S
C31 C35 1.429 . S
C32 C30 1.360 . S
C32 C33 1.372 . S
C33 H28 0.928 . S
C33 C32 1.372 . S
C33 C34 1.404 . S
C34 C33 1.404 . S
C34 C35 1.391 . S
C35 H29 0.930 . S
C35 C31 1.429 . S
C35 C34 1.391 . S
H36 C39 0.931 . S
H37 C42 0.928 . S
H38 C44 0.930 . S
C39 H36 0.931 . S
C39 C40 1.413 . S
C39 C41 1.360 . S
C40 C39 1.413 . S
C40 C44 1.429 . S
C41 C39 1.360 . S
C41 C42 1.372 . S
C42 H37 0.928 . S
C42 C41 1.372 . S
C42 C43 1.404 . S
C43 C42 1.404 . S
C43 C44 1.391 . S
C44 H38 0.930 . S
C44 C40 1.429 . S
C44 C43 1.391 . S
H45 C48 0.931 . S
H46 C51 0.928 . S
H47 C53 0.930 . S
C48 H45 0.931 . S
C48 C49 1.413 . S
C48 C50 1.360 . S
C49 C48 1.413 . S
C49 C53 1.429 . S
C50 C48 1.360 . S
C50 C51 1.372 . S
C51 H46 0.928 . S
C51 C50 1.372 . S
C51 C52 1.404 . S
C52 C51 1.404 . S
C52 C53 1.391 . S
C53 H47 0.930 . S
C53 C49 1.429 . S
C53 C52 1.391 . S
H54 C57 0.931 . S
H55 C60 0.928 . S
H56 C62 0.930 . S
C57 H54 0.931 . S
C57 C58 1.413 . S
C57 C59 1.360 . S
C58 C57 1.413 . S
C58 C62 1.429 . S
C59 C57 1.360 . S
C59 C60 1.372 . S
C60 H55 0.928 . S
C60 C59 1.372 . S
C60 C61 1.404 . S
C61 C60 1.404 . S
C61 C62 1.391 . S
C62 H56 0.930 . S
C62 C58 1.429 . S
C62 C61 1.391 . S
H63 C66 0.931 . S
H64 C69 0.928 . S
H65 C71 0.930 . S
C66 H63 0.931 . S
C66 C67 1.413 . S
C66 C68 1.360 . S
C67 C66 1.413 . S
C67 C71 1.429 . S
C68 C66 1.360 . S
C68 C69 1.372 . S
C69 H64 0.928 . S
C69 C68 1.372 . S
C69 C70 1.404 . S
C70 C69 1.404 . S
C70 C71 1.391 . S
C71 H65 0.930 . S
C71 C67 1.429 . S
C71 C70 1.391 . S
Eu72 N101 2.600 . S
Eu72 N107 2.562 . S
Eu72 O116 2.462 . S
Eu72 O117 2.373 . S
Eu72 O119 2.432 . S
Eu72 O120 2.292 1_455 S
Eu72 O124 2.348 . S
Eu72 O127 2.372 . S
Eu72 C136 2.787 . S
C73 N74 1.365 . S
C73 C76 1.405 . S
C73 C80 1.448 . S
N74 C73 1.365 . S
N74 C77 1.319 . S
N74 Eu83 2.600 . S
C75 C77 1.397 . S
C75 C78 1.367 . S
C75 H95 0.931 . S
C76 C73 1.405 . S
C76 C78 1.403 . S
C76 C82 1.439 . S
C77 N74 1.319 . S
C77 C75 1.397 . S
C77 H88 0.930 . S
C78 C75 1.367 . S
C78 C76 1.403 . S
C78 H99 0.929 . S
C79 C80 1.430 . S
C79 C81 1.387 . S
C79 C85 1.404 . S
C80 C73 1.448 . S
C80 C79 1.430 . S
C80 N84 1.351 . S
C81 C79 1.387 . S
C81 C82 1.374 . S
C81 H96 0.931 . S
C82 C76 1.439 . S
C82 C81 1.374 . S
C82 H97 0.931 . S
Eu83 N74 2.600 . S
Eu83 N84 2.562 . S
Eu83 O118 2.335 1_655 S
Eu83 O121 2.372 . S
Eu83 O122 2.462 . S
Eu83 O123 2.373 . S
Eu83 O125 2.432 . S
Eu83 O126 2.291 1_655 S
Eu83 C147 2.787 . S
N84 C80 1.351 . S
N84 Eu83 2.562 . S
N84 C86 1.325 . S
C85 C79 1.404 . S
C85 C87 1.366 . S
C85 H93 0.930 1_545 S
C86 N84 1.325 . S
C86 C87 1.416 . S
C86 H92 0.929 . S
C87 C85 1.366 . S
C87 C86 1.416 . S
C87 H89 0.930 1_545 S
H88 C77 0.930 . S
H89 C87 0.930 1_565 S
H90 C105 0.930 . S
H91 C112 0.930 . S
H92 C86 0.929 . S
H93 C85 0.930 1_565 S
H94 C108 0.929 . S
H95 C75 0.931 . S
H96 C81 0.931 . S
H97 C82 0.931 . S
H98 C103 0.931 . S
H99 C78 0.929 . S
H100 C111 0.930 . S
N101 Eu72 2.600 . S
N101 C102 1.365 . S
N101 C105 1.319 . S
C102 N101 1.365 . S
C102 C104 1.405 . S
C102 C110 1.448 . S
C103 H98 0.931 . S
C103 C105 1.397 . S
C103 C106 1.367 . S
C104 C102 1.405 . S
C104 C106 1.403 . S
C104 C137 1.439 . S
C105 H90 0.930 . S
C105 N101 1.319 . S
C105 C103 1.397 . S
C106 C103 1.367 . S
C106 C104 1.403 . S
C106 H113 0.929 . S
N107 Eu72 2.562 . S
N107 C108 1.325 . S
N107 C110 1.351 . S
C108 H94 0.929 . S
C108 N107 1.325 . S
C108 C112 1.416 . S
C109 C110 1.430 . S
C109 C111 1.404 . S
C109 C138 1.387 . S
C110 C102 1.448 . S
C110 N107 1.351 . S
C110 C109 1.430 . S
C111 H100 0.930 . S
C111 C109 1.404 . S
C111 C112 1.366 . S
C112 H91 0.930 . S
C112 C108 1.416 . S
C112 C111 1.366 . S
H113 C106 0.929 . S
H114 C137 0.931 . S
H115 C138 0.931 . S
O116 Eu72 2.462 . S
O116 C136 1.252 . S
O117 Eu72 2.373 . S
O117 C128 1.249 . S
O118 Eu83 2.335 1_455 S
O118 C128 1.264 . S
O119 Eu72 2.432 . S
O119 C136 1.268 . S
O120 Eu72 2.292 1_655 S
O120 C135 1.255 . S
O121 Eu83 2.372 . S
O121 C135 1.257 . S
O122 Eu83 2.462 . S
O122 C147 1.252 . S
O123 Eu83 2.373 . S
O123 C139 1.249 . S
O124 Eu72 2.348 . S
O124 C139 1.247 1_455 S
O125 Eu83 2.432 . S
O125 C147 1.268 . S
O126 Eu83 2.291 1_455 S
O126 C146 1.255 . S
O127 Eu72 2.372 . S
O127 C146 1.257 . S
C128 O117 1.249 . S
C128 O118 1.264 . S
C129 C132 1.382 . S
C129 C134 1.390 . S
C129 C136 1.506 . S
C130 C131 1.398 . S
C130 C134 1.392 . S
C131 C130 1.398 . S
C131 C133 1.372 . S
C131 H148 0.931 . S
C132 C129 1.382 . S
C132 C133 1.390 . S
C132 H149 0.931 . S
C133 C131 1.372 . S
C133 C132 1.390 . S
C133 H150 0.929 . S
C134 C129 1.390 . S
C134 C130 1.392 . S
C134 H151 0.930 . S
C135 O120 1.255 . S
C135 O121 1.257 . S
C136 Eu72 2.787 . S
C136 O116 1.252 . S
C136 O119 1.268 . S
C136 C129 1.506 . S
C137 C104 1.439 . S
C137 H114 0.931 . S
C137 C138 1.374 . S
C138 C109 1.387 . S
C138 H115 0.931 . S
C138 C137 1.374 . S
C139 O123 1.249 . S
C139 O124 1.247 1_655 S
C140 C143 1.382 . S
C140 C144 1.390 . S
C140 C147 1.506 . S
C141 C142 1.398 . S
C141 C144 1.392 . S
C142 C141 1.398 . S
C142 C145 1.372 . S
C142 H152 0.931 . S
C143 C140 1.382 . S
C143 C145 1.390 . S
C143 H153 0.931 . S
C144 C140 1.390 . S
C144 C141 1.392 . S
C144 H154 0.930 . S
C145 C142 1.372 . S
C145 C143 1.390 . S
C145 H155 0.929 . S
C146 O126 1.255 . S
C146 O127 1.257 . S
C147 Eu83 2.787 . S
C147 O122 1.252 . S
C147 O125 1.268 . S
C147 C140 1.506 . S
H148 C131 0.931 . S
H149 C132 0.931 . S
H150 C133 0.929 . S
H151 C134 0.930 . S
H152 C142 0.931 . S
H153 C143 0.931 . S
H154 C144 0.930 . S
H155 C145 0.929 . S
Eu156 N185 2.600 . S
Eu156 N191 2.562 . S
Eu156 O200 2.462 . S
Eu156 O201 2.373 . S
Eu156 O203 2.432 . S
Eu156 O204 2.291 . S
Eu156 O208 2.335 . S
Eu156 O211 2.372 . S
Eu156 C220 2.787 . S
C157 N158 1.365 . S
C157 C160 1.405 . S
C157 C164 1.448 . S
N158 C157 1.365 . S
N158 C161 1.319 . S
N158 Eu167 2.600 . S
C159 C161 1.397 . S
C159 C162 1.367 . S
C159 H179 0.931 . S
C160 C157 1.405 . S
C160 C162 1.403 . S
C160 C166 1.439 . S
C161 N158 1.319 . S
C161 C159 1.397 . S
C161 H172 0.930 . S
C162 C159 1.367 . S
C162 C160 1.403 . S
C162 H183 0.929 . S
C163 C164 1.430 . S
C163 C165 1.387 . S
C163 C169 1.404 . S
C164 C157 1.448 . S
C164 C163 1.430 . S
C164 N168 1.351 . S
C165 C163 1.387 . S
C165 C166 1.374 . S
C165 H180 0.931 . S
C166 C160 1.439 . S
C166 C165 1.374 . S
C166 H181 0.931 . S
Eu167 N158 2.600 . S
Eu167 N168 2.562 . S
Eu167 O202 2.335 . S
Eu167 O205 2.372 . S
Eu167 O206 2.462 . S
Eu167 O207 2.373 . S
Eu167 O209 2.432 . S
Eu167 O210 2.291 . S
Eu167 C231 2.787 . S
N168 C164 1.351 . S
N168 Eu167 2.562 . S
N168 C170 1.325 . S
C169 C163 1.404 . S
C169 C171 1.366 . S
C169 H177 0.930 . S
C170 N168 1.325 . S
C170 C171 1.416 . S
C170 H176 0.929 . S
C171 C169 1.366 . S
C171 C170 1.416 . S
C171 H173 0.930 . S
H172 C161 0.930 . S
H173 C171 0.930 . S
H174 C189 0.930 . S
H175 C196 0.930 . S
H176 C170 0.929 . S
H177 C169 0.930 . S
H178 C192 0.929 . S
H179 C159 0.931 . S
H180 C165 0.931 . S
H181 C166 0.931 . S
H182 C187 0.931 . S
H183 C162 0.929 . S
H184 C195 0.930 . S
N185 Eu156 2.600 . S
N185 C186 1.365 . S
N185 C189 1.319 . S
C186 N185 1.365 . S
C186 C188 1.405 . S
C186 C194 1.448 . S
C187 H182 0.931 . S
C187 C189 1.397 . S
C187 C190 1.367 . S
C188 C186 1.405 . S
C188 C190 1.403 . S
C188 C221 1.439 . S
C189 H174 0.930 . S
C189 N185 1.319 . S
C189 C187 1.397 . S
C190 C187 1.367 . S
C190 C188 1.403 . S
C190 H197 0.929 . S
N191 Eu156 2.562 . S
N191 C192 1.325 . S
N191 C194 1.351 . S
C192 H178 0.929 . S
C192 N191 1.325 . S
C192 C196 1.416 . S
C193 C194 1.430 . S
C193 C195 1.404 . S
C193 C222 1.387 . S
C194 C186 1.448 . S
C194 N191 1.351 . S
C194 C193 1.430 . S
C195 H184 0.930 . S
C195 C193 1.404 . S
C195 C196 1.366 . S
C196 H175 0.930 . S
C196 C192 1.416 . S
C196 C195 1.366 . S
H197 C190 0.929 . S
H198 C221 0.931 . S
H199 C222 0.931 . S
O200 Eu156 2.462 . S
O200 C220 1.252 . S
O201 Eu156 2.373 . S
O201 C212 1.249 . S
O202 Eu167 2.335 . S
O202 C212 1.264 . S
O203 Eu156 2.432 . S
O203 C220 1.268 . S
O204 Eu156 2.291 . S
O204 C219 1.255 . S
O205 Eu167 2.372 . S
O205 C219 1.257 . S
O206 Eu167 2.462 . S
O206 C231 1.252 . S
O207 Eu167 2.373 . S
O207 C223 1.249 . S
O208 Eu156 2.335 . S
O208 C223 1.264 . S
O209 Eu167 2.432 . S
O209 C231 1.268 . S
O210 Eu167 2.291 . S
O210 C230 1.255 . S
O211 Eu156 2.372 . S
O211 C230 1.257 . S
C212 O201 1.249 . S
C212 O202 1.264 . S
C213 C216 1.382 . S
C213 C218 1.390 . S
C213 C220 1.506 . S
C214 C215 1.398 . S
C214 C218 1.392 . S
C215 C214 1.398 . S
C215 C217 1.372 . S
C215 H232 0.931 . S
C216 C213 1.382 . S
C216 C217 1.390 . S
C216 H233 0.931 . S
C217 C215 1.372 . S
C217 C216 1.390 . S
C217 H234 0.929 . S
C218 C213 1.390 . S
C218 C214 1.392 . S
C218 H235 0.930 . S
C219 O204 1.255 . S
C219 O205 1.257 . S
C220 Eu156 2.787 . S
C220 O200 1.252 . S
C220 O203 1.268 . S
C220 C213 1.506 . S
C221 C188 1.439 . S
C221 H198 0.931 . S
C221 C222 1.374 . S
C222 C193 1.387 . S
C222 H199 0.931 . S
C222 C221 1.374 . S
C223 O207 1.249 . S
C223 O208 1.264 . S
C224 C227 1.382 . S
C224 C228 1.390 . S
C224 C231 1.506 . S
C225 C226 1.398 . S
C225 C228 1.392 . S
C226 C225 1.398 . S
C226 C229 1.372 . S
C226 H236 0.931 . S
C227 C224 1.382 . S
C227 C229 1.390 . S
C227 H237 0.931 . S
C228 C224 1.390 . S
C228 C225 1.392 . S
C228 H238 0.930 . S
C229 C226 1.372 . S
C229 C227 1.390 . S
C229 H239 0.929 . S
C230 O210 1.255 . S
C230 O211 1.257 . S
C231 Eu167 2.787 . S
C231 O206 1.252 . S
C231 O209 1.268 . S
C231 C224 1.506 . S
H232 C215 0.931 . S
H233 C216 0.931 . S
H234 C217 0.929 . S
H235 C218 0.930 . S
H236 C226 0.931 . S
H237 C227 0.931 . S
H238 C228 0.930 . S
H239 C229 0.929 . S
Eu240 N269 2.600 . S
Eu240 N275 2.562 . S
Eu240 O284 2.462 . S
Eu240 O285 2.373 . S
Eu240 O287 2.432 . S
Eu240 O288 2.291 . S
Eu240 O292 2.335 . S
Eu240 O295 2.372 . S
Eu240 C304 2.787 . S
C241 N242 1.365 . S
C241 C244 1.405 . S
C241 C248 1.448 . S
N242 C241 1.365 . S
N242 C245 1.319 . S
N242 Eu251 2.600 . S
C243 C245 1.397 . S
C243 C246 1.367 . S
C243 H263 0.931 . S
C244 C241 1.405 . S
C244 C246 1.403 . S
C244 C250 1.439 . S
C245 N242 1.319 . S
C245 C243 1.397 . S
C245 H256 0.930 . S
C246 C243 1.367 . S
C246 C244 1.403 . S
C246 H267 0.929 . S
C247 C248 1.430 . S
C247 C249 1.387 . S
C247 C253 1.404 . S
C248 C241 1.448 . S
C248 C247 1.430 . S
C248 N252 1.351 . S
C249 C247 1.387 . S
C249 C250 1.374 . S
C249 H264 0.931 . S
C250 C244 1.439 . S
C250 C249 1.374 . S
C250 H265 0.931 . S
Eu251 N242 2.600 . S
Eu251 N252 2.562 . S
Eu251 O286 2.335 1_655 S
Eu251 O289 2.372 . S
Eu251 O290 2.462 . S
Eu251 O291 2.373 . S
Eu251 O293 2.432 . S
Eu251 O294 2.291 1_655 S
Eu251 C315 2.787 . S
N252 C248 1.351 . S
N252 Eu251 2.562 . S
N252 C254 1.325 . S
C253 C247 1.404 . S
C253 C255 1.366 . S
C253 H261 0.930 . S
C254 N252 1.325 . S
C254 C255 1.416 . S
C254 H260 0.929 . S
C255 C253 1.366 . S
C255 C254 1.416 . S
C255 H257 0.930 . S
H256 C245 0.930 . S
H257 C255 0.930 . S
H258 C273 0.930 . S
H259 C280 0.930 1_545 S
H260 C254 0.929 . S
H261 C253 0.930 . S
H262 C276 0.929 . S
H263 C243 0.931 . S
H264 C249 0.931 . S
H265 C250 0.931 . S
H266 C271 0.931 . S
H267 C246 0.929 . S
H268 C279 0.930 1_545 S
N269 Eu240 2.600 . S
N269 C270 1.365 . S
N269 C273 1.319 . S
C270 N269 1.365 . S
C270 C272 1.405 . S
C270 C278 1.448 . S
C271 H266 0.931 . S
C271 C273 1.397 . S
C271 C274 1.367 . S
C272 C270 1.405 . S
C272 C274 1.403 . S
C272 C305 1.439 . S
C273 H258 0.930 . S
C273 N269 1.319 . S
C273 C271 1.397 . S
C274 C271 1.367 . S
C274 C272 1.403 . S
C274 H281 0.929 . S
N275 Eu240 2.562 . S
N275 C276 1.325 . S
N275 C278 1.351 . S
C276 H262 0.929 . S
C276 N275 1.325 . S
C276 C280 1.416 . S
C277 C278 1.430 . S
C277 C279 1.404 . S
C277 C306 1.387 . S
C278 C270 1.448 . S
C278 N275 1.351 . S
C278 C277 1.430 . S
C279 H268 0.930 1_565 S
C279 C277 1.404 . S
C279 C280 1.366 . S
C280 H259 0.930 1_565 S
C280 C276 1.416 . S
C280 C279 1.366 . S
H281 C274 0.929 . S
H282 C305 0.931 . S
H283 C306 0.931 . S
O284 Eu240 2.462 . S
O284 C304 1.252 . S
O285 Eu240 2.373 . S
O285 C296 1.249 . S
O286 Eu251 2.335 1_455 S
O286 C296 1.264 . S
O287 Eu240 2.432 . S
O287 C304 1.268 . S
O288 Eu240 2.291 . S
O288 C303 1.255 1_455 S
O289 Eu251 2.372 . S
O289 C303 1.257 . S
O290 Eu251 2.462 . S
O290 C315 1.252 . S
O291 Eu251 2.373 . S
O291 C307 1.249 . S
O292 Eu240 2.335 . S
O292 C307 1.264 1_455 S
O293 Eu251 2.432 . S
O293 C315 1.268 . S
O294 Eu251 2.291 1_455 S
O294 C314 1.255 . S
O295 Eu240 2.372 . S
O295 C314 1.257 . S
C296 O285 1.249 . S
C296 O286 1.264 . S
C297 C300 1.382 . S
C297 C302 1.390 . S
C297 C304 1.506 . S
C298 C299 1.398 . S
C298 C302 1.392 . S
C299 C298 1.398 . S
C299 C301 1.372 . S
C299 H316 0.931 . S
C300 C297 1.382 . S
C300 C301 1.390 . S
C300 H317 0.931 . S
C301 C299 1.372 . S
C301 C300 1.390 . S
C301 H318 0.929 . S
C302 C297 1.390 . S
C302 C298 1.392 . S
C302 H319 0.930 . S
C303 O288 1.255 1_655 S
C303 O289 1.257 . S
C304 Eu240 2.787 . S
C304 O284 1.252 . S
C304 O287 1.268 . S
C304 C297 1.506 . S
C305 C272 1.439 . S
C305 H282 0.931 . S
C305 C306 1.374 . S
C306 C277 1.387 . S
C306 H283 0.931 . S
C306 C305 1.374 . S
C307 O291 1.249 . S
C307 O292 1.264 1_655 S
C308 C311 1.382 . S
C308 C312 1.390 . S
C308 C315 1.506 . S
C309 C310 1.398 . S
C309 C312 1.392 . S
C310 C309 1.398 . S
C310 C313 1.372 . S
C310 H320 0.931 . S
C311 C308 1.382 . S
C311 C313 1.390 . S
C311 H321 0.931 . S
C312 C308 1.390 . S
C312 C309 1.392 . S
C312 H322 0.930 . S
C313 C310 1.372 . S
C313 C311 1.390 . S
C313 H323 0.929 . S
C314 O294 1.255 . S
C314 O295 1.257 . S
C315 Eu251 2.787 . S
C315 O290 1.252 . S
C315 O293 1.268 . S
C315 C308 1.506 . S
H316 C299 0.931 . S
H317 C300 0.931 . S
H318 C301 0.929 . S
H319 C302 0.930 . S
H320 C310 0.931 . S
H321 C311 0.931 . S
H322 C312 0.930 . S
H323 C313 0.929 . S
Eu324 N353 2.600 . S
Eu324 N359 2.562 . S
Eu324 O368 2.462 . S
Eu324 O369 2.373 . S
Eu324 O371 2.432 . S
Eu324 O372 2.291 . S
Eu324 O376 2.335 . S
Eu324 O379 2.372 . S
Eu324 C388 2.787 . S
C325 N326 1.365 . S
C325 C328 1.405 . S
C325 C332 1.448 . S
N326 C325 1.365 . S
N326 C329 1.319 . S
N326 Eu335 2.600 . S
C327 C329 1.397 . S
C327 C330 1.367 . S
C327 H347 0.931 . S
C328 C325 1.405 . S
C328 C330 1.403 . S
C328 C334 1.439 . S
C329 N326 1.319 . S
C329 C327 1.397 . S
C329 H340 0.930 . S
C330 C327 1.367 . S
C330 C328 1.403 . S
C330 H351 0.929 . S
C331 C332 1.430 . S
C331 C333 1.387 . S
C331 C337 1.404 . S
C332 C325 1.448 . S
C332 C331 1.430 . S
C332 N336 1.351 . S
C333 C331 1.387 . S
C333 C334 1.374 . S
C333 H348 0.931 . S
C334 C328 1.439 . S
C334 C333 1.374 . S
C334 H349 0.931 . S
Eu335 N326 2.600 . S
Eu335 N336 2.562 . S
Eu335 O370 2.335 . S
Eu335 O373 2.372 . S
Eu335 O374 2.462 . S
Eu335 O375 2.373 . S
Eu335 O377 2.432 . S
Eu335 O378 2.291 . S
Eu335 C399 2.787 . S
N336 C332 1.351 . S
N336 Eu335 2.562 . S
N336 C338 1.325 . S
C337 C331 1.404 . S
C337 C339 1.366 . S
C337 H345 0.930 . S
C338 N336 1.325 . S
C338 C339 1.416 . S
C338 H344 0.929 . S
C339 C337 1.366 . S
C339 C338 1.416 . S
C339 H341 0.930 . S
H340 C329 0.930 . S
H341 C339 0.930 . S
H342 C357 0.930 . S
H343 C364 0.930 . S
H344 C338 0.929 . S
H345 C337 0.930 . S
H346 C360 0.929 . S
H347 C327 0.931 . S
H348 C333 0.931 . S
H349 C334 0.931 . S
H350 C355 0.931 . S
H351 C330 0.929 . S
H352 C363 0.930 . S
N353 Eu324 2.600 . S
N353 C354 1.365 . S
N353 C357 1.319 . S
C354 N353 1.365 . S
C354 C356 1.405 . S
C354 C362 1.448 . S
C355 H350 0.931 . S
C355 C357 1.397 . S
C355 C358 1.367 . S
C356 C354 1.405 . S
C356 C358 1.403 . S
C356 C389 1.439 . S
C357 H342 0.930 . S
C357 N353 1.319 . S
C357 C355 1.397 . S
C358 C355 1.367 . S
C358 C356 1.403 . S
C358 H365 0.929 . S
N359 Eu324 2.562 . S
N359 C360 1.325 . S
N359 C362 1.351 . S
C360 H346 0.929 . S
C360 N359 1.325 . S
C360 C364 1.416 . S
C361 C362 1.430 . S
C361 C363 1.404 . S
C361 C390 1.387 . S
C362 C354 1.448 . S
C362 N359 1.351 . S
C362 C361 1.430 . S
C363 H352 0.930 . S
C363 C361 1.404 . S
C363 C364 1.366 . S
C364 H343 0.930 . S
C364 C360 1.416 . S
C364 C363 1.366 . S
H365 C358 0.929 . S
H366 C389 0.931 . S
H367 C390 0.931 . S
O368 Eu324 2.462 . S
O368 C388 1.252 . S
O369 Eu324 2.373 . S
O369 C380 1.249 . S
O370 Eu335 2.335 . S
O370 C380 1.264 . S
O371 Eu324 2.432 . S
O371 C388 1.268 . S
O372 Eu324 2.291 . S
O372 C387 1.255 . S
O373 Eu335 2.372 . S
O373 C387 1.257 . S
O374 Eu335 2.462 . S
O374 C399 1.252 . S
O375 Eu335 2.373 . S
O375 C391 1.249 . S
O376 Eu324 2.335 . S
O376 C391 1.264 . S
O377 Eu335 2.432 . S
O377 C399 1.268 . S
O378 Eu335 2.291 . S
O378 C398 1.255 . S
O379 Eu324 2.372 . S
O379 C398 1.257 . S
C380 O369 1.249 . S
C380 O370 1.264 . S
C381 C384 1.382 . S
C381 C386 1.390 . S
C381 C388 1.506 . S
C382 C383 1.398 . S
C382 C386 1.392 . S
C383 C382 1.398 . S
C383 C385 1.372 . S
C383 H400 0.931 . S
C384 C381 1.382 . S
C384 C385 1.390 . S
C384 H401 0.931 . S
C385 C383 1.372 . S
C385 C384 1.390 . S
C385 H402 0.929 . S
C386 C381 1.390 . S
C386 C382 1.392 . S
C386 H403 0.930 . S
C387 O372 1.255 . S
C387 O373 1.257 . S
C388 Eu324 2.787 . S
C388 O368 1.252 . S
C388 O371 1.268 . S
C388 C381 1.506 . S
C389 C356 1.439 . S
C389 H366 0.931 . S
C389 C390 1.374 . S
C390 C361 1.387 . S
C390 H367 0.931 . S
C390 C389 1.374 . S
C391 O375 1.249 . S
C391 O376 1.264 . S
C392 C395 1.382 . S
C392 C396 1.390 . S
C392 C399 1.506 . S
C393 C394 1.398 . S
C393 C396 1.392 . S
C394 C393 1.398 . S
C394 C397 1.372 . S
C394 H404 0.931 . S
C395 C392 1.382 . S
C395 C397 1.390 . S
C395 H405 0.931 . S
C396 C392 1.390 . S
C396 C393 1.392 . S
C396 H406 0.930 . S
C397 C394 1.372 . S
C397 C395 1.390 . S
C397 H407 0.929 . S
C398 O378 1.255 . S
C398 O379 1.257 . S
C399 Eu335 2.787 . S
C399 O374 1.252 . S
C399 O377 1.268 . S
C399 C392 1.506 . S
H400 C383 0.931 . S
H401 C384 0.931 . S
H402 C385 0.929 . S
H403 C386 0.930 . S
H404 C394 0.931 . S
H405 C395 0.931 . S
H406 C396 0.930 . S
H407 C397 0.929 . S
H408 C414 0.930 . S
H409 C417 0.930 . S
H410 C418 0.930 1_545 S
H411 C419 0.930 . S
H412 C422 0.930 1_655 S
H413 C423 0.920 1_565 S
C414 H408 0.930 . S
C414 C415 1.355 . S
C414 C416 1.415 . S
C415 C414 1.355 . S
C415 C417 1.419 . S
C416 C414 1.415 . S
C416 C421 1.425 1_565 S
C416 C423 1.409 1_565 S
C417 H409 0.930 . S
C417 C415 1.419 . S
C417 C418 1.362 . S
C418 H410 0.930 1_565 S
C418 C417 1.362 . S
C418 C421 1.409 1_565 S
C419 H411 0.930 . S
C419 C420 1.355 . S
C419 C421 1.415 . S
C420 C419 1.355 . S
C420 C422 1.419 . S
C421 C416 1.425 1_545 S
C421 C418 1.409 1_545 S
C421 C419 1.415 . S
C422 H412 0.930 1_455 S
C422 C420 1.419 . S
C422 C423 1.362 . S
C423 H413 0.920 1_545 S
C423 C416 1.409 1_545 S
C423 C422 1.362 . S
H424 C430 0.930 . S
H425 C433 0.930 . S
H426 C434 0.930 . S
H427 C435 0.930 . S
H428 C438 0.930 . S
H429 C439 0.930 . S
C430 H424 0.930 . S
C430 C431 1.355 . S
C430 C432 1.415 . S
C431 C430 1.355 . S
C431 C433 1.419 . S
C432 C430 1.415 . S
C432 C437 1.425 . S
C432 C439 1.409 . S
C433 H425 0.930 . S
C433 C431 1.419 . S
C433 C434 1.362 . S
C434 H426 0.930 . S
C434 C433 1.362 . S
C434 C437 1.409 . S
C435 H427 0.930 . S
C435 C436 1.355 . S
C435 C437 1.415 . S
C436 C435 1.355 . S
C436 C438 1.419 . S
C437 C432 1.425 . S
C437 C434 1.409 . S
C437 C435 1.415 . S
C438 H428 0.930 . S
C438 C436 1.419 . S
C438 C439 1.362 . S
C439 H429 0.930 . S
C439 C432 1.409 . S
C439 C438 1.362 . S
H440 C446 0.930 . S
H441 C449 0.930 . S
H442 C450 0.930 . S
H443 C451 0.930 . S
H444 C454 0.930 . S
H445 C455 0.930 . S
C446 H440 0.930 . S
C446 C447 1.355 . S
C446 C448 1.415 . S
C447 C446 1.355 . S
C447 C449 1.419 . S
C448 C446 1.415 . S
C448 C453 1.425 . S
C448 C455 1.409 . S
C449 H441 0.930 . S
C449 C447 1.419 . S
C449 C450 1.362 . S
C450 H442 0.930 . S
C450 C449 1.362 . S
C450 C453 1.409 . S
C451 H443 0.930 . S
C451 C452 1.355 . S
C451 C453 1.415 . S
C452 C451 1.355 . S
C452 C454 1.419 . S
C453 C448 1.425 . S
C453 C450 1.409 . S
C453 C451 1.415 . S
C454 H444 0.930 . S
C454 C452 1.419 . S
C454 C455 1.362 . S
C455 H445 0.930 . S
C455 C448 1.409 . S
C455 C454 1.362 . S
H456 C462 0.930 . S
H457 C465 0.930 . S
H458 C466 0.930 . S
H459 C467 0.930 . S
H460 C470 0.930 . S
H461 C471 0.930 . S
C462 H456 0.930 . S
C462 C463 1.355 . S
C462 C464 1.415 . S
C463 C462 1.355 . S
C463 C465 1.419 . S
C464 C462 1.415 . S
C464 C469 1.425 1_565 S
C464 C471 1.409 . S
C465 H457 0.930 . S
C465 C463 1.419 . S
C465 C466 1.362 1_565 S
C466 H458 0.930 . S
C466 C465 1.362 1_545 S
C466 C469 1.409 . S
C467 H459 0.930 . S
C467 C468 1.355 . S
C467 C469 1.415 . S
C468 C467 1.355 . S
C468 C470 1.419 . S
C469 C464 1.425 1_545 S
C469 C466 1.409 . S
C469 C467 1.415 . S
C470 H460 0.930 . S
C470 C468 1.419 . S
C470 C471 1.362 1_545 S
C471 H461 0.930 . S
C471 C464 1.409 . S
C471 C470 1.362 1_565 S
H472 C478 0.930 . S
H473 C481 0.930 . S
H474 C482 0.930 . S
H475 C483 0.930 . S
H476 C486 0.930 . S
H477 C487 0.930 . S
C478 H472 0.930 . S
C478 C479 1.355 . S
C478 C480 1.415 1_545 S
C479 C478 1.355 . S
C479 C481 1.419 . S
C480 C478 1.415 1_565 S
C480 C485 1.425 1_565 S
C480 C487 1.409 . S
C481 H473 0.930 . S
C481 C479 1.419 . S
C481 C482 1.362 . S
C482 H474 0.930 . S
C482 C481 1.362 . S
C482 C485 1.409 . S
C483 H475 0.930 . S
C483 C484 1.355 . S
C483 C485 1.415 1_565 S
C484 C483 1.355 . S
C484 C486 1.419 . S
C485 C480 1.425 1_545 S
C485 C482 1.409 . S
C485 C483 1.415 1_545 S
C486 H476 0.930 . S
C486 C484 1.419 . S
C486 C487 1.362 . S
C487 H477 0.930 . S
C487 C480 1.409 . S
C487 C486 1.362 . S
H488 C494 0.930 . S
H489 C497 0.930 . S
H490 C498 0.930 . S
H491 C499 0.930 . S
H492 C502 0.930 . S
H493 C503 0.930 . S
C494 H488 0.930 . S
C494 C495 1.355 . S
C494 C496 1.415 . S
C495 C494 1.355 . S
C495 C497 1.419 . S
C496 C494 1.415 . S
C496 C501 1.425 . S
C496 C503 1.409 . S
C497 H489 0.930 . S
C497 C495 1.419 . S
C497 C498 1.362 . S
C498 H490 0.930 . S
C498 C497 1.362 . S
C498 C501 1.409 . S
C499 H491 0.930 . S
C499 C500 1.355 . S
C499 C501 1.415 . S
C500 C499 1.355 . S
C500 C502 1.419 . S
C501 C496 1.425 . S
C501 C498 1.409 . S
C501 C499 1.415 . S
C502 H492 0.930 . S
C502 C500 1.419 . S
C502 C503 1.362 . S
C503 H493 0.930 . S
C503 C496 1.409 . S
C503 C502 1.362 . S
H504 C510 0.930 . S
H505 C513 0.930 . S
H506 C514 0.930 . S
H507 C515 0.930 . S
H508 C518 0.930 . S
H509 C519 0.930 . S
C510 H504 0.930 . S
C510 C511 1.355 . S
C510 C512 1.415 . S
C511 C510 1.355 . S
C511 C513 1.419 . S
C512 C510 1.415 . S
C512 C517 1.425 . S
C512 C519 1.409 . S
C513 H505 0.930 . S
C513 C511 1.419 . S
C513 C514 1.362 . S
C514 H506 0.930 . S
C514 C513 1.362 . S
C514 C517 1.409 . S
C515 H507 0.930 . S
C515 C516 1.355 . S
C515 C517 1.415 . S
C516 C515 1.355 . S
C516 C518 1.419 . S
C517 C512 1.425 . S
C517 C514 1.409 . S
C517 C515 1.415 . S
C518 H508 0.930 . S
C518 C516 1.419 . S
C518 C519 1.362 . S
C519 H509 0.930 . S
C519 C512 1.409 . S
C519 C518 1.362 . S
H520 C526 0.930 . S
H521 C529 0.930 . S
H522 C530 0.930 . S
H523 C531 0.930 . S
H524 C534 0.930 . S
H525 C535 0.916 1_545 S
C526 H520 0.930 . S
C526 C527 1.355 . S
C526 C528 1.415 . S
C527 C526 1.355 . S
C527 C529 1.419 . S
C528 C526 1.415 . S
C528 C533 1.425 1_545 S
C528 C535 1.402 1_545 S
C529 H521 0.930 . S
C529 C527 1.419 . S
C529 C530 1.362 1_545 S
C530 H522 0.930 . S
C530 C529 1.362 1_565 S
C530 C533 1.409 . S
C531 H523 0.930 . S
C531 C532 1.355 . S
C531 C533 1.415 . S
C532 C531 1.355 . S
C532 C534 1.419 . S
C533 C528 1.425 1_565 S
C533 C530 1.409 . S
C533 C531 1.415 . S
C534 H524 0.930 . S
C534 C532 1.419 . S
C534 C535 1.384 . S
C535 H525 0.916 1_565 S
C535 C528 1.402 1_565 S
C535 C534 1.384 . S
H536 C542 0.930 . S
H537 C545 0.930 . S
H538 C546 0.930 . S
H539 C547 0.930 . S
H540 C550 0.930 . S
H541 C551 0.930 . S
C542 H536 0.930 . S
C542 C543 1.355 . S
C542 C544 1.415 1_556 S
C543 C542 1.355 . S
C543 C545 1.419 . S
C544 C542 1.415 1_554 S
C544 C549 1.425 . S
C544 C551 1.409 . S
C545 H537 0.930 . S
C545 C543 1.419 . S
C545 C546 1.362 . S
C546 H538 0.930 . S
C546 C545 1.362 . S
C546 C549 1.409 1_556 S
C547 H539 0.930 . S
C547 C548 1.355 . S
C547 C549 1.415 . S
C548 C547 1.355 . S
C548 C550 1.419 . S
C549 C544 1.425 . S
C549 C546 1.409 1_554 S
C549 C547 1.415 . S
C550 H540 0.930 . S
C550 C548 1.419 . S
C550 C551 1.362 . S
C551 H541 0.930 . S
C551 C544 1.409 . S
C551 C550 1.362 . S
H552 C558 0.930 . S
H553 C561 0.930 . S
H554 C562 0.930 . S
H555 C563 0.930 . S
H556 C566 0.930 . S
H557 C567 0.930 . S
C558 H552 0.930 . S
C558 C559 1.355 . S
C558 C560 1.415 . S
C559 C558 1.355 . S
C559 C561 1.419 . S
C560 C558 1.415 . S
C560 C565 1.425 . S
C560 C567 1.409 . S
C561 H553 0.930 . S
C561 C559 1.419 . S
C561 C562 1.362 . S
C562 H554 0.930 . S
C562 C561 1.362 . S
C562 C565 1.409 . S
C563 H555 0.930 . S
C563 C564 1.355 . S
C563 C565 1.415 . S
C564 C563 1.355 . S
C564 C566 1.419 . S
C565 C560 1.425 . S
C565 C562 1.409 . S
C565 C563 1.415 . S
C566 H556 0.930 . S
C566 C564 1.419 . S
C566 C567 1.362 . S
C567 H557 0.930 . S
C567 C560 1.409 . S
C567 C566 1.362 . S
H568 C574 0.930 . S
H569 C577 0.930 . S
H570 C578 0.930 . S
H571 C579 0.930 . S
H572 C582 0.930 . S
H573 C583 0.930 . S
C574 H568 0.930 . S
C574 C575 1.355 . S
C574 C576 1.415 . S
C575 C574 1.355 . S
C575 C577 1.419 . S
C576 C574 1.415 . S
C576 C581 1.425 1_554 S
C576 C583 1.409 1_554 S
C577 H569 0.930 . S
C577 C575 1.419 . S
C577 C578 1.362 . S
C578 H570 0.930 . S
C578 C577 1.362 . S
C578 C581 1.409 1_554 S
C579 H571 0.930 . S
C579 C580 1.355 . S
C579 C581 1.415 . S
C580 C579 1.355 . S
C580 C582 1.419 . S
C581 C576 1.425 1_556 S
C581 C578 1.409 1_556 S
C581 C579 1.415 . S
C582 H572 0.930 . S
C582 C580 1.419 . S
C582 C583 1.362 . S
C583 H573 0.930 . S
C583 C576 1.409 1_556 S
C583 C582 1.362 . S
H584 C590 0.930 . S
H585 C593 0.930 . S
H586 C594 0.930 . S
H587 C595 0.930 . S
H588 C598 0.930 . S
H589 C599 0.930 . S
C590 H584 0.930 . S
C590 C591 1.355 . S
C590 C592 1.415 . S
C591 C590 1.355 . S
C591 C593 1.419 . S
C592 C590 1.415 . S
C592 C597 1.425 . S
C592 C599 1.409 . S
C593 H585 0.930 . S
C593 C591 1.419 . S
C593 C594 1.362 . S
C594 H586 0.930 . S
C594 C593 1.362 . S
C594 C597 1.409 . S
C595 H587 0.930 . S
C595 C596 1.355 . S
C595 C597 1.415 . S
C596 C595 1.355 . S
C596 C598 1.419 . S
C597 C592 1.425 . S
C597 C594 1.409 . S
C597 C595 1.415 . S
C598 H588 0.930 . S
C598 C596 1.419 . S
C598 C599 1.362 . S
C599 H589 0.930 . S
C599 C592 1.409 . S
C599 C598 1.362 . S
H600 C606 0.930 . S
H601 C609 0.930 . S
H602 C610 0.930 . S
H603 C611 0.930 . S
H604 C614 0.930 . S
H605 C615 0.930 . S
C606 H600 0.930 . S
C606 C607 1.355 . S
C606 C608 1.415 1_554 S
C607 C606 1.355 . S
C607 C609 1.419 . S
C608 C606 1.415 1_556 S
C608 C613 1.425 . S
C608 C615 1.409 . S
C609 H601 0.930 . S
C609 C607 1.419 . S
C609 C610 1.362 . S
C610 H602 0.930 . S
C610 C609 1.362 . S
C610 C613 1.409 1_554 S
C611 H603 0.930 . S
C611 C612 1.355 . S
C611 C613 1.415 . S
C612 C611 1.355 . S
C612 C614 1.419 . S
C613 C608 1.425 . S
C613 C610 1.409 1_556 S
C613 C611 1.415 . S
C614 H604 0.930 . S
C614 C612 1.419 . S
C614 C615 1.362 . S
C615 H605 0.930 . S
C615 C608 1.409 . S
C615 C614 1.362 . S
H616 C622 0.930 . S
H617 C625 0.930 . S
H618 C626 0.930 . S
H619 C627 0.930 . S
H620 C630 0.930 . S
H621 C631 0.930 . S
C622 H616 0.930 . S
C622 C623 1.355 . S
C622 C624 1.415 . S
C623 C622 1.355 . S
C623 C625 1.419 . S
C624 C622 1.415 . S
C624 C629 1.425 . S
C624 C631 1.409 . S
C625 H617 0.930 . S
C625 C623 1.419 . S
C625 C626 1.362 . S
C626 H618 0.930 . S
C626 C625 1.362 . S
C626 C629 1.409 . S
C627 H619 0.930 . S
C627 C628 1.355 . S
C627 C629 1.415 . S
C628 C627 1.355 . S
C628 C630 1.419 . S
C629 C624 1.425 . S
C629 C626 1.409 . S
C629 C627 1.415 . S
C630 H620 0.930 . S
C630 C628 1.419 . S
C630 C631 1.362 . S
C631 H621 0.930 . S
C631 C624 1.409 . S
C631 C630 1.362 . S
H632 C638 0.930 . S
H633 C641 0.930 . S
H634 C642 0.930 . S
H635 C643 0.930 . S
H636 C646 0.930 . S
H637 C647 0.930 . S
C638 H632 0.930 . S
C638 C639 1.355 . S
C638 C640 1.415 1_556 S
C639 C638 1.355 . S
C639 C641 1.419 . S
C640 C638 1.415 1_554 S
C640 C645 1.425 . S
C640 C647 1.409 . S
C641 H633 0.930 . S
C641 C639 1.419 . S
C641 C642 1.362 . S
C642 H634 0.930 . S
C642 C641 1.362 . S
C642 C645 1.409 1_556 S
C643 H635 0.930 . S
C643 C644 1.355 . S
C643 C645 1.415 . S
C644 C643 1.355 . S
C644 C646 1.419 . S
C645 C640 1.425 . S
C645 C642 1.409 1_554 S
C645 C643 1.415 . S
C646 H636 0.930 . S
C646 C644 1.419 . S
C646 C647 1.362 . S
C647 H637 0.930 . S
C647 C640 1.409 . S
C647 C646 1.362 . S
H648 C654 0.930 . S
H649 C657 0.930 . S
H650 C658 0.930 . S
H651 C659 0.930 . S
H652 C662 0.930 . S
H653 C663 0.930 . S
C654 H648 0.930 . S
C654 C655 1.355 . S
C654 C656 1.415 . S
C655 C654 1.355 . S
C655 C657 1.419 . S
C656 C654 1.415 . S
C656 C661 1.425 . S
C656 C663 1.409 . S
C657 H649 0.930 . S
C657 C655 1.419 . S
C657 C658 1.362 . S
C658 H650 0.930 . S
C658 C657 1.362 . S
C658 C661 1.409 . S
C659 H651 0.930 . S
C659 C660 1.355 . S
C659 C661 1.415 . S
C660 C659 1.355 . S
C660 C662 1.419 . S
C661 C656 1.425 . S
C661 C658 1.409 . S
C661 C659 1.415 . S
C662 H652 0.930 . S
C662 C660 1.419 . S
C662 C663 1.362 . S
C663 H653 0.930 . S
C663 C656 1.409 . S
C663 C662 1.362 . S
H664 C670 0.930 . S
H665 C673 0.930 . S
H666 C674 0.930 . S
H667 C675 0.930 . S
H668 C678 0.930 . S
H669 C679 0.930 . S
C670 H664 0.930 . S
C670 C671 1.355 . S
C670 C672 1.415 . S
C671 C670 1.355 . S
C671 C673 1.419 . S
C672 C670 1.415 . S
C672 C677 1.425 . S
C672 C679 1.409 . S
C673 H665 0.930 . S
C673 C671 1.419 . S
C673 C674 1.362 . S
C674 H666 0.930 . S
C674 C673 1.362 . S
C674 C677 1.409 . S
C675 H667 0.930 . S
C675 C676 1.355 . S
C675 C677 1.415 . S
C676 C675 1.355 . S
C676 C678 1.419 . S
C677 C672 1.425 . S
C677 C674 1.409 . S
C677 C675 1.415 . S
C678 H668 0.930 . S
C678 C676 1.419 . S
C678 C679 1.362 . S
C679 H669 0.930 . S
C679 C672 1.409 . S
C679 C678 1.362 . S
H680 C686 0.930 . S
H681 C689 0.930 . S
H682 C690 0.930 . S
H683 C691 0.930 . S
H684 C694 0.930 . S
H685 C695 0.930 . S
C686 H680 0.930 . S
C686 C687 1.355 . S
C686 C688 1.415 . S
C687 C686 1.355 . S
C687 C689 1.419 . S
C688 C686 1.415 . S
C688 C693 1.425 . S
C688 C695 1.409 . S
C689 H681 0.930 . S
C689 C687 1.419 . S
C689 C690 1.362 . S
C690 H682 0.930 . S
C690 C689 1.362 . S
C690 C693 1.409 . S
C691 H683 0.930 . S
C691 C692 1.355 . S
C691 C693 1.415 . S
C692 C691 1.355 . S
C692 C694 1.419 . S
C693 C688 1.425 . S
C693 C690 1.409 . S
C693 C691 1.415 . S
C694 H684 0.930 . S
C694 C692 1.419 . S
C694 C695 1.362 . S
C695 H685 0.930 . S
C695 C688 1.409 . S
C695 C694 1.362 . S
H696 C702 0.930 . S
H697 C705 0.930 . S
H698 C706 0.930 . S
H699 C707 0.930 . S
H700 C710 0.930 . S
H701 C711 0.930 . S
C702 H696 0.930 . S
C702 C703 1.355 . S
C702 C704 1.415 . S
C703 C702 1.355 . S
C703 C705 1.419 . S
C704 C702 1.415 . S
C704 C709 1.425 . S
C704 C711 1.409 . S
C705 H697 0.930 . S
C705 C703 1.419 . S
C705 C706 1.362 . S
C706 H698 0.930 . S
C706 C705 1.362 . S
C706 C709 1.409 . S
C707 H699 0.930 . S
C707 C708 1.355 . S
C707 C709 1.415 . S
C708 C707 1.355 . S
C708 C710 1.419 . S
C709 C704 1.425 . S
C709 C706 1.409 . S
C709 C707 1.415 . S
C710 H700 0.930 . S
C710 C708 1.419 . S
C710 C711 1.362 . S
C711 H701 0.930 . S
C711 C704 1.409 . S
C711 C710 1.362 . S
H712 C718 0.930 . S
H713 C721 0.930 . S
H714 C722 0.930 . S
H715 C723 0.930 . S
H716 C726 0.930 . S
H717 C727 0.930 . S
C718 H712 0.930 . S
C718 C719 1.355 . S
C718 C720 1.415 . S
C719 C718 1.355 . S
C719 C721 1.419 . S
C720 C718 1.415 . S
C720 C725 1.425 . S
C720 C727 1.409 . S
C721 H713 0.930 . S
C721 C719 1.419 . S
C721 C722 1.362 . S
C722 H714 0.930 . S
C722 C721 1.362 . S
C722 C725 1.409 . S
C723 H715 0.930 . S
C723 C724 1.355 . S
C723 C725 1.415 . S
C724 C723 1.355 . S
C724 C726 1.419 . S
C725 C720 1.425 . S
C725 C722 1.409 . S
C725 C723 1.415 . S
C726 H716 0.930 . S
C726 C724 1.419 . S
C726 C727 1.362 . S
C727 H717 0.930 . S
C727 C720 1.409 . S
C727 C726 1.362 . S
H728 C734 0.930 . S
H729 C737 0.930 . S
H730 C738 0.930 . S
H731 C739 0.930 . S
H732 C742 0.918 1_455 S
H733 C743 0.930 . S
C734 H728 0.930 . S
C734 C735 1.355 . S
C734 C736 1.415 . S
C735 C734 1.355 . S
C735 C737 1.419 . S
C736 C734 1.415 . S
C736 C741 1.425 . S
C736 C743 1.409 . S
C737 H729 0.930 . S
C737 C735 1.419 . S
C737 C738 1.362 . S
C738 H730 0.930 . S
C738 C737 1.362 . S
C738 C741 1.409 . S
C739 H731 0.930 . S
C739 C740 1.355 . S
C739 C741 1.415 . S
C740 C739 1.355 . S
C740 C742 1.419 . S
C741 C736 1.425 . S
C741 C738 1.409 . S
C741 C739 1.415 . S
C742 H732 0.918 1_655 S
C742 C740 1.419 . S
C742 C743 1.362 . S
C743 H733 0.930 . S
C743 C736 1.409 . S
C743 C742 1.362 . S
H744 C750 0.930 . S
H745 C753 0.930 . S
H746 C754 0.930 . S
H747 C755 0.930 . S
H748 C758 0.930 . S
H749 C759 0.930 . S
C750 H744 0.930 . S
C750 C751 1.355 . S
C750 C752 1.415 . S
C751 C750 1.355 . S
C751 C753 1.419 . S
C752 C750 1.415 . S
C752 C757 1.425 . S
C752 C759 1.409 . S
C753 H745 0.930 . S
C753 C751 1.419 . S
C753 C754 1.362 . S
C754 H746 0.930 . S
C754 C753 1.362 . S
C754 C757 1.409 . S
C755 H747 0.930 . S
C755 C756 1.355 . S
C755 C757 1.415 . S
C756 C755 1.355 . S
C756 C758 1.419 . S
C757 C752 1.425 . S
C757 C754 1.409 . S
C757 C755 1.415 . S
C758 H748 0.930 . S
C758 C756 1.419 . S
C758 C759 1.362 . S
C759 H749 0.930 . S
C759 C752 1.409 . S
C759 C758 1.362 . S
H760 C766 0.930 . S
H761 C769 0.930 . S
H762 C770 0.930 . S
H763 C771 0.930 . S
H764 C774 0.930 . S
H765 C775 0.930 . S
C766 H760 0.930 . S
C766 C767 1.355 . S
C766 C768 1.415 . S
C767 C766 1.355 . S
C767 C769 1.419 . S
C768 C766 1.415 . S
C768 C773 1.425 . S
C768 C775 1.409 . S
C769 H761 0.930 . S
C769 C767 1.419 . S
C769 C770 1.362 . S
C770 H762 0.930 . S
C770 C769 1.362 . S
C770 C773 1.409 . S
C771 H763 0.930 . S
C771 C772 1.355 . S
C771 C773 1.415 . S
C772 C771 1.355 . S
C772 C774 1.419 . S
C773 C768 1.425 . S
C773 C770 1.409 . S
C773 C771 1.415 . S
C774 H764 0.930 . S
C774 C772 1.419 . S
C774 C775 1.362 . S
C775 H765 0.930 . S
C775 C768 1.409 . S
C775 C774 1.362 . S
H776 C782 0.930 . S
H777 C785 0.930 . S
H778 C786 0.930 . S
H779 C787 0.930 . S
H780 C790 0.930 . S
H781 C791 0.930 . S
C782 H776 0.930 . S
C782 C783 1.355 . S
C782 C784 1.415 . S
C783 C782 1.355 . S
C783 C785 1.419 . S
C784 C782 1.415 . S
C784 C789 1.425 . S
C784 C791 1.409 . S
C785 H777 0.930 . S
C785 C783 1.419 . S
C785 C786 1.362 . S
C786 H778 0.930 . S
C786 C785 1.362 . S
C786 C789 1.409 . S
C787 H779 0.930 . S
C787 C788 1.355 . S
C787 C789 1.415 . S
C788 C787 1.355 . S
C788 C790 1.419 . S
C789 C784 1.425 . S
C789 C786 1.409 . S
C789 C787 1.415 . S
C790 H780 0.930 . S
C790 C788 1.419 . S
C790 C791 1.362 . S
C791 H781 0.930 . S
C791 C784 1.409 . S
C791 C790 1.362 . S
C415 C58 1.469 . S
C420 C146 1.462 . S
C436 C230 1.429 . S
C431 C68 1.476 . S
C452 C223 1.465 . S
C447 C40 1.464 . S
C463 C50 1.469 . S
C468 C139 1.468 . S
C484 C303 1.474 . S
C479 C23 1.468 . S
C500 C387 1.465 . S
C495 C32 1.470 . S
C511 C5 1.467 . S
C516 C380 1.468 . S
C527 C14 1.461 . S
C532 C296 1.461 . S
C548 C130 1.274 . S
C543 C13 1.489 . S
C564 C214 1.281 . S
C559 C4 1.492 . S
C580 C225 1.425 . S
C575 C31 1.510 . S
C596 C141 1.340 . S
C591 C22 1.512 . S
C612 C309 1.316 . S
C607 C49 1.496 . S
C623 C41 1.492 . S
C628 C393 1.294 . S
C644 C382 1.393 . S
C639 C67 1.507 . S
C655 C59 1.517 . S
C660 C298 1.353 . S
C676 C128 1.509 . S
C671 C7 1.514 . S
C692 C212 1.523 . S
C687 C16 1.510 . S
C703 C25 1.525 . S
C708 C219 1.486 . S
C724 C135 1.516 . S
C719 C34 1.508 . S
C740 C307 1.525 . S
C735 C43 1.513 . S
C751 C52 1.515 . S
C756 C391 1.511 . S
C767 C61 1.524 . S
C772 C398 1.484 . S
C783 C70 1.521 . S
C788 C314 1.480 . S
