# Generated by pormake.
# Topology tbo, (3,4)-cn, num edge types: 1
# Building blocks:
#     Node 0, Type 0, BuildingBlock: CUQRIR_clean_linker_1, # of connection points: 3
#     Node 1, Type 0, BuildingBlock: CUQRIR_clean_linker_1, # of connection points: 3
#     Node 2, Type 0, BuildingBlock: CUQRIR_clean_linker_1, # of connection points: 3
#     Node 3, Type 0, BuildingBlock: CUQRIR_clean_linker_1, # of connection points: 3
#     Node 4, Type 0, BuildingBlock: CUQRIR_clean_linker_1, # of connection points: 3
#     Node 5, Type 0, BuildingBlock: CUQRIR_clean_linker_1, # of connection points: 3
#     Node 6, Type 0, BuildingBlock: CUQRIR_clean_linker_1, # of connection points: 3
#     Node 7, Type 0, BuildingBlock: CUQRIR_clean_linker_1, # of connection points: 3
#     Node 8, Type 0, BuildingBlock: CUQRIR_clean_linker_1, # of connection points: 3
#     Node 9, Type 0, BuildingBlock: CUQRIR_clean_linker_1, # of connection points: 3
#     Node 10, Type 0, BuildingBlock: CUQRIR_clean_linker_1, # of connection points: 3
#     Node 11, Type 0, BuildingBlock: CUQRIR_clean_linker_1, # of connection points: 3
#     Node 12, Type 0, BuildingBlock: CUQRIR_clean_linker_1, # of connection points: 3
#     Node 13, Type 0, BuildingBlock: CUQRIR_clean_linker_1, # of connection points: 3
#     Node 14, Type 0, BuildingBlock: CUQRIR_clean_linker_1, # of connection points: 3
#     Node 15, Type 0, BuildingBlock: CUQRIR_clean_linker_1, # of connection points: 3
#     Node 16, Type 0, BuildingBlock: CUQRIR_clean_linker_1, # of connection points: 3
#     Node 17, Type 0, BuildingBlock: CUQRIR_clean_linker_1, # of connection points: 3
#     Node 18, Type 0, BuildingBlock: CUQRIR_clean_linker_1, # of connection points: 3
#     Node 19, Type 0, BuildingBlock: CUQRIR_clean_linker_1, # of connection points: 3
#     Node 20, Type 0, BuildingBlock: CUQRIR_clean_linker_1, # of connection points: 3
#     Node 21, Type 0, BuildingBlock: CUQRIR_clean_linker_1, # of connection points: 3
#     Node 22, Type 0, BuildingBlock: CUQRIR_clean_linker_1, # of connection points: 3
#     Node 23, Type 0, BuildingBlock: CUQRIR_clean_linker_1, # of connection points: 3
#     Node 24, Type 0, BuildingBlock: CUQRIR_clean_linker_1, # of connection points: 3
#     Node 25, Type 0, BuildingBlock: CUQRIR_clean_linker_1, # of connection points: 3
#     Node 26, Type 0, BuildingBlock: CUQRIR_clean_linker_1, # of connection points: 3
#     Node 27, Type 0, BuildingBlock: CUQRIR_clean_linker_1, # of connection points: 3
#     Node 28, Type 0, BuildingBlock: CUQRIR_clean_linker_1, # of connection points: 3
#     Node 29, Type 0, BuildingBlock: CUQRIR_clean_linker_1, # of connection points: 3
#     Node 30, Type 0, BuildingBlock: CUQRIR_clean_linker_1, # of connection points: 3
#     Node 31, Type 0, BuildingBlock: CUQRIR_clean_linker_1, # of connection points: 3
#     Node 32, Type 1, BuildingBlock: ESEHIV_clean_sbu_0, # of connection points: 4
#     Node 33, Type 1, BuildingBlock: ESEHIV_clean_sbu_0, # of connection points: 4
#     Node 34, Type 1, BuildingBlock: ESEHIV_clean_sbu_0, # of connection points: 4
#     Node 35, Type 1, BuildingBlock: ESEHIV_clean_sbu_0, # of connection points: 4
#     Node 36, Type 1, BuildingBlock: ESEHIV_clean_sbu_0, # of connection points: 4
#     Node 37, Type 1, BuildingBlock: ESEHIV_clean_sbu_0, # of connection points: 4
#     Node 38, Type 1, BuildingBlock: ESEHIV_clean_sbu_0, # of connection points: 4
#     Node 39, Type 1, BuildingBlock: ESEHIV_clean_sbu_0, # of connection points: 4
#     Node 40, Type 1, BuildingBlock: ESEHIV_clean_sbu_0, # of connection points: 4
#     Node 41, Type 1, BuildingBlock: ESEHIV_clean_sbu_0, # of connection points: 4
#     Node 42, Type 1, BuildingBlock: ESEHIV_clean_sbu_0, # of connection points: 4
#     Node 43, Type 1, BuildingBlock: ESEHIV_clean_sbu_0, # of connection points: 4
#     Node 44, Type 1, BuildingBlock: ESEHIV_clean_sbu_0, # of connection points: 4
#     Node 45, Type 1, BuildingBlock: ESEHIV_clean_sbu_0, # of connection points: 4
#     Node 46, Type 1, BuildingBlock: ESEHIV_clean_sbu_0, # of connection points: 4
#     Node 47, Type 1, BuildingBlock: ESEHIV_clean_sbu_0, # of connection points: 4
#     Node 48, Type 1, BuildingBlock: ESEHIV_clean_sbu_0, # of connection points: 4
#     Node 49, Type 1, BuildingBlock: ESEHIV_clean_sbu_0, # of connection points: 4
#     Node 50, Type 1, BuildingBlock: ESEHIV_clean_sbu_0, # of connection points: 4
#     Node 51, Type 1, BuildingBlock: ESEHIV_clean_sbu_0, # of connection points: 4
#     Node 52, Type 1, BuildingBlock: ESEHIV_clean_sbu_0, # of connection points: 4
#     Node 53, Type 1, BuildingBlock: ESEHIV_clean_sbu_0, # of connection points: 4
#     Node 54, Type 1, BuildingBlock: ESEHIV_clean_sbu_0, # of connection points: 4
#     Node 55, Type 1, BuildingBlock: ESEHIV_clean_sbu_0, # of connection points: 4
#     Edge 56, Type (0, 1), BuildingBlock: EZIPEK_clean_linker_0, # of connection points: 2
#     Edge 57, Type (0, 1), BuildingBlock: EZIPEK_clean_linker_0, # of connection points: 2
#     Edge 58, Type (0, 1), BuildingBlock: EZIPEK_clean_linker_0, # of connection points: 2
#     Edge 59, Type (0, 1), BuildingBlock: EZIPEK_clean_linker_0, # of connection points: 2
#     Edge 60, Type (0, 1), BuildingBlock: EZIPEK_clean_linker_0, # of connection points: 2
#     Edge 61, Type (0, 1), BuildingBlock: EZIPEK_clean_linker_0, # of connection points: 2
#     Edge 62, Type (0, 1), BuildingBlock: EZIPEK_clean_linker_0, # of connection points: 2
#     Edge 63, Type (0, 1), BuildingBlock: EZIPEK_clean_linker_0, # of connection points: 2
#     Edge 64, Type (0, 1), BuildingBlock: EZIPEK_clean_linker_0, # of connection points: 2
#     Edge 65, Type (0, 1), BuildingBlock: EZIPEK_clean_linker_0, # of connection points: 2
#     Edge 66, Type (0, 1), BuildingBlock: EZIPEK_clean_linker_0, # of connection points: 2
#     Edge 67, Type (0, 1), BuildingBlock: EZIPEK_clean_linker_0, # of connection points: 2
#     Edge 68, Type (0, 1), BuildingBlock: EZIPEK_clean_linker_0, # of connection points: 2
#     Edge 69, Type (0, 1), BuildingBlock: EZIPEK_clean_linker_0, # of connection points: 2
#     Edge 70, Type (0, 1), BuildingBlock: EZIPEK_clean_linker_0, # of connection points: 2
#     Edge 71, Type (0, 1), BuildingBlock: EZIPEK_clean_linker_0, # of connection points: 2
#     Edge 72, Type (0, 1), BuildingBlock: EZIPEK_clean_linker_0, # of connection points: 2
#     Edge 73, Type (0, 1), BuildingBlock: EZIPEK_clean_linker_0, # of connection points: 2
#     Edge 74, Type (0, 1), BuildingBlock: EZIPEK_clean_linker_0, # of connection points: 2
#     Edge 75, Type (0, 1), BuildingBlock: EZIPEK_clean_linker_0, # of connection points: 2
#     Edge 76, Type (0, 1), BuildingBlock: EZIPEK_clean_linker_0, # of connection points: 2
#     Edge 77, Type (0, 1), BuildingBlock: EZIPEK_clean_linker_0, # of connection points: 2
#     Edge 78, Type (0, 1), BuildingBlock: EZIPEK_clean_linker_0, # of connection points: 2
#     Edge 79, Type (0, 1), BuildingBlock: EZIPEK_clean_linker_0, # of connection points: 2
#     Edge 80, Type (0, 1), BuildingBlock: EZIPEK_clean_linker_0, # of connection points: 2
#     Edge 81, Type (0, 1), BuildingBlock: EZIPEK_clean_linker_0, # of connection points: 2
#     Edge 82, Type (0, 1), BuildingBlock: EZIPEK_clean_linker_0, # of connection points: 2
#     Edge 83, Type (0, 1), BuildingBlock: EZIPEK_clean_linker_0, # of connection points: 2
#     Edge 84, Type (0, 1), BuildingBlock: EZIPEK_clean_linker_0, # of connection points: 2
#     Edge 85, Type (0, 1), BuildingBlock: EZIPEK_clean_linker_0, # of connection points: 2
#     Edge 86, Type (0, 1), BuildingBlock: EZIPEK_clean_linker_0, # of connection points: 2
#     Edge 87, Type (0, 1), BuildingBlock: EZIPEK_clean_linker_0, # of connection points: 2
#     Edge 88, Type (0, 1), BuildingBlock: EZIPEK_clean_linker_0, # of connection points: 2
#     Edge 89, Type (0, 1), BuildingBlock: EZIPEK_clean_linker_0, # of connection points: 2
#     Edge 90, Type (0, 1), BuildingBlock: EZIPEK_clean_linker_0, # of connection points: 2
#     Edge 91, Type (0, 1), BuildingBlock: EZIPEK_clean_linker_0, # of connection points: 2
#     Edge 92, Type (0, 1), BuildingBlock: EZIPEK_clean_linker_0, # of connection points: 2
#     Edge 93, Type (0, 1), BuildingBlock: EZIPEK_clean_linker_0, # of connection points: 2
#     Edge 94, Type (0, 1), BuildingBlock: EZIPEK_clean_linker_0, # of connection points: 2
#     Edge 95, Type (0, 1), BuildingBlock: EZIPEK_clean_linker_0, # of connection points: 2
#     Edge 96, Type (0, 1), BuildingBlock: EZIPEK_clean_linker_0, # of connection points: 2
#     Edge 97, Type (0, 1), BuildingBlock: EZIPEK_clean_linker_0, # of connection points: 2
#     Edge 98, Type (0, 1), BuildingBlock: EZIPEK_clean_linker_0, # of connection points: 2
#     Edge 99, Type (0, 1), BuildingBlock: EZIPEK_clean_linker_0, # of connection points: 2
#     Edge 100, Type (0, 1), BuildingBlock: EZIPEK_clean_linker_0, # of connection points: 2
#     Edge 101, Type (0, 1), BuildingBlock: EZIPEK_clean_linker_0, # of connection points: 2
#     Edge 102, Type (0, 1), BuildingBlock: EZIPEK_clean_linker_0, # of connection points: 2
#     Edge 103, Type (0, 1), BuildingBlock: EZIPEK_clean_linker_0, # of connection points: 2
#     Edge 104, Type (0, 1), BuildingBlock: EZIPEK_clean_linker_0, # of connection points: 2
#     Edge 105, Type (0, 1), BuildingBlock: EZIPEK_clean_linker_0, # of connection points: 2
#     Edge 106, Type (0, 1), BuildingBlock: EZIPEK_clean_linker_0, # of connection points: 2
#     Edge 107, Type (0, 1), BuildingBlock: EZIPEK_clean_linker_0, # of connection points: 2
#     Edge 108, Type (0, 1), BuildingBlock: EZIPEK_clean_linker_0, # of connection points: 2
#     Edge 109, Type (0, 1), BuildingBlock: EZIPEK_clean_linker_0, # of connection points: 2
#     Edge 110, Type (0, 1), BuildingBlock: EZIPEK_clean_linker_0, # of connection points: 2
#     Edge 111, Type (0, 1), BuildingBlock: EZIPEK_clean_linker_0, # of connection points: 2
#     Edge 112, Type (0, 1), BuildingBlock: EZIPEK_clean_linker_0, # of connection points: 2
#     Edge 113, Type (0, 1), BuildingBlock: EZIPEK_clean_linker_0, # of connection points: 2
#     Edge 114, Type (0, 1), BuildingBlock: EZIPEK_clean_linker_0, # of connection points: 2
#     Edge 115, Type (0, 1), BuildingBlock: EZIPEK_clean_linker_0, # of connection points: 2
#     Edge 116, Type (0, 1), BuildingBlock: EZIPEK_clean_linker_0, # of connection points: 2
#     Edge 117, Type (0, 1), BuildingBlock: EZIPEK_clean_linker_0, # of connection points: 2
#     Edge 118, Type (0, 1), BuildingBlock: EZIPEK_clean_linker_0, # of connection points: 2
#     Edge 119, Type (0, 1), BuildingBlock: EZIPEK_clean_linker_0, # of connection points: 2
#     Edge 120, Type (0, 1), BuildingBlock: EZIPEK_clean_linker_0, # of connection points: 2
#     Edge 121, Type (0, 1), BuildingBlock: EZIPEK_clean_linker_0, # of connection points: 2
#     Edge 122, Type (0, 1), BuildingBlock: EZIPEK_clean_linker_0, # of connection points: 2
#     Edge 123, Type (0, 1), BuildingBlock: EZIPEK_clean_linker_0, # of connection points: 2
#     Edge 124, Type (0, 1), BuildingBlock: EZIPEK_clean_linker_0, # of connection points: 2
#     Edge 125, Type (0, 1), BuildingBlock: EZIPEK_clean_linker_0, # of connection points: 2
#     Edge 126, Type (0, 1), BuildingBlock: EZIPEK_clean_linker_0, # of connection points: 2
#     Edge 127, Type (0, 1), BuildingBlock: EZIPEK_clean_linker_0, # of connection points: 2
#     Edge 128, Type (0, 1), BuildingBlock: EZIPEK_clean_linker_0, # of connection points: 2
#     Edge 129, Type (0, 1), BuildingBlock: EZIPEK_clean_linker_0, # of connection points: 2
#     Edge 130, Type (0, 1), BuildingBlock: EZIPEK_clean_linker_0, # of connection points: 2
#     Edge 131, Type (0, 1), BuildingBlock: EZIPEK_clean_linker_0, # of connection points: 2
#     Edge 132, Type (0, 1), BuildingBlock: EZIPEK_clean_linker_0, # of connection points: 2
#     Edge 133, Type (0, 1), BuildingBlock: EZIPEK_clean_linker_0, # of connection points: 2
#     Edge 134, Type (0, 1), BuildingBlock: EZIPEK_clean_linker_0, # of connection points: 2
#     Edge 135, Type (0, 1), BuildingBlock: EZIPEK_clean_linker_0, # of connection points: 2
#     Edge 136, Type (0, 1), BuildingBlock: EZIPEK_clean_linker_0, # of connection points: 2
#     Edge 137, Type (0, 1), BuildingBlock: EZIPEK_clean_linker_0, # of connection points: 2
#     Edge 138, Type (0, 1), BuildingBlock: EZIPEK_clean_linker_0, # of connection points: 2
#     Edge 139, Type (0, 1), BuildingBlock: EZIPEK_clean_linker_0, # of connection points: 2
#     Edge 140, Type (0, 1), BuildingBlock: EZIPEK_clean_linker_0, # of connection points: 2
#     Edge 141, Type (0, 1), BuildingBlock: EZIPEK_clean_linker_0, # of connection points: 2
#     Edge 142, Type (0, 1), BuildingBlock: EZIPEK_clean_linker_0, # of connection points: 2
#     Edge 143, Type (0, 1), BuildingBlock: EZIPEK_clean_linker_0, # of connection points: 2
#     Edge 144, Type (0, 1), BuildingBlock: EZIPEK_clean_linker_0, # of connection points: 2
#     Edge 145, Type (0, 1), BuildingBlock: EZIPEK_clean_linker_0, # of connection points: 2
#     Edge 146, Type (0, 1), BuildingBlock: EZIPEK_clean_linker_0, # of connection points: 2
#     Edge 147, Type (0, 1), BuildingBlock: EZIPEK_clean_linker_0, # of connection points: 2
#     Edge 148, Type (0, 1), BuildingBlock: EZIPEK_clean_linker_0, # of connection points: 2
#     Edge 149, Type (0, 1), BuildingBlock: EZIPEK_clean_linker_0, # of connection points: 2
#     Edge 150, Type (0, 1), BuildingBlock: EZIPEK_clean_linker_0, # of connection points: 2
#     Edge 151, Type (0, 1), BuildingBlock: EZIPEK_clean_linker_0, # of connection points: 2
# Relax obj value: 0.019
# Max RMSD: 0.190
# Mean RMSD: 0.115
data_MOF--net-tbo--node1-ESEHIV_clean_sbu_0--node2-CUQRIR_clean_linker_1--edge1-EZIPEK_clean_linker_0
_symmetry_space_group_name_H-M    P1
_symmetry_Int_Tables_number       1
_symmetry_cell_setting            triclinic
loop_
_symmetry_equiv_pos_as_xyz
'x, y, z'
_cell_length_a     48.031915
_cell_length_b     48.383977
_cell_length_c     46.492822
_cell_angle_alpha  86.67873
_cell_angle_beta   96.986789
_cell_angle_gamma 96.271526
loop_
_atom_site_label
_atom_site_type_symbol
_atom_site_fract_x
_atom_site_fract_y
_atom_site_fract_z
_atom_type_partial_charge
C0 C 0.18669 0.17558 0.22152 0.0
N1 N 0.20577 0.17109 0.2034 0.0
N2 N 0.17017 0.19526 0.21016 0.0
C3 C 0.1834 0.16001 0.25008 0.0
C4 C 0.17979 0.20295 0.18443 0.0
N5 N 0.20179 0.18872 0.18017 0.0
C6 C 0.16811 0.22509 0.16386 0.0
H7 H 0.16757 0.1417 0.24641 0.0
H8 H 0.17571 0.17339 0.26539 0.0
H9 H 0.20363 0.15261 0.25993 0.0
H10 H 0.17867 0.24572 0.17035 0.0
H11 H 0.14516 0.2252 0.16489 0.0
H12 H 0.17189 0.22193 0.14127 0.0
C13 C 0.86439 0.19013 0.19497 0.0
N14 N 0.88052 0.18019 0.21843 0.0
N15 N 0.87477 0.21624 0.18699 0.0
C16 C 0.8384 0.17461 0.17997 0.0
C17 C 0.89789 0.22181 0.20631 0.0
N18 N 0.90171 0.19972 0.22513 0.0
C19 C 0.91667 0.24874 0.20658 0.0
H20 H 0.8382 0.15185 0.18467 0.0
H21 H 0.83707 0.17916 0.1562 0.0
H22 H 0.81957 0.18177 0.18775 0.0
H23 H 0.90379 0.26649 0.20164 0.0
H24 H 0.93082 0.2489 0.18939 0.0
H25 H 0.92971 0.25136 0.22784 0.0
C26 C 0.8772 0.87668 0.21589 0.0
N27 N 0.88677 0.85981 0.19754 0.0
N28 N 0.85664 0.89126 0.20211 0.0
C29 C 0.88855 0.87979 0.24728 0.0
C30 C 0.8532 0.88239 0.17483 0.0
N31 N 0.87109 0.8631 0.17184 0.0
C32 C 0.83153 0.89189 0.15128 0.0
H33 H 0.89983 0.86173 0.25603 0.0
H34 H 0.87111 0.88187 0.26036 0.0
H35 H 0.90327 0.89909 0.24936 0.0
H36 H 0.83871 0.89088 0.1296 0.0
H37 H 0.82701 0.91342 0.1545 0.0
H38 H 0.81165 0.87797 0.152 0.0
C39 C 0.1917 0.83487 0.16145 0.0
N40 N 0.21307 0.85513 0.15851 0.0
N41 N 0.17294 0.8432 0.17765 0.0
C42 C 0.19052 0.80591 0.1507 0.0
C43 C 0.18361 0.86954 0.18436 0.0
N44 N 0.20861 0.87682 0.17328 0.0
C45 C 0.16955 0.88772 0.2021 0.0
H46 H 0.19443 0.80671 0.12766 0.0
H47 H 0.16984 0.7938 0.15279 0.0
H48 H 0.20742 0.79494 0.16344 0.0
H49 H 0.17268 0.88052 0.22524 0.0
H50 H 0.14651 0.88579 0.19531 0.0
H51 H 0.17808 0.90987 0.19981 0.0
C52 C 0.21674 0.82201 0.89103 0.0
N53 N 0.23928 0.84094 0.89689 0.0
N54 N 0.20276 0.8272 0.86416 0.0
C55 C 0.2058 0.80212 0.91432 0.0
C56 C 0.2158 0.85285 0.85642 0.0
N57 N 0.23898 0.86001 0.87521 0.0
C58 C 0.203 0.87444 0.83565 0.0
H59 H 0.21813 0.78387 0.91736 0.0
H60 H 0.183 0.79541 0.90949 0.0
H61 H 0.2089 0.8123 0.9354 0.0
H62 H 0.17973 0.87048 0.83183 0.0
H63 H 0.21261 0.87571 0.81504 0.0
H64 H 0.20789 0.89538 0.8446 0.0
C65 C 0.2227 0.14246 0.83858 0.0
N66 N 0.22087 0.16261 0.85723 0.0
N67 N 0.24409 0.12707 0.84817 0.0
C68 C 0.20335 0.13777 0.81091 0.0
C69 C 0.25542 0.13848 0.87343 0.0
N70 N 0.24173 0.16042 0.87901 0.0
C71 C 0.28061 0.12872 0.8921 0.0
H72 H 0.18224 0.12883 0.81627 0.0
H73 H 0.21129 0.1233 0.79695 0.0
H74 H 0.20077 0.15791 0.79872 0.0
H75 H 0.30008 0.13882 0.88374 0.0
H76 H 0.28075 0.10588 0.8912 0.0
H77 H 0.28089 0.13424 0.91497 0.0
C78 C 0.8986 0.21279 0.88734 0.0
N79 N 0.91976 0.20945 0.87138 0.0
N80 N 0.90679 0.23256 0.90692 0.0
C81 C 0.87011 0.19628 0.88443 0.0
C82 C 0.93362 0.24142 0.90227 0.0
N83 N 0.9415 0.22785 0.88028 0.0
C84 C 0.95193 0.26347 0.91925 0.0
H85 H 0.85361 0.20938 0.88868 0.0
H86 H 0.87027 0.17868 0.90082 0.0
H87 H 0.86485 0.18781 0.86254 0.0
H88 H 0.97461 0.26191 0.91798 0.0
H89 H 0.94782 0.26169 0.9423 0.0
H90 H 0.94661 0.28426 0.91032 0.0
C91 C 0.88919 0.90458 0.87929 0.0
N92 N 0.90293 0.88145 0.87882 0.0
N93 N 0.88989 0.9201 0.85414 0.0
C94 C 0.87456 0.91172 0.90424 0.0
C95 C 0.9048 0.90567 0.83832 0.0
N96 N 0.91317 0.88229 0.85319 0.0
C97 C 0.91164 0.91485 0.8083 0.0
H98 H 0.85269 0.90134 0.90189 0.0
H99 H 0.87358 0.93451 0.90449 0.0
H100 H 0.88554 0.90416 0.92513 0.0
H101 H 0.93072 0.93008 0.80989 0.0
H102 H 0.89404 0.9253 0.79618 0.0
H103 H 0.91576 0.89689 0.79621 0.0
C104 C 0.2093 0.70827 0.68541 0.0
N105 N 0.22974 0.70574 0.66812 0.0
N106 N 0.19377 0.72945 0.67546 0.0
C107 C 0.2044 0.68996 0.71187 0.0
C108 C 0.20565 0.73993 0.65166 0.0
N109 N 0.2276 0.72587 0.64727 0.0
C110 C 0.19611 0.76427 0.63288 0.0
H111 H 0.19128 0.67061 0.70506 0.0
H112 H 0.19315 0.70042 0.72692 0.0
H113 H 0.22473 0.68409 0.72325 0.0
H114 H 0.20947 0.78342 0.63989 0.0
H115 H 0.17383 0.76713 0.63482 0.0
H116 H 0.19859 0.7615 0.60983 0.0
C117 C 0.86946 0.70403 0.67458 0.0
N118 N 0.88607 0.69131 0.69594 0.0
N119 N 0.88265 0.72843 0.66544 0.0
C120 C 0.84032 0.69264 0.66232 0.0
C121 C 0.90771 0.73065 0.68227 0.0
N122 N 0.90985 0.70827 0.70108 0.0
C123 C 0.92974 0.7551 0.68086 0.0
H124 H 0.84158 0.68247 0.6418 0.0
H125 H 0.82671 0.7098 0.65717 0.0
H126 H 0.83064 0.67718 0.67772 0.0
H127 H 0.92545 0.771 0.69556 0.0
H128 H 0.929 0.76466 0.65853 0.0
H129 H 0.95112 0.74877 0.68795 0.0
C130 C 0.92185 0.37363 0.72657 0.0
N131 N 0.91926 0.35582 0.70461 0.0
N132 N 0.89894 0.38777 0.7253 0.0
C133 C 0.94631 0.37649 0.75005 0.0
C134 C 0.88221 0.37807 0.70164 0.0
N135 N 0.89465 0.35897 0.68846 0.0
C136 C 0.85373 0.38754 0.69145 0.0
H137 H 0.94121 0.36258 0.76893 0.0
H138 H 0.9501 0.39813 0.75737 0.0
H139 H 0.96577 0.37053 0.7425 0.0
H140 H 0.85657 0.40804 0.67962 0.0
H141 H 0.84233 0.3903 0.71028 0.0
H142 H 0.84085 0.37244 0.67689 0.0
C143 C 0.19627 0.38981 0.69193 0.0
N144 N 0.21998 0.40678 0.68695 0.0
N145 N 0.18653 0.39596 0.71668 0.0
C146 C 0.18249 0.3669 0.67279 0.0
C147 C 0.20448 0.41774 0.72644 0.0
N148 N 0.22452 0.42477 0.70835 0.0
C149 C 0.2024 0.4324 0.75368 0.0
H150 H 0.1885 0.37013 0.65046 0.0
H151 H 0.15922 0.36578 0.67174 0.0
H152 H 0.18887 0.34664 0.68223 0.0
H153 H 0.22373 0.43785 0.76524 0.0
H154 H 0.18921 0.41954 0.76842 0.0
H155 H 0.1927 0.45203 0.74777 0.0
C156 C 0.16498 0.32745 0.36578 0.0
N157 N 0.18813 0.34592 0.36416 0.0
N158 N 0.15129 0.32249 0.33924 0.0
C159 C 0.15655 0.31273 0.39335 0.0
C160 C 0.16647 0.33902 0.32107 0.0
N161 N 0.18888 0.35366 0.33606 0.0
C162 C 0.1591 0.34143 0.28878 0.0
H163 H 0.16492 0.29213 0.39582 0.0
H164 H 0.13325 0.30915 0.39241 0.0
H165 H 0.16506 0.32489 0.41257 0.0
H166 H 0.15075 0.36171 0.28274 0.0
H167 H 0.14291 0.32452 0.28108 0.0
H168 H 0.17835 0.34091 0.27789 0.0
C169 C 0.20142 0.63611 0.32607 0.0
N170 N 0.1994 0.65958 0.34034 0.0
N171 N 0.22777 0.6269 0.3323 0.0
C172 C 0.17991 0.6267 0.30125 0.0
C173 C 0.24234 0.6488 0.34661 0.0
N174 N 0.22509 0.66701 0.3535 0.0
C175 C 0.27364 0.65726 0.34738 0.0
H176 H 0.16168 0.61424 0.3098 0.0
H177 H 0.18909 0.61471 0.28581 0.0
H178 H 0.17151 0.64493 0.28898 0.0
H179 H 0.28336 0.64638 0.33145 0.0
H180 H 0.28433 0.65395 0.36965 0.0
H181 H 0.27737 0.67988 0.34194 0.0
C182 C 0.87816 0.71274 0.38495 0.0
N183 N 0.89013 0.70006 0.36493 0.0
N184 N 0.89313 0.73734 0.39176 0.0
C185 C 0.85165 0.70153 0.39759 0.0
C186 C 0.91443 0.73945 0.37494 0.0
N187 N 0.91249 0.71708 0.35826 0.0
C188 C 0.93686 0.76363 0.37447 0.0
H189 H 0.839 0.68565 0.38381 0.0
H190 H 0.83878 0.71873 0.40019 0.0
H191 H 0.8574 0.6919 0.41944 0.0
H192 H 0.94011 0.77408 0.39541 0.0
H193 H 0.93006 0.77895 0.35705 0.0
H194 H 0.95706 0.75674 0.36977 0.0
C195 C 0.87011 0.36272 0.40629 0.0
N196 N 0.87695 0.33598 0.40988 0.0
N197 N 0.87745 0.37484 0.38068 0.0
C198 C 0.85599 0.37681 0.42765 0.0
C199 C 0.88859 0.35434 0.36872 0.0
N200 N 0.88875 0.33101 0.3863 0.0
C201 C 0.9002 0.3573 0.33989 0.0
H202 H 0.83313 0.36958 0.425 0.0
H203 H 0.85871 0.39976 0.42409 0.0
H204 H 0.8645 0.37103 0.45018 0.0
H205 H 0.92335 0.36286 0.34352 0.0
H206 H 0.89061 0.37377 0.32565 0.0
H207 H 0.89627 0.33731 0.32879 0.0
C208 C 0.70227 0.17592 0.71115 0.0
N209 N 0.72351 0.17446 0.69464 0.0
N210 N 0.6821 0.19085 0.69726 0.0
C211 C 0.70123 0.16286 0.74125 0.0
C212 C 0.69204 0.19897 0.67158 0.0
N213 N 0.7176 0.18954 0.66995 0.0
C214 C 0.67665 0.2161 0.64815 0.0
H215 H 0.68934 0.14191 0.73977 0.0
H216 H 0.69017 0.17552 0.75451 0.0
H217 H 0.72276 0.16063 0.75224 0.0
H218 H 0.68199 0.23847 0.65249 0.0
H219 H 0.65352 0.21122 0.64805 0.0
H220 H 0.68282 0.21234 0.62658 0.0
C221 C 0.33816 0.18081 0.66629 0.0
N222 N 0.36107 0.17712 0.68577 0.0
N223 N 0.34063 0.20663 0.65323 0.0
C224 C 0.31318 0.1596 0.66053 0.0
C225 C 0.36591 0.2184 0.66516 0.0
N226 N 0.3785 0.20046 0.68466 0.0
C227 C 0.37824 0.24743 0.65757 0.0
H228 H 0.31965 0.13821 0.6638 0.0
H229 H 0.30262 0.16267 0.63816 0.0
H230 H 0.29785 0.16208 0.67598 0.0
H231 H 0.36151 0.26178 0.65424 0.0
H232 H 0.38759 0.24728 0.63691 0.0
H233 H 0.39491 0.25527 0.67467 0.0
C234 C 0.4138 0.86549 0.71342 0.0
N235 N 0.41898 0.84494 0.69672 0.0
N236 N 0.38984 0.87673 0.70241 0.0
C237 C 0.4323 0.87502 0.74011 0.0
C238 C 0.38053 0.86213 0.67848 0.0
N239 N 0.39804 0.84267 0.67515 0.0
C240 C 0.35455 0.86704 0.65822 0.0
H241 H 0.44493 0.8583 0.75003 0.0
H242 H 0.41939 0.88173 0.75616 0.0
H243 H 0.44693 0.89318 0.73399 0.0
H244 H 0.35782 0.86359 0.63554 0.0
H245 H 0.34868 0.88841 0.65976 0.0
H246 H 0.33686 0.85194 0.66421 0.0
C247 C 0.70944 0.8712 0.68745 0.0
N248 N 0.73179 0.8884 0.67928 0.0
N249 N 0.70484 0.87578 0.7149 0.0
C250 C 0.69194 0.84987 0.66885 0.0
C251 C 0.72485 0.89664 0.7231 0.0
N252 N 0.74089 0.90474 0.70137 0.0
C253 C 0.72847 0.90921 0.75229 0.0
H254 H 0.66931 0.84999 0.67155 0.0
H255 H 0.69802 0.82889 0.67609 0.0
H256 H 0.69488 0.85383 0.64562 0.0
H257 H 0.7244 0.89291 0.76948 0.0
H258 H 0.71284 0.92448 0.75233 0.0
H259 H 0.74997 0.92003 0.75723 0.0
C260 C 0.6716 0.81921 0.37439 0.0
N261 N 0.69469 0.83753 0.37986 0.0
N262 N 0.65783 0.82484 0.34789 0.0
C263 C 0.66284 0.79531 0.39464 0.0
C264 C 0.67354 0.84733 0.33734 0.0
N265 N 0.69592 0.85518 0.35691 0.0
C266 C 0.66725 0.86158 0.30812 0.0
H267 H 0.67165 0.77642 0.38876 0.0
H268 H 0.63953 0.79103 0.39261 0.0
H269 H 0.67092 0.79955 0.41749 0.0
H270 H 0.66123 0.88265 0.31103 0.0
H271 H 0.64992 0.84964 0.29461 0.0
H272 H 0.68652 0.86426 0.29686 0.0
C273 C 0.68369 0.15095 0.32935 0.0
N274 N 0.6809 0.17499 0.34195 0.0
N275 N 0.70927 0.14209 0.33776 0.0
C276 C 0.66123 0.13582 0.30887 0.0
C277 C 0.722 0.16135 0.35647 0.0
N278 N 0.70473 0.18124 0.35958 0.0
C279 C 0.75117 0.16043 0.37213 0.0
H280 H 0.66253 0.11303 0.31123 0.0
H281 H 0.66452 0.1427 0.28624 0.0
H282 H 0.6399 0.14036 0.31282 0.0
H283 H 0.76445 0.14974 0.35929 0.0
H284 H 0.74978 0.14864 0.39318 0.0
H285 H 0.76121 0.18176 0.37655 0.0
C286 C 0.3473 0.18974 0.39229 0.0
N287 N 0.36549 0.18273 0.37424 0.0
N288 N 0.35873 0.21213 0.40776 0.0
C289 C 0.31837 0.17522 0.39436 0.0
C290 C 0.38429 0.21844 0.39854 0.0
N291 N 0.3883 0.20106 0.37806 0.0
C292 C 0.40475 0.24288 0.40834 0.0
H293 H 0.30871 0.16806 0.37281 0.0
H294 H 0.30469 0.18909 0.40293 0.0
H295 H 0.3201 0.15665 0.40937 0.0
H296 H 0.40331 0.247 0.4313 0.0
H297 H 0.39936 0.26165 0.39484 0.0
H298 H 0.42673 0.23928 0.40586 0.0
C299 C 0.35291 0.87348 0.35429 0.0
N300 N 0.36822 0.85125 0.35793 0.0
N301 N 0.35651 0.88773 0.32888 0.0
C302 C 0.33556 0.88223 0.37646 0.0
C303 C 0.3744 0.87303 0.31684 0.0
N304 N 0.38152 0.85063 0.33426 0.0
C305 C 0.38585 0.88115 0.28856 0.0
H306 H 0.31748 0.89297 0.36606 0.0
H307 H 0.349 0.89698 0.39097 0.0
H308 H 0.32749 0.86406 0.38984 0.0
H309 H 0.37393 0.89717 0.27604 0.0
H310 H 0.38502 0.86261 0.27541 0.0
H311 H 0.4083 0.88955 0.29305 0.0
C312 C 0.70171 0.67647 0.21169 0.0
N313 N 0.72415 0.67522 0.19666 0.0
N314 N 0.68676 0.69796 0.20148 0.0
C315 C 0.69469 0.6572 0.23687 0.0
C316 C 0.7009 0.70962 0.17939 0.0
N317 N 0.72343 0.69568 0.17618 0.0
C318 C 0.69245 0.73449 0.16095 0.0
H319 H 0.6715 0.65267 0.23643 0.0
H320 H 0.7028 0.66757 0.25733 0.0
H321 H 0.7044 0.63744 0.23667 0.0
H322 H 0.68648 0.75034 0.17475 0.0
H323 H 0.67364 0.72793 0.14564 0.0
H324 H 0.70965 0.74378 0.14841 0.0
C325 C 0.37866 0.69192 0.15487 0.0
N326 N 0.38788 0.67697 0.17922 0.0
N327 N 0.39331 0.71749 0.15375 0.0
C328 C 0.35517 0.6818 0.13247 0.0
C329 C 0.41157 0.71783 0.17816 0.0
N330 N 0.40882 0.69323 0.19343 0.0
C331 C 0.43309 0.74194 0.18649 0.0
H332 H 0.35503 0.65911 0.13001 0.0
H333 H 0.35715 0.69315 0.11126 0.0
H334 H 0.33478 0.68554 0.1397 0.0
H335 H 0.42537 0.76205 0.17837 0.0
H336 H 0.45262 0.73978 0.17666 0.0
H337 H 0.43833 0.74219 0.21037 0.0
C338 C 0.40704 0.3627 0.20741 0.0
N339 N 0.40812 0.34042 0.19118 0.0
N340 N 0.38307 0.37509 0.19951 0.0
C341 C 0.42933 0.37201 0.23145 0.0
C342 C 0.36965 0.35951 0.17751 0.0
N343 N 0.3848 0.33851 0.1722 0.0
C344 C 0.34192 0.36507 0.16074 0.0
H345 H 0.42584 0.35901 0.2514 0.0
H346 H 0.42852 0.39414 0.236 0.0
H347 H 0.45058 0.36912 0.22579 0.0
H348 H 0.34593 0.37724 0.14043 0.0
H349 H 0.32975 0.37714 0.17346 0.0
H350 H 0.32932 0.3452 0.15472 0.0
C351 C 0.7055 0.37583 0.19996 0.0
N352 N 0.72772 0.39454 0.19465 0.0
N353 N 0.68962 0.38598 0.2181 0.0
C354 C 0.6985 0.34813 0.18633 0.0
C355 C 0.70264 0.41147 0.2238 0.0
N356 N 0.72601 0.41684 0.2099 0.0
C357 C 0.69349 0.43035 0.24469 0.0
H358 H 0.6852 0.351 0.16535 0.0
H359 H 0.6865 0.33318 0.20043 0.0
H360 H 0.71797 0.33945 0.18205 0.0
H361 H 0.70209 0.4241 0.26707 0.0
H362 H 0.67016 0.42839 0.24364 0.0
H363 H 0.70137 0.45238 0.24002 0.0
C364 C 0.67808 0.35011 0.8823 0.0
N365 N 0.70349 0.36534 0.88781 0.0
N366 N 0.66431 0.35851 0.85669 0.0
C367 C 0.66704 0.32602 0.90105 0.0
C368 C 0.68155 0.37997 0.84705 0.0
N369 N 0.70531 0.38429 0.86578 0.0
C370 C 0.67664 0.39466 0.81772 0.0
H371 H 0.67107 0.30626 0.89209 0.0
H372 H 0.64388 0.32579 0.90079 0.0
H373 H 0.67731 0.32711 0.92371 0.0
H374 H 0.68073 0.41751 0.81973 0.0
H375 H 0.65478 0.38953 0.80734 0.0
H376 H 0.69164 0.38839 0.80355 0.0
C377 C 0.75158 0.65728 0.84344 0.0
N378 N 0.74003 0.67679 0.85701 0.0
N379 N 0.77117 0.64485 0.86159 0.0
C380 C 0.74358 0.64999 0.81231 0.0
C381 C 0.77135 0.65741 0.88682 0.0
N382 N 0.75303 0.67733 0.88419 0.0
C383 C 0.79036 0.65087 0.91392 0.0
H384 H 0.72895 0.63058 0.8114 0.0
H385 H 0.76261 0.64601 0.80247 0.0
H386 H 0.73319 0.66691 0.79957 0.0
H387 H 0.81167 0.66186 0.91229 0.0
H388 H 0.79244 0.6282 0.91624 0.0
H389 H 0.78218 0.65768 0.9334 0.0
C390 C 0.40357 0.6987 0.87791 0.0
N391 N 0.42129 0.69345 0.85871 0.0
N392 N 0.41802 0.70927 0.90238 0.0
C393 C 0.37199 0.69296 0.87268 0.0
C394 C 0.44528 0.71086 0.89715 0.0
N395 N 0.44746 0.70193 0.87048 0.0
C396 C 0.47013 0.72126 0.91804 0.0
H397 H 0.36153 0.70568 0.88642 0.0
H398 H 0.36581 0.67061 0.87774 0.0
H399 H 0.36457 0.69742 0.8495 0.0
H400 H 0.46502 0.71901 0.94075 0.0
H401 H 0.47629 0.74355 0.91268 0.0
H402 H 0.48844 0.70965 0.91602 0.0
C403 C 0.38278 0.39016 0.85821 0.0
N404 N 0.39149 0.36531 0.86891 0.0
N405 N 0.4007 0.40338 0.84033 0.0
C406 C 0.35704 0.40193 0.86573 0.0
C407 C 0.42073 0.38576 0.84044 0.0
N408 N 0.41506 0.36215 0.85719 0.0
C409 C 0.44598 0.39192 0.824 0.0
H410 H 0.34098 0.38509 0.8719 0.0
H411 H 0.34781 0.41481 0.84721 0.0
H412 H 0.36323 0.4155 0.88436 0.0
H413 H 0.45392 0.4143 0.82506 0.0
H414 H 0.43964 0.38756 0.80083 0.0
H415 H 0.46317 0.37915 0.83283 0.0
Cu416 Cu 0.30758 0.25836 0.02342 0.0
N417 N 0.31271 0.28961 0.99727 0.0
N418 N 0.33078 0.31536 0.96072 0.0
C419 C 0.33216 0.29209 0.97818 0.0
C420 C 0.30988 0.32827 0.9693 0.0
C421 C 0.2987 0.31234 0.99173 0.0
O422 O 0.30103 0.22714 0.99694 0.0
C423 C 0.33897 0.28432 0.06917 0.0
O424 O 0.3193 0.30089 0.06089 0.0
H425 H 0.34701 0.27702 0.97703 0.0
H426 H 0.28152 0.317 1.00303 0.0
N427 N 0.27633 0.25434 0.04516 0.0
N428 N 0.25113 0.23792 0.0814 0.0
C429 C 0.27411 0.23569 0.06789 0.0
C430 C 0.2538 0.26881 0.04428 0.0
C431 C 0.23829 0.25876 0.06665 0.0
C432 C 0.27978 0.22901 0.97748 0.0
O433 O 0.26443 0.24979 0.97802 0.0
H434 H 0.28947 0.22118 0.07486 0.0
H435 H 0.24922 0.28582 0.02894 0.0
O436 O 0.33966 0.26274 0.05453 0.0
H437 H 0.3032 0.34784 0.96 0.0
H438 H 0.21933 0.26649 0.07202 0.0
Cu439 Cu 0.78997 0.29964 0.04117 0.0
N440 N 0.7712 0.31974 0.06762 0.0
N441 N 0.76066 0.34659 0.10161 0.0
C442 C 0.78037 0.34163 0.08446 0.0
C443 C 0.73859 0.32741 0.09506 0.0
C444 C 0.74514 0.31096 0.07429 0.0
O445 O 0.80836 0.27765 0.07587 0.0
C446 C 0.78031 0.33641 0.98785 0.0
O447 O 0.8076 0.34374 0.99144 0.0
H448 H 0.80096 0.35323 0.08459 0.0
H449 H 0.73204 0.29333 0.06499 0.0
N450 N 0.80662 0.27737 1.01496 0.0
N451 N 0.83333 0.26116 0.98494 0.0
C452 C 0.83048 0.2823 1.00191 0.0
C453 C 0.79444 0.25244 1.00614 0.0
C454 C 0.81082 0.24242 0.98764 0.0
C455 C 0.83126 0.28599 0.09102 0.0
O456 O 0.84482 0.31018 0.08456 0.0
H457 H 0.84521 0.30081 1.00454 0.0
H458 H 0.7748 0.24238 1.01261 0.0
O459 O 0.76902 0.31933 1.00606 0.0
H460 H 0.71912 0.32537 0.10492 0.0
H461 H 0.80656 0.22292 0.97683 0.0
Cu462 Cu 0.82131 0.76875 0.02366 0.0
N463 N 0.85301 0.77657 1.00228 0.0
N464 N 0.87874 0.79871 0.96863 0.0
C465 C 0.857 0.79957 0.9845 0.0
C466 C 0.88924 0.77438 0.97712 0.0
C467 C 0.87353 0.7609 0.99796 0.0
O468 O 0.78848 0.75496 0.99578 0.0
C469 C 0.84539 0.80176 0.06734 0.0
O470 O 0.86427 0.78452 0.0652 0.0
H471 H 0.84328 0.81608 0.98212 0.0
H472 H 0.87595 0.74044 1.00799 0.0
N473 N 0.82004 0.73974 0.05261 0.0
N474 N 0.80163 0.71758 0.09093 0.0
C475 C 0.79788 0.73602 0.06829 0.0
C476 C 0.83858 0.72268 0.06574 0.0
C477 C 0.82718 0.70889 0.08941 0.0
C478 C 0.78427 0.76177 0.96876 0.0
O479 O 0.79724 0.78514 0.95919 0.0
H480 H 0.77975 0.74772 0.06391 0.0
H481 H 0.85935 0.72135 0.05953 0.0
O482 O 0.82316 0.80062 0.04876 0.0
H483 H 0.9063 0.7664 0.96802 0.0
H484 H 0.83729 0.69447 0.1049 0.0
Cu485 Cu 0.35085 0.80436 0.04525 0.0
N486 N 0.32545 0.80081 0.07285 0.0
N487 N 0.29486 0.81325 0.10088 0.0
C488 C 0.31577 0.82217 0.08465 0.0
C489 C 0.29136 0.78533 0.0995 0.0
C490 C 0.31025 0.77768 0.08211 0.0
O491 O 0.38598 0.82496 0.06042 0.0
C492 C 0.31059 0.81276 0.9988 0.0
O493 O 0.29946 0.78899 1.00959 0.0
H494 H 0.32293 0.84384 0.08032 0.0
H495 H 0.31182 0.75688 0.07562 0.0
N496 N 0.35872 0.77044 0.03261 0.0
N497 N 0.37533 0.74252 1.00353 0.0
C498 C 0.36758 0.76803 1.00664 0.0
C499 C 0.36041 0.74536 0.04644 0.0
C500 C 0.37115 0.7282 0.02872 0.0
C501 C 0.40342 0.81647 0.08106 0.0
O502 O 0.42689 0.83224 0.08861 0.0
H503 H 0.36956 0.78518 0.99078 0.0
H504 H 0.35558 0.74027 0.06835 0.0
O505 O 0.33371 0.82414 1.01123 0.0
H506 H 0.27559 0.77163 0.10955 0.0
H507 H 0.37601 0.70706 0.0341 0.0
Cu508 Cu 0.02331 0.22207 0.32289 0.0
N509 N 0.04539 0.2317 0.29217 0.0
N510 N 0.07815 0.23005 0.26192 0.0
C511 C 0.06756 0.21891 0.28618 0.0
C512 C 0.0621 0.25061 0.25224 0.0
C513 C 0.04208 0.25171 0.27101 0.0
O514 O 0.04568 0.22808 0.36005 0.0
C515 C 0.98965 0.16871 0.3108 0.0
O516 O 0.98585 0.14163 0.31566 0.0
H517 H 0.07545 0.20143 0.299 0.0
H518 H 0.02614 0.26604 0.26921 0.0
N519 N 0.99156 0.24187 0.32221 0.0
N520 N 0.95804 0.26375 0.33828 0.0
C521 C 0.98054 0.24924 0.34572 0.0
C522 C 0.97506 0.25158 0.29917 0.0
C523 C 0.95439 0.26506 0.30902 0.0
C524 C 0.06863 0.24303 0.36761 0.0
O525 O 0.07896 0.24221 0.39508 0.0
H526 H 0.98918 0.2446 0.36786 0.0
H527 H 0.97775 0.24898 0.27677 0.0
O528 O 1.01141 0.18228 0.32368 0.0
H529 H 0.06476 0.26386 0.23299 0.0
H530 H 0.93807 0.2753 0.29575 0.0
Cu531 Cu 0.79622 1.01538 0.2905 0.0
N532 N 0.83013 0.03846 0.29265 0.0
N533 N 0.85787 0.07639 0.28053 0.0
C534 C 0.83325 0.06071 0.27414 0.0
C535 C 0.87106 0.06361 0.30408 0.0
C536 C 0.85382 0.04 0.31153 0.0
O537 O 0.76882 0.04288 0.28768 0.0
C538 C 0.81548 0.97422 0.2629 0.0
O539 O 0.83186 0.97462 0.28766 0.0
H540 H 0.81714 0.06598 0.25694 0.0
H541 H 0.85788 0.02562 0.32986 0.0
N542 N 0.79087 0.99103 0.32267 0.0
N543 N 0.77194 0.95358 0.34645 0.0
C544 C 0.77222 0.96814 0.32095 0.0
C545 C 0.8028 0.99105 0.35045 0.0
C546 C 0.79106 0.96778 0.36527 0.0
C547 C 0.74763 0.04141 0.30195 0.0
O548 O 0.73796 0.01724 0.31315 0.0
H549 H 0.75867 0.96249 0.30139 0.0
H550 H 0.81868 1.00683 0.35934 0.0
O551 O 0.79678 0.99135 0.25809 0.0
H552 H 0.89113 0.07129 0.31555 0.0
H553 H 0.79599 0.96186 0.38797 0.0
Cu554 Cu 0.04497 0.76163 0.26711 0.0
N555 N 0.02835 0.79606 0.26421 0.0
N556 N 0.99424 0.82191 0.24245 0.0
C557 C 1.00016 0.79814 0.25804 0.0
C558 C 1.0198 0.83554 0.23929 0.0
C559 C 0.04041 0.82005 0.25288 0.0
O560 O 1.01268 0.73323 0.27045 0.0
C561 C 0.08928 0.78061 0.23698 0.0
O562 O 0.09734 0.79042 0.26273 0.0
H563 H 0.98428 0.78152 0.26268 0.0
H564 H 0.06267 0.82497 0.25161 0.0
N565 N 0.07296 0.75291 0.29839 0.0
N566 N 0.10943 0.73135 0.32127 0.0
C567 C 0.09035 0.73274 0.29739 0.0
C568 C 0.08151 0.7647 0.32398 0.0
C569 C 0.10392 0.75143 0.3381 0.0
C570 C 1.00347 0.73326 0.29517 0.0
O571 O 1.01681 0.75036 0.31438 0.0
H572 H 0.08946 0.71969 0.27908 0.0
H573 H 0.0725 0.78206 0.33161 0.0
O574 O 0.06597 0.76488 0.23291 0.0
H575 H 0.02342 0.85482 0.22663 0.0
H576 H 0.11562 0.7565 0.35884 0.0
Cu577 Cu 0.30035 0.03375 0.25421 0.0
N578 N 0.33141 0.05867 0.26896 0.0
N579 N 0.35416 0.09358 0.29542 0.0
C580 C 0.33064 0.07567 0.29092 0.0
C581 C 0.37092 0.08732 0.27595 0.0
C582 C 0.35678 0.06588 0.25955 0.0
O583 O 0.27008 0.05782 0.24019 0.0
C584 C 0.31472 0.99574 0.30208 0.0
O585 O 0.32963 0.01667 0.31532 0.0
H586 H 0.31298 0.07524 0.3033 0.0
H587 H 0.36413 0.05682 0.24149 0.0
N588 N 0.30328 1.01549 0.22006 0.0
N589 N 0.28109 0.97898 0.19517 0.0
C590 C 0.29807 0.98735 0.21928 0.0
C591 C 0.29096 0.02493 0.19432 0.0
C592 C 0.27715 1.00274 0.17925 0.0
C593 C 0.25983 0.07646 0.25283 0.0
O594 O 0.26415 0.07739 0.28118 0.0
H595 H 0.30281 0.97354 0.23795 0.0
H596 H 0.28785 0.04653 0.18906 0.0
O597 O 0.29577 1.00098 0.28126 0.0
H598 H 0.39141 0.09815 0.27308 0.0
H599 H 0.26266 1.00426 0.1596 0.0
Cu600 Cu 0.05037 0.77888 0.77991 0.0
N601 N 0.07072 0.78501 0.747 0.0
N602 N 0.10276 0.77675 0.71782 0.0
C603 C 0.08449 0.76558 0.73631 0.0
C604 C 0.0996 0.80418 0.71577 0.0
C605 C 0.07963 0.80918 0.73347 0.0
O606 O 0.07835 0.77221 0.8137 0.0
C607 C 1.00734 0.72962 0.7807 0.0
O608 O 1.01734 0.7212 0.8069 0.0
H609 H 0.08252 0.74382 0.74332 0.0
H610 H 0.07397 0.82935 0.73813 0.0
N611 N 0.03489 0.81011 0.79228 0.0
N612 N 1.00511 0.83369 0.81321 0.0
C613 C 1.00758 0.81494 0.79309 0.0
C614 C 0.0497 0.82639 0.81252 0.0
C615 C 0.03171 0.84057 0.82535 0.0
C616 C 0.10234 0.76348 0.81291 0.0
O617 O 0.10532 0.74589 0.79341 0.0
H618 H 0.98984 0.8037 0.78063 0.0
H619 H 0.07189 0.82608 0.8197 0.0
O620 O 1.01877 0.75137 0.76843 0.0
H621 H 0.11226 0.81975 0.70395 0.0
H622 H 0.03764 0.85432 0.84315 0.0
Cu623 Cu 0.32992 1.00778 0.78262 0.0
N624 N 0.35793 0.03732 0.77728 0.0
N625 N 0.37417 0.07875 0.75845 0.0
C626 C 0.35356 0.0575 0.75649 0.0
C627 C 0.39258 0.07177 0.78129 0.0
C628 C 0.38247 0.04608 0.79295 0.0
O629 O 0.29609 0.02695 0.78322 0.0
C630 C 0.35348 0.96842 0.75574 0.0
O631 O 0.37358 0.97574 0.77645 0.0
H632 H 0.33487 0.05718 0.74091 0.0
H633 H 0.39172 0.03531 0.81216 0.0
N634 N 0.3325 0.98642 0.81764 0.0
N635 N 0.3178 0.95219 0.84836 0.0
C636 C 0.31177 0.96643 0.82307 0.0
C637 C 0.35255 0.98477 0.84046 0.0
C638 C 0.34348 0.96347 0.85954 0.0
C639 C 0.29865 0.04296 0.80457 0.0
O640 O 0.32174 0.04376 0.82291 0.0
H641 H 0.29283 0.96188 0.80825 0.0
H642 H 0.37253 0.99753 0.84278 0.0
O643 O 0.331 0.98081 0.75281 0.0
H644 H 0.41124 0.0848 0.78964 0.0
H645 H 0.35505 0.95636 0.87955 0.0
Cu646 Cu 0.07264 0.27387 0.78008 0.0
N647 N 0.04704 0.27427 0.74615 0.0
N648 N 1.00931 0.28784 0.71784 0.0
C649 C 0.02556 0.29036 0.74347 0.0
C650 C 0.02079 0.26917 0.70363 0.0
C651 C 0.04426 0.2609 0.72117 0.0
O652 O 0.04714 0.27426 0.80956 0.0
C653 C 0.09678 0.33064 0.76952 0.0
O654 O 0.07191 0.33879 0.77151 0.0
H655 H 0.02164 0.30354 0.76028 0.0
H656 H 0.05807 0.24608 0.71613 0.0
N657 N 0.09313 0.24263 0.78736 0.0
N658 N 0.12687 0.21649 0.80753 0.0
C659 C 0.1169 0.24166 0.80617 0.0
C660 C 0.08783 0.21712 0.7766 0.0
C661 C 0.1086 0.20098 0.789 0.0
C662 C 0.04703 0.25853 0.83247 0.0
O663 O 0.06973 0.24658 0.84249 0.0
H664 H 0.12657 0.25901 0.81882 0.0
H665 H 0.07 0.21063 0.76109 0.0
O666 O 0.10093 0.30531 0.77537 0.0
H667 H 1.01264 0.2619 0.68236 0.0
H668 H 0.11009 0.17941 0.78492 0.0
Cu669 Cu 0.84041 0.05928 0.76341 0.0
N670 N 0.87245 0.08507 0.77221 0.0
N671 N 0.89954 0.12114 0.79262 0.0
C672 C 0.87598 0.10335 0.79358 0.0
C673 C 0.91178 0.11365 0.77006 0.0
C674 C 0.89493 0.09145 0.75742 0.0
O675 O 0.80839 0.07984 0.7467 0.0
C676 C 0.85329 0.02863 0.81789 0.0
O677 O 0.86901 0.05077 0.82772 0.0
H678 H 0.86126 0.10402 0.80934 0.0
H679 H 0.89843 0.08119 0.73831 0.0
N680 N 0.84368 0.03558 0.73383 0.0
N681 N 0.82457 0.99842 0.709 0.0
C682 C 0.83219 1.00888 0.73535 0.0
C683 C 0.84398 0.04205 0.70528 0.0
C684 C 0.83221 0.01909 0.68989 0.0
C685 C 0.80419 0.10452 0.75217 0.0
O686 O 0.81928 0.11678 0.77417 0.0
H687 H 0.82529 0.99871 0.75497 0.0
H688 H 0.84856 0.06292 0.69621 0.0
O689 O 0.83538 0.03133 0.79552 0.0
H690 H 0.93105 0.12392 0.76286 0.0
H691 H 0.82645 0.0188 0.66666 0.0
Cu692 Cu 0.32754 0.76193 0.50935 0.0
N693 N 0.35957 0.76098 0.53639 0.0
N694 N 0.38418 0.77361 0.57827 0.0
C695 C 0.36569 0.78093 0.5558 0.0
C696 C 0.39048 0.74808 0.57279 0.0
C697 C 0.3751 0.74023 0.54679 0.0
O698 O 0.29766 0.76546 0.53372 0.0
C699 C 0.35646 0.78663 0.46473 0.0
O700 O 0.37216 0.76648 0.47344 0.0
H701 H 0.35474 0.79943 0.55483 0.0
H702 H 0.37344 0.71998 0.53765 0.0
N703 N 0.31527 0.73012 0.4889 0.0
N704 N 0.28789 0.70781 0.45349 0.0
C705 C 0.28971 0.72742 0.47317 0.0
C706 C 0.32995 0.71109 0.47929 0.0
C707 C 0.31294 0.69713 0.45745 0.0
C708 C 0.29533 0.74533 0.55273 0.0
O709 O 0.31135 0.72499 0.5528 0.0
H710 H 0.27371 0.74132 0.4743 0.0
H711 H 0.35206 0.70916 0.48584 0.0
O712 O 0.33582 0.79027 0.47869 0.0
H713 H 0.40346 0.73529 0.58751 0.0
H714 H 0.31905 0.68163 0.44423 0.0
Cu715 Cu 0.81551 0.83036 0.52709 0.0
N716 N 0.84582 0.83047 0.50517 0.0
N717 N 0.8701 0.81353 0.47329 0.0
C718 C 0.84793 0.80897 0.48866 0.0
C719 C 0.88278 0.83889 0.48045 0.0
C720 C 0.86765 0.84939 0.50022 0.0
O721 O 0.78213 0.82175 0.49965 0.0
C722 C 0.84498 0.80589 0.57453 0.0
O723 O 0.86289 0.82765 0.56954 0.0
H724 H 0.83304 0.79046 0.48747 0.0
H725 H 0.87191 0.86949 0.50978 0.0
N726 N 0.80982 0.86333 0.54426 0.0
N727 N 0.78747 0.88213 0.57709 0.0
C728 C 0.80536 0.86353 0.57239 0.0
C729 C 0.79513 0.88356 0.53091 0.0
C730 C 0.78119 0.8949 0.5509 0.0
C731 C 0.78138 0.83579 0.4755 0.0
O732 O 0.80266 0.8541 0.47039 0.0
H733 H 0.8116 0.84758 0.58821 0.0
H734 H 0.79159 0.88735 0.5077 0.0
O735 O 0.82165 0.80231 0.55821 0.0
H736 H 0.90121 0.84923 0.47159 0.0
H737 H 0.7656 0.90957 0.546 0.0
Cu738 Cu 0.80156 0.26141 0.5252 0.0
N739 N 0.77544 0.26622 0.49175 0.0
N740 N 0.74637 0.25443 0.45153 0.0
C741 C 0.7665 0.2464 0.47236 0.0
C742 C 0.74187 0.28014 0.45857 0.0
C743 C 0.75992 0.28742 0.4832 0.0
O744 O 0.83154 0.24173 0.51249 0.0
C745 C 0.78877 0.22825 0.57904 0.0
O746 O 0.81599 0.22675 0.58524 0.0
H747 H 0.77409 0.22605 0.47393 0.0
H748 H 0.76113 0.30653 0.49447 0.0
N749 N 0.81974 0.29434 0.54205 0.0
N750 N 0.84649 0.32015 0.57609 0.0
C751 C 0.827 0.298 0.57078 0.0
C752 C 0.83476 0.3153 0.52873 0.0
C753 C 0.85151 0.33088 0.5495 0.0
C754 C 0.84967 0.24673 0.49401 0.0
O755 O 0.86698 0.22789 0.49209 0.0
H756 H 0.81954 0.28373 0.58756 0.0
H757 H 0.83476 0.31814 0.50551 0.0
O758 O 0.77955 0.24055 0.55515 0.0
H759 H 0.72646 0.29265 0.44686 0.0
H760 H 0.86678 0.34839 0.54535 0.0
Cu761 Cu 0.27805 0.32097 0.52895 0.0
N762 N 0.27839 0.35328 0.55076 0.0
N763 N 0.26842 0.37798 0.58758 0.0
C764 C 0.28085 0.35581 0.58001 0.0
C765 C 0.25843 0.38992 0.56202 0.0
C766 C 0.26464 0.37501 0.5398 0.0
O767 O 0.27162 0.28758 0.55448 0.0
C768 C 0.25902 0.34137 0.4729 0.0
O769 O 0.28401 0.35557 0.47652 0.0
H770 H 0.28927 0.34037 0.59545 0.0
H771 H 0.25667 0.37807 0.51731 0.0
N772 N 0.31045 0.31414 0.51282 0.0
N773 N 0.33328 0.29026 0.48499 0.0
C774 C 0.3097 0.29113 0.49761 0.0
C775 C 0.33566 0.32851 0.50979 0.0
C776 C 0.34985 0.31371 0.49246 0.0
C777 C 0.29315 0.28262 0.57232 0.0
O778 O 0.31585 0.30046 0.57323 0.0
H779 H 0.2916 0.27572 0.49493 0.0
H780 H 0.34275 0.34863 0.51856 0.0
O781 O 0.25096 0.32485 0.49364 0.0
H782 H 0.24552 0.40709 0.55956 0.0
H783 H 0.37029 0.32001 0.48526 0.0
Cu784 Cu 0.83679 0.5202 0.78632 0.0
N785 N 0.83651 0.53907 0.75031 0.0
N786 N 0.85296 0.57707 0.72539 0.0
C787 C 0.83734 0.56699 0.74671 0.0
C788 C 0.86134 0.55452 0.71452 0.0
C789 C 0.85091 0.53119 0.72961 0.0
O790 O 0.84081 0.55105 0.81305 0.0
C791 C 0.87157 0.47233 0.79757 0.0
O792 O 0.86673 0.46885 0.8248 0.0
H793 H 0.82983 0.5799 0.76178 0.0
H794 H 0.85686 0.51043 0.72823 0.0
N795 N 0.8028 0.49873 0.79052 0.0
N796 N 0.77162 0.46828 0.81029 0.0
C797 C 0.79869 0.47909 0.81175 0.0
C798 C 0.77741 0.50016 0.77495 0.0
C799 C 0.758 0.48131 0.78722 0.0
C800 C 0.82752 0.55069 0.83525 0.0
O801 O 0.8197 0.52662 0.84793 0.0
H802 H 0.81496 0.47327 0.82842 0.0
H803 H 0.77326 0.51428 0.7564 0.0
O804 O 0.86478 0.49412 0.78286 0.0
H805 H 0.8759 0.55506 0.69839 0.0
H806 H 0.7357 0.4775 0.77995 0.0
Cu807 Cu 0.33878 0.56637 0.75198 0.0
N808 N 0.36823 0.54315 0.75464 0.0
N809 N 0.38968 0.50567 0.77231 0.0
C810 C 0.36984 0.52257 0.77551 0.0
C811 C 0.40172 0.51642 0.74875 0.0
C812 C 0.38834 0.53953 0.73778 0.0
O813 O 0.30559 0.53858 0.75254 0.0
C814 C 0.37184 0.60931 0.77928 0.0
O815 O 0.38357 0.6081 0.75536 0.0
H816 H 0.35572 0.51929 0.79212 0.0
H817 H 0.39218 0.55195 0.71829 0.0
N818 N 0.3305 0.58999 0.71874 0.0
N819 N 0.30813 0.62296 0.69195 0.0
C820 C 0.31275 0.60996 0.71834 0.0
C821 C 0.33735 0.5904 0.69145 0.0
C822 C 0.32355 0.61074 0.67487 0.0
C823 C 0.30371 0.52107 0.7325 0.0
O824 O 0.32234 0.52406 0.71382 0.0
H825 H 0.30276 0.61439 0.73698 0.0
H826 H 0.35078 0.57647 0.68392 0.0
O827 O 0.35028 0.59211 0.78353 0.0
H828 H 0.41802 0.50743 0.73938 0.0
H829 H 0.32427 0.61573 0.65196 0.0
Cu830 Cu 0.30344 0.50371 0.25744 0.0
N831 N 0.26985 0.47976 0.2539 0.0
N832 N 0.24014 0.44473 0.26975 0.0
C833 C 0.26372 0.462 0.27631 0.0
C834 C 0.23076 0.45191 0.24204 0.0
C835 C 0.24923 0.47357 0.23222 0.0
O836 O 0.3307 0.47534 0.26035 0.0
C837 C 0.27706 0.54268 0.28112 0.0
O838 O 0.26667 0.54365 0.25365 0.0
H839 H 0.27683 0.46129 0.29694 0.0
H840 H 0.24803 0.48355 0.21075 0.0
N841 N 0.31155 0.53004 0.22698 0.0
N842 N 0.33092 0.5693 0.20587 0.0
C843 C 0.32762 0.55464 0.23107 0.0
C844 C 0.30454 0.52917 0.19808 0.0
C845 C 0.31647 0.55337 0.18502 0.0
C846 C 0.35071 0.47583 0.24441 0.0
O847 O 0.36089 0.4999 0.23339 0.0
H848 H 0.33678 0.56164 0.25217 0.0
H849 H 0.29189 0.51209 0.18726 0.0
O850 O 0.29627 0.52638 0.28921 0.0
H851 H 0.21225 0.44187 0.22966 0.0
H852 H 0.3147 0.55886 0.16202 0.0
Cu853 Cu 0.83555 0.54639 0.28609 0.0
N854 N 0.86478 0.52328 0.29997 0.0
N855 N 0.87855 0.48529 0.32657 0.0
C856 C 0.86041 0.49517 0.30466 0.0
C857 C 0.89544 0.5079 0.33571 0.0
C858 C 0.88705 0.53096 0.31953 0.0
O859 O 0.80184 0.52009 0.27934 0.0
C860 C 0.85962 0.59511 0.31071 0.0
O861 O 0.87817 0.59058 0.29347 0.0
H862 H 0.84252 0.4824 0.29449 0.0
H863 H 0.89475 0.55208 0.32457 0.0
N864 N 0.83218 0.56717 0.25039 0.0
N865 N 0.80927 0.59962 0.22344 0.0
C866 C 0.80739 0.57798 0.24291 0.0
C867 C 0.85041 0.58194 0.23404 0.0
C868 C 0.83626 0.60206 0.21741 0.0
C869 C 0.80336 0.50575 0.25734 0.0
O870 O 0.82616 0.50991 0.24399 0.0
H871 H 0.78907 0.57227 0.25429 0.0
H872 H 0.87286 0.58037 0.23629 0.0
O873 O 0.83829 0.57694 0.31295 0.0
H874 H 0.91139 0.50803 0.3543 0.0
H875 H 0.84564 0.61862 0.2039 0.0
Cu876 Cu 0.53004 0.24935 0.7863 0.0
N877 N 0.51196 0.24998 0.82062 0.0
N878 N 0.48441 0.27494 0.84332 0.0
C879 C 0.48716 0.2613 0.81922 0.0
C880 C 0.50797 0.27064 0.86127 0.0
C881 C 0.52443 0.25501 0.84765 0.0
O882 O 0.49915 0.24574 0.75527 0.0
C883 C 0.57572 0.28357 0.80628 0.0
O884 O 0.57872 0.26073 0.82236 0.0
H885 H 0.47296 0.26248 0.79938 0.0
H886 H 0.54534 0.2503 0.85622 0.0
N887 N 0.55439 0.22222 0.78041 0.0
N888 N 0.58924 0.2073 0.75872 0.0
C889 C 0.56662 0.22212 0.7556 0.0
C890 C 0.56923 0.20594 0.79964 0.0
C891 C 0.59068 0.19683 0.78637 0.0
C892 C 0.48516 0.22177 0.75446 0.0
O893 O 0.49362 0.20165 0.77251 0.0
H894 H 0.56024 0.2344 0.73618 0.0
H895 H 0.56622 0.20282 0.82233 0.0
O896 O 0.55483 0.28409 0.7865 0.0
H897 H 0.51411 0.28006 0.88196 0.0
H898 H 0.60695 0.18452 0.79666 0.0
Cu899 Cu 0.5777 0.76398 0.77399 0.0
N900 N 0.59828 0.73275 0.77974 0.0
N901 N 0.63292 0.70882 0.80269 0.0
C902 C 0.62622 0.73309 0.78876 0.0
C903 C 0.60804 0.69258 0.80154 0.0
C904 C 0.58712 0.707 0.78677 0.0
O905 O 0.60438 0.79626 0.76494 0.0
C906 C 0.55282 0.74556 0.82725 0.0
O907 O 0.57686 0.73696 0.83884 0.0
H908 H 0.64099 0.75141 0.78679 0.0
H909 H 0.5648 0.70021 0.78393 0.0
N910 N 0.55006 0.76366 0.74188 0.0
N911 N 0.51178 0.77863 0.7159 0.0
C912 C 0.52726 0.77761 0.74199 0.0
C913 C 0.54903 0.75553 0.7145 0.0
C914 C 0.52526 0.76477 0.69834 0.0
C915 C 0.62355 0.81074 0.78058 0.0
O916 O 0.62542 0.80747 0.80897 0.0
H917 H 0.52287 0.78822 0.76056 0.0
H918 H 0.56504 0.74493 0.70652 0.0
O919 O 0.55255 0.76226 0.80487 0.0
H920 H 0.60483 0.67206 0.81193 0.0
H921 H 0.51905 0.76257 0.67535 0.0
Cu922 Cu 0.52455 0.73254 0.29612 0.0
N923 N 0.49317 0.75418 0.28864 0.0
N924 N 0.45854 0.78046 0.29568 0.0
C925 C 0.47942 0.7654 0.30837 0.0
C926 C 0.45906 0.77833 0.26691 0.0
C927 C 0.4802 0.76222 0.26268 0.0
O928 O 0.51262 0.69264 0.3005 0.0
C929 C 0.56242 0.75458 0.34765 0.0
O930 O 0.56631 0.75409 0.37612 0.0
H931 H 0.48484 0.7629 0.33159 0.0
H932 H 0.48585 0.75686 0.24203 0.0
N933 N 0.55211 0.73862 0.26919 0.0
N934 N 0.58893 0.7338 0.24437 0.0
C935 C 0.57357 0.72324 0.26596 0.0
C936 C 0.55417 0.75948 0.24883 0.0
C937 C 0.5766 0.75653 0.23356 0.0
C938 C 0.49288 0.6754 0.28919 0.0
O939 O 0.49157 0.64937 0.29905 0.0
H940 H 0.5778 0.70461 0.27906 0.0
H941 H 0.54032 0.77584 0.24533 0.0
O942 O 0.54099 0.74009 0.33546 0.0
H943 H 0.44513 0.78789 0.25008 0.0
H944 H 0.58354 0.77022 0.21599 0.0
Cu945 Cu 0.54372 0.26519 0.27697 0.0
N946 N 0.52472 0.25549 0.30907 0.0
N947 N 0.49074 0.23646 0.33449 0.0
C948 C 0.50056 0.23861 0.30854 0.0
C949 C 0.50954 0.25216 0.35225 0.0
C950 C 0.53074 0.26383 0.33646 0.0
O951 O 0.51489 0.26637 0.24291 0.0
C952 C 0.57823 0.22174 0.29728 0.0
O953 O 0.55607 0.21006 0.30903 0.0
H954 H 0.48986 0.22891 0.2893 0.0
H955 H 0.54885 0.27786 0.34416 0.0
N956 N 0.56175 0.30097 0.27878 0.0
N957 N 0.59362 0.33569 0.26844 0.0
C958 C 0.58237 0.30979 0.26239 0.0
C959 C 0.5597 0.32215 0.29574 0.0
C960 C 0.57966 0.34379 0.28942 0.0
C961 C 0.4964 0.2829 0.24579 0.0
O962 O 0.49832 0.296 0.27001 0.0
H963 H 0.58968 0.29708 0.24701 0.0
H964 H 0.54524 0.32171 0.3119 0.0
O965 O 0.57546 0.24242 0.27917 0.0
H966 H 0.50742 0.25576 0.37461 0.0
H967 H 0.5841 0.36349 0.29981 0.0
C968 C 0.23702 0.22334 0.15926 0.0
C969 C 0.22038 0.19703 0.15776 0.0
C970 C 0.22648 0.19669 0.10568 0.0
C971 C 0.24296 0.22281 0.10751 0.0
N972 N 0.26931 0.25797 0.13683 0.0
N973 N 0.20225 0.15714 0.13046 0.0
C974 C 0.25003 0.23504 0.13467 0.0
C975 C 0.2164 0.18311 0.13124 0.0
N976 N 0.23875 0.2381 0.1837 0.0
N977 N 0.21949 0.18558 0.07909 0.0
H978 H 0.19406 0.14752 0.14857 0.0
H979 H 0.20022 0.14449 0.11283 0.0
H980 H 0.22699 0.19501 0.06037 0.0
H981 H 0.20539 0.16796 0.07514 0.0
H982 H 0.24734 0.25876 0.18502 0.0
H983 H 0.23001 0.23015 0.2023 0.0
H984 H 0.27782 0.26639 0.1565 0.0
H985 H 0.27862 0.26715 0.11899 0.0
C986 C 0.84111 0.24915 0.16592 0.0
C987 C 0.864 0.23388 0.16298 0.0
C988 C 0.86671 0.25407 0.11356 0.0
C989 C 0.84264 0.26815 0.11586 0.0
N990 N 0.80454 0.2765 0.14258 0.0
N991 N 0.89658 0.21848 0.13373 0.0
C992 C 0.8291 0.26489 0.14159 0.0
C993 C 0.87632 0.23552 0.1367 0.0
N994 N 0.8315 0.24911 0.1924 0.0
N995 N 0.88027 0.2584 0.08922 0.0
H996 H 0.90386 0.20479 0.15041 0.0
H997 H 0.90478 0.21637 0.11436 0.0
H998 H 0.87294 0.27056 0.0712 0.0
H999 H 0.89956 0.25119 0.0873 0.0
H1000 H 0.8168 0.26193 0.19717 0.0
H1001 H 0.83988 0.23753 0.21039 0.0
H1002 H 0.79207 0.2726 0.15945 0.0
H1003 H 0.79551 0.28877 0.12554 0.0
C1004 C 0.84216 0.82646 0.14337 0.0
C1005 C 0.86721 0.84516 0.1473 0.0
C1006 C 0.87605 0.83776 0.09734 0.0
C1007 C 0.85033 0.81995 0.09295 0.0
N1008 N 0.80719 0.7998 0.11078 0.0
N1009 N 0.90578 0.87171 0.12719 0.0
C1010 C 0.83285 0.81508 0.11569 0.0
C1011 C 0.88367 0.85144 0.12407 0.0
N1012 N 0.82724 0.81978 0.16648 0.0
N1013 N 0.89326 0.84161 0.07577 0.0
H1014 H 0.91194 0.88145 0.14668 0.0
H1015 H 0.91697 0.87996 0.11032 0.0
H1016 H 0.88724 0.8343 0.05501 0.0
H1017 H 0.91382 0.85121 0.0786 0.0
H1018 H 0.81026 0.80449 0.16661 0.0
H1019 H 0.83325 0.82825 0.1867 0.0
H1020 H 0.79213 0.79747 0.12526 0.0
H1021 H 0.79981 0.79077 0.09119 0.0
C1022 C 0.23331 0.85055 0.11288 0.0
C1023 C 0.23712 0.8517 0.14362 0.0
C1024 C 0.28186 0.83127 0.14539 0.0
C1025 C 0.2777 0.82978 0.11484 0.0
N1026 N 0.25301 0.8426 0.06878 0.0
N1027 N 0.26534 0.84501 0.18925 0.0
C1028 C 0.25473 0.84133 0.09836 0.0
C1029 C 0.26188 0.84316 0.15984 0.0
N1030 N 0.20796 0.85569 0.0979 0.0
N1031 N 0.30435 0.81992 0.16045 0.0
H1032 H 0.2497 0.85104 0.20046 0.0
H1033 H 0.2837 0.84148 0.20258 0.0
H1034 H 0.31925 0.81174 0.14989 0.0
H1035 H 0.30802 0.81779 0.18292 0.0
H1036 H 0.20248 0.85224 0.07598 0.0
H1037 H 0.19126 0.86125 0.10798 0.0
H1038 H 0.23853 0.8535 0.05543 0.0
H1039 H 0.26748 0.83441 0.05753 0.0
C1040 C 0.25964 0.85111 0.94724 0.0
C1041 C 0.26112 0.83835 0.92087 0.0
C1042 C 0.29772 0.81067 0.94508 0.0
C1043 C 0.29709 0.82447 0.9711 0.0
N1044 N 0.28193 0.86175 0.99555 0.0
N1045 N 0.28291 0.80789 0.89353 0.0
C1046 C 0.2798 0.84631 0.97155 0.0
C1047 C 0.28098 0.81905 0.91942 0.0
N1048 N 0.23722 0.86542 0.94993 0.0
N1049 N 0.31312 0.78849 0.94533 0.0
H1050 H 0.26882 0.8113 0.87518 0.0
H1051 H 0.29913 0.79642 0.88982 0.0
H1052 H 0.32601 0.78207 0.96354 0.0
H1053 H 0.31194 0.77535 0.92819 0.0
H1054 H 0.23344 0.87318 0.96936 0.0
H1055 H 0.22053 0.86646 0.93351 0.0
H1056 H 0.27161 0.87953 0.99615 0.0
H1057 H 0.29595 0.85819 1.01402 0.0
C1058 C 0.27658 0.19596 0.904 0.0
C1059 C 0.25051 0.1786 0.90321 0.0
C1060 C 0.24554 0.19211 0.95253 0.0
C1061 C 0.27174 0.20907 0.9536 0.0
N1062 N 0.31398 0.22482 0.93191 0.0
N1063 N 0.21608 0.15327 0.93061 0.0
C1064 C 0.28783 0.21022 0.92976 0.0
C1065 C 0.23649 0.17495 0.9285 0.0
N1066 N 0.2907 0.1985 0.88002 0.0
N1067 N 0.22926 0.19221 0.97467 0.0
H1068 H 0.21132 0.13868 0.91474 0.0
H1069 H 0.20661 0.14771 0.94939 0.0
H1070 H 0.23601 0.20264 0.99371 0.0
H1071 H 0.20847 0.18316 0.97346 0.0
H1072 H 0.30817 0.21272 0.87745 0.0
H1073 H 0.28408 0.18709 0.86164 0.0
H1074 H 0.32811 0.22499 0.91664 0.0
H1075 H 0.32252 0.23573 0.95014 0.0
C1076 C 0.87306 0.26376 0.91956 0.0
C1077 C 0.89047 0.24216 0.9278 0.0
C1078 C 0.87495 0.2386 0.97637 0.0
C1079 C 0.85533 0.25804 0.96716 0.0
N1080 N 0.83455 0.28876 0.93028 0.0
N1081 N 0.90797 0.20816 0.963 0.0
C1082 C 0.85434 0.27084 0.93889 0.0
C1083 C 0.89158 0.22949 0.95608 0.0
N1084 N 0.87462 0.2774 0.89317 0.0
N1085 N 0.87756 0.22913 1.00472 0.0
H1086 H 0.92069 0.20162 0.94858 0.0
H1087 H 0.90802 0.19605 0.98223 0.0
H1088 H 0.86561 0.23583 0.01978 0.0
H1089 H 0.89276 0.21645 1.01385 0.0
H1090 H 0.86451 0.29502 0.88649 0.0
H1091 H 0.8876 0.27193 0.87844 0.0
H1092 H 0.83034 0.29667 0.90909 0.0
H1093 H 0.82136 0.29492 0.94438 0.0
C1094 C 0.87295 0.84081 0.89709 0.0
C1095 C 0.89933 0.85739 0.89891 0.0
C1096 C 0.91239 0.83503 0.94715 0.0
C1097 C 0.88636 0.81782 0.94471 0.0
N1098 N 0.84471 0.80035 0.91465 0.0
N1099 N 0.94534 0.86871 0.92406 0.0
C1100 C 0.86751 0.81963 0.91884 0.0
C1101 C 0.91953 0.85377 0.92342 0.0
N1102 N 0.85248 0.84617 0.87501 0.0
N1103 N 0.92958 0.83436 0.97278 0.0
H1104 H 0.95036 0.88302 0.90741 0.0
H1105 H 0.96217 0.86578 0.93986 0.0
H1106 H 0.92458 0.82117 0.99038 0.0
H1107 H 0.94775 0.84789 0.97738 0.0
H1108 H 0.83157 0.83764 0.87448 0.0
H1109 H 0.85608 0.86044 0.85784 0.0
H1110 H 0.83172 0.79829 0.89509 0.0
H1111 H 0.84045 0.78473 0.93016 0.0
C1112 C 0.11986 0.18937 0.21816 0.0
C1113 C 0.14672 0.20472 0.22234 0.0
C1114 C 0.12776 0.23797 0.25087 0.0
C1115 C 0.10136 0.22146 0.24856 0.0
N1116 N 0.07231 0.1807 0.2316 0.0
N1117 N 0.17766 0.24163 0.24476 0.0
C1118 C 0.09748 0.19687 0.23267 0.0
C1119 C 0.15103 0.22857 0.23921 0.0
N1120 N 0.11576 0.16804 0.1996 0.0
N1121 N 0.13037 0.26283 0.26389 0.0
H1122 H 0.19483 0.23529 0.23606 0.0
H1123 H 0.18315 0.2574 0.25933 0.0
H1124 H 0.11405 0.2697 0.27354 0.0
H1125 H 0.14802 0.27734 0.26373 0.0
H1126 H 0.09621 0.15731 0.19323 0.0
H1127 H 0.13189 0.16227 0.18883 0.0
H1128 H 0.06867 0.16102 0.22314 0.0
H1129 H 0.05524 0.18657 0.24064 0.0
C1130 C 0.85493 0.15104 0.25441 0.0
C1131 C 0.87528 0.15391 0.23447 0.0
C1132 C 0.88507 0.10538 0.24583 0.0
C1133 C 0.86585 0.10315 0.26687 0.0
N1134 N 0.83577 0.12438 0.29471 0.0
N1135 N 0.90999 0.13475 0.21086 0.0
C1136 C 0.85174 0.12621 0.27215 0.0
C1137 C 0.89061 0.13133 0.23027 0.0
N1138 N 0.83809 0.17182 0.25572 0.0
N1139 N 0.89693 0.08223 0.24 0.0
H1140 H 0.91226 0.1526 0.19734 0.0
H1141 H 0.92417 0.12048 0.20855 0.0
H1142 H 0.89323 0.06318 0.25133 0.0
H1143 H 0.90934 0.08133 0.2233 0.0
H1144 H 0.8208 0.16996 0.26743 0.0
H1145 H 0.84026 0.19047 0.24342 0.0
H1146 H 0.82696 0.14115 0.30172 0.0
H1147 H 0.83332 0.10642 0.30809 0.0
C1148 C 0.91808 0.82065 0.20603 0.0
C1149 C 0.91463 0.8495 0.20316 0.0
C1150 C 0.96206 0.85908 0.22938 0.0
C1151 C 0.96702 0.83066 0.2294 0.0
N1152 N 0.95144 0.7862 0.20839 0.0
N1153 N 0.93779 0.89621 0.20424 0.0
C1154 C 0.94552 0.81184 0.21501 0.0
C1155 C 0.93831 0.86864 0.21192 0.0
N1156 N 0.89522 0.80155 0.20136 0.0
N1157 N 0.97876 0.87672 0.24765 0.0
H1158 H 0.92083 0.90376 0.19116 0.0
H1159 H 0.95529 0.91077 0.20839 0.0
H1160 H 0.99436 0.86992 0.2632 0.0
H1161 H 0.97455 0.89711 0.24995 0.0
H1162 H 0.89618 0.78027 0.20574 0.0
H1163 H 0.87504 0.80742 0.19573 0.0
H1164 H 0.93695 0.77258 0.19621 0.0
H1165 H 0.97175 0.78008 0.21176 0.0
C1166 C 0.23701 0.90992 0.20802 0.0
C1167 C 0.22826 0.9018 0.17912 0.0
C1168 C 0.25989 0.94127 0.16225 0.0
C1169 C 0.26452 0.95209 0.19039 0.0
N1170 N 0.24803 0.94961 0.23785 0.0
N1171 N 0.22563 0.91591 0.12852 0.0
C1172 C 0.25068 0.93717 0.21287 0.0
C1173 C 0.23827 0.91909 0.15609 0.0
N1174 N 0.23238 0.89187 0.23099 0.0
N1175 N 0.27621 0.95191 0.1414 0.0
H1176 H 0.2072 0.90263 0.12426 0.0
H1177 H 0.23093 0.92916 0.1111 0.0
H1178 H 0.29316 0.9671 0.14564 0.0
H1179 H 0.27479 0.94335 0.12114 0.0
H1180 H 0.24045 0.89635 0.25222 0.0
H1181 H 0.22299 0.87154 0.2285 0.0
H1182 H 0.23626 0.93993 0.25373 0.0
H1183 H 0.25374 0.97072 0.24078 0.0
C1184 C 0.16594 0.81723 0.8214 0.0
C1185 C 0.18062 0.80866 0.84784 0.0
C1186 C 0.14736 0.76616 0.84743 0.0
C1187 C 0.12838 0.77954 0.82675 0.0
N1188 N 0.12075 0.81995 0.79434 0.0
N1189 N 0.19645 0.76499 0.86639 0.0
C1190 C 0.13781 0.80593 0.81418 0.0
C1191 C 0.17474 0.77999 0.8558 0.0
N1192 N 0.1806 0.82959 0.80003 0.0
N1193 N 0.13927 0.74054 0.85933 0.0
H1194 H 0.21736 0.77385 0.86761 0.0
H1195 H 0.19408 0.74345 0.87007 0.0
H1196 H 0.11946 0.72989 0.85357 0.0
H1197 H 0.15141 0.73109 0.87646 0.0
H1198 H 0.17103 0.83418 0.77918 0.0
H1199 H 0.20261 0.83115 0.80235 0.0
H1200 H 0.12714 0.83979 0.78593 0.0
H1201 H 0.09989 0.81272 0.78829 0.0
C1202 C 0.26923 0.11083 0.80982 0.0
C1203 C 0.25378 0.1047 0.83389 0.0
C1204 C 0.26132 0.05539 0.83325 0.0
C1205 C 0.27724 0.06163 0.80947 0.0
N1206 N 0.2899 0.09318 0.77026 0.0
N1207 N 0.22944 0.07105 0.86436 0.0
C1208 C 0.2789 0.08872 0.79605 0.0
C1209 C 0.24791 0.07682 0.84418 0.0
N1210 N 0.27578 0.13795 0.80112 0.0
N1211 N 0.25999 0.02918 0.846 0.0
H1212 H 0.21967 0.08658 0.87269 0.0
H1213 H 0.22223 0.05096 0.87119 0.0
H1214 H 0.26832 1.01282 0.83743 0.0
H1215 H 0.25163 0.02388 0.86544 0.0
H1216 H 0.28915 0.14415 0.78545 0.0
H1217 H 0.26931 0.15452 0.8111 0.0
H1218 H 0.28972 0.11188 0.758 0.0
H1219 H 0.29676 0.07714 0.75979 0.0
C1220 C 0.98772 0.21579 0.86847 0.0
C1221 C 0.96729 0.23487 0.86688 0.0
C1222 C 1.00094 0.2708 0.8471 0.0
C1223 C 1.01983 0.25054 0.84498 0.0
N1224 N 0.02584 0.20128 0.84574 0.0
N1225 N 0.95258 0.27948 0.84931 0.0
C1226 C 1.01176 0.22227 0.85339 0.0
C1227 C 0.9733 0.26204 0.85437 0.0
N1228 N 0.98505 0.19213 0.88566 0.0
N1229 N 1.0097 0.2985 0.84371 0.0
H1230 H 0.93215 0.27385 0.85448 0.0
H1231 H 0.95499 0.29843 0.83756 0.0
H1232 H 0.03028 0.30596 0.84027 0.0
H1233 H 0.99751 0.31411 0.84766 0.0
H1234 H 1.00057 0.17844 0.88932 0.0
H1235 H 0.96907 0.18835 0.89904 0.0
H1236 H 1.01905 0.18033 0.84965 0.0
H1237 H 0.04186 0.20441 0.83231 0.0
C1238 C 0.85079 0.95026 0.84009 0.0
C1239 C 0.87997 0.94732 0.84677 0.0
C1240 C 0.89097 0.99594 0.83065 0.0
C1241 C 0.86188 1.00026 0.82756 0.0
N1242 N 0.81406 0.98167 0.83334 0.0
N1243 N 0.92704 0.96968 0.85609 0.0
C1244 C 0.84169 0.9774 0.83335 0.0
C1245 C 0.89977 0.97092 0.84441 0.0
N1246 N 0.83189 0.92706 0.83943 0.0
N1247 N 0.91016 1.01477 0.81873 0.0
H1248 H 0.93341 0.95222 0.86813 0.0
H1249 H 0.94205 0.98699 0.85699 0.0
H1250 H 0.90454 0.03205 0.80578 0.0
H1251 H 0.93114 1.01118 0.81847 0.0
H1252 H 0.81058 0.92736 0.83195 0.0
H1253 H 0.83809 0.90716 0.84423 0.0
H1254 H 0.79888 0.9664 0.84002 0.0
H1255 H 0.8068 1.0012 0.82909 0.0
C1256 C 0.20804 0.11989 0.20536 0.0
C1257 C 0.2223 0.14729 0.20748 0.0
C1258 C 0.26213 0.12773 0.23734 0.0
C1259 C 0.24782 0.10039 0.23519 0.0
N1260 N 0.20999 0.06988 0.21161 0.0
N1261 N 0.26472 0.17651 0.22125 0.0
C1262 C 0.22185 0.0963 0.21711 0.0
C1263 C 0.25005 0.1508 0.22194 0.0
N1264 N 0.18029 0.11663 0.19421 0.0
N1265 N 0.28706 0.13185 0.25483 0.0
H1266 H 0.25587 0.19359 0.21095 0.0
H1267 H 0.28605 0.18052 0.2286 0.0
H1268 H 0.29809 0.11559 0.26414 0.0
H1269 H 0.29616 0.15136 0.26126 0.0
H1270 H 0.16748 0.0979 0.19544 0.0
H1271 H 0.16945 0.13326 0.18546 0.0
H1272 H 0.19277 0.06549 0.19608 0.0
H1273 H 0.21864 0.05218 0.22099 0.0
C1274 C 0.28089 0.87975 0.85156 0.0
C1275 C 0.2607 0.88274 0.87083 0.0
C1276 C 0.28071 0.93133 0.87782 0.0
C1277 C 0.30087 0.92805 0.85883 0.0
N1278 N 0.32362 0.89884 0.83118 0.0
N1279 N 0.23726 0.91278 0.897 0.0
C1280 C 0.30202 0.90205 0.84689 0.0
C1281 C 0.25978 0.90885 0.88299 0.0
N1282 N 0.27839 0.85638 0.83591 0.0
N1283 N 0.28158 0.95621 0.89053 0.0
H1284 H 0.22018 0.89766 0.89792 0.0
H1285 H 0.23391 0.93157 0.90508 0.0
H1286 H 0.29625 0.97303 0.88626 0.0
H1287 H 0.26918 0.9598 0.90651 0.0
H1288 H 0.29058 0.85381 0.81943 0.0
H1289 H 0.26218 0.84043 0.83741 0.0
H1290 H 0.32764 0.87984 0.82404 0.0
H1291 H 0.33903 0.91508 0.82719 0.0
C1292 C 0.17061 0.17015 0.85764 0.0
C1293 C 0.19859 0.18113 0.85326 0.0
C1294 C 0.17899 0.21816 0.82063 0.0
C1295 C 0.15126 0.20725 0.82561 0.0
N1296 N 0.12135 0.17824 0.8552 0.0
N1297 N 0.22939 0.21844 0.83464 0.0
C1298 C 0.14741 0.18513 0.84645 0.0
C1299 C 0.20266 0.20642 0.83648 0.0
N1300 N 0.16588 0.14403 0.86995 0.0
N1301 N 0.18265 0.2383 0.79921 0.0
H1302 H 0.24677 0.20939 0.84491 0.0
H1303 H 0.23416 0.23813 0.82513 0.0
H1304 H 0.16585 0.24679 0.78679 0.0
H1305 H 0.20211 0.24515 0.7922 0.0
H1306 H 0.1458 0.13372 0.87099 0.0
H1307 H 0.18202 0.13149 0.87626 0.0
H1308 H 0.11759 0.16384 0.87219 0.0
H1309 H 0.10416 0.18912 0.84737 0.0
C1310 C 0.91289 0.19402 0.82065 0.0
C1311 C 0.9192 0.18782 0.85079 0.0
C1312 C 0.9177 0.13816 0.84105 0.0
C1313 C 0.90862 0.14401 0.81148 0.0
N1314 N 0.8946 0.17685 0.77313 0.0
N1315 N 0.92294 0.15339 0.89029 0.0
C1316 C 0.90581 0.17187 0.80115 0.0
C1317 C 0.92051 0.1597 0.86113 0.0
N1318 N 0.91275 0.22114 0.81092 0.0
N1319 N 0.92393 0.11189 0.84979 0.0
H1320 H 0.92519 0.16852 0.9057 0.0
H1321 H 0.92068 0.13313 0.89918 0.0
H1322 H 0.9221 0.09585 0.83538 0.0
H1323 H 0.93328 0.10666 0.8705 0.0
H1324 H 0.91131 0.22762 0.7891 0.0
H1325 H 0.91557 0.2374 0.82503 0.0
H1326 H 0.88921 0.1962 0.76472 0.0
H1327 H 0.88881 0.16103 0.75861 0.0
C1328 C 0.9329 0.83982 0.8379 0.0
C1329 C 0.93659 0.86793 0.84613 0.0
C1330 C 0.98185 0.87371 0.82597 0.0
C1331 C 0.98042 0.8448 0.82175 0.0
N1332 N 0.95638 0.7992 0.83093 0.0
N1333 N 0.96928 0.9086 0.85555 0.0
C1334 C 0.95639 0.8274 0.8297 0.0
C1335 C 0.96266 0.88382 0.84263 0.0
N1336 N 0.90692 0.8253 0.8368 0.0
N1337 N 1.00098 0.89179 0.81315 0.0
H1338 H 0.95641 0.91549 0.86951 0.0
H1339 H 0.98886 0.9202 0.85526 0.0
H1340 H 1.01391 0.88531 0.79891 0.0
H1341 H 1.00141 0.91334 0.81386 0.0
H1342 H 0.90252 0.80547 0.82866 0.0
H1343 H 0.88938 0.83439 0.84128 0.0
H1344 H 0.9403 0.78578 0.83887 0.0
H1345 H 0.97382 0.78952 0.82715 0.0
C1346 C 0.82005 0.90504 0.22993 0.0
C1347 C 0.84287 0.9127 0.21357 0.0
C1348 C 0.84029 0.96204 0.22187 0.0
C1349 C 0.82012 0.95404 0.24145 0.0
N1350 N 0.79021 0.91835 0.26432 0.0
N1351 N 0.87511 0.94781 0.19339 0.0
C1352 C 0.80954 0.92563 0.24523 0.0
C1353 C 0.85285 0.94111 0.20905 0.0
N1354 N 0.8085 0.87797 0.23059 0.0
N1355 N 0.84744 0.98971 0.21577 0.0
H1356 H 0.88398 0.93294 0.18307 0.0
H1357 H 0.88565 0.96767 0.19161 0.0
H1358 H 0.83854 1.00532 0.22497 0.0
H1359 H 0.86038 0.99728 0.20008 0.0
H1360 H 0.79027 0.87099 0.23998 0.0
H1361 H 0.81626 0.86264 0.21981 0.0
H1362 H 0.78391 0.89793 0.27084 0.0
H1363 H 0.78102 0.93311 0.27445 0.0
C1364 C 0.15772 0.80389 0.21058 0.0
C1365 C 0.15064 0.82555 0.19005 0.0
C1366 C 0.10031 0.81174 0.19359 0.0
C1367 C 0.10766 0.79001 0.21404 0.0
N1368 N 0.14215 0.75985 0.23408 0.0
N1369 N 0.11562 0.84615 0.15689 0.0
C1370 C 0.13606 0.78424 0.21973 0.0
C1371 C 0.12197 0.82818 0.17987 0.0
N1372 N 0.18507 0.8029 0.22237 0.0
N1373 N 0.07289 0.81741 0.18831 0.0
H1374 H 0.13122 0.85843 0.14682 0.0
H1375 H 0.09526 0.84738 0.14663 0.0
H1376 H 0.05654 0.80474 0.19673 0.0
H1377 H 0.06655 0.83504 0.17648 0.0
H1378 H 0.19114 0.78907 0.23941 0.0
H1379 H 0.20133 0.81767 0.21696 0.0
H1380 H 0.1622 0.75308 0.23649 0.0
H1381 H 0.12634 0.74516 0.24075 0.0
C1382 C 0.95213 0.19315 0.23907 0.0
C1383 C 0.92525 0.19654 0.24718 0.0
C1384 C 0.94177 0.1852 0.29803 0.0
C1385 C 0.9688 0.18211 0.28996 0.0
N1386 N 1.00134 0.18762 0.25411 0.0
N1387 N 0.89603 0.20234 0.284 0.0
C1388 C 0.97452 0.1878 0.2609 0.0
C1389 C 0.92061 0.19458 0.27669 0.0
N1390 N 0.95572 0.19322 0.21036 0.0
N1391 N 0.9364 0.17895 0.32599 0.0
H1392 H 0.88184 0.21182 0.2688 0.0
H1393 H 0.89039 0.20116 0.30493 0.0
H1394 H 0.952 0.17382 0.34247 0.0
H1395 H 0.9164 0.17769 0.33271 0.0
H1396 H 0.97372 0.18758 0.20279 0.0
H1397 H 0.93976 0.19684 0.19376 0.0
H1398 H 1.00762 0.19514 0.23423 0.0
H1399 H 1.01782 0.18194 0.26921 0.0
C1400 C 0.2371 0.71576 0.598 0.0
C1401 C 0.24433 0.73128 0.62319 0.0
C1402 C 0.27984 0.7613 0.59841 0.0
C1403 C 0.275 0.74342 0.57473 0.0
N1404 N 0.24964 0.70311 0.55191 0.0
N1405 N 0.27063 0.77014 0.64726 0.0
C1406 C 0.25378 0.72049 0.57456 0.0
C1407 C 0.26512 0.75455 0.62327 0.0
N1408 N 0.21306 0.69778 0.59581 0.0
N1409 N 0.2984 0.78475 0.597 0.0
H1410 H 0.2585 0.76715 0.6645 0.0
H1411 H 0.28747 0.78547 0.65068 0.0
H1412 H 0.30975 0.78998 0.57942 0.0
H1413 H 0.30173 0.7999 0.61237 0.0
H1414 H 0.19957 0.69538 0.61191 0.0
H1415 H 0.20489 0.68757 0.57706 0.0
H1416 H 0.23731 0.68403 0.55221 0.0
H1417 H 0.25956 0.70723 0.53313 0.0
C1418 C 0.87282 0.7414 0.61326 0.0
C1419 C 0.87241 0.74749 0.6426 0.0
C1420 C 0.85533 0.79244 0.62752 0.0
C1421 C 0.85307 0.78525 0.59801 0.0
N1422 N 0.85713 0.75174 0.56259 0.0
N1423 N 0.85889 0.77596 0.67799 0.0
C1424 C 0.86079 0.75922 0.59083 0.0
C1425 C 0.8623 0.7722 0.6498 0.0
N1426 N 0.88607 0.71932 0.60699 0.0
N1427 N 0.85177 0.81882 0.63433 0.0
H1428 H 0.86392 0.76136 0.69466 0.0
H1429 H 0.84884 0.7922 0.68441 0.0
H1430 H 0.84714 0.83447 0.61878 0.0
H1431 H 0.85599 0.82593 0.65529 0.0
H1432 H 0.88964 0.71506 0.58613 0.0
H1433 H 0.8959 0.70669 0.62313 0.0
H1434 H 0.85949 0.73187 0.5564 0.0
H1435 H 0.84997 0.76484 0.54531 0.0
C1436 C 0.87801 0.31981 0.65521 0.0
C1437 C 0.88518 0.34859 0.65959 0.0
C1438 C 0.8638 0.35854 0.60976 0.0
C1439 C 0.86012 0.32971 0.60413 0.0
N1440 N 0.87256 0.28381 0.62037 0.0
N1441 N 0.89136 0.39487 0.63756 0.0
C1442 C 0.86988 0.31054 0.62651 0.0
C1443 C 0.88029 0.36776 0.63564 0.0
N1444 N 0.87713 0.30143 0.67842 0.0
N1445 N 0.85 0.37703 0.59156 0.0
H1446 H 0.90404 0.40222 0.65593 0.0
H1447 H 0.89029 0.40915 0.61988 0.0
H1448 H 0.83541 0.37088 0.57406 0.0
H1449 H 0.85028 0.39792 0.5961 0.0
H1450 H 0.87003 0.2804 0.67648 0.0
H1451 H 0.87997 0.30811 0.69951 0.0
H1452 H 0.88142 0.26972 0.6357 0.0
H1453 H 0.86936 0.27694 0.59927 0.0
C1454 C 0.24678 0.37441 0.66415 0.0
C1455 C 0.2389 0.40171 0.66578 0.0
C1456 C 0.26154 0.41425 0.62153 0.0
C1457 C 0.26204 0.38569 0.61592 0.0
N1458 N 0.24609 0.3383 0.63061 0.0
N1459 N 0.2344 0.44638 0.64096 0.0
C1460 C 0.25279 0.36549 0.63713 0.0
C1461 C 0.24548 0.42156 0.64331 0.0
N1462 N 0.24677 0.35642 0.68782 0.0
N1463 N 0.27613 0.43441 0.60599 0.0
H1464 H 0.21966 0.45067 0.65419 0.0
H1465 H 0.23704 0.46073 0.62364 0.0
H1466 H 0.28931 0.4296 0.59112 0.0
H1467 H 0.27761 0.45542 0.6105 0.0
H1468 H 0.25395 0.33681 0.68797 0.0
H1469 H 0.24198 0.36222 0.70777 0.0
H1470 H 0.23751 0.32344 0.64511 0.0
H1471 H 0.24465 0.33164 0.60958 0.0
C1472 C 0.22443 0.32342 0.3967 0.0
C1473 C 0.21116 0.34789 0.38758 0.0
C1474 C 0.23206 0.36919 0.43309 0.0
C1475 C 0.24204 0.34343 0.44378 0.0
N1476 N 0.2474 0.29558 0.43587 0.0
N1477 N 0.19938 0.39262 0.39865 0.0
C1478 C 0.23826 0.32046 0.4255 0.0
C1479 C 0.21457 0.37054 0.40605 0.0
N1480 N 0.22288 0.30256 0.3778 0.0
N1481 N 0.23912 0.39247 0.44878 0.0
H1482 H 0.18653 0.39405 0.37909 0.0
H1483 H 0.19791 0.40833 0.41261 0.0
H1484 H 0.2506 0.39231 0.46924 0.0
H1485 H 0.23532 0.41237 0.44059 0.0
H1486 H 0.2344 0.28543 0.38135 0.0
H1487 H 0.21135 0.30331 0.35734 0.0
H1488 H 0.24257 0.27708 0.42515 0.0
H1489 H 0.25874 0.29287 0.45618 0.0
C1490 C 0.232 0.66575 0.40701 0.0
C1491 C 0.23193 0.68168 0.3802 0.0
C1492 C 0.26302 0.71909 0.40494 0.0
C1493 C 0.2655 0.70161 0.43045 0.0
N1494 N 0.24655 0.66312 0.45902 0.0
N1495 N 0.24736 0.72316 0.35337 0.0
C1496 C 0.24784 0.67655 0.43248 0.0
C1497 C 0.24672 0.70872 0.37938 0.0
N1498 N 0.21958 0.63898 0.40732 0.0
N1499 N 0.27651 0.74543 0.40523 0.0
H1500 H 0.23624 0.71546 0.33447 0.0
H1501 H 0.2599 0.74169 0.34997 0.0
H1502 H 0.28877 0.75331 0.42352 0.0
H1503 H 0.27408 0.76028 0.38827 0.0
H1504 H 0.22164 0.62501 0.42513 0.0
H1505 H 0.20883 0.62985 0.38893 0.0
H1506 H 0.23217 0.64603 0.46298 0.0
H1507 H 0.25835 0.67081 0.47776 0.0
C1508 C 0.87168 0.77927 0.40258 0.0
C1509 C 0.88768 0.7569 0.41229 0.0
C1510 C 0.89252 0.77234 0.46225 0.0
C1511 C 0.8773 0.79526 0.45244 0.0
N1512 N 0.85337 0.82194 0.41388 0.0
N1513 N 0.91559 0.73292 0.44995 0.0
C1514 C 0.86722 0.79915 0.42267 0.0
C1515 C 0.89871 0.75365 0.44181 0.0
N1516 N 0.86031 0.78089 0.37421 0.0
N1517 N 0.90046 0.76834 0.49129 0.0
H1518 H 0.9199 0.71877 0.43538 0.0
H1519 H 0.9265 0.73046 0.47052 0.0
H1520 H 0.89704 0.78234 0.50642 0.0
H1521 H 0.90923 0.75076 0.50066 0.0
H1522 H 0.84667 0.79531 0.36557 0.0
H1523 H 0.86365 0.76668 0.35925 0.0
H1524 H 0.84693 0.82751 0.39236 0.0
H1525 H 0.84911 0.83615 0.42838 0.0
C1526 C 0.84368 0.29707 0.42695 0.0
C1527 C 0.86858 0.31541 0.43245 0.0
C1528 C 0.8761 0.29331 0.48183 0.0
C1529 C 0.8531 0.27269 0.47466 0.0
N1530 N 0.81929 0.25183 0.43741 0.0
N1531 N 0.90695 0.33353 0.46627 0.0
C1532 C 0.83793 0.27383 0.44645 0.0
C1533 C 0.88433 0.31427 0.46035 0.0
N1534 N 0.82484 0.30257 0.40351 0.0
N1535 N 0.88983 0.29286 0.50938 0.0
H1536 H 0.91125 0.3506 0.45223 0.0
H1537 H 0.9214 0.33293 0.48479 0.0
H1538 H 0.88394 0.27814 0.52543 0.0
H1539 H 0.90576 0.30778 0.51716 0.0
H1540 H 0.80542 0.29098 0.3991 0.0
H1541 H 0.82772 0.32031 0.38988 0.0
H1542 H 0.80973 0.25025 0.41613 0.0
H1543 H 0.81541 0.23393 0.45051 0.0
C1544 C 0.17613 0.75798 0.71072 0.0
C1545 C 0.17052 0.73958 0.68765 0.0
C1546 C 0.11991 0.74574 0.68434 0.0
C1547 C 0.12544 0.76342 0.70809 0.0
N1548 N 0.15764 0.78161 0.74777 0.0
N1549 N 0.13729 0.71267 0.65492 0.0
C1550 C 0.15328 0.76816 0.72239 0.0
C1551 C 0.14236 0.73243 0.67524 0.0
N1552 N 0.20346 0.76639 0.7208 0.0
N1553 N 0.09327 0.74243 0.67007 0.0
H1554 H 0.15349 0.70296 0.64794 0.0
H1555 H 0.1172 0.70455 0.64646 0.0
H1556 H 0.07665 0.7518 0.67661 0.0
H1557 H 0.08794 0.73191 0.65096 0.0
H1558 H 0.20927 0.78207 0.73544 0.0
H1559 H 0.2205 0.75893 0.71289 0.0
H1560 H 0.17678 0.78324 0.76104 0.0
H1561 H 0.14124 0.78895 0.75684 0.0
C1562 C 0.87731 0.64199 0.68317 0.0
C1563 C 0.88156 0.66207 0.70476 0.0
C1564 C 0.87293 0.62451 0.74105 0.0
C1565 C 0.86293 0.60578 0.71869 0.0
N1566 N 0.84949 0.5999 0.66748 0.0
N1567 N 0.87633 0.67252 0.75369 0.0
C1568 C 0.8635 0.61536 0.68939 0.0
C1569 C 0.87751 0.6534 0.73367 0.0
N1570 N 0.88629 0.64839 0.65666 0.0
N1571 N 0.87934 0.61488 0.76896 0.0
H1572 H 0.87678 0.69362 0.748 0.0
H1573 H 0.87135 0.66702 0.77462 0.0
H1574 H 0.87934 0.59375 0.77473 0.0
H1575 H 0.88827 0.62795 0.78545 0.0
H1576 H 0.88541 0.63373 0.64091 0.0
H1577 H 0.89742 0.66744 0.65188 0.0
H1578 H 0.84756 0.60723 0.64587 0.0
H1579 H 0.83693 0.58139 0.67125 0.0
C1580 C 0.93876 0.31198 0.72328 0.0
C1581 C 0.9383 0.33481 0.70257 0.0
C1582 C 0.98394 0.32431 0.68902 0.0
C1583 C 0.98388 0.30127 0.70933 0.0
N1584 N 0.9587 0.26923 0.74062 0.0
N1585 N 0.95851 0.36102 0.66349 0.0
C1586 C 0.9603 0.29381 0.72464 0.0
C1587 C 0.96013 0.34011 0.68438 0.0
N1588 N 0.91964 0.30876 0.74301 0.0
N1589 N 1.00756 0.3321 0.6757 0.0
H1590 H 0.94218 0.37377 0.66103 0.0
H1591 H 0.97218 0.36469 0.64764 0.0
H1592 H 0.02516 0.32094 0.67885 0.0
H1593 H 1.01049 0.3503 0.66289 0.0
H1594 H 0.92096 0.29476 0.76088 0.0
H1595 H 0.9034 0.32147 0.74263 0.0
H1596 H 0.94093 0.26116 0.75031 0.0
H1597 H 0.9743 0.25565 0.74182 0.0
C1598 C 0.23614 0.47609 0.70621 0.0
C1599 C 0.24513 0.44899 0.71182 0.0
C1600 C 0.28904 0.46985 0.73834 0.0
C1601 C 0.28162 0.49691 0.72941 0.0
N1602 N 0.24925 0.52593 0.70207 0.0
N1603 N 0.28062 0.42001 0.73215 0.0
C1604 C 0.25544 0.50007 0.71258 0.0
C1605 C 0.27188 0.44594 0.7274 0.0
N1606 N 0.20869 0.47887 0.6958 0.0
N1607 N 0.31184 0.46706 0.75845 0.0
H1608 H 0.26784 0.4022 0.72551 0.0
H1609 H 0.30101 0.41635 0.74071 0.0
H1610 H 0.32405 0.48419 0.76751 0.0
H1611 H 0.31682 0.44808 0.76834 0.0
H1612 H 0.19997 0.49775 0.69454 0.0
H1613 H 0.1941 0.4619 0.69017 0.0
H1614 H 0.23207 0.52923 0.68677 0.0
H1615 H 0.2623 0.54404 0.70739 0.0
C1616 C 0.10007 0.30914 0.33376 0.0
C1617 C 0.12765 0.30177 0.33312 0.0
C1618 C 0.1115 0.25265 0.3421 0.0
C1619 C 0.08497 0.26056 0.34697 0.0
N1620 N 0.05103 0.29392 0.33971 0.0
N1621 N 0.1586 0.26719 0.32868 0.0
C1622 C 0.07816 0.28805 0.33971 0.0
C1623 C 0.13282 0.27352 0.33422 0.0
N1624 N 0.0957 0.33661 0.33091 0.0
N1625 N 0.11645 0.22537 0.34655 0.0
H1626 H 0.17397 0.28257 0.32249 0.0
H1627 H 0.16413 0.24708 0.32804 0.0
H1628 H 0.10059 0.20982 0.35124 0.0
H1629 H 0.13585 0.218 0.34566 0.0
H1630 H 0.07689 0.34425 0.33389 0.0
H1631 H 0.11159 0.35202 0.326 0.0
H1632 H 0.04391 0.31309 0.33312 0.0
H1633 H 0.03507 0.27862 0.34451 0.0
C1634 C 0.22118 0.57749 0.31418 0.0
C1635 C 0.23847 0.60026 0.32674 0.0
C1636 C 0.28014 0.57654 0.32187 0.0
C1637 C 0.26383 0.55882 0.3015 0.0
N1638 N 0.21718 0.53805 0.28358 0.0
N1639 N 0.27669 0.59993 0.36535 0.0
C1640 C 0.23376 0.5579 0.29928 0.0
C1641 C 0.26609 0.59391 0.33766 0.0
N1642 N 0.19458 0.57136 0.32165 0.0
N1643 N 0.30882 0.57776 0.32581 0.0
H1644 H 0.26441 0.60798 0.37927 0.0
H1645 H 0.29579 0.59353 0.37514 0.0
H1646 H 0.32025 0.5658 0.31455 0.0
H1647 H 0.32108 0.59226 0.33906 0.0
H1648 H 0.18155 0.55354 0.31544 0.0
H1649 H 0.18746 0.58211 0.33769 0.0
H1650 H 0.19552 0.53865 0.27832 0.0
H1651 H 0.22522 0.52126 0.2755 0.0
C1652 C 0.92978 0.72816 0.31017 0.0
C1653 C 0.93164 0.71298 0.33732 0.0
C1654 C 0.97826 0.70057 0.32901 0.0
C1655 C 0.97684 0.71723 0.30287 0.0
N1656 N 0.94723 0.73649 0.26323 0.0
N1657 N 0.9555 0.68139 0.37087 0.0
C1658 C 0.95104 0.72725 0.29154 0.0
C1659 C 0.95499 0.69754 0.34582 0.0
N1660 N 0.90909 0.74543 0.3033 0.0
N1661 N 1.00275 0.68915 0.33837 0.0
H1662 H 0.93983 0.68089 0.38454 0.0
H1663 H 0.97062 0.66783 0.37761 0.0
H1664 H 1.01929 0.69033 0.32555 0.0
H1665 H 1.00694 0.679 0.35851 0.0
H1666 H 0.90832 0.75911 0.28514 0.0
H1667 H 0.89432 0.74805 0.31729 0.0
H1668 H 0.92809 0.74237 0.25305 0.0
H1669 H 0.96247 0.73521 0.24931 0.0
C1670 C 0.85173 0.41544 0.36078 0.0
C1671 C 0.87735 0.40367 0.36957 0.0
C1672 C 0.90299 0.44432 0.34681 0.0
C1673 C 0.8778 0.45751 0.3407 0.0
N1674 N 0.82976 0.45821 0.35081 0.0
N1675 N 0.92795 0.41083 0.37777 0.0
C1676 C 0.8525 0.44379 0.35014 0.0
C1677 C 0.90318 0.41944 0.36475 0.0
N1678 N 0.82667 0.3994 0.36176 0.0
N1679 N 0.92648 0.45482 0.33443 0.0
H1680 H 0.92854 0.39332 0.39192 0.0
H1681 H 0.94735 0.42264 0.37696 0.0
H1682 H 0.92661 0.47198 0.31978 0.0
H1683 H 0.9447 0.44466 0.33617 0.0
H1684 H 0.80742 0.40623 0.35307 0.0
H1685 H 0.82551 0.3785 0.36884 0.0
H1686 H 0.81161 0.44972 0.35963 0.0
H1687 H 0.83038 0.47954 0.34585 0.0
C1688 C 0.24133 0.65688 0.66564 0.0
C1689 C 0.25012 0.68512 0.67203 0.0
C1690 C 0.2981 0.67244 0.68832 0.0
C1691 C 0.28893 0.64406 0.68361 0.0
N1692 N 0.25165 0.60844 0.67022 0.0
N1693 N 0.28488 0.71829 0.69576 0.0
C1694 C 0.26047 0.6361 0.67271 0.0
C1695 C 0.2781 0.69255 0.68485 0.0
N1696 N 0.21448 0.65 0.65302 0.0
N1697 N 0.32608 0.68006 0.69614 0.0
H1698 H 0.26992 0.73232 0.69576 0.0
H1699 H 0.30417 0.72456 0.70751 0.0
H1700 H 0.3409 0.6656 0.6992 0.0
H1701 H 0.33484 0.70068 0.69731 0.0
H1702 H 0.20722 0.63064 0.64483 0.0
H1703 H 0.19953 0.66426 0.64969 0.0
H1704 H 0.23072 0.60049 0.66522 0.0
H1705 H 0.26537 0.59305 0.67476 0.0
C1706 C 0.2304 0.37601 0.31292 0.0
C1707 C 0.20448 0.37829 0.32394 0.0
C1708 C 0.2041 0.4259 0.30164 0.0
C1709 C 0.22839 0.42246 0.28837 0.0
N1710 N 0.26388 0.39392 0.27922 0.0
N1711 N 0.1646 0.40415 0.32549 0.0
C1712 C 0.24151 0.39748 0.29369 0.0
C1713 C 0.19091 0.40306 0.31757 0.0
N1714 N 0.24412 0.35304 0.32063 0.0
N1715 N 0.19401 0.45134 0.29945 0.0
H1716 H 0.15458 0.38825 0.33781 0.0
H1717 H 0.15201 0.41999 0.31845 0.0
H1718 H 0.20318 0.46825 0.28772 0.0
H1719 H 0.17816 0.45631 0.31107 0.0
H1720 H 0.2643 0.35073 0.3158 0.0
H1721 H 0.23582 0.3369 0.33376 0.0
H1722 H 0.27312 0.3754 0.27974 0.0
H1723 H 0.27214 0.40916 0.2649 0.0
C1724 C 0.17749 0.70029 0.31502 0.0
C1725 C 0.17634 0.67746 0.33563 0.0
C1726 C 0.12918 0.6888 0.34478 0.0
C1727 C 0.13213 0.71335 0.32667 0.0
N1728 N 0.16134 0.74497 0.29868 0.0
N1729 N 0.15029 0.64881 0.36911 0.0
C1730 C 0.15695 0.71975 0.31298 0.0
C1731 C 0.15189 0.67143 0.35028 0.0
N1732 N 0.19713 0.70233 0.29594 0.0
N1733 N 0.10419 0.68177 0.3559 0.0
H1734 H 0.16505 0.6344 0.37108 0.0
H1735 H 0.13485 0.6445 0.38306 0.0
H1736 H 0.08758 0.69424 0.35222 0.0
H1737 H 0.09918 0.66313 0.36732 0.0
H1738 H 0.19719 0.71675 0.2784 0.0
H1739 H 0.21197 0.68804 0.29635 0.0
H1740 H 0.18042 0.7522 0.29097 0.0
H1741 H 0.14669 0.75959 0.29686 0.0
C1742 C 0.88119 0.64816 0.36933 0.0
C1743 C 0.88005 0.67352 0.35239 0.0
C1744 C 0.86456 0.6476 0.30889 0.0
C1745 C 0.86386 0.62198 0.32569 0.0
N1746 N 0.86811 0.59812 0.37278 0.0
N1747 N 0.85961 0.69666 0.30937 0.0
C1748 C 0.87083 0.62236 0.3563 0.0
C1749 C 0.86851 0.67302 0.32313 0.0
N1750 N 0.89291 0.64871 0.39757 0.0
N1751 N 0.86223 0.64803 0.27932 0.0
H1752 H 0.85939 0.71468 0.32057 0.0
H1753 H 0.8489 0.6971 0.28847 0.0
H1754 H 0.85882 0.63016 0.26749 0.0
H1755 H 0.86568 0.66631 0.26666 0.0
H1756 H 0.89724 0.63098 0.41037 0.0
H1757 H 0.9001 0.6672 0.40777 0.0
H1758 H 0.87014 0.59728 0.39535 0.0
H1759 H 0.86192 0.57881 0.36388 0.0
C1760 C 0.93578 0.31457 0.38779 0.0
C1761 C 0.90598 0.30889 0.38254 0.0
C1762 C 0.91248 0.26785 0.35637 0.0
C1763 C 0.9416 0.27653 0.35702 0.0
N1764 N 0.9811 0.30971 0.37158 0.0
N1765 N 0.8661 0.28248 0.35723 0.0
C1766 C 0.95348 0.29998 0.37285 0.0
C1767 C 0.89431 0.28578 0.36606 0.0
N1768 N 0.94702 0.33522 0.40575 0.0
N1769 N 0.90229 0.24249 0.3461 0.0
H1770 H 0.85272 0.29663 0.36199 0.0
H1771 H 0.85666 0.26756 0.34283 0.0
H1772 H 0.91573 0.22905 0.33974 0.0
H1773 H 0.88154 0.23387 0.34697 0.0
H1774 H 0.96843 0.33876 0.41299 0.0
H1775 H 0.93447 0.34766 0.41494 0.0
H1776 H 0.99034 0.3285 0.37988 0.0
H1777 H 0.99438 0.30005 0.36017 0.0
C1778 C 0.90581 0.43625 0.7418 0.0
C1779 C 0.89358 0.40843 0.74484 0.0
C1780 C 0.86762 0.42163 0.78346 0.0
C1781 C 0.88123 0.44938 0.78184 0.0
N1782 N 0.91813 0.48099 0.76358 0.0
N1783 N 0.86786 0.37317 0.77228 0.0
C1784 C 0.90177 0.45605 0.76215 0.0
C1785 C 0.87619 0.4007 0.767 0.0
N1786 N 0.92079 0.44382 0.71896 0.0
N1787 N 0.8451 0.41545 0.79889 0.0
H1788 H 0.87331 0.3576 0.76003 0.0
H1789 H 0.85777 0.36568 0.79019 0.0
H1790 H 0.83677 0.42998 0.8101 0.0
H1791 H 0.83274 0.39638 0.79824 0.0
H1792 H 0.92778 0.46438 0.71352 0.0
H1793 H 0.92435 0.42961 0.70411 0.0
H1794 H 0.93508 0.48613 0.75161 0.0
H1795 H 0.91663 0.49545 0.77897 0.0
C1796 C 0.13555 0.38362 0.71969 0.0
C1797 C 0.16386 0.38091 0.73084 0.0
C1798 C 0.14773 0.35021 0.77066 0.0
C1799 C 0.11944 0.34979 0.75728 0.0
N1800 N 0.08762 0.3618 0.71488 0.0
N1801 N 0.19739 0.35843 0.76426 0.0
C1802 C 0.11353 0.36554 0.73075 0.0
C1803 C 0.17009 0.36327 0.7556 0.0
N1804 N 0.12977 0.40354 0.69846 0.0
N1805 N 0.15319 0.33898 0.79816 0.0
H1806 H 0.21415 0.36767 0.75356 0.0
H1807 H 0.20308 0.34354 0.78036 0.0
H1808 H 0.1373 0.33032 0.81036 0.0
H1809 H 0.17314 0.34089 0.80994 0.0
H1810 H 0.1094 0.40843 0.69134 0.0
H1811 H 0.14565 0.41679 0.68986 0.0
H1812 H 0.08327 0.37078 0.69413 0.0
H1813 H 0.0713 0.34743 0.72079 0.0
C1814 C 0.95564 0.69288 0.72304 0.0
C1815 C 0.93157 0.70672 0.72554 0.0
C1816 C 0.95495 0.72631 0.77098 0.0
C1817 C 0.98041 0.71634 0.76587 0.0
N1818 N 1.00561 0.68939 0.73798 0.0
N1819 N 0.90953 0.73958 0.74998 0.0
C1820 C 0.9808 0.69896 0.74239 0.0
C1821 C 0.93139 0.72388 0.7493 0.0
N1822 N 0.95459 0.67478 0.70144 0.0
N1823 N 0.95345 0.73849 0.79643 0.0
H1824 H 0.89175 0.73823 0.73466 0.0
H1825 H 0.90981 0.75518 0.76456 0.0
H1826 H 0.97047 0.74052 0.81266 0.0
H1827 H 0.9347 0.74389 0.80262 0.0
H1828 H 0.97034 0.66212 0.69942 0.0
H1829 H 0.93685 0.67128 0.68637 0.0
H1830 H 1.00848 0.67912 0.71969 0.0
H1831 H 0.02385 0.69258 0.75258 0.0
C1832 C 0.74361 0.17959 0.62839 0.0
C1833 C 0.73653 0.19857 0.64785 0.0
C1834 C 0.75949 0.23718 0.61893 0.0
C1835 C 0.76933 0.21794 0.60152 0.0
N1836 N 0.77354 0.17018 0.59223 0.0
N1837 N 0.74253 0.2453 0.66444 0.0
C1838 C 0.76237 0.18892 0.6072 0.0
C1839 C 0.74588 0.22734 0.64383 0.0
N1840 N 0.73096 0.15299 0.62889 0.0
N1841 N 0.76265 0.26497 0.61147 0.0
H1842 H 0.73327 0.23883 0.68314 0.0
H1843 H 0.75147 0.26591 0.66453 0.0
H1844 H 0.77218 0.27304 0.5934 0.0
H1845 H 0.75334 0.27975 0.62144 0.0
H1846 H 0.73304 0.13861 0.61367 0.0
H1847 H 0.71597 0.14634 0.64282 0.0
H1848 H 0.77185 0.14889 0.59753 0.0
H1849 H 0.78607 0.17615 0.57565 0.0
C1850 C 0.30254 0.23713 0.6407 0.0
C1851 C 0.32125 0.21957 0.63171 0.0
C1852 C 0.30915 0.2353 0.58113 0.0
C1853 C 0.29478 0.25648 0.59069 0.0
N1854 N 0.27434 0.27598 0.62838 0.0
N1855 N 0.3422 0.20069 0.59397 0.0
C1856 C 0.28996 0.25652 0.62015 0.0
C1857 C 0.32402 0.21787 0.60195 0.0
N1858 N 0.29764 0.23556 0.66909 0.0
N1859 N 0.30858 0.23217 0.55208 0.0
H1860 H 0.35275 0.18734 0.60889 0.0
H1861 H 0.34781 0.20052 0.57306 0.0
H1862 H 0.29711 0.24441 0.53679 0.0
H1863 H 0.3169 0.216 0.5433 0.0
H1864 H 0.28318 0.24657 0.67733 0.0
H1865 H 0.30712 0.22171 0.68428 0.0
H1866 H 0.27194 0.27942 0.64977 0.0
H1867 H 0.26372 0.28895 0.61314 0.0
C1868 C 0.41155 0.83097 0.62801 0.0
C1869 C 0.39559 0.82399 0.65155 0.0
C1870 C 0.37327 0.78187 0.62755 0.0
C1871 C 0.39046 0.78826 0.6048 0.0
N1872 N 0.42856 0.81596 0.58493 0.0
N1873 N 0.36121 0.79346 0.67449 0.0
C1874 C 0.41057 0.81188 0.60571 0.0
C1875 C 0.37654 0.79944 0.65161 0.0
N1876 N 0.42594 0.85679 0.62602 0.0
N1877 N 0.35307 0.75966 0.62532 0.0
H1878 H 0.36157 0.80719 0.69102 0.0
H1879 H 0.34872 0.77485 0.67768 0.0
H1880 H 0.35037 0.74652 0.60799 0.0
H1881 H 0.33814 0.7547 0.63973 0.0
H1882 H 0.43625 0.8643 0.60828 0.0
H1883 H 0.42503 0.87184 0.64093 0.0
H1884 H 0.44551 0.83137 0.58555 0.0
H1885 H 0.42782 0.80227 0.56824 0.0
C1886 C 0.74975 0.91047 0.63424 0.0
C1887 C 0.74569 0.88688 0.65333 0.0
C1888 C 0.76407 0.8592 0.6189 0.0
C1889 C 0.77328 0.88374 0.60284 0.0
N1890 N 0.78023 0.93405 0.60089 0.0
N1891 N 0.75663 0.83996 0.66672 0.0
C1892 C 0.76772 0.90986 0.61216 0.0
C1893 C 0.75534 0.8616 0.64664 0.0
N1894 N 0.73527 0.93283 0.63606 0.0
N1895 N 0.76135 0.83378 0.60703 0.0
H1896 H 0.75177 0.8414 0.68779 0.0
H1897 H 0.76547 0.82186 0.66319 0.0
H1898 H 0.76333 0.83142 0.58526 0.0
H1899 H 0.75301 0.81573 0.61763 0.0
H1900 H 0.73621 0.94995 0.62139 0.0
H1901 H 0.71968 0.93227 0.64987 0.0
H1902 H 0.77813 0.95341 0.60868 0.0
H1903 H 0.79522 0.93442 0.5864 0.0
C1904 C 0.71187 0.84777 0.4308 0.0
C1905 C 0.71584 0.83608 0.40457 0.0
C1906 C 0.76013 0.81947 0.42703 0.0
C1907 C 0.757 0.83241 0.4529 0.0
N1908 N 0.73062 0.85896 0.48021 0.0
N1909 N 0.73854 0.80415 0.37997 0.0
C1910 C 0.73284 0.84632 0.45514 0.0
C1911 C 0.73859 0.82009 0.40329 0.0
N1912 N 0.68728 0.85899 0.43261 0.0
N1913 N 0.78411 0.8072 0.42497 0.0
H1914 H 0.72236 0.80335 0.36284 0.0
H1915 H 0.75296 0.78985 0.37865 0.0
H1916 H 0.79944 0.80467 0.44256 0.0
H1917 H 0.78953 0.80067 0.40563 0.0
H1918 H 0.68159 0.86621 0.45147 0.0
H1919 H 0.67132 0.85931 0.41532 0.0
H1920 H 0.71542 0.87213 0.48255 0.0
H1921 H 0.7447 0.85681 0.49891 0.0
C1922 C 0.70901 0.19258 0.41171 0.0
C1923 C 0.70999 0.20165 0.38212 0.0
C1924 C 0.73376 0.24696 0.39835 0.0
C1925 C 0.7319 0.23795 0.42782 0.0
N1926 N 0.71079 0.2053 0.46168 0.0
N1927 N 0.72035 0.23849 0.34714 0.0
C1928 C 0.71737 0.21167 0.43415 0.0
C1929 C 0.72115 0.22935 0.37547 0.0
N1930 N 0.70129 0.16523 0.41854 0.0
N1931 N 0.74902 0.27163 0.39227 0.0
H1932 H 0.71288 0.22546 0.33029 0.0
H1933 H 0.72528 0.25913 0.34035 0.0
H1934 H 0.75853 0.28485 0.40831 0.0
H1935 H 0.75392 0.27828 0.37164 0.0
H1936 H 0.70365 0.15655 0.43962 0.0
H1937 H 0.69414 0.15077 0.40287 0.0
H1938 H 0.69788 0.18758 0.46727 0.0
H1939 H 0.71577 0.21929 0.47824 0.0
C1940 C 0.33418 0.25273 0.41608 0.0
C1941 C 0.34671 0.22855 0.42727 0.0
C1942 C 0.35003 0.24507 0.47675 0.0
C1943 C 0.33799 0.2695 0.46546 0.0
N1944 N 0.31444 0.29506 0.42569 0.0
N1945 N 0.36338 0.1994 0.46757 0.0
C1946 C 0.32872 0.27279 0.43545 0.0
C1947 C 0.35338 0.22395 0.45756 0.0
N1948 N 0.32878 0.25693 0.38673 0.0
N1949 N 0.35879 0.24265 0.50577 0.0
H1950 H 0.36593 0.18397 0.45359 0.0
H1951 H 0.36766 0.19351 0.48938 0.0
H1952 H 0.35636 0.25789 0.52001 0.0
H1953 H 0.36927 0.22633 0.51577 0.0
H1954 H 0.32262 0.27536 0.37654 0.0
H1955 H 0.33153 0.24196 0.37233 0.0
H1956 H 0.30451 0.29755 0.40467 0.0
H1957 H 0.31114 0.31049 0.4393 0.0
C1958 C 0.35356 0.80672 0.38391 0.0
C1959 C 0.36978 0.83299 0.38395 0.0
C1960 C 0.37605 0.82973 0.43759 0.0
C1961 C 0.36142 0.80265 0.4371 0.0
N1962 N 0.34277 0.76263 0.40942 0.0
N1963 N 0.39854 0.86885 0.41082 0.0
C1964 C 0.35251 0.7902 0.41014 0.0
C1965 C 0.38195 0.84408 0.41089 0.0
N1966 N 0.33679 0.79871 0.35941 0.0
N1967 N 0.38366 0.84198 0.46355 0.0
H1968 H 0.40119 0.88093 0.39191 0.0
H1969 H 0.41067 0.87684 0.42914 0.0
H1970 H 0.38036 0.83174 0.48341 0.0
H1971 H 0.39166 0.86274 0.46549 0.0
H1972 H 0.32237 0.78096 0.35874 0.0
H1973 H 0.33475 0.81173 0.34088 0.0
H1974 H 0.33877 0.75198 0.39025 0.0
H1975 H 0.34074 0.7499 0.42807 0.0
C1976 C 0.65369 0.22286 0.71862 0.0
C1977 C 0.65618 0.19641 0.70821 0.0
C1978 C 0.61212 0.17799 0.72804 0.0
C1979 C 0.60948 0.2046 0.73826 0.0
N1980 N 0.62343 0.25408 0.735 0.0
N1981 N 0.63529 0.15033 0.69768 0.0
C1982 C 0.62885 0.22761 0.73087 0.0
C1983 C 0.63449 0.17445 0.71127 0.0
N1984 N 0.67582 0.24307 0.71829 0.0
N1985 N 0.5932 0.15609 0.73465 0.0
H1986 H 0.65127 0.14766 0.68508 0.0
H1987 H 0.61923 0.13402 0.69688 0.0
H1988 H 0.57554 0.15859 0.74489 0.0
H1989 H 0.59541 0.13549 0.73092 0.0
H1990 H 0.67683 0.26174 0.72864 0.0
H1991 H 0.6943 0.24012 0.70978 0.0
H1992 H 0.63547 0.2717 0.72762 0.0
H1993 H 0.60522 0.25865 0.74287 0.0
C1994 C 0.3532 0.14911 0.73109 0.0
C1995 C 0.36566 0.15277 0.70482 0.0
C1996 C 0.38524 0.10776 0.71485 0.0
C1997 C 0.37381 0.10486 0.74168 0.0
N1998 N 0.35096 0.12417 0.7778 0.0
N1999 N 0.39345 0.13633 0.67119 0.0
C2000 C 0.35911 0.1261 0.75056 0.0
C2001 C 0.3819 0.13234 0.6967 0.0
N2002 N 0.33451 0.1669 0.73661 0.0
N2003 N 0.39844 0.08642 0.70655 0.0
H2004 H 0.38892 0.15274 0.65647 0.0
H2005 H 0.40772 0.12393 0.66473 0.0
H2006 H 0.40156 0.06867 0.71991 0.0
H2007 H 0.4055 0.08566 0.68637 0.0
H2008 H 0.32278 0.16425 0.75412 0.0
H2009 H 0.32894 0.18324 0.72223 0.0
H2010 H 0.3428 0.14019 0.787 0.0
H2011 H 0.35431 0.1071 0.79209 0.0
C2012 C 0.43876 0.80073 0.71332 0.0
C2013 C 0.44261 0.82822 0.7012 0.0
C2014 C 0.4926 0.82288 0.69846 0.0
C2015 C 0.48803 0.79467 0.70842 0.0
N2016 N 0.45674 0.75557 0.72253 0.0
N2017 N 0.4727 0.86601 0.68211 0.0
C2018 C 0.46098 0.78324 0.71487 0.0
C2019 C 0.46945 0.83943 0.69367 0.0
N2020 N 0.41443 0.7921 0.72509 0.0
N2021 N 0.5194 0.834 0.69482 0.0
H2022 H 0.45681 0.87923 0.68066 0.0
H2023 H 0.49059 0.87473 0.67307 0.0
H2024 H 0.53651 0.82217 0.69771 0.0
H2025 H 0.52511 0.85504 0.69042 0.0
H2026 H 0.41084 0.77309 0.73639 0.0
H2027 H 0.39891 0.80538 0.72608 0.0
H2028 H 0.43702 0.7451 0.72507 0.0
H2029 H 0.47292 0.7426 0.72419 0.0
C2030 C 0.75361 0.95582 0.70113 0.0
C2031 C 0.76205 0.92858 0.7012 0.0
C2032 C 0.81146 0.94831 0.70132 0.0
C2033 C 0.80325 0.97526 0.70348 0.0
N2034 N 0.76716 1.00505 0.70784 0.0
N2035 N 0.7988 0.89827 0.7054 0.0
C2036 C 0.77443 0.97912 0.70386 0.0
C2037 C 0.79096 0.92466 0.70212 0.0
N2038 N 0.72554 0.95936 0.69782 0.0
N2039 N 0.839 0.94557 0.69866 0.0
H2040 H 0.78418 0.88085 0.70717 0.0
H2041 H 0.81964 0.89369 0.70862 0.0
H2042 H 0.85424 0.9627 0.69859 0.0
H2043 H 0.84634 0.92691 0.69451 0.0
H2044 H 0.71768 0.97864 0.69449 0.0
H2045 H 0.70974 0.94277 0.69598 0.0
H2046 H 0.74722 1.00897 0.71209 0.0
H2047 H 0.78159 0.02278 0.70848 0.0
C2048 C 0.63393 0.78107 0.32896 0.0
C2049 C 0.63257 0.80921 0.33487 0.0
C2050 C 0.58109 0.80109 0.33012 0.0
C2051 C 0.5832 0.77216 0.33179 0.0
N2052 N 0.61059 0.73388 0.32978 0.0
N2053 N 0.60503 0.84677 0.34052 0.0
C2054 C 0.60928 0.76194 0.32938 0.0
C2055 C 0.6061 0.81972 0.33433 0.0
N2056 N 0.65928 0.77277 0.3246 0.0
N2057 N 0.55503 0.81037 0.32595 0.0
H2058 H 0.62305 0.86073 0.3443 0.0
H2059 H 0.58649 0.85496 0.34358 0.0
H2060 H 0.53676 0.79653 0.3231 0.0
H2061 H 0.55174 0.83129 0.3226 0.0
H2062 H 0.662 0.75281 0.319 0.0
H2063 H 0.67734 0.78689 0.32438 0.0
H2064 H 0.62927 0.72461 0.33091 0.0
H2065 H 0.59252 0.71975 0.32971 0.0
C2066 C 0.72583 0.11556 0.30006 0.0
C2067 C 0.71991 0.11731 0.32898 0.0
C2068 C 0.73587 0.07119 0.34085 0.0
C2069 C 0.73791 0.06764 0.31098 0.0
N2070 N 0.73077 0.08555 0.26136 0.0
N2071 N 0.71392 0.09454 0.37544 0.0
C2072 C 0.73186 0.08965 0.29032 0.0
C2073 C 0.72336 0.09443 0.34894 0.0
N2074 N 0.72633 0.13891 0.28214 0.0
N2075 N 0.74744 0.05345 0.36179 0.0
H2076 H 0.7041 0.11102 0.38169 0.0
H2077 H 0.71333 0.07723 0.38985 0.0
H2078 H 0.75891 0.03745 0.35731 0.0
H2079 H 0.74867 0.05676 0.38389 0.0
H2080 H 0.7331 0.13976 0.26162 0.0
H2081 H 0.72253 0.15813 0.28903 0.0
H2082 H 0.72384 0.09994 0.24527 0.0
H2083 H 0.7342 0.06667 0.25335 0.0
C2084 C 0.43547 0.19037 0.36913 0.0
C2085 C 0.41165 0.20515 0.36099 0.0
C2086 C 0.43972 0.23924 0.33233 0.0
C2087 C 0.46338 0.22435 0.3406 0.0
N2088 N 0.48313 0.18321 0.361 0.0
N2089 N 0.38969 0.24171 0.33262 0.0
C2090 C 0.46089 0.19887 0.35692 0.0
C2091 C 0.41327 0.22864 0.34128 0.0
N2092 N 0.43445 0.1699 0.39051 0.0
N2093 N 0.44316 0.26456 0.31785 0.0
H2094 H 0.37093 0.23653 0.34164 0.0
H2095 H 0.38826 0.25682 0.31579 0.0
H2096 H 0.46243 0.2731 0.31144 0.0
H2097 H 0.42754 0.27801 0.31354 0.0
H2098 H 0.45188 0.16007 0.39963 0.0
H2099 H 0.41649 0.16439 0.40083 0.0
H2100 H 0.48203 0.1632 0.37059 0.0
H2101 H 0.50209 0.18953 0.35252 0.0
C2102 C 0.3169 0.91592 0.31093 0.0
C2103 C 0.34612 0.91432 0.31926 0.0
C2104 C 0.35454 0.9647 0.3095 0.0
C2105 C 0.32497 0.96719 0.30647 0.0
N2106 N 0.27778 0.94424 0.30736 0.0
N2107 N 0.39226 0.93821 0.33132 0.0
C2108 C 0.306 0.94247 0.30772 0.0
C2109 C 0.36479 0.93903 0.31992 0.0
N2110 N 0.29963 0.89192 0.30608 0.0
N2111 N 0.37289 0.98623 0.3007 0.0
H2112 H 0.40036 0.91987 0.33963 0.0
H2113 H 0.40614 0.95611 0.33498 0.0
H2114 H 0.36628 1.00434 0.29002 0.0
H2115 H 0.3943 0.98453 0.30038 0.0
H2116 H 0.27856 0.89157 0.2974 0.0
H2117 H 0.30725 0.87242 0.30843 0.0
H2118 H 0.26333 0.92708 0.31093 0.0
H2119 H 0.26906 0.96314 0.30606 0.0
C2120 C 0.77357 0.16696 0.71122 0.0
C2121 C 0.7456 0.15604 0.70192 0.0
C2122 C 0.75614 0.11 0.72367 0.0
C2123 C 0.78444 0.12089 0.73218 0.0
N2124 N 0.82191 0.1573 0.72503 0.0
N2125 N 0.71188 0.11587 0.69387 0.0
C2126 C 0.79374 0.14861 0.72302 0.0
C2127 C 0.73769 0.12698 0.70601 0.0
N2128 N 0.78046 0.19504 0.71082 0.0
N2129 N 0.74613 0.08433 0.73418 0.0
H2130 H 0.69727 0.12801 0.68235 0.0
H2131 H 0.70586 0.09455 0.69328 0.0
H2132 H 0.75845 0.07153 0.74792 0.0
H2133 H 0.72491 0.07663 0.73142 0.0
H2134 H 0.79975 0.20438 0.72018 0.0
H2135 H 0.76582 0.20894 0.70356 0.0
H2136 H 0.82988 0.17653 0.71648 0.0
H2137 H 0.83737 0.1441 0.73216 0.0
C2138 C 0.70862 0.90546 0.36451 0.0
C2139 C 0.71553 0.87999 0.35501 0.0
C2140 C 0.76132 0.90273 0.34353 0.0
C2141 C 0.75394 0.92841 0.3518 0.0
N2142 N 0.72031 0.95555 0.36771 0.0
N2143 N 0.74543 0.85526 0.33032 0.0
C2144 C 0.72754 0.93009 0.36189 0.0
C2145 C 0.74118 0.87882 0.34323 0.0
N2146 N 0.68364 0.90596 0.3756 0.0
N2147 N 0.78777 0.90139 0.3361 0.0
H2148 H 0.73022 0.83816 0.32853 0.0
H2149 H 0.76257 0.85353 0.31908 0.0
H2150 H 0.80263 0.91882 0.33581 0.0
H2151 H 0.79566 0.88292 0.33227 0.0
H2152 H 0.67819 0.92283 0.38581 0.0
H2153 H 0.66841 0.88887 0.37522 0.0
H2154 H 0.7005 0.9591 0.37265 0.0
H2155 H 0.73404 0.97371 0.3663 0.0
C2156 C 0.65422 0.20191 0.30294 0.0
C2157 C 0.65833 0.19244 0.33258 0.0
C2158 C 0.61364 0.20967 0.33964 0.0
C2159 C 0.60692 0.21385 0.30911 0.0
N2160 N 0.62051 0.21088 0.26114 0.0
N2161 N 0.63855 0.18253 0.37754 0.0
C2162 C 0.62731 0.20958 0.29056 0.0
C2163 C 0.63724 0.19528 0.35061 0.0
N2164 N 0.67593 0.20278 0.28641 0.0
N2165 N 0.59802 0.22011 0.35834 0.0
H2166 H 0.65445 0.17019 0.38524 0.0
H2167 H 0.62229 0.18171 0.39062 0.0
H2168 H 0.58178 0.23243 0.35137 0.0
H2169 H 0.60353 0.21943 0.38075 0.0
H2170 H 0.6753 0.21199 0.26556 0.0
H2171 H 0.69552 0.19643 0.29458 0.0
H2172 H 0.63349 0.20498 0.24669 0.0
H2173 H 0.60079 0.21531 0.25113 0.0
C2174 C 0.36599 0.13228 0.36544 0.0
C2175 C 0.36154 0.15974 0.35467 0.0
C2176 C 0.35498 0.1438 0.30477 0.0
C2177 C 0.35861 0.11617 0.31533 0.0
N2178 N 0.3661 0.08329 0.35538 0.0
N2179 N 0.3425 0.18898 0.31556 0.0
C2180 C 0.36365 0.11021 0.34569 0.0
C2181 C 0.35367 0.16482 0.32467 0.0
N2182 N 0.37228 0.12747 0.39462 0.0
N2183 N 0.35259 0.14997 0.27562 0.0
H2184 H 0.33802 0.20285 0.33028 0.0
H2185 H 0.33418 0.19334 0.29425 0.0
H2186 H 0.35183 0.13492 0.26033 0.0
H2187 H 0.35309 0.17026 0.26673 0.0
H2188 H 0.37805 0.10872 0.40429 0.0
H2189 H 0.37246 0.14289 0.40943 0.0
H2190 H 0.36751 0.07647 0.37708 0.0
H2191 H 0.36605 0.06728 0.34127 0.0
C2192 C 0.43039 0.83637 0.33596 0.0
C2193 C 0.40084 0.83083 0.32796 0.0
C2194 C 0.40985 0.78929 0.30333 0.0
C2195 C 0.43943 0.79607 0.30909 0.0
N2196 N 0.47796 0.82863 0.32746 0.0
N2197 N 0.3639 0.80653 0.29645 0.0
C2198 C 0.44976 0.82012 0.32491 0.0
C2199 C 0.39094 0.80838 0.30971 0.0
N2200 N 0.44001 0.85811 0.3531 0.0
N2201 N 0.39979 0.76433 0.29185 0.0
H2202 H 0.35027 0.82144 0.29858 0.0
H2203 H 0.35615 0.7922 0.28079 0.0
H2204 H 0.41315 0.74984 0.28755 0.0
H2205 H 0.37847 0.75696 0.28947 0.0
H2206 H 0.46068 0.86161 0.36287 0.0
H2207 H 0.42675 0.87221 0.35831 0.0
H2208 H 0.48693 0.84734 0.33615 0.0
H2209 H 0.49235 0.81795 0.31867 0.0
C2210 C 0.38811 0.92755 0.70467 0.0
C2211 C 0.37795 0.90002 0.71291 0.0
C2212 C 0.34554 0.91812 0.74269 0.0
C2213 C 0.35793 0.94563 0.73696 0.0
N2214 N 0.39083 0.97708 0.71269 0.0
N2215 N 0.34782 0.86825 0.73966 0.0
C2216 C 0.37901 0.95049 0.71773 0.0
C2217 C 0.3566 0.8951 0.73165 0.0
N2218 N 0.4063 0.93155 0.68404 0.0
N2219 N 0.32345 0.91411 0.75896 0.0
H2220 H 0.35539 0.85125 0.73147 0.0
H2221 H 0.33426 0.86264 0.75532 0.0
H2222 H 0.31529 0.93049 0.76764 0.0
H2223 H 0.31194 0.89498 0.76241 0.0
H2224 H 0.41286 0.9509 0.67483 0.0
H2225 H 0.41354 0.91502 0.67466 0.0
H2226 H 0.40846 0.98209 0.70172 0.0
H2227 H 0.38339 0.99439 0.72042 0.0
C2228 C 0.69315 0.83793 0.75102 0.0
C2229 C 0.68472 0.86038 0.73232 0.0
C2230 C 0.6366 0.85155 0.74633 0.0
C2231 C 0.64519 0.82948 0.76592 0.0
N2232 N 0.6829 0.80416 0.78988 0.0
N2233 N 0.65028 0.89128 0.71446 0.0
C2234 C 0.6739 0.82354 0.76927 0.0
C2235 C 0.65691 0.86795 0.73066 0.0
N2236 N 0.71945 0.82983 0.75047 0.0
N2237 N 0.60893 0.85672 0.7426 0.0
H2238 H 0.66472 0.90315 0.7025 0.0
H2239 H 0.63134 0.89992 0.71418 0.0
H2240 H 0.59398 0.84675 0.75524 0.0
H2241 H 0.60043 0.87008 0.72634 0.0
H2242 H 0.72621 0.81168 0.7608 0.0
H2243 H 0.73408 0.84042 0.73785 0.0
H2244 H 0.70398 0.80108 0.79569 0.0
H2245 H 0.66955 0.79225 0.80282 0.0
C2246 C 0.40623 0.21239 0.73122 0.0
C2247 C 0.40544 0.20604 0.70189 0.0
C2248 C 0.45714 0.21414 0.70576 0.0
C2249 C 0.45782 0.21702 0.73606 0.0
N2250 N 0.43297 0.21416 0.7786 0.0
N2251 N 0.42946 0.20044 0.66053 0.0
C2252 C 0.43236 0.21462 0.74911 0.0
C2253 C 0.43078 0.20684 0.68892 0.0
N2254 N 0.38215 0.21818 0.7414 0.0
N2255 N 0.48164 0.21851 0.69319 0.0
H2256 H 0.41041 0.19657 0.64738 0.0
H2257 H 0.44699 0.19763 0.65033 0.0
H2258 H 0.50134 0.22287 0.7051 0.0
H2259 H 0.48246 0.21946 0.67089 0.0
H2260 H 0.3817 0.2254 0.762 0.0
H2261 H 0.36327 0.21906 0.72788 0.0
H2262 H 0.41499 0.20951 0.78915 0.0
H2263 H 0.45159 0.21603 0.7927 0.0
C2264 C 0.73596 0.69202 0.12613 0.0
C2265 C 0.74326 0.70155 0.15463 0.0
C2266 C 0.78925 0.72256 0.14082 0.0
C2267 C 0.78278 0.71093 0.11313 0.0
N2268 N 0.75179 0.68179 0.08051 0.0
N2269 N 0.77611 0.72649 0.18932 0.0
C2270 C 0.75656 0.6949 0.10613 0.0
C2271 C 0.76985 0.71686 0.16205 0.0
N2272 N 0.70894 0.68109 0.11789 0.0
N2273 N 0.81336 0.74016 0.14616 0.0
H2274 H 0.76108 0.72526 0.20385 0.0
H2275 H 0.79599 0.73513 0.19778 0.0
H2276 H 0.82759 0.74492 0.13091 0.0
H2277 H 0.81864 0.75137 0.16481 0.0
H2278 H 0.70126 0.67631 0.09665 0.0
H2279 H 0.69346 0.67878 0.13199 0.0
H2280 H 0.73439 0.6675 0.07503 0.0
H2281 H 0.7666 0.6835 0.06566 0.0
C2282 C 0.37664 0.76238 0.13674 0.0
C2283 C 0.3914 0.73978 0.13184 0.0
C2284 C 0.41105 0.76609 0.09087 0.0
C2285 C 0.39771 0.78948 0.09717 0.0
N2286 N 0.37306 0.81185 0.1299 0.0
N2287 N 0.42393 0.7197 0.10611 0.0
C2288 C 0.38166 0.78811 0.12096 0.0
C2289 C 0.40882 0.74145 0.1092 0.0
N2290 N 0.35805 0.75914 0.15695 0.0
N2291 N 0.42546 0.76743 0.06713 0.0
H2292 H 0.42173 0.70118 0.11865 0.0
H2293 H 0.43936 0.72024 0.09215 0.0
H2294 H 0.42769 0.7853 0.05359 0.0
H2295 H 0.43352 0.75048 0.05956 0.0
H2296 H 0.34483 0.77404 0.16017 0.0
H2297 H 0.35435 0.74047 0.16895 0.0
H2298 H 0.36629 0.81306 0.15018 0.0
H2299 H 0.37537 0.83098 0.11842 0.0
C2300 C 0.36199 0.29512 0.14874 0.0
C2301 C 0.37888 0.32111 0.14703 0.0
C2302 C 0.37712 0.3168 0.09409 0.0
C2303 C 0.35881 0.29192 0.09565 0.0
N2304 N 0.33884 0.2539 0.12445 0.0
N2305 N 0.39815 0.35898 0.11718 0.0
C2306 C 0.35312 0.27985 0.12311 0.0
C2307 C 0.38577 0.33229 0.11947 0.0
N2308 N 0.35204 0.28653 0.17437 0.0
N2309 N 0.38615 0.32556 0.068 0.0
H2310 H 0.40359 0.37137 0.13499 0.0
H2311 H 0.40094 0.36975 0.09754 0.0
H2312 H 0.38005 0.31439 0.04931 0.0
H2313 H 0.40155 0.34209 0.06538 0.0
H2314 H 0.33764 0.26917 0.17706 0.0
H2315 H 0.35623 0.29847 0.19254 0.0
H2316 H 0.33554 0.24261 0.14368 0.0
H2317 H 0.33235 0.24259 0.10596 0.0
C2318 C 0.76851 0.37968 0.17378 0.0
C2319 C 0.74333 0.39297 0.16997 0.0
C2320 C 0.73998 0.38632 0.11756 0.0
C2321 C 0.76087 0.36767 0.12255 0.0
N2322 N 0.79648 0.34726 0.15513 0.0
N2323 N 0.70361 0.40705 0.13778 0.0
C2324 C 0.77611 0.36509 0.15049 0.0
C2325 C 0.72913 0.39657 0.14152 0.0
N2326 N 0.78456 0.38033 0.2 0.0
N2327 N 0.72968 0.39301 0.08968 0.0
H2328 H 0.69437 0.41373 0.15494 0.0
H2329 H 0.69064 0.40713 0.11813 0.0
H2330 H 0.73737 0.38519 0.07205 0.0
H2331 H 0.71587 0.40815 0.0842 0.0
H2332 H 0.80421 0.37279 0.20403 0.0
H2333 H 0.77919 0.39105 0.21688 0.0
H2334 H 0.80605 0.34157 0.17559 0.0
H2335 H 0.8031 0.3373 0.13829 0.0
C2336 C 0.7369 0.33339 0.91328 0.0
C2337 C 0.72529 0.35942 0.91133 0.0
C2338 C 0.75359 0.3719 0.95741 0.0
C2339 C 0.76302 0.34501 0.96064 0.0
N2340 N 0.76157 0.29888 0.94321 0.0
N2341 N 0.71649 0.39922 0.93598 0.0
C2342 C 0.75418 0.32544 0.93892 0.0
C2343 C 0.7323 0.37776 0.93442 0.0
N2344 N 0.73119 0.31605 0.89067 0.0
N2345 N 0.76439 0.39164 0.97672 0.0
H2346 H 0.69839 0.40144 0.92172 0.0
H2347 H 0.71888 0.41216 0.95345 0.0
H2348 H 0.77921 0.38775 0.99443 0.0
H2349 H 0.76036 0.4124 0.97378 0.0
H2350 H 0.74174 0.29864 0.88896 0.0
H2351 H 0.71713 0.31996 0.87245 0.0
H2352 H 0.75296 0.28252 0.93026 0.0
H2353 H 0.77519 0.29259 0.96096 0.0
C2354 C 0.78423 0.71675 0.90473 0.0
C2355 C 0.75743 0.70125 0.9025 0.0
C2356 C 0.74582 0.72724 0.94297 0.0
C2357 C 0.77424 0.73959 0.94733 0.0
N2358 N 0.82205 0.7355 0.93877 0.0
N2359 N 0.7133 0.6894 0.9217 0.0
C2360 C 0.79389 0.7315 0.9299 0.0
C2361 C 0.7382 0.70591 0.9222 0.0
N2362 N 0.80088 0.71682 0.88297 0.0
N2363 N 0.72627 0.73587 0.95845 0.0
H2364 H 0.70764 0.67391 0.90674 0.0
H2365 H 0.69933 0.68991 0.93707 0.0
H2366 H 0.73155 0.75084 0.97403 0.0
H2367 H 0.70478 0.72949 0.95454 0.0
H2368 H 0.82004 0.72926 0.88294 0.0
H2369 H 0.79387 0.70694 0.86367 0.0
H2370 H 0.83712 0.72771 0.92798 0.0
H2371 H 0.82981 0.74371 0.95869 0.0
C2372 C 0.41356 0.74491 0.93735 0.0
C2373 C 0.40706 0.7174 0.92798 0.0
C2374 C 0.37667 0.70733 0.96671 0.0
C2375 C 0.38676 0.73339 0.97869 0.0
N2376 N 0.42206 0.77305 0.97922 0.0
N2377 N 0.38792 0.6703 0.93881 0.0
C2378 C 0.40735 0.75112 0.96511 0.0
C2379 C 0.39027 0.69789 0.94422 0.0
N2380 N 0.42491 0.7653 0.91949 0.0
N2381 N 0.35321 0.6923 0.97543 0.0
H2382 H 0.39875 0.6626 0.92344 0.0
H2383 H 0.37769 0.65503 0.9517 0.0
H2384 H 0.34111 0.69963 0.98992 0.0
H2385 H 0.34394 0.67422 0.96553 0.0
H2386 H 0.42801 0.78618 0.92467 0.0
H2387 H 0.42826 0.76168 0.89836 0.0
H2388 H 0.43867 0.7853 0.97079 0.0
H2389 H 0.4201 0.77665 1.00073 0.0
C2390 C 0.38475 0.36031 0.92125 0.0
C2391 C 0.3801 0.34917 0.89316 0.0
C2392 C 0.34366 0.31417 0.91038 0.0
C2393 C 0.34866 0.32529 0.93839 0.0
N2394 N 0.37743 0.35488 0.97222 0.0
N2395 N 0.35707 0.31438 0.86132 0.0
C2396 C 0.37033 0.34715 0.94428 0.0
C2397 C 0.36032 0.32547 0.88799 0.0
N2398 N 0.40228 0.38429 0.92553 0.0
N2399 N 0.32208 0.29361 0.90505 0.0
H2400 H 0.36814 0.32319 0.84454 0.0
H2401 H 0.34468 0.29597 0.8561 0.0
H2402 H 0.30967 0.28534 0.92103 0.0
H2403 H 0.31553 0.28552 0.88482 0.0
H2404 H 0.40391 0.39565 0.9441 0.0
H2405 H 0.41438 0.3936 0.90974 0.0
H2406 H 0.39486 0.36874 0.97884 0.0
H2407 H 0.36711 0.34557 0.98936 0.0
C2408 C 0.6653 0.72847 0.23237 0.0
C2409 C 0.66204 0.70686 0.21249 0.0
C2410 C 0.61069 0.70112 0.21605 0.0
C2411 C 0.61376 0.72379 0.23472 0.0
N2412 N 0.64335 0.76121 0.25798 0.0
N2413 N 0.63187 0.67406 0.18326 0.0
C2414 C 0.64096 0.73804 0.24211 0.0
C2415 C 0.63472 0.69352 0.20384 0.0
N2416 N 0.69189 0.73927 0.24253 0.0
N2417 N 0.58463 0.687 0.20998 0.0
H2418 H 0.64914 0.6682 0.17433 0.0
H2419 H 0.61261 0.66485 0.17381 0.0
H2420 H 0.56674 0.69295 0.21761 0.0
H2421 H 0.58077 0.66877 0.1987 0.0
H2422 H 0.6963 0.75303 0.25927 0.0
H2423 H 0.70986 0.73291 0.2354 0.0
H2424 H 0.66176 0.77467 0.26139 0.0
H2425 H 0.62626 0.76785 0.26652 0.0
C2426 C 0.34846 0.64776 0.20009 0.0
C2427 C 0.37498 0.64982 0.1889 0.0
C2428 C 0.3735 0.59861 0.19235 0.0
C2429 C 0.34639 0.59651 0.20183 0.0
N2430 N 0.3069 0.6183 0.21324 0.0
N2431 N 0.40912 0.62705 0.16799 0.0
C2432 C 0.33368 0.62096 0.20558 0.0
C2433 C 0.38668 0.62516 0.18359 0.0
N2434 N 0.3372 0.6716 0.20475 0.0
N2435 N 0.38663 0.57504 0.19186 0.0
H2436 H 0.41749 0.64596 0.15927 0.0
H2437 H 0.41733 0.6099 0.161 0.0
H2438 H 0.37719 0.55541 0.19778 0.0
H2439 H 0.40754 0.57518 0.18795 0.0
H2440 H 0.31948 0.67221 0.21541 0.0
H2441 H 0.3463 0.69129 0.1987 0.0
H2442 H 0.29493 0.63481 0.21412 0.0
H2443 H 0.29591 0.59898 0.2175 0.0
C2444 C 0.42373 0.2993 0.22066 0.0
C2445 C 0.42814 0.31981 0.19811 0.0
C2446 C 0.47748 0.30895 0.20044 0.0
C2447 C 0.47272 0.28873 0.22311 0.0
N2448 N 0.43955 0.25842 0.24774 0.0
N2449 N 0.45816 0.34212 0.16414 0.0
C2450 C 0.44506 0.28166 0.23048 0.0
C2451 C 0.4546 0.32352 0.18685 0.0
N2452 N 0.40037 0.29855 0.23484 0.0
N2453 N 0.5043 0.31556 0.19348 0.0
H2454 H 0.44258 0.35462 0.15577 0.0
H2455 H 0.47574 0.34426 0.15283 0.0
H2456 H 0.521 0.30451 0.20242 0.0
H2457 H 0.51027 0.33229 0.17969 0.0
H2458 H 0.39742 0.28602 0.25344 0.0
H2459 H 0.38537 0.31261 0.22989 0.0
H2460 H 0.41933 0.25086 0.25231 0.0
H2461 H 0.45502 0.24521 0.25478 0.0
C2462 C 0.75124 0.46393 0.20398 0.0
C2463 C 0.74858 0.43788 0.2194 0.0
C2464 C 0.77603 0.45887 0.26243 0.0
C2465 C 0.78095 0.48416 0.24608 0.0
N2466 N 0.77486 0.51071 0.20058 0.0
N2467 N 0.76113 0.40941 0.26215 0.0
C2468 C 0.76911 0.48659 0.21657 0.0
C2469 C 0.7621 0.43507 0.24824 0.0
N2470 N 0.73534 0.46743 0.17794 0.0
N2471 N 0.78403 0.45774 0.29166 0.0
H2472 H 0.75073 0.39173 0.2524 0.0
H2473 H 0.77271 0.40507 0.282 0.0
H2474 H 0.79352 0.47494 0.30287 0.0
H2475 H 0.77877 0.44068 0.30536 0.0
H2476 H 0.73344 0.48664 0.16698 0.0
H2477 H 0.7225 0.45111 0.16821 0.0
H2478 H 0.77008 0.51261 0.17814 0.0
H2479 H 0.78548 0.52868 0.20965 0.0
C2480 C 0.64829 0.32153 0.82257 0.0
C2481 C 0.64179 0.34269 0.83957 0.0
C2482 C 0.5913 0.33104 0.82482 0.0
C2483 C 0.59776 0.30709 0.81167 0.0
N2484 N 0.6324 0.27816 0.79983 0.0
N2485 N 0.60831 0.36884 0.85702 0.0
C2486 C 0.62629 0.30222 0.81062 0.0
C2487 C 0.61357 0.34806 0.84039 0.0
N2488 N 0.6756 0.3199 0.81795 0.0
N2489 N 0.56394 0.33691 0.82314 0.0
H2490 H 0.6245 0.38175 0.86799 0.0
H2491 H 0.58826 0.37257 0.8611 0.0
H2492 H 0.54718 0.32447 0.81252 0.0
H2493 H 0.55788 0.35501 0.83047 0.0
H2494 H 0.68142 0.30691 0.80311 0.0
H2495 H 0.69238 0.33333 0.82702 0.0
H2496 H 0.65255 0.2717 0.80188 0.0
H2497 H 0.61696 0.26348 0.79058 0.0
C2498 C 0.77164 0.59469 0.85422 0.0
C2499 C 0.78623 0.62158 0.85595 0.0
C2500 C 0.8294 0.60228 0.84593 0.0
C2501 C 0.81374 0.57586 0.84138 0.0
N2502 N 0.76742 0.55093 0.83125 0.0
N2503 N 0.82803 0.65216 0.84947 0.0
C2504 C 0.78412 0.57316 0.84278 0.0
C2505 C 0.81491 0.62573 0.85063 0.0
N2506 N 0.746 0.58949 0.86424 0.0
N2507 N 0.85807 0.60482 0.84662 0.0
H2508 H 0.81788 0.66938 0.85312 0.0
H2509 H 0.84798 0.65712 0.84283 0.0
H2510 H 0.86923 0.58816 0.84343 0.0
H2511 H 0.87091 0.62284 0.85249 0.0
H2512 H 0.73532 0.56959 0.86564 0.0
H2513 H 0.73732 0.60451 0.87446 0.0
H2514 H 0.74546 0.54929 0.82957 0.0
H2515 H 0.77522 0.5361 0.81994 0.0
C2516 C 0.49334 0.69382 0.85475 0.0
C2517 C 0.47162 0.71122 0.85496 0.0
C2518 C 0.50418 0.75154 0.84082 0.0
C2519 C 0.52531 0.73371 0.83811 0.0
N2520 N 0.53728 0.68611 0.8381 0.0
N2521 N 0.45503 0.75628 0.84501 0.0
C2522 C 0.51914 0.70437 0.84385 0.0
C2523 C 0.47663 0.73992 0.84661 0.0
N2524 N 0.48987 0.66736 0.86649 0.0
N2525 N 0.51096 0.77976 0.83997 0.0
H2526 H 0.43508 0.74875 0.85041 0.0
H2527 H 0.45609 0.77654 0.83605 0.0
H2528 H 0.53123 0.7891 0.8377 0.0
H2529 H 0.49746 0.79388 0.84467 0.0
H2530 H 0.50616 0.65461 0.87083 0.0
H2531 H 0.4711 0.65895 0.87399 0.0
H2532 H 0.5319 0.66467 0.83788 0.0
H2533 H 0.55697 0.69202 0.83152 0.0
C2534 C 0.41071 0.45485 0.8345 0.0
C2535 C 0.39811 0.42929 0.82314 0.0
C2536 C 0.38276 0.4539 0.77695 0.0
C2537 C 0.39402 0.47973 0.78883 0.0
N2538 N 0.41734 0.5055 0.82901 0.0
N2539 N 0.36951 0.40429 0.78527 0.0
C2540 C 0.40763 0.48034 0.81771 0.0
C2541 C 0.38352 0.42879 0.79473 0.0
N2542 N 0.42603 0.45445 0.86124 0.0
N2543 N 0.37128 0.45347 0.7486 0.0
H2544 H 0.36982 0.38578 0.79787 0.0
H2545 H 0.35603 0.40251 0.76604 0.0
H2546 H 0.36864 0.47151 0.73566 0.0
H2547 H 0.36537 0.43534 0.73742 0.0
H2548 H 0.43795 0.47172 0.87029 0.0
H2549 H 0.42791 0.43612 0.87398 0.0
H2550 H 0.42511 0.50816 0.85065 0.0
H2551 H 0.41663 0.52417 0.81666 0.0
C2552 C 0.76495 0.65902 0.22897 0.0
C2553 C 0.74617 0.65657 0.20303 0.0
C2554 C 0.77116 0.61835 0.18934 0.0
C2555 C 0.78854 0.61943 0.21625 0.0
N2556 N 0.79752 0.63685 0.26442 0.0
N2557 N 0.72707 0.62967 0.16217 0.0
C2558 C 0.78422 0.63871 0.23684 0.0
C2559 C 0.74822 0.63516 0.18406 0.0
N2560 N 0.76451 0.68095 0.24606 0.0
N2561 N 0.77634 0.60083 0.1691 0.0
H2562 H 0.70908 0.64021 0.15957 0.0
H2563 H 0.7259 0.61296 0.14878 0.0
H2564 H 0.79221 0.58752 0.17302 0.0
H2565 H 0.76626 0.60089 0.14796 0.0
H2566 H 0.77987 0.68586 0.26333 0.0
H2567 H 0.74996 0.69554 0.24165 0.0
H2568 H 0.79307 0.64834 0.28125 0.0
H2569 H 0.81116 0.62192 0.27129 0.0
C2570 C 0.7484 0.39769 0.8424 0.0
C2571 C 0.72839 0.40482 0.86007 0.0
C2572 C 0.74372 0.4542 0.85068 0.0
C2573 C 0.7597 0.44692 0.8293 0.0
N2574 N 0.77597 0.41209 0.80269 0.0
N2575 N 0.70306 0.44049 0.87584 0.0
C2576 C 0.76216 0.41871 0.82494 0.0
C2577 C 0.72543 0.43332 0.86344 0.0
N2578 N 0.75295 0.37055 0.84113 0.0
N2579 N 0.74552 0.48122 0.85813 0.0
H2580 H 0.68742 0.42582 0.8826 0.0
H2581 H 0.6983 0.46095 0.8763 0.0
H2582 H 0.75893 0.49668 0.84888 0.0
H2583 H 0.73605 0.48752 0.87533 0.0
H2584 H 0.76901 0.36398 0.83087 0.0
H2585 H 0.7418 0.35486 0.85238 0.0
H2586 H 0.77603 0.39189 0.79616 0.0
H2587 H 0.78575 0.4272 0.78927 0.0
C2588 C 0.68962 0.66587 0.83843 0.0
C2589 C 0.71231 0.68602 0.84709 0.0
C2590 C 0.6799 0.7216 0.83264 0.0
C2591 C 0.66005 0.70167 0.81754 0.0
N2592 N 0.6531 0.65511 0.7995 0.0
N2593 N 0.72972 0.73466 0.8464 0.0
C2594 C 0.66687 0.67378 0.81857 0.0
C2595 C 0.70775 0.71448 0.84248 0.0
N2596 N 0.68965 0.63916 0.84928 0.0
N2597 N 0.672 0.74632 0.83961 0.0
H2598 H 0.75041 0.7299 0.85143 0.0
H2599 H 0.72745 0.75566 0.84142 0.0
H2600 H 0.65106 0.75071 0.83666 0.0
H2601 H 0.68559 0.76053 0.85203 0.0
H2602 H 0.67281 0.62401 0.84435 0.0
H2603 H 0.70475 0.63365 0.86602 0.0
H2604 H 0.65884 0.63497 0.79897 0.0
H2605 H 0.63906 0.66092 0.78187 0.0
C2606 C 0.40245 0.67974 0.80894 0.0
C2607 C 0.41346 0.67207 0.83757 0.0
C2608 C 0.39791 0.62273 0.82785 0.0
C2609 C 0.38435 0.6308 0.80031 0.0
N2610 N 0.3706 0.66738 0.76583 0.0
N2611 N 0.41803 0.63645 0.87582 0.0
C2612 C 0.38596 0.65945 0.7911 0.0
C2613 C 0.41033 0.64355 0.84734 0.0
N2614 N 0.40772 0.70662 0.79896 0.0
N2615 N 0.3999 0.59515 0.83505 0.0
H2616 H 0.4282 0.65074 0.89052 0.0
H2617 H 0.41282 0.61681 0.88526 0.0
H2618 H 0.39087 0.57926 0.82159 0.0
H2619 H 0.41239 0.58811 0.85332 0.0
H2620 H 0.40277 0.71347 0.7775 0.0
H2621 H 0.41938 0.72162 0.81189 0.0
H2622 H 0.36858 0.68802 0.75906 0.0
H2623 H 0.3577 0.65322 0.75271 0.0
C2624 C 0.43003 0.32698 0.82708 0.0
C2625 C 0.42783 0.3363 0.85501 0.0
C2626 C 0.45605 0.29868 0.87499 0.0
C2627 C 0.46404 0.29459 0.84706 0.0
N2628 N 0.46462 0.31509 0.79815 0.0
N2629 N 0.44491 0.33352 0.90589 0.0
C2630 C 0.45244 0.31124 0.82328 0.0
C2631 C 0.44236 0.32271 0.87925 0.0
N2632 N 0.4117 0.33431 0.80392 0.0
N2633 N 0.46075 0.27955 0.89724 0.0
H2634 H 0.4378 0.35255 0.90889 0.0
H2635 H 0.45704 0.32527 0.92383 0.0
H2636 H 0.46823 0.26061 0.89426 0.0
H2637 H 0.45376 0.28111 0.91741 0.0
H2638 H 0.41198 0.32684 0.78336 0.0
H2639 H 0.3947 0.34536 0.80624 0.0
H2640 H 0.45726 0.32839 0.78112 0.0
H2641 H 0.48447 0.30908 0.79629 0.0
C2642 C 0.36828 0.39996 0.24008 0.0
C2643 C 0.37459 0.39999 0.21101 0.0
C2644 C 0.36074 0.44748 0.2031 0.0
C2645 C 0.35846 0.4492 0.23327 0.0
N2646 N 0.36443 0.42735 0.28135 0.0
N2647 N 0.38285 0.42639 0.16695 0.0
C2648 C 0.36334 0.42543 0.25204 0.0
C2649 C 0.37265 0.42457 0.1932 0.0
N2650 N 0.36625 0.37541 0.25603 0.0
N2651 N 0.34982 0.46667 0.18339 0.0
H2652 H 0.39245 0.41032 0.1595 0.0
H2653 H 0.38441 0.4448 0.15418 0.0
H2654 H 0.33833 0.4822 0.18897 0.0
H2655 H 0.34888 0.46486 0.16105 0.0
H2656 H 0.3591 0.37341 0.2764 0.0
H2657 H 0.36921 0.35657 0.24762 0.0
H2658 H 0.37056 0.41155 0.29618 0.0
H2659 H 0.36187 0.44569 0.29097 0.0
C2660 C 0.63805 0.37785 0.21743 0.0
C2661 C 0.66527 0.37246 0.23031 0.0
C2662 C 0.64505 0.3436 0.26913 0.0
C2663 C 0.61789 0.34982 0.25685 0.0
N2664 N 0.58753 0.37311 0.22087 0.0
N2665 N 0.69574 0.35206 0.26857 0.0
C2666 C 0.61412 0.36712 0.23139 0.0
C2667 C 0.66905 0.35576 0.25622 0.0
N2668 N 0.63542 0.39293 0.19166 0.0
N2669 N 0.64753 0.32541 0.29269 0.0
H2670 H 0.71351 0.35944 0.25855 0.0
H2671 H 0.70052 0.34263 0.28898 0.0
H2672 H 0.63029 0.31713 0.30319 0.0
H2673 H 0.66625 0.31753 0.30124 0.0
H2674 H 0.6163 0.39659 0.1798 0.0
H2675 H 0.65284 0.40096 0.18132 0.0
H2676 H 0.58288 0.38679 0.20331 0.0
H2677 H 0.5698 0.36503 0.23073 0.0
C2678 C 0.42267 0.68887 0.24638 0.0
C2679 C 0.4288 0.68582 0.21776 0.0
C2680 C 0.47874 0.68267 0.23615 0.0
C2681 C 0.47186 0.68297 0.26487 0.0
N2682 N 0.4373 0.68419 0.2981 0.0
N2683 N 0.46251 0.68019 0.18479 0.0
C2684 C 0.44377 0.68535 0.2702 0.0
C2685 C 0.45684 0.68265 0.21257 0.0
N2686 N 0.39723 0.69709 0.25053 0.0
N2687 N 0.50636 0.68302 0.23149 0.0
H2688 H 0.44768 0.68278 0.16683 0.0
H2689 H 0.48141 0.67452 0.17937 0.0
H2690 H 0.52279 0.68268 0.24833 0.0
H2691 H 0.51344 0.68562 0.21115 0.0
H2692 H 0.39209 0.70227 0.2705 0.0
H2693 H 0.38206 0.7011 0.23332 0.0
H2694 H 0.41675 0.68247 0.30348 0.0
H2695 H 0.45257 0.68357 0.31606 0.0
loop_
_geom_bond_atom_site_label_1
_geom_bond_atom_site_label_2
_geom_bond_distance
_geom_bond_site_symmetry_2
_ccdc_geom_bond_type
C0 N1 1.317 . S
C0 N2 1.348 . S
C0 C3 1.485 . S
N1 C0 1.317 . S
N1 N5 1.370 . S
N2 C0 1.348 . S
N2 C4 1.346 . S
C3 C0 1.485 . S
C3 H7 0.960 . S
C3 H8 0.961 . S
C3 H9 0.960 . S
C4 N2 1.346 . S
C4 N5 1.307 . S
C4 C6 1.486 . S
N5 N1 1.370 . S
N5 C4 1.307 . S
C6 C4 1.486 . S
C6 H10 0.960 . S
C6 H11 0.960 . S
C6 H12 0.959 . S
H7 C3 0.960 . S
H8 C3 0.961 . S
H9 C3 0.960 . S
H10 C6 0.960 . S
H11 C6 0.960 . S
H12 C6 0.959 . S
C13 N14 1.317 . S
C13 N15 1.348 . S
C13 C16 1.485 . S
N14 C13 1.317 . S
N14 N18 1.370 . S
N15 C13 1.348 . S
N15 C17 1.346 . S
C16 C13 1.485 . S
C16 H20 0.960 . S
C16 H21 0.961 . S
C16 H22 0.960 . S
C17 N15 1.346 . S
C17 N18 1.307 . S
C17 C19 1.486 . S
N18 N14 1.370 . S
N18 C17 1.307 . S
C19 C17 1.486 . S
C19 H23 0.960 . S
C19 H24 0.960 . S
C19 H25 0.959 . S
H20 C16 0.960 . S
H21 C16 0.961 . S
H22 C16 0.960 . S
H23 C19 0.960 . S
H24 C19 0.960 . S
H25 C19 0.959 . S
C26 N27 1.317 . S
C26 N28 1.348 . S
C26 C29 1.485 . S
N27 C26 1.317 . S
N27 N31 1.370 . S
N28 C26 1.348 . S
N28 C30 1.346 . S
C29 C26 1.485 . S
C29 H33 0.960 . S
C29 H34 0.961 . S
C29 H35 0.960 . S
C30 N28 1.346 . S
C30 N31 1.307 . S
C30 C32 1.486 . S
N31 N27 1.370 . S
N31 C30 1.307 . S
C32 C30 1.486 . S
C32 H36 0.960 . S
C32 H37 0.960 . S
C32 H38 0.959 . S
H33 C29 0.960 . S
H34 C29 0.961 . S
H35 C29 0.960 . S
H36 C32 0.960 . S
H37 C32 0.960 . S
H38 C32 0.959 . S
C39 N40 1.317 . S
C39 N41 1.348 . S
C39 C42 1.485 . S
N40 C39 1.317 . S
N40 N44 1.370 . S
N41 C39 1.348 . S
N41 C43 1.346 . S
C42 C39 1.485 . S
C42 H46 0.960 . S
C42 H47 0.961 . S
C42 H48 0.960 . S
C43 N41 1.346 . S
C43 N44 1.307 . S
C43 C45 1.486 . S
N44 N40 1.370 . S
N44 C43 1.307 . S
C45 C43 1.486 . S
C45 H49 0.960 . S
C45 H50 0.960 . S
C45 H51 0.959 . S
H46 C42 0.960 . S
H47 C42 0.961 . S
H48 C42 0.960 . S
H49 C45 0.960 . S
H50 C45 0.960 . S
H51 C45 0.959 . S
C52 N53 1.317 . S
C52 N54 1.348 . S
C52 C55 1.485 . S
N53 C52 1.317 . S
N53 N57 1.370 . S
N54 C52 1.348 . S
N54 C56 1.346 . S
C55 C52 1.485 . S
C55 H59 0.960 . S
C55 H60 0.961 . S
C55 H61 0.960 . S
C56 N54 1.346 . S
C56 N57 1.307 . S
C56 C58 1.486 . S
N57 N53 1.370 . S
N57 C56 1.307 . S
C58 C56 1.486 . S
C58 H62 0.960 . S
C58 H63 0.960 . S
C58 H64 0.959 . S
H59 C55 0.960 . S
H60 C55 0.961 . S
H61 C55 0.960 . S
H62 C58 0.960 . S
H63 C58 0.960 . S
H64 C58 0.959 . S
C65 N66 1.317 . S
C65 N67 1.348 . S
C65 C68 1.485 . S
N66 C65 1.317 . S
N66 N70 1.370 . S
N67 C65 1.348 . S
N67 C69 1.346 . S
C68 C65 1.485 . S
C68 H72 0.960 . S
C68 H73 0.961 . S
C68 H74 0.960 . S
C69 N67 1.346 . S
C69 N70 1.307 . S
C69 C71 1.486 . S
N70 N66 1.370 . S
N70 C69 1.307 . S
C71 C69 1.486 . S
C71 H75 0.960 . S
C71 H76 0.960 . S
C71 H77 0.959 . S
H72 C68 0.960 . S
H73 C68 0.961 . S
H74 C68 0.960 . S
H75 C71 0.960 . S
H76 C71 0.960 . S
H77 C71 0.959 . S
C78 N79 1.317 . S
C78 N80 1.348 . S
C78 C81 1.485 . S
N79 C78 1.317 . S
N79 N83 1.370 . S
N80 C78 1.348 . S
N80 C82 1.346 . S
C81 C78 1.485 . S
C81 H85 0.960 . S
C81 H86 0.961 . S
C81 H87 0.960 . S
C82 N80 1.346 . S
C82 N83 1.307 . S
C82 C84 1.486 . S
N83 N79 1.370 . S
N83 C82 1.307 . S
C84 C82 1.486 . S
C84 H88 0.960 . S
C84 H89 0.960 . S
C84 H90 0.959 . S
H85 C81 0.960 . S
H86 C81 0.961 . S
H87 C81 0.960 . S
H88 C84 0.960 . S
H89 C84 0.960 . S
H90 C84 0.959 . S
C91 N92 1.317 . S
C91 N93 1.348 . S
C91 C94 1.485 . S
N92 C91 1.317 . S
N92 N96 1.370 . S
N93 C91 1.348 . S
N93 C95 1.346 . S
C94 C91 1.485 . S
C94 H98 0.960 . S
C94 H99 0.961 . S
C94 H100 0.960 . S
C95 N93 1.346 . S
C95 N96 1.307 . S
C95 C97 1.486 . S
N96 N92 1.370 . S
N96 C95 1.307 . S
C97 C95 1.486 . S
C97 H101 0.960 . S
C97 H102 0.960 . S
C97 H103 0.959 . S
H98 C94 0.960 . S
H99 C94 0.961 . S
H100 C94 0.960 . S
H101 C97 0.960 . S
H102 C97 0.960 . S
H103 C97 0.959 . S
C104 N105 1.317 . S
C104 N106 1.348 . S
C104 C107 1.485 . S
N105 C104 1.317 . S
N105 N109 1.370 . S
N106 C104 1.348 . S
N106 C108 1.346 . S
C107 C104 1.485 . S
C107 H111 0.960 . S
C107 H112 0.961 . S
C107 H113 0.960 . S
C108 N106 1.346 . S
C108 N109 1.307 . S
C108 C110 1.486 . S
N109 N105 1.370 . S
N109 C108 1.307 . S
C110 C108 1.486 . S
C110 H114 0.960 . S
C110 H115 0.960 . S
C110 H116 0.959 . S
H111 C107 0.960 . S
H112 C107 0.961 . S
H113 C107 0.960 . S
H114 C110 0.960 . S
H115 C110 0.960 . S
H116 C110 0.959 . S
C117 N118 1.317 . S
C117 N119 1.348 . S
C117 C120 1.485 . S
N118 C117 1.317 . S
N118 N122 1.370 . S
N119 C117 1.348 . S
N119 C121 1.346 . S
C120 C117 1.485 . S
C120 H124 0.960 . S
C120 H125 0.961 . S
C120 H126 0.960 . S
C121 N119 1.346 . S
C121 N122 1.307 . S
C121 C123 1.486 . S
N122 N118 1.370 . S
N122 C121 1.307 . S
C123 C121 1.486 . S
C123 H127 0.960 . S
C123 H128 0.960 . S
C123 H129 0.959 . S
H124 C120 0.960 . S
H125 C120 0.961 . S
H126 C120 0.960 . S
H127 C123 0.960 . S
H128 C123 0.960 . S
H129 C123 0.959 . S
C130 N131 1.317 . S
C130 N132 1.348 . S
C130 C133 1.485 . S
N131 C130 1.317 . S
N131 N135 1.370 . S
N132 C130 1.348 . S
N132 C134 1.346 . S
C133 C130 1.485 . S
C133 H137 0.960 . S
C133 H138 0.961 . S
C133 H139 0.960 . S
C134 N132 1.346 . S
C134 N135 1.307 . S
C134 C136 1.486 . S
N135 N131 1.370 . S
N135 C134 1.307 . S
C136 C134 1.486 . S
C136 H140 0.960 . S
C136 H141 0.960 . S
C136 H142 0.959 . S
H137 C133 0.960 . S
H138 C133 0.961 . S
H139 C133 0.960 . S
H140 C136 0.960 . S
H141 C136 0.960 . S
H142 C136 0.959 . S
C143 N144 1.317 . S
C143 N145 1.348 . S
C143 C146 1.485 . S
N144 C143 1.317 . S
N144 N148 1.370 . S
N145 C143 1.348 . S
N145 C147 1.346 . S
C146 C143 1.485 . S
C146 H150 0.960 . S
C146 H151 0.961 . S
C146 H152 0.960 . S
C147 N145 1.346 . S
C147 N148 1.307 . S
C147 C149 1.486 . S
N148 N144 1.370 . S
N148 C147 1.307 . S
C149 C147 1.486 . S
C149 H153 0.960 . S
C149 H154 0.960 . S
C149 H155 0.959 . S
H150 C146 0.960 . S
H151 C146 0.961 . S
H152 C146 0.960 . S
H153 C149 0.960 . S
H154 C149 0.960 . S
H155 C149 0.959 . S
C156 N157 1.317 . S
C156 N158 1.348 . S
C156 C159 1.485 . S
N157 C156 1.317 . S
N157 N161 1.370 . S
N158 C156 1.348 . S
N158 C160 1.346 . S
C159 C156 1.485 . S
C159 H163 0.960 . S
C159 H164 0.961 . S
C159 H165 0.960 . S
C160 N158 1.346 . S
C160 N161 1.307 . S
C160 C162 1.486 . S
N161 N157 1.370 . S
N161 C160 1.307 . S
C162 C160 1.486 . S
C162 H166 0.960 . S
C162 H167 0.960 . S
C162 H168 0.959 . S
H163 C159 0.960 . S
H164 C159 0.961 . S
H165 C159 0.960 . S
H166 C162 0.960 . S
H167 C162 0.960 . S
H168 C162 0.959 . S
C169 N170 1.317 . S
C169 N171 1.348 . S
C169 C172 1.485 . S
N170 C169 1.317 . S
N170 N174 1.370 . S
N171 C169 1.348 . S
N171 C173 1.346 . S
C172 C169 1.485 . S
C172 H176 0.960 . S
C172 H177 0.961 . S
C172 H178 0.960 . S
C173 N171 1.346 . S
C173 N174 1.307 . S
C173 C175 1.486 . S
N174 N170 1.370 . S
N174 C173 1.307 . S
C175 C173 1.486 . S
C175 H179 0.960 . S
C175 H180 0.960 . S
C175 H181 0.959 . S
H176 C172 0.960 . S
H177 C172 0.961 . S
H178 C172 0.960 . S
H179 C175 0.960 . S
H180 C175 0.960 . S
H181 C175 0.959 . S
C182 N183 1.317 . S
C182 N184 1.348 . S
C182 C185 1.485 . S
N183 C182 1.317 . S
N183 N187 1.370 . S
N184 C182 1.348 . S
N184 C186 1.346 . S
C185 C182 1.485 . S
C185 H189 0.960 . S
C185 H190 0.961 . S
C185 H191 0.960 . S
C186 N184 1.346 . S
C186 N187 1.307 . S
C186 C188 1.486 . S
N187 N183 1.370 . S
N187 C186 1.307 . S
C188 C186 1.486 . S
C188 H192 0.960 . S
C188 H193 0.960 . S
C188 H194 0.959 . S
H189 C185 0.960 . S
H190 C185 0.961 . S
H191 C185 0.960 . S
H192 C188 0.960 . S
H193 C188 0.960 . S
H194 C188 0.959 . S
C195 N196 1.317 . S
C195 N197 1.348 . S
C195 C198 1.485 . S
N196 C195 1.317 . S
N196 N200 1.370 . S
N197 C195 1.348 . S
N197 C199 1.346 . S
C198 C195 1.485 . S
C198 H202 0.960 . S
C198 H203 0.961 . S
C198 H204 0.960 . S
C199 N197 1.346 . S
C199 N200 1.307 . S
C199 C201 1.486 . S
N200 N196 1.370 . S
N200 C199 1.307 . S
C201 C199 1.486 . S
C201 H205 0.960 . S
C201 H206 0.960 . S
C201 H207 0.959 . S
H202 C198 0.960 . S
H203 C198 0.961 . S
H204 C198 0.960 . S
H205 C201 0.960 . S
H206 C201 0.960 . S
H207 C201 0.959 . S
C208 N209 1.317 . S
C208 N210 1.348 . S
C208 C211 1.485 . S
N209 C208 1.317 . S
N209 N213 1.370 . S
N210 C208 1.348 . S
N210 C212 1.346 . S
C211 C208 1.485 . S
C211 H215 0.960 . S
C211 H216 0.961 . S
C211 H217 0.960 . S
C212 N210 1.346 . S
C212 N213 1.307 . S
C212 C214 1.486 . S
N213 N209 1.370 . S
N213 C212 1.307 . S
C214 C212 1.486 . S
C214 H218 0.960 . S
C214 H219 0.960 . S
C214 H220 0.959 . S
H215 C211 0.960 . S
H216 C211 0.961 . S
H217 C211 0.960 . S
H218 C214 0.960 . S
H219 C214 0.960 . S
H220 C214 0.959 . S
C221 N222 1.317 . S
C221 N223 1.348 . S
C221 C224 1.485 . S
N222 C221 1.317 . S
N222 N226 1.370 . S
N223 C221 1.348 . S
N223 C225 1.346 . S
C224 C221 1.485 . S
C224 H228 0.960 . S
C224 H229 0.961 . S
C224 H230 0.960 . S
C225 N223 1.346 . S
C225 N226 1.307 . S
C225 C227 1.486 . S
N226 N222 1.370 . S
N226 C225 1.307 . S
C227 C225 1.486 . S
C227 H231 0.960 . S
C227 H232 0.960 . S
C227 H233 0.959 . S
H228 C224 0.960 . S
H229 C224 0.961 . S
H230 C224 0.960 . S
H231 C227 0.960 . S
H232 C227 0.960 . S
H233 C227 0.959 . S
C234 N235 1.317 . S
C234 N236 1.348 . S
C234 C237 1.485 . S
N235 C234 1.317 . S
N235 N239 1.370 . S
N236 C234 1.348 . S
N236 C238 1.346 . S
C237 C234 1.485 . S
C237 H241 0.960 . S
C237 H242 0.961 . S
C237 H243 0.960 . S
C238 N236 1.346 . S
C238 N239 1.307 . S
C238 C240 1.486 . S
N239 N235 1.370 . S
N239 C238 1.307 . S
C240 C238 1.486 . S
C240 H244 0.960 . S
C240 H245 0.960 . S
C240 H246 0.959 . S
H241 C237 0.960 . S
H242 C237 0.961 . S
H243 C237 0.960 . S
H244 C240 0.960 . S
H245 C240 0.960 . S
H246 C240 0.959 . S
C247 N248 1.317 . S
C247 N249 1.348 . S
C247 C250 1.485 . S
N248 C247 1.317 . S
N248 N252 1.370 . S
N249 C247 1.348 . S
N249 C251 1.346 . S
C250 C247 1.485 . S
C250 H254 0.960 . S
C250 H255 0.961 . S
C250 H256 0.960 . S
C251 N249 1.346 . S
C251 N252 1.307 . S
C251 C253 1.486 . S
N252 N248 1.370 . S
N252 C251 1.307 . S
C253 C251 1.486 . S
C253 H257 0.960 . S
C253 H258 0.960 . S
C253 H259 0.959 . S
H254 C250 0.960 . S
H255 C250 0.961 . S
H256 C250 0.960 . S
H257 C253 0.960 . S
H258 C253 0.960 . S
H259 C253 0.959 . S
C260 N261 1.317 . S
C260 N262 1.348 . S
C260 C263 1.485 . S
N261 C260 1.317 . S
N261 N265 1.370 . S
N262 C260 1.348 . S
N262 C264 1.346 . S
C263 C260 1.485 . S
C263 H267 0.960 . S
C263 H268 0.961 . S
C263 H269 0.960 . S
C264 N262 1.346 . S
C264 N265 1.307 . S
C264 C266 1.486 . S
N265 N261 1.370 . S
N265 C264 1.307 . S
C266 C264 1.486 . S
C266 H270 0.960 . S
C266 H271 0.960 . S
C266 H272 0.959 . S
H267 C263 0.960 . S
H268 C263 0.961 . S
H269 C263 0.960 . S
H270 C266 0.960 . S
H271 C266 0.960 . S
H272 C266 0.959 . S
C273 N274 1.317 . S
C273 N275 1.348 . S
C273 C276 1.485 . S
N274 C273 1.317 . S
N274 N278 1.370 . S
N275 C273 1.348 . S
N275 C277 1.346 . S
C276 C273 1.485 . S
C276 H280 0.960 . S
C276 H281 0.961 . S
C276 H282 0.960 . S
C277 N275 1.346 . S
C277 N278 1.307 . S
C277 C279 1.486 . S
N278 N274 1.370 . S
N278 C277 1.307 . S
C279 C277 1.486 . S
C279 H283 0.960 . S
C279 H284 0.960 . S
C279 H285 0.959 . S
H280 C276 0.960 . S
H281 C276 0.961 . S
H282 C276 0.960 . S
H283 C279 0.960 . S
H284 C279 0.960 . S
H285 C279 0.959 . S
C286 N287 1.317 . S
C286 N288 1.348 . S
C286 C289 1.485 . S
N287 C286 1.317 . S
N287 N291 1.370 . S
N288 C286 1.348 . S
N288 C290 1.346 . S
C289 C286 1.485 . S
C289 H293 0.960 . S
C289 H294 0.961 . S
C289 H295 0.960 . S
C290 N288 1.346 . S
C290 N291 1.307 . S
C290 C292 1.486 . S
N291 N287 1.370 . S
N291 C290 1.307 . S
C292 C290 1.486 . S
C292 H296 0.960 . S
C292 H297 0.960 . S
C292 H298 0.959 . S
H293 C289 0.960 . S
H294 C289 0.961 . S
H295 C289 0.960 . S
H296 C292 0.960 . S
H297 C292 0.960 . S
H298 C292 0.959 . S
C299 N300 1.317 . S
C299 N301 1.348 . S
C299 C302 1.485 . S
N300 C299 1.317 . S
N300 N304 1.370 . S
N301 C299 1.348 . S
N301 C303 1.346 . S
C302 C299 1.485 . S
C302 H306 0.960 . S
C302 H307 0.961 . S
C302 H308 0.960 . S
C303 N301 1.346 . S
C303 N304 1.307 . S
C303 C305 1.486 . S
N304 N300 1.370 . S
N304 C303 1.307 . S
C305 C303 1.486 . S
C305 H309 0.960 . S
C305 H310 0.960 . S
C305 H311 0.959 . S
H306 C302 0.960 . S
H307 C302 0.961 . S
H308 C302 0.960 . S
H309 C305 0.960 . S
H310 C305 0.960 . S
H311 C305 0.959 . S
C312 N313 1.317 . S
C312 N314 1.348 . S
C312 C315 1.485 . S
N313 C312 1.317 . S
N313 N317 1.370 . S
N314 C312 1.348 . S
N314 C316 1.346 . S
C315 C312 1.485 . S
C315 H319 0.960 . S
C315 H320 0.961 . S
C315 H321 0.960 . S
C316 N314 1.346 . S
C316 N317 1.307 . S
C316 C318 1.486 . S
N317 N313 1.370 . S
N317 C316 1.307 . S
C318 C316 1.486 . S
C318 H322 0.960 . S
C318 H323 0.960 . S
C318 H324 0.959 . S
H319 C315 0.960 . S
H320 C315 0.961 . S
H321 C315 0.960 . S
H322 C318 0.960 . S
H323 C318 0.960 . S
H324 C318 0.959 . S
C325 N326 1.317 . S
C325 N327 1.348 . S
C325 C328 1.485 . S
N326 C325 1.317 . S
N326 N330 1.370 . S
N327 C325 1.348 . S
N327 C329 1.346 . S
C328 C325 1.485 . S
C328 H332 0.960 . S
C328 H333 0.961 . S
C328 H334 0.960 . S
C329 N327 1.346 . S
C329 N330 1.307 . S
C329 C331 1.486 . S
N330 N326 1.370 . S
N330 C329 1.307 . S
C331 C329 1.486 . S
C331 H335 0.960 . S
C331 H336 0.960 . S
C331 H337 0.959 . S
H332 C328 0.960 . S
H333 C328 0.961 . S
H334 C328 0.960 . S
H335 C331 0.960 . S
H336 C331 0.960 . S
H337 C331 0.959 . S
C338 N339 1.317 . S
C338 N340 1.348 . S
C338 C341 1.485 . S
N339 C338 1.317 . S
N339 N343 1.370 . S
N340 C338 1.348 . S
N340 C342 1.346 . S
C341 C338 1.485 . S
C341 H345 0.960 . S
C341 H346 0.961 . S
C341 H347 0.960 . S
C342 N340 1.346 . S
C342 N343 1.307 . S
C342 C344 1.486 . S
N343 N339 1.370 . S
N343 C342 1.307 . S
C344 C342 1.486 . S
C344 H348 0.960 . S
C344 H349 0.960 . S
C344 H350 0.959 . S
H345 C341 0.960 . S
H346 C341 0.961 . S
H347 C341 0.960 . S
H348 C344 0.960 . S
H349 C344 0.960 . S
H350 C344 0.959 . S
C351 N352 1.317 . S
C351 N353 1.348 . S
C351 C354 1.485 . S
N352 C351 1.317 . S
N352 N356 1.370 . S
N353 C351 1.348 . S
N353 C355 1.346 . S
C354 C351 1.485 . S
C354 H358 0.960 . S
C354 H359 0.961 . S
C354 H360 0.960 . S
C355 N353 1.346 . S
C355 N356 1.307 . S
C355 C357 1.486 . S
N356 N352 1.370 . S
N356 C355 1.307 . S
C357 C355 1.486 . S
C357 H361 0.960 . S
C357 H362 0.960 . S
C357 H363 0.959 . S
H358 C354 0.960 . S
H359 C354 0.961 . S
H360 C354 0.960 . S
H361 C357 0.960 . S
H362 C357 0.960 . S
H363 C357 0.959 . S
C364 N365 1.317 . S
C364 N366 1.348 . S
C364 C367 1.485 . S
N365 C364 1.317 . S
N365 N369 1.370 . S
N366 C364 1.348 . S
N366 C368 1.346 . S
C367 C364 1.485 . S
C367 H371 0.960 . S
C367 H372 0.961 . S
C367 H373 0.960 . S
C368 N366 1.346 . S
C368 N369 1.307 . S
C368 C370 1.486 . S
N369 N365 1.370 . S
N369 C368 1.307 . S
C370 C368 1.486 . S
C370 H374 0.960 . S
C370 H375 0.960 . S
C370 H376 0.959 . S
H371 C367 0.960 . S
H372 C367 0.961 . S
H373 C367 0.960 . S
H374 C370 0.960 . S
H375 C370 0.960 . S
H376 C370 0.959 . S
C377 N378 1.317 . S
C377 N379 1.348 . S
C377 C380 1.485 . S
N378 C377 1.317 . S
N378 N382 1.370 . S
N379 C377 1.348 . S
N379 C381 1.346 . S
C380 C377 1.485 . S
C380 H384 0.960 . S
C380 H385 0.961 . S
C380 H386 0.960 . S
C381 N379 1.346 . S
C381 N382 1.307 . S
C381 C383 1.486 . S
N382 N378 1.370 . S
N382 C381 1.307 . S
C383 C381 1.486 . S
C383 H387 0.960 . S
C383 H388 0.960 . S
C383 H389 0.959 . S
H384 C380 0.960 . S
H385 C380 0.961 . S
H386 C380 0.960 . S
H387 C383 0.960 . S
H388 C383 0.960 . S
H389 C383 0.959 . S
C390 N391 1.317 . S
C390 N392 1.348 . S
C390 C393 1.485 . S
N391 C390 1.317 . S
N391 N395 1.370 . S
N392 C390 1.348 . S
N392 C394 1.346 . S
C393 C390 1.485 . S
C393 H397 0.960 . S
C393 H398 0.961 . S
C393 H399 0.960 . S
C394 N392 1.346 . S
C394 N395 1.307 . S
C394 C396 1.486 . S
N395 N391 1.370 . S
N395 C394 1.307 . S
C396 C394 1.486 . S
C396 H400 0.960 . S
C396 H401 0.960 . S
C396 H402 0.959 . S
H397 C393 0.960 . S
H398 C393 0.961 . S
H399 C393 0.960 . S
H400 C396 0.960 . S
H401 C396 0.960 . S
H402 C396 0.959 . S
C403 N404 1.317 . S
C403 N405 1.348 . S
C403 C406 1.485 . S
N404 C403 1.317 . S
N404 N408 1.370 . S
N405 C403 1.348 . S
N405 C407 1.346 . S
C406 C403 1.485 . S
C406 H410 0.960 . S
C406 H411 0.961 . S
C406 H412 0.960 . S
C407 N405 1.346 . S
C407 N408 1.307 . S
C407 C409 1.486 . S
N408 N404 1.370 . S
N408 C407 1.307 . S
C409 C407 1.486 . S
C409 H413 0.960 . S
C409 H414 0.960 . S
C409 H415 0.959 . S
H410 C406 0.960 . S
H411 C406 0.961 . S
H412 C406 0.960 . S
H413 C409 0.960 . S
H414 C409 0.960 . S
H415 C409 0.959 . S
Cu416 N417 1.999 . S
Cu416 O422 1.974 1_554 S
Cu416 N427 1.985 . S
Cu416 O436 1.959 . S
N417 Cu416 1.999 . S
N417 C419 1.263 1_554 S
N417 C421 1.389 . S
N418 C419 1.358 . S
N418 C420 1.400 . S
C419 N417 1.263 1_556 S
C419 N418 1.358 . S
C419 H425 0.930 . S
C420 N418 1.400 . S
C420 C421 1.351 1_556 S
C420 H437 0.930 . S
C421 N417 1.389 . S
C421 C420 1.351 1_554 S
C421 H426 0.930 . S
O422 Cu416 1.974 1_556 S
O422 C432 1.282 . S
C423 O424 1.261 . S
C423 O436 1.251 . S
O424 C423 1.261 . S
H425 C419 0.930 . S
H426 C421 0.930 . S
N427 Cu416 1.985 . S
N427 C429 1.335 . S
N427 C430 1.390 . S
N428 C429 1.345 . S
N428 C431 1.336 . S
C429 N427 1.335 . S
C429 N428 1.345 . S
C429 H434 0.930 . S
C430 N427 1.390 . S
C430 C431 1.346 . S
C430 H435 0.930 . S
C431 N428 1.336 . S
C431 C430 1.346 . S
C431 H438 0.929 . S
C432 O422 1.282 . S
C432 O433 1.216 . S
O433 C432 1.216 . S
H434 C429 0.930 . S
H435 C430 0.930 . S
O436 Cu416 1.959 . S
O436 C423 1.251 . S
H437 C420 0.930 . S
H438 C431 0.929 . S
Cu439 N440 1.999 . S
Cu439 O445 1.974 . S
Cu439 N450 1.985 1_554 S
Cu439 O459 1.959 1_554 S
N440 Cu439 1.999 . S
N440 C442 1.263 . S
N440 C444 1.389 . S
N441 C442 1.358 . S
N441 C443 1.400 . S
C442 N440 1.263 . S
C442 N441 1.358 . S
C442 H448 0.930 . S
C443 N441 1.400 . S
C443 C444 1.351 . S
C443 H460 0.930 . S
C444 N440 1.389 . S
C444 C443 1.351 . S
C444 H449 0.930 . S
O445 Cu439 1.974 . S
O445 C455 1.282 . S
C446 O447 1.261 . S
C446 O459 1.251 . S
O447 C446 1.261 . S
H448 C442 0.930 . S
H449 C444 0.930 . S
N450 Cu439 1.985 1_556 S
N450 C452 1.335 . S
N450 C453 1.390 1_556 S
N451 C452 1.345 . S
N451 C454 1.336 . S
C452 N450 1.335 . S
C452 N451 1.345 . S
C452 H457 0.930 . S
C453 N450 1.390 1_554 S
C453 C454 1.346 1_554 S
C453 H458 0.930 . S
C454 N451 1.336 . S
C454 C453 1.346 1_556 S
C454 H461 0.929 . S
C455 O445 1.282 . S
C455 O456 1.216 . S
O456 C455 1.216 . S
H457 C452 0.930 . S
H458 C453 0.930 . S
O459 Cu439 1.959 1_556 S
O459 C446 1.251 . S
H460 C443 0.930 . S
H461 C454 0.929 . S
Cu462 N463 1.999 1_554 S
Cu462 O468 1.974 1_554 S
Cu462 N473 1.985 . S
Cu462 O482 1.959 . S
N463 Cu462 1.999 1_556 S
N463 C465 1.263 . S
N463 C467 1.389 . S
N464 C465 1.358 . S
N464 C466 1.400 . S
C465 N463 1.263 . S
C465 N464 1.358 . S
C465 H471 0.930 . S
C466 N464 1.400 . S
C466 C467 1.351 . S
C466 H483 0.930 . S
C467 N463 1.389 . S
C467 C466 1.351 . S
C467 H472 0.930 1_556 S
O468 Cu462 1.974 1_556 S
O468 C478 1.282 . S
C469 O470 1.261 . S
C469 O482 1.251 . S
O470 C469 1.261 . S
H471 C465 0.930 . S
H472 C467 0.930 1_554 S
N473 Cu462 1.985 . S
N473 C475 1.335 . S
N473 C476 1.390 . S
N474 C475 1.345 . S
N474 C477 1.336 . S
C475 N473 1.335 . S
C475 N474 1.345 . S
C475 H480 0.930 . S
C476 N473 1.390 . S
C476 C477 1.346 . S
C476 H481 0.930 1_554 S
C477 N474 1.336 . S
C477 C476 1.346 . S
C477 H484 0.929 . S
C478 O468 1.282 . S
C478 O479 1.216 . S
O479 C478 1.216 . S
H480 C475 0.930 . S
H481 C476 0.930 1_556 S
O482 Cu462 1.959 . S
O482 C469 1.251 . S
H483 C466 0.930 . S
H484 C477 0.929 . S
Cu485 N486 1.999 . S
Cu485 O491 1.974 . S
Cu485 N496 1.985 1_554 S
Cu485 O505 1.959 1_554 S
N486 Cu485 1.999 . S
N486 C488 1.263 . S
N486 C490 1.389 . S
N487 C488 1.358 . S
N487 C489 1.400 . S
C488 N486 1.263 . S
C488 N487 1.358 . S
C488 H494 0.930 . S
C489 N487 1.400 . S
C489 C490 1.351 . S
C489 H506 0.930 . S
C490 N486 1.389 . S
C490 C489 1.351 . S
C490 H495 0.906 1_554 S
O491 Cu485 1.974 . S
O491 C501 1.282 . S
C492 O493 1.261 . S
C492 O505 1.251 . S
O493 C492 1.261 . S
H494 C488 0.930 . S
H495 C490 0.906 1_556 S
N496 Cu485 1.985 1_556 S
N496 C498 1.335 . S
N496 C499 1.390 . S
N497 C498 1.345 . S
N497 C500 1.336 . S
C498 N496 1.335 . S
C498 N497 1.345 . S
C498 H503 0.930 . S
C499 N496 1.390 . S
C499 C500 1.346 . S
C499 H504 0.930 1_556 S
C500 N497 1.336 . S
C500 C499 1.346 . S
C500 H507 0.929 . S
C501 O491 1.282 . S
C501 O502 1.216 . S
O502 C501 1.216 . S
H503 C498 0.930 . S
H504 C499 0.930 1_554 S
O505 Cu485 1.959 1_556 S
O505 C492 1.251 . S
H506 C489 0.930 . S
H507 C500 0.929 . S
Cu508 N509 1.999 . S
Cu508 O514 1.974 . S
Cu508 N519 1.985 1_455 S
Cu508 O528 1.959 1_455 S
N509 Cu508 1.999 . S
N509 C511 1.263 . S
N509 C513 1.389 . S
N510 C511 1.358 . S
N510 C512 1.400 . S
C511 N509 1.263 . S
C511 N510 1.358 . S
C511 H517 0.930 . S
C512 N510 1.400 . S
C512 C513 1.351 . S
C512 H529 0.930 . S
C513 N509 1.389 . S
C513 C512 1.351 . S
C513 H518 0.930 . S
O514 Cu508 1.974 . S
O514 C524 1.282 . S
C515 O516 1.261 . S
C515 O528 1.251 . S
O516 C515 1.261 . S
H517 C511 0.930 . S
H518 C513 0.930 . S
N519 Cu508 1.985 1_655 S
N519 C521 1.335 . S
N519 C522 1.390 1_655 S
N520 C521 1.345 . S
N520 C523 1.336 . S
C521 N519 1.335 . S
C521 N520 1.345 . S
C521 H526 0.930 . S
C522 N519 1.390 1_455 S
C522 C523 1.346 1_455 S
C522 H527 0.930 . S
C523 N520 1.336 . S
C523 C522 1.346 1_655 S
C523 H530 0.929 . S
C524 O514 1.282 . S
C524 O525 1.216 . S
O525 C524 1.216 . S
H526 C521 0.930 . S
H527 C522 0.930 . S
O528 Cu508 1.959 1_655 S
O528 C515 1.251 . S
H529 C512 0.930 . S
H530 C523 0.929 . S
Cu531 N532 2.009 . S
Cu531 O537 1.986 . S
Cu531 N542 1.975 1_545 S
Cu531 O551 1.947 1_545 S
N532 Cu531 2.009 . S
N532 C534 1.263 . S
N532 C536 1.389 . S
N533 C534 1.358 . S
N533 C535 1.400 . S
C534 N532 1.263 . S
C534 N533 1.358 . S
C534 H540 0.930 . S
C535 N533 1.400 . S
C535 C536 1.351 . S
C535 H552 0.930 . S
C536 N532 1.389 . S
C536 C535 1.351 . S
C536 H541 0.930 . S
O537 Cu531 1.986 . S
O537 C547 1.282 . S
C538 O539 1.261 . S
C538 O551 1.251 . S
O539 C538 1.261 . S
H540 C534 0.930 . S
H541 C536 0.930 . S
N542 Cu531 1.975 1_565 S
N542 C544 1.335 . S
N542 C545 1.390 . S
N543 C544 1.345 . S
N543 C546 1.336 . S
C544 N542 1.335 . S
C544 N543 1.345 . S
C544 H549 0.930 . S
C545 N542 1.390 . S
C545 C546 1.346 . S
C545 H550 0.930 . S
C546 N543 1.336 . S
C546 C545 1.346 . S
C546 H553 0.929 . S
C547 O537 1.282 . S
C547 O548 1.216 . S
O548 C547 1.216 . S
H549 C544 0.930 . S
H550 C545 0.930 . S
O551 Cu531 1.947 1_565 S
O551 C538 1.251 . S
H552 C535 0.930 . S
H553 C546 0.929 . S
Cu554 N555 1.999 1_455 S
Cu554 O560 1.974 1_455 S
Cu554 N565 1.985 . S
Cu554 O574 1.959 . S
N555 Cu554 1.999 1_655 S
N555 C557 1.263 . S
N555 C559 1.389 . S
N556 C557 1.358 . S
N556 C558 1.400 . S
C557 N555 1.263 . S
C557 N556 1.358 . S
C557 H563 0.930 . S
C558 N556 1.400 . S
C558 C559 1.351 . S
C558 H575 0.930 . S
C559 N555 1.389 . S
C559 C558 1.351 . S
C559 H564 0.907 1_655 S
O560 Cu554 1.974 1_655 S
O560 C570 1.282 . S
C561 O562 1.261 . S
C561 O574 1.251 . S
O562 C561 1.261 . S
H563 C557 0.930 . S
H564 C559 0.907 1_455 S
N565 Cu554 1.985 . S
N565 C567 1.335 . S
N565 C568 1.390 . S
N566 C567 1.345 . S
N566 C569 1.336 . S
C567 N565 1.335 . S
C567 N566 1.345 . S
C567 H572 0.930 . S
C568 N565 1.390 . S
C568 C569 1.346 . S
C568 H573 0.930 . S
C569 N566 1.336 . S
C569 C568 1.346 . S
C569 H576 0.929 . S
C570 O560 1.282 . S
C570 O571 1.216 . S
O571 C570 1.216 . S
H572 C567 0.930 . S
H573 C568 0.930 . S
O574 Cu554 1.959 . S
O574 C561 1.251 . S
H575 C558 0.930 . S
H576 C569 0.929 . S
Cu577 N578 1.999 . S
Cu577 O583 1.974 . S
Cu577 N588 1.985 1_545 S
Cu577 O597 1.959 1_545 S
N578 Cu577 1.999 . S
N578 C580 1.263 . S
N578 C582 1.389 . S
N579 C580 1.358 . S
N579 C581 1.400 . S
C580 N578 1.263 . S
C580 N579 1.358 . S
C580 H586 0.930 . S
C581 N579 1.400 . S
C581 C582 1.351 . S
C581 H598 0.930 . S
C582 N578 1.389 . S
C582 C581 1.351 . S
C582 H587 0.930 . S
O583 Cu577 1.974 . S
O583 C593 1.282 . S
C584 O585 1.261 . S
C584 O597 1.251 . S
O585 C584 1.261 . S
H586 C580 0.930 . S
H587 C582 0.930 . S
N588 Cu577 1.985 1_565 S
N588 C590 1.335 . S
N588 C591 1.390 . S
N589 C590 1.345 . S
N589 C592 1.336 . S
C590 N588 1.335 . S
C590 N589 1.345 . S
C590 H595 0.930 . S
C591 N588 1.390 . S
C591 C592 1.346 . S
C591 H596 0.930 1_565 S
C592 N589 1.336 . S
C592 C591 1.346 . S
C592 H599 0.929 . S
C593 O583 1.282 . S
C593 O594 1.216 . S
O594 C593 1.216 . S
H595 C590 0.930 . S
H596 C591 0.930 1_545 S
O597 Cu577 1.959 1_565 S
O597 C584 1.251 . S
H598 C581 0.930 . S
H599 C592 0.929 . S
Cu600 N601 1.999 . S
Cu600 O606 1.974 . S
Cu600 N611 1.985 1_455 S
Cu600 O620 1.959 1_455 S
N601 Cu600 1.999 . S
N601 C603 1.263 . S
N601 C605 1.389 . S
N602 C603 1.358 . S
N602 C604 1.400 . S
C603 N601 1.263 . S
C603 N602 1.358 . S
C603 H609 0.930 . S
C604 N602 1.400 . S
C604 C605 1.351 . S
C604 H621 0.930 . S
C605 N601 1.389 . S
C605 C604 1.351 . S
C605 H610 0.930 . S
O606 Cu600 1.974 . S
O606 C616 1.282 . S
C607 O608 1.261 . S
C607 O620 1.251 . S
O608 C607 1.261 . S
H609 C603 0.930 . S
H610 C605 0.930 . S
N611 Cu600 1.985 1_655 S
N611 C613 1.335 . S
N611 C614 1.390 1_655 S
N612 C613 1.345 . S
N612 C615 1.336 . S
C613 N611 1.335 . S
C613 N612 1.345 . S
C613 H618 0.930 . S
C614 N611 1.390 1_455 S
C614 C615 1.346 1_455 S
C614 H619 0.930 . S
C615 N612 1.336 . S
C615 C614 1.346 1_655 S
C615 H622 0.929 . S
C616 O606 1.282 . S
C616 O617 1.216 . S
O617 C616 1.216 . S
H618 C613 0.930 . S
H619 C614 0.930 . S
O620 Cu600 1.959 1_655 S
O620 C607 1.251 . S
H621 C604 0.930 . S
H622 C615 0.929 . S
Cu623 N624 1.999 . S
Cu623 O629 1.974 . S
Cu623 N634 1.985 1_545 S
Cu623 O643 1.959 1_545 S
N624 Cu623 1.999 . S
N624 C626 1.263 . S
N624 C628 1.389 . S
N625 C626 1.358 . S
N625 C627 1.400 . S
C626 N624 1.263 . S
C626 N625 1.358 . S
C626 H632 0.930 . S
C627 N625 1.400 . S
C627 C628 1.351 . S
C627 H644 0.930 . S
C628 N624 1.389 . S
C628 C627 1.351 . S
C628 H633 0.930 . S
O629 Cu623 1.974 . S
O629 C639 1.282 . S
C630 O631 1.261 . S
C630 O643 1.251 . S
O631 C630 1.261 . S
H632 C626 0.930 . S
H633 C628 0.930 . S
N634 Cu623 1.985 1_565 S
N634 C636 1.335 . S
N634 C637 1.390 . S
N635 C636 1.345 . S
N635 C638 1.336 . S
C636 N634 1.335 . S
C636 N635 1.345 . S
C636 H641 0.930 . S
C637 N634 1.390 . S
C637 C638 1.346 . S
C637 H642 0.930 . S
C638 N635 1.336 . S
C638 C637 1.346 . S
C638 H645 0.929 . S
C639 O629 1.282 . S
C639 O640 1.216 . S
O640 C639 1.216 . S
H641 C636 0.930 . S
H642 C637 0.930 . S
O643 Cu623 1.959 1_565 S
O643 C630 1.251 . S
H644 C627 0.930 . S
H645 C638 0.929 . S
Cu646 N647 1.999 . S
Cu646 O652 1.974 . S
Cu646 N657 1.985 . S
Cu646 O666 1.959 . S
N647 Cu646 1.999 . S
N647 C649 1.263 . S
N647 C651 1.389 . S
N648 C649 1.358 1_655 S
N648 C650 1.400 1_655 S
C649 N647 1.263 . S
C649 N648 1.358 1_455 S
C649 H655 0.930 1_455 S
C650 N648 1.400 1_455 S
C650 C651 1.351 . S
C650 H667 0.930 1_455 S
C651 N647 1.389 . S
C651 C650 1.351 . S
C651 H656 0.930 . S
O652 Cu646 1.974 . S
O652 C662 1.282 . S
C653 O654 1.261 . S
C653 O666 1.251 . S
O654 C653 1.261 . S
H655 C649 0.930 1_655 S
H656 C651 0.930 . S
N657 Cu646 1.985 . S
N657 C659 1.335 . S
N657 C660 1.390 . S
N658 C659 1.345 . S
N658 C661 1.336 . S
C659 N657 1.335 . S
C659 N658 1.345 . S
C659 H664 0.930 . S
C660 N657 1.390 . S
C660 C661 1.346 . S
C660 H665 0.930 . S
C661 N658 1.336 . S
C661 C660 1.346 . S
C661 H668 0.929 . S
C662 O652 1.282 . S
C662 O663 1.216 . S
O663 C662 1.216 . S
H664 C659 0.930 . S
H665 C660 0.930 . S
O666 Cu646 1.959 . S
O666 C653 1.251 . S
H667 C650 0.930 1_655 S
H668 C661 0.929 . S
Cu669 N670 1.999 . S
Cu669 O675 1.974 . S
Cu669 N680 1.985 . S
Cu669 O689 1.959 . S
N670 Cu669 1.999 . S
N670 C672 1.263 . S
N670 C674 1.389 . S
N671 C672 1.358 . S
N671 C673 1.400 . S
C672 N670 1.263 . S
C672 N671 1.358 . S
C672 H678 0.930 . S
C673 N671 1.400 . S
C673 C674 1.351 . S
C673 H690 0.930 . S
C674 N670 1.389 . S
C674 C673 1.351 . S
C674 H679 0.930 . S
O675 Cu669 1.974 . S
O675 C685 1.282 . S
C676 O677 1.261 . S
C676 O689 1.251 . S
O677 C676 1.261 . S
H678 C672 0.930 . S
H679 C674 0.930 . S
N680 Cu669 1.985 . S
N680 C682 1.335 1_545 S
N680 C683 1.390 . S
N681 C682 1.345 . S
N681 C684 1.336 . S
C682 N680 1.335 1_565 S
C682 N681 1.345 . S
C682 H687 0.930 . S
C683 N680 1.390 . S
C683 C684 1.346 1_545 S
C683 H688 0.930 . S
C684 N681 1.336 . S
C684 C683 1.346 1_565 S
C684 H691 0.929 . S
C685 O675 1.282 . S
C685 O686 1.216 . S
O686 C685 1.216 . S
H687 C682 0.930 . S
H688 C683 0.930 . S
O689 Cu669 1.959 . S
O689 C676 1.251 . S
H690 C673 0.930 . S
H691 C684 0.929 . S
Cu692 N693 1.999 . S
Cu692 O698 1.974 . S
Cu692 N703 1.985 . S
Cu692 O712 1.959 . S
N693 Cu692 1.999 . S
N693 C695 1.263 . S
N693 C697 1.389 . S
N694 C695 1.358 . S
N694 C696 1.400 . S
C695 N693 1.263 . S
C695 N694 1.358 . S
C695 H701 0.930 . S
C696 N694 1.400 . S
C696 C697 1.351 . S
C696 H713 0.930 . S
C697 N693 1.389 . S
C697 C696 1.351 . S
C697 H702 0.930 . S
O698 Cu692 1.974 . S
O698 C708 1.282 . S
C699 O700 1.261 . S
C699 O712 1.251 . S
O700 C699 1.261 . S
H701 C695 0.930 . S
H702 C697 0.930 . S
N703 Cu692 1.985 . S
N703 C705 1.335 . S
N703 C706 1.390 . S
N704 C705 1.345 . S
N704 C707 1.336 . S
C705 N703 1.335 . S
C705 N704 1.345 . S
C705 H710 0.930 . S
C706 N703 1.390 . S
C706 C707 1.346 . S
C706 H711 0.930 . S
C707 N704 1.336 . S
C707 C706 1.346 . S
C707 H714 0.929 . S
C708 O698 1.282 . S
C708 O709 1.216 . S
O709 C708 1.216 . S
H710 C705 0.930 . S
H711 C706 0.930 . S
O712 Cu692 1.959 . S
O712 C699 1.251 . S
H713 C696 0.930 . S
H714 C707 0.929 . S
Cu715 N716 1.999 . S
Cu715 O721 1.974 . S
Cu715 N726 1.985 . S
Cu715 O735 1.959 . S
N716 Cu715 1.999 . S
N716 C718 1.263 . S
N716 C720 1.389 . S
N717 C718 1.358 . S
N717 C719 1.400 . S
C718 N716 1.263 . S
C718 N717 1.358 . S
C718 H724 0.930 . S
C719 N717 1.400 . S
C719 C720 1.351 . S
C719 H736 0.930 . S
C720 N716 1.389 . S
C720 C719 1.351 . S
C720 H725 0.930 . S
O721 Cu715 1.974 . S
O721 C731 1.282 . S
C722 O723 1.261 . S
C722 O735 1.251 . S
O723 C722 1.261 . S
H724 C718 0.930 . S
H725 C720 0.930 . S
N726 Cu715 1.985 . S
N726 C728 1.335 . S
N726 C729 1.390 . S
N727 C728 1.345 . S
N727 C730 1.336 . S
C728 N726 1.335 . S
C728 N727 1.345 . S
C728 H733 0.930 . S
C729 N726 1.390 . S
C729 C730 1.346 . S
C729 H734 0.930 . S
C730 N727 1.336 . S
C730 C729 1.346 . S
C730 H737 0.929 . S
C731 O721 1.282 . S
C731 O732 1.216 . S
O732 C731 1.216 . S
H733 C728 0.930 . S
H734 C729 0.930 . S
O735 Cu715 1.959 . S
O735 C722 1.251 . S
H736 C719 0.930 . S
H737 C730 0.929 . S
Cu738 N739 1.999 . S
Cu738 O744 1.974 . S
Cu738 N749 1.985 . S
Cu738 O758 1.959 . S
N739 Cu738 1.999 . S
N739 C741 1.263 . S
N739 C743 1.389 . S
N740 C741 1.358 . S
N740 C742 1.400 . S
C741 N739 1.263 . S
C741 N740 1.358 . S
C741 H747 0.930 . S
C742 N740 1.400 . S
C742 C743 1.351 . S
C742 H759 0.930 . S
C743 N739 1.389 . S
C743 C742 1.351 . S
C743 H748 0.930 . S
O744 Cu738 1.974 . S
O744 C754 1.282 . S
C745 O746 1.261 . S
C745 O758 1.251 . S
O746 C745 1.261 . S
H747 C741 0.930 . S
H748 C743 0.930 . S
N749 Cu738 1.985 . S
N749 C751 1.335 . S
N749 C752 1.390 . S
N750 C751 1.345 . S
N750 C753 1.336 . S
C751 N749 1.335 . S
C751 N750 1.345 . S
C751 H756 0.930 . S
C752 N749 1.390 . S
C752 C753 1.346 . S
C752 H757 0.930 . S
C753 N750 1.336 . S
C753 C752 1.346 . S
C753 H760 0.929 . S
C754 O744 1.282 . S
C754 O755 1.216 . S
O755 C754 1.216 . S
H756 C751 0.930 . S
H757 C752 0.930 . S
O758 Cu738 1.959 . S
O758 C745 1.251 . S
H759 C742 0.930 . S
H760 C753 0.929 . S
Cu761 N762 1.999 . S
Cu761 O767 1.974 . S
Cu761 N772 1.985 . S
Cu761 O781 1.959 . S
N762 Cu761 1.999 . S
N762 C764 1.263 . S
N762 C766 1.389 . S
N763 C764 1.358 . S
N763 C765 1.400 . S
C764 N762 1.263 . S
C764 N763 1.358 . S
C764 H770 0.930 . S
C765 N763 1.400 . S
C765 C766 1.351 . S
C765 H782 0.930 . S
C766 N762 1.389 . S
C766 C765 1.351 . S
C766 H771 0.930 . S
O767 Cu761 1.974 . S
O767 C777 1.282 . S
C768 O769 1.261 . S
C768 O781 1.251 . S
O769 C768 1.261 . S
H770 C764 0.930 . S
H771 C766 0.930 . S
N772 Cu761 1.985 . S
N772 C774 1.335 . S
N772 C775 1.390 . S
N773 C774 1.345 . S
N773 C776 1.336 . S
C774 N772 1.335 . S
C774 N773 1.345 . S
C774 H779 0.930 . S
C775 N772 1.390 . S
C775 C776 1.346 . S
C775 H780 0.930 . S
C776 N773 1.336 . S
C776 C775 1.346 . S
C776 H783 0.929 . S
C777 O767 1.282 . S
C777 O778 1.216 . S
O778 C777 1.216 . S
H779 C774 0.930 . S
H780 C775 0.930 . S
O781 Cu761 1.959 . S
O781 C768 1.251 . S
H782 C765 0.930 . S
H783 C776 0.929 . S
Cu784 N785 1.999 . S
Cu784 O790 1.974 . S
Cu784 N795 1.985 . S
Cu784 O804 1.959 . S
N785 Cu784 1.999 . S
N785 C787 1.263 . S
N785 C789 1.389 . S
N786 C787 1.358 . S
N786 C788 1.400 . S
C787 N785 1.263 . S
C787 N786 1.358 . S
C787 H793 0.930 . S
C788 N786 1.400 . S
C788 C789 1.351 . S
C788 H805 0.930 . S
C789 N785 1.389 . S
C789 C788 1.351 . S
C789 H794 0.930 . S
O790 Cu784 1.974 . S
O790 C800 1.282 . S
C791 O792 1.261 . S
C791 O804 1.251 . S
O792 C791 1.261 . S
H793 C787 0.930 . S
H794 C789 0.930 . S
N795 Cu784 1.985 . S
N795 C797 1.335 . S
N795 C798 1.390 . S
N796 C797 1.345 . S
N796 C799 1.336 . S
C797 N795 1.335 . S
C797 N796 1.345 . S
C797 H802 0.930 . S
C798 N795 1.390 . S
C798 C799 1.346 . S
C798 H803 0.930 . S
C799 N796 1.336 . S
C799 C798 1.346 . S
C799 H806 0.929 . S
C800 O790 1.282 . S
C800 O801 1.216 . S
O801 C800 1.216 . S
H802 C797 0.930 . S
H803 C798 0.930 . S
O804 Cu784 1.959 . S
O804 C791 1.251 . S
H805 C788 0.930 . S
H806 C799 0.929 . S
Cu807 N808 1.999 . S
Cu807 O813 1.974 . S
Cu807 N818 1.985 . S
Cu807 O827 1.959 . S
N808 Cu807 1.999 . S
N808 C810 1.263 . S
N808 C812 1.389 . S
N809 C810 1.358 . S
N809 C811 1.400 . S
C810 N808 1.263 . S
C810 N809 1.358 . S
C810 H816 0.930 . S
C811 N809 1.400 . S
C811 C812 1.351 . S
C811 H828 0.930 . S
C812 N808 1.389 . S
C812 C811 1.351 . S
C812 H817 0.930 . S
O813 Cu807 1.974 . S
O813 C823 1.282 . S
C814 O815 1.261 . S
C814 O827 1.251 . S
O815 C814 1.261 . S
H816 C810 0.930 . S
H817 C812 0.930 . S
N818 Cu807 1.985 . S
N818 C820 1.335 . S
N818 C821 1.390 . S
N819 C820 1.345 . S
N819 C822 1.336 . S
C820 N818 1.335 . S
C820 N819 1.345 . S
C820 H825 0.930 . S
C821 N818 1.390 . S
C821 C822 1.346 . S
C821 H826 0.930 . S
C822 N819 1.336 . S
C822 C821 1.346 . S
C822 H829 0.929 . S
C823 O813 1.282 . S
C823 O824 1.216 . S
O824 C823 1.216 . S
H825 C820 0.930 . S
H826 C821 0.930 . S
O827 Cu807 1.959 . S
O827 C814 1.251 . S
H828 C811 0.930 . S
H829 C822 0.929 . S
Cu830 N831 1.999 . S
Cu830 O836 1.974 . S
Cu830 N841 1.985 . S
Cu830 O850 1.959 . S
N831 Cu830 1.999 . S
N831 C833 1.263 . S
N831 C835 1.389 . S
N832 C833 1.358 . S
N832 C834 1.400 . S
C833 N831 1.263 . S
C833 N832 1.358 . S
C833 H839 0.930 . S
C834 N832 1.400 . S
C834 C835 1.351 . S
C834 H851 0.930 . S
C835 N831 1.389 . S
C835 C834 1.351 . S
C835 H840 0.930 . S
O836 Cu830 1.974 . S
O836 C846 1.282 . S
C837 O838 1.261 . S
C837 O850 1.251 . S
O838 C837 1.261 . S
H839 C833 0.930 . S
H840 C835 0.930 . S
N841 Cu830 1.985 . S
N841 C843 1.335 . S
N841 C844 1.390 . S
N842 C843 1.345 . S
N842 C845 1.336 . S
C843 N841 1.335 . S
C843 N842 1.345 . S
C843 H848 0.930 . S
C844 N841 1.390 . S
C844 C845 1.346 . S
C844 H849 0.930 . S
C845 N842 1.336 . S
C845 C844 1.346 . S
C845 H852 0.929 . S
C846 O836 1.282 . S
C846 O847 1.216 . S
O847 C846 1.216 . S
H848 C843 0.930 . S
H849 C844 0.930 . S
O850 Cu830 1.959 . S
O850 C837 1.251 . S
H851 C834 0.930 . S
H852 C845 0.929 . S
Cu853 N854 1.999 . S
Cu853 O859 1.974 . S
Cu853 N864 1.985 . S
Cu853 O873 1.959 . S
N854 Cu853 1.999 . S
N854 C856 1.263 . S
N854 C858 1.389 . S
N855 C856 1.358 . S
N855 C857 1.400 . S
C856 N854 1.263 . S
C856 N855 1.358 . S
C856 H862 0.930 . S
C857 N855 1.400 . S
C857 C858 1.351 . S
C857 H874 0.930 . S
C858 N854 1.389 . S
C858 C857 1.351 . S
C858 H863 0.930 . S
O859 Cu853 1.974 . S
O859 C869 1.282 . S
C860 O861 1.261 . S
C860 O873 1.251 . S
O861 C860 1.261 . S
H862 C856 0.930 . S
H863 C858 0.930 . S
N864 Cu853 1.985 . S
N864 C866 1.335 . S
N864 C867 1.390 . S
N865 C866 1.345 . S
N865 C868 1.336 . S
C866 N864 1.335 . S
C866 N865 1.345 . S
C866 H871 0.930 . S
C867 N864 1.390 . S
C867 C868 1.346 . S
C867 H872 0.930 . S
C868 N865 1.336 . S
C868 C867 1.346 . S
C868 H875 0.929 . S
C869 O859 1.282 . S
C869 O870 1.216 . S
O870 C869 1.216 . S
H871 C866 0.930 . S
H872 C867 0.930 . S
O873 Cu853 1.959 . S
O873 C860 1.251 . S
H874 C857 0.930 . S
H875 C868 0.929 . S
Cu876 N877 1.999 . S
Cu876 O882 1.974 . S
Cu876 N887 1.985 . S
Cu876 O896 1.959 . S
N877 Cu876 1.999 . S
N877 C879 1.263 . S
N877 C881 1.389 . S
N878 C879 1.358 . S
N878 C880 1.400 . S
C879 N877 1.263 . S
C879 N878 1.358 . S
C879 H885 0.930 . S
C880 N878 1.400 . S
C880 C881 1.351 . S
C880 H897 0.930 . S
C881 N877 1.389 . S
C881 C880 1.351 . S
C881 H886 0.930 . S
O882 Cu876 1.974 . S
O882 C892 1.282 . S
C883 O884 1.261 . S
C883 O896 1.251 . S
O884 C883 1.261 . S
H885 C879 0.930 . S
H886 C881 0.930 . S
N887 Cu876 1.985 . S
N887 C889 1.335 . S
N887 C890 1.390 . S
N888 C889 1.345 . S
N888 C891 1.336 . S
C889 N887 1.335 . S
C889 N888 1.345 . S
C889 H894 0.930 . S
C890 N887 1.390 . S
C890 C891 1.346 . S
C890 H895 0.930 . S
C891 N888 1.336 . S
C891 C890 1.346 . S
C891 H898 0.929 . S
C892 O882 1.282 . S
C892 O893 1.216 . S
O893 C892 1.216 . S
H894 C889 0.930 . S
H895 C890 0.930 . S
O896 Cu876 1.959 . S
O896 C883 1.251 . S
H897 C880 0.930 . S
H898 C891 0.929 . S
Cu899 N900 1.999 . S
Cu899 O905 1.974 . S
Cu899 N910 1.985 . S
Cu899 O919 1.959 . S
N900 Cu899 1.999 . S
N900 C902 1.263 . S
N900 C904 1.389 . S
N901 C902 1.358 . S
N901 C903 1.400 . S
C902 N900 1.263 . S
C902 N901 1.358 . S
C902 H908 0.930 . S
C903 N901 1.400 . S
C903 C904 1.351 . S
C903 H920 0.930 . S
C904 N900 1.389 . S
C904 C903 1.351 . S
C904 H909 0.930 . S
O905 Cu899 1.974 . S
O905 C915 1.282 . S
C906 O907 1.261 . S
C906 O919 1.251 . S
O907 C906 1.261 . S
H908 C902 0.930 . S
H909 C904 0.930 . S
N910 Cu899 1.985 . S
N910 C912 1.335 . S
N910 C913 1.390 . S
N911 C912 1.345 . S
N911 C914 1.336 . S
C912 N910 1.335 . S
C912 N911 1.345 . S
C912 H917 0.930 . S
C913 N910 1.390 . S
C913 C914 1.346 . S
C913 H918 0.930 . S
C914 N911 1.336 . S
C914 C913 1.346 . S
C914 H921 0.929 . S
C915 O905 1.282 . S
C915 O916 1.216 . S
O916 C915 1.216 . S
H917 C912 0.930 . S
H918 C913 0.930 . S
O919 Cu899 1.959 . S
O919 C906 1.251 . S
H920 C903 0.930 . S
H921 C914 0.929 . S
Cu922 N923 1.999 . S
Cu922 O928 1.974 . S
Cu922 N933 1.985 . S
Cu922 O942 1.959 . S
N923 Cu922 1.999 . S
N923 C925 1.263 . S
N923 C927 1.389 . S
N924 C925 1.358 . S
N924 C926 1.400 . S
C925 N923 1.263 . S
C925 N924 1.358 . S
C925 H931 0.930 . S
C926 N924 1.400 . S
C926 C927 1.351 . S
C926 H943 0.930 . S
C927 N923 1.389 . S
C927 C926 1.351 . S
C927 H932 0.930 . S
O928 Cu922 1.974 . S
O928 C938 1.282 . S
C929 O930 1.261 . S
C929 O942 1.251 . S
O930 C929 1.261 . S
H931 C925 0.930 . S
H932 C927 0.930 . S
N933 Cu922 1.985 . S
N933 C935 1.335 . S
N933 C936 1.390 . S
N934 C935 1.345 . S
N934 C937 1.336 . S
C935 N933 1.335 . S
C935 N934 1.345 . S
C935 H940 0.930 . S
C936 N933 1.390 . S
C936 C937 1.346 . S
C936 H941 0.930 . S
C937 N934 1.336 . S
C937 C936 1.346 . S
C937 H944 0.929 . S
C938 O928 1.282 . S
C938 O939 1.216 . S
O939 C938 1.216 . S
H940 C935 0.930 . S
H941 C936 0.930 . S
O942 Cu922 1.959 . S
O942 C929 1.251 . S
H943 C926 0.930 . S
H944 C937 0.929 . S
Cu945 N946 1.999 . S
Cu945 O951 1.974 . S
Cu945 N956 1.985 . S
Cu945 O965 1.959 . S
N946 Cu945 1.999 . S
N946 C948 1.263 . S
N946 C950 1.389 . S
N947 C948 1.358 . S
N947 C949 1.400 . S
C948 N946 1.263 . S
C948 N947 1.358 . S
C948 H954 0.930 . S
C949 N947 1.400 . S
C949 C950 1.351 . S
C949 H966 0.930 . S
C950 N946 1.389 . S
C950 C949 1.351 . S
C950 H955 0.930 . S
O951 Cu945 1.974 . S
O951 C961 1.282 . S
C952 O953 1.261 . S
C952 O965 1.251 . S
O953 C952 1.261 . S
H954 C948 0.930 . S
H955 C950 0.930 . S
N956 Cu945 1.985 . S
N956 C958 1.335 . S
N956 C959 1.390 . S
N957 C958 1.345 . S
N957 C960 1.336 . S
C958 N956 1.335 . S
C958 N957 1.345 . S
C958 H963 0.930 . S
C959 N956 1.390 . S
C959 C960 1.346 . S
C959 H964 0.930 . S
C960 N957 1.336 . S
C960 C959 1.346 . S
C960 H967 0.929 . S
C961 O951 1.282 . S
C961 O962 1.216 . S
O962 C961 1.216 . S
H963 C958 0.930 . S
H964 C959 0.930 . S
O965 Cu945 1.959 . S
O965 C952 1.251 . S
H966 C949 0.930 . S
H967 C960 0.929 . S
C968 C969 1.363 . S
C968 C974 1.379 . S
C968 N976 1.356 . S
C969 C968 1.363 . S
C969 C975 1.363 . S
C970 C971 1.363 . S
C970 C975 1.379 . S
C970 N977 1.356 . S
C971 C970 1.363 . S
C971 C974 1.363 . S
N972 C974 1.356 . S
N972 H984 0.984 . S
N972 H985 0.985 . S
N973 C975 1.356 . S
N973 H978 0.984 . S
N973 H979 0.985 . S
C974 C968 1.379 . S
C974 C971 1.363 . S
C974 N972 1.356 . S
C975 C969 1.363 . S
C975 C970 1.379 . S
C975 N973 1.356 . S
N976 C968 1.356 . S
N976 H982 0.984 . S
N976 H983 0.984 . S
N977 C970 1.356 . S
N977 H980 0.984 . S
N977 H981 0.985 . S
H978 N973 0.984 . S
H979 N973 0.985 . S
H980 N977 0.984 . S
H981 N977 0.985 . S
H982 N976 0.984 . S
H983 N976 0.984 . S
H984 N972 0.984 . S
H985 N972 0.985 . S
C986 C987 1.363 . S
C986 C992 1.379 . S
C986 N994 1.356 . S
C987 C986 1.363 . S
C987 C993 1.363 . S
C988 C989 1.363 . S
C988 C993 1.379 . S
C988 N995 1.356 . S
C989 C988 1.363 . S
C989 C992 1.363 . S
N990 C992 1.356 . S
N990 H1002 0.984 . S
N990 H1003 0.985 . S
N991 C993 1.356 . S
N991 H996 0.984 . S
N991 H997 0.985 . S
C992 C986 1.379 . S
C992 C989 1.363 . S
C992 N990 1.356 . S
C993 C987 1.363 . S
C993 C988 1.379 . S
C993 N991 1.356 . S
N994 C986 1.356 . S
N994 H1000 0.984 . S
N994 H1001 0.984 . S
N995 C988 1.356 . S
N995 H998 0.984 . S
N995 H999 0.985 . S
H996 N991 0.984 . S
H997 N991 0.985 . S
H998 N995 0.984 . S
H999 N995 0.985 . S
H1000 N994 0.984 . S
H1001 N994 0.984 . S
H1002 N990 0.984 . S
H1003 N990 0.985 . S
C1004 C1005 1.363 . S
C1004 C1010 1.379 . S
C1004 N1012 1.356 . S
C1005 C1004 1.363 . S
C1005 C1011 1.363 . S
C1006 C1007 1.363 . S
C1006 C1011 1.379 . S
C1006 N1013 1.356 . S
C1007 C1006 1.363 . S
C1007 C1010 1.363 . S
N1008 C1010 1.356 . S
N1008 H1020 0.984 . S
N1008 H1021 0.985 . S
N1009 C1011 1.356 . S
N1009 H1014 0.984 . S
N1009 H1015 0.985 . S
C1010 C1004 1.379 . S
C1010 C1007 1.363 . S
C1010 N1008 1.356 . S
C1011 C1005 1.363 . S
C1011 C1006 1.379 . S
C1011 N1009 1.356 . S
N1012 C1004 1.356 . S
N1012 H1018 0.984 . S
N1012 H1019 0.984 . S
N1013 C1006 1.356 . S
N1013 H1016 0.984 . S
N1013 H1017 0.985 . S
H1014 N1009 0.984 . S
H1015 N1009 0.985 . S
H1016 N1013 0.984 . S
H1017 N1013 0.985 . S
H1018 N1012 0.984 . S
H1019 N1012 0.984 . S
H1020 N1008 0.984 . S
H1021 N1008 0.985 . S
C1022 C1023 1.363 . S
C1022 C1028 1.379 . S
C1022 N1030 1.356 . S
C1023 C1022 1.363 . S
C1023 C1029 1.363 . S
C1024 C1025 1.363 . S
C1024 C1029 1.379 . S
C1024 N1031 1.356 . S
C1025 C1024 1.363 . S
C1025 C1028 1.363 . S
N1026 C1028 1.356 . S
N1026 H1038 0.984 . S
N1026 H1039 0.985 . S
N1027 C1029 1.356 . S
N1027 H1032 0.984 . S
N1027 H1033 0.985 . S
C1028 C1022 1.379 . S
C1028 C1025 1.363 . S
C1028 N1026 1.356 . S
C1029 C1023 1.363 . S
C1029 C1024 1.379 . S
C1029 N1027 1.356 . S
N1030 C1022 1.356 . S
N1030 H1036 0.984 . S
N1030 H1037 0.984 . S
N1031 C1024 1.356 . S
N1031 H1034 0.984 . S
N1031 H1035 0.985 . S
H1032 N1027 0.984 . S
H1033 N1027 0.985 . S
H1034 N1031 0.984 . S
H1035 N1031 0.985 . S
H1036 N1030 0.984 . S
H1037 N1030 0.984 . S
H1038 N1026 0.984 . S
H1039 N1026 0.985 . S
C1040 C1041 1.363 . S
C1040 C1046 1.379 . S
C1040 N1048 1.356 . S
C1041 C1040 1.363 . S
C1041 C1047 1.363 . S
C1042 C1043 1.363 . S
C1042 C1047 1.379 . S
C1042 N1049 1.356 . S
C1043 C1042 1.363 . S
C1043 C1046 1.363 . S
N1044 C1046 1.356 . S
N1044 H1056 0.984 . S
N1044 H1057 0.985 . S
N1045 C1047 1.356 . S
N1045 H1050 0.984 . S
N1045 H1051 0.985 . S
C1046 C1040 1.379 . S
C1046 C1043 1.363 . S
C1046 N1044 1.356 . S
C1047 C1041 1.363 . S
C1047 C1042 1.379 . S
C1047 N1045 1.356 . S
N1048 C1040 1.356 . S
N1048 H1054 0.984 . S
N1048 H1055 0.984 . S
N1049 C1042 1.356 . S
N1049 H1052 0.984 . S
N1049 H1053 0.985 . S
H1050 N1045 0.984 . S
H1051 N1045 0.985 . S
H1052 N1049 0.984 . S
H1053 N1049 0.985 . S
H1054 N1048 0.984 . S
H1055 N1048 0.984 . S
H1056 N1044 0.984 . S
H1057 N1044 0.985 . S
C1058 C1059 1.363 . S
C1058 C1064 1.379 . S
C1058 N1066 1.356 . S
C1059 C1058 1.363 . S
C1059 C1065 1.363 . S
C1060 C1061 1.363 . S
C1060 C1065 1.379 . S
C1060 N1067 1.356 . S
C1061 C1060 1.363 . S
C1061 C1064 1.363 . S
N1062 C1064 1.356 . S
N1062 H1074 0.984 . S
N1062 H1075 0.985 . S
N1063 C1065 1.356 . S
N1063 H1068 0.984 . S
N1063 H1069 0.985 . S
C1064 C1058 1.379 . S
C1064 C1061 1.363 . S
C1064 N1062 1.356 . S
C1065 C1059 1.363 . S
C1065 C1060 1.379 . S
C1065 N1063 1.356 . S
N1066 C1058 1.356 . S
N1066 H1072 0.984 . S
N1066 H1073 0.984 . S
N1067 C1060 1.356 . S
N1067 H1070 0.984 . S
N1067 H1071 0.985 . S
H1068 N1063 0.984 . S
H1069 N1063 0.985 . S
H1070 N1067 0.984 . S
H1071 N1067 0.985 . S
H1072 N1066 0.984 . S
H1073 N1066 0.984 . S
H1074 N1062 0.984 . S
H1075 N1062 0.985 . S
C1076 C1077 1.363 . S
C1076 C1082 1.379 . S
C1076 N1084 1.356 . S
C1077 C1076 1.363 . S
C1077 C1083 1.363 . S
C1078 C1079 1.363 . S
C1078 C1083 1.379 . S
C1078 N1085 1.356 . S
C1079 C1078 1.363 . S
C1079 C1082 1.363 . S
N1080 C1082 1.356 . S
N1080 H1092 0.984 . S
N1080 H1093 0.985 . S
N1081 C1083 1.356 . S
N1081 H1086 0.984 . S
N1081 H1087 0.985 . S
C1082 C1076 1.379 . S
C1082 C1079 1.363 . S
C1082 N1080 1.356 . S
C1083 C1077 1.363 . S
C1083 C1078 1.379 . S
C1083 N1081 1.356 . S
N1084 C1076 1.356 . S
N1084 H1090 0.984 . S
N1084 H1091 0.984 . S
N1085 C1078 1.356 . S
N1085 H1088 0.984 . S
N1085 H1089 0.985 . S
H1086 N1081 0.984 . S
H1087 N1081 0.985 . S
H1088 N1085 0.984 . S
H1089 N1085 0.985 . S
H1090 N1084 0.984 . S
H1091 N1084 0.984 . S
H1092 N1080 0.984 . S
H1093 N1080 0.985 . S
C1094 C1095 1.363 . S
C1094 C1100 1.379 . S
C1094 N1102 1.356 . S
C1095 C1094 1.363 . S
C1095 C1101 1.363 . S
C1096 C1097 1.363 . S
C1096 C1101 1.379 . S
C1096 N1103 1.356 . S
C1097 C1096 1.363 . S
C1097 C1100 1.363 . S
N1098 C1100 1.356 . S
N1098 H1110 0.984 . S
N1098 H1111 0.985 . S
N1099 C1101 1.356 . S
N1099 H1104 0.984 . S
N1099 H1105 0.985 . S
C1100 C1094 1.379 . S
C1100 C1097 1.363 . S
C1100 N1098 1.356 . S
C1101 C1095 1.363 . S
C1101 C1096 1.379 . S
C1101 N1099 1.356 . S
N1102 C1094 1.356 . S
N1102 H1108 0.984 . S
N1102 H1109 0.984 . S
N1103 C1096 1.356 . S
N1103 H1106 0.984 . S
N1103 H1107 0.985 . S
H1104 N1099 0.984 . S
H1105 N1099 0.985 . S
H1106 N1103 0.984 . S
H1107 N1103 0.985 . S
H1108 N1102 0.984 . S
H1109 N1102 0.984 . S
H1110 N1098 0.984 . S
H1111 N1098 0.985 . S
C1112 C1113 1.363 . S
C1112 C1118 1.379 . S
C1112 N1120 1.356 . S
C1113 C1112 1.363 . S
C1113 C1119 1.363 . S
C1114 C1115 1.363 . S
C1114 C1119 1.379 . S
C1114 N1121 1.356 . S
C1115 C1114 1.363 . S
C1115 C1118 1.363 . S
N1116 C1118 1.356 . S
N1116 H1128 0.984 . S
N1116 H1129 0.985 . S
N1117 C1119 1.356 . S
N1117 H1122 0.984 . S
N1117 H1123 0.985 . S
C1118 C1112 1.379 . S
C1118 C1115 1.363 . S
C1118 N1116 1.356 . S
C1119 C1113 1.363 . S
C1119 C1114 1.379 . S
C1119 N1117 1.356 . S
N1120 C1112 1.356 . S
N1120 H1126 0.984 . S
N1120 H1127 0.984 . S
N1121 C1114 1.356 . S
N1121 H1124 0.984 . S
N1121 H1125 0.985 . S
H1122 N1117 0.984 . S
H1123 N1117 0.985 . S
H1124 N1121 0.984 . S
H1125 N1121 0.985 . S
H1126 N1120 0.984 . S
H1127 N1120 0.984 . S
H1128 N1116 0.984 . S
H1129 N1116 0.985 . S
C1130 C1131 1.363 . S
C1130 C1136 1.379 . S
C1130 N1138 1.356 . S
C1131 C1130 1.363 . S
C1131 C1137 1.363 . S
C1132 C1133 1.363 . S
C1132 C1137 1.379 . S
C1132 N1139 1.356 . S
C1133 C1132 1.363 . S
C1133 C1136 1.363 . S
N1134 C1136 1.356 . S
N1134 H1146 0.984 . S
N1134 H1147 0.985 . S
N1135 C1137 1.356 . S
N1135 H1140 0.984 . S
N1135 H1141 0.985 . S
C1136 C1130 1.379 . S
C1136 C1133 1.363 . S
C1136 N1134 1.356 . S
C1137 C1131 1.363 . S
C1137 C1132 1.379 . S
C1137 N1135 1.356 . S
N1138 C1130 1.356 . S
N1138 H1144 0.984 . S
N1138 H1145 0.984 . S
N1139 C1132 1.356 . S
N1139 H1142 0.984 . S
N1139 H1143 0.985 . S
H1140 N1135 0.984 . S
H1141 N1135 0.985 . S
H1142 N1139 0.984 . S
H1143 N1139 0.985 . S
H1144 N1138 0.984 . S
H1145 N1138 0.984 . S
H1146 N1134 0.984 . S
H1147 N1134 0.985 . S
C1148 C1149 1.363 . S
C1148 C1154 1.379 . S
C1148 N1156 1.356 . S
C1149 C1148 1.363 . S
C1149 C1155 1.363 . S
C1150 C1151 1.363 . S
C1150 C1155 1.379 . S
C1150 N1157 1.356 . S
C1151 C1150 1.363 . S
C1151 C1154 1.363 . S
N1152 C1154 1.356 . S
N1152 H1164 0.984 . S
N1152 H1165 0.985 . S
N1153 C1155 1.356 . S
N1153 H1158 0.984 . S
N1153 H1159 0.985 . S
C1154 C1148 1.379 . S
C1154 C1151 1.363 . S
C1154 N1152 1.356 . S
C1155 C1149 1.363 . S
C1155 C1150 1.379 . S
C1155 N1153 1.356 . S
N1156 C1148 1.356 . S
N1156 H1162 0.984 . S
N1156 H1163 0.984 . S
N1157 C1150 1.356 . S
N1157 H1160 0.984 . S
N1157 H1161 0.985 . S
H1158 N1153 0.984 . S
H1159 N1153 0.985 . S
H1160 N1157 0.984 . S
H1161 N1157 0.985 . S
H1162 N1156 0.984 . S
H1163 N1156 0.984 . S
H1164 N1152 0.984 . S
H1165 N1152 0.985 . S
C1166 C1167 1.363 . S
C1166 C1172 1.379 . S
C1166 N1174 1.356 . S
C1167 C1166 1.363 . S
C1167 C1173 1.363 . S
C1168 C1169 1.363 . S
C1168 C1173 1.379 . S
C1168 N1175 1.356 . S
C1169 C1168 1.363 . S
C1169 C1172 1.363 . S
N1170 C1172 1.356 . S
N1170 H1182 0.984 . S
N1170 H1183 0.985 . S
N1171 C1173 1.356 . S
N1171 H1176 0.984 . S
N1171 H1177 0.985 . S
C1172 C1166 1.379 . S
C1172 C1169 1.363 . S
C1172 N1170 1.356 . S
C1173 C1167 1.363 . S
C1173 C1168 1.379 . S
C1173 N1171 1.356 . S
N1174 C1166 1.356 . S
N1174 H1180 0.984 . S
N1174 H1181 0.984 . S
N1175 C1168 1.356 . S
N1175 H1178 0.984 . S
N1175 H1179 0.985 . S
H1176 N1171 0.984 . S
H1177 N1171 0.985 . S
H1178 N1175 0.984 . S
H1179 N1175 0.985 . S
H1180 N1174 0.984 . S
H1181 N1174 0.984 . S
H1182 N1170 0.984 . S
H1183 N1170 0.985 . S
C1184 C1185 1.363 . S
C1184 C1190 1.379 . S
C1184 N1192 1.356 . S
C1185 C1184 1.363 . S
C1185 C1191 1.363 . S
C1186 C1187 1.363 . S
C1186 C1191 1.379 . S
C1186 N1193 1.356 . S
C1187 C1186 1.363 . S
C1187 C1190 1.363 . S
N1188 C1190 1.356 . S
N1188 H1200 0.984 . S
N1188 H1201 0.985 . S
N1189 C1191 1.356 . S
N1189 H1194 0.984 . S
N1189 H1195 0.985 . S
C1190 C1184 1.379 . S
C1190 C1187 1.363 . S
C1190 N1188 1.356 . S
C1191 C1185 1.363 . S
C1191 C1186 1.379 . S
C1191 N1189 1.356 . S
N1192 C1184 1.356 . S
N1192 H1198 0.984 . S
N1192 H1199 0.984 . S
N1193 C1186 1.356 . S
N1193 H1196 0.984 . S
N1193 H1197 0.985 . S
H1194 N1189 0.984 . S
H1195 N1189 0.985 . S
H1196 N1193 0.984 . S
H1197 N1193 0.985 . S
H1198 N1192 0.984 . S
H1199 N1192 0.984 . S
H1200 N1188 0.984 . S
H1201 N1188 0.985 . S
C1202 C1203 1.363 . S
C1202 C1208 1.379 . S
C1202 N1210 1.356 . S
C1203 C1202 1.363 . S
C1203 C1209 1.363 . S
C1204 C1205 1.363 . S
C1204 C1209 1.379 . S
C1204 N1211 1.356 . S
C1205 C1204 1.363 . S
C1205 C1208 1.363 . S
N1206 C1208 1.356 . S
N1206 H1218 0.984 . S
N1206 H1219 0.985 . S
N1207 C1209 1.356 . S
N1207 H1212 0.984 . S
N1207 H1213 0.985 . S
C1208 C1202 1.379 . S
C1208 C1205 1.363 . S
C1208 N1206 1.356 . S
C1209 C1203 1.363 . S
C1209 C1204 1.379 . S
C1209 N1207 1.356 . S
N1210 C1202 1.356 . S
N1210 H1216 0.984 . S
N1210 H1217 0.984 . S
N1211 C1204 1.356 . S
N1211 H1214 0.984 . S
N1211 H1215 0.985 . S
H1212 N1207 0.984 . S
H1213 N1207 0.985 . S
H1214 N1211 0.984 . S
H1215 N1211 0.985 . S
H1216 N1210 0.984 . S
H1217 N1210 0.984 . S
H1218 N1206 0.984 . S
H1219 N1206 0.985 . S
C1220 C1221 1.363 . S
C1220 C1226 1.379 . S
C1220 N1228 1.356 . S
C1221 C1220 1.363 . S
C1221 C1227 1.363 . S
C1222 C1223 1.363 . S
C1222 C1227 1.379 . S
C1222 N1229 1.356 . S
C1223 C1222 1.363 . S
C1223 C1226 1.363 . S
N1224 C1226 1.356 1_455 S
N1224 H1236 0.984 . S
N1224 H1237 0.985 . S
N1225 C1227 1.356 . S
N1225 H1230 0.984 . S
N1225 H1231 0.985 . S
C1226 C1220 1.379 . S
C1226 C1223 1.363 . S
C1226 N1224 1.356 1_655 S
C1227 C1221 1.363 . S
C1227 C1222 1.379 . S
C1227 N1225 1.356 . S
N1228 C1220 1.356 . S
N1228 H1234 0.984 . S
N1228 H1235 0.984 . S
N1229 C1222 1.356 . S
N1229 H1232 0.984 . S
N1229 H1233 0.985 . S
H1230 N1225 0.984 . S
H1231 N1225 0.985 . S
H1232 N1229 0.984 . S
H1233 N1229 0.985 . S
H1234 N1228 0.984 . S
H1235 N1228 0.984 . S
H1236 N1224 0.984 . S
H1237 N1224 0.985 . S
C1238 C1239 1.363 . S
C1238 C1244 1.379 . S
C1238 N1246 1.356 . S
C1239 C1238 1.363 . S
C1239 C1245 1.363 . S
C1240 C1241 1.363 . S
C1240 C1245 1.379 . S
C1240 N1247 1.356 . S
C1241 C1240 1.363 . S
C1241 C1244 1.363 . S
N1242 C1244 1.356 . S
N1242 H1254 0.984 . S
N1242 H1255 0.985 . S
N1243 C1245 1.356 . S
N1243 H1248 0.984 . S
N1243 H1249 0.985 . S
C1244 C1238 1.379 . S
C1244 C1241 1.363 . S
C1244 N1242 1.356 . S
C1245 C1239 1.363 . S
C1245 C1240 1.379 . S
C1245 N1243 1.356 . S
N1246 C1238 1.356 . S
N1246 H1252 0.984 . S
N1246 H1253 0.984 . S
N1247 C1240 1.356 . S
N1247 H1250 0.984 1_565 S
N1247 H1251 0.985 1_565 S
H1248 N1243 0.984 . S
H1249 N1243 0.985 . S
H1250 N1247 0.984 1_545 S
H1251 N1247 0.985 1_545 S
H1252 N1246 0.984 . S
H1253 N1246 0.984 . S
H1254 N1242 0.984 . S
H1255 N1242 0.985 . S
C1256 C1257 1.363 . S
C1256 C1262 1.379 . S
C1256 N1264 1.356 . S
C1257 C1256 1.363 . S
C1257 C1263 1.363 . S
C1258 C1259 1.363 . S
C1258 C1263 1.379 . S
C1258 N1265 1.356 . S
C1259 C1258 1.363 . S
C1259 C1262 1.363 . S
N1260 C1262 1.356 . S
N1260 H1272 0.984 . S
N1260 H1273 0.985 . S
N1261 C1263 1.356 . S
N1261 H1266 0.984 . S
N1261 H1267 0.985 . S
C1262 C1256 1.379 . S
C1262 C1259 1.363 . S
C1262 N1260 1.356 . S
C1263 C1257 1.363 . S
C1263 C1258 1.379 . S
C1263 N1261 1.356 . S
N1264 C1256 1.356 . S
N1264 H1270 0.984 . S
N1264 H1271 0.984 . S
N1265 C1258 1.356 . S
N1265 H1268 0.984 . S
N1265 H1269 0.985 . S
H1266 N1261 0.984 . S
H1267 N1261 0.985 . S
H1268 N1265 0.984 . S
H1269 N1265 0.985 . S
H1270 N1264 0.984 . S
H1271 N1264 0.984 . S
H1272 N1260 0.984 . S
H1273 N1260 0.985 . S
C1274 C1275 1.363 . S
C1274 C1280 1.379 . S
C1274 N1282 1.356 . S
C1275 C1274 1.363 . S
C1275 C1281 1.363 . S
C1276 C1277 1.363 . S
C1276 C1281 1.379 . S
C1276 N1283 1.356 . S
C1277 C1276 1.363 . S
C1277 C1280 1.363 . S
N1278 C1280 1.356 . S
N1278 H1290 0.984 . S
N1278 H1291 0.985 . S
N1279 C1281 1.356 . S
N1279 H1284 0.984 . S
N1279 H1285 0.985 . S
C1280 C1274 1.379 . S
C1280 C1277 1.363 . S
C1280 N1278 1.356 . S
C1281 C1275 1.363 . S
C1281 C1276 1.379 . S
C1281 N1279 1.356 . S
N1282 C1274 1.356 . S
N1282 H1288 0.984 . S
N1282 H1289 0.984 . S
N1283 C1276 1.356 . S
N1283 H1286 0.984 . S
N1283 H1287 0.985 . S
H1284 N1279 0.984 . S
H1285 N1279 0.985 . S
H1286 N1283 0.984 . S
H1287 N1283 0.985 . S
H1288 N1282 0.984 . S
H1289 N1282 0.984 . S
H1290 N1278 0.984 . S
H1291 N1278 0.985 . S
C1292 C1293 1.363 . S
C1292 C1298 1.379 . S
C1292 N1300 1.356 . S
C1293 C1292 1.363 . S
C1293 C1299 1.363 . S
C1294 C1295 1.363 . S
C1294 C1299 1.379 . S
C1294 N1301 1.356 . S
C1295 C1294 1.363 . S
C1295 C1298 1.363 . S
N1296 C1298 1.356 . S
N1296 H1308 0.984 . S
N1296 H1309 0.985 . S
N1297 C1299 1.356 . S
N1297 H1302 0.984 . S
N1297 H1303 0.985 . S
C1298 C1292 1.379 . S
C1298 C1295 1.363 . S
C1298 N1296 1.356 . S
C1299 C1293 1.363 . S
C1299 C1294 1.379 . S
C1299 N1297 1.356 . S
N1300 C1292 1.356 . S
N1300 H1306 0.984 . S
N1300 H1307 0.984 . S
N1301 C1294 1.356 . S
N1301 H1304 0.984 . S
N1301 H1305 0.985 . S
H1302 N1297 0.984 . S
H1303 N1297 0.985 . S
H1304 N1301 0.984 . S
H1305 N1301 0.985 . S
H1306 N1300 0.984 . S
H1307 N1300 0.984 . S
H1308 N1296 0.984 . S
H1309 N1296 0.985 . S
C1310 C1311 1.363 . S
C1310 C1316 1.379 . S
C1310 N1318 1.356 . S
C1311 C1310 1.363 . S
C1311 C1317 1.363 . S
C1312 C1313 1.363 . S
C1312 C1317 1.379 . S
C1312 N1319 1.356 . S
C1313 C1312 1.363 . S
C1313 C1316 1.363 . S
N1314 C1316 1.356 . S
N1314 H1326 0.984 . S
N1314 H1327 0.985 . S
N1315 C1317 1.356 . S
N1315 H1320 0.984 . S
N1315 H1321 0.985 . S
C1316 C1310 1.379 . S
C1316 C1313 1.363 . S
C1316 N1314 1.356 . S
C1317 C1311 1.363 . S
C1317 C1312 1.379 . S
C1317 N1315 1.356 . S
N1318 C1310 1.356 . S
N1318 H1324 0.984 . S
N1318 H1325 0.984 . S
N1319 C1312 1.356 . S
N1319 H1322 0.984 . S
N1319 H1323 0.985 . S
H1320 N1315 0.984 . S
H1321 N1315 0.985 . S
H1322 N1319 0.984 . S
H1323 N1319 0.985 . S
H1324 N1318 0.984 . S
H1325 N1318 0.984 . S
H1326 N1314 0.984 . S
H1327 N1314 0.985 . S
C1328 C1329 1.363 . S
C1328 C1334 1.379 . S
C1328 N1336 1.356 . S
C1329 C1328 1.363 . S
C1329 C1335 1.363 . S
C1330 C1331 1.363 . S
C1330 C1335 1.379 . S
C1330 N1337 1.356 . S
C1331 C1330 1.363 . S
C1331 C1334 1.363 . S
N1332 C1334 1.356 . S
N1332 H1344 0.984 . S
N1332 H1345 0.985 . S
N1333 C1335 1.356 . S
N1333 H1338 0.984 . S
N1333 H1339 0.985 . S
C1334 C1328 1.379 . S
C1334 C1331 1.363 . S
C1334 N1332 1.356 . S
C1335 C1329 1.363 . S
C1335 C1330 1.379 . S
C1335 N1333 1.356 . S
N1336 C1328 1.356 . S
N1336 H1342 0.984 . S
N1336 H1343 0.984 . S
N1337 C1330 1.356 . S
N1337 H1340 0.984 . S
N1337 H1341 0.985 . S
H1338 N1333 0.984 . S
H1339 N1333 0.985 . S
H1340 N1337 0.984 . S
H1341 N1337 0.985 . S
H1342 N1336 0.984 . S
H1343 N1336 0.984 . S
H1344 N1332 0.984 . S
H1345 N1332 0.985 . S
C1346 C1347 1.363 . S
C1346 C1352 1.379 . S
C1346 N1354 1.356 . S
C1347 C1346 1.363 . S
C1347 C1353 1.363 . S
C1348 C1349 1.363 . S
C1348 C1353 1.379 . S
C1348 N1355 1.356 . S
C1349 C1348 1.363 . S
C1349 C1352 1.363 . S
N1350 C1352 1.356 . S
N1350 H1362 0.984 . S
N1350 H1363 0.985 . S
N1351 C1353 1.356 . S
N1351 H1356 0.984 . S
N1351 H1357 0.985 . S
C1352 C1346 1.379 . S
C1352 C1349 1.363 . S
C1352 N1350 1.356 . S
C1353 C1347 1.363 . S
C1353 C1348 1.379 . S
C1353 N1351 1.356 . S
N1354 C1346 1.356 . S
N1354 H1360 0.984 . S
N1354 H1361 0.984 . S
N1355 C1348 1.356 . S
N1355 H1358 0.984 . S
N1355 H1359 0.985 . S
H1356 N1351 0.984 . S
H1357 N1351 0.985 . S
H1358 N1355 0.984 . S
H1359 N1355 0.985 . S
H1360 N1354 0.984 . S
H1361 N1354 0.984 . S
H1362 N1350 0.984 . S
H1363 N1350 0.985 . S
C1364 C1365 1.363 . S
C1364 C1370 1.379 . S
C1364 N1372 1.356 . S
C1365 C1364 1.363 . S
C1365 C1371 1.363 . S
C1366 C1367 1.363 . S
C1366 C1371 1.379 . S
C1366 N1373 1.356 . S
C1367 C1366 1.363 . S
C1367 C1370 1.363 . S
N1368 C1370 1.356 . S
N1368 H1380 0.984 . S
N1368 H1381 0.985 . S
N1369 C1371 1.356 . S
N1369 H1374 0.984 . S
N1369 H1375 0.985 . S
C1370 C1364 1.379 . S
C1370 C1367 1.363 . S
C1370 N1368 1.356 . S
C1371 C1365 1.363 . S
C1371 C1366 1.379 . S
C1371 N1369 1.356 . S
N1372 C1364 1.356 . S
N1372 H1378 0.984 . S
N1372 H1379 0.984 . S
N1373 C1366 1.356 . S
N1373 H1376 0.984 . S
N1373 H1377 0.985 . S
H1374 N1369 0.984 . S
H1375 N1369 0.985 . S
H1376 N1373 0.984 . S
H1377 N1373 0.985 . S
H1378 N1372 0.984 . S
H1379 N1372 0.984 . S
H1380 N1368 0.984 . S
H1381 N1368 0.985 . S
C1382 C1383 1.363 . S
C1382 C1388 1.379 . S
C1382 N1390 1.356 . S
C1383 C1382 1.363 . S
C1383 C1389 1.363 . S
C1384 C1385 1.363 . S
C1384 C1389 1.379 . S
C1384 N1391 1.356 . S
C1385 C1384 1.363 . S
C1385 C1388 1.363 . S
N1386 C1388 1.356 . S
N1386 H1398 0.984 . S
N1386 H1399 0.985 . S
N1387 C1389 1.356 . S
N1387 H1392 0.984 . S
N1387 H1393 0.985 . S
C1388 C1382 1.379 . S
C1388 C1385 1.363 . S
C1388 N1386 1.356 . S
C1389 C1383 1.363 . S
C1389 C1384 1.379 . S
C1389 N1387 1.356 . S
N1390 C1382 1.356 . S
N1390 H1396 0.984 . S
N1390 H1397 0.984 . S
N1391 C1384 1.356 . S
N1391 H1394 0.984 . S
N1391 H1395 0.985 . S
H1392 N1387 0.984 . S
H1393 N1387 0.985 . S
H1394 N1391 0.984 . S
H1395 N1391 0.985 . S
H1396 N1390 0.984 . S
H1397 N1390 0.984 . S
H1398 N1386 0.984 . S
H1399 N1386 0.985 . S
C1400 C1401 1.363 . S
C1400 C1406 1.379 . S
C1400 N1408 1.356 . S
C1401 C1400 1.363 . S
C1401 C1407 1.363 . S
C1402 C1403 1.363 . S
C1402 C1407 1.379 . S
C1402 N1409 1.356 . S
C1403 C1402 1.363 . S
C1403 C1406 1.363 . S
N1404 C1406 1.356 . S
N1404 H1416 0.984 . S
N1404 H1417 0.985 . S
N1405 C1407 1.356 . S
N1405 H1410 0.984 . S
N1405 H1411 0.985 . S
C1406 C1400 1.379 . S
C1406 C1403 1.363 . S
C1406 N1404 1.356 . S
C1407 C1401 1.363 . S
C1407 C1402 1.379 . S
C1407 N1405 1.356 . S
N1408 C1400 1.356 . S
N1408 H1414 0.984 . S
N1408 H1415 0.984 . S
N1409 C1402 1.356 . S
N1409 H1412 0.984 . S
N1409 H1413 0.985 . S
H1410 N1405 0.984 . S
H1411 N1405 0.985 . S
H1412 N1409 0.984 . S
H1413 N1409 0.985 . S
H1414 N1408 0.984 . S
H1415 N1408 0.984 . S
H1416 N1404 0.984 . S
H1417 N1404 0.985 . S
C1418 C1419 1.363 . S
C1418 C1424 1.379 . S
C1418 N1426 1.356 . S
C1419 C1418 1.363 . S
C1419 C1425 1.363 . S
C1420 C1421 1.363 . S
C1420 C1425 1.379 . S
C1420 N1427 1.356 . S
C1421 C1420 1.363 . S
C1421 C1424 1.363 . S
N1422 C1424 1.356 . S
N1422 H1434 0.984 . S
N1422 H1435 0.985 . S
N1423 C1425 1.356 . S
N1423 H1428 0.984 . S
N1423 H1429 0.985 . S
C1424 C1418 1.379 . S
C1424 C1421 1.363 . S
C1424 N1422 1.356 . S
C1425 C1419 1.363 . S
C1425 C1420 1.379 . S
C1425 N1423 1.356 . S
N1426 C1418 1.356 . S
N1426 H1432 0.984 . S
N1426 H1433 0.984 . S
N1427 C1420 1.356 . S
N1427 H1430 0.984 . S
N1427 H1431 0.985 . S
H1428 N1423 0.984 . S
H1429 N1423 0.985 . S
H1430 N1427 0.984 . S
H1431 N1427 0.985 . S
H1432 N1426 0.984 . S
H1433 N1426 0.984 . S
H1434 N1422 0.984 . S
H1435 N1422 0.985 . S
C1436 C1437 1.363 . S
C1436 C1442 1.379 . S
C1436 N1444 1.356 . S
C1437 C1436 1.363 . S
C1437 C1443 1.363 . S
C1438 C1439 1.363 . S
C1438 C1443 1.379 . S
C1438 N1445 1.356 . S
C1439 C1438 1.363 . S
C1439 C1442 1.363 . S
N1440 C1442 1.356 . S
N1440 H1452 0.984 . S
N1440 H1453 0.985 . S
N1441 C1443 1.356 . S
N1441 H1446 0.984 . S
N1441 H1447 0.985 . S
C1442 C1436 1.379 . S
C1442 C1439 1.363 . S
C1442 N1440 1.356 . S
C1443 C1437 1.363 . S
C1443 C1438 1.379 . S
C1443 N1441 1.356 . S
N1444 C1436 1.356 . S
N1444 H1450 0.984 . S
N1444 H1451 0.984 . S
N1445 C1438 1.356 . S
N1445 H1448 0.984 . S
N1445 H1449 0.985 . S
H1446 N1441 0.984 . S
H1447 N1441 0.985 . S
H1448 N1445 0.984 . S
H1449 N1445 0.985 . S
H1450 N1444 0.984 . S
H1451 N1444 0.984 . S
H1452 N1440 0.984 . S
H1453 N1440 0.985 . S
C1454 C1455 1.363 . S
C1454 C1460 1.379 . S
C1454 N1462 1.356 . S
C1455 C1454 1.363 . S
C1455 C1461 1.363 . S
C1456 C1457 1.363 . S
C1456 C1461 1.379 . S
C1456 N1463 1.356 . S
C1457 C1456 1.363 . S
C1457 C1460 1.363 . S
N1458 C1460 1.356 . S
N1458 H1470 0.984 . S
N1458 H1471 0.985 . S
N1459 C1461 1.356 . S
N1459 H1464 0.984 . S
N1459 H1465 0.985 . S
C1460 C1454 1.379 . S
C1460 C1457 1.363 . S
C1460 N1458 1.356 . S
C1461 C1455 1.363 . S
C1461 C1456 1.379 . S
C1461 N1459 1.356 . S
N1462 C1454 1.356 . S
N1462 H1468 0.984 . S
N1462 H1469 0.984 . S
N1463 C1456 1.356 . S
N1463 H1466 0.984 . S
N1463 H1467 0.985 . S
H1464 N1459 0.984 . S
H1465 N1459 0.985 . S
H1466 N1463 0.984 . S
H1467 N1463 0.985 . S
H1468 N1462 0.984 . S
H1469 N1462 0.984 . S
H1470 N1458 0.984 . S
H1471 N1458 0.985 . S
C1472 C1473 1.363 . S
C1472 C1478 1.379 . S
C1472 N1480 1.356 . S
C1473 C1472 1.363 . S
C1473 C1479 1.363 . S
C1474 C1475 1.363 . S
C1474 C1479 1.379 . S
C1474 N1481 1.356 . S
C1475 C1474 1.363 . S
C1475 C1478 1.363 . S
N1476 C1478 1.356 . S
N1476 H1488 0.984 . S
N1476 H1489 0.985 . S
N1477 C1479 1.356 . S
N1477 H1482 0.984 . S
N1477 H1483 0.985 . S
C1478 C1472 1.379 . S
C1478 C1475 1.363 . S
C1478 N1476 1.356 . S
C1479 C1473 1.363 . S
C1479 C1474 1.379 . S
C1479 N1477 1.356 . S
N1480 C1472 1.356 . S
N1480 H1486 0.984 . S
N1480 H1487 0.984 . S
N1481 C1474 1.356 . S
N1481 H1484 0.984 . S
N1481 H1485 0.985 . S
H1482 N1477 0.984 . S
H1483 N1477 0.985 . S
H1484 N1481 0.984 . S
H1485 N1481 0.985 . S
H1486 N1480 0.984 . S
H1487 N1480 0.984 . S
H1488 N1476 0.984 . S
H1489 N1476 0.985 . S
C1490 C1491 1.363 . S
C1490 C1496 1.379 . S
C1490 N1498 1.356 . S
C1491 C1490 1.363 . S
C1491 C1497 1.363 . S
C1492 C1493 1.363 . S
C1492 C1497 1.379 . S
C1492 N1499 1.356 . S
C1493 C1492 1.363 . S
C1493 C1496 1.363 . S
N1494 C1496 1.356 . S
N1494 H1506 0.984 . S
N1494 H1507 0.985 . S
N1495 C1497 1.356 . S
N1495 H1500 0.984 . S
N1495 H1501 0.985 . S
C1496 C1490 1.379 . S
C1496 C1493 1.363 . S
C1496 N1494 1.356 . S
C1497 C1491 1.363 . S
C1497 C1492 1.379 . S
C1497 N1495 1.356 . S
N1498 C1490 1.356 . S
N1498 H1504 0.984 . S
N1498 H1505 0.984 . S
N1499 C1492 1.356 . S
N1499 H1502 0.984 . S
N1499 H1503 0.985 . S
H1500 N1495 0.984 . S
H1501 N1495 0.985 . S
H1502 N1499 0.984 . S
H1503 N1499 0.985 . S
H1504 N1498 0.984 . S
H1505 N1498 0.984 . S
H1506 N1494 0.984 . S
H1507 N1494 0.985 . S
C1508 C1509 1.363 . S
C1508 C1514 1.379 . S
C1508 N1516 1.356 . S
C1509 C1508 1.363 . S
C1509 C1515 1.363 . S
C1510 C1511 1.363 . S
C1510 C1515 1.379 . S
C1510 N1517 1.356 . S
C1511 C1510 1.363 . S
C1511 C1514 1.363 . S
N1512 C1514 1.356 . S
N1512 H1524 0.984 . S
N1512 H1525 0.985 . S
N1513 C1515 1.356 . S
N1513 H1518 0.984 . S
N1513 H1519 0.985 . S
C1514 C1508 1.379 . S
C1514 C1511 1.363 . S
C1514 N1512 1.356 . S
C1515 C1509 1.363 . S
C1515 C1510 1.379 . S
C1515 N1513 1.356 . S
N1516 C1508 1.356 . S
N1516 H1522 0.984 . S
N1516 H1523 0.984 . S
N1517 C1510 1.356 . S
N1517 H1520 0.984 . S
N1517 H1521 0.985 . S
H1518 N1513 0.984 . S
H1519 N1513 0.985 . S
H1520 N1517 0.984 . S
H1521 N1517 0.985 . S
H1522 N1516 0.984 . S
H1523 N1516 0.984 . S
H1524 N1512 0.984 . S
H1525 N1512 0.985 . S
C1526 C1527 1.363 . S
C1526 C1532 1.379 . S
C1526 N1534 1.356 . S
C1527 C1526 1.363 . S
C1527 C1533 1.363 . S
C1528 C1529 1.363 . S
C1528 C1533 1.379 . S
C1528 N1535 1.356 . S
C1529 C1528 1.363 . S
C1529 C1532 1.363 . S
N1530 C1532 1.356 . S
N1530 H1542 0.984 . S
N1530 H1543 0.985 . S
N1531 C1533 1.356 . S
N1531 H1536 0.984 . S
N1531 H1537 0.985 . S
C1532 C1526 1.379 . S
C1532 C1529 1.363 . S
C1532 N1530 1.356 . S
C1533 C1527 1.363 . S
C1533 C1528 1.379 . S
C1533 N1531 1.356 . S
N1534 C1526 1.356 . S
N1534 H1540 0.984 . S
N1534 H1541 0.984 . S
N1535 C1528 1.356 . S
N1535 H1538 0.984 . S
N1535 H1539 0.985 . S
H1536 N1531 0.984 . S
H1537 N1531 0.985 . S
H1538 N1535 0.984 . S
H1539 N1535 0.985 . S
H1540 N1534 0.984 . S
H1541 N1534 0.984 . S
H1542 N1530 0.984 . S
H1543 N1530 0.985 . S
C1544 C1545 1.363 . S
C1544 C1550 1.379 . S
C1544 N1552 1.356 . S
C1545 C1544 1.363 . S
C1545 C1551 1.363 . S
C1546 C1547 1.363 . S
C1546 C1551 1.379 . S
C1546 N1553 1.356 . S
C1547 C1546 1.363 . S
C1547 C1550 1.363 . S
N1548 C1550 1.356 . S
N1548 H1560 0.984 . S
N1548 H1561 0.985 . S
N1549 C1551 1.356 . S
N1549 H1554 0.984 . S
N1549 H1555 0.985 . S
C1550 C1544 1.379 . S
C1550 C1547 1.363 . S
C1550 N1548 1.356 . S
C1551 C1545 1.363 . S
C1551 C1546 1.379 . S
C1551 N1549 1.356 . S
N1552 C1544 1.356 . S
N1552 H1558 0.984 . S
N1552 H1559 0.984 . S
N1553 C1546 1.356 . S
N1553 H1556 0.984 . S
N1553 H1557 0.985 . S
H1554 N1549 0.984 . S
H1555 N1549 0.985 . S
H1556 N1553 0.984 . S
H1557 N1553 0.985 . S
H1558 N1552 0.984 . S
H1559 N1552 0.984 . S
H1560 N1548 0.984 . S
H1561 N1548 0.985 . S
C1562 C1563 1.363 . S
C1562 C1568 1.379 . S
C1562 N1570 1.356 . S
C1563 C1562 1.363 . S
C1563 C1569 1.363 . S
C1564 C1565 1.363 . S
C1564 C1569 1.379 . S
C1564 N1571 1.356 . S
C1565 C1564 1.363 . S
C1565 C1568 1.363 . S
N1566 C1568 1.356 . S
N1566 H1578 0.984 . S
N1566 H1579 0.985 . S
N1567 C1569 1.356 . S
N1567 H1572 0.984 . S
N1567 H1573 0.985 . S
C1568 C1562 1.379 . S
C1568 C1565 1.363 . S
C1568 N1566 1.356 . S
C1569 C1563 1.363 . S
C1569 C1564 1.379 . S
C1569 N1567 1.356 . S
N1570 C1562 1.356 . S
N1570 H1576 0.984 . S
N1570 H1577 0.984 . S
N1571 C1564 1.356 . S
N1571 H1574 0.984 . S
N1571 H1575 0.985 . S
H1572 N1567 0.984 . S
H1573 N1567 0.985 . S
H1574 N1571 0.984 . S
H1575 N1571 0.985 . S
H1576 N1570 0.984 . S
H1577 N1570 0.984 . S
H1578 N1566 0.984 . S
H1579 N1566 0.985 . S
C1580 C1581 1.363 . S
C1580 C1586 1.379 . S
C1580 N1588 1.356 . S
C1581 C1580 1.363 . S
C1581 C1587 1.363 . S
C1582 C1583 1.363 . S
C1582 C1587 1.379 . S
C1582 N1589 1.356 . S
C1583 C1582 1.363 . S
C1583 C1586 1.363 . S
N1584 C1586 1.356 . S
N1584 H1596 0.984 . S
N1584 H1597 0.985 . S
N1585 C1587 1.356 . S
N1585 H1590 0.984 . S
N1585 H1591 0.985 . S
C1586 C1580 1.379 . S
C1586 C1583 1.363 . S
C1586 N1584 1.356 . S
C1587 C1581 1.363 . S
C1587 C1582 1.379 . S
C1587 N1585 1.356 . S
N1588 C1580 1.356 . S
N1588 H1594 0.984 . S
N1588 H1595 0.984 . S
N1589 C1582 1.356 . S
N1589 H1592 0.984 . S
N1589 H1593 0.985 . S
H1590 N1585 0.984 . S
H1591 N1585 0.985 . S
H1592 N1589 0.984 . S
H1593 N1589 0.985 . S
H1594 N1588 0.984 . S
H1595 N1588 0.984 . S
H1596 N1584 0.984 . S
H1597 N1584 0.985 . S
C1598 C1599 1.363 . S
C1598 C1604 1.379 . S
C1598 N1606 1.356 . S
C1599 C1598 1.363 . S
C1599 C1605 1.363 . S
C1600 C1601 1.363 . S
C1600 C1605 1.379 . S
C1600 N1607 1.356 . S
C1601 C1600 1.363 . S
C1601 C1604 1.363 . S
N1602 C1604 1.356 . S
N1602 H1614 0.984 . S
N1602 H1615 0.985 . S
N1603 C1605 1.356 . S
N1603 H1608 0.984 . S
N1603 H1609 0.985 . S
C1604 C1598 1.379 . S
C1604 C1601 1.363 . S
C1604 N1602 1.356 . S
C1605 C1599 1.363 . S
C1605 C1600 1.379 . S
C1605 N1603 1.356 . S
N1606 C1598 1.356 . S
N1606 H1612 0.984 . S
N1606 H1613 0.984 . S
N1607 C1600 1.356 . S
N1607 H1610 0.984 . S
N1607 H1611 0.985 . S
H1608 N1603 0.984 . S
H1609 N1603 0.985 . S
H1610 N1607 0.984 . S
H1611 N1607 0.985 . S
H1612 N1606 0.984 . S
H1613 N1606 0.984 . S
H1614 N1602 0.984 . S
H1615 N1602 0.985 . S
C1616 C1617 1.363 . S
C1616 C1622 1.379 . S
C1616 N1624 1.356 . S
C1617 C1616 1.363 . S
C1617 C1623 1.363 . S
C1618 C1619 1.363 . S
C1618 C1623 1.379 . S
C1618 N1625 1.356 . S
C1619 C1618 1.363 . S
C1619 C1622 1.363 . S
N1620 C1622 1.356 . S
N1620 H1632 0.984 . S
N1620 H1633 0.985 . S
N1621 C1623 1.356 . S
N1621 H1626 0.984 . S
N1621 H1627 0.985 . S
C1622 C1616 1.379 . S
C1622 C1619 1.363 . S
C1622 N1620 1.356 . S
C1623 C1617 1.363 . S
C1623 C1618 1.379 . S
C1623 N1621 1.356 . S
N1624 C1616 1.356 . S
N1624 H1630 0.984 . S
N1624 H1631 0.984 . S
N1625 C1618 1.356 . S
N1625 H1628 0.984 . S
N1625 H1629 0.985 . S
H1626 N1621 0.984 . S
H1627 N1621 0.985 . S
H1628 N1625 0.984 . S
H1629 N1625 0.985 . S
H1630 N1624 0.984 . S
H1631 N1624 0.984 . S
H1632 N1620 0.984 . S
H1633 N1620 0.985 . S
C1634 C1635 1.363 . S
C1634 C1640 1.379 . S
C1634 N1642 1.356 . S
C1635 C1634 1.363 . S
C1635 C1641 1.363 . S
C1636 C1637 1.363 . S
C1636 C1641 1.379 . S
C1636 N1643 1.356 . S
C1637 C1636 1.363 . S
C1637 C1640 1.363 . S
N1638 C1640 1.356 . S
N1638 H1650 0.984 . S
N1638 H1651 0.985 . S
N1639 C1641 1.356 . S
N1639 H1644 0.984 . S
N1639 H1645 0.985 . S
C1640 C1634 1.379 . S
C1640 C1637 1.363 . S
C1640 N1638 1.356 . S
C1641 C1635 1.363 . S
C1641 C1636 1.379 . S
C1641 N1639 1.356 . S
N1642 C1634 1.356 . S
N1642 H1648 0.984 . S
N1642 H1649 0.984 . S
N1643 C1636 1.356 . S
N1643 H1646 0.984 . S
N1643 H1647 0.985 . S
H1644 N1639 0.984 . S
H1645 N1639 0.985 . S
H1646 N1643 0.984 . S
H1647 N1643 0.985 . S
H1648 N1642 0.984 . S
H1649 N1642 0.984 . S
H1650 N1638 0.984 . S
H1651 N1638 0.985 . S
C1652 C1653 1.363 . S
C1652 C1658 1.379 . S
C1652 N1660 1.356 . S
C1653 C1652 1.363 . S
C1653 C1659 1.363 . S
C1654 C1655 1.363 . S
C1654 C1659 1.379 . S
C1654 N1661 1.356 . S
C1655 C1654 1.363 . S
C1655 C1658 1.363 . S
N1656 C1658 1.356 . S
N1656 H1668 0.984 . S
N1656 H1669 0.985 . S
N1657 C1659 1.356 . S
N1657 H1662 0.984 . S
N1657 H1663 0.985 . S
C1658 C1652 1.379 . S
C1658 C1655 1.363 . S
C1658 N1656 1.356 . S
C1659 C1653 1.363 . S
C1659 C1654 1.379 . S
C1659 N1657 1.356 . S
N1660 C1652 1.356 . S
N1660 H1666 0.984 . S
N1660 H1667 0.984 . S
N1661 C1654 1.356 . S
N1661 H1664 0.984 . S
N1661 H1665 0.985 . S
H1662 N1657 0.984 . S
H1663 N1657 0.985 . S
H1664 N1661 0.984 . S
H1665 N1661 0.985 . S
H1666 N1660 0.984 . S
H1667 N1660 0.984 . S
H1668 N1656 0.984 . S
H1669 N1656 0.985 . S
C1670 C1671 1.363 . S
C1670 C1676 1.379 . S
C1670 N1678 1.356 . S
C1671 C1670 1.363 . S
C1671 C1677 1.363 . S
C1672 C1673 1.363 . S
C1672 C1677 1.379 . S
C1672 N1679 1.356 . S
C1673 C1672 1.363 . S
C1673 C1676 1.363 . S
N1674 C1676 1.356 . S
N1674 H1686 0.984 . S
N1674 H1687 0.985 . S
N1675 C1677 1.356 . S
N1675 H1680 0.984 . S
N1675 H1681 0.985 . S
C1676 C1670 1.379 . S
C1676 C1673 1.363 . S
C1676 N1674 1.356 . S
C1677 C1671 1.363 . S
C1677 C1672 1.379 . S
C1677 N1675 1.356 . S
N1678 C1670 1.356 . S
N1678 H1684 0.984 . S
N1678 H1685 0.984 . S
N1679 C1672 1.356 . S
N1679 H1682 0.984 . S
N1679 H1683 0.985 . S
H1680 N1675 0.984 . S
H1681 N1675 0.985 . S
H1682 N1679 0.984 . S
H1683 N1679 0.985 . S
H1684 N1678 0.984 . S
H1685 N1678 0.984 . S
H1686 N1674 0.984 . S
H1687 N1674 0.985 . S
C1688 C1689 1.363 . S
C1688 C1694 1.379 . S
C1688 N1696 1.356 . S
C1689 C1688 1.363 . S
C1689 C1695 1.363 . S
C1690 C1691 1.363 . S
C1690 C1695 1.379 . S
C1690 N1697 1.356 . S
C1691 C1690 1.363 . S
C1691 C1694 1.363 . S
N1692 C1694 1.356 . S
N1692 H1704 0.984 . S
N1692 H1705 0.985 . S
N1693 C1695 1.356 . S
N1693 H1698 0.984 . S
N1693 H1699 0.985 . S
C1694 C1688 1.379 . S
C1694 C1691 1.363 . S
C1694 N1692 1.356 . S
C1695 C1689 1.363 . S
C1695 C1690 1.379 . S
C1695 N1693 1.356 . S
N1696 C1688 1.356 . S
N1696 H1702 0.984 . S
N1696 H1703 0.984 . S
N1697 C1690 1.356 . S
N1697 H1700 0.984 . S
N1697 H1701 0.985 . S
H1698 N1693 0.984 . S
H1699 N1693 0.985 . S
H1700 N1697 0.984 . S
H1701 N1697 0.985 . S
H1702 N1696 0.984 . S
H1703 N1696 0.984 . S
H1704 N1692 0.984 . S
H1705 N1692 0.985 . S
C1706 C1707 1.363 . S
C1706 C1712 1.379 . S
C1706 N1714 1.356 . S
C1707 C1706 1.363 . S
C1707 C1713 1.363 . S
C1708 C1709 1.363 . S
C1708 C1713 1.379 . S
C1708 N1715 1.356 . S
C1709 C1708 1.363 . S
C1709 C1712 1.363 . S
N1710 C1712 1.356 . S
N1710 H1722 0.984 . S
N1710 H1723 0.985 . S
N1711 C1713 1.356 . S
N1711 H1716 0.984 . S
N1711 H1717 0.985 . S
C1712 C1706 1.379 . S
C1712 C1709 1.363 . S
C1712 N1710 1.356 . S
C1713 C1707 1.363 . S
C1713 C1708 1.379 . S
C1713 N1711 1.356 . S
N1714 C1706 1.356 . S
N1714 H1720 0.984 . S
N1714 H1721 0.984 . S
N1715 C1708 1.356 . S
N1715 H1718 0.984 . S
N1715 H1719 0.985 . S
H1716 N1711 0.984 . S
H1717 N1711 0.985 . S
H1718 N1715 0.984 . S
H1719 N1715 0.985 . S
H1720 N1714 0.984 . S
H1721 N1714 0.984 . S
H1722 N1710 0.984 . S
H1723 N1710 0.985 . S
C1724 C1725 1.363 . S
C1724 C1730 1.379 . S
C1724 N1732 1.356 . S
C1725 C1724 1.363 . S
C1725 C1731 1.363 . S
C1726 C1727 1.363 . S
C1726 C1731 1.379 . S
C1726 N1733 1.356 . S
C1727 C1726 1.363 . S
C1727 C1730 1.363 . S
N1728 C1730 1.356 . S
N1728 H1740 0.984 . S
N1728 H1741 0.985 . S
N1729 C1731 1.356 . S
N1729 H1734 0.984 . S
N1729 H1735 0.985 . S
C1730 C1724 1.379 . S
C1730 C1727 1.363 . S
C1730 N1728 1.356 . S
C1731 C1725 1.363 . S
C1731 C1726 1.379 . S
C1731 N1729 1.356 . S
N1732 C1724 1.356 . S
N1732 H1738 0.984 . S
N1732 H1739 0.984 . S
N1733 C1726 1.356 . S
N1733 H1736 0.984 . S
N1733 H1737 0.985 . S
H1734 N1729 0.984 . S
H1735 N1729 0.985 . S
H1736 N1733 0.984 . S
H1737 N1733 0.985 . S
H1738 N1732 0.984 . S
H1739 N1732 0.984 . S
H1740 N1728 0.984 . S
H1741 N1728 0.985 . S
C1742 C1743 1.363 . S
C1742 C1748 1.379 . S
C1742 N1750 1.356 . S
C1743 C1742 1.363 . S
C1743 C1749 1.363 . S
C1744 C1745 1.363 . S
C1744 C1749 1.379 . S
C1744 N1751 1.356 . S
C1745 C1744 1.363 . S
C1745 C1748 1.363 . S
N1746 C1748 1.356 . S
N1746 H1758 0.984 . S
N1746 H1759 0.985 . S
N1747 C1749 1.356 . S
N1747 H1752 0.984 . S
N1747 H1753 0.985 . S
C1748 C1742 1.379 . S
C1748 C1745 1.363 . S
C1748 N1746 1.356 . S
C1749 C1743 1.363 . S
C1749 C1744 1.379 . S
C1749 N1747 1.356 . S
N1750 C1742 1.356 . S
N1750 H1756 0.984 . S
N1750 H1757 0.984 . S
N1751 C1744 1.356 . S
N1751 H1754 0.984 . S
N1751 H1755 0.985 . S
H1752 N1747 0.984 . S
H1753 N1747 0.985 . S
H1754 N1751 0.984 . S
H1755 N1751 0.985 . S
H1756 N1750 0.984 . S
H1757 N1750 0.984 . S
H1758 N1746 0.984 . S
H1759 N1746 0.985 . S
C1760 C1761 1.363 . S
C1760 C1766 1.379 . S
C1760 N1768 1.356 . S
C1761 C1760 1.363 . S
C1761 C1767 1.363 . S
C1762 C1763 1.363 . S
C1762 C1767 1.379 . S
C1762 N1769 1.356 . S
C1763 C1762 1.363 . S
C1763 C1766 1.363 . S
N1764 C1766 1.356 . S
N1764 H1776 0.984 . S
N1764 H1777 0.985 . S
N1765 C1767 1.356 . S
N1765 H1770 0.984 . S
N1765 H1771 0.985 . S
C1766 C1760 1.379 . S
C1766 C1763 1.363 . S
C1766 N1764 1.356 . S
C1767 C1761 1.363 . S
C1767 C1762 1.379 . S
C1767 N1765 1.356 . S
N1768 C1760 1.356 . S
N1768 H1774 0.984 . S
N1768 H1775 0.984 . S
N1769 C1762 1.356 . S
N1769 H1772 0.984 . S
N1769 H1773 0.985 . S
H1770 N1765 0.984 . S
H1771 N1765 0.985 . S
H1772 N1769 0.984 . S
H1773 N1769 0.985 . S
H1774 N1768 0.984 . S
H1775 N1768 0.984 . S
H1776 N1764 0.984 . S
H1777 N1764 0.985 . S
C1778 C1779 1.363 . S
C1778 C1784 1.379 . S
C1778 N1786 1.356 . S
C1779 C1778 1.363 . S
C1779 C1785 1.363 . S
C1780 C1781 1.363 . S
C1780 C1785 1.379 . S
C1780 N1787 1.356 . S
C1781 C1780 1.363 . S
C1781 C1784 1.363 . S
N1782 C1784 1.356 . S
N1782 H1794 0.984 . S
N1782 H1795 0.985 . S
N1783 C1785 1.356 . S
N1783 H1788 0.984 . S
N1783 H1789 0.985 . S
C1784 C1778 1.379 . S
C1784 C1781 1.363 . S
C1784 N1782 1.356 . S
C1785 C1779 1.363 . S
C1785 C1780 1.379 . S
C1785 N1783 1.356 . S
N1786 C1778 1.356 . S
N1786 H1792 0.984 . S
N1786 H1793 0.984 . S
N1787 C1780 1.356 . S
N1787 H1790 0.984 . S
N1787 H1791 0.985 . S
H1788 N1783 0.984 . S
H1789 N1783 0.985 . S
H1790 N1787 0.984 . S
H1791 N1787 0.985 . S
H1792 N1786 0.984 . S
H1793 N1786 0.984 . S
H1794 N1782 0.984 . S
H1795 N1782 0.985 . S
C1796 C1797 1.363 . S
C1796 C1802 1.379 . S
C1796 N1804 1.356 . S
C1797 C1796 1.363 . S
C1797 C1803 1.363 . S
C1798 C1799 1.363 . S
C1798 C1803 1.379 . S
C1798 N1805 1.356 . S
C1799 C1798 1.363 . S
C1799 C1802 1.363 . S
N1800 C1802 1.356 . S
N1800 H1812 0.984 . S
N1800 H1813 0.985 . S
N1801 C1803 1.356 . S
N1801 H1806 0.984 . S
N1801 H1807 0.985 . S
C1802 C1796 1.379 . S
C1802 C1799 1.363 . S
C1802 N1800 1.356 . S
C1803 C1797 1.363 . S
C1803 C1798 1.379 . S
C1803 N1801 1.356 . S
N1804 C1796 1.356 . S
N1804 H1810 0.984 . S
N1804 H1811 0.984 . S
N1805 C1798 1.356 . S
N1805 H1808 0.984 . S
N1805 H1809 0.985 . S
H1806 N1801 0.984 . S
H1807 N1801 0.985 . S
H1808 N1805 0.984 . S
H1809 N1805 0.985 . S
H1810 N1804 0.984 . S
H1811 N1804 0.984 . S
H1812 N1800 0.984 . S
H1813 N1800 0.985 . S
C1814 C1815 1.363 . S
C1814 C1820 1.379 . S
C1814 N1822 1.356 . S
C1815 C1814 1.363 . S
C1815 C1821 1.363 . S
C1816 C1817 1.363 . S
C1816 C1821 1.379 . S
C1816 N1823 1.356 . S
C1817 C1816 1.363 . S
C1817 C1820 1.363 . S
N1818 C1820 1.356 . S
N1818 H1830 0.984 . S
N1818 H1831 0.985 . S
N1819 C1821 1.356 . S
N1819 H1824 0.984 . S
N1819 H1825 0.985 . S
C1820 C1814 1.379 . S
C1820 C1817 1.363 . S
C1820 N1818 1.356 . S
C1821 C1815 1.363 . S
C1821 C1816 1.379 . S
C1821 N1819 1.356 . S
N1822 C1814 1.356 . S
N1822 H1828 0.984 . S
N1822 H1829 0.984 . S
N1823 C1816 1.356 . S
N1823 H1826 0.984 . S
N1823 H1827 0.985 . S
H1824 N1819 0.984 . S
H1825 N1819 0.985 . S
H1826 N1823 0.984 . S
H1827 N1823 0.985 . S
H1828 N1822 0.984 . S
H1829 N1822 0.984 . S
H1830 N1818 0.984 . S
H1831 N1818 0.985 . S
C1832 C1833 1.363 . S
C1832 C1838 1.379 . S
C1832 N1840 1.356 . S
C1833 C1832 1.363 . S
C1833 C1839 1.363 . S
C1834 C1835 1.363 . S
C1834 C1839 1.379 . S
C1834 N1841 1.356 . S
C1835 C1834 1.363 . S
C1835 C1838 1.363 . S
N1836 C1838 1.356 . S
N1836 H1848 0.984 . S
N1836 H1849 0.985 . S
N1837 C1839 1.356 . S
N1837 H1842 0.984 . S
N1837 H1843 0.985 . S
C1838 C1832 1.379 . S
C1838 C1835 1.363 . S
C1838 N1836 1.356 . S
C1839 C1833 1.363 . S
C1839 C1834 1.379 . S
C1839 N1837 1.356 . S
N1840 C1832 1.356 . S
N1840 H1846 0.984 . S
N1840 H1847 0.984 . S
N1841 C1834 1.356 . S
N1841 H1844 0.984 . S
N1841 H1845 0.985 . S
H1842 N1837 0.984 . S
H1843 N1837 0.985 . S
H1844 N1841 0.984 . S
H1845 N1841 0.985 . S
H1846 N1840 0.984 . S
H1847 N1840 0.984 . S
H1848 N1836 0.984 . S
H1849 N1836 0.985 . S
C1850 C1851 1.363 . S
C1850 C1856 1.379 . S
C1850 N1858 1.356 . S
C1851 C1850 1.363 . S
C1851 C1857 1.363 . S
C1852 C1853 1.363 . S
C1852 C1857 1.379 . S
C1852 N1859 1.356 . S
C1853 C1852 1.363 . S
C1853 C1856 1.363 . S
N1854 C1856 1.356 . S
N1854 H1866 0.984 . S
N1854 H1867 0.985 . S
N1855 C1857 1.356 . S
N1855 H1860 0.984 . S
N1855 H1861 0.985 . S
C1856 C1850 1.379 . S
C1856 C1853 1.363 . S
C1856 N1854 1.356 . S
C1857 C1851 1.363 . S
C1857 C1852 1.379 . S
C1857 N1855 1.356 . S
N1858 C1850 1.356 . S
N1858 H1864 0.984 . S
N1858 H1865 0.984 . S
N1859 C1852 1.356 . S
N1859 H1862 0.984 . S
N1859 H1863 0.985 . S
H1860 N1855 0.984 . S
H1861 N1855 0.985 . S
H1862 N1859 0.984 . S
H1863 N1859 0.985 . S
H1864 N1858 0.984 . S
H1865 N1858 0.984 . S
H1866 N1854 0.984 . S
H1867 N1854 0.985 . S
C1868 C1869 1.363 . S
C1868 C1874 1.379 . S
C1868 N1876 1.356 . S
C1869 C1868 1.363 . S
C1869 C1875 1.363 . S
C1870 C1871 1.363 . S
C1870 C1875 1.379 . S
C1870 N1877 1.356 . S
C1871 C1870 1.363 . S
C1871 C1874 1.363 . S
N1872 C1874 1.356 . S
N1872 H1884 0.984 . S
N1872 H1885 0.985 . S
N1873 C1875 1.356 . S
N1873 H1878 0.984 . S
N1873 H1879 0.985 . S
C1874 C1868 1.379 . S
C1874 C1871 1.363 . S
C1874 N1872 1.356 . S
C1875 C1869 1.363 . S
C1875 C1870 1.379 . S
C1875 N1873 1.356 . S
N1876 C1868 1.356 . S
N1876 H1882 0.984 . S
N1876 H1883 0.984 . S
N1877 C1870 1.356 . S
N1877 H1880 0.984 . S
N1877 H1881 0.985 . S
H1878 N1873 0.984 . S
H1879 N1873 0.985 . S
H1880 N1877 0.984 . S
H1881 N1877 0.985 . S
H1882 N1876 0.984 . S
H1883 N1876 0.984 . S
H1884 N1872 0.984 . S
H1885 N1872 0.985 . S
C1886 C1887 1.363 . S
C1886 C1892 1.379 . S
C1886 N1894 1.356 . S
C1887 C1886 1.363 . S
C1887 C1893 1.363 . S
C1888 C1889 1.363 . S
C1888 C1893 1.379 . S
C1888 N1895 1.356 . S
C1889 C1888 1.363 . S
C1889 C1892 1.363 . S
N1890 C1892 1.356 . S
N1890 H1902 0.984 . S
N1890 H1903 0.985 . S
N1891 C1893 1.356 . S
N1891 H1896 0.984 . S
N1891 H1897 0.985 . S
C1892 C1886 1.379 . S
C1892 C1889 1.363 . S
C1892 N1890 1.356 . S
C1893 C1887 1.363 . S
C1893 C1888 1.379 . S
C1893 N1891 1.356 . S
N1894 C1886 1.356 . S
N1894 H1900 0.984 . S
N1894 H1901 0.984 . S
N1895 C1888 1.356 . S
N1895 H1898 0.984 . S
N1895 H1899 0.985 . S
H1896 N1891 0.984 . S
H1897 N1891 0.985 . S
H1898 N1895 0.984 . S
H1899 N1895 0.985 . S
H1900 N1894 0.984 . S
H1901 N1894 0.984 . S
H1902 N1890 0.984 . S
H1903 N1890 0.985 . S
C1904 C1905 1.363 . S
C1904 C1910 1.379 . S
C1904 N1912 1.356 . S
C1905 C1904 1.363 . S
C1905 C1911 1.363 . S
C1906 C1907 1.363 . S
C1906 C1911 1.379 . S
C1906 N1913 1.356 . S
C1907 C1906 1.363 . S
C1907 C1910 1.363 . S
N1908 C1910 1.356 . S
N1908 H1920 0.984 . S
N1908 H1921 0.985 . S
N1909 C1911 1.356 . S
N1909 H1914 0.984 . S
N1909 H1915 0.985 . S
C1910 C1904 1.379 . S
C1910 C1907 1.363 . S
C1910 N1908 1.356 . S
C1911 C1905 1.363 . S
C1911 C1906 1.379 . S
C1911 N1909 1.356 . S
N1912 C1904 1.356 . S
N1912 H1918 0.984 . S
N1912 H1919 0.984 . S
N1913 C1906 1.356 . S
N1913 H1916 0.984 . S
N1913 H1917 0.985 . S
H1914 N1909 0.984 . S
H1915 N1909 0.985 . S
H1916 N1913 0.984 . S
H1917 N1913 0.985 . S
H1918 N1912 0.984 . S
H1919 N1912 0.984 . S
H1920 N1908 0.984 . S
H1921 N1908 0.985 . S
C1922 C1923 1.363 . S
C1922 C1928 1.379 . S
C1922 N1930 1.356 . S
C1923 C1922 1.363 . S
C1923 C1929 1.363 . S
C1924 C1925 1.363 . S
C1924 C1929 1.379 . S
C1924 N1931 1.356 . S
C1925 C1924 1.363 . S
C1925 C1928 1.363 . S
N1926 C1928 1.356 . S
N1926 H1938 0.984 . S
N1926 H1939 0.985 . S
N1927 C1929 1.356 . S
N1927 H1932 0.984 . S
N1927 H1933 0.985 . S
C1928 C1922 1.379 . S
C1928 C1925 1.363 . S
C1928 N1926 1.356 . S
C1929 C1923 1.363 . S
C1929 C1924 1.379 . S
C1929 N1927 1.356 . S
N1930 C1922 1.356 . S
N1930 H1936 0.984 . S
N1930 H1937 0.984 . S
N1931 C1924 1.356 . S
N1931 H1934 0.984 . S
N1931 H1935 0.985 . S
H1932 N1927 0.984 . S
H1933 N1927 0.985 . S
H1934 N1931 0.984 . S
H1935 N1931 0.985 . S
H1936 N1930 0.984 . S
H1937 N1930 0.984 . S
H1938 N1926 0.984 . S
H1939 N1926 0.985 . S
C1940 C1941 1.363 . S
C1940 C1946 1.379 . S
C1940 N1948 1.356 . S
C1941 C1940 1.363 . S
C1941 C1947 1.363 . S
C1942 C1943 1.363 . S
C1942 C1947 1.379 . S
C1942 N1949 1.356 . S
C1943 C1942 1.363 . S
C1943 C1946 1.363 . S
N1944 C1946 1.356 . S
N1944 H1956 0.984 . S
N1944 H1957 0.985 . S
N1945 C1947 1.356 . S
N1945 H1950 0.984 . S
N1945 H1951 0.985 . S
C1946 C1940 1.379 . S
C1946 C1943 1.363 . S
C1946 N1944 1.356 . S
C1947 C1941 1.363 . S
C1947 C1942 1.379 . S
C1947 N1945 1.356 . S
N1948 C1940 1.356 . S
N1948 H1954 0.984 . S
N1948 H1955 0.984 . S
N1949 C1942 1.356 . S
N1949 H1952 0.984 . S
N1949 H1953 0.985 . S
H1950 N1945 0.984 . S
H1951 N1945 0.985 . S
H1952 N1949 0.984 . S
H1953 N1949 0.985 . S
H1954 N1948 0.984 . S
H1955 N1948 0.984 . S
H1956 N1944 0.984 . S
H1957 N1944 0.985 . S
C1958 C1959 1.363 . S
C1958 C1964 1.379 . S
C1958 N1966 1.356 . S
C1959 C1958 1.363 . S
C1959 C1965 1.363 . S
C1960 C1961 1.363 . S
C1960 C1965 1.379 . S
C1960 N1967 1.356 . S
C1961 C1960 1.363 . S
C1961 C1964 1.363 . S
N1962 C1964 1.356 . S
N1962 H1974 0.984 . S
N1962 H1975 0.985 . S
N1963 C1965 1.356 . S
N1963 H1968 0.984 . S
N1963 H1969 0.985 . S
C1964 C1958 1.379 . S
C1964 C1961 1.363 . S
C1964 N1962 1.356 . S
C1965 C1959 1.363 . S
C1965 C1960 1.379 . S
C1965 N1963 1.356 . S
N1966 C1958 1.356 . S
N1966 H1972 0.984 . S
N1966 H1973 0.984 . S
N1967 C1960 1.356 . S
N1967 H1970 0.984 . S
N1967 H1971 0.985 . S
H1968 N1963 0.984 . S
H1969 N1963 0.985 . S
H1970 N1967 0.984 . S
H1971 N1967 0.985 . S
H1972 N1966 0.984 . S
H1973 N1966 0.984 . S
H1974 N1962 0.984 . S
H1975 N1962 0.985 . S
C1976 C1977 1.363 . S
C1976 C1982 1.379 . S
C1976 N1984 1.356 . S
C1977 C1976 1.363 . S
C1977 C1983 1.363 . S
C1978 C1979 1.363 . S
C1978 C1983 1.379 . S
C1978 N1985 1.356 . S
C1979 C1978 1.363 . S
C1979 C1982 1.363 . S
N1980 C1982 1.356 . S
N1980 H1992 0.984 . S
N1980 H1993 0.985 . S
N1981 C1983 1.356 . S
N1981 H1986 0.984 . S
N1981 H1987 0.985 . S
C1982 C1976 1.379 . S
C1982 C1979 1.363 . S
C1982 N1980 1.356 . S
C1983 C1977 1.363 . S
C1983 C1978 1.379 . S
C1983 N1981 1.356 . S
N1984 C1976 1.356 . S
N1984 H1990 0.984 . S
N1984 H1991 0.984 . S
N1985 C1978 1.356 . S
N1985 H1988 0.984 . S
N1985 H1989 0.985 . S
H1986 N1981 0.984 . S
H1987 N1981 0.985 . S
H1988 N1985 0.984 . S
H1989 N1985 0.985 . S
H1990 N1984 0.984 . S
H1991 N1984 0.984 . S
H1992 N1980 0.984 . S
H1993 N1980 0.985 . S
C1994 C1995 1.363 . S
C1994 C2000 1.379 . S
C1994 N2002 1.356 . S
C1995 C1994 1.363 . S
C1995 C2001 1.363 . S
C1996 C1997 1.363 . S
C1996 C2001 1.379 . S
C1996 N2003 1.356 . S
C1997 C1996 1.363 . S
C1997 C2000 1.363 . S
N1998 C2000 1.356 . S
N1998 H2010 0.984 . S
N1998 H2011 0.985 . S
N1999 C2001 1.356 . S
N1999 H2004 0.984 . S
N1999 H2005 0.985 . S
C2000 C1994 1.379 . S
C2000 C1997 1.363 . S
C2000 N1998 1.356 . S
C2001 C1995 1.363 . S
C2001 C1996 1.379 . S
C2001 N1999 1.356 . S
N2002 C1994 1.356 . S
N2002 H2008 0.984 . S
N2002 H2009 0.984 . S
N2003 C1996 1.356 . S
N2003 H2006 0.984 . S
N2003 H2007 0.985 . S
H2004 N1999 0.984 . S
H2005 N1999 0.985 . S
H2006 N2003 0.984 . S
H2007 N2003 0.985 . S
H2008 N2002 0.984 . S
H2009 N2002 0.984 . S
H2010 N1998 0.984 . S
H2011 N1998 0.985 . S
C2012 C2013 1.363 . S
C2012 C2018 1.379 . S
C2012 N2020 1.356 . S
C2013 C2012 1.363 . S
C2013 C2019 1.363 . S
C2014 C2015 1.363 . S
C2014 C2019 1.379 . S
C2014 N2021 1.356 . S
C2015 C2014 1.363 . S
C2015 C2018 1.363 . S
N2016 C2018 1.356 . S
N2016 H2028 0.984 . S
N2016 H2029 0.985 . S
N2017 C2019 1.356 . S
N2017 H2022 0.984 . S
N2017 H2023 0.985 . S
C2018 C2012 1.379 . S
C2018 C2015 1.363 . S
C2018 N2016 1.356 . S
C2019 C2013 1.363 . S
C2019 C2014 1.379 . S
C2019 N2017 1.356 . S
N2020 C2012 1.356 . S
N2020 H2026 0.984 . S
N2020 H2027 0.984 . S
N2021 C2014 1.356 . S
N2021 H2024 0.984 . S
N2021 H2025 0.985 . S
H2022 N2017 0.984 . S
H2023 N2017 0.985 . S
H2024 N2021 0.984 . S
H2025 N2021 0.985 . S
H2026 N2020 0.984 . S
H2027 N2020 0.984 . S
H2028 N2016 0.984 . S
H2029 N2016 0.985 . S
C2030 C2031 1.363 . S
C2030 C2036 1.379 . S
C2030 N2038 1.356 . S
C2031 C2030 1.363 . S
C2031 C2037 1.363 . S
C2032 C2033 1.363 . S
C2032 C2037 1.379 . S
C2032 N2039 1.356 . S
C2033 C2032 1.363 . S
C2033 C2036 1.363 . S
N2034 C2036 1.356 . S
N2034 H2046 0.984 . S
N2034 H2047 0.985 . S
N2035 C2037 1.356 . S
N2035 H2040 0.984 . S
N2035 H2041 0.985 . S
C2036 C2030 1.379 . S
C2036 C2033 1.363 . S
C2036 N2034 1.356 . S
C2037 C2031 1.363 . S
C2037 C2032 1.379 . S
C2037 N2035 1.356 . S
N2038 C2030 1.356 . S
N2038 H2044 0.984 . S
N2038 H2045 0.984 . S
N2039 C2032 1.356 . S
N2039 H2042 0.984 . S
N2039 H2043 0.985 . S
H2040 N2035 0.984 . S
H2041 N2035 0.985 . S
H2042 N2039 0.984 . S
H2043 N2039 0.985 . S
H2044 N2038 0.984 . S
H2045 N2038 0.984 . S
H2046 N2034 0.984 . S
H2047 N2034 0.985 . S
C2048 C2049 1.363 . S
C2048 C2054 1.379 . S
C2048 N2056 1.356 . S
C2049 C2048 1.363 . S
C2049 C2055 1.363 . S
C2050 C2051 1.363 . S
C2050 C2055 1.379 . S
C2050 N2057 1.356 . S
C2051 C2050 1.363 . S
C2051 C2054 1.363 . S
N2052 C2054 1.356 . S
N2052 H2064 0.984 . S
N2052 H2065 0.985 . S
N2053 C2055 1.356 . S
N2053 H2058 0.984 . S
N2053 H2059 0.985 . S
C2054 C2048 1.379 . S
C2054 C2051 1.363 . S
C2054 N2052 1.356 . S
C2055 C2049 1.363 . S
C2055 C2050 1.379 . S
C2055 N2053 1.356 . S
N2056 C2048 1.356 . S
N2056 H2062 0.984 . S
N2056 H2063 0.984 . S
N2057 C2050 1.356 . S
N2057 H2060 0.984 . S
N2057 H2061 0.985 . S
H2058 N2053 0.984 . S
H2059 N2053 0.985 . S
H2060 N2057 0.984 . S
H2061 N2057 0.985 . S
H2062 N2056 0.984 . S
H2063 N2056 0.984 . S
H2064 N2052 0.984 . S
H2065 N2052 0.985 . S
C2066 C2067 1.363 . S
C2066 C2072 1.379 . S
C2066 N2074 1.356 . S
C2067 C2066 1.363 . S
C2067 C2073 1.363 . S
C2068 C2069 1.363 . S
C2068 C2073 1.379 . S
C2068 N2075 1.356 . S
C2069 C2068 1.363 . S
C2069 C2072 1.363 . S
N2070 C2072 1.356 . S
N2070 H2082 0.984 . S
N2070 H2083 0.985 . S
N2071 C2073 1.356 . S
N2071 H2076 0.984 . S
N2071 H2077 0.985 . S
C2072 C2066 1.379 . S
C2072 C2069 1.363 . S
C2072 N2070 1.356 . S
C2073 C2067 1.363 . S
C2073 C2068 1.379 . S
C2073 N2071 1.356 . S
N2074 C2066 1.356 . S
N2074 H2080 0.984 . S
N2074 H2081 0.984 . S
N2075 C2068 1.356 . S
N2075 H2078 0.984 . S
N2075 H2079 0.985 . S
H2076 N2071 0.984 . S
H2077 N2071 0.985 . S
H2078 N2075 0.984 . S
H2079 N2075 0.985 . S
H2080 N2074 0.984 . S
H2081 N2074 0.984 . S
H2082 N2070 0.984 . S
H2083 N2070 0.985 . S
C2084 C2085 1.363 . S
C2084 C2090 1.379 . S
C2084 N2092 1.356 . S
C2085 C2084 1.363 . S
C2085 C2091 1.363 . S
C2086 C2087 1.363 . S
C2086 C2091 1.379 . S
C2086 N2093 1.356 . S
C2087 C2086 1.363 . S
C2087 C2090 1.363 . S
N2088 C2090 1.356 . S
N2088 H2100 0.984 . S
N2088 H2101 0.985 . S
N2089 C2091 1.356 . S
N2089 H2094 0.984 . S
N2089 H2095 0.985 . S
C2090 C2084 1.379 . S
C2090 C2087 1.363 . S
C2090 N2088 1.356 . S
C2091 C2085 1.363 . S
C2091 C2086 1.379 . S
C2091 N2089 1.356 . S
N2092 C2084 1.356 . S
N2092 H2098 0.984 . S
N2092 H2099 0.984 . S
N2093 C2086 1.356 . S
N2093 H2096 0.984 . S
N2093 H2097 0.985 . S
H2094 N2089 0.984 . S
H2095 N2089 0.985 . S
H2096 N2093 0.984 . S
H2097 N2093 0.985 . S
H2098 N2092 0.984 . S
H2099 N2092 0.984 . S
H2100 N2088 0.984 . S
H2101 N2088 0.985 . S
C2102 C2103 1.363 . S
C2102 C2108 1.379 . S
C2102 N2110 1.356 . S
C2103 C2102 1.363 . S
C2103 C2109 1.363 . S
C2104 C2105 1.363 . S
C2104 C2109 1.379 . S
C2104 N2111 1.356 . S
C2105 C2104 1.363 . S
C2105 C2108 1.363 . S
N2106 C2108 1.356 . S
N2106 H2118 0.984 . S
N2106 H2119 0.985 . S
N2107 C2109 1.356 . S
N2107 H2112 0.984 . S
N2107 H2113 0.985 . S
C2108 C2102 1.379 . S
C2108 C2105 1.363 . S
C2108 N2106 1.356 . S
C2109 C2103 1.363 . S
C2109 C2104 1.379 . S
C2109 N2107 1.356 . S
N2110 C2102 1.356 . S
N2110 H2116 0.984 . S
N2110 H2117 0.984 . S
N2111 C2104 1.356 . S
N2111 H2114 0.984 . S
N2111 H2115 0.985 . S
H2112 N2107 0.984 . S
H2113 N2107 0.985 . S
H2114 N2111 0.984 . S
H2115 N2111 0.985 . S
H2116 N2110 0.984 . S
H2117 N2110 0.984 . S
H2118 N2106 0.984 . S
H2119 N2106 0.985 . S
C2120 C2121 1.363 . S
C2120 C2126 1.379 . S
C2120 N2128 1.356 . S
C2121 C2120 1.363 . S
C2121 C2127 1.363 . S
C2122 C2123 1.363 . S
C2122 C2127 1.379 . S
C2122 N2129 1.356 . S
C2123 C2122 1.363 . S
C2123 C2126 1.363 . S
N2124 C2126 1.356 . S
N2124 H2136 0.984 . S
N2124 H2137 0.985 . S
N2125 C2127 1.356 . S
N2125 H2130 0.984 . S
N2125 H2131 0.985 . S
C2126 C2120 1.379 . S
C2126 C2123 1.363 . S
C2126 N2124 1.356 . S
C2127 C2121 1.363 . S
C2127 C2122 1.379 . S
C2127 N2125 1.356 . S
N2128 C2120 1.356 . S
N2128 H2134 0.984 . S
N2128 H2135 0.984 . S
N2129 C2122 1.356 . S
N2129 H2132 0.984 . S
N2129 H2133 0.985 . S
H2130 N2125 0.984 . S
H2131 N2125 0.985 . S
H2132 N2129 0.984 . S
H2133 N2129 0.985 . S
H2134 N2128 0.984 . S
H2135 N2128 0.984 . S
H2136 N2124 0.984 . S
H2137 N2124 0.985 . S
C2138 C2139 1.363 . S
C2138 C2144 1.379 . S
C2138 N2146 1.356 . S
C2139 C2138 1.363 . S
C2139 C2145 1.363 . S
C2140 C2141 1.363 . S
C2140 C2145 1.379 . S
C2140 N2147 1.356 . S
C2141 C2140 1.363 . S
C2141 C2144 1.363 . S
N2142 C2144 1.356 . S
N2142 H2154 0.984 . S
N2142 H2155 0.985 . S
N2143 C2145 1.356 . S
N2143 H2148 0.984 . S
N2143 H2149 0.985 . S
C2144 C2138 1.379 . S
C2144 C2141 1.363 . S
C2144 N2142 1.356 . S
C2145 C2139 1.363 . S
C2145 C2140 1.379 . S
C2145 N2143 1.356 . S
N2146 C2138 1.356 . S
N2146 H2152 0.984 . S
N2146 H2153 0.984 . S
N2147 C2140 1.356 . S
N2147 H2150 0.984 . S
N2147 H2151 0.985 . S
H2148 N2143 0.984 . S
H2149 N2143 0.985 . S
H2150 N2147 0.984 . S
H2151 N2147 0.985 . S
H2152 N2146 0.984 . S
H2153 N2146 0.984 . S
H2154 N2142 0.984 . S
H2155 N2142 0.985 . S
C2156 C2157 1.363 . S
C2156 C2162 1.379 . S
C2156 N2164 1.356 . S
C2157 C2156 1.363 . S
C2157 C2163 1.363 . S
C2158 C2159 1.363 . S
C2158 C2163 1.379 . S
C2158 N2165 1.356 . S
C2159 C2158 1.363 . S
C2159 C2162 1.363 . S
N2160 C2162 1.356 . S
N2160 H2172 0.984 . S
N2160 H2173 0.985 . S
N2161 C2163 1.356 . S
N2161 H2166 0.984 . S
N2161 H2167 0.985 . S
C2162 C2156 1.379 . S
C2162 C2159 1.363 . S
C2162 N2160 1.356 . S
C2163 C2157 1.363 . S
C2163 C2158 1.379 . S
C2163 N2161 1.356 . S
N2164 C2156 1.356 . S
N2164 H2170 0.984 . S
N2164 H2171 0.984 . S
N2165 C2158 1.356 . S
N2165 H2168 0.984 . S
N2165 H2169 0.985 . S
H2166 N2161 0.984 . S
H2167 N2161 0.985 . S
H2168 N2165 0.984 . S
H2169 N2165 0.985 . S
H2170 N2164 0.984 . S
H2171 N2164 0.984 . S
H2172 N2160 0.984 . S
H2173 N2160 0.985 . S
C2174 C2175 1.363 . S
C2174 C2180 1.379 . S
C2174 N2182 1.356 . S
C2175 C2174 1.363 . S
C2175 C2181 1.363 . S
C2176 C2177 1.363 . S
C2176 C2181 1.379 . S
C2176 N2183 1.356 . S
C2177 C2176 1.363 . S
C2177 C2180 1.363 . S
N2178 C2180 1.356 . S
N2178 H2190 0.984 . S
N2178 H2191 0.985 . S
N2179 C2181 1.356 . S
N2179 H2184 0.984 . S
N2179 H2185 0.985 . S
C2180 C2174 1.379 . S
C2180 C2177 1.363 . S
C2180 N2178 1.356 . S
C2181 C2175 1.363 . S
C2181 C2176 1.379 . S
C2181 N2179 1.356 . S
N2182 C2174 1.356 . S
N2182 H2188 0.984 . S
N2182 H2189 0.984 . S
N2183 C2176 1.356 . S
N2183 H2186 0.984 . S
N2183 H2187 0.985 . S
H2184 N2179 0.984 . S
H2185 N2179 0.985 . S
H2186 N2183 0.984 . S
H2187 N2183 0.985 . S
H2188 N2182 0.984 . S
H2189 N2182 0.984 . S
H2190 N2178 0.984 . S
H2191 N2178 0.985 . S
C2192 C2193 1.363 . S
C2192 C2198 1.379 . S
C2192 N2200 1.356 . S
C2193 C2192 1.363 . S
C2193 C2199 1.363 . S
C2194 C2195 1.363 . S
C2194 C2199 1.379 . S
C2194 N2201 1.356 . S
C2195 C2194 1.363 . S
C2195 C2198 1.363 . S
N2196 C2198 1.356 . S
N2196 H2208 0.984 . S
N2196 H2209 0.985 . S
N2197 C2199 1.356 . S
N2197 H2202 0.984 . S
N2197 H2203 0.985 . S
C2198 C2192 1.379 . S
C2198 C2195 1.363 . S
C2198 N2196 1.356 . S
C2199 C2193 1.363 . S
C2199 C2194 1.379 . S
C2199 N2197 1.356 . S
N2200 C2192 1.356 . S
N2200 H2206 0.984 . S
N2200 H2207 0.984 . S
N2201 C2194 1.356 . S
N2201 H2204 0.984 . S
N2201 H2205 0.985 . S
H2202 N2197 0.984 . S
H2203 N2197 0.985 . S
H2204 N2201 0.984 . S
H2205 N2201 0.985 . S
H2206 N2200 0.984 . S
H2207 N2200 0.984 . S
H2208 N2196 0.984 . S
H2209 N2196 0.985 . S
C2210 C2211 1.363 . S
C2210 C2216 1.379 . S
C2210 N2218 1.356 . S
C2211 C2210 1.363 . S
C2211 C2217 1.363 . S
C2212 C2213 1.363 . S
C2212 C2217 1.379 . S
C2212 N2219 1.356 . S
C2213 C2212 1.363 . S
C2213 C2216 1.363 . S
N2214 C2216 1.356 . S
N2214 H2226 0.984 . S
N2214 H2227 0.985 . S
N2215 C2217 1.356 . S
N2215 H2220 0.984 . S
N2215 H2221 0.985 . S
C2216 C2210 1.379 . S
C2216 C2213 1.363 . S
C2216 N2214 1.356 . S
C2217 C2211 1.363 . S
C2217 C2212 1.379 . S
C2217 N2215 1.356 . S
N2218 C2210 1.356 . S
N2218 H2224 0.984 . S
N2218 H2225 0.984 . S
N2219 C2212 1.356 . S
N2219 H2222 0.984 . S
N2219 H2223 0.985 . S
H2220 N2215 0.984 . S
H2221 N2215 0.985 . S
H2222 N2219 0.984 . S
H2223 N2219 0.985 . S
H2224 N2218 0.984 . S
H2225 N2218 0.984 . S
H2226 N2214 0.984 . S
H2227 N2214 0.985 . S
C2228 C2229 1.363 . S
C2228 C2234 1.379 . S
C2228 N2236 1.356 . S
C2229 C2228 1.363 . S
C2229 C2235 1.363 . S
C2230 C2231 1.363 . S
C2230 C2235 1.379 . S
C2230 N2237 1.356 . S
C2231 C2230 1.363 . S
C2231 C2234 1.363 . S
N2232 C2234 1.356 . S
N2232 H2244 0.984 . S
N2232 H2245 0.985 . S
N2233 C2235 1.356 . S
N2233 H2238 0.984 . S
N2233 H2239 0.985 . S
C2234 C2228 1.379 . S
C2234 C2231 1.363 . S
C2234 N2232 1.356 . S
C2235 C2229 1.363 . S
C2235 C2230 1.379 . S
C2235 N2233 1.356 . S
N2236 C2228 1.356 . S
N2236 H2242 0.984 . S
N2236 H2243 0.984 . S
N2237 C2230 1.356 . S
N2237 H2240 0.984 . S
N2237 H2241 0.985 . S
H2238 N2233 0.984 . S
H2239 N2233 0.985 . S
H2240 N2237 0.984 . S
H2241 N2237 0.985 . S
H2242 N2236 0.984 . S
H2243 N2236 0.984 . S
H2244 N2232 0.984 . S
H2245 N2232 0.985 . S
C2246 C2247 1.363 . S
C2246 C2252 1.379 . S
C2246 N2254 1.356 . S
C2247 C2246 1.363 . S
C2247 C2253 1.363 . S
C2248 C2249 1.363 . S
C2248 C2253 1.379 . S
C2248 N2255 1.356 . S
C2249 C2248 1.363 . S
C2249 C2252 1.363 . S
N2250 C2252 1.356 . S
N2250 H2262 0.984 . S
N2250 H2263 0.985 . S
N2251 C2253 1.356 . S
N2251 H2256 0.984 . S
N2251 H2257 0.985 . S
C2252 C2246 1.379 . S
C2252 C2249 1.363 . S
C2252 N2250 1.356 . S
C2253 C2247 1.363 . S
C2253 C2248 1.379 . S
C2253 N2251 1.356 . S
N2254 C2246 1.356 . S
N2254 H2260 0.984 . S
N2254 H2261 0.984 . S
N2255 C2248 1.356 . S
N2255 H2258 0.984 . S
N2255 H2259 0.985 . S
H2256 N2251 0.984 . S
H2257 N2251 0.985 . S
H2258 N2255 0.984 . S
H2259 N2255 0.985 . S
H2260 N2254 0.984 . S
H2261 N2254 0.984 . S
H2262 N2250 0.984 . S
H2263 N2250 0.985 . S
C2264 C2265 1.363 . S
C2264 C2270 1.379 . S
C2264 N2272 1.356 . S
C2265 C2264 1.363 . S
C2265 C2271 1.363 . S
C2266 C2267 1.363 . S
C2266 C2271 1.379 . S
C2266 N2273 1.356 . S
C2267 C2266 1.363 . S
C2267 C2270 1.363 . S
N2268 C2270 1.356 . S
N2268 H2280 0.984 . S
N2268 H2281 0.985 . S
N2269 C2271 1.356 . S
N2269 H2274 0.984 . S
N2269 H2275 0.985 . S
C2270 C2264 1.379 . S
C2270 C2267 1.363 . S
C2270 N2268 1.356 . S
C2271 C2265 1.363 . S
C2271 C2266 1.379 . S
C2271 N2269 1.356 . S
N2272 C2264 1.356 . S
N2272 H2278 0.984 . S
N2272 H2279 0.984 . S
N2273 C2266 1.356 . S
N2273 H2276 0.984 . S
N2273 H2277 0.985 . S
H2274 N2269 0.984 . S
H2275 N2269 0.985 . S
H2276 N2273 0.984 . S
H2277 N2273 0.985 . S
H2278 N2272 0.984 . S
H2279 N2272 0.984 . S
H2280 N2268 0.984 . S
H2281 N2268 0.985 . S
C2282 C2283 1.363 . S
C2282 C2288 1.379 . S
C2282 N2290 1.356 . S
C2283 C2282 1.363 . S
C2283 C2289 1.363 . S
C2284 C2285 1.363 . S
C2284 C2289 1.379 . S
C2284 N2291 1.356 . S
C2285 C2284 1.363 . S
C2285 C2288 1.363 . S
N2286 C2288 1.356 . S
N2286 H2298 0.984 . S
N2286 H2299 0.985 . S
N2287 C2289 1.356 . S
N2287 H2292 0.984 . S
N2287 H2293 0.985 . S
C2288 C2282 1.379 . S
C2288 C2285 1.363 . S
C2288 N2286 1.356 . S
C2289 C2283 1.363 . S
C2289 C2284 1.379 . S
C2289 N2287 1.356 . S
N2290 C2282 1.356 . S
N2290 H2296 0.984 . S
N2290 H2297 0.984 . S
N2291 C2284 1.356 . S
N2291 H2294 0.984 . S
N2291 H2295 0.985 . S
H2292 N2287 0.984 . S
H2293 N2287 0.985 . S
H2294 N2291 0.984 . S
H2295 N2291 0.985 . S
H2296 N2290 0.984 . S
H2297 N2290 0.984 . S
H2298 N2286 0.984 . S
H2299 N2286 0.985 . S
C2300 C2301 1.363 . S
C2300 C2306 1.379 . S
C2300 N2308 1.356 . S
C2301 C2300 1.363 . S
C2301 C2307 1.363 . S
C2302 C2303 1.363 . S
C2302 C2307 1.379 . S
C2302 N2309 1.356 . S
C2303 C2302 1.363 . S
C2303 C2306 1.363 . S
N2304 C2306 1.356 . S
N2304 H2316 0.984 . S
N2304 H2317 0.985 . S
N2305 C2307 1.356 . S
N2305 H2310 0.984 . S
N2305 H2311 0.985 . S
C2306 C2300 1.379 . S
C2306 C2303 1.363 . S
C2306 N2304 1.356 . S
C2307 C2301 1.363 . S
C2307 C2302 1.379 . S
C2307 N2305 1.356 . S
N2308 C2300 1.356 . S
N2308 H2314 0.984 . S
N2308 H2315 0.984 . S
N2309 C2302 1.356 . S
N2309 H2312 0.984 . S
N2309 H2313 0.985 . S
H2310 N2305 0.984 . S
H2311 N2305 0.985 . S
H2312 N2309 0.984 . S
H2313 N2309 0.985 . S
H2314 N2308 0.984 . S
H2315 N2308 0.984 . S
H2316 N2304 0.984 . S
H2317 N2304 0.985 . S
C2318 C2319 1.363 . S
C2318 C2324 1.379 . S
C2318 N2326 1.356 . S
C2319 C2318 1.363 . S
C2319 C2325 1.363 . S
C2320 C2321 1.363 . S
C2320 C2325 1.379 . S
C2320 N2327 1.356 . S
C2321 C2320 1.363 . S
C2321 C2324 1.363 . S
N2322 C2324 1.356 . S
N2322 H2334 0.984 . S
N2322 H2335 0.985 . S
N2323 C2325 1.356 . S
N2323 H2328 0.984 . S
N2323 H2329 0.985 . S
C2324 C2318 1.379 . S
C2324 C2321 1.363 . S
C2324 N2322 1.356 . S
C2325 C2319 1.363 . S
C2325 C2320 1.379 . S
C2325 N2323 1.356 . S
N2326 C2318 1.356 . S
N2326 H2332 0.984 . S
N2326 H2333 0.984 . S
N2327 C2320 1.356 . S
N2327 H2330 0.984 . S
N2327 H2331 0.985 . S
H2328 N2323 0.984 . S
H2329 N2323 0.985 . S
H2330 N2327 0.984 . S
H2331 N2327 0.985 . S
H2332 N2326 0.984 . S
H2333 N2326 0.984 . S
H2334 N2322 0.984 . S
H2335 N2322 0.985 . S
C2336 C2337 1.363 . S
C2336 C2342 1.379 . S
C2336 N2344 1.356 . S
C2337 C2336 1.363 . S
C2337 C2343 1.363 . S
C2338 C2339 1.363 . S
C2338 C2343 1.379 . S
C2338 N2345 1.356 . S
C2339 C2338 1.363 . S
C2339 C2342 1.363 . S
N2340 C2342 1.356 . S
N2340 H2352 0.984 . S
N2340 H2353 0.985 . S
N2341 C2343 1.356 . S
N2341 H2346 0.984 . S
N2341 H2347 0.985 . S
C2342 C2336 1.379 . S
C2342 C2339 1.363 . S
C2342 N2340 1.356 . S
C2343 C2337 1.363 . S
C2343 C2338 1.379 . S
C2343 N2341 1.356 . S
N2344 C2336 1.356 . S
N2344 H2350 0.984 . S
N2344 H2351 0.984 . S
N2345 C2338 1.356 . S
N2345 H2348 0.984 . S
N2345 H2349 0.985 . S
H2346 N2341 0.984 . S
H2347 N2341 0.985 . S
H2348 N2345 0.984 . S
H2349 N2345 0.985 . S
H2350 N2344 0.984 . S
H2351 N2344 0.984 . S
H2352 N2340 0.984 . S
H2353 N2340 0.985 . S
C2354 C2355 1.363 . S
C2354 C2360 1.379 . S
C2354 N2362 1.356 . S
C2355 C2354 1.363 . S
C2355 C2361 1.363 . S
C2356 C2357 1.363 . S
C2356 C2361 1.379 . S
C2356 N2363 1.356 . S
C2357 C2356 1.363 . S
C2357 C2360 1.363 . S
N2358 C2360 1.356 . S
N2358 H2370 0.984 . S
N2358 H2371 0.985 . S
N2359 C2361 1.356 . S
N2359 H2364 0.984 . S
N2359 H2365 0.985 . S
C2360 C2354 1.379 . S
C2360 C2357 1.363 . S
C2360 N2358 1.356 . S
C2361 C2355 1.363 . S
C2361 C2356 1.379 . S
C2361 N2359 1.356 . S
N2362 C2354 1.356 . S
N2362 H2368 0.984 . S
N2362 H2369 0.984 . S
N2363 C2356 1.356 . S
N2363 H2366 0.984 . S
N2363 H2367 0.985 . S
H2364 N2359 0.984 . S
H2365 N2359 0.985 . S
H2366 N2363 0.984 . S
H2367 N2363 0.985 . S
H2368 N2362 0.984 . S
H2369 N2362 0.984 . S
H2370 N2358 0.984 . S
H2371 N2358 0.985 . S
C2372 C2373 1.363 . S
C2372 C2378 1.379 . S
C2372 N2380 1.356 . S
C2373 C2372 1.363 . S
C2373 C2379 1.363 . S
C2374 C2375 1.363 . S
C2374 C2379 1.379 . S
C2374 N2381 1.356 . S
C2375 C2374 1.363 . S
C2375 C2378 1.363 . S
N2376 C2378 1.356 . S
N2376 H2388 0.984 . S
N2376 H2389 0.985 . S
N2377 C2379 1.356 . S
N2377 H2382 0.984 . S
N2377 H2383 0.985 . S
C2378 C2372 1.379 . S
C2378 C2375 1.363 . S
C2378 N2376 1.356 . S
C2379 C2373 1.363 . S
C2379 C2374 1.379 . S
C2379 N2377 1.356 . S
N2380 C2372 1.356 . S
N2380 H2386 0.984 . S
N2380 H2387 0.984 . S
N2381 C2374 1.356 . S
N2381 H2384 0.984 . S
N2381 H2385 0.985 . S
H2382 N2377 0.984 . S
H2383 N2377 0.985 . S
H2384 N2381 0.984 . S
H2385 N2381 0.985 . S
H2386 N2380 0.984 . S
H2387 N2380 0.984 . S
H2388 N2376 0.984 . S
H2389 N2376 0.985 . S
C2390 C2391 1.363 . S
C2390 C2396 1.379 . S
C2390 N2398 1.356 . S
C2391 C2390 1.363 . S
C2391 C2397 1.363 . S
C2392 C2393 1.363 . S
C2392 C2397 1.379 . S
C2392 N2399 1.356 . S
C2393 C2392 1.363 . S
C2393 C2396 1.363 . S
N2394 C2396 1.356 . S
N2394 H2406 0.984 . S
N2394 H2407 0.985 . S
N2395 C2397 1.356 . S
N2395 H2400 0.984 . S
N2395 H2401 0.985 . S
C2396 C2390 1.379 . S
C2396 C2393 1.363 . S
C2396 N2394 1.356 . S
C2397 C2391 1.363 . S
C2397 C2392 1.379 . S
C2397 N2395 1.356 . S
N2398 C2390 1.356 . S
N2398 H2404 0.984 . S
N2398 H2405 0.984 . S
N2399 C2392 1.356 . S
N2399 H2402 0.984 . S
N2399 H2403 0.985 . S
H2400 N2395 0.984 . S
H2401 N2395 0.985 . S
H2402 N2399 0.984 . S
H2403 N2399 0.985 . S
H2404 N2398 0.984 . S
H2405 N2398 0.984 . S
H2406 N2394 0.984 . S
H2407 N2394 0.985 . S
C2408 C2409 1.363 . S
C2408 C2414 1.379 . S
C2408 N2416 1.356 . S
C2409 C2408 1.363 . S
C2409 C2415 1.363 . S
C2410 C2411 1.363 . S
C2410 C2415 1.379 . S
C2410 N2417 1.356 . S
C2411 C2410 1.363 . S
C2411 C2414 1.363 . S
N2412 C2414 1.356 . S
N2412 H2424 0.984 . S
N2412 H2425 0.985 . S
N2413 C2415 1.356 . S
N2413 H2418 0.984 . S
N2413 H2419 0.985 . S
C2414 C2408 1.379 . S
C2414 C2411 1.363 . S
C2414 N2412 1.356 . S
C2415 C2409 1.363 . S
C2415 C2410 1.379 . S
C2415 N2413 1.356 . S
N2416 C2408 1.356 . S
N2416 H2422 0.984 . S
N2416 H2423 0.984 . S
N2417 C2410 1.356 . S
N2417 H2420 0.984 . S
N2417 H2421 0.985 . S
H2418 N2413 0.984 . S
H2419 N2413 0.985 . S
H2420 N2417 0.984 . S
H2421 N2417 0.985 . S
H2422 N2416 0.984 . S
H2423 N2416 0.984 . S
H2424 N2412 0.984 . S
H2425 N2412 0.985 . S
C2426 C2427 1.363 . S
C2426 C2432 1.379 . S
C2426 N2434 1.356 . S
C2427 C2426 1.363 . S
C2427 C2433 1.363 . S
C2428 C2429 1.363 . S
C2428 C2433 1.379 . S
C2428 N2435 1.356 . S
C2429 C2428 1.363 . S
C2429 C2432 1.363 . S
N2430 C2432 1.356 . S
N2430 H2442 0.984 . S
N2430 H2443 0.985 . S
N2431 C2433 1.356 . S
N2431 H2436 0.984 . S
N2431 H2437 0.985 . S
C2432 C2426 1.379 . S
C2432 C2429 1.363 . S
C2432 N2430 1.356 . S
C2433 C2427 1.363 . S
C2433 C2428 1.379 . S
C2433 N2431 1.356 . S
N2434 C2426 1.356 . S
N2434 H2440 0.984 . S
N2434 H2441 0.984 . S
N2435 C2428 1.356 . S
N2435 H2438 0.984 . S
N2435 H2439 0.985 . S
H2436 N2431 0.984 . S
H2437 N2431 0.985 . S
H2438 N2435 0.984 . S
H2439 N2435 0.985 . S
H2440 N2434 0.984 . S
H2441 N2434 0.984 . S
H2442 N2430 0.984 . S
H2443 N2430 0.985 . S
C2444 C2445 1.363 . S
C2444 C2450 1.379 . S
C2444 N2452 1.356 . S
C2445 C2444 1.363 . S
C2445 C2451 1.363 . S
C2446 C2447 1.363 . S
C2446 C2451 1.379 . S
C2446 N2453 1.356 . S
C2447 C2446 1.363 . S
C2447 C2450 1.363 . S
N2448 C2450 1.356 . S
N2448 H2460 0.984 . S
N2448 H2461 0.985 . S
N2449 C2451 1.356 . S
N2449 H2454 0.984 . S
N2449 H2455 0.985 . S
C2450 C2444 1.379 . S
C2450 C2447 1.363 . S
C2450 N2448 1.356 . S
C2451 C2445 1.363 . S
C2451 C2446 1.379 . S
C2451 N2449 1.356 . S
N2452 C2444 1.356 . S
N2452 H2458 0.984 . S
N2452 H2459 0.984 . S
N2453 C2446 1.356 . S
N2453 H2456 0.984 . S
N2453 H2457 0.985 . S
H2454 N2449 0.984 . S
H2455 N2449 0.985 . S
H2456 N2453 0.984 . S
H2457 N2453 0.985 . S
H2458 N2452 0.984 . S
H2459 N2452 0.984 . S
H2460 N2448 0.984 . S
H2461 N2448 0.985 . S
C2462 C2463 1.363 . S
C2462 C2468 1.379 . S
C2462 N2470 1.356 . S
C2463 C2462 1.363 . S
C2463 C2469 1.363 . S
C2464 C2465 1.363 . S
C2464 C2469 1.379 . S
C2464 N2471 1.356 . S
C2465 C2464 1.363 . S
C2465 C2468 1.363 . S
N2466 C2468 1.356 . S
N2466 H2478 0.984 . S
N2466 H2479 0.985 . S
N2467 C2469 1.356 . S
N2467 H2472 0.984 . S
N2467 H2473 0.985 . S
C2468 C2462 1.379 . S
C2468 C2465 1.363 . S
C2468 N2466 1.356 . S
C2469 C2463 1.363 . S
C2469 C2464 1.379 . S
C2469 N2467 1.356 . S
N2470 C2462 1.356 . S
N2470 H2476 0.984 . S
N2470 H2477 0.984 . S
N2471 C2464 1.356 . S
N2471 H2474 0.984 . S
N2471 H2475 0.985 . S
H2472 N2467 0.984 . S
H2473 N2467 0.985 . S
H2474 N2471 0.984 . S
H2475 N2471 0.985 . S
H2476 N2470 0.984 . S
H2477 N2470 0.984 . S
H2478 N2466 0.984 . S
H2479 N2466 0.985 . S
C2480 C2481 1.363 . S
C2480 C2486 1.379 . S
C2480 N2488 1.356 . S
C2481 C2480 1.363 . S
C2481 C2487 1.363 . S
C2482 C2483 1.363 . S
C2482 C2487 1.379 . S
C2482 N2489 1.356 . S
C2483 C2482 1.363 . S
C2483 C2486 1.363 . S
N2484 C2486 1.356 . S
N2484 H2496 0.984 . S
N2484 H2497 0.985 . S
N2485 C2487 1.356 . S
N2485 H2490 0.984 . S
N2485 H2491 0.985 . S
C2486 C2480 1.379 . S
C2486 C2483 1.363 . S
C2486 N2484 1.356 . S
C2487 C2481 1.363 . S
C2487 C2482 1.379 . S
C2487 N2485 1.356 . S
N2488 C2480 1.356 . S
N2488 H2494 0.984 . S
N2488 H2495 0.984 . S
N2489 C2482 1.356 . S
N2489 H2492 0.984 . S
N2489 H2493 0.985 . S
H2490 N2485 0.984 . S
H2491 N2485 0.985 . S
H2492 N2489 0.984 . S
H2493 N2489 0.985 . S
H2494 N2488 0.984 . S
H2495 N2488 0.984 . S
H2496 N2484 0.984 . S
H2497 N2484 0.985 . S
C2498 C2499 1.363 . S
C2498 C2504 1.379 . S
C2498 N2506 1.356 . S
C2499 C2498 1.363 . S
C2499 C2505 1.363 . S
C2500 C2501 1.363 . S
C2500 C2505 1.379 . S
C2500 N2507 1.356 . S
C2501 C2500 1.363 . S
C2501 C2504 1.363 . S
N2502 C2504 1.356 . S
N2502 H2514 0.984 . S
N2502 H2515 0.985 . S
N2503 C2505 1.356 . S
N2503 H2508 0.984 . S
N2503 H2509 0.985 . S
C2504 C2498 1.379 . S
C2504 C2501 1.363 . S
C2504 N2502 1.356 . S
C2505 C2499 1.363 . S
C2505 C2500 1.379 . S
C2505 N2503 1.356 . S
N2506 C2498 1.356 . S
N2506 H2512 0.984 . S
N2506 H2513 0.984 . S
N2507 C2500 1.356 . S
N2507 H2510 0.984 . S
N2507 H2511 0.985 . S
H2508 N2503 0.984 . S
H2509 N2503 0.985 . S
H2510 N2507 0.984 . S
H2511 N2507 0.985 . S
H2512 N2506 0.984 . S
H2513 N2506 0.984 . S
H2514 N2502 0.984 . S
H2515 N2502 0.985 . S
C2516 C2517 1.363 . S
C2516 C2522 1.379 . S
C2516 N2524 1.356 . S
C2517 C2516 1.363 . S
C2517 C2523 1.363 . S
C2518 C2519 1.363 . S
C2518 C2523 1.379 . S
C2518 N2525 1.356 . S
C2519 C2518 1.363 . S
C2519 C2522 1.363 . S
N2520 C2522 1.356 . S
N2520 H2532 0.984 . S
N2520 H2533 0.985 . S
N2521 C2523 1.356 . S
N2521 H2526 0.984 . S
N2521 H2527 0.985 . S
C2522 C2516 1.379 . S
C2522 C2519 1.363 . S
C2522 N2520 1.356 . S
C2523 C2517 1.363 . S
C2523 C2518 1.379 . S
C2523 N2521 1.356 . S
N2524 C2516 1.356 . S
N2524 H2530 0.984 . S
N2524 H2531 0.984 . S
N2525 C2518 1.356 . S
N2525 H2528 0.984 . S
N2525 H2529 0.985 . S
H2526 N2521 0.984 . S
H2527 N2521 0.985 . S
H2528 N2525 0.984 . S
H2529 N2525 0.985 . S
H2530 N2524 0.984 . S
H2531 N2524 0.984 . S
H2532 N2520 0.984 . S
H2533 N2520 0.985 . S
C2534 C2535 1.363 . S
C2534 C2540 1.379 . S
C2534 N2542 1.356 . S
C2535 C2534 1.363 . S
C2535 C2541 1.363 . S
C2536 C2537 1.363 . S
C2536 C2541 1.379 . S
C2536 N2543 1.356 . S
C2537 C2536 1.363 . S
C2537 C2540 1.363 . S
N2538 C2540 1.356 . S
N2538 H2550 0.984 . S
N2538 H2551 0.985 . S
N2539 C2541 1.356 . S
N2539 H2544 0.984 . S
N2539 H2545 0.985 . S
C2540 C2534 1.379 . S
C2540 C2537 1.363 . S
C2540 N2538 1.356 . S
C2541 C2535 1.363 . S
C2541 C2536 1.379 . S
C2541 N2539 1.356 . S
N2542 C2534 1.356 . S
N2542 H2548 0.984 . S
N2542 H2549 0.984 . S
N2543 C2536 1.356 . S
N2543 H2546 0.984 . S
N2543 H2547 0.985 . S
H2544 N2539 0.984 . S
H2545 N2539 0.985 . S
H2546 N2543 0.984 . S
H2547 N2543 0.985 . S
H2548 N2542 0.984 . S
H2549 N2542 0.984 . S
H2550 N2538 0.984 . S
H2551 N2538 0.985 . S
C2552 C2553 1.363 . S
C2552 C2558 1.379 . S
C2552 N2560 1.356 . S
C2553 C2552 1.363 . S
C2553 C2559 1.363 . S
C2554 C2555 1.363 . S
C2554 C2559 1.379 . S
C2554 N2561 1.356 . S
C2555 C2554 1.363 . S
C2555 C2558 1.363 . S
N2556 C2558 1.356 . S
N2556 H2568 0.984 . S
N2556 H2569 0.985 . S
N2557 C2559 1.356 . S
N2557 H2562 0.984 . S
N2557 H2563 0.985 . S
C2558 C2552 1.379 . S
C2558 C2555 1.363 . S
C2558 N2556 1.356 . S
C2559 C2553 1.363 . S
C2559 C2554 1.379 . S
C2559 N2557 1.356 . S
N2560 C2552 1.356 . S
N2560 H2566 0.984 . S
N2560 H2567 0.984 . S
N2561 C2554 1.356 . S
N2561 H2564 0.984 . S
N2561 H2565 0.985 . S
H2562 N2557 0.984 . S
H2563 N2557 0.985 . S
H2564 N2561 0.984 . S
H2565 N2561 0.985 . S
H2566 N2560 0.984 . S
H2567 N2560 0.984 . S
H2568 N2556 0.984 . S
H2569 N2556 0.985 . S
C2570 C2571 1.363 . S
C2570 C2576 1.379 . S
C2570 N2578 1.356 . S
C2571 C2570 1.363 . S
C2571 C2577 1.363 . S
C2572 C2573 1.363 . S
C2572 C2577 1.379 . S
C2572 N2579 1.356 . S
C2573 C2572 1.363 . S
C2573 C2576 1.363 . S
N2574 C2576 1.356 . S
N2574 H2586 0.984 . S
N2574 H2587 0.985 . S
N2575 C2577 1.356 . S
N2575 H2580 0.984 . S
N2575 H2581 0.985 . S
C2576 C2570 1.379 . S
C2576 C2573 1.363 . S
C2576 N2574 1.356 . S
C2577 C2571 1.363 . S
C2577 C2572 1.379 . S
C2577 N2575 1.356 . S
N2578 C2570 1.356 . S
N2578 H2584 0.984 . S
N2578 H2585 0.984 . S
N2579 C2572 1.356 . S
N2579 H2582 0.984 . S
N2579 H2583 0.985 . S
H2580 N2575 0.984 . S
H2581 N2575 0.985 . S
H2582 N2579 0.984 . S
H2583 N2579 0.985 . S
H2584 N2578 0.984 . S
H2585 N2578 0.984 . S
H2586 N2574 0.984 . S
H2587 N2574 0.985 . S
C2588 C2589 1.363 . S
C2588 C2594 1.379 . S
C2588 N2596 1.356 . S
C2589 C2588 1.363 . S
C2589 C2595 1.363 . S
C2590 C2591 1.363 . S
C2590 C2595 1.379 . S
C2590 N2597 1.356 . S
C2591 C2590 1.363 . S
C2591 C2594 1.363 . S
N2592 C2594 1.356 . S
N2592 H2604 0.984 . S
N2592 H2605 0.985 . S
N2593 C2595 1.356 . S
N2593 H2598 0.984 . S
N2593 H2599 0.985 . S
C2594 C2588 1.379 . S
C2594 C2591 1.363 . S
C2594 N2592 1.356 . S
C2595 C2589 1.363 . S
C2595 C2590 1.379 . S
C2595 N2593 1.356 . S
N2596 C2588 1.356 . S
N2596 H2602 0.984 . S
N2596 H2603 0.984 . S
N2597 C2590 1.356 . S
N2597 H2600 0.984 . S
N2597 H2601 0.985 . S
H2598 N2593 0.984 . S
H2599 N2593 0.985 . S
H2600 N2597 0.984 . S
H2601 N2597 0.985 . S
H2602 N2596 0.984 . S
H2603 N2596 0.984 . S
H2604 N2592 0.984 . S
H2605 N2592 0.985 . S
C2606 C2607 1.363 . S
C2606 C2612 1.379 . S
C2606 N2614 1.356 . S
C2607 C2606 1.363 . S
C2607 C2613 1.363 . S
C2608 C2609 1.363 . S
C2608 C2613 1.379 . S
C2608 N2615 1.356 . S
C2609 C2608 1.363 . S
C2609 C2612 1.363 . S
N2610 C2612 1.356 . S
N2610 H2622 0.984 . S
N2610 H2623 0.985 . S
N2611 C2613 1.356 . S
N2611 H2616 0.984 . S
N2611 H2617 0.985 . S
C2612 C2606 1.379 . S
C2612 C2609 1.363 . S
C2612 N2610 1.356 . S
C2613 C2607 1.363 . S
C2613 C2608 1.379 . S
C2613 N2611 1.356 . S
N2614 C2606 1.356 . S
N2614 H2620 0.984 . S
N2614 H2621 0.984 . S
N2615 C2608 1.356 . S
N2615 H2618 0.984 . S
N2615 H2619 0.985 . S
H2616 N2611 0.984 . S
H2617 N2611 0.985 . S
H2618 N2615 0.984 . S
H2619 N2615 0.985 . S
H2620 N2614 0.984 . S
H2621 N2614 0.984 . S
H2622 N2610 0.984 . S
H2623 N2610 0.985 . S
C2624 C2625 1.363 . S
C2624 C2630 1.379 . S
C2624 N2632 1.356 . S
C2625 C2624 1.363 . S
C2625 C2631 1.363 . S
C2626 C2627 1.363 . S
C2626 C2631 1.379 . S
C2626 N2633 1.356 . S
C2627 C2626 1.363 . S
C2627 C2630 1.363 . S
N2628 C2630 1.356 . S
N2628 H2640 0.984 . S
N2628 H2641 0.985 . S
N2629 C2631 1.356 . S
N2629 H2634 0.984 . S
N2629 H2635 0.985 . S
C2630 C2624 1.379 . S
C2630 C2627 1.363 . S
C2630 N2628 1.356 . S
C2631 C2625 1.363 . S
C2631 C2626 1.379 . S
C2631 N2629 1.356 . S
N2632 C2624 1.356 . S
N2632 H2638 0.984 . S
N2632 H2639 0.984 . S
N2633 C2626 1.356 . S
N2633 H2636 0.984 . S
N2633 H2637 0.985 . S
H2634 N2629 0.984 . S
H2635 N2629 0.985 . S
H2636 N2633 0.984 . S
H2637 N2633 0.985 . S
H2638 N2632 0.984 . S
H2639 N2632 0.984 . S
H2640 N2628 0.984 . S
H2641 N2628 0.985 . S
C2642 C2643 1.363 . S
C2642 C2648 1.379 . S
C2642 N2650 1.356 . S
C2643 C2642 1.363 . S
C2643 C2649 1.363 . S
C2644 C2645 1.363 . S
C2644 C2649 1.379 . S
C2644 N2651 1.356 . S
C2645 C2644 1.363 . S
C2645 C2648 1.363 . S
N2646 C2648 1.356 . S
N2646 H2658 0.984 . S
N2646 H2659 0.985 . S
N2647 C2649 1.356 . S
N2647 H2652 0.984 . S
N2647 H2653 0.985 . S
C2648 C2642 1.379 . S
C2648 C2645 1.363 . S
C2648 N2646 1.356 . S
C2649 C2643 1.363 . S
C2649 C2644 1.379 . S
C2649 N2647 1.356 . S
N2650 C2642 1.356 . S
N2650 H2656 0.984 . S
N2650 H2657 0.984 . S
N2651 C2644 1.356 . S
N2651 H2654 0.984 . S
N2651 H2655 0.985 . S
H2652 N2647 0.984 . S
H2653 N2647 0.985 . S
H2654 N2651 0.984 . S
H2655 N2651 0.985 . S
H2656 N2650 0.984 . S
H2657 N2650 0.984 . S
H2658 N2646 0.984 . S
H2659 N2646 0.985 . S
C2660 C2661 1.363 . S
C2660 C2666 1.379 . S
C2660 N2668 1.356 . S
C2661 C2660 1.363 . S
C2661 C2667 1.363 . S
C2662 C2663 1.363 . S
C2662 C2667 1.379 . S
C2662 N2669 1.356 . S
C2663 C2662 1.363 . S
C2663 C2666 1.363 . S
N2664 C2666 1.356 . S
N2664 H2676 0.984 . S
N2664 H2677 0.985 . S
N2665 C2667 1.356 . S
N2665 H2670 0.984 . S
N2665 H2671 0.985 . S
C2666 C2660 1.379 . S
C2666 C2663 1.363 . S
C2666 N2664 1.356 . S
C2667 C2661 1.363 . S
C2667 C2662 1.379 . S
C2667 N2665 1.356 . S
N2668 C2660 1.356 . S
N2668 H2674 0.984 . S
N2668 H2675 0.984 . S
N2669 C2662 1.356 . S
N2669 H2672 0.984 . S
N2669 H2673 0.985 . S
H2670 N2665 0.984 . S
H2671 N2665 0.985 . S
H2672 N2669 0.984 . S
H2673 N2669 0.985 . S
H2674 N2668 0.984 . S
H2675 N2668 0.984 . S
H2676 N2664 0.984 . S
H2677 N2664 0.985 . S
C2678 C2679 1.363 . S
C2678 C2684 1.379 . S
C2678 N2686 1.356 . S
C2679 C2678 1.363 . S
C2679 C2685 1.363 . S
C2680 C2681 1.363 . S
C2680 C2685 1.379 . S
C2680 N2687 1.356 . S
C2681 C2680 1.363 . S
C2681 C2684 1.363 . S
N2682 C2684 1.356 . S
N2682 H2694 0.984 . S
N2682 H2695 0.985 . S
N2683 C2685 1.356 . S
N2683 H2688 0.984 . S
N2683 H2689 0.985 . S
C2684 C2678 1.379 . S
C2684 C2681 1.363 . S
C2684 N2682 1.356 . S
C2685 C2679 1.363 . S
C2685 C2680 1.379 . S
C2685 N2683 1.356 . S
N2686 C2678 1.356 . S
N2686 H2692 0.984 . S
N2686 H2693 0.984 . S
N2687 C2680 1.356 . S
N2687 H2690 0.984 . S
N2687 H2691 0.985 . S
H2688 N2683 0.984 . S
H2689 N2683 0.985 . S
H2690 N2687 0.984 . S
H2691 N2687 0.985 . S
H2692 N2686 0.984 . S
H2693 N2686 0.984 . S
H2694 N2682 0.984 . S
H2695 N2682 0.985 . S
C971 N428 1.610 . S
C969 N5 1.678 . S
C989 C455 1.728 . S
C987 N15 1.752 . S
C1005 N31 1.660 . S
C1007 C469 1.678 . S
C1025 N487 1.467 . S
C1023 N40 1.542 . S
C1041 N53 1.574 . S
C1043 C492 1.525 . S
C1059 N70 1.596 . S
C1061 C432 1.607 . S
C1077 N80 1.490 . S
C1079 N451 1.453 . S
C1097 N464 1.655 . S
C1095 N92 1.688 . S
C1115 N510 1.567 . S
C1113 N2 1.686 . S
C1131 N14 1.477 . S
C1133 N533 1.467 . S
C1149 N27 1.704 . S
C1151 N556 1.681 . S
C1169 N589 1.600 . S
C1167 N44 1.691 . S
C1185 N54 1.445 . S
C1187 C616 1.462 . S
C1205 C639 1.492 . S
C1203 N67 1.485 . S
C1221 N83 1.351 . S
C1223 C662 1.348 1_655 S
C1241 C676 1.533 1_565 S
C1239 N93 1.560 . S
C1257 N1 1.612 . S
C1259 C593 1.554 . S
C1275 N57 1.480 . S
C1277 N635 1.445 . S
C1295 N658 1.671 . S
C1293 N66 1.696 . S
C1311 N79 1.821 . S
C1313 N671 1.783 . S
C1331 N612 1.667 . S
C1329 N96 1.721 . S
C1349 C538 1.616 . S
C1347 N28 1.622 . S
C1365 N41 1.451 . S
C1367 C561 1.445 . S
C1385 C515 1.593 . S
C1383 N18 1.674 . S
C1403 C708 1.694 . S
C1401 N109 1.694 . S
C1419 N119 1.601 . S
C1421 C722 1.559 . S
C1437 N135 1.588 . S
C1439 N750 1.546 . S
C1457 N763 1.449 . S
C1455 N144 1.513 . S
C1473 N157 1.642 . S
C1475 C768 1.579 . S
C1491 N174 1.606 . S
C1493 N704 1.555 . S
C1509 N184 1.587 . S
C1511 N717 1.481 . S
C1527 N196 1.687 . S
C1529 C754 1.684 . S
C1547 N602 1.552 . S
C1545 N106 1.668 . S
C1563 N118 1.482 . S
C1565 N786 1.417 . S
C1583 N648 1.606 . S
C1581 N131 1.622 . S
C1599 N148 1.787 . S
C1601 C823 1.768 . S
C1617 N158 1.617 . S
C1619 C524 1.607 . S
C1637 C837 1.524 . S
C1635 N171 1.526 . S
C1653 N187 1.434 . S
C1655 C570 1.416 . S
C1673 N855 1.509 . S
C1671 N197 1.641 . S
C1689 N105 1.634 . S
C1691 N819 1.587 . S
C1709 N832 1.433 . S
C1707 N161 1.499 . S
C1725 N170 1.732 . S
C1727 N566 1.697 . S
C1745 C860 1.695 . S
C1743 N183 1.730 . S
C1761 N200 1.726 . S
C1763 N520 1.674 . S
C1779 N132 1.550 . S
C1781 C791 1.542 . S
C1797 N145 1.481 . S
C1799 C653 1.476 . S
C1815 N122 1.461 . S
C1817 C607 1.422 . S
C1833 N213 1.720 . S
C1835 C745 1.717 . S
C1853 C777 1.606 . S
C1851 N223 1.622 . S
C1869 N239 1.613 . S
C1871 N694 1.609 . S
C1887 N248 1.531 . S
C1889 N727 1.507 . S
C1905 N261 1.634 . S
C1907 C731 1.610 . S
C1923 N278 1.615 . S
C1925 N740 1.594 . S
C1943 N773 1.431 . S
C1941 N288 1.472 . S
C1959 N300 1.731 . S
C1961 C699 1.728 . S
C1979 N888 1.703 . S
C1977 N210 1.729 . S
C1995 N222 1.484 . S
C1997 N625 1.426 . S
C2015 N911 1.554 . S
C2013 N235 1.638 . S
C2031 N252 1.773 . S
C2033 N681 1.669 . S
C2049 N262 1.541 . S
C2051 C929 1.512 . S
C2067 N275 1.537 . S
C2069 C547 1.545 . S
C2087 N947 1.294 . S
C2085 N291 1.354 . S
C2103 N301 1.585 . S
C2105 C584 1.560 . S
C2123 C685 1.596 . S
C2121 N209 1.654 . S
C2141 N543 1.428 . S
C2139 N265 1.468 . S
C2157 N274 1.786 . S
C2159 C952 1.817 . S
C2175 N287 1.728 . S
C2177 N579 1.703 . S
C2195 N924 1.633 . S
C2193 N304 1.768 . S
C2213 C630 1.561 . S
C2211 N236 1.569 . S
C2231 C915 1.452 . S
C2229 N249 1.471 . S
C2249 C892 1.537 . S
C2247 N226 1.561 . S
C2265 N317 1.625 . S
C2267 N474 1.565 . S
C2283 N327 1.594 . S
C2285 C501 1.601 . S
C2303 C423 1.675 . S
C2301 N343 1.652 . S
C2321 N441 1.410 . S
C2319 N352 1.480 . S
C2339 C446 1.640 . S
C2337 N365 1.727 . S
C2357 C478 1.619 . S
C2355 N382 1.613 . S
C2375 N497 1.538 . S
C2373 N392 1.579 . S
C2391 N404 1.692 . S
C2393 N418 1.661 . S
C2409 N314 1.633 . S
C2411 N934 1.611 . S
C2429 N842 1.458 . S
C2427 N326 1.461 . S
C2447 C961 1.743 . S
C2445 N339 1.741 . S
C2465 C869 1.604 . S
C2463 N356 1.614 . S
C2481 N366 1.555 . S
C2483 C883 1.528 . S
C2501 C800 1.503 . S
C2499 N379 1.495 . S
C2519 C906 1.490 . S
C2517 N395 1.480 . S
C2535 N405 1.579 . S
C2537 N809 1.465 . S
C2555 N865 1.587 . S
C2553 N313 1.650 . S
C2573 N796 1.438 . S
C2571 N369 1.467 . S
C2591 N901 1.761 . S
C2589 N378 1.723 . S
C2607 N391 1.844 . S
C2609 C814 1.791 . S
C2625 N408 1.729 . S
C2627 N878 1.596 . S
C2643 N340 1.656 . S
C2645 C846 1.655 . S
C2661 N353 1.438 . S
C2663 N957 1.394 . S
C2681 C938 1.535 . S
C2679 N330 1.567 . S
