# Generated by pormake.
# Topology eea, (3,6)-cn, num edge types: 1
# Building blocks:
#     Node 0, Type 0, BuildingBlock: BELTOD_clean_linker_0, # of connection points: 3
#     Node 1, Type 0, BuildingBlock: BELTOD_clean_linker_0, # of connection points: 3
#     Node 2, Type 0, BuildingBlock: BELTOD_clean_linker_0, # of connection points: 3
#     Node 3, Type 0, BuildingBlock: BELTOD_clean_linker_0, # of connection points: 3
#     Node 4, Type 0, BuildingBlock: BELTOD_clean_linker_0, # of connection points: 3
#     Node 5, Type 0, BuildingBlock: BELTOD_clean_linker_0, # of connection points: 3
#     Node 6, Type 0, BuildingBlock: BELTOD_clean_linker_0, # of connection points: 3
#     Node 7, Type 0, BuildingBlock: BELTOD_clean_linker_0, # of connection points: 3
#     Node 8, Type 0, BuildingBlock: BELTOD_clean_linker_0, # of connection points: 3
#     Node 9, Type 0, BuildingBlock: BELTOD_clean_linker_0, # of connection points: 3
#     Node 10, Type 0, BuildingBlock: BELTOD_clean_linker_0, # of connection points: 3
#     Node 11, Type 0, BuildingBlock: BELTOD_clean_linker_0, # of connection points: 3
#     Node 12, Type 0, BuildingBlock: BELTOD_clean_linker_0, # of connection points: 3
#     Node 13, Type 0, BuildingBlock: BELTOD_clean_linker_0, # of connection points: 3
#     Node 14, Type 0, BuildingBlock: BELTOD_clean_linker_0, # of connection points: 3
#     Node 15, Type 0, BuildingBlock: BELTOD_clean_linker_0, # of connection points: 3
#     Node 16, Type 0, BuildingBlock: BELTOD_clean_linker_0, # of connection points: 3
#     Node 17, Type 0, BuildingBlock: BELTOD_clean_linker_0, # of connection points: 3
#     Node 18, Type 1, BuildingBlock: CUKXOW_clean_sbu_0, # of connection points: 6
#     Node 19, Type 1, BuildingBlock: CUKXOW_clean_sbu_0, # of connection points: 6
#     Node 20, Type 1, BuildingBlock: CUKXOW_clean_sbu_0, # of connection points: 6
#     Node 21, Type 1, BuildingBlock: CUKXOW_clean_sbu_0, # of connection points: 6
#     Node 22, Type 1, BuildingBlock: CUKXOW_clean_sbu_0, # of connection points: 6
#     Node 23, Type 1, BuildingBlock: CUKXOW_clean_sbu_0, # of connection points: 6
#     Node 24, Type 1, BuildingBlock: CUKXOW_clean_sbu_0, # of connection points: 6
#     Node 25, Type 1, BuildingBlock: CUKXOW_clean_sbu_0, # of connection points: 6
#     Node 26, Type 1, BuildingBlock: CUKXOW_clean_sbu_0, # of connection points: 6
#     Edge 27, Type (0, 1), BuildingBlock: UVAHIK_clean_linker_0, # of connection points: 2
#     Edge 28, Type (0, 1), BuildingBlock: UVAHIK_clean_linker_0, # of connection points: 2
#     Edge 29, Type (0, 1), BuildingBlock: UVAHIK_clean_linker_0, # of connection points: 2
#     Edge 30, Type (0, 1), BuildingBlock: UVAHIK_clean_linker_0, # of connection points: 2
#     Edge 31, Type (0, 1), BuildingBlock: UVAHIK_clean_linker_0, # of connection points: 2
#     Edge 32, Type (0, 1), BuildingBlock: UVAHIK_clean_linker_0, # of connection points: 2
#     Edge 33, Type (0, 1), BuildingBlock: UVAHIK_clean_linker_0, # of connection points: 2
#     Edge 34, Type (0, 1), BuildingBlock: UVAHIK_clean_linker_0, # of connection points: 2
#     Edge 35, Type (0, 1), BuildingBlock: UVAHIK_clean_linker_0, # of connection points: 2
#     Edge 36, Type (0, 1), BuildingBlock: UVAHIK_clean_linker_0, # of connection points: 2
#     Edge 37, Type (0, 1), BuildingBlock: UVAHIK_clean_linker_0, # of connection points: 2
#     Edge 38, Type (0, 1), BuildingBlock: UVAHIK_clean_linker_0, # of connection points: 2
#     Edge 39, Type (0, 1), BuildingBlock: UVAHIK_clean_linker_0, # of connection points: 2
#     Edge 40, Type (0, 1), BuildingBlock: UVAHIK_clean_linker_0, # of connection points: 2
#     Edge 41, Type (0, 1), BuildingBlock: UVAHIK_clean_linker_0, # of connection points: 2
#     Edge 42, Type (0, 1), BuildingBlock: UVAHIK_clean_linker_0, # of connection points: 2
#     Edge 43, Type (0, 1), BuildingBlock: UVAHIK_clean_linker_0, # of connection points: 2
#     Edge 44, Type (0, 1), BuildingBlock: UVAHIK_clean_linker_0, # of connection points: 2
#     Edge 45, Type (0, 1), BuildingBlock: UVAHIK_clean_linker_0, # of connection points: 2
#     Edge 46, Type (0, 1), BuildingBlock: UVAHIK_clean_linker_0, # of connection points: 2
#     Edge 47, Type (0, 1), BuildingBlock: UVAHIK_clean_linker_0, # of connection points: 2
#     Edge 48, Type (0, 1), BuildingBlock: UVAHIK_clean_linker_0, # of connection points: 2
#     Edge 49, Type (0, 1), BuildingBlock: UVAHIK_clean_linker_0, # of connection points: 2
#     Edge 50, Type (0, 1), BuildingBlock: UVAHIK_clean_linker_0, # of connection points: 2
#     Edge 51, Type (0, 1), BuildingBlock: UVAHIK_clean_linker_0, # of connection points: 2
#     Edge 52, Type (0, 1), BuildingBlock: UVAHIK_clean_linker_0, # of connection points: 2
#     Edge 53, Type (0, 1), BuildingBlock: UVAHIK_clean_linker_0, # of connection points: 2
#     Edge 54, Type (0, 1), BuildingBlock: UVAHIK_clean_linker_0, # of connection points: 2
#     Edge 55, Type (0, 1), BuildingBlock: UVAHIK_clean_linker_0, # of connection points: 2
#     Edge 56, Type (0, 1), BuildingBlock: UVAHIK_clean_linker_0, # of connection points: 2
#     Edge 57, Type (0, 1), BuildingBlock: UVAHIK_clean_linker_0, # of connection points: 2
#     Edge 58, Type (0, 1), BuildingBlock: UVAHIK_clean_linker_0, # of connection points: 2
#     Edge 59, Type (0, 1), BuildingBlock: UVAHIK_clean_linker_0, # of connection points: 2
#     Edge 60, Type (0, 1), BuildingBlock: UVAHIK_clean_linker_0, # of connection points: 2
#     Edge 61, Type (0, 1), BuildingBlock: UVAHIK_clean_linker_0, # of connection points: 2
#     Edge 62, Type (0, 1), BuildingBlock: UVAHIK_clean_linker_0, # of connection points: 2
#     Edge 63, Type (0, 1), BuildingBlock: UVAHIK_clean_linker_0, # of connection points: 2
#     Edge 64, Type (0, 1), BuildingBlock: UVAHIK_clean_linker_0, # of connection points: 2
#     Edge 65, Type (0, 1), BuildingBlock: UVAHIK_clean_linker_0, # of connection points: 2
#     Edge 66, Type (0, 1), BuildingBlock: UVAHIK_clean_linker_0, # of connection points: 2
#     Edge 67, Type (0, 1), BuildingBlock: UVAHIK_clean_linker_0, # of connection points: 2
#     Edge 68, Type (0, 1), BuildingBlock: UVAHIK_clean_linker_0, # of connection points: 2
#     Edge 69, Type (0, 1), BuildingBlock: UVAHIK_clean_linker_0, # of connection points: 2
#     Edge 70, Type (0, 1), BuildingBlock: UVAHIK_clean_linker_0, # of connection points: 2
#     Edge 71, Type (0, 1), BuildingBlock: UVAHIK_clean_linker_0, # of connection points: 2
#     Edge 72, Type (0, 1), BuildingBlock: UVAHIK_clean_linker_0, # of connection points: 2
#     Edge 73, Type (0, 1), BuildingBlock: UVAHIK_clean_linker_0, # of connection points: 2
#     Edge 74, Type (0, 1), BuildingBlock: UVAHIK_clean_linker_0, # of connection points: 2
#     Edge 75, Type (0, 1), BuildingBlock: UVAHIK_clean_linker_0, # of connection points: 2
#     Edge 76, Type (0, 1), BuildingBlock: UVAHIK_clean_linker_0, # of connection points: 2
#     Edge 77, Type (0, 1), BuildingBlock: UVAHIK_clean_linker_0, # of connection points: 2
#     Edge 78, Type (0, 1), BuildingBlock: UVAHIK_clean_linker_0, # of connection points: 2
#     Edge 79, Type (0, 1), BuildingBlock: UVAHIK_clean_linker_0, # of connection points: 2
#     Edge 80, Type (0, 1), BuildingBlock: UVAHIK_clean_linker_0, # of connection points: 2
# Relax obj value: 0.016
# Max RMSD: 0.123
# Mean RMSD: 0.047
data_MOF--net-eea--node1-CUKXOW_clean_sbu_0--node2-BELTOD_clean_linker_0--edge1-UVAHIK_clean_linker_0
_symmetry_space_group_name_H-M    P1
_symmetry_Int_Tables_number       1
_symmetry_cell_setting            triclinic
loop_
_symmetry_equiv_pos_as_xyz
'x, y, z'
_cell_length_a     78.690696
_cell_length_b     75.653858
_cell_length_c     84.234232
_cell_angle_alpha  93.385345
_cell_angle_beta   92.98561
_cell_angle_gamma 119.92997
loop_
_atom_site_label
_atom_site_type_symbol
_atom_site_fract_x
_atom_site_fract_y
_atom_site_fract_z
_atom_type_partial_charge
P0 P 0.30314 0.16429 0.41882 0.0
H1 H 0.29625 0.14349 0.387 0.0
H2 H 0.27611 0.1076 0.37614 0.0
H3 H 0.25749 0.09096 0.42305 0.0
H4 H 0.27709 0.12684 0.43364 0.0
H5 H 0.31847 0.20684 0.41248 0.0
H6 H 0.30255 0.22569 0.40352 0.0
H7 H 0.24564 0.1707 0.4024 0.0
H8 H 0.26166 0.15214 0.4117 0.0
H9 H 0.32956 0.15801 0.43996 0.0
H10 H 0.28469 0.17435 0.44471 0.0
O11 O 0.32496 0.17408 0.41139 0.0
H12 H 0.33349 0.15811 0.46895 0.0
H13 H 0.2884 0.17429 0.47371 0.0
C14 C 0.2885 0.13776 0.41115 0.0
C15 C 0.28786 0.13206 0.39492 0.0
C16 C 0.27639 0.11154 0.38876 0.0
C17 C 0.26529 0.09635 0.39875 0.0
C18 C 0.26571 0.10225 0.41499 0.0
C19 C 0.27713 0.12279 0.42111 0.0
C20 C 0.29127 0.17803 0.4124 0.0
C21 C 0.30258 0.19887 0.41025 0.0
C22 C 0.29346 0.20958 0.40508 0.0
C23 C 0.27283 0.19964 0.4021 0.0
C24 C 0.26154 0.17883 0.40467 0.0
C25 C 0.27069 0.16815 0.40984 0.0
C26 C 0.30711 0.16652 0.44023 0.0
C27 C 0.32074 0.16187 0.44728 0.0
C28 C 0.32283 0.16176 0.46382 0.0
C29 C 0.31123 0.16619 0.47362 0.0
C30 C 0.29772 0.17108 0.4665 0.0
C31 C 0.29559 0.1711 0.44992 0.0
P32 P 0.88809 0.09876 0.44777 0.0
H33 H 0.88129 0.07895 0.4157 0.0
H34 H 0.8513 0.05562 0.39866 0.0
H35 H 0.81693 0.06636 0.4323 0.0
H36 H 0.84677 0.08844 0.4497 0.0
H37 H 0.92825 0.10682 0.44607 0.0
H38 H 0.95616 0.13203 0.43317 0.0
H39 H 0.92115 0.15758 0.41599 0.0
H40 H 0.89301 0.13198 0.42877 0.0
H41 H 0.89288 0.09491 0.48177 0.0
H42 H 0.87524 0.12896 0.45248 0.0
O43 O 0.89323 0.08096 0.45327 0.0
H44 H 0.8858 0.10905 0.50556 0.0
H45 H 0.86812 0.14329 0.47642 0.0
C46 C 0.86636 0.08562 0.43389 0.0
C47 C 0.86731 0.07658 0.41923 0.0
C48 C 0.85009 0.06332 0.40943 0.0
C49 C 0.83157 0.05893 0.41411 0.0
C50 C 0.83086 0.06904 0.42842 0.0
C51 C 0.84805 0.08199 0.43833 0.0
C52 C 0.90854 0.11748 0.43829 0.0
C53 C 0.92649 0.11774 0.43946 0.0
C54 C 0.94243 0.13212 0.43206 0.0
C55 C 0.94077 0.14667 0.42352 0.0
C56 C 0.92284 0.14658 0.42257 0.0
C57 C 0.90679 0.13199 0.42984 0.0
C58 C 0.88441 0.11073 0.46533 0.0
C59 C 0.88765 0.10558 0.48044 0.0
C60 C 0.88369 0.11377 0.49407 0.0
C61 C 0.87637 0.12725 0.49284 0.0
C62 C 0.8736 0.1328 0.4777 0.0
C63 C 0.87777 0.12474 0.46405 0.0
P64 P 0.85691 0.70666 0.42753 0.0
H65 H 0.84027 0.70828 0.39639 0.0
H66 H 0.82164 0.72448 0.38762 0.0
H67 H 0.82605 0.74894 0.4363 0.0
H68 H 0.84455 0.7326 0.44498 0.0
H69 H 0.88593 0.69449 0.42173 0.0
H70 H 0.91984 0.71322 0.41464 0.0
H71 H 0.91701 0.76888 0.41589 0.0
H72 H 0.88302 0.74996 0.4228 0.0
H73 H 0.82597 0.67927 0.44613 0.0
H74 H 0.88605 0.72887 0.4553 0.0
O75 O 0.84611 0.68324 0.41781 0.0
H76 H 0.82412 0.67595 0.47479 0.0
H77 H 0.88427 0.72574 0.48397 0.0
C78 C 0.84341 0.71888 0.42135 0.0
C79 C 0.83716 0.71708 0.40517 0.0
C80 C 0.82665 0.72648 0.40016 0.0
C81 C 0.82229 0.73791 0.41129 0.0
C82 C 0.82891 0.73996 0.42749 0.0
C83 C 0.8395 0.73064 0.43246 0.0
C84 C 0.88186 0.72074 0.42241 0.0
C85 C 0.89261 0.7107 0.4204 0.0
C86 C 0.91204 0.72147 0.41649 0.0
C87 C 0.92109 0.74253 0.41462 0.0
C88 C 0.91035 0.75261 0.41698 0.0
C89 C 0.89092 0.74182 0.42094 0.0
C90 C 0.85622 0.70404 0.44859 0.0
C91 C 0.8388 0.68935 0.45432 0.0
C92 C 0.83772 0.68759 0.47069 0.0
C93 C 0.85408 0.70057 0.48163 0.0
C94 C 0.87153 0.71533 0.47582 0.0
C95 C 0.87255 0.71715 0.45943 0.0
P96 P 0.14229 0.29968 0.58276 0.0
H97 H 0.11901 0.31634 0.59574 0.0
H98 H 0.08518 0.30042 0.60299 0.0
H99 H 0.07611 0.24074 0.58697 0.0
H100 H 0.11008 0.25683 0.5798 0.0
H101 H 0.17138 0.29329 0.56682 0.0
H102 H 0.18704 0.2732 0.57265 0.0
H103 H 0.153 0.2518 0.61305 0.0
H104 H 0.13753 0.27217 0.60731 0.0
H105 H 0.17134 0.33361 0.56679 0.0
H106 H 0.11641 0.27743 0.5535 0.0
O107 O 0.15552 0.32158 0.5945 0.0
H108 H 0.17439 0.34027 0.53873 0.0
H109 H 0.11937 0.28401 0.5254 0.0
C110 C 0.11717 0.28772 0.58763 0.0
C111 C 0.10976 0.29983 0.59383 0.0
C112 C 0.09037 0.29072 0.59785 0.0
C113 C 0.07802 0.2693 0.59565 0.0
C114 C 0.08538 0.25724 0.58905 0.0
C115 C 0.10476 0.26641 0.58495 0.0
C116 C 0.15284 0.28378 0.58636 0.0
C117 C 0.16707 0.28411 0.57682 0.0
C118 C 0.17611 0.27272 0.58021 0.0
C119 C 0.1711 0.26082 0.59322 0.0
C120 C 0.15688 0.26055 0.60278 0.0
C121 C 0.14803 0.27217 0.5995 0.0
C122 C 0.14348 0.30524 0.56225 0.0
C123 C 0.1598 0.32285 0.55785 0.0
C124 C 0.1616 0.32656 0.54181 0.0
C125 C 0.14709 0.31267 0.52988 0.0
C126 C 0.13064 0.29511 0.53435 0.0
C127 C 0.12894 0.29134 0.55041 0.0
P128 P 0.77511 0.8831 0.56187 0.0
H129 H 0.80832 0.92335 0.57327 0.0
H130 H 0.81148 0.95206 0.59024 0.0
H131 H 0.74961 0.91703 0.59743 0.0
H132 H 0.74639 0.88852 0.5796 0.0
H133 H 0.79006 0.85522 0.55679 0.0
H134 H 0.78908 0.82812 0.57168 0.0
H135 H 0.75548 0.83867 0.6061 0.0
H136 H 0.7565 0.86584 0.59111 0.0
H137 H 0.74979 0.89866 0.54946 0.0
H138 H 0.75735 0.84658 0.53931 0.0
O139 O 0.79557 0.89227 0.55245 0.0
H140 H 0.72593 0.88734 0.5262 0.0
H141 H 0.7346 0.83591 0.51543 0.0
C142 C 0.77708 0.90386 0.57503 0.0
C143 C 0.79538 0.9218 0.57843 0.0
C144 C 0.79722 0.93819 0.58835 0.0
C145 C 0.78083 0.93689 0.59534 0.0
C146 C 0.76251 0.91868 0.59212 0.0
C147 C 0.76066 0.9023 0.58203 0.0
C148 C 0.77367 0.86284 0.57296 0.0
C149 C 0.78246 0.85173 0.56753 0.0
C150 C 0.78174 0.8361 0.57598 0.0
C151 C 0.77219 0.83127 0.59007 0.0
C152 C 0.7631 0.8422 0.59537 0.0
C153 C 0.76369 0.85776 0.58679 0.0
C154 C 0.755 0.87317 0.54644 0.0
C155 C 0.74603 0.88453 0.54246 0.0
C156 C 0.73259 0.8782 0.52892 0.0
C157 C 0.72834 0.86073 0.51877 0.0
C158 C 0.7371 0.84918 0.52304 0.0
C159 C 0.75024 0.85533 0.53674 0.0
P160 P 0.14565 0.83404 0.58373 0.0
H161 H 0.1608 0.85333 0.61613 0.0
H162 H 0.17525 0.88866 0.62806 0.0
H163 H 0.1691 0.90756 0.58168 0.0
H164 H 0.15413 0.87215 0.57 0.0
H165 H 0.12135 0.79361 0.59479 0.0
H166 H 0.08781 0.77608 0.60285 0.0
H167 H 0.08128 0.82746 0.59147 0.0
H168 H 0.11478 0.84482 0.58332 0.0
H169 H 0.17884 0.84466 0.56517 0.0
H170 H 0.1166 0.82188 0.55567 0.0
O171 O 0.1579 0.82361 0.59194 0.0
H172 H 0.18242 0.84539 0.53653 0.0
H173 H 0.12011 0.82291 0.52705 0.0
C174 C 0.15685 0.86023 0.59215 0.0
C175 C 0.16269 0.86513 0.60855 0.0
C176 C 0.17098 0.88534 0.61533 0.0
C177 C 0.17348 0.901 0.60581 0.0
C178 C 0.16726 0.89588 0.58938 0.0
C179 C 0.1589 0.87565 0.58264 0.0
C180 C 0.12059 0.82061 0.58869 0.0
C181 C 0.11268 0.80107 0.594 0.0
C182 C 0.09355 0.79111 0.59865 0.0
C183 C 0.08197 0.80047 0.59791 0.0
C184 C 0.08979 0.81981 0.59209 0.0
C185 C 0.10896 0.8298 0.58754 0.0
C186 C 0.14746 0.83301 0.56253 0.0
C187 C 0.16593 0.83968 0.55689 0.0
C188 C 0.16797 0.84027 0.54054 0.0
C189 C 0.15155 0.83425 0.52951 0.0
C190 C 0.133 0.8274 0.53522 0.0
C191 C 0.13099 0.82687 0.55162 0.0
P192 P 0.96752 0.49509 0.74821 0.0
H193 H 0.96315 0.47473 0.71663 0.0
H194 H 0.94313 0.43905 0.70522 0.0
H195 H 0.92079 0.42174 0.75102 0.0
H196 H 0.94037 0.45745 0.76215 0.0
H197 H 0.98134 0.53743 0.74196 0.0
H198 H 0.96425 0.55505 0.7328 0.0
H199 H 0.9085 0.4986 0.73148 0.0
H200 H 0.92565 0.4813 0.74103 0.0
H201 H 0.99285 0.48724 0.76927 0.0
H202 H 0.94985 0.50622 0.77417 0.0
O203 O 0.98947 0.50577 0.74095 0.0
H204 H 0.99688 0.48751 0.79829 0.0
H205 H 0.95367 0.50635 0.80317 0.0
C206 C 0.95359 0.46862 0.74029 0.0
C207 C 0.95405 0.46318 0.72421 0.0
C208 C 0.94263 0.44279 0.71773 0.0
C209 C 0.93043 0.42751 0.72723 0.0
C210 C 0.92987 0.43313 0.74333 0.0
C211 C 0.94127 0.45354 0.74978 0.0
C212 C 0.9548 0.508 0.74181 0.0
C213 C 0.96544 0.52888 0.73967 0.0
C214 C 0.95566 0.53889 0.73437 0.0
C215 C 0.93502 0.52817 0.73123 0.0
C216 C 0.92438 0.50733 0.73385 0.0
C217 C 0.9342 0.49736 0.73917 0.0
C218 C 0.97131 0.49701 0.76961 0.0
C219 C 0.98443 0.49166 0.77662 0.0
C220 C 0.98659 0.49166 0.79318 0.0
C221 C 0.97558 0.49694 0.80301 0.0
C222 C 0.96254 0.50247 0.79592 0.0
C223 C 0.96033 0.50237 0.77933 0.0
P224 P 0.55897 0.44059 0.78215 0.0
H225 H 0.54026 0.39652 0.78362 0.0
H226 H 0.51296 0.36727 0.76758 0.0
H227 H 0.50409 0.4084 0.73939 0.0
H228 H 0.53142 0.43778 0.75576 0.0
H229 H 0.58577 0.48476 0.78916 0.0
H230 H 0.60997 0.5104 0.77389 0.0
H231 H 0.58999 0.46541 0.73285 0.0
H232 H 0.56661 0.43956 0.74855 0.0
H233 H 0.57734 0.46008 0.81399 0.0
H234 H 0.5234 0.44365 0.78559 0.0
O235 O 0.57312 0.43212 0.7901 0.0
H236 H 0.56673 0.47312 0.8363 0.0
H237 H 0.51266 0.45662 0.80792 0.0
C238 C 0.53815 0.41928 0.77061 0.0
C239 C 0.5325 0.39928 0.77398 0.0
C240 C 0.51692 0.38256 0.76475 0.0
C241 C 0.50659 0.38552 0.75203 0.0
C242 C 0.51179 0.40563 0.74908 0.0
C243 C 0.52745 0.4224 0.75835 0.0
C244 C 0.57399 0.46032 0.76991 0.0
C245 C 0.58629 0.48048 0.77679 0.0
C246 C 0.60014 0.49521 0.76798 0.0
C247 C 0.60198 0.49005 0.75208 0.0
C248 C 0.58919 0.46992 0.74511 0.0
C249 C 0.57555 0.45514 0.75402 0.0
C250 C 0.55101 0.45056 0.79824 0.0
C251 C 0.5632 0.45927 0.81256 0.0
C252 C 0.55719 0.46687 0.82525 0.0
C253 C 0.53883 0.46582 0.82386 0.0
C254 C 0.52678 0.4574 0.80938 0.0
C255 C 0.53292 0.44999 0.79661 0.0
P256 P 0.52378 0.0345 0.76009 0.0
H257 H 0.52757 0.06125 0.73529 0.0
H258 H 0.50988 0.07887 0.72816 0.0
H259 H 0.47387 0.05475 0.76721 0.0
H260 H 0.49223 0.03787 0.77466 0.0
H261 H 0.54931 0.02171 0.74551 0.0
H262 H 0.58332 0.04058 0.7389 0.0
H263 H 0.58839 0.09697 0.75942 0.0
H264 H 0.55406 0.07798 0.76544 0.0
H265 H 0.49541 -0.00028 0.77577 0.0
H266 H 0.54882 0.0572 0.78968 0.0
O267 O 0.51224 0.01249 0.74831 0.0
H268 H 0.49285 0.99215 0.80362 0.0
H269 H 0.54678 0.04948 0.81741 0.0
C270 C 0.51158 0.04867 0.75575 0.0
C271 C 0.51614 0.06009 0.74252 0.0
C272 C 0.50582 0.06997 0.73834 0.0
C273 C 0.4904 0.06824 0.7471 0.0
C274 C 0.48588 0.05674 0.76037 0.0
C275 C 0.49634 0.04699 0.76462 0.0
C276 C 0.5491 0.0485 0.75571 0.0
C277 C 0.55772 0.03814 0.74852 0.0
C278 C 0.57727 0.04896 0.74489 0.0
C279 C 0.58864 0.07034 0.74859 0.0
C280 C 0.57999 0.08059 0.75614 0.0
C281 C 0.5604 0.06975 0.75967 0.0
C282 C 0.52249 0.02884 0.7806 0.0
C283 C 0.50674 0.01058 0.78479 0.0
C284 C 0.50535 0.00624 0.80072 0.0
C285 C 0.51969 0.02014 0.81278 0.0
C286 C 0.53538 0.03851 0.80849 0.0
C287 C 0.53667 0.04288 0.79256 0.0
P288 P 0.80796 0.63832 0.91391 0.0
H289 H 0.78388 0.65258 0.92908 0.0
H290 H 0.74911 0.63545 0.93391 0.0
H291 H 0.74041 0.57894 0.91025 0.0
H292 H 0.7753 0.59634 0.90518 0.0
H293 H 0.84437 0.64091 0.90497 0.0
H294 H 0.8608 0.62175 0.91141 0.0
H295 H 0.81307 0.58363 0.93896 0.0
H296 H 0.79728 0.60348 0.93308 0.0
H297 H 0.81096 0.67357 0.89918 0.0
H298 H 0.8085 0.61685 0.88391 0.0
O299 O 0.82004 0.65992 0.92615 0.0
H300 H 0.81448 0.68301 0.87172 0.0
H301 H 0.81228 0.62633 0.85647 0.0
C302 C 0.78226 0.62556 0.91719 0.0
C303 C 0.77454 0.6365 0.92495 0.0
C304 C 0.75463 0.62674 0.9276 0.0
C305 C 0.74212 0.60584 0.92256 0.0
C306 C 0.74981 0.595 0.91445 0.0
C307 C 0.76969 0.60489 0.91157 0.0
C308 C 0.81923 0.62315 0.91802 0.0
C309 C 0.83734 0.62825 0.91223 0.0
C310 C 0.84669 0.61722 0.91589 0.0
C311 C 0.83818 0.60094 0.92556 0.0
C312 C 0.82013 0.5961 0.93154 0.0
C313 C 0.81089 0.60728 0.92797 0.0
C314 C 0.81009 0.64483 0.89363 0.0
C315 C 0.81129 0.66321 0.88993 0.0
C316 C 0.81317 0.66853 0.87423 0.0
C317 C 0.81389 0.65551 0.86201 0.0
C318 C 0.81213 0.63682 0.86572 0.0
C319 C 0.80999 0.63141 0.88138 0.0
P320 P 0.44776 0.21734 0.90066 0.0
H321 H 0.45992 0.23843 0.9328 0.0
H322 H 0.45801 0.26729 0.94548 0.0
H323 H 0.42572 0.26792 0.90267 0.0
H324 H 0.42757 0.23912 0.8901 0.0
H325 H 0.46016 0.18721 0.89922 0.0
H326 H 0.45456 0.15936 0.91535 0.0
H327 H 0.41787 0.17323 0.94391 0.0
H328 H 0.42345 0.2011 0.92756 0.0
H329 H 0.4557 0.23049 0.86876 0.0
H330 H 0.40792 0.18292 0.89091 0.0
O331 O 0.47155 0.22879 0.89754 0.0
H332 H 0.43609 0.21806 0.84297 0.0
H333 H 0.38832 0.16993 0.86501 0.0
C334 C 0.44368 0.23643 0.9106 0.0
C335 C 0.45206 0.24451 0.92628 0.0
C336 C 0.45094 0.26096 0.93352 0.0
C337 C 0.44173 0.26984 0.92504 0.0
C338 C 0.43301 0.26144 0.90944 0.0
C339 C 0.43398 0.24488 0.90228 0.0
C340 C 0.44268 0.19653 0.91248 0.0
C341 C 0.45089 0.18424 0.90894 0.0
C342 C 0.44752 0.16822 0.91808 0.0
C343 C 0.43581 0.16416 0.93093 0.0
C344 C 0.42714 0.17618 0.9342 0.0
C345 C 0.43038 0.19213 0.92491 0.0
C346 C 0.4334 0.20736 0.88164 0.0
C347 C 0.44108 0.21714 0.868 0.0
C348 C 0.42986 0.20995 0.85325 0.0
C349 C 0.41069 0.19284 0.85186 0.0
C350 C 0.40298 0.18319 0.86566 0.0
C351 C 0.41422 0.19049 0.88045 0.0
P352 P 0.80792 0.17118 0.91767 0.0
H353 H 0.82328 0.19165 0.94975 0.0
H354 H 0.83921 0.22757 0.96061 0.0
H355 H 0.83613 0.24505 0.91306 0.0
H356 H 0.81971 0.20913 0.90242 0.0
H357 H 0.77885 0.12896 0.92199 0.0
H358 H 0.74478 0.11279 0.92888 0.0
H359 H 0.74737 0.17126 0.92963 0.0
H360 H 0.78139 0.18729 0.92286 0.0
H361 H 0.83964 0.17549 0.89915 0.0
H362 H 0.77987 0.16237 0.88969 0.0
O363 O 0.81866 0.15968 0.92662 0.0
H364 H 0.84298 0.17444 0.87046 0.0
H365 H 0.78314 0.16146 0.86099 0.0
C366 C 0.82073 0.19779 0.92527 0.0
C367 C 0.82621 0.20327 0.94168 0.0
C368 C 0.83534 0.22381 0.94785 0.0
C369 C 0.83905 0.23922 0.9377 0.0
C370 C 0.83334 0.23357 0.92124 0.0
C371 C 0.82415 0.21302 0.9151 0.0
C372 C 0.78275 0.15937 0.92231 0.0
C373 C 0.77207 0.13827 0.92368 0.0
C374 C 0.75257 0.12904 0.9275 0.0
C375 C 0.74346 0.1408 0.92993 0.0
C376 C 0.75411 0.16188 0.92812 0.0
C377 C 0.77356 0.17105 0.92424 0.0
C378 C 0.80943 0.16866 0.89651 0.0
C379 C 0.82717 0.17216 0.89088 0.0
C380 C 0.82911 0.17173 0.8745 0.0
C381 C 0.81331 0.16786 0.86347 0.0
C382 C 0.79547 0.16419 0.86918 0.0
C383 C 0.7936 0.16474 0.88559 0.0
P384 P 0.63565 0.83133 0.08148 0.0
H385 H 0.63254 0.81053 0.05035 0.0
H386 H 0.61284 0.77476 0.03914 0.0
H387 H 0.58668 0.75853 0.08377 0.0
H388 H 0.60591 0.79439 0.09463 0.0
H389 H 0.64839 0.86743 0.06387 0.0
H390 H 0.63152 0.88477 0.05398 0.0
H391 H 0.57912 0.84216 0.07506 0.0
H392 H 0.59594 0.82429 0.08422 0.0
H393 H 0.65563 0.81669 0.10201 0.0
H394 H 0.62367 0.84884 0.10813 0.0
O395 O 0.6577 0.84132 0.07444 0.0
H396 H 0.6595 0.81634 0.13092 0.0
H397 H 0.62682 0.84791 0.13696 0.0
C398 C 0.62106 0.80498 0.07343 0.0
C399 C 0.62259 0.79922 0.0577 0.0
C400 C 0.61136 0.77876 0.05134 0.0
C401 C 0.59832 0.76371 0.06061 0.0
C402 C 0.59647 0.76971 0.07626 0.0
C403 C 0.60764 0.7902 0.08256 0.0
C404 C 0.62342 0.84465 0.07483 0.0
C405 C 0.63328 0.86181 0.06636 0.0
C406 C 0.62361 0.87182 0.0608 0.0
C407 C 0.60394 0.86496 0.06376 0.0
C408 C 0.59415 0.84772 0.07233 0.0
C409 C 0.60379 0.83758 0.07771 0.0
C410 C 0.63932 0.8327 0.1029 0.0
C411 C 0.64947 0.8237 0.10959 0.0
C412 C 0.6515 0.82335 0.12611 0.0
C413 C 0.64331 0.83194 0.13628 0.0
C414 C 0.63345 0.84131 0.12951 0.0
C415 C 0.63149 0.8417 0.11295 0.0
P416 P 0.2252 0.77739 0.11557 0.0
H417 H 0.20574 0.73337 0.11729 0.0
H418 H 0.17874 0.70424 0.10084 0.0
H419 H 0.17212 0.74572 0.07142 0.0
H420 H 0.19909 0.77492 0.08818 0.0
H421 H 0.24436 0.82236 0.12098 0.0
H422 H 0.26733 0.84965 0.10595 0.0
H423 H 0.26147 0.80438 0.06895 0.0
H424 H 0.23844 0.77712 0.08403 0.0
H425 H 0.24417 0.79726 0.14714 0.0
H426 H 0.18845 0.77756 0.12032 0.0
O427 O 0.23992 0.76921 0.12282 0.0
H428 H 0.23337 0.80896 0.1701 0.0
H429 H 0.17753 0.78929 0.14328 0.0
C430 C 0.2047 0.75622 0.10369 0.0
C431 C 0.19852 0.7362 0.10728 0.0
C432 C 0.18313 0.71957 0.09783 0.0
C433 C 0.17352 0.72268 0.08466 0.0
C434 C 0.17926 0.74285 0.08146 0.0
C435 C 0.19473 0.75951 0.09095 0.0
C436 C 0.23948 0.79769 0.10352 0.0
C437 C 0.24769 0.81827 0.10951 0.0
C438 C 0.26091 0.83388 0.10094 0.0
C439 C 0.2662 0.82916 0.08628 0.0
C440 C 0.25745 0.80853 0.08009 0.0
C441 C 0.24433 0.79293 0.08872 0.0
C442 C 0.21697 0.78618 0.13217 0.0
C443 C 0.22959 0.79543 0.14622 0.0
C444 C 0.22346 0.80228 0.15927 0.0
C445 C 0.20457 0.79998 0.1585 0.0
C446 C 0.19207 0.79102 0.14428 0.0
C447 C 0.1983 0.78432 0.13115 0.0
P448 P 0.19543 0.38185 0.09776 0.0
H449 H 0.201 0.41025 0.07374 0.0
H450 H 0.18289 0.42719 0.06576 0.0
H451 H 0.14366 0.39975 0.10236 0.0
H452 H 0.16236 0.38362 0.11068 0.0
H453 H 0.22012 0.36797 0.08318 0.0
H454 H 0.25424 0.38579 0.07687 0.0
H455 H 0.26132 0.44291 0.09789 0.0
H456 H 0.22678 0.42497 0.10351 0.0
H457 H 0.16626 0.34743 0.11322 0.0
H458 H 0.22 0.40444 0.12765 0.0
O459 O 0.18368 0.35973 0.08612 0.0
H460 H 0.16269 0.34012 0.14113 0.0
H461 H 0.21652 0.3972 0.15555 0.0
C462 C 0.18341 0.39612 0.0931 0.0
C463 C 0.18881 0.40829 0.08031 0.0
C464 C 0.17824 0.41776 0.07562 0.0
C465 C 0.16176 0.41486 0.08341 0.0
C466 C 0.15648 0.40269 0.09629 0.0
C467 C 0.16716 0.39337 0.10104 0.0
C468 C 0.22085 0.3952 0.09358 0.0
C469 C 0.22898 0.38434 0.08636 0.0
C470 C 0.24861 0.39456 0.08292 0.0
C471 C 0.26063 0.41585 0.08686 0.0
C472 C 0.25246 0.4266 0.09443 0.0
C473 C 0.23274 0.41635 0.09774 0.0
C474 C 0.19358 0.37629 0.11831 0.0
C475 C 0.1774 0.35828 0.12237 0.0
C476 C 0.1753 0.35419 0.13832 0.0
C477 C 0.18937 0.36806 0.15051 0.0
C478 C 0.2056 0.38609 0.14639 0.0
C479 C 0.20758 0.39026 0.13042 0.0
P480 P 0.47223 0.9678 0.24667 0.0
H481 H 0.45324 0.97615 0.27269 0.0
H482 H 0.41903 0.9596 0.27927 0.0
H483 H 0.40169 0.91532 0.23821 0.0
H484 H 0.43588 0.93238 0.2313 0.0
H485 H 0.51266 0.98013 0.25772 0.0
H486 H 0.52895 0.96086 0.26446 0.0
H487 H 0.47355 0.90421 0.25395 0.0
H488 H 0.45737 0.92351 0.2473 0.0
H489 H 0.45029 0.97897 0.22445 0.0
H490 H 0.4973 0.96531 0.22296 0.0
O491 O 0.48465 0.99104 0.25669 0.0
H492 H 0.4532 0.98623 0.1965 0.0
H493 H 0.50015 0.97235 0.19505 0.0
C494 C 0.44706 0.95551 0.25149 0.0
C495 C 0.4421 0.96298 0.26503 0.0
C496 C 0.42258 0.95355 0.26878 0.0
C497 C 0.40783 0.93623 0.25923 0.0
C498 C 0.41286 0.9286 0.24578 0.0
C499 C 0.43233 0.93832 0.24185 0.0
C500 C 0.48371 0.95333 0.25233 0.0
C501 C 0.50398 0.96358 0.25702 0.0
C502 C 0.51331 0.95254 0.26072 0.0
C503 C 0.5025 0.93102 0.25978 0.0
C504 C 0.4822 0.92079 0.25501 0.0
C505 C 0.47292 0.93185 0.25119 0.0
C506 C 0.47329 0.97121 0.22571 0.0
C507 C 0.46101 0.9772 0.21804 0.0
C508 C 0.46267 0.98133 0.20206 0.0
C509 C 0.47689 0.97984 0.19356 0.0
C510 C 0.48917 0.9738 0.20131 0.0
C511 C 0.48742 0.9696 0.21726 0.0
P512 P 0.10947 0.5499 0.22895 0.0
H513 H 0.14194 0.59194 0.23669 0.0
H514 H 0.14486 0.6217 0.25199 0.0
H515 H 0.08483 0.58531 0.26377 0.0
H516 H 0.08175 0.55569 0.24762 0.0
H517 H 0.11732 0.51646 0.22288 0.0
H518 H 0.11599 0.49005 0.23903 0.0
H519 H 0.09893 0.51489 0.27842 0.0
H520 H 0.09923 0.54064 0.2621 0.0
H521 H 0.08365 0.56503 0.21677 0.0
H522 H 0.09159 0.51327 0.20608 0.0
O523 O 0.12985 0.55798 0.21953 0.0
H524 H 0.05952 0.55359 0.1938 0.0
H525 H 0.06855 0.50253 0.18249 0.0
C526 C 0.11162 0.57158 0.241 0.0
C527 C 0.12938 0.5903 0.24254 0.0
C528 C 0.13109 0.60733 0.25147 0.0
C529 C 0.11513 0.60595 0.25926 0.0
C530 C 0.09736 0.58703 0.25781 0.0
C531 C 0.09562 0.57004 0.24871 0.0
C532 C 0.10799 0.53037 0.24107 0.0
C533 C 0.11274 0.51594 0.23482 0.0
C534 C 0.1121 0.50094 0.24405 0.0
C535 C 0.10722 0.50048 0.25985 0.0
C536 C 0.10262 0.51496 0.2662 0.0
C537 C 0.10279 0.52968 0.25682 0.0
C538 C 0.08921 0.53977 0.21355 0.0
C539 C 0.07997 0.55095 0.20976 0.0
C540 C 0.06633 0.54455 0.19635 0.0
C541 C 0.0621 0.52717 0.18612 0.0
C542 C 0.07106 0.51575 0.19019 0.0
C543 C 0.08442 0.52198 0.20375 0.0
P544 P 0.4698 0.50259 0.24453 0.0
H545 H 0.48756 0.52184 0.27662 0.0
H546 H 0.50475 0.55751 0.28831 0.0
H547 H 0.49755 0.57677 0.24235 0.0
H548 H 0.47996 0.54108 0.23092 0.0
H549 H 0.44237 0.46473 0.25777 0.0
H550 H 0.40849 0.45081 0.26438 0.0
H551 H 0.40727 0.50236 0.24595 0.0
H552 H 0.44145 0.5165 0.23986 0.0
H553 H 0.50419 0.51354 0.22747 0.0
H554 H 0.44201 0.48887 0.21538 0.0
O555 O 0.47949 0.49008 0.25343 0.0
H556 H 0.50929 0.51338 0.1991 0.0
H557 H 0.44704 0.48918 0.18704 0.0
C558 C 0.48293 0.52891 0.25285 0.0
C559 C 0.48981 0.53379 0.26907 0.0
C560 C 0.49967 0.55418 0.27571 0.0
C561 C 0.50265 0.57003 0.26624 0.0
C562 C 0.49538 0.56495 0.25001 0.0
C563 C 0.4855 0.54456 0.24341 0.0
C564 C 0.44445 0.49174 0.24849 0.0
C565 C 0.43481 0.47303 0.25514 0.0
C566 C 0.41535 0.465 0.2588 0.0
C567 C 0.40512 0.47547 0.25572 0.0
C568 C 0.41478 0.49405 0.24872 0.0
C569 C 0.43429 0.50212 0.24516 0.0
C570 C 0.47277 0.50121 0.22354 0.0
C571 C 0.49163 0.50805 0.21869 0.0
C572 C 0.49454 0.50811 0.20248 0.0
C573 C 0.47858 0.50136 0.19079 0.0
C574 C 0.45961 0.49427 0.19573 0.0
C575 C 0.45673 0.49421 0.21197 0.0
Tb576 Tb 0.51843 0.02079 0.00133 0.0
C577 C 0.51201 0.97695 0.00915 0.0
Tb578 Tb 0.47687 0.98559 0.00578 0.0
O579 O 0.52204 0.03674 0.02488 0.0
O580 O 0.50316 0.00519 0.02047 0.0
O581 O 0.52392 0.99552 0.00477 0.0
C582 C 0.44184 0.96135 0.01611 0.0
O583 O 0.4932 0.97012 0.01127 0.0
C584 C 0.48828 0.98711 0.97701 0.0
C585 C 0.48386 0.02984 0.00013 0.0
O586 O 0.45866 0.96941 0.02459 0.0
O587 O 0.4447 0.96673 0.0017 0.0
O588 O 0.47601 0.97009 0.9826 0.0
O589 O 0.49194 0.00193 0.98689 0.0
O590 O 0.4731 0.0125 0.0067 0.0
O591 O 0.5011 0.03473 0.99475 0.0
C592 C 0.55193 0.04194 0.9879 0.0
O593 O 0.54723 0.04842 0.00064 0.0
O594 O 0.53781 0.02365 0.9828 0.0
C595 C 0.50801 0.02055 0.03025 0.0
Tb596 Tb 0.97525 0.50021 0.99374 0.0
C597 C 0.01923 0.53275 0.00478 0.0
Tb598 Tb 0.00326 0.48459 0.00289 0.0
O599 O 0.97803 0.51264 0.01838 0.0
O600 O 0.98035 0.48655 0.01329 0.0
O601 O 0.00268 0.52957 0.99696 0.0
C602 C 0.02896 0.47603 0.01741 0.0
O603 O 0.02185 0.51759 0.00908 0.0
C604 C 0.99665 0.48567 0.97231 0.0
C605 C 0.95956 0.45211 0.99241 0.0
O606 O 0.0163 0.4792 0.02444 0.0
O607 O 0.02709 0.47765 0.00227 0.0
O608 O 0.00047 0.47238 0.97813 0.0
O609 O 0.99831 0.49848 0.98341 0.0
O610 O 0.97567 0.45591 0.00127 0.0
O611 O 0.95724 0.46697 0.98683 0.0
C612 C 0.94992 0.50938 0.97941 0.0
O613 O 0.94907 0.50335 0.99359 0.0
O614 O 0.965 0.51013 0.97321 0.0
C615 C 0.98199 0.49949 0.02428 0.0
Tb616 Tb 0.47715 0.50243 0.00402 0.0
C617 C 0.48498 0.46877 0.98946 0.0
Tb618 Tb 0.51871 0.51542 0.99425 0.0
O619 O 0.46496 0.49407 0.97897 0.0
O620 O 0.49406 0.51705 0.98521 0.0
O621 O 0.47513 0.47272 0.00011 0.0
C622 C 0.55046 0.52377 0.979 0.0
O623 O 0.50097 0.48352 0.98391 0.0
C624 C 0.51398 0.51131 0.0246 0.0
C625 C 0.51056 0.5499 0.00764 0.0
O626 O 0.54464 0.51238 0.99075 0.0
O627 O 0.5384 0.53036 0.97588 0.0
O628 O 0.53064 0.52395 0.01936 0.0
O629 O 0.50167 0.50054 0.01298 0.0
O630 O 0.52234 0.54556 -0.00037 0.0
O631 O 0.49295 0.53556 0.01129 0.0
C632 C 0.44566 0.49403 0.01965 0.0
O633 O 0.46319 0.50014 0.02632 0.0
O634 O 0.44593 0.49276 0.00426 0.0
C635 C 0.48159 0.5065 0.9736 0.0
Tb636 Tb 0.18811 0.35364 0.33612 0.0
C637 C 0.18213 0.31245 0.34662 0.0
Tb638 Tb 0.1466 0.32083 0.34306 0.0
O639 O 0.19899 0.35895 0.36137 0.0
O640 O 0.16947 0.34893 0.35463 0.0
O641 O 0.19174 0.32708 0.33716 0.0
C642 C 0.11464 0.29357 0.35588 0.0
O643 O 0.16542 0.30925 0.35217 0.0
C644 C 0.15323 0.32258 0.31292 0.0
C645 C 0.15273 0.36297 0.33322 0.0
O646 O 0.12264 0.28938 0.34425 0.0
O647 O 0.12464 0.31308 0.36029 0.0
O648 O 0.13593 0.31624 0.31783 0.0
O649 O 0.16529 0.32552 0.32461 0.0
O650 O 0.14068 0.34549 0.33908 0.0
O651 O 0.17132 0.36884 0.33083 0.0
C652 C 0.21991 0.37951 0.32229 0.0
O653 O 0.20224 0.36862 0.31519 0.0
O654 O 0.2196 0.37599 0.33717 0.0
C655 C 0.18168 0.35229 0.36631 0.0
Tb656 Tb 0.63927 0.83004 0.3263 0.0
C657 C 0.68183 0.86408 0.33946 0.0
Tb658 Tb 0.669 0.81673 0.336 0.0
O659 O 0.64015 0.84135 0.35096 0.0
O660 O 0.64499 0.81692 0.34593 0.0
O661 O 0.66569 0.86009 0.33051 0.0
C662 C 0.69555 0.8094 0.35048 0.0
O663 O 0.685 0.84942 0.34419 0.0
C664 C 0.66297 0.81804 0.30534 0.0
C665 C 0.62641 0.78262 0.32352 0.0
O666 O 0.69709 0.81729 0.33701 0.0
O667 O 0.67902 0.80564 0.35586 0.0
O668 O 0.66776 0.80546 0.31118 0.0
O669 O 0.66346 0.83015 0.31649 0.0
O670 O 0.64251 0.78693 0.33266 0.0
O671 O 0.62328 0.7971 0.31825 0.0
C672 C 0.61351 0.83806 0.31132 0.0
O673 O 0.61078 0.82864 0.32414 0.0
O674 O 0.63071 0.84286 0.30686 0.0
C675 C 0.64527 0.82908 0.35695 0.0
Tb676 Tb 0.14338 0.83542 0.34045 0.0
C677 C 0.15287 0.80228 0.3269 0.0
Tb678 Tb 0.18564 0.8496 0.33182 0.0
O679 O 0.13168 0.82521 0.31539 0.0
O680 O 0.16043 0.84925 0.3215 0.0
O681 O 0.14096 0.80562 0.33561 0.0
C682 C 0.21793 0.85838 0.31731 0.0
O683 O 0.16962 0.8173 0.32255 0.0
C684 C 0.18057 0.84708 0.36223 0.0
C685 C 0.17613 0.88298 0.34449 0.0
O686 O 0.21129 0.84608 0.32843 0.0
O687 O 0.20644 0.86572 0.31443 0.0
O688 O 0.19726 0.85952 0.35693 0.0
O689 O 0.16853 0.83553 0.35071 0.0
O690 O 0.18771 0.87912 0.33583 0.0
O691 O 0.15931 0.86822 0.34905 0.0
C692 C 0.11111 0.82668 0.35495 0.0
O693 O 0.11602 0.83607 0.34211 0.0
O694 O 0.12439 0.82224 0.35964 0.0
C695 C 0.1483 0.83769 0.31001 0.0
Tb696 Tb 0.85662 0.68721 0.67011 0.0
C697 C 0.84567 0.64212 0.67698 0.0
Tb698 Tb 0.81339 0.65553 0.67477 0.0
O699 O 0.85923 0.70522 0.69259 0.0
O700 O 0.83994 0.67387 0.68934 0.0
O701 O 0.85858 0.65964 0.67162 0.0
C702 C 0.77959 0.63033 0.68624 0.0
O703 O 0.82767 0.6378 0.68015 0.0
C704 C 0.82121 0.66171 0.64506 0.0
C705 C 0.82454 0.69996 0.66706 0.0
O706 O 0.78722 0.62525 0.67475 0.0
O707 O 0.79104 0.64956 0.6913 0.0
O708 O 0.80386 0.65541 0.64981 0.0
O709 O 0.83242 0.6621 0.65643 0.0
O710 O 0.813 0.68426 0.67502 0.0
O711 O 0.8412 0.70251 0.66197 0.0
C712 C 0.89206 0.70793 0.6595 0.0
O713 O 0.87557 0.70375 0.65176 0.0
O714 O 0.88861 0.70062 0.67329 0.0
C715 C 0.84519 0.68969 0.69858 0.0
Tb716 Tb 0.3075 0.1611 0.66447 0.0
C717 C 0.35159 0.19403 0.67477 0.0
Tb718 Tb 0.33617 0.14595 0.67229 0.0
O719 O 0.3104 0.17245 0.68948 0.0
O720 O 0.31314 0.14687 0.6833 0.0
O721 O 0.33474 0.19065 0.66737 0.0
C722 C 0.36238 0.13759 0.68608 0.0
O723 O 0.35465 0.17897 0.67858 0.0
C724 C 0.32917 0.14818 0.64199 0.0
C725 C 0.29223 0.11305 0.66267 0.0
O726 O 0.35134 0.1428 0.6936 0.0
O727 O 0.35865 0.13709 0.67084 0.0
O728 O 0.33343 0.13492 0.64722 0.0
O729 O 0.33072 0.16045 0.65349 0.0
O730 O 0.30879 0.11699 0.67092 0.0
O731 O 0.28933 0.12784 0.65776 0.0
C732 C 0.28174 0.16996 0.65057 0.0
O733 O 0.28316 0.16722 0.66552 0.0
O734 O 0.29478 0.16763 0.64339 0.0
C735 C 0.31467 0.15921 0.69474 0.0
Tb736 Tb 0.81023 0.16671 0.67262 0.0
C737 C 0.82198 0.13409 0.66271 0.0
Tb738 Tb 0.85377 0.18152 0.66712 0.0
O739 O 0.8002 0.1569 0.64718 0.0
O740 O 0.82907 0.17979 0.6545 0.0
O741 O 0.80972 0.13762 0.67079 0.0
C742 C 0.88827 0.19257 0.65546 0.0
O743 O 0.83875 0.14903 0.6583 0.0
C744 C 0.8457 0.17936 0.69693 0.0
C745 C 0.84137 0.21457 0.67494 0.0
O746 O 0.87955 0.17787 0.66454 0.0
O747 O 0.87761 0.20094 0.653 0.0
O748 O 0.86297 0.19167 0.69251 0.0
O749 O 0.83475 0.16751 0.68505 0.0
O750 O 0.85462 0.21066 0.66912 0.0
O751 O 0.82363 0.19994 0.67799 0.0
C752 C 0.7772 0.15743 0.68617 0.0
O753 O 0.79447 0.16472 0.69377 0.0
O754 O 0.77854 0.15546 0.67096 0.0
C755 C 0.81765 0.16823 0.64263 0.0
C756 C 0.28027 0.84546 0.06143 0.0
C757 C 0.282 0.84545 0.07812 0.0
C758 C 0.29601 0.85974 0.0537 0.0
C759 C 0.34433 0.90832 0.0611 0.0
H760 H 0.35642 0.88732 0.02282 0.0
C761 C 0.42136 0.94703 0.03862 0.0
C762 C 0.42256 0.94894 0.0222 0.0
C763 C 0.4031 0.93563 0.04456 0.0
C764 C 0.35308 0.89348 0.03338 0.0
H765 H 0.30144 0.86053 0.0998 0.0
H766 H 0.32889 0.88518 0.0864 0.0
H767 H 0.32613 0.8655 0.0348 0.0
H768 H 0.40581 0.94054 0.99905 0.0
H769 H 0.37376 0.92024 0.00944 0.0
H770 H 0.37171 0.93604 0.05995 0.0
C771 C 0.31529 0.87452 0.07924 0.0
C772 C 0.33569 0.88102 0.04022 0.0
C773 C 0.29955 0.86035 0.08695 0.0
C774 C 0.40523 0.93922 0.01177 0.0
C775 C 0.38695 0.92761 0.0177 0.0
C776 C 0.36178 0.9207 0.05433 0.0
C777 C 0.31383 0.87422 0.06251 0.0
C778 C 0.33127 0.88817 0.05433 0.0
C779 C 0.38572 0.92578 0.03417 0.0
C780 C 0.36647 0.91328 0.04055 0.0
H781 H 0.26683 0.83428 0.05434 0.0
H782 H 0.29427 0.85929 0.04082 0.0
H783 H 0.3412 0.91447 0.07176 0.0
H784 H 0.43453 0.95444 0.04691 0.0
H785 H 0.40261 0.93426 0.05728 0.0
C786 C 0.14594 0.42409 0.06119 0.0
C787 C 0.14958 0.42364 0.07765 0.0
C788 C 0.13394 0.43159 0.05568 0.0
C789 C 0.09361 0.43948 0.0667 0.0
H790 H 0.10817 0.4743 0.03202 0.0
C791 C 0.04512 0.47128 0.0419 0.0
C792 C 0.04328 0.47139 0.02524 0.0
C793 C 0.05882 0.46689 0.04918 0.0
C794 C 0.10378 0.46442 0.04161 0.0
H795 H 0.14369 0.43122 0.10122 0.0
H796 H 0.12243 0.44401 0.09152 0.0
H797 H 0.13088 0.46413 0.04308 0.0
H798 H 0.0541 0.46692 0.00311 0.0
H799 H 0.07763 0.45886 0.01569 0.0
H800 H 0.0663 0.43933 0.06498 0.0
C801 C 0.12884 0.43841 0.08292 0.0
C802 C 0.11683 0.45865 0.04797 0.0
C803 C 0.14099 0.43104 0.08845 0.0
C804 C 0.05529 0.46703 0.016 0.0
C805 C 0.06889 0.46256 0.02324 0.0
C806 C 0.08048 0.44515 0.06027 0.0
C807 C 0.12515 0.43871 0.06647 0.0
C808 C 0.1118 0.44591 0.06045 0.0
C809 C 0.07088 0.46248 0.03992 0.0
C810 C 0.0853 0.45748 0.04749 0.0
H811 H 0.15194 0.41813 0.05248 0.0
H812 H 0.13112 0.43132 0.04291 0.0
H813 H 0.08925 0.42949 0.07622 0.0
H814 H 0.03604 0.47467 0.04929 0.0
H815 H 0.0601 0.46717 0.06207 0.0
C816 C 0.56753 0.72898 0.0575 0.0
C817 C 0.58711 0.74178 0.05413 0.0
C818 C 0.55729 0.70821 0.05178 0.0
C819 C 0.55732 0.67133 0.02111 0.0
H820 H 0.52873 0.63085 0.05023 0.0
C821 C 0.53574 0.5871 0.00835 0.0
C822 C 0.51734 0.57175 0.01234 0.0
C823 C 0.54243 0.60771 0.01284 0.0
C824 C 0.53637 0.64195 0.04187 0.0
H825 H 0.61127 0.74265 0.0422 0.0
H826 H 0.59336 0.70659 0.03211 0.0
H827 H 0.54369 0.66728 0.05909 0.0
H828 H 0.49151 0.56614 0.02421 0.0
H829 H 0.50321 0.6023 0.03198 0.0
H830 H 0.55024 0.64611 0.00394 0.0
C831 C 0.58584 0.71266 0.039 0.0
C832 C 0.54495 0.66281 0.04695 0.0
C833 C 0.5961 0.73336 0.04478 0.0
C834 C 0.50576 0.57756 0.02094 0.0
C835 C 0.51249 0.59827 0.02546 0.0
C836 C 0.54871 0.65051 0.01602 0.0
C837 C 0.56636 0.69984 0.04248 0.0
C838 C 0.55583 0.67772 0.03671 0.0
C839 C 0.53091 0.61357 0.02144 0.0
C840 C 0.53846 0.63559 0.02643 0.0
H841 H 0.56006 0.73502 0.06448 0.0
H842 H 0.54222 0.69874 0.05451 0.0
H843 H 0.56529 0.68245 0.01285 0.0
H844 H 0.54513 0.58325 0.00181 0.0
H845 H 0.55684 0.61907 0.00981 0.0
C846 C 0.84288 0.27432 0.93838 0.0
C847 C 0.84894 0.2611 0.94422 0.0
C848 C 0.85248 0.29499 0.9443 0.0
C849 C 0.88481 0.3311 0.97859 0.0
H850 H 0.90011 0.37203 0.94839 0.0
C851 C 0.94584 0.41471 0.99474 0.0
C852 C 0.94397 0.43045 0.98828 0.0
C853 C 0.932 0.3942 0.99013 0.0
C854 C 0.89565 0.36082 0.95701 0.0
H855 H 0.86994 0.25934 0.96082 0.0
H856 H 0.88657 0.29531 0.97121 0.0
H857 H 0.88011 0.33577 0.93881 0.0
H858 H 0.92573 0.43689 0.97219 0.0
H859 H 0.9014 0.40092 0.96422 0.0
H860 H 0.90057 0.35608 0.99676 0.0
C861 C 0.87422 0.28962 0.9622 0.0
C862 C 0.88421 0.34004 0.95152 0.0
C863 C 0.86468 0.269 0.95624 0.0
C864 C 0.92763 0.42515 0.97738 0.0
C865 C 0.91375 0.40455 0.97274 0.0
C866 C 0.89618 0.35185 0.98408 0.0
C867 C 0.86829 0.30287 0.95625 0.0
C868 C 0.87899 0.32494 0.96222 0.0
C869 C 0.9159 0.38884 0.97895 0.0
C870 C 0.90206 0.36695 0.97333 0.0
H871 H 0.83059 0.26867 0.92931 0.0
H872 H 0.84744 0.30478 0.93961 0.0
H873 H 0.88071 0.31983 0.98715 0.0
H874 H 0.95822 0.41818 0.00317 0.0
H875 H 0.93428 0.38252 0.99498 0.0
C876 C 0.71297 0.57689 0.93315 0.0
C877 C 0.72123 0.59541 0.92607 0.0
C878 C 0.69373 0.56789 0.9376 0.0
C879 C 0.65551 0.58122 0.9466 0.0
H880 H 0.62158 0.52229 0.94511 0.0
C881 C 0.57449 0.54428 0.96007 0.0
C882 C 0.56864 0.52968 0.9712 0.0
C883 C 0.59242 0.55115 0.9535 0.0
C884 C 0.63095 0.53878 0.94564 0.0
H885 H 0.7156 0.61855 0.91738 0.0
H886 H 0.68185 0.6026 0.92462 0.0
H887 H 0.65404 0.53643 0.93517 0.0
H888 H 0.57648 0.51023 0.98379 0.0
H889 H 0.60785 0.52211 0.97212 0.0
H890 H 0.63229 0.58352 0.95687 0.0
C891 C 0.69037 0.5953 0.92727 0.0
C892 C 0.64959 0.5469 0.94001 0.0
C893 C 0.70967 0.60441 0.92303 0.0
C894 C 0.5807 0.52153 0.97525 0.0
C895 C 0.59857 0.52826 0.96853 0.0
C896 C 0.63684 0.57309 0.95204 0.0
C897 C 0.68223 0.57711 0.93488 0.0
C898 C 0.66215 0.56826 0.94046 0.0
C899 C 0.60476 0.5434 0.95781 0.0
C900 C 0.62439 0.55181 0.95166 0.0
H901 H 0.72164 0.56973 0.93576 0.0
H902 H 0.68812 0.55406 0.94361 0.0
H903 H 0.66488 0.59772 0.94753 0.0
H904 H 0.5654 0.55073 0.95669 0.0
H905 H 0.59671 0.56266 0.94512 0.0
C906 C 0.43043 0.12915 0.93443 0.0
C907 C 0.43361 0.14807 0.94125 0.0
C908 C 0.43124 0.11513 0.94403 0.0
C909 C 0.42844 0.08498 0.96739 0.0
H910 H 0.47559 0.11021 0.997 0.0
C911 C 0.45594 0.03704 0.99934 0.0
C912 C 0.47587 0.04361 0.9977 0.0
C913 C 0.44817 0.04955 0.99567 0.0
C914 C 0.46229 0.10293 0.98887 0.0
H915 H 0.43904 0.16668 0.96356 0.0
H916 H 0.44034 0.14207 0.9804 0.0
H917 H 0.46515 0.13171 0.9842 0.0
H918 H 0.50345 0.06884 0.99162 0.0
H919 H 0.48994 0.09053 0.98525 0.0
H920 H 0.42625 0.05627 0.97142 0.0
C921 C 0.43738 0.13819 0.96759 0.0
C922 C 0.45618 0.11523 0.98166 0.0
C923 C 0.43647 0.15219 0.95797 0.0
C924 C 0.48801 0.06324 0.99294 0.0
C925 C 0.4803 0.07578 0.98942 0.0
C926 C 0.43453 0.07267 0.97465 0.0
C927 C 0.43531 0.11975 0.96069 0.0
C928 C 0.43955 0.10644 0.97044 0.0
C929 C 0.46024 0.06896 0.99049 0.0
C930 C 0.4519 0.08159 0.98505 0.0
H931 H 0.42795 0.12547 0.92159 0.0
H932 H 0.42974 0.10116 0.93831 0.0
H933 H 0.41544 0.07776 0.95893 0.0
H934 H 0.4462 0.022 0.003 0.0
H935 H 0.43268 0.04396 0.9967 0.0
C936 C 0.71828 0.14108 0.94682 0.0
C937 C 0.72307 0.13122 0.93468 0.0
C938 C 0.69925 0.13184 0.95165 0.0
C939 C 0.65439 0.08127 0.95151 0.0
H940 H 0.63019 0.11356 0.96273 0.0
C941 C 0.57409 0.04395 0.96718 0.0
C942 C 0.57069 0.05305 0.98072 0.0
C943 C 0.59221 0.0539 0.96075 0.0
C944 C 0.63682 0.10438 0.95975 0.0
H945 H 0.71153 0.10419 0.91779 0.0
H946 H 0.67822 0.0881 0.92613 0.0
H947 H 0.66269 0.13012 0.9528 0.0
H948 H 0.5832 0.07977 0.99799 0.0
H949 H 0.61499 0.09723 0.98678 0.0
H950 H 0.62855 0.05554 0.95847 0.0
C951 C 0.68928 0.10281 0.93213 0.0
C952 C 0.65544 0.11386 0.95408 0.0
C953 C 0.70835 0.11203 0.92733 0.0
C954 C 0.5855 0.07246 0.98753 0.0
C955 C 0.60363 0.08247 0.98107 0.0
C956 C 0.63576 0.07179 0.95712 0.0
C957 C 0.68454 0.11255 0.94442 0.0
C958 C 0.66448 0.10242 0.94997 0.0
C959 C 0.60724 0.07318 0.96772 0.0
C960 C 0.62681 0.08325 0.96136 0.0
H961 H 0.72938 0.15575 0.95286 0.0
H962 H 0.6962 0.13962 0.96133 0.0
H963 H 0.66106 0.07207 0.94872 0.0
H964 H 0.56284 0.02902 0.96164 0.0
H965 H 0.59445 0.0465 0.95033 0.0
C966 C 0.848 0.58292 0.94505 0.0
C967 C 0.84832 0.5894 0.9297 0.0
C968 C 0.85779 0.57243 0.94905 0.0
C969 C 0.89868 0.56536 0.93851 0.0
H970 H 0.87408 0.51808 0.96264 0.0
C971 C 0.93865 0.52189 0.95657 0.0
C972 C 0.93671 0.51583 0.97211 0.0
C973 C 0.92678 0.5291 0.95008 0.0
C974 C 0.88125 0.53137 0.95603 0.0
H975 H 0.85893 0.58946 0.90641 0.0
H976 H 0.87637 0.57151 0.91355 0.0
H977 H 0.8555 0.53423 0.95394 0.0
H978 H 0.92076 0.51224 0.993 0.0
H979 H 0.90039 0.52519 0.9819 0.0
H980 H 0.92463 0.56296 0.94098 0.0
C981 C 0.86858 0.57468 0.92248 0.0
C982 C 0.87057 0.54058 0.95102 0.0
C983 C 0.85864 0.58503 0.91843 0.0
C984 C 0.9225 0.51674 0.98095 0.0
C985 C 0.91073 0.52405 0.97453 0.0
C986 C 0.90943 0.55625 0.94363 0.0
C987 C 0.86828 0.5683 0.93784 0.0
C988 C 0.87924 0.5578 0.94235 0.0
C989 C 0.91281 0.53048 0.95905 0.0
C990 C 0.90093 0.53928 0.95263 0.0
H991 H 0.84055 0.58634 0.95415 0.0
H992 H 0.85754 0.56797 0.96106 0.0
H993 H 0.90582 0.57874 0.93198 0.0
H994 H 0.94947 0.52125 0.94949 0.0
H995 H 0.92859 0.53362 0.93804 0.0
C996 C 0.43839 0.29053 0.94784 0.0
C997 C 0.4425 0.28871 0.93199 0.0
C998 C 0.44012 0.30881 0.9545 0.0
C999 C 0.44512 0.35819 0.94347 0.0
H1000 H 0.46848 0.37775 0.98714 0.0
C1001 C 0.48293 0.44289 0.96852 0.0
C1002 C 0.47793 0.44731 0.9834 0.0
C1003 C 0.47629 0.42265 0.96264 0.0
C1004 C 0.46172 0.37235 0.975 0.0
H1005 H 0.45183 0.30459 0.91075 0.0
H1006 H 0.45533 0.33652 0.92238 0.0
H1007 H 0.46099 0.34381 0.9761 0.0
H1008 H 0.46208 0.43406 0.00384 0.0
H1009 H 0.45084 0.39855 0.99366 0.0
H1010 H 0.44675 0.3872 0.94223 0.0
C1011 C 0.45016 0.32374 0.92959 0.0
C1012 C 0.45734 0.35287 0.96866 0.0
C1013 C 0.44823 0.30543 0.92291 0.0
C1014 C 0.46614 0.43109 0.99232 0.0
C1015 C 0.45978 0.41082 0.98654 0.0
C1016 C 0.44975 0.37774 0.94974 0.0
C1017 C 0.44622 0.32573 0.94549 0.0
C1018 C 0.44927 0.34567 0.95272 0.0
C1019 C 0.46475 0.40644 0.97163 0.0
C1020 C 0.45835 0.38511 0.96548 0.0
H1021 H 0.4338 0.2778 0.95506 0.0
H1022 H 0.43667 0.30967 0.9667 0.0
H1023 H 0.43847 0.353 0.93129 0.0
H1024 H 0.49186 0.45506 0.96132 0.0
H1025 H 0.48046 0.41969 0.95116 0.0
C1026 C 0.16029 0.68805 0.06992 0.0
C1027 C 0.15784 0.70481 0.07424 0.0
C1028 C 0.14525 0.67064 0.06094 0.0
C1029 C 0.09949 0.65032 0.03432 0.0
H1030 H 0.08901 0.59876 0.04956 0.0
C1031 C 0.03186 0.57043 0.01082 0.0
C1032 C 0.03538 0.55394 0.00957 0.0
C1033 C 0.04679 0.5899 0.01739 0.0
C1034 C 0.09188 0.61299 0.04501 0.0
H1035 H 0.13792 0.71671 0.07206 0.0
H1036 H 0.11146 0.68607 0.0563 0.0
H1037 H 0.11497 0.63074 0.0635 0.0
H1038 H 0.05764 0.54524 0.01313 0.0
H1039 H 0.08357 0.57904 0.0242 0.0
H1040 H 0.07624 0.63232 0.01576 0.0
C1041 C 0.12512 0.68654 0.05984 0.0
C1042 C 0.10676 0.63134 0.05302 0.0
C1043 C 0.14024 0.70405 0.06887 0.0
C1044 C 0.05434 0.55753 0.01417 0.0
C1045 C 0.0692 0.5769 0.02059 0.0
C1046 C 0.08453 0.63184 0.02623 0.0
C1047 C 0.12736 0.66951 0.05605 0.0
C1048 C 0.11093 0.6502 0.04767 0.0
C1049 C 0.06546 0.59317 0.02274 0.0
C1050 C 0.08077 0.61298 0.03139 0.0
H1051 H 0.17386 0.68836 0.07353 0.0
H1052 H 0.14759 0.65795 0.05789 0.0
H1053 H 0.10242 0.66464 0.02991 0.0
H1054 H 0.01738 0.56811 0.0074 0.0
H1055 H 0.04346 0.60213 0.01891 0.0
C1056 C 0.29294 0.41738 0.08361 0.0
C1057 C 0.28138 0.42675 0.08269 0.0
C1058 C 0.31189 0.42694 0.07858 0.0
C1059 C 0.3425 0.46603 0.05227 0.0
H1060 H 0.38393 0.45836 0.07148 0.0
C1061 C 0.40962 0.48054 0.01929 0.0
C1062 C 0.42801 0.48863 0.02806 0.0
C1063 C 0.39268 0.47487 0.02708 0.0
C1064 C 0.37264 0.46092 0.06609 0.0
H1065 H 0.28108 0.45393 0.07618 0.0
H1066 H 0.31436 0.47094 0.06803 0.0
H1067 H 0.35316 0.44585 0.08383 0.0
H1068 H 0.44327 0.49739 0.05184 0.0
H1069 H 0.41364 0.4879 0.06556 0.0
H1070 H 0.36207 0.48145 0.03473 0.0
C1071 C 0.30859 0.45594 0.07228 0.0
C1072 C 0.35486 0.45348 0.07306 0.0
C1073 C 0.28956 0.44629 0.07717 0.0
C1074 C 0.42922 0.49115 0.04481 0.0
C1075 C 0.41224 0.48559 0.05264 0.0
C1076 C 0.3603 0.4736 0.04539 0.0
C1077 C 0.31988 0.44623 0.07264 0.0
C1078 C 0.33943 0.45563 0.06608 0.0
C1079 C 0.39373 0.47733 0.04386 0.0
C1080 C 0.37547 0.4708 0.05202 0.0
H1081 H 0.28729 0.40251 0.08806 0.0
H1082 H 0.32002 0.41888 0.0789 0.0
H1083 H 0.33093 0.46781 0.04644 0.0
H1084 H 0.40826 0.47831 0.00636 0.0
H1085 H 0.37867 0.46817 0.01992 0.0
C1086 C 0.60408 0.89724 0.05793 0.0
C1087 C 0.59374 0.8758 0.05795 0.0
C1088 C 0.59465 0.90745 0.05232 0.0
C1089 C 0.55001 0.89896 0.02785 0.0
H1090 H 0.56508 0.95261 0.04845 0.0
C1091 C 0.50862 0.9434 0.01561 0.0
C1092 C 0.52068 0.96416 0.01319 0.0
C1093 C 0.51699 0.93182 0.02047 0.0
C1094 C 0.56082 0.93768 0.04253 0.0
H1095 H 0.56525 0.84831 0.05194 0.0
H1096 H 0.54859 0.86619 0.04286 0.0
H1097 H 0.58037 0.93388 0.05862 0.0
H1098 H 0.551 0.98889 0.01371 0.0
H1099 H 0.56546 0.96874 0.02238 0.0
H1100 H 0.53006 0.90277 0.01201 0.0
C1101 C 0.56414 0.8751 0.04686 0.0
C1102 C 0.56963 0.92697 0.0483 0.0
C1103 C 0.57364 0.86485 0.05232 0.0
C1104 C 0.54125 0.97295 0.01545 0.0
C1105 C 0.54956 0.96147 0.02051 0.0
C1106 C 0.54099 0.90961 0.02222 0.0
C1107 C 0.57453 0.89654 0.04677 0.0
C1108 C 0.56453 0.90756 0.04093 0.0
C1109 C 0.53753 0.94087 0.02323 0.0
C1110 C 0.54649 0.92916 0.02941 0.0
H1111 H 0.61948 0.90626 0.06238 0.0
H1112 H 0.60324 0.92393 0.05221 0.0
H1113 H 0.54588 0.8842 0.02173 0.0
H1114 H 0.49273 0.93615 0.01392 0.0
H1115 H 0.50739 0.91596 0.02253 0.0
C1116 C 0.96379 0.18277 0.41774 0.0
C1117 C 0.9578 0.16185 0.4157 0.0
C1118 C 0.98052 0.19714 0.41104 0.0
C1119 C 0.02604 0.20336 0.39489 0.0
H1120 H 0.02847 0.25123 0.37831 0.0
C1121 C 0.08838 0.25757 0.35831 0.0
C1122 C 0.09679 0.27863 0.36279 0.0
C1123 C 0.07137 0.2434 0.36479 0.0
C1124 C 0.02802 0.238 0.38301 0.0
H1125 H 0.96404 0.13943 0.40455 0.0
H1126 H 0.99285 0.16435 0.39247 0.0
H1127 H 0.99847 0.22617 0.38912 0.0
H1128 H 0.09417 0.3015 0.37746 0.0
H1129 H 0.06422 0.2767 0.38866 0.0
H1130 H 0.05548 0.21506 0.38844 0.0
C1131 C 0.98509 0.16982 0.39966 0.0
C1132 C 0.01087 0.22366 0.38925 0.0
C1133 C 0.96852 0.15551 0.4065 0.0
C1134 C 0.08792 0.28532 0.37381 0.0
C1135 C 0.07077 0.27117 0.38015 0.0
C1136 C 0.04308 0.21757 0.38849 0.0
C1137 C 0.99147 0.19086 0.402 0.0
C1138 C 0.00966 0.20615 0.39528 0.0
C1139 C 0.06235 0.25007 0.37572 0.0
C1140 C 0.04425 0.23503 0.3825 0.0
H1141 H 0.95587 0.18807 0.42491 0.0
H1142 H 0.98512 0.21322 0.41329 0.0
H1143 H 0.02584 0.19032 0.39973 0.0
H1144 H 0.09496 0.25204 0.34982 0.0
H1145 H 0.0651 0.22723 0.36109 0.0
C1146 C 0.79541 0.74614 0.41479 0.0
C1147 C 0.81061 0.74737 0.40601 0.0
C1148 C 0.78385 0.75425 0.40943 0.0
C1149 C 0.76846 0.76886 0.37266 0.0
H1150 H 0.75063 0.79626 0.40203 0.0
C1151 C 0.72655 0.80813 0.35027 0.0
C1152 C 0.70982 0.80443 0.35791 0.0
C1153 C 0.73959 0.80241 0.35673 0.0
C1154 C 0.75537 0.7885 0.39371 0.0
H1155 H 0.82609 0.75877 0.38505 0.0
H1156 H 0.80607 0.77308 0.37577 0.0
H1157 H 0.77226 0.78415 0.41223 0.0
H1158 H 0.69376 0.79237 0.37847 0.0
H1159 H 0.71655 0.78222 0.38979 0.0
H1160 H 0.75158 0.77315 0.35416 0.0
C1161 C 0.80277 0.76545 0.38661 0.0
C1162 C 0.76775 0.78155 0.39954 0.0
C1163 C 0.81427 0.75727 0.39193 0.0
C1164 C 0.70657 0.79536 0.37234 0.0
C1165 C 0.71966 0.78967 0.37885 0.0
C1166 C 0.75616 0.77585 0.36684 0.0
C1167 C 0.78728 0.76385 0.3952 0.0
C1168 C 0.77442 0.77163 0.38908 0.0
C1169 C 0.73617 0.79288 0.37098 0.0
C1170 C 0.74946 0.78574 0.37729 0.0
H1171 H 0.79208 0.73839 0.42558 0.0
H1172 H 0.77189 0.75251 0.41623 0.0
H1173 H 0.77298 0.76093 0.3643 0.0
H1174 H 0.72945 0.81521 0.33916 0.0
H1175 H 0.75233 0.80539 0.35052 0.0
C1176 C 0.26127 0.06623 0.38126 0.0
C1177 C 0.25363 0.07441 0.39234 0.0
C1178 C 0.2506 0.04553 0.37549 0.0
C1179 C 0.21216 0.99539 0.38555 0.0
H1180 H 0.21142 0.97889 0.34094 0.0
C1181 C 0.17183 0.91007 0.35948 0.0
C1182 C 0.1825 0.90471 0.34931 0.0
C1183 C 0.1784 0.9307 0.36425 0.0
C1184 C 0.21157 0.98324 0.35345 0.0
H1185 H 0.22855 0.06724 0.40578 0.0
H1186 H 0.21001 0.03098 0.39581 0.0
H1187 H 0.22691 0.01518 0.35016 0.0
H1188 H 0.2084 0.9169 0.33611 0.0
H1189 H 0.21983 0.95254 0.34451 0.0
H1190 H 0.19722 0.96342 0.38891 0.0
C1191 C 0.22435 0.04062 0.39171 0.0
C1192 C 0.22044 0.00403 0.35872 0.0
C1193 C 0.23499 0.06138 0.39744 0.0
C1194 C 0.19974 0.9204 0.34392 0.0
C1195 C 0.20625 0.94092 0.34864 0.0
C1196 C 0.20332 0.97455 0.38028 0.0
C1197 C 0.23207 0.03248 0.38069 0.0
C1198 C 0.22116 0.01035 0.37488 0.0
C1199 C 0.19571 0.94634 0.35888 0.0
C1200 C 0.20327 0.96827 0.36422 0.0
H1201 H 0.27572 0.07572 0.37729 0.0
H1202 H 0.2571 0.03964 0.36722 0.0
H1203 H 0.21262 -0.00021 0.39811 0.0
H1204 H 0.15849 0.89838 0.36386 0.0
H1205 H 0.16988 0.9344 0.37207 0.0
C1206 C 0.53039 0.59905 0.28395 0.0
C1207 C 0.51351 0.59177 0.27318 0.0
C1208 C 0.54092 0.6196 0.29016 0.0
C1209 C 0.55056 0.6707 0.28161 0.0
H1210 H 0.57194 0.68582 0.326 0.0
C1211 C 0.59449 0.75522 0.30883 0.0
C1212 C 0.61167 0.7608 0.31876 0.0
C1213 C 0.58102 0.73459 0.30393 0.0
C1214 C 0.56619 0.68185 0.31355 0.0
H1215 H 0.49419 0.6003 0.26082 0.0
H1216 H 0.5127 0.63625 0.27158 0.0
H1217 H 0.55119 0.64972 0.31622 0.0
H1218 H 0.62803 0.74896 0.33144 0.0
H1219 H 0.60476 0.7132 0.32275 0.0
H1220 H 0.56585 0.7028 0.27885 0.0
C1221 C 0.51789 0.62607 0.27506 0.0
C1222 C 0.5543 0.66118 0.30795 0.0
C1223 C 0.50731 0.60549 0.26888 0.0
C1224 C 0.61494 0.74527 0.32383 0.0
C1225 C 0.60151 0.7247 0.31893 0.0
C1226 C 0.5625 0.69139 0.2872 0.0
C1227 C 0.53486 0.63337 0.28572 0.0
C1228 C 0.54654 0.65536 0.29188 0.0
C1229 C 0.58444 0.7191 0.30886 0.0
C1230 C 0.57065 0.6972 0.30319 0.0
H1231 H 0.53575 0.58898 0.28732 0.0
H1232 H 0.55412 0.62482 0.29815 0.0
H1233 H 0.54499 0.66671 0.26912 0.0
H1234 H 0.59148 0.76677 0.30473 0.0
H1235 H 0.5679 0.73077 0.2963 0.0
C1236 C 0.37704 0.90526 0.26554 0.0
C1237 C 0.38725 0.92621 0.26335 0.0
C1238 C 0.35787 0.89604 0.27015 0.0
C1239 C 0.31359 0.89979 0.26915 0.0
H1240 H 0.30358 0.87384 0.30862 0.0
C1241 C 0.24406 0.8807 0.30055 0.0
C1242 C 0.23607 0.86387 0.30961 0.0
C1243 C 0.26175 0.88663 0.29382 0.0
C1244 C 0.3059 0.88059 0.29739 0.0
H1245 H 0.38544 0.95387 0.26375 0.0
H1246 H 0.35164 0.93759 0.27137 0.0
H1247 H 0.33571 0.88684 0.29843 0.0
H1248 H 0.23975 0.83954 0.31834 0.0
H1249 H 0.27023 0.84926 0.30602 0.0
H1250 H 0.28381 0.89325 0.26778 0.0
C1251 C 0.35855 0.9284 0.26971 0.0
C1252 C 0.32438 0.88814 0.29163 0.0
C1253 C 0.37785 0.9377 0.26544 0.0
C1254 C 0.24575 0.8527 0.3115 0.0
C1255 C 0.26328 0.85839 0.30452 0.0
C1256 C 0.29499 0.8919 0.27473 0.0
C1257 C 0.34848 0.90755 0.27226 0.0
C1258 C 0.32846 0.8981 0.27761 0.0
C1259 C 0.27168 0.87561 0.29575 0.0
C1260 C 0.29099 0.88253 0.2891 0.0
H1261 H 0.38407 0.89615 0.26405 0.0
H1262 H 0.35035 0.87993 0.27203 0.0
H1263 H 0.31638 0.90724 0.25821 0.0
H1264 H 0.23689 0.88962 0.29898 0.0
H1265 H 0.26785 0.90019 0.28745 0.0
C1266 C 0.12205 0.49224 0.28303 0.0
C1267 C 0.10797 0.48551 0.26985 0.0
C1268 C 0.12415 0.47809 0.2916 0.0
C1269 C 0.11227 0.42375 0.28718 0.0
H1270 H 0.13325 0.43639 0.33167 0.0
C1271 C 0.12514 0.36814 0.32348 0.0
C1272 C 0.14511 0.37647 0.32884 0.0
C1273 C 0.11833 0.38071 0.31783 0.0
C1274 C 0.12728 0.43267 0.31927 0.0
H1275 H 0.08443 0.459 0.25559 0.0
H1276 H 0.08721 0.4341 0.27105 0.0
H1277 H 0.12448 0.45933 0.31901 0.0
H1278 H 0.17341 0.4045 0.3332 0.0
H1279 H 0.16129 0.42656 0.32378 0.0
H1280 H 0.11479 0.39686 0.28768 0.0
C1281 C 0.09723 0.45025 0.27449 0.0
C1282 C 0.12241 0.44586 0.31194 0.0
C1283 C 0.09547 0.46445 0.2657 0.0
C1284 C 0.15796 0.39768 0.32908 0.0
C1285 C 0.15104 0.4103 0.32379 0.0
C1286 C 0.11673 0.41037 0.29462 0.0
C1287 C 0.11191 0.45687 0.28735 0.0
C1288 C 0.11524 0.44183 0.29567 0.0
C1289 C 0.13127 0.40185 0.31784 0.0
C1290 C 0.12462 0.41493 0.31062 0.0
H1291 H 0.13195 0.50848 0.28629 0.0
H1292 H 0.13587 0.48389 0.30118 0.0
H1293 H 0.1072 0.42023 0.27459 0.0
H1294 H 0.11496 0.35181 0.32307 0.0
H1295 H 0.10302 0.3739 0.31325 0.0
C1296 C 0.37118 0.44611 0.25843 0.0
C1297 C 0.38468 0.4673 0.26025 0.0
C1298 C 0.35241 0.43834 0.26363 0.0
C1299 C 0.32543 0.45174 0.29195 0.0
H1300 H 0.28009 0.40316 0.27021 0.0
C1301 C 0.25628 0.40198 0.32332 0.0
C1302 C 0.2378 0.39235 0.31447 0.0
C1303 C 0.27345 0.41294 0.31581 0.0
C1304 C 0.29251 0.41692 0.27632 0.0
H1305 H 0.38879 0.49697 0.2687 0.0
H1306 H 0.35585 0.48346 0.27729 0.0
H1307 H 0.31109 0.41897 0.25801 0.0
H1308 H 0.22261 0.38696 0.29094 0.0
H1309 H 0.25268 0.4065 0.27779 0.0
H1310 H 0.30682 0.44985 0.31017 0.0
C1311 C 0.35991 0.47281 0.2721 0.0
C1312 C 0.31037 0.42583 0.26942 0.0
C1313 C 0.37873 0.48058 0.26697 0.0
C1314 C 0.23672 0.39426 0.29803 0.0
C1315 C 0.25393 0.40532 0.29049 0.0
C1316 C 0.30756 0.44291 0.2988 0.0
C1317 C 0.34661 0.45157 0.2707 0.0
C1318 C 0.32715 0.44313 0.27729 0.0
C1319 C 0.27253 0.4146 0.29928 0.0
C1320 C 0.29097 0.42515 0.29123 0.0
H1321 H 0.37516 0.43547 0.25309 0.0
H1322 H 0.34266 0.42189 0.26252 0.0
H1323 H 0.33807 0.46495 0.29843 0.0
H1324 H 0.2575 0.40065 0.33601 0.0
H1325 H 0.28749 0.41957 0.32291 0.0
C1326 C 0.50372 0.90297 0.27334 0.0
C1327 C 0.51239 0.9193 0.26377 0.0
C1328 C 0.5133 0.89229 0.27745 0.0
C1329 C 0.55163 0.88097 0.26574 0.0
H1330 H 0.55515 0.87133 0.31017 0.0
C1331 C 0.60591 0.85727 0.29177 0.0
C1332 C 0.60006 0.84417 0.30399 0.0
C1333 C 0.59389 0.86458 0.28584 0.0
C1334 C 0.55403 0.87354 0.29765 0.0
H1335 H 0.53763 0.93687 0.25064 0.0
H1336 H 0.55441 0.91828 0.2579 0.0
H1337 H 0.53655 0.88749 0.30173 0.0
H1338 H 0.5768 0.82765 0.31914 0.0
H1339 H 0.55555 0.83995 0.30855 0.0
H1340 H 0.56913 0.86704 0.26165 0.0
C1341 C 0.54019 0.91372 0.26219 0.0
C1342 C 0.54339 0.88287 0.29284 0.0
C1343 C 0.53068 0.9245 0.25817 0.0
C1344 C 0.5817 0.83787 0.30978 0.0
C1345 C 0.56961 0.84504 0.30379 0.0
C1346 C 0.56217 0.87151 0.27053 0.0
C1347 C 0.53167 0.89761 0.27197 0.0
C1348 C 0.54222 0.88684 0.27686 0.0
C1349 C 0.57572 0.8588 0.29196 0.0
C1350 C 0.56364 0.86784 0.28659 0.0
H1351 H 0.4897 0.8987 0.2779 0.0
H1352 H 0.50631 0.87985 0.28491 0.0
H1353 H 0.55076 0.88361 0.2533 0.0
H1354 H 0.62005 0.86238 0.28713 0.0
H1355 H 0.59918 0.87531 0.27687 0.0
C1356 C 0.13502 0.63878 0.2771 0.0
C1357 C 0.11703 0.62437 0.26847 0.0
C1358 C 0.13753 0.65704 0.28446 0.0
C1359 C 0.11318 0.68309 0.30086 0.0
H1360 H 0.15722 0.73192 0.28756 0.0
C1361 C 0.1278 0.7652 0.3193 0.0
C1362 C 0.14755 0.78104 0.32166 0.0
C1363 C 0.12305 0.74542 0.31334 0.0
C1364 C 0.14506 0.71851 0.29167 0.0
H1365 H 0.08727 0.61764 0.26148 0.0
H1366 H 0.09159 0.64939 0.27486 0.0
H1367 H 0.1508 0.69836 0.277 0.0
H1368 H 0.17783 0.78847 0.32046 0.0
H1369 H 0.16971 0.75407 0.31085 0.0
H1370 H 0.10777 0.70321 0.31594 0.0
C1371 C 0.10373 0.64645 0.27572 0.0
C1372 C 0.14134 0.69928 0.28551 0.0
C1373 C 0.10128 0.62826 0.26812 0.0
C1374 C 0.16245 0.77663 0.31851 0.0
C1375 C 0.15775 0.75689 0.31287 0.0
C1376 C 0.11711 0.70241 0.30728 0.0
C1377 C 0.12202 0.66118 0.28362 0.0
C1378 C 0.12547 0.68141 0.29011 0.0
C1379 C 0.13799 0.74108 0.30988 0.0
C1380 C 0.13322 0.72039 0.30285 0.0
H1381 H 0.14731 0.6361 0.27802 0.0
H1382 H 0.1517 0.66808 0.29068 0.0
H1383 H 0.10085 0.66946 0.30457 0.0
H1384 H 0.11602 0.76822 0.32158 0.0
H1385 H 0.10767 0.73371 0.31107 0.0
C1386 C 0.81179 0.03821 0.38842 0.0
C1387 C 0.81314 0.04218 0.40512 0.0
C1388 C 0.79571 0.02054 0.38043 0.0
C1389 C 0.75656 0.984 0.36552 0.0
H1390 H 0.74209 0.936 0.38815 0.0
C1391 C 0.69294 0.90166 0.34261 0.0
C1392 C 0.69665 0.88561 0.34503 0.0
C1393 C 0.70647 0.92173 0.34903 0.0
C1394 C 0.74602 0.94922 0.38162 0.0
H1395 H 0.79786 0.03107 0.42629 0.0
H1396 H 0.76965 0.00101 0.41233 0.0
H1397 H 0.76615 0.9696 0.40097 0.0
H1398 H 0.71791 0.87825 0.35549 0.0
H1399 H 0.74142 0.91307 0.36643 0.0
H1400 H 0.73674 0.96324 0.34592 0.0
C1401 C 0.78127 0.01125 0.40545 0.0
C1402 C 0.75961 0.96856 0.38907 0.0
C1403 C 0.79738 0.02874 0.41344 0.0
C1404 C 0.71444 0.89016 0.35353 0.0
C1405 C 0.7279 0.91014 0.35989 0.0
C1406 C 0.74289 0.96454 0.35802 0.0
C1407 C 0.78058 0.00653 0.38896 0.0
C1408 C 0.76516 0.9862 0.38111 0.0
C1409 C 0.72392 0.92609 0.35799 0.0
C1410 C 0.73769 0.94693 0.36595 0.0
H1411 H 0.82345 0.04841 0.38157 0.0
H1412 H 0.79565 0.01736 0.36772 0.0
H1413 H 0.76044 0.9973 0.3591 0.0
H1414 H 0.67938 0.89868 0.33612 0.0
H1415 H 0.70296 0.9337 0.34743 0.0
C1416 C 0.94635 0.76769 0.39824 0.0
C1417 C 0.9415 0.75377 0.40988 0.0
C1418 C 0.96528 0.7775 0.39318 0.0
C1419 C 0.01669 0.7908 0.40425 0.0
H1420 H 0.02079 0.79245 0.35862 0.0
C1421 C 0.08832 0.80942 0.37568 0.0
C1422 C 0.09279 0.82091 0.36246 0.0
C1423 C 0.0704 0.80292 0.38221 0.0
C1424 C 0.01996 0.79242 0.37142 0.0
H1425 H 0.95291 0.73976 0.42572 0.0
H1426 H 0.9859 0.75667 0.41673 0.0
H1427 H 0.98856 0.77818 0.36872 0.0
H1428 H 0.08247 0.8352 0.34598 0.0
H1429 H 0.05129 0.82413 0.3575 0.0
H1430 H 0.04812 0.80492 0.40692 0.0
C1431 C 0.97509 0.76009 0.41158 0.0
C1432 C 0.00147 0.78422 0.3772 0.0
C1433 C 0.95613 0.75022 0.4166 0.0
C1434 C 0.07931 0.82624 0.35612 0.0
C1435 C 0.06141 0.81979 0.36267 0.0
C1436 C 0.03523 0.79906 0.39846 0.0
C1437 C 0.97981 0.77366 0.39968 0.0
C1438 C -0.0004 0.78319 0.39367 0.0
C1439 C 0.05662 0.80783 0.37566 0.0
C1440 C 0.03706 0.79985 0.38196 0.0
H1441 H 0.93537 0.77064 0.39275 0.0
H1442 H 0.96852 0.78804 0.38412 0.0
H1443 H 0.01576 0.79047 0.41702 0.0
H1444 H 0.0985 0.80511 0.38078 0.0
H1445 H 0.0671 0.79354 0.3921 0.0
C1446 C 0.24563 0.20795 0.40204 0.0
C1447 C 0.26317 0.21088 0.39616 0.0
C1448 C 0.23653 0.21847 0.39637 0.0
C1449 C 0.24662 0.26431 0.37631 0.0
H1450 H 0.18983 0.23623 0.36728 0.0
C1451 C 0.2078 0.30218 0.34526 0.0
C1452 C 0.19053 0.29966 0.35139 0.0
C1453 C 0.21626 0.29081 0.35031 0.0
C1454 C 0.20569 0.24434 0.3699 0.0
H1455 H 0.28466 0.22688 0.37949 0.0
H1456 H 0.26881 0.24527 0.36964 0.0
H1457 H 0.20545 0.21753 0.37706 0.0
H1458 H 0.16848 0.28299 0.36752 0.0
H1459 H 0.18336 0.26329 0.37643 0.0
H1460 H 0.24689 0.29113 0.36924 0.0
C1461 C 0.26227 0.23507 0.37881 0.0
C1462 C 0.21463 0.23363 0.3755 0.0
C1463 C 0.27136 0.22455 0.38447 0.0
C1464 C 0.18174 0.28527 0.3625 0.0
C1465 C 0.19022 0.2739 0.36757 0.0
C1466 C 0.23768 0.27501 0.37072 0.0
C1467 C 0.24476 0.23217 0.38471 0.0
C1468 C 0.2352 0.2435 0.37876 0.0
C1469 C 0.20767 0.27666 0.36163 0.0
C1470 C 0.21712 0.26516 0.36744 0.0
H1471 H 0.23909 0.19774 0.41121 0.0
H1472 H 0.2232 0.21612 0.40132 0.0
H1473 H 0.26247 0.27244 0.37895 0.0
H1474 H 0.21492 0.31306 0.33663 0.0
H1475 H 0.22953 0.29307 0.34531 0.0
C1476 C 0.62432 0.52617 0.74549 0.0
C1477 C 0.61811 0.50516 0.74328 0.0
C1478 C 0.64062 0.54047 0.73831 0.0
C1479 C 0.672 0.5463 0.70592 0.0
H1480 H 0.71306 0.59194 0.73391 0.0
C1481 C 0.75036 0.59559 0.68721 0.0
C1482 C 0.76062 0.6166 0.69231 0.0
C1483 C 0.73228 0.5826 0.69291 0.0
C1484 C 0.70163 0.57952 0.72583 0.0
H1485 H 0.62418 0.48281 0.73152 0.0
H1486 H 0.65215 0.50769 0.7187 0.0
H1487 H 0.68207 0.56847 0.74423 0.0
H1488 H 0.76011 0.64067 0.70718 0.0
H1489 H 0.72829 0.61815 0.7168 0.0
H1490 H 0.69139 0.55734 0.68747 0.0
C1491 C 0.64434 0.51304 0.72596 0.0
C1492 C 0.68389 0.56606 0.73177 0.0
C1493 C 0.62822 0.49877 0.73327 0.0
C1494 C 0.75251 0.62447 0.70313 0.0
C1495 C 0.73433 0.61153 0.70871 0.0
C1496 C 0.68965 0.55989 0.69991 0.0
C1497 C 0.6509 0.53404 0.72862 0.0
C1498 C 0.66901 0.54918 0.72193 0.0
C1499 C 0.72399 0.5904 0.7037 0.0
C1500 C 0.70481 0.57652 0.70985 0.0
H1501 H 0.61669 0.53162 0.75287 0.0
H1502 H 0.64527 0.55658 0.74041 0.0
H1503 H 0.66066 0.53351 0.69804 0.0
H1504 H 0.75637 0.58916 0.67892 0.0
H1505 H 0.72495 0.56638 0.68902 0.0
C1506 C 0.47374 0.0776 0.72568 0.0
C1507 C 0.47862 0.07772 0.74201 0.0
C1508 C 0.46246 0.08617 0.7208 0.0
C1509 C 0.42593 0.09893 0.73395 0.0
H1510 H 0.43977 0.13161 0.69795 0.0
C1511 C 0.37999 0.13412 0.71023 0.0
C1512 C 0.37671 0.13275 0.69354 0.0
C1513 C 0.39349 0.12924 0.71718 0.0
C1514 C 0.43561 0.12238 0.70794 0.0
H1515 H 0.47554 0.08723 0.76599 0.0
H1516 H 0.45549 0.10192 0.7574 0.0
H1517 H 0.46143 0.11969 0.70821 0.0
H1518 H 0.38483 0.12525 0.67102 0.0
H1519 H 0.40807 0.1164 0.68305 0.0
H1520 H 0.39984 0.10116 0.73343 0.0
C1521 C 0.46042 0.09509 0.74842 0.0
C1522 C 0.44804 0.11559 0.71383 0.0
C1523 C 0.47186 0.08663 0.75333 0.0
C1524 C 0.38716 0.12651 0.68393 0.0
C1525 C 0.40058 0.1216 0.69084 0.0
C1526 C 0.41341 0.10563 0.728 0.0
C1527 C 0.45563 0.09496 0.7321 0.0
C1528 C 0.44319 0.10352 0.72673 0.0
C1529 C 0.40393 0.12289 0.70755 0.0
C1530 C 0.41794 0.11715 0.71475 0.0
H1531 H 0.4783 0.07048 0.71662 0.0
H1532 H 0.4587 0.0855 0.70813 0.0
H1533 H 0.42173 0.0895 0.74383 0.0
H1534 H 0.37211 0.13895 0.7179 0.0
H1535 H 0.39585 0.13058 0.73008 0.0
C1536 C 0.92646 0.39728 0.70994 0.0
C1537 C 0.9185 0.40576 0.72042 0.0
C1538 C 0.91546 0.37673 0.70381 0.0
C1539 C 0.87463 0.32714 0.71234 0.0
H1540 H 0.87726 0.31067 0.66847 0.0
C1541 C 0.83516 0.24191 0.6868 0.0
C1542 C 0.84691 0.23632 0.67823 0.0
C1543 C 0.84133 0.26259 0.69078 0.0
C1544 C 0.87642 0.31502 0.68077 0.0
H1545 H 0.89253 0.39939 0.73236 0.0
H1546 H 0.87339 0.36339 0.72174 0.0
H1547 H 0.89304 0.34701 0.67775 0.0
H1548 H 0.87409 0.24817 0.66673 0.0
H1549 H 0.8848 0.28396 0.67375 0.0
H1550 H 0.85845 0.29515 0.71547 0.0
C1551 C 0.88822 0.37265 0.71841 0.0
C1552 C 0.88547 0.33582 0.68607 0.0
C1553 C 0.89921 0.39324 0.72451 0.0
C1554 C 0.86465 0.25185 0.67336 0.0
C1555 C 0.87075 0.27244 0.67728 0.0
C1556 C 0.86559 0.30631 0.70703 0.0
C1557 C 0.89626 0.36416 0.70803 0.0
C1558 C 0.88503 0.34211 0.702 0.0
C1559 C 0.85929 0.27808 0.68618 0.0
C1560 C 0.86675 0.30003 0.69128 0.0
H1561 H 0.94138 0.40639 0.70675 0.0
H1562 H 0.92221 0.37055 0.69606 0.0
H1563 H 0.87417 0.3315 0.72472 0.0
H1564 H 0.82141 0.23033 0.69072 0.0
H1565 H 0.83211 0.26648 0.69755 0.0
C1566 C 0.19909 0.93062 0.62447 0.0
C1567 C 0.18284 0.92261 0.61292 0.0
C1568 C 0.20827 0.95106 0.63086 0.0
C1569 C 0.21618 0.00127 0.62178 0.0
H1570 H 0.23491 0.01652 0.66671 0.0
C1571 C 0.25972 0.086 0.64855 0.0
C1572 C 0.2767 0.09134 0.65866 0.0
C1573 C 0.24584 0.06539 0.64393 0.0
C1574 C 0.22985 0.01252 0.65412 0.0
H1575 H 0.1632 0.92975 0.59935 0.0
H1576 H 0.17942 0.96556 0.61041 0.0
H1577 H 0.2152 0.98038 0.65674 0.0
H1578 H 0.29211 0.07914 0.6722 0.0
H1579 H 0.26816 0.04346 0.66405 0.0
H1580 H 0.23127 0.03339 0.61906 0.0
C1581 C 0.18512 0.956 0.61439 0.0
C1582 C 0.21856 0.99182 0.64842 0.0
C1583 C 0.17588 0.93551 0.60803 0.0
C1584 C 0.27922 0.07564 0.66439 0.0
C1585 C 0.26538 0.05511 0.65981 0.0
C1586 C 0.22753 0.02199 0.62748 0.0
C1587 C 0.20147 0.96402 0.62583 0.0
C1588 C 0.21191 0.98597 0.63213 0.0
C1589 C 0.24864 0.04972 0.64938 0.0
C1590 C 0.23481 0.02784 0.64366 0.0
H1591 H 0.20505 0.92123 0.62831 0.0
H1592 H 0.22104 0.95686 0.63945 0.0
H1593 H 0.21143 0.99725 0.60913 0.0
H1594 H 0.2573 0.09771 0.64393 0.0
H1595 H 0.23299 0.06172 0.63601 0.0
C1596 C 0.0502 0.24219 0.60896 0.0
C1597 C 0.05767 0.25966 0.60052 0.0
C1598 C 0.03147 0.23386 0.61439 0.0
C1599 C 0.99474 0.24837 0.62451 0.0
H1600 H 0.95923 0.18974 0.62339 0.0
C1601 C 0.91461 0.21502 0.63898 0.0
C1602 C 0.90719 0.19891 0.64879 0.0
C1603 C 0.93272 0.22158 0.63285 0.0
C1604 C 0.96908 0.20615 0.62393 0.0
H1605 H 0.05104 0.28153 0.59054 0.0
H1606 H 0.01833 0.26693 0.59988 0.0
H1607 H 0.99121 0.20265 0.61274 0.0
H1608 H 0.91257 0.17673 0.6597 0.0
H1609 H 0.94447 0.18832 0.64901 0.0
H1610 H 0.97269 0.25192 0.63565 0.0
C1611 C 0.0271 0.25994 0.60263 0.0
C1612 C 0.98739 0.21354 0.61782 0.0
C1613 C 0.04582 0.26828 0.59726 0.0
C1614 C 0.91803 0.18922 0.65218 0.0
C1615 C 0.9362 0.19578 0.646 0.0
C1616 C 0.97648 0.24099 0.63057 0.0
C1617 C 0.01981 0.2428 0.61146 0.0
C1618 C 0.00037 0.23475 0.61797 0.0
C1619 C 0.94381 0.21217 0.63639 0.0
C1620 C 0.96339 0.21982 0.63026 0.0
H1621 H 0.05907 0.23532 0.6118 0.0
H1622 H 0.02639 0.22079 0.62129 0.0
H1623 H 0.00456 0.26479 0.62515 0.0
H1624 H 0.90646 0.22265 0.63609 0.0
H1625 H 0.93801 0.234 0.62526 0.0
C1626 C 0.77733 0.81912 0.61601 0.0
C1627 C 0.77249 0.81538 0.59939 0.0
C1628 C 0.78009 0.80523 0.62446 0.0
C1629 C 0.79507 0.767 0.61744 0.0
H1630 H 0.78119 0.75406 0.66047 0.0
C1631 C 0.8306 0.7316 0.65481 0.0
C1632 C 0.81796 0.71431 0.6624 0.0
C1633 C 0.82385 0.74381 0.64846 0.0
C1634 C 0.78504 0.75747 0.64842 0.0
H1635 H 0.76524 0.79347 0.57879 0.0
H1636 H 0.76992 0.76919 0.59351 0.0
H1637 H 0.76982 0.77428 0.64638 0.0
H1638 H 0.78856 0.69694 0.67001 0.0
H1639 H 0.77674 0.71841 0.6588 0.0
H1640 H 0.81023 0.75029 0.61936 0.0
C1641 C 0.77205 0.78307 0.59997 0.0
C1642 C 0.77866 0.76913 0.6404 0.0
C1643 C 0.76936 0.79695 0.59154 0.0
C1644 C 0.79867 0.71014 0.66422 0.0
C1645 C 0.7919 0.72244 0.65783 0.0
C1646 C 0.80149 0.75549 0.62544 0.0
C1647 C 0.77801 0.78733 0.61644 0.0
C1648 C 0.78369 0.77408 0.62484 0.0
C1649 C 0.80429 0.73906 0.64951 0.0
C1650 C 0.79675 0.75077 0.64107 0.0
H1651 H 0.77996 0.83326 0.62236 0.0
H1652 H 0.78481 0.80902 0.63712 0.0
H1653 H 0.79945 0.77077 0.60556 0.0
H1654 H 0.84562 0.73545 0.65336 0.0
H1655 H 0.83387 0.75679 0.64241 0.0
C1656 C 0.04621 0.79023 0.59499 0.0
C1657 C 0.06205 0.79038 0.60364 0.0
C1658 C 0.02758 0.78113 0.60065 0.0
C1659 C 0.99748 0.74453 0.62891 0.0
H1660 H 0.96627 0.77099 0.62515 0.0
C1661 C 0.92804 0.72018 0.66206 0.0
C1662 C 0.91147 0.7182 0.65321 0.0
C1663 C 0.9463 0.72909 0.65581 0.0
C1664 C 0.97475 0.76334 0.62615 0.0
H1665 H 0.07086 0.78138 0.62511 0.0
H1666 H 0.03848 0.76572 0.63508 0.0
H1667 H 0.99832 0.78612 0.61448 0.0
H1668 H 0.9009 0.72409 0.631 0.0
H1669 H 0.9329 0.7398 0.62007 0.0
H1670 H 0.974 0.7219 0.64077 0.0
C1671 C 0.04029 0.77221 0.62375 0.0
C1672 C 0.99309 0.77196 0.62001 0.0
C1673 C 0.05886 0.78121 0.61804 0.0
C1674 C 0.9135 0.72553 0.63809 0.0
C1675 C 0.9318 0.73456 0.63187 0.0
C1676 C 0.97921 0.73598 0.63513 0.0
C1677 C 0.02441 0.77207 0.61514 0.0
C1678 C 0.00471 0.76269 0.62136 0.0
C1679 C 0.94836 0.73629 0.64062 0.0
C1680 C 0.96768 0.74532 0.63386 0.0
H1681 H 0.04818 0.79698 0.58376 0.0
H1682 H 0.01562 0.78101 0.59359 0.0
H1683 H 0.00587 0.73677 0.6299 0.0
H1684 H 0.92685 0.71465 0.67376 0.0
H1685 H 0.95885 0.73044 0.66291 0.0
C1686 C 0.20176 0.25887 0.59779 0.0
C1687 C 0.18116 0.24929 0.59715 0.0
C1688 C 0.21139 0.24834 0.60213 0.0
C1689 C 0.20403 0.20366 0.6231 0.0
H1690 H 0.25259 0.21507 0.6054 0.0
C1691 C 0.25731 0.18153 0.65286 0.0
C1692 C 0.26832 0.1761 0.64324 0.0
C1693 C 0.24541 0.18851 0.64615 0.0
C1694 C 0.2389 0.21142 0.61032 0.0
H1695 H 0.1544 0.22103 0.60007 0.0
H1696 H 0.17112 0.20237 0.60724 0.0
H1697 H 0.23405 0.23037 0.59505 0.0
H1698 H 0.27521 0.17309 0.61902 0.0
H1699 H 0.25393 0.18469 0.60713 0.0
H1700 H 0.20858 0.18425 0.63805 0.0
C1701 C 0.17993 0.2182 0.60481 0.0
C1702 C 0.2284 0.22048 0.60454 0.0
C1703 C 0.17033 0.22884 0.60065 0.0
C1704 C 0.2669 0.17729 0.62671 0.0
C1705 C 0.25482 0.18407 0.61993 0.0
C1706 C 0.21441 0.19442 0.62876 0.0
C1707 C 0.20062 0.22788 0.60576 0.0
C1708 C 0.211 0.21701 0.61105 0.0
C1709 C 0.24409 0.19 0.6296 0.0
C1710 C 0.23217 0.19846 0.62265 0.0
H1711 H 0.21049 0.27472 0.59535 0.0
H1712 H 0.22733 0.25646 0.60304 0.0
H1713 H 0.19081 0.20074 0.62853 0.0
H1714 H 0.25824 0.18084 0.66567 0.0
H1715 H 0.2377 0.19327 0.65403 0.0
C1716 C 0.80042 0.96764 0.61534 0.0
C1717 C 0.78293 0.95484 0.60544 0.0
C1718 C 0.80353 0.98587 0.62328 0.0
C1719 C 0.78093 0.01423 0.63872 0.0
H1720 H 0.82753 0.0621 0.6272 0.0
C1721 C 0.79707 0.09698 0.65564 0.0
C1722 C 0.81683 0.11273 0.65826 0.0
C1723 C 0.79232 0.07703 0.6503 0.0
C1724 C 0.81468 0.04896 0.63088 0.0
H1725 H 0.75455 0.95076 0.59693 0.0
H1726 H 0.75984 0.9824 0.61132 0.0
H1727 H 0.82012 0.02814 0.61679 0.0
H1728 H 0.84712 0.11986 0.6582 0.0
H1729 H 0.83898 0.08505 0.64976 0.0
H1730 H 0.77572 0.03494 0.6532 0.0
C1731 C 0.77114 0.97826 0.61271 0.0
C1732 C 0.81039 0.02949 0.62478 0.0
C1733 C 0.76812 0.96013 0.60452 0.0
C1734 C 0.83175 0.10806 0.65604 0.0
C1735 C 0.82703 0.08808 0.65107 0.0
C1736 C 0.78543 0.03375 0.64511 0.0
C1737 C 0.7891 0.99153 0.62178 0.0
C1738 C 0.7935 0.01198 0.62862 0.0
C1739 C 0.80725 0.07235 0.64778 0.0
C1740 C 0.80238 0.05141 0.64125 0.0
H1741 H 0.81192 0.96381 0.61672 0.0
H1742 H 0.8174 0.99577 0.6304 0.0
H1743 H 0.76783 0.00088 0.64185 0.0
H1744 H 0.78527 0.10021 0.65717 0.0
H1745 H 0.77693 0.06546 0.64772 0.0
C1746 C 0.47277 0.3664 0.73712 0.0
C1747 C 0.49074 0.36755 0.74181 0.0
C1748 C 0.45749 0.34873 0.72836 0.0
C1749 C 0.43988 0.29373 0.72147 0.0
H1750 H 0.40739 0.29369 0.68521 0.0
C1751 C 0.38678 0.21919 0.68363 0.0
C1752 C 0.36763 0.21531 0.67946 0.0
C1753 C 0.40163 0.2387 0.68983 0.0
C1754 C 0.41623 0.29349 0.69541 0.0
H1755 H 0.50723 0.35166 0.74011 0.0
H1756 H 0.48069 0.32096 0.72496 0.0
H1757 H 0.4337 0.32635 0.69882 0.0
H1758 H 0.34923 0.22908 0.67784 0.0
H1759 H 0.37527 0.2633 0.68897 0.0
H1760 H 0.42253 0.26111 0.71832 0.0
C1761 C 0.4782 0.33347 0.72834 0.0
C1762 C 0.43127 0.31216 0.70319 0.0
C1763 C 0.49339 0.35104 0.73703 0.0
C1764 C 0.36386 0.23162 0.68094 0.0
C1765 C 0.37877 0.25121 0.68729 0.0
C1766 C 0.42491 0.27519 0.71378 0.0
C1767 C 0.45995 0.33193 0.72417 0.0
C1768 C 0.44342 0.31242 0.71616 0.0
C1769 C 0.39769 0.2548 0.69218 0.0
C1770 C 0.41309 0.2748 0.70052 0.0
H1771 H 0.47028 0.37886 0.74066 0.0
H1772 H 0.44356 0.34794 0.72536 0.0
H1773 H 0.44866 0.29343 0.73168 0.0
H1774 H 0.39028 0.20705 0.68241 0.0
H1775 H 0.41618 0.24107 0.69308 0.0
C1776 C 0.62164 0.07351 0.74554 0.0
C1777 C 0.60926 0.0819 0.74426 0.0
C1778 C 0.64063 0.08382 0.74063 0.0
C1779 C 0.67041 0.12306 0.71419 0.0
H1780 H 0.71339 0.11972 0.7356 0.0
C1781 C 0.74075 0.14195 0.68415 0.0
C1782 C 0.75879 0.15138 0.69362 0.0
C1783 C 0.72315 0.13539 0.69118 0.0
C1784 C 0.70165 0.12106 0.72958 0.0
H1785 H 0.6074 0.108 0.73705 0.0
H1786 H 0.64071 0.12629 0.72901 0.0
H1787 H 0.6819 0.10537 0.74699 0.0
H1788 H 0.77279 0.16175 0.7178 0.0
H1789 H 0.74204 0.15068 0.73014 0.0
H1790 H 0.69023 0.13907 0.69694 0.0
C1791 C 0.6356 0.11152 0.73353 0.0
C1792 C 0.68348 0.11258 0.73601 0.0
C1793 C 0.61656 0.10114 0.73835 0.0
C1794 C 0.75902 0.15446 0.71024 0.0
C1795 C 0.7414 0.148 0.71729 0.0
C1796 C 0.68859 0.13165 0.70782 0.0
C1797 C 0.64779 0.10287 0.73441 0.0
C1798 C 0.66754 0.1132 0.72826 0.0
C1799 C 0.72323 0.13824 0.70785 0.0
C1800 C 0.70435 0.13047 0.71529 0.0
H1801 H 0.61664 0.05887 0.75027 0.0
H1802 H 0.64949 0.07657 0.74134 0.0
H1803 H 0.65844 0.12367 0.7078 0.0
H1804 H 0.74018 0.13931 0.6713 0.0
H1805 H 0.70944 0.12763 0.68355 0.0
C1806 C 0.93271 0.5524 0.71337 0.0
C1807 C 0.92468 0.53861 0.72501 0.0
C1808 C 0.92312 0.56234 0.70753 0.0
C1809 C 0.87498 0.55964 0.7034 0.0
H1810 H 0.9068 0.61767 0.69879 0.0
C1811 C 0.84229 0.61185 0.69034 0.0
C1812 C 0.85232 0.62746 0.68039 0.0
C1813 C 0.85003 0.59963 0.69498 0.0
C1814 C 0.89771 0.60141 0.69977 0.0
H1815 H 0.90026 0.52448 0.73964 0.0
H1816 H 0.88348 0.54185 0.72937 0.0
H1817 H 0.92249 0.59921 0.70859 0.0
H1818 H 0.87769 0.6416 0.66669 0.0
H1819 H 0.89089 0.62011 0.6745 0.0
H1820 H 0.85017 0.56192 0.69455 0.0
C1821 C 0.8971 0.54476 0.72466 0.0
C1822 C 0.90672 0.59083 0.70543 0.0
C1823 C 0.90672 0.53484 0.73054 0.0
C1824 C 0.86971 0.62992 0.67456 0.0
C1825 C 0.87736 0.61766 0.67911 0.0
C1826 C 0.86595 0.57023 0.69768 0.0
C1827 C 0.90527 0.55872 0.71316 0.0
C1828 C 0.89549 0.56983 0.70725 0.0
C1829 C 0.8679 0.60273 0.68969 0.0
C1830 C 0.87725 0.59123 0.69573 0.0
H1831 H 0.9463 0.55533 0.70861 0.0
H1832 H 0.92962 0.57275 0.69847 0.0
H1833 H 0.86597 0.5434 0.70455 0.0
H1834 H 0.82887 0.60959 0.69506 0.0
H1835 H 0.84243 0.58831 0.70321 0.0
C1836 C 0.49815 0.99691 0.17176 0.0
C1837 C 0.47926 0.98505 0.1768 0.0
C1838 C 0.50046 0.00192 0.15602 0.0
C1839 C 0.47521 0.98502 0.11547 0.0
H1840 H 0.51447 0.03959 0.10649 0.0
C1841 C 0.48458 0.0081 0.05115 0.0
C1842 C 0.50397 0.01912 0.04709 0.0
C1843 C 0.4808 0.0052 0.0671 0.0
C1844 C 0.50355 0.02424 0.10879 0.0
H1845 H 0.44798 0.96907 0.16927 0.0
H1846 H 0.45202 0.97793 0.14175 0.0
H1847 H 0.50929 0.03183 0.13413 0.0
H1848 H 0.53466 0.03666 0.05628 0.0
H1849 H 0.52822 0.03149 0.0842 0.0
H1850 H 0.4697 0.97729 0.09018 0.0
C1851 C 0.46504 0.98327 0.14998 0.0
C1852 C 0.50058 0.0198 0.12462 0.0
C1853 C 0.46272 0.97835 0.16576 0.0
C1854 C 0.51956 0.02805 0.0592 0.0
C1855 C 0.51583 0.02512 0.07516 0.0
C1856 C 0.47822 0.98944 0.09964 0.0
C1857 C 0.48394 0.99511 0.14494 0.0
C1858 C 0.48649 0.0001 0.12813 0.0
C1859 C 0.49641 0.01337 0.07928 0.0
C1860 C 0.49254 0.00906 0.09611 0.0
H1861 H 0.51118 0.00251 0.18002 0.0
H1862 H 0.51523 0.01088 0.15246 0.0
H1863 H 0.46442 0.96962 0.11779 0.0
H1864 H 0.47235 0.00194 0.04203 0.0
H1865 H 0.46565 0.99655 0.06988 0.0
C1866 C 0.05077 0.53764 0.16182 0.0
C1867 C 0.04977 0.52196 0.17064 0.0
C1868 C 0.04053 0.53299 0.14673 0.0
C1869 C 0.02302 0.49588 0.11209 0.0
H1870 H 0.99297 0.52148 0.0994 0.0
C1871 C 0.9871 0.48293 0.04747 0.0
C1872 C 0.98787 0.50009 0.04125 0.0
C1873 C 0.99261 0.48372 0.06368 0.0
C1874 C 0.00149 0.51437 0.10268 0.0
H1875 H 0.03647 0.48895 0.17057 0.0
H1876 H 0.01917 0.48098 0.14387 0.0
H1877 H 0.00599 0.5263 0.1272 0.0
H1878 H 0.99515 0.53153 0.04684 0.0
H1879 H 0.00531 0.5332 0.07491 0.0
H1880 H 0.01938 0.48472 0.08751 0.0
C1881 C 0.02792 0.49685 0.1488 0.0
C1882 C 0.00881 0.51704 0.11863 0.0
C1883 C 0.03791 0.50146 0.16404 0.0
C1884 C 0.99427 0.51803 0.0514 0.0
C1885 C -5e-05 0.51891 0.06752 0.0
C1886 C 0.01592 0.49343 0.09607 0.0
C1887 C 0.02928 0.5126 0.13997 0.0
C1888 C 0.01987 0.50806 0.12343 0.0
C1889 C 0.9991 0.50174 0.07392 0.0
C1890 C 0.00534 0.50293 0.09112 0.0
H1891 H 0.06005 0.55361 0.16626 0.0
H1892 H 0.04203 0.54544 0.14007 0.0
H1893 H 0.03168 0.48897 0.11549 0.0
H1894 H 0.98202 0.46885 0.03986 0.0
H1895 H 0.99156 0.47014 0.0682 0.0
C1896 C 0.46844 0.48596 0.16221 0.0
C1897 C 0.4818 0.50203 0.17355 0.0
C1898 C 0.47161 0.48662 0.14602 0.0
C1899 C 0.51085 0.51067 0.11912 0.0
H1900 H 0.4676 0.49482 0.08673 0.0
C1901 C 0.5235 0.52515 0.05323 0.0
C1902 C 0.51013 0.50978 0.04153 0.0
C1903 C 0.51981 0.5239 0.06929 0.0
C1904 C 0.47979 0.49906 0.09562 0.0
H1905 H 0.5087 0.53163 0.17667 0.0
H1906 H 0.51427 0.5327 0.14848 0.0
H1907 H 0.46149 0.49311 0.11487 0.0
H1908 H 0.4827 0.48084 0.03733 0.0
H1909 H 0.47625 0.47856 0.06541 0.0
H1910 H 0.52915 0.51656 0.09993 0.0
C1911 C 0.50151 0.51944 0.15214 0.0
C1912 C 0.47629 0.49809 0.11174 0.0
C1913 C 0.49832 0.51881 0.1683 0.0
C1914 C 0.4931 0.49304 0.04613 0.0
C1915 C 0.4894 0.49177 0.0622 0.0
C1916 C 0.51434 0.51159 0.10303 0.0
C1917 C 0.48823 0.50333 0.14082 0.0
C1918 C 0.4918 0.50398 0.12367 0.0
C1919 C 0.50272 0.5072 0.07397 0.0
C1920 C 0.49888 0.50589 0.09108 0.0
H1921 H 0.4557 0.47269 0.16588 0.0
H1922 H 0.46123 0.47385 0.13761 0.0
H1923 H 0.52305 0.51499 0.12802 0.0
H1924 H 0.53671 0.53826 0.04996 0.0
H1925 H 0.53024 0.53619 0.07802 0.0
C1926 C 0.97799 0.47969 0.82681 0.0
C1927 C 0.97738 0.49619 0.82055 0.0
C1928 C 0.97978 0.47891 0.84329 0.0
C1929 C 0.97324 0.49991 0.88182 0.0
H1930 H 0.0069 0.48044 0.89906 0.0
C1931 C 0.99378 0.50432 0.94969 0.0
C1932 C 0.99348 0.48699 0.95514 0.0
C1933 C 0.99138 0.50569 0.93332 0.0
C1934 C 0.9973 0.48572 0.89441 0.0
H1935 H 0.97822 0.52487 0.82668 0.0
H1936 H 0.98155 0.52364 0.85553 0.0
H1937 H 0.0038 0.48262 0.87044 0.0
H1938 H 0.99027 0.45745 0.94789 0.0
H1939 H 0.98612 0.4598 0.91932 0.0
H1940 H 0.96691 0.50314 0.90591 0.0
C1941 C 0.98034 0.51113 0.84767 0.0
C1942 C 0.99549 0.48695 0.878 0.0
C1943 C 0.97846 0.51185 0.83116 0.0
C1944 C 0.99063 0.47101 0.94399 0.0
C1945 C 0.98834 0.47241 0.92765 0.0
C1946 C 0.97512 0.49875 0.89827 0.0
C1947 C 0.98109 0.49467 0.85394 0.0
C1948 C 0.98333 0.49391 0.87148 0.0
C1949 C 0.98882 0.48981 0.92212 0.0
C1950 C 0.98706 0.4915 0.90472 0.0
H1951 H 0.97681 0.46719 0.81895 0.0
H1952 H 0.9799 0.46581 0.84769 0.0
H1953 H 0.96357 0.50511 0.87717 0.0
H1954 H 0.99629 0.517 0.95805 0.0
H1955 H 0.99203 0.51938 0.92942 0.0
C1956 C 0.54498 0.49138 0.84696 0.0
C1957 C 0.53208 0.47285 0.8377 0.0
C1958 C 0.53907 0.49728 0.86068 0.0
C1959 C 0.49502 0.48595 0.88209 0.0
H1960 H 0.53316 0.50886 0.91934 0.0
C1961 C 0.47397 0.48755 0.94659 0.0
C1962 C 0.48619 0.50518 0.95702 0.0
C1963 C 0.47917 0.48549 0.93128 0.0
C1964 C 0.52243 0.50275 0.90899 0.0
H1965 H 0.50282 0.44609 0.83539 0.0
H1966 H 0.49258 0.45614 0.85945 0.0
H1967 H 0.54302 0.5018 0.89392 0.0
H1968 H 0.51258 0.53504 0.95939 0.0
H1969 H 0.522 0.53131 0.93269 0.0
H1970 H 0.47428 0.48633 0.89741 0.0
C1971 C 0.50713 0.46638 0.85598 0.0
C1972 C 0.52807 0.49873 0.89439 0.0
C1973 C 0.51299 0.46057 0.8422 0.0
C1974 C 0.50327 0.52106 0.9517 0.0
C1975 C 0.50858 0.51895 0.93643 0.0
C1976 C 0.48934 0.48983 0.89674 0.0
C1977 C 0.52018 0.48469 0.86551 0.0
C1978 C 0.5144 0.49011 0.88078 0.0
C1979 C 0.49669 0.50103 0.92613 0.0
C1980 C 0.50294 0.4981 0.91036 0.0
H1981 H 0.5597 0.50129 0.84364 0.0
H1982 H 0.54936 0.51167 0.86754 0.0
H1983 H 0.4842 0.47964 0.8718 0.0
H1984 H 0.4607 0.47507 0.95044 0.0
H1985 H 0.46981 0.47143 0.92366 0.0
C1986 C 0.52307 0.03134 0.84201 0.0
C1987 C 0.51813 0.01564 0.82977 0.0
C1988 C 0.52144 0.02713 0.85796 0.0
C1989 C 0.49532 0.98559 0.88318 0.0
H1990 H 0.53567 0.02314 0.91622 0.0
C1991 C 0.48892 0.97187 0.95001 0.0
C1992 C 0.49387 0.98919 0.9605 0.0
C1993 C 0.49345 0.974 0.93413 0.0
C1994 C 0.52421 0.01256 0.90715 0.0
H1995 H 0.50794 0.98323 0.82481 0.0
H1996 H 0.5048 0.97586 0.85268 0.0
H1997 H 0.54047 0.02902 0.88823 0.0
H1998 H 0.50749 0.02229 0.96276 0.0
H1999 H 0.51521 0.02603 0.93517 0.0
H2000 H 0.47879 0.96945 0.90208 0.0
C2001 C 0.50982 0.9914 0.84986 0.0
C2002 C 0.52697 0.01593 0.89112 0.0
C2003 C 0.51156 0.99563 0.8339 0.0
C2004 C 0.50366 0.00867 0.95496 0.0
C2005 C 0.50817 0.01082 0.93915 0.0
C2006 C 0.4925 0.98227 0.89923 0.0
C2007 C 0.51474 0.00711 0.86205 0.0
C2008 C 0.51243 0.00266 0.87898 0.0
C2009 C 0.50298 0.99351 0.92848 0.0
C2010 C 0.50677 0.99591 0.91141 0.0
H2011 H 0.52782 0.04684 0.83927 0.0
H2012 H 0.52502 0.0395 0.86707 0.0
H2013 H 0.48377 0.9752 0.87409 0.0
H2014 H 0.48141 0.95668 0.95402 0.0
H2015 H 0.48944 0.96039 0.92627 0.0
C2016 C 0.13363 0.31344 0.50239 0.0
C2017 C 0.14948 0.31617 0.5128 0.0
C2018 C 0.13599 0.3167 0.48628 0.0
C2019 C 0.16671 0.3179 0.45451 0.0
H2020 H 0.14843 0.35086 0.43422 0.0
C2021 C 0.19091 0.3477 0.3938 0.0
C2022 C 0.17703 0.348 0.38286 0.0
C2023 C 0.18656 0.34317 0.40941 0.0
C2024 C 0.15336 0.34136 0.43962 0.0
H2025 H 0.18012 0.32413 0.51448 0.0
H2026 H 0.18425 0.32983 0.48639 0.0
H2027 H 0.14239 0.34382 0.46192 0.0
H2028 H 0.14808 0.34467 0.37972 0.0
H2029 H 0.14007 0.33598 0.40689 0.0
H2030 H 0.17758 0.31527 0.4323 0.0
C2031 C 0.17 0.32517 0.49067 0.0
C2032 C 0.14993 0.33737 0.4555 0.0
C2033 C 0.16769 0.32211 0.50677 0.0
C2034 C 0.15882 0.34402 0.38784 0.0
C2035 C 0.15438 0.33936 0.40346 0.0
C2036 C 0.17002 0.32175 0.43864 0.0
C2037 C 0.15419 0.3225 0.48025 0.0
C2038 C 0.15681 0.32583 0.46316 0.0
C2039 C 0.16819 0.33877 0.41442 0.0
C2040 C 0.16364 0.33378 0.43105 0.0
H2041 H 0.11946 0.30898 0.50674 0.0
H2042 H 0.12353 0.31443 0.47849 0.0
H2043 H 0.17188 0.30865 0.46003 0.0
H2044 H 0.20513 0.35085 0.39028 0.0
H2045 H 0.1977 0.3433 0.4176 0.0
C2046 C 0.7172 0.87113 0.49428 0.0
C2047 C 0.71614 0.85549 0.50319 0.0
C2048 C 0.70705 0.86642 0.47914 0.0
C2049 C 0.68974 0.82927 0.44456 0.0
H2050 H 0.65852 0.85358 0.43189 0.0
C2051 C 0.6522 0.81392 0.38028 0.0
C2052 C 0.65182 0.83042 0.37388 0.0
C2053 C 0.65835 0.8154 0.39644 0.0
C2054 C 0.66739 0.84686 0.43515 0.0
H2055 H 0.7028 0.82248 0.5032 0.0
H2056 H 0.68572 0.81443 0.47643 0.0
H2057 H 0.67211 0.85916 0.4596 0.0
H2058 H 0.65781 0.86148 0.37907 0.0
H2059 H 0.66918 0.86443 0.40701 0.0
H2060 H 0.6859 0.81776 0.42005 0.0
C2061 C 0.69444 0.83031 0.48132 0.0
C2062 C 0.67504 0.84995 0.45105 0.0
C2063 C 0.70432 0.83498 0.49661 0.0
C2064 C 0.65778 0.84845 0.38379 0.0
C2065 C 0.66416 0.85006 0.39985 0.0
C2066 C 0.68236 0.82643 0.42858 0.0
C2067 C 0.69585 0.84601 0.47241 0.0
C2068 C 0.68644 0.84136 0.45586 0.0
C2069 C 0.66442 0.83352 0.40645 0.0
C2070 C 0.67129 0.83541 0.42362 0.0
H2071 H 0.72645 0.88712 0.4987 0.0
H2072 H 0.70856 0.87883 0.47242 0.0
H2073 H 0.69868 0.82266 0.44797 0.0
H2074 H 0.64747 0.79977 0.37286 0.0
H2075 H 0.6581 0.80225 0.40111 0.0
C2076 C 0.1701 0.85246 0.50678 0.0
C2077 C 0.1539 0.83548 0.51215 0.0
C2078 C 0.17251 0.85359 0.49049 0.0
C2079 C 0.14562 0.83279 0.45041 0.0
H2080 H 0.19802 0.85282 0.43695 0.0
C2081 C 0.16045 0.82857 0.38407 0.0
C2082 C 0.17691 0.84571 0.3792 0.0
C2083 C 0.15721 0.82726 0.40023 0.0
C2084 C 0.18333 0.84741 0.44052 0.0
H2085 H 0.12753 0.80634 0.50462 0.0
H2086 H 0.13178 0.80828 0.47614 0.0
H2087 H 0.19312 0.85056 0.46522 0.0
H2088 H 0.20289 0.8749 0.38724 0.0
H2089 H 0.19724 0.87271 0.41548 0.0
H2090 H 0.13586 0.8296 0.42565 0.0
C2091 C 0.14248 0.82085 0.48454 0.0
C2092 C 0.18052 0.84611 0.45673 0.0
C2093 C 0.14005 0.81973 0.50085 0.0
C2094 C 0.19011 0.86149 0.39072 0.0
C2095 C 0.18691 0.86019 0.40687 0.0
C2096 C 0.14844 0.83407 0.43417 0.0
C2097 C 0.1588 0.83776 0.47918 0.0
C2098 C 0.16165 0.83886 0.46189 0.0
C2099 C 0.17046 0.84302 0.41183 0.0
C2100 C 0.16735 0.84147 0.42905 0.0
H2101 H 0.18083 0.86504 0.51516 0.0
H2102 H 0.18504 0.86701 0.48676 0.0
H2103 H 0.13094 0.82738 0.45401 0.0
H2104 H 0.1503 0.81599 0.37544 0.0
H2105 H 0.14457 0.8137 0.40368 0.0
C2106 C 0.64824 0.84732 0.16465 0.0
C2107 C 0.64476 0.83073 0.15381 0.0
C2108 C 0.64971 0.8461 0.18113 0.0
C2109 C 0.66076 0.81865 0.21086 0.0
H2110 H 0.63476 0.83778 0.23921 0.0
C2111 C 0.65688 0.80341 0.27701 0.0
C2112 C 0.65969 0.81933 0.28819 0.0
C2113 C 0.65445 0.8048 0.26067 0.0
C2114 C 0.6423 0.83259 0.23148 0.0
H2115 H 0.63951 0.79963 0.15186 0.0
H2116 H 0.64231 0.79764 0.18054 0.0
H2117 H 0.63193 0.8405 0.21055 0.0
H2118 H 0.66226 0.84922 0.29121 0.0
H2119 H 0.6582 0.85182 0.26264 0.0
H2120 H 0.67133 0.81093 0.23169 0.0
C2121 C 0.64418 0.81169 0.17629 0.0
C2122 C 0.64066 0.83414 0.21507 0.0
C2123 C 0.64262 0.81286 0.15985 0.0
C2124 C 0.65985 0.83661 0.28281 0.0
C2125 C 0.6575 0.83807 0.26645 0.0
C2126 C 0.66248 0.81719 0.22724 0.0
C2127 C 0.64781 0.82831 0.18712 0.0
C2128 C 0.64979 0.82708 0.20458 0.0
C2129 C 0.65493 0.82224 0.25518 0.0
C2130 C 0.65318 0.82403 0.23775 0.0
H2131 H 0.65019 0.86139 0.16042 0.0
H2132 H 0.65272 0.85924 0.18918 0.0
H2133 H 0.66825 0.8134 0.20312 0.0
H2134 H 0.65658 0.78986 0.28088 0.0
H2135 H 0.65214 0.79217 0.25235 0.0
C2136 C 0.21044 0.82502 0.18194 0.0
C2137 C 0.19783 0.80637 0.1727 0.0
C2138 C 0.20461 0.83037 0.19594 0.0
C2139 C 0.16097 0.81741 0.21826 0.0
H2140 H 0.19983 0.84069 0.25503 0.0
C2141 C 0.14078 0.81863 0.28306 0.0
C2142 C 0.15305 0.83623 0.29349 0.0
C2143 C 0.14587 0.8166 0.2677 0.0
C2144 C 0.18888 0.83447 0.24482 0.0
H2145 H 0.16911 0.77884 0.17075 0.0
H2146 H 0.15899 0.78801 0.19528 0.0
H2147 H 0.20937 0.83424 0.22925 0.0
H2148 H 0.17953 0.86604 0.29585 0.0
H2149 H 0.18872 0.8624 0.26905 0.0
H2150 H 0.14037 0.81719 0.23402 0.0
C2151 C 0.17326 0.79871 0.19159 0.0
C2152 C 0.19434 0.83079 0.23003 0.0
C2153 C 0.17906 0.79342 0.17753 0.0
C2154 C 0.17016 0.85207 0.28816 0.0
C2155 C 0.17534 0.85001 0.27283 0.0
C2156 C 0.15548 0.82099 0.23309 0.0
C2157 C 0.18606 0.81713 0.20107 0.0
C2158 C 0.18042 0.82206 0.21658 0.0
C2159 C 0.16334 0.83216 0.26249 0.0
C2160 C 0.16934 0.8294 0.24655 0.0
H2161 H 0.22488 0.83545 0.17837 0.0
H2162 H 0.21468 0.84485 0.20279 0.0
H2163 H 0.14995 0.81098 0.2081 0.0
H2164 H 0.12749 0.80618 0.28691 0.0
H2165 H 0.13643 0.80258 0.26007 0.0
C2166 C 0.20278 0.36688 0.1779 0.0
C2167 C 0.18685 0.36394 0.16748 0.0
C2168 C 0.20029 0.36296 0.1939 0.0
C2169 C 0.16871 0.35943 0.22558 0.0
H2170 H 0.18807 0.32691 0.24511 0.0
C2171 C 0.14411 0.32724 0.28544 0.0
C2172 C 0.15803 0.3271 0.29643 0.0
C2173 C 0.14862 0.33222 0.26994 0.0
C2174 C 0.18283 0.33628 0.23992 0.0
H2175 H 0.15593 0.35489 0.16566 0.0
H2176 H 0.15158 0.34808 0.19355 0.0
H2177 H 0.19437 0.3351 0.21762 0.0
H2178 H 0.18731 0.33124 0.29977 0.0
H2179 H 0.19555 0.34066 0.27275 0.0
H2180 H 0.15729 0.36082 0.24778 0.0
C2181 C 0.16599 0.35341 0.18937 0.0
C2182 C 0.18641 0.34092 0.22417 0.0
C2183 C 0.16842 0.35712 0.17337 0.0
C2184 C 0.17644 0.33158 0.29156 0.0
C2185 C 0.18106 0.33675 0.27605 0.0
C2186 C 0.16526 0.35494 0.24132 0.0
C2187 C 0.18188 0.35628 0.1998 0.0
C2188 C 0.17913 0.3523 0.21678 0.0
C2189 C 0.16723 0.33728 0.26508 0.0
C2190 C 0.172 0.34303 0.24863 0.0
H2191 H 0.21711 0.372 0.17365 0.0
H2192 H 0.21281 0.36541 0.2017 0.0
H2193 H 0.16323 0.36855 0.22028 0.0
H2194 H 0.12973 0.32367 0.28885 0.0
H2195 H 0.13744 0.332 0.26173 0.0
C2196 C 0.80571 0.66924 0.83817 0.0
C2197 C 0.81681 0.66155 0.8455 0.0
C2198 C 0.80842 0.67476 0.82255 0.0
C2199 C 0.84405 0.68998 0.79237 0.0
H2200 H 0.79828 0.6679 0.76147 0.0
C2201 C 0.84984 0.70706 0.72605 0.0
C2202 C 0.84029 0.6893 0.71527 0.0
C2203 C 0.8463 0.706 0.74219 0.0
C2204 C 0.81118 0.67429 0.77001 0.0
H2205 H 0.83971 0.65403 0.8424 0.0
H2206 H 0.84453 0.66378 0.81514 0.0
H2207 H 0.79389 0.66167 0.78954 0.0
H2208 H 0.81949 0.65663 0.71283 0.0
H2209 H 0.81286 0.65491 0.74076 0.0
H2210 H 0.86136 0.70221 0.77278 0.0
C2211 C 0.83373 0.66551 0.82147 0.0
C2212 C 0.80866 0.67082 0.78606 0.0
C2213 C 0.83084 0.65974 0.83699 0.0
C2214 C 0.82676 0.67064 0.72079 0.0
C2215 C 0.82299 0.66964 0.7368 0.0
C2216 C 0.84656 0.69366 0.77636 0.0
C2217 C 0.82248 0.67298 0.81406 0.0
C2218 C 0.82509 0.67828 0.79734 0.0
C2219 C 0.83293 0.68723 0.74773 0.0
C2220 C 0.83016 0.6855 0.76496 0.0
H2221 H 0.79473 0.6707 0.84445 0.0
H2222 H 0.7996 0.68053 0.81713 0.0
H2223 H 0.85696 0.69605 0.80086 0.0
H2224 H 0.8604 0.72162 0.7221 0.0
H2225 H 0.85411 0.7198 0.75038 0.0
C2226 C 0.37857 0.17917 0.83498 0.0
C2227 C 0.39873 0.18548 0.83614 0.0
C2228 C 0.36765 0.17344 0.82008 0.0
C2229 C 0.35235 0.1767 0.78728 0.0
H2230 H 0.3624 0.14841 0.75238 0.0
C2231 C 0.32871 0.17765 0.72179 0.0
C2232 C 0.32204 0.1599 0.71131 0.0
C2233 C 0.33647 0.1788 0.73734 0.0
C2234 C 0.35921 0.15608 0.76204 0.0
H2235 H 0.42299 0.18986 0.82254 0.0
H2236 H 0.40415 0.18053 0.79658 0.0
H2237 H 0.37844 0.15289 0.77905 0.0
H2238 H 0.31751 0.12916 0.70891 0.0
H2239 H 0.33101 0.13106 0.7362 0.0
H2240 H 0.33297 0.1797 0.77034 0.0
C2241 C 0.39668 0.17975 0.80718 0.0
C2242 C 0.3686 0.15888 0.77729 0.0
C2243 C 0.40757 0.18539 0.82207 0.0
C2244 C 0.32284 0.14312 0.71673 0.0
C2245 C 0.33059 0.14425 0.73232 0.0
C2246 C 0.34292 0.17384 0.77206 0.0
C2247 C 0.37664 0.17395 0.80598 0.0
C2248 C 0.3655 0.16949 0.79005 0.0
C2249 C 0.33759 0.16216 0.74279 0.0
C2250 C 0.34648 0.16379 0.7592 0.0
H2251 H 0.37132 0.17919 0.84556 0.0
H2252 H 0.35218 0.16879 0.81961 0.0
H2253 H 0.34975 0.18512 0.79677 0.0
H2254 H 0.32832 0.19083 0.71786 0.0
H2255 H 0.34201 0.19295 0.74498 0.0
C2256 C 0.83295 0.18369 0.8406 0.0
C2257 C 0.81569 0.16824 0.84611 0.0
C2258 C 0.83535 0.18412 0.8243 0.0
C2259 C 0.80784 0.16493 0.78427 0.0
H2260 H 0.85944 0.18003 0.77098 0.0
C2261 C 0.82375 0.16068 0.71791 0.0
C2262 C 0.84096 0.17756 0.71365 0.0
C2263 C 0.8198 0.15893 0.73393 0.0
C2264 C 0.84499 0.17595 0.77451 0.0
H2265 H 0.78739 0.14108 0.83885 0.0
H2266 H 0.79165 0.14169 0.81031 0.0
H2267 H 0.85417 0.17786 0.79918 0.0
H2268 H 0.86745 0.20586 0.72264 0.0
H2269 H 0.86064 0.20278 0.75057 0.0
H2270 H 0.79872 0.16293 0.75947 0.0
C2271 C 0.80322 0.15366 0.8186 0.0
C2272 C 0.84196 0.17473 0.79068 0.0
C2273 C 0.80078 0.15328 0.83494 0.0
C2274 C 0.8541 0.19266 0.72562 0.0
C2275 C 0.85024 0.19085 0.7416 0.0
C2276 C 0.81086 0.16605 0.76805 0.0
C2277 C 0.82058 0.16905 0.8131 0.0
C2278 C 0.82343 0.16945 0.79579 0.0
C2279 C 0.83313 0.17391 0.74595 0.0
C2280 C 0.82953 0.17181 0.76303 0.0
H2281 H 0.84454 0.19566 0.84888 0.0
H2282 H 0.84872 0.19645 0.82047 0.0
H2283 H 0.79344 0.16101 0.78781 0.0
H2284 H 0.81354 0.14866 0.70891 0.0
H2285 H 0.80658 0.14562 0.73695 0.0
C2286 C 0.31303 0.18005 0.50192 0.0
C2287 C 0.3128 0.16502 0.49112 0.0
C2288 C 0.31467 0.1789 0.5184 0.0
C2289 C 0.33063 0.15493 0.54834 0.0
H2290 H 0.29999 0.16806 0.57628 0.0
C2291 C 0.3241 0.13519 0.61332 0.0
C2292 C 0.32622 0.15037 0.62497 0.0
C2293 C 0.32217 0.13747 0.59712 0.0
C2294 C 0.30877 0.16454 0.56864 0.0
H2295 H 0.31345 0.13667 0.48911 0.0
H2296 H 0.31612 0.13455 0.51775 0.0
H2297 H 0.29726 0.17121 0.54767 0.0
H2298 H 0.328 0.17983 0.62891 0.0
H2299 H 0.32438 0.18374 0.60049 0.0
H2300 H 0.34197 0.14805 0.56923 0.0
C2301 C 0.31554 0.14751 0.51356 0.0
C2302 C 0.30724 0.16637 0.55226 0.0
C2303 C 0.31399 0.14871 0.49713 0.0
C2304 C 0.3261 0.16777 0.62015 0.0
C2305 C 0.32405 0.17001 0.60391 0.0
C2306 C 0.33208 0.15301 0.56466 0.0
C2307 C 0.31603 0.16265 0.52441 0.0
C2308 C 0.31804 0.16142 0.5419 0.0
C2309 C 0.3223 0.15497 0.59222 0.0
C2310 C 0.32105 0.15763 0.57497 0.0
H2311 H 0.3123 0.1929 0.49763 0.0
H2312 H 0.31522 0.19093 0.52642 0.0
H2313 H 0.33948 0.15142 0.54078 0.0
H2314 H 0.32407 0.12159 0.61673 0.0
H2315 H 0.32055 0.12549 0.58841 0.0
C2316 C 0.8834 0.14127 0.52157 0.0
C2317 C 0.87095 0.13469 0.50731 0.0
C2318 C 0.87747 0.14626 0.53564 0.0
C2319 C 0.8413 0.15847 0.55209 0.0
H2320 H 0.8531 0.13841 0.59001 0.0
C2321 C 0.80965 0.1591 0.61312 0.0
C2322 C 0.82337 0.16585 0.62661 0.0
C2323 C 0.81495 0.156 0.59802 0.0
C2324 C 0.84983 0.14426 0.57956 0.0
H2325 H 0.84277 0.12875 0.49647 0.0
H2326 H 0.83228 0.1373 0.52115 0.0
H2327 H 0.86362 0.13231 0.56466 0.0
H2328 H 0.85275 0.17347 0.63501 0.0
H2329 H 0.86236 0.16872 0.6089 0.0
H2330 H 0.82729 0.17022 0.56716 0.0
C2331 C 0.84674 0.13884 0.5214 0.0
C2332 C 0.85592 0.14084 0.56503 0.0
C2333 C 0.85274 0.13394 0.50727 0.0
C2334 C 0.84229 0.16924 0.62479 0.0
C2335 C 0.84759 0.16604 0.60983 0.0
C2336 C 0.83511 0.16183 0.56668 0.0
C2337 C 0.85888 0.14464 0.53582 0.0
C2338 C 0.85195 0.1481 0.55115 0.0
C2339 C 0.83395 0.15925 0.59628 0.0
C2340 C 0.83954 0.15496 0.58059 0.0
H2341 H 0.89765 0.14232 0.52189 0.0
H2342 H 0.88739 0.15117 0.54645 0.0
H2343 H 0.83809 0.16435 0.54163 0.0
H2344 H 0.79483 0.15617 0.61425 0.0
H2345 H 0.80407 0.15056 0.5878 0.0
C2346 C 0.86825 0.69948 0.50874 0.0
C2347 C 0.8528 0.6988 0.49903 0.0
C2348 C 0.86677 0.69733 0.52507 0.0
C2349 C 0.84 0.70147 0.5585 0.0
H2350 H 0.85372 0.6642 0.57741 0.0
C2351 C 0.81381 0.67003 0.6184 0.0
C2352 C 0.82675 0.6677 0.62899 0.0
C2353 C 0.81876 0.67556 0.60308 0.0
C2354 C 0.85012 0.67492 0.5724 0.0
H2355 H 0.82393 0.69584 0.49891 0.0
H2356 H 0.82127 0.69189 0.52733 0.0
H2357 H 0.85925 0.67087 0.54961 0.0
H2358 H 0.85491 0.66908 0.63193 0.0
H2359 H 0.86381 0.67914 0.60515 0.0
H2360 H 0.83069 0.70539 0.58119 0.0
C2361 C 0.83456 0.69418 0.52235 0.0
C2362 C 0.85328 0.67872 0.55646 0.0
C2363 C 0.83599 0.69621 0.50604 0.0
C2364 C 0.84477 0.67101 0.62402 0.0
C2365 C 0.84977 0.67657 0.60866 0.0
C2366 C 0.8369 0.69772 0.57443 0.0
C2367 C 0.84989 0.69463 0.53204 0.0
C2368 C 0.84795 0.69178 0.54927 0.0
C2369 C 0.83678 0.67887 0.598 0.0
C2370 C 0.84161 0.68413 0.58149 0.0
H2371 H 0.88133 0.70132 0.50365 0.0
H2372 H 0.87888 0.69788 0.53225 0.0
H2373 H 0.83609 0.71191 0.55339 0.0
H2374 H 0.7998 0.66753 0.62195 0.0
H2375 H 0.80828 0.67686 0.5951 0.0
loop_
_geom_bond_atom_site_label_1
_geom_bond_atom_site_label_2
_geom_bond_distance
_geom_bond_site_symmetry_2
_ccdc_geom_bond_type
P0 O11 1.490 . S
P0 C14 1.812 . S
P0 C20 1.803 . S
P0 C26 1.819 . S
H1 C15 0.941 . S
H2 C16 0.939 . S
H3 C18 0.940 . S
H4 C19 0.940 . S
H5 C21 0.939 . S
H6 C22 0.942 . S
H7 C24 0.940 . S
H8 C25 0.939 . S
H9 C27 0.941 . S
H10 C31 0.939 . S
O11 P0 1.490 . S
H12 C28 0.939 . S
H13 C30 0.940 . S
C14 P0 1.812 . S
C14 C15 1.389 . S
C14 C19 1.391 . S
C15 H1 0.941 . S
C15 C14 1.389 . S
C15 C16 1.397 . S
C16 H2 0.939 . S
C16 C15 1.397 . S
C16 C17 1.378 . S
C17 C16 1.378 . S
C17 C18 1.378 . S
C18 H3 0.940 . S
C18 C17 1.378 . S
C18 C19 1.396 . S
C19 H4 0.940 . S
C19 C14 1.391 . S
C19 C18 1.396 . S
C20 P0 1.803 . S
C20 C21 1.378 . S
C20 C25 1.400 . S
C21 H5 0.939 . S
C21 C20 1.378 . S
C21 C22 1.361 . S
C22 H6 0.942 . S
C22 C21 1.361 . S
C22 C23 1.369 . S
C23 C22 1.369 . S
C23 C24 1.404 . S
C24 H7 0.940 . S
C24 C23 1.404 . S
C24 C25 1.389 . S
C25 H8 0.939 . S
C25 C20 1.400 . S
C25 C24 1.389 . S
C26 P0 1.819 . S
C26 C27 1.391 . S
C26 C31 1.391 . S
C27 H9 0.941 . S
C27 C26 1.391 . S
C27 C28 1.396 . S
C28 H12 0.939 . S
C28 C27 1.396 . S
C28 C29 1.397 . S
C29 C28 1.397 . S
C29 C30 1.385 . S
C30 H13 0.940 . S
C30 C29 1.385 . S
C30 C31 1.388 . S
C31 H10 0.939 . S
C31 C26 1.391 . S
C31 C30 1.388 . S
P32 O43 1.490 . S
P32 C46 1.812 . S
P32 C52 1.803 . S
P32 C58 1.819 . S
H33 C47 0.941 . S
H34 C48 0.939 . S
H35 C50 0.940 . S
H36 C51 0.940 . S
H37 C53 0.939 . S
H38 C54 0.942 . S
H39 C56 0.940 . S
H40 C57 0.939 . S
H41 C59 0.941 . S
H42 C63 0.939 . S
O43 P32 1.490 . S
H44 C60 0.939 . S
H45 C62 0.940 . S
C46 P32 1.812 . S
C46 C47 1.389 . S
C46 C51 1.391 . S
C47 H33 0.941 . S
C47 C46 1.389 . S
C47 C48 1.397 . S
C48 H34 0.939 . S
C48 C47 1.397 . S
C48 C49 1.378 . S
C49 C48 1.378 . S
C49 C50 1.378 . S
C50 H35 0.940 . S
C50 C49 1.378 . S
C50 C51 1.396 . S
C51 H36 0.940 . S
C51 C46 1.391 . S
C51 C50 1.396 . S
C52 P32 1.803 . S
C52 C53 1.378 . S
C52 C57 1.400 . S
C53 H37 0.939 . S
C53 C52 1.378 . S
C53 C54 1.361 . S
C54 H38 0.942 . S
C54 C53 1.361 . S
C54 C55 1.369 . S
C55 C54 1.369 . S
C55 C56 1.404 . S
C56 H39 0.940 . S
C56 C55 1.404 . S
C56 C57 1.389 . S
C57 H40 0.939 . S
C57 C52 1.400 . S
C57 C56 1.389 . S
C58 P32 1.819 . S
C58 C59 1.391 . S
C58 C63 1.391 . S
C59 H41 0.941 . S
C59 C58 1.391 . S
C59 C60 1.396 . S
C60 H44 0.939 . S
C60 C59 1.396 . S
C60 C61 1.397 . S
C61 C60 1.397 . S
C61 C62 1.385 . S
C62 H45 0.940 . S
C62 C61 1.385 . S
C62 C63 1.388 . S
C63 H42 0.939 . S
C63 C58 1.391 . S
C63 C62 1.388 . S
P64 O75 1.490 . S
P64 C78 1.812 . S
P64 C84 1.803 . S
P64 C90 1.819 . S
H65 C79 0.941 . S
H66 C80 0.939 . S
H67 C82 0.940 . S
H68 C83 0.940 . S
H69 C85 0.939 . S
H70 C86 0.942 . S
H71 C88 0.940 . S
H72 C89 0.939 . S
H73 C91 0.941 . S
H74 C95 0.939 . S
O75 P64 1.490 . S
H76 C92 0.939 . S
H77 C94 0.940 . S
C78 P64 1.812 . S
C78 C79 1.389 . S
C78 C83 1.391 . S
C79 H65 0.941 . S
C79 C78 1.389 . S
C79 C80 1.397 . S
C80 H66 0.939 . S
C80 C79 1.397 . S
C80 C81 1.378 . S
C81 C80 1.378 . S
C81 C82 1.378 . S
C82 H67 0.940 . S
C82 C81 1.378 . S
C82 C83 1.396 . S
C83 H68 0.940 . S
C83 C78 1.391 . S
C83 C82 1.396 . S
C84 P64 1.803 . S
C84 C85 1.378 . S
C84 C89 1.400 . S
C85 H69 0.939 . S
C85 C84 1.378 . S
C85 C86 1.361 . S
C86 H70 0.942 . S
C86 C85 1.361 . S
C86 C87 1.369 . S
C87 C86 1.369 . S
C87 C88 1.404 . S
C88 H71 0.940 . S
C88 C87 1.404 . S
C88 C89 1.389 . S
C89 H72 0.939 . S
C89 C84 1.400 . S
C89 C88 1.389 . S
C90 P64 1.819 . S
C90 C91 1.391 . S
C90 C95 1.391 . S
C91 H73 0.941 . S
C91 C90 1.391 . S
C91 C92 1.396 . S
C92 H76 0.939 . S
C92 C91 1.396 . S
C92 C93 1.397 . S
C93 C92 1.397 . S
C93 C94 1.385 . S
C94 H77 0.940 . S
C94 C93 1.385 . S
C94 C95 1.388 . S
C95 H74 0.939 . S
C95 C90 1.391 . S
C95 C94 1.388 . S
P96 O107 1.490 . S
P96 C110 1.812 . S
P96 C116 1.803 . S
P96 C122 1.819 . S
H97 C111 0.941 . S
H98 C112 0.939 . S
H99 C114 0.940 . S
H100 C115 0.940 . S
H101 C117 0.939 . S
H102 C118 0.942 . S
H103 C120 0.940 . S
H104 C121 0.939 . S
H105 C123 0.941 . S
H106 C127 0.939 . S
O107 P96 1.490 . S
H108 C124 0.939 . S
H109 C126 0.940 . S
C110 P96 1.812 . S
C110 C111 1.389 . S
C110 C115 1.391 . S
C111 H97 0.941 . S
C111 C110 1.389 . S
C111 C112 1.397 . S
C112 H98 0.939 . S
C112 C111 1.397 . S
C112 C113 1.378 . S
C113 C112 1.378 . S
C113 C114 1.378 . S
C114 H99 0.940 . S
C114 C113 1.378 . S
C114 C115 1.396 . S
C115 H100 0.940 . S
C115 C110 1.391 . S
C115 C114 1.396 . S
C116 P96 1.803 . S
C116 C117 1.378 . S
C116 C121 1.400 . S
C117 H101 0.939 . S
C117 C116 1.378 . S
C117 C118 1.361 . S
C118 H102 0.942 . S
C118 C117 1.361 . S
C118 C119 1.369 . S
C119 C118 1.369 . S
C119 C120 1.404 . S
C120 H103 0.940 . S
C120 C119 1.404 . S
C120 C121 1.389 . S
C121 H104 0.939 . S
C121 C116 1.400 . S
C121 C120 1.389 . S
C122 P96 1.819 . S
C122 C123 1.391 . S
C122 C127 1.391 . S
C123 H105 0.941 . S
C123 C122 1.391 . S
C123 C124 1.396 . S
C124 H108 0.939 . S
C124 C123 1.396 . S
C124 C125 1.397 . S
C125 C124 1.397 . S
C125 C126 1.385 . S
C126 H109 0.940 . S
C126 C125 1.385 . S
C126 C127 1.388 . S
C127 H106 0.939 . S
C127 C122 1.391 . S
C127 C126 1.388 . S
P128 O139 1.490 . S
P128 C142 1.812 . S
P128 C148 1.803 . S
P128 C154 1.819 . S
H129 C143 0.941 . S
H130 C144 0.939 . S
H131 C146 0.940 . S
H132 C147 0.940 . S
H133 C149 0.939 . S
H134 C150 0.942 . S
H135 C152 0.940 . S
H136 C153 0.939 . S
H137 C155 0.941 . S
H138 C159 0.939 . S
O139 P128 1.490 . S
H140 C156 0.939 . S
H141 C158 0.940 . S
C142 P128 1.812 . S
C142 C143 1.389 . S
C142 C147 1.391 . S
C143 H129 0.941 . S
C143 C142 1.389 . S
C143 C144 1.397 . S
C144 H130 0.939 . S
C144 C143 1.397 . S
C144 C145 1.378 . S
C145 C144 1.378 . S
C145 C146 1.378 . S
C146 H131 0.940 . S
C146 C145 1.378 . S
C146 C147 1.396 . S
C147 H132 0.940 . S
C147 C142 1.391 . S
C147 C146 1.396 . S
C148 P128 1.803 . S
C148 C149 1.378 . S
C148 C153 1.400 . S
C149 H133 0.939 . S
C149 C148 1.378 . S
C149 C150 1.361 . S
C150 H134 0.942 . S
C150 C149 1.361 . S
C150 C151 1.369 . S
C151 C150 1.369 . S
C151 C152 1.404 . S
C152 H135 0.940 . S
C152 C151 1.404 . S
C152 C153 1.389 . S
C153 H136 0.939 . S
C153 C148 1.400 . S
C153 C152 1.389 . S
C154 P128 1.819 . S
C154 C155 1.391 . S
C154 C159 1.391 . S
C155 H137 0.941 . S
C155 C154 1.391 . S
C155 C156 1.396 . S
C156 H140 0.939 . S
C156 C155 1.396 . S
C156 C157 1.397 . S
C157 C156 1.397 . S
C157 C158 1.385 . S
C158 H141 0.940 . S
C158 C157 1.385 . S
C158 C159 1.388 . S
C159 H138 0.939 . S
C159 C154 1.391 . S
C159 C158 1.388 . S
P160 O171 1.490 . S
P160 C174 1.812 . S
P160 C180 1.803 . S
P160 C186 1.819 . S
H161 C175 0.941 . S
H162 C176 0.939 . S
H163 C178 0.940 . S
H164 C179 0.940 . S
H165 C181 0.939 . S
H166 C182 0.942 . S
H167 C184 0.940 . S
H168 C185 0.939 . S
H169 C187 0.941 . S
H170 C191 0.939 . S
O171 P160 1.490 . S
H172 C188 0.939 . S
H173 C190 0.940 . S
C174 P160 1.812 . S
C174 C175 1.389 . S
C174 C179 1.391 . S
C175 H161 0.941 . S
C175 C174 1.389 . S
C175 C176 1.397 . S
C176 H162 0.939 . S
C176 C175 1.397 . S
C176 C177 1.378 . S
C177 C176 1.378 . S
C177 C178 1.378 . S
C178 H163 0.940 . S
C178 C177 1.378 . S
C178 C179 1.396 . S
C179 H164 0.940 . S
C179 C174 1.391 . S
C179 C178 1.396 . S
C180 P160 1.803 . S
C180 C181 1.378 . S
C180 C185 1.400 . S
C181 H165 0.939 . S
C181 C180 1.378 . S
C181 C182 1.361 . S
C182 H166 0.942 . S
C182 C181 1.361 . S
C182 C183 1.369 . S
C183 C182 1.369 . S
C183 C184 1.404 . S
C184 H167 0.940 . S
C184 C183 1.404 . S
C184 C185 1.389 . S
C185 H168 0.939 . S
C185 C180 1.400 . S
C185 C184 1.389 . S
C186 P160 1.819 . S
C186 C187 1.391 . S
C186 C191 1.391 . S
C187 H169 0.941 . S
C187 C186 1.391 . S
C187 C188 1.396 . S
C188 H172 0.939 . S
C188 C187 1.396 . S
C188 C189 1.397 . S
C189 C188 1.397 . S
C189 C190 1.385 . S
C190 H173 0.940 . S
C190 C189 1.385 . S
C190 C191 1.388 . S
C191 H170 0.939 . S
C191 C186 1.391 . S
C191 C190 1.388 . S
P192 O203 1.490 . S
P192 C206 1.812 . S
P192 C212 1.803 . S
P192 C218 1.819 . S
H193 C207 0.941 . S
H194 C208 0.939 . S
H195 C210 0.940 . S
H196 C211 0.940 . S
H197 C213 0.939 . S
H198 C214 0.942 . S
H199 C216 0.940 . S
H200 C217 0.939 . S
H201 C219 0.941 . S
H202 C223 0.939 . S
O203 P192 1.490 . S
H204 C220 0.939 . S
H205 C222 0.940 . S
C206 P192 1.812 . S
C206 C207 1.389 . S
C206 C211 1.391 . S
C207 H193 0.941 . S
C207 C206 1.389 . S
C207 C208 1.397 . S
C208 H194 0.939 . S
C208 C207 1.397 . S
C208 C209 1.378 . S
C209 C208 1.378 . S
C209 C210 1.378 . S
C210 H195 0.940 . S
C210 C209 1.378 . S
C210 C211 1.396 . S
C211 H196 0.940 . S
C211 C206 1.391 . S
C211 C210 1.396 . S
C212 P192 1.803 . S
C212 C213 1.378 . S
C212 C217 1.400 . S
C213 H197 0.939 . S
C213 C212 1.378 . S
C213 C214 1.361 . S
C214 H198 0.942 . S
C214 C213 1.361 . S
C214 C215 1.369 . S
C215 C214 1.369 . S
C215 C216 1.404 . S
C216 H199 0.940 . S
C216 C215 1.404 . S
C216 C217 1.389 . S
C217 H200 0.939 . S
C217 C212 1.400 . S
C217 C216 1.389 . S
C218 P192 1.819 . S
C218 C219 1.391 . S
C218 C223 1.391 . S
C219 H201 0.941 . S
C219 C218 1.391 . S
C219 C220 1.396 . S
C220 H204 0.939 . S
C220 C219 1.396 . S
C220 C221 1.397 . S
C221 C220 1.397 . S
C221 C222 1.385 . S
C222 H205 0.940 . S
C222 C221 1.385 . S
C222 C223 1.388 . S
C223 H202 0.939 . S
C223 C218 1.391 . S
C223 C222 1.388 . S
P224 O235 1.490 . S
P224 C238 1.812 . S
P224 C244 1.803 . S
P224 C250 1.819 . S
H225 C239 0.941 . S
H226 C240 0.939 . S
H227 C242 0.940 . S
H228 C243 0.940 . S
H229 C245 0.939 . S
H230 C246 0.942 . S
H231 C248 0.940 . S
H232 C249 0.939 . S
H233 C251 0.941 . S
H234 C255 0.939 . S
O235 P224 1.490 . S
H236 C252 0.939 . S
H237 C254 0.940 . S
C238 P224 1.812 . S
C238 C239 1.389 . S
C238 C243 1.391 . S
C239 H225 0.941 . S
C239 C238 1.389 . S
C239 C240 1.397 . S
C240 H226 0.939 . S
C240 C239 1.397 . S
C240 C241 1.378 . S
C241 C240 1.378 . S
C241 C242 1.378 . S
C242 H227 0.940 . S
C242 C241 1.378 . S
C242 C243 1.396 . S
C243 H228 0.940 . S
C243 C238 1.391 . S
C243 C242 1.396 . S
C244 P224 1.803 . S
C244 C245 1.378 . S
C244 C249 1.400 . S
C245 H229 0.939 . S
C245 C244 1.378 . S
C245 C246 1.361 . S
C246 H230 0.942 . S
C246 C245 1.361 . S
C246 C247 1.369 . S
C247 C246 1.369 . S
C247 C248 1.404 . S
C248 H231 0.940 . S
C248 C247 1.404 . S
C248 C249 1.389 . S
C249 H232 0.939 . S
C249 C244 1.400 . S
C249 C248 1.389 . S
C250 P224 1.819 . S
C250 C251 1.391 . S
C250 C255 1.391 . S
C251 H233 0.941 . S
C251 C250 1.391 . S
C251 C252 1.396 . S
C252 H236 0.939 . S
C252 C251 1.396 . S
C252 C253 1.397 . S
C253 C252 1.397 . S
C253 C254 1.385 . S
C254 H237 0.940 . S
C254 C253 1.385 . S
C254 C255 1.388 . S
C255 H234 0.939 . S
C255 C250 1.391 . S
C255 C254 1.388 . S
P256 O267 1.490 . S
P256 C270 1.812 . S
P256 C276 1.803 . S
P256 C282 1.819 . S
H257 C271 0.941 . S
H258 C272 0.939 . S
H259 C274 0.940 . S
H260 C275 0.940 . S
H261 C277 0.939 . S
H262 C278 0.942 . S
H263 C280 0.940 . S
H264 C281 0.939 . S
H265 C283 0.941 . S
H266 C287 0.939 . S
O267 P256 1.490 . S
H268 C284 0.939 . S
H269 C286 0.940 . S
C270 P256 1.812 . S
C270 C271 1.389 . S
C270 C275 1.391 . S
C271 H257 0.941 . S
C271 C270 1.389 . S
C271 C272 1.397 . S
C272 H258 0.939 . S
C272 C271 1.397 . S
C272 C273 1.378 . S
C273 C272 1.378 . S
C273 C274 1.378 . S
C274 H259 0.940 . S
C274 C273 1.378 . S
C274 C275 1.396 . S
C275 H260 0.940 . S
C275 C270 1.391 . S
C275 C274 1.396 . S
C276 P256 1.803 . S
C276 C277 1.378 . S
C276 C281 1.400 . S
C277 H261 0.939 . S
C277 C276 1.378 . S
C277 C278 1.361 . S
C278 H262 0.942 . S
C278 C277 1.361 . S
C278 C279 1.369 . S
C279 C278 1.369 . S
C279 C280 1.404 . S
C280 H263 0.940 . S
C280 C279 1.404 . S
C280 C281 1.389 . S
C281 H264 0.939 . S
C281 C276 1.400 . S
C281 C280 1.389 . S
C282 P256 1.819 . S
C282 C283 1.391 . S
C282 C287 1.391 . S
C283 H265 0.941 . S
C283 C282 1.391 . S
C283 C284 1.396 . S
C284 H268 0.939 . S
C284 C283 1.396 . S
C284 C285 1.397 . S
C285 C284 1.397 . S
C285 C286 1.385 . S
C286 H269 0.940 . S
C286 C285 1.385 . S
C286 C287 1.388 . S
C287 H266 0.939 . S
C287 C282 1.391 . S
C287 C286 1.388 . S
P288 O299 1.490 . S
P288 C302 1.812 . S
P288 C308 1.803 . S
P288 C314 1.819 . S
H289 C303 0.941 . S
H290 C304 0.939 . S
H291 C306 0.940 . S
H292 C307 0.940 . S
H293 C309 0.939 . S
H294 C310 0.942 . S
H295 C312 0.940 . S
H296 C313 0.939 . S
H297 C315 0.941 . S
H298 C319 0.939 . S
O299 P288 1.490 . S
H300 C316 0.939 . S
H301 C318 0.940 . S
C302 P288 1.812 . S
C302 C303 1.389 . S
C302 C307 1.391 . S
C303 H289 0.941 . S
C303 C302 1.389 . S
C303 C304 1.397 . S
C304 H290 0.939 . S
C304 C303 1.397 . S
C304 C305 1.378 . S
C305 C304 1.378 . S
C305 C306 1.378 . S
C306 H291 0.940 . S
C306 C305 1.378 . S
C306 C307 1.396 . S
C307 H292 0.940 . S
C307 C302 1.391 . S
C307 C306 1.396 . S
C308 P288 1.803 . S
C308 C309 1.378 . S
C308 C313 1.400 . S
C309 H293 0.939 . S
C309 C308 1.378 . S
C309 C310 1.361 . S
C310 H294 0.942 . S
C310 C309 1.361 . S
C310 C311 1.369 . S
C311 C310 1.369 . S
C311 C312 1.404 . S
C312 H295 0.940 . S
C312 C311 1.404 . S
C312 C313 1.389 . S
C313 H296 0.939 . S
C313 C308 1.400 . S
C313 C312 1.389 . S
C314 P288 1.819 . S
C314 C315 1.391 . S
C314 C319 1.391 . S
C315 H297 0.941 . S
C315 C314 1.391 . S
C315 C316 1.396 . S
C316 H300 0.939 . S
C316 C315 1.396 . S
C316 C317 1.397 . S
C317 C316 1.397 . S
C317 C318 1.385 . S
C318 H301 0.940 . S
C318 C317 1.385 . S
C318 C319 1.388 . S
C319 H298 0.939 . S
C319 C314 1.391 . S
C319 C318 1.388 . S
P320 O331 1.490 . S
P320 C334 1.812 . S
P320 C340 1.803 . S
P320 C346 1.819 . S
H321 C335 0.941 . S
H322 C336 0.939 . S
H323 C338 0.940 . S
H324 C339 0.940 . S
H325 C341 0.939 . S
H326 C342 0.942 . S
H327 C344 0.940 . S
H328 C345 0.939 . S
H329 C347 0.941 . S
H330 C351 0.939 . S
O331 P320 1.490 . S
H332 C348 0.939 . S
H333 C350 0.940 . S
C334 P320 1.812 . S
C334 C335 1.389 . S
C334 C339 1.391 . S
C335 H321 0.941 . S
C335 C334 1.389 . S
C335 C336 1.397 . S
C336 H322 0.939 . S
C336 C335 1.397 . S
C336 C337 1.378 . S
C337 C336 1.378 . S
C337 C338 1.378 . S
C338 H323 0.940 . S
C338 C337 1.378 . S
C338 C339 1.396 . S
C339 H324 0.940 . S
C339 C334 1.391 . S
C339 C338 1.396 . S
C340 P320 1.803 . S
C340 C341 1.378 . S
C340 C345 1.400 . S
C341 H325 0.939 . S
C341 C340 1.378 . S
C341 C342 1.361 . S
C342 H326 0.942 . S
C342 C341 1.361 . S
C342 C343 1.369 . S
C343 C342 1.369 . S
C343 C344 1.404 . S
C344 H327 0.940 . S
C344 C343 1.404 . S
C344 C345 1.389 . S
C345 H328 0.939 . S
C345 C340 1.400 . S
C345 C344 1.389 . S
C346 P320 1.819 . S
C346 C347 1.391 . S
C346 C351 1.391 . S
C347 H329 0.941 . S
C347 C346 1.391 . S
C347 C348 1.396 . S
C348 H332 0.939 . S
C348 C347 1.396 . S
C348 C349 1.397 . S
C349 C348 1.397 . S
C349 C350 1.385 . S
C350 H333 0.940 . S
C350 C349 1.385 . S
C350 C351 1.388 . S
C351 H330 0.939 . S
C351 C346 1.391 . S
C351 C350 1.388 . S
P352 O363 1.490 . S
P352 C366 1.812 . S
P352 C372 1.803 . S
P352 C378 1.819 . S
H353 C367 0.941 . S
H354 C368 0.939 . S
H355 C370 0.940 . S
H356 C371 0.940 . S
H357 C373 0.939 . S
H358 C374 0.942 . S
H359 C376 0.940 . S
H360 C377 0.939 . S
H361 C379 0.941 . S
H362 C383 0.939 . S
O363 P352 1.490 . S
H364 C380 0.939 . S
H365 C382 0.940 . S
C366 P352 1.812 . S
C366 C367 1.389 . S
C366 C371 1.391 . S
C367 H353 0.941 . S
C367 C366 1.389 . S
C367 C368 1.397 . S
C368 H354 0.939 . S
C368 C367 1.397 . S
C368 C369 1.378 . S
C369 C368 1.378 . S
C369 C370 1.378 . S
C370 H355 0.940 . S
C370 C369 1.378 . S
C370 C371 1.396 . S
C371 H356 0.940 . S
C371 C366 1.391 . S
C371 C370 1.396 . S
C372 P352 1.803 . S
C372 C373 1.378 . S
C372 C377 1.400 . S
C373 H357 0.939 . S
C373 C372 1.378 . S
C373 C374 1.361 . S
C374 H358 0.942 . S
C374 C373 1.361 . S
C374 C375 1.369 . S
C375 C374 1.369 . S
C375 C376 1.404 . S
C376 H359 0.940 . S
C376 C375 1.404 . S
C376 C377 1.389 . S
C377 H360 0.939 . S
C377 C372 1.400 . S
C377 C376 1.389 . S
C378 P352 1.819 . S
C378 C379 1.391 . S
C378 C383 1.391 . S
C379 H361 0.941 . S
C379 C378 1.391 . S
C379 C380 1.396 . S
C380 H364 0.939 . S
C380 C379 1.396 . S
C380 C381 1.397 . S
C381 C380 1.397 . S
C381 C382 1.385 . S
C382 H365 0.940 . S
C382 C381 1.385 . S
C382 C383 1.388 . S
C383 H362 0.939 . S
C383 C378 1.391 . S
C383 C382 1.388 . S
P384 O395 1.490 . S
P384 C398 1.812 . S
P384 C404 1.803 . S
P384 C410 1.819 . S
H385 C399 0.941 . S
H386 C400 0.939 . S
H387 C402 0.940 . S
H388 C403 0.940 . S
H389 C405 0.939 . S
H390 C406 0.942 . S
H391 C408 0.940 . S
H392 C409 0.939 . S
H393 C411 0.941 . S
H394 C415 0.939 . S
O395 P384 1.490 . S
H396 C412 0.939 . S
H397 C414 0.940 . S
C398 P384 1.812 . S
C398 C399 1.389 . S
C398 C403 1.391 . S
C399 H385 0.941 . S
C399 C398 1.389 . S
C399 C400 1.397 . S
C400 H386 0.939 . S
C400 C399 1.397 . S
C400 C401 1.378 . S
C401 C400 1.378 . S
C401 C402 1.378 . S
C402 H387 0.940 . S
C402 C401 1.378 . S
C402 C403 1.396 . S
C403 H388 0.940 . S
C403 C398 1.391 . S
C403 C402 1.396 . S
C404 P384 1.803 . S
C404 C405 1.378 . S
C404 C409 1.400 . S
C405 H389 0.939 . S
C405 C404 1.378 . S
C405 C406 1.361 . S
C406 H390 0.942 . S
C406 C405 1.361 . S
C406 C407 1.369 . S
C407 C406 1.369 . S
C407 C408 1.404 . S
C408 H391 0.940 . S
C408 C407 1.404 . S
C408 C409 1.389 . S
C409 H392 0.939 . S
C409 C404 1.400 . S
C409 C408 1.389 . S
C410 P384 1.819 . S
C410 C411 1.391 . S
C410 C415 1.391 . S
C411 H393 0.941 . S
C411 C410 1.391 . S
C411 C412 1.396 . S
C412 H396 0.939 . S
C412 C411 1.396 . S
C412 C413 1.397 . S
C413 C412 1.397 . S
C413 C414 1.385 . S
C414 H397 0.940 . S
C414 C413 1.385 . S
C414 C415 1.388 . S
C415 H394 0.939 . S
C415 C410 1.391 . S
C415 C414 1.388 . S
P416 O427 1.490 . S
P416 C430 1.812 . S
P416 C436 1.803 . S
P416 C442 1.819 . S
H417 C431 0.941 . S
H418 C432 0.939 . S
H419 C434 0.940 . S
H420 C435 0.940 . S
H421 C437 0.939 . S
H422 C438 0.942 . S
H423 C440 0.940 . S
H424 C441 0.939 . S
H425 C443 0.941 . S
H426 C447 0.939 . S
O427 P416 1.490 . S
H428 C444 0.939 . S
H429 C446 0.940 . S
C430 P416 1.812 . S
C430 C431 1.389 . S
C430 C435 1.391 . S
C431 H417 0.941 . S
C431 C430 1.389 . S
C431 C432 1.397 . S
C432 H418 0.939 . S
C432 C431 1.397 . S
C432 C433 1.378 . S
C433 C432 1.378 . S
C433 C434 1.378 . S
C434 H419 0.940 . S
C434 C433 1.378 . S
C434 C435 1.396 . S
C435 H420 0.940 . S
C435 C430 1.391 . S
C435 C434 1.396 . S
C436 P416 1.803 . S
C436 C437 1.378 . S
C436 C441 1.400 . S
C437 H421 0.939 . S
C437 C436 1.378 . S
C437 C438 1.361 . S
C438 H422 0.942 . S
C438 C437 1.361 . S
C438 C439 1.369 . S
C439 C438 1.369 . S
C439 C440 1.404 . S
C440 H423 0.940 . S
C440 C439 1.404 . S
C440 C441 1.389 . S
C441 H424 0.939 . S
C441 C436 1.400 . S
C441 C440 1.389 . S
C442 P416 1.819 . S
C442 C443 1.391 . S
C442 C447 1.391 . S
C443 H425 0.941 . S
C443 C442 1.391 . S
C443 C444 1.396 . S
C444 H428 0.939 . S
C444 C443 1.396 . S
C444 C445 1.397 . S
C445 C444 1.397 . S
C445 C446 1.385 . S
C446 H429 0.940 . S
C446 C445 1.385 . S
C446 C447 1.388 . S
C447 H426 0.939 . S
C447 C442 1.391 . S
C447 C446 1.388 . S
P448 O459 1.490 . S
P448 C462 1.812 . S
P448 C468 1.803 . S
P448 C474 1.819 . S
H449 C463 0.941 . S
H450 C464 0.939 . S
H451 C466 0.940 . S
H452 C467 0.940 . S
H453 C469 0.939 . S
H454 C470 0.942 . S
H455 C472 0.940 . S
H456 C473 0.939 . S
H457 C475 0.941 . S
H458 C479 0.939 . S
O459 P448 1.490 . S
H460 C476 0.939 . S
H461 C478 0.940 . S
C462 P448 1.812 . S
C462 C463 1.389 . S
C462 C467 1.391 . S
C463 H449 0.941 . S
C463 C462 1.389 . S
C463 C464 1.397 . S
C464 H450 0.939 . S
C464 C463 1.397 . S
C464 C465 1.378 . S
C465 C464 1.378 . S
C465 C466 1.378 . S
C466 H451 0.940 . S
C466 C465 1.378 . S
C466 C467 1.396 . S
C467 H452 0.940 . S
C467 C462 1.391 . S
C467 C466 1.396 . S
C468 P448 1.803 . S
C468 C469 1.378 . S
C468 C473 1.400 . S
C469 H453 0.939 . S
C469 C468 1.378 . S
C469 C470 1.361 . S
C470 H454 0.942 . S
C470 C469 1.361 . S
C470 C471 1.369 . S
C471 C470 1.369 . S
C471 C472 1.404 . S
C472 H455 0.940 . S
C472 C471 1.404 . S
C472 C473 1.389 . S
C473 H456 0.939 . S
C473 C468 1.400 . S
C473 C472 1.389 . S
C474 P448 1.819 . S
C474 C475 1.391 . S
C474 C479 1.391 . S
C475 H457 0.941 . S
C475 C474 1.391 . S
C475 C476 1.396 . S
C476 H460 0.939 . S
C476 C475 1.396 . S
C476 C477 1.397 . S
C477 C476 1.397 . S
C477 C478 1.385 . S
C478 H461 0.940 . S
C478 C477 1.385 . S
C478 C479 1.388 . S
C479 H458 0.939 . S
C479 C474 1.391 . S
C479 C478 1.388 . S
P480 O491 1.490 . S
P480 C494 1.812 . S
P480 C500 1.803 . S
P480 C506 1.819 . S
H481 C495 0.941 . S
H482 C496 0.939 . S
H483 C498 0.940 . S
H484 C499 0.940 . S
H485 C501 0.939 . S
H486 C502 0.942 . S
H487 C504 0.940 . S
H488 C505 0.939 . S
H489 C507 0.941 . S
H490 C511 0.939 . S
O491 P480 1.490 . S
H492 C508 0.939 . S
H493 C510 0.940 . S
C494 P480 1.812 . S
C494 C495 1.389 . S
C494 C499 1.391 . S
C495 H481 0.941 . S
C495 C494 1.389 . S
C495 C496 1.397 . S
C496 H482 0.939 . S
C496 C495 1.397 . S
C496 C497 1.378 . S
C497 C496 1.378 . S
C497 C498 1.378 . S
C498 H483 0.940 . S
C498 C497 1.378 . S
C498 C499 1.396 . S
C499 H484 0.940 . S
C499 C494 1.391 . S
C499 C498 1.396 . S
C500 P480 1.803 . S
C500 C501 1.378 . S
C500 C505 1.400 . S
C501 H485 0.939 . S
C501 C500 1.378 . S
C501 C502 1.361 . S
C502 H486 0.942 . S
C502 C501 1.361 . S
C502 C503 1.369 . S
C503 C502 1.369 . S
C503 C504 1.404 . S
C504 H487 0.940 . S
C504 C503 1.404 . S
C504 C505 1.389 . S
C505 H488 0.939 . S
C505 C500 1.400 . S
C505 C504 1.389 . S
C506 P480 1.819 . S
C506 C507 1.391 . S
C506 C511 1.391 . S
C507 H489 0.941 . S
C507 C506 1.391 . S
C507 C508 1.396 . S
C508 H492 0.939 . S
C508 C507 1.396 . S
C508 C509 1.397 . S
C509 C508 1.397 . S
C509 C510 1.385 . S
C510 H493 0.940 . S
C510 C509 1.385 . S
C510 C511 1.388 . S
C511 H490 0.939 . S
C511 C506 1.391 . S
C511 C510 1.388 . S
P512 O523 1.490 . S
P512 C526 1.812 . S
P512 C532 1.803 . S
P512 C538 1.819 . S
H513 C527 0.941 . S
H514 C528 0.939 . S
H515 C530 0.940 . S
H516 C531 0.940 . S
H517 C533 0.939 . S
H518 C534 0.942 . S
H519 C536 0.940 . S
H520 C537 0.939 . S
H521 C539 0.941 . S
H522 C543 0.939 . S
O523 P512 1.490 . S
H524 C540 0.939 . S
H525 C542 0.940 . S
C526 P512 1.812 . S
C526 C527 1.389 . S
C526 C531 1.391 . S
C527 H513 0.941 . S
C527 C526 1.389 . S
C527 C528 1.397 . S
C528 H514 0.939 . S
C528 C527 1.397 . S
C528 C529 1.378 . S
C529 C528 1.378 . S
C529 C530 1.378 . S
C530 H515 0.940 . S
C530 C529 1.378 . S
C530 C531 1.396 . S
C531 H516 0.940 . S
C531 C526 1.391 . S
C531 C530 1.396 . S
C532 P512 1.803 . S
C532 C533 1.378 . S
C532 C537 1.400 . S
C533 H517 0.939 . S
C533 C532 1.378 . S
C533 C534 1.361 . S
C534 H518 0.942 . S
C534 C533 1.361 . S
C534 C535 1.369 . S
C535 C534 1.369 . S
C535 C536 1.404 . S
C536 H519 0.940 . S
C536 C535 1.404 . S
C536 C537 1.389 . S
C537 H520 0.939 . S
C537 C532 1.400 . S
C537 C536 1.389 . S
C538 P512 1.819 . S
C538 C539 1.391 . S
C538 C543 1.391 . S
C539 H521 0.941 . S
C539 C538 1.391 . S
C539 C540 1.396 . S
C540 H524 0.939 . S
C540 C539 1.396 . S
C540 C541 1.397 . S
C541 C540 1.397 . S
C541 C542 1.385 . S
C542 H525 0.940 . S
C542 C541 1.385 . S
C542 C543 1.388 . S
C543 H522 0.939 . S
C543 C538 1.391 . S
C543 C542 1.388 . S
P544 O555 1.490 . S
P544 C558 1.812 . S
P544 C564 1.803 . S
P544 C570 1.819 . S
H545 C559 0.941 . S
H546 C560 0.939 . S
H547 C562 0.940 . S
H548 C563 0.940 . S
H549 C565 0.939 . S
H550 C566 0.942 . S
H551 C568 0.940 . S
H552 C569 0.939 . S
H553 C571 0.941 . S
H554 C575 0.939 . S
O555 P544 1.490 . S
H556 C572 0.939 . S
H557 C574 0.940 . S
C558 P544 1.812 . S
C558 C559 1.389 . S
C558 C563 1.391 . S
C559 H545 0.941 . S
C559 C558 1.389 . S
C559 C560 1.397 . S
C560 H546 0.939 . S
C560 C559 1.397 . S
C560 C561 1.378 . S
C561 C560 1.378 . S
C561 C562 1.378 . S
C562 H547 0.940 . S
C562 C561 1.378 . S
C562 C563 1.396 . S
C563 H548 0.940 . S
C563 C558 1.391 . S
C563 C562 1.396 . S
C564 P544 1.803 . S
C564 C565 1.378 . S
C564 C569 1.400 . S
C565 H549 0.939 . S
C565 C564 1.378 . S
C565 C566 1.361 . S
C566 H550 0.942 . S
C566 C565 1.361 . S
C566 C567 1.369 . S
C567 C566 1.369 . S
C567 C568 1.404 . S
C568 H551 0.940 . S
C568 C567 1.404 . S
C568 C569 1.389 . S
C569 H552 0.939 . S
C569 C564 1.400 . S
C569 C568 1.389 . S
C570 P544 1.819 . S
C570 C571 1.391 . S
C570 C575 1.391 . S
C571 H553 0.941 . S
C571 C570 1.391 . S
C571 C572 1.396 . S
C572 H556 0.939 . S
C572 C571 1.396 . S
C572 C573 1.397 . S
C573 C572 1.397 . S
C573 C574 1.385 . S
C574 H557 0.940 . S
C574 C573 1.385 . S
C574 C575 1.388 . S
C575 H554 0.939 . S
C575 C570 1.391 . S
C575 C574 1.388 . S
Tb576 O579 2.453 . S
Tb576 O580 2.596 1_545 S
Tb576 O581 2.374 1_545 S
Tb576 O589 2.343 1_554 S
Tb576 O591 2.353 . S
Tb576 O593 2.427 1_554 S
Tb576 O594 2.513 1_554 S
C577 O581 1.251 . S
C577 O583 1.261 . S
Tb578 O580 2.343 1_556 S
Tb578 O583 2.354 1_556 S
Tb578 O586 2.427 1_556 S
Tb578 O587 2.513 1_556 S
Tb578 O588 2.453 . S
Tb578 O589 2.596 1_565 S
Tb578 O590 2.374 1_565 S
O579 Tb576 2.453 . S
O579 C595 1.245 . S
O580 Tb576 2.596 1_565 S
O580 Tb578 2.343 1_554 S
O580 C595 1.259 1_565 S
O581 Tb576 2.374 1_565 S
O581 C577 1.251 . S
C582 O586 1.275 . S
C582 O587 1.246 . S
O583 C577 1.261 . S
O583 Tb578 2.354 1_554 S
C584 O588 1.215 1_545 S
C584 O589 1.267 . S
C585 O590 1.250 . S
C585 O591 1.263 1_556 S
O586 Tb578 2.427 1_554 S
O586 C582 1.275 . S
O587 Tb578 2.513 1_554 S
O587 C582 1.246 . S
O588 Tb578 2.453 . S
O588 C584 1.215 1_565 S
O589 Tb576 2.343 1_556 S
O589 Tb578 2.596 1_545 S
O589 C584 1.267 . S
O590 Tb578 2.374 1_545 S
O590 C585 1.250 . S
O591 Tb576 2.353 . S
O591 C585 1.263 1_554 S
C592 O593 1.275 . S
C592 O594 1.246 . S
O593 Tb576 2.427 1_556 S
O593 C592 1.275 . S
O594 Tb576 2.513 1_556 S
O594 C592 1.246 . S
C595 O579 1.245 . S
C595 O580 1.259 1_545 S
Tb596 O599 2.453 . S
Tb596 O600 2.596 1_655 S
Tb596 O601 2.374 1_655 S
Tb596 O609 2.343 1_554 S
Tb596 O611 2.353 . S
Tb596 O613 2.427 1_554 S
Tb596 O614 2.513 1_554 S
C597 O601 1.251 . S
C597 O603 1.263 . S
Tb598 O600 2.343 1_556 S
Tb598 O603 2.353 1_556 S
Tb598 O606 2.427 1_556 S
Tb598 O607 2.513 1_556 S
Tb598 O608 2.453 . S
Tb598 O609 2.596 1_455 S
Tb598 O610 2.374 1_455 S
O599 Tb596 2.453 . S
O599 C615 1.245 1_655 S
O600 Tb596 2.596 1_455 S
O600 Tb598 2.343 1_554 S
O600 C615 1.259 . S
O601 Tb596 2.374 1_455 S
O601 C597 1.251 . S
C602 O606 1.275 . S
C602 O607 1.246 . S
O603 C597 1.263 . S
O603 Tb598 2.353 1_554 S
C604 O608 1.272 . S
C604 O609 1.250 1_455 S
C605 O610 1.250 . S
C605 O611 1.263 1_556 S
O606 Tb598 2.427 1_554 S
O606 C602 1.275 . S
O607 Tb598 2.513 1_554 S
O607 C602 1.246 . S
O608 Tb598 2.453 . S
O608 C604 1.272 . S
O609 Tb596 2.343 1_556 S
O609 Tb598 2.596 1_655 S
O609 C604 1.250 1_655 S
O610 Tb598 2.374 1_655 S
O610 C605 1.250 . S
O611 Tb596 2.353 . S
O611 C605 1.263 1_554 S
C612 O613 1.275 . S
C612 O614 1.246 . S
O613 Tb596 2.427 1_556 S
O613 C612 1.275 . S
O614 Tb596 2.513 1_556 S
O614 C612 1.246 . S
C615 O599 1.245 1_455 S
C615 O600 1.259 . S
Tb616 O619 2.453 . S
Tb616 O620 2.596 . S
Tb616 O621 2.374 . S
Tb616 O629 2.343 1_556 S
Tb616 O631 2.353 1_556 S
Tb616 O633 2.427 1_556 S
Tb616 O634 2.513 1_556 S
C617 O621 1.251 . S
C617 O623 1.263 1_556 S
Tb618 O620 2.343 1_554 S
Tb618 O623 2.353 . S
Tb618 O626 2.427 1_554 S
Tb618 O627 2.513 1_554 S
Tb618 O628 2.453 . S
Tb618 O629 2.596 . S
Tb618 O630 2.374 . S
O619 Tb616 2.453 . S
O619 C635 1.245 . S
O620 Tb616 2.596 . S
O620 Tb618 2.343 1_556 S
O620 C635 1.259 . S
O621 Tb616 2.374 . S
O621 C617 1.251 . S
C622 O626 1.275 . S
C622 O627 1.246 . S
O623 C617 1.263 1_554 S
O623 Tb618 2.353 . S
C624 O628 1.245 . S
C624 O629 1.259 . S
C625 O630 1.250 . S
C625 O631 1.263 . S
O626 Tb618 2.427 1_556 S
O626 C622 1.275 . S
O627 Tb618 2.513 1_556 S
O627 C622 1.246 . S
O628 Tb618 2.453 . S
O628 C624 1.245 . S
O629 Tb616 2.343 1_554 S
O629 Tb618 2.596 . S
O629 C624 1.259 . S
O630 Tb618 2.374 . S
O630 C625 1.250 . S
O631 Tb616 2.353 1_554 S
O631 C625 1.263 . S
C632 O633 1.275 . S
C632 O634 1.246 . S
O633 Tb616 2.427 1_554 S
O633 C632 1.275 . S
O634 Tb616 2.513 1_554 S
O634 C632 1.246 . S
C635 O619 1.245 . S
C635 O620 1.259 . S
Tb636 O639 2.453 . S
Tb636 O640 2.596 . S
Tb636 O641 2.374 . S
Tb636 O649 2.343 . S
Tb636 O651 2.353 . S
Tb636 O653 2.427 . S
Tb636 O654 2.513 . S
C637 O641 1.251 . S
C637 O643 1.263 . S
Tb638 O640 2.343 . S
Tb638 O643 2.353 . S
Tb638 O646 2.427 . S
Tb638 O647 2.513 . S
Tb638 O648 2.453 . S
Tb638 O649 2.596 . S
Tb638 O650 2.374 . S
O639 Tb636 2.453 . S
O639 C655 1.245 . S
O640 Tb636 2.596 . S
O640 Tb638 2.343 . S
O640 C655 1.259 . S
O641 Tb636 2.374 . S
O641 C637 1.251 . S
C642 O646 1.275 . S
C642 O647 1.246 . S
O643 C637 1.263 . S
O643 Tb638 2.353 . S
C644 O648 1.245 . S
C644 O649 1.259 . S
C645 O650 1.250 . S
C645 O651 1.263 . S
O646 Tb638 2.427 . S
O646 C642 1.275 . S
O647 Tb638 2.513 . S
O647 C642 1.246 . S
O648 Tb638 2.453 . S
O648 C644 1.245 . S
O649 Tb636 2.343 . S
O649 Tb638 2.596 . S
O649 C644 1.259 . S
O650 Tb638 2.374 . S
O650 C645 1.250 . S
O651 Tb636 2.353 . S
O651 C645 1.263 . S
C652 O653 1.275 . S
C652 O654 1.246 . S
O653 Tb636 2.427 . S
O653 C652 1.275 . S
O654 Tb636 2.513 . S
O654 C652 1.246 . S
C655 O639 1.245 . S
C655 O640 1.259 . S
Tb656 O659 2.453 . S
Tb656 O660 2.596 . S
Tb656 O661 2.374 . S
Tb656 O669 2.343 . S
Tb656 O671 2.353 . S
Tb656 O673 2.427 . S
Tb656 O674 2.513 . S
C657 O661 1.251 . S
C657 O663 1.263 . S
Tb658 O660 2.343 . S
Tb658 O663 2.353 . S
Tb658 O666 2.427 . S
Tb658 O667 2.513 . S
Tb658 O668 2.453 . S
Tb658 O669 2.596 . S
Tb658 O670 2.374 . S
O659 Tb656 2.453 . S
O659 C675 1.245 . S
O660 Tb656 2.596 . S
O660 Tb658 2.343 . S
O660 C675 1.259 . S
O661 Tb656 2.374 . S
O661 C657 1.251 . S
C662 O666 1.275 . S
C662 O667 1.246 . S
O663 C657 1.263 . S
O663 Tb658 2.353 . S
C664 O668 1.245 . S
C664 O669 1.259 . S
C665 O670 1.250 . S
C665 O671 1.263 . S
O666 Tb658 2.427 . S
O666 C662 1.275 . S
O667 Tb658 2.513 . S
O667 C662 1.246 . S
O668 Tb658 2.453 . S
O668 C664 1.245 . S
O669 Tb656 2.343 . S
O669 Tb658 2.596 . S
O669 C664 1.259 . S
O670 Tb658 2.374 . S
O670 C665 1.250 . S
O671 Tb656 2.353 . S
O671 C665 1.263 . S
C672 O673 1.275 . S
C672 O674 1.246 . S
O673 Tb656 2.427 . S
O673 C672 1.275 . S
O674 Tb656 2.513 . S
O674 C672 1.246 . S
C675 O659 1.245 . S
C675 O660 1.259 . S
Tb676 O679 2.453 . S
Tb676 O680 2.596 . S
Tb676 O681 2.374 . S
Tb676 O689 2.343 . S
Tb676 O691 2.353 . S
Tb676 O693 2.427 . S
Tb676 O694 2.513 . S
C677 O681 1.251 . S
C677 O683 1.263 . S
Tb678 O680 2.343 . S
Tb678 O683 2.353 . S
Tb678 O686 2.427 . S
Tb678 O687 2.513 . S
Tb678 O688 2.453 . S
Tb678 O689 2.596 . S
Tb678 O690 2.374 . S
O679 Tb676 2.453 . S
O679 C695 1.245 . S
O680 Tb676 2.596 . S
O680 Tb678 2.343 . S
O680 C695 1.259 . S
O681 Tb676 2.374 . S
O681 C677 1.251 . S
C682 O686 1.275 . S
C682 O687 1.246 . S
O683 C677 1.263 . S
O683 Tb678 2.353 . S
C684 O688 1.245 . S
C684 O689 1.259 . S
C685 O690 1.250 . S
C685 O691 1.263 . S
O686 Tb678 2.427 . S
O686 C682 1.275 . S
O687 Tb678 2.513 . S
O687 C682 1.246 . S
O688 Tb678 2.453 . S
O688 C684 1.245 . S
O689 Tb676 2.343 . S
O689 Tb678 2.596 . S
O689 C684 1.259 . S
O690 Tb678 2.374 . S
O690 C685 1.250 . S
O691 Tb676 2.353 . S
O691 C685 1.263 . S
C692 O693 1.275 . S
C692 O694 1.246 . S
O693 Tb676 2.427 . S
O693 C692 1.275 . S
O694 Tb676 2.513 . S
O694 C692 1.246 . S
C695 O679 1.245 . S
C695 O680 1.259 . S
Tb696 O699 2.453 . S
Tb696 O700 2.596 . S
Tb696 O701 2.374 . S
Tb696 O709 2.343 . S
Tb696 O711 2.353 . S
Tb696 O713 2.427 . S
Tb696 O714 2.513 . S
C697 O701 1.251 . S
C697 O703 1.263 . S
Tb698 O700 2.343 . S
Tb698 O703 2.353 . S
Tb698 O706 2.427 . S
Tb698 O707 2.513 . S
Tb698 O708 2.453 . S
Tb698 O709 2.596 . S
Tb698 O710 2.374 . S
O699 Tb696 2.453 . S
O699 C715 1.245 . S
O700 Tb696 2.596 . S
O700 Tb698 2.343 . S
O700 C715 1.259 . S
O701 Tb696 2.374 . S
O701 C697 1.251 . S
C702 O706 1.275 . S
C702 O707 1.246 . S
O703 C697 1.263 . S
O703 Tb698 2.353 . S
C704 O708 1.245 . S
C704 O709 1.259 . S
C705 O710 1.250 . S
C705 O711 1.263 . S
O706 Tb698 2.427 . S
O706 C702 1.275 . S
O707 Tb698 2.513 . S
O707 C702 1.246 . S
O708 Tb698 2.453 . S
O708 C704 1.245 . S
O709 Tb696 2.343 . S
O709 Tb698 2.596 . S
O709 C704 1.259 . S
O710 Tb698 2.374 . S
O710 C705 1.250 . S
O711 Tb696 2.353 . S
O711 C705 1.263 . S
C712 O713 1.275 . S
C712 O714 1.246 . S
O713 Tb696 2.427 . S
O713 C712 1.275 . S
O714 Tb696 2.513 . S
O714 C712 1.246 . S
C715 O699 1.245 . S
C715 O700 1.259 . S
Tb716 O719 2.453 . S
Tb716 O720 2.596 . S
Tb716 O721 2.374 . S
Tb716 O729 2.343 . S
Tb716 O731 2.353 . S
Tb716 O733 2.427 . S
Tb716 O734 2.513 . S
C717 O721 1.251 . S
C717 O723 1.263 . S
Tb718 O720 2.343 . S
Tb718 O723 2.353 . S
Tb718 O726 2.427 . S
Tb718 O727 2.513 . S
Tb718 O728 2.453 . S
Tb718 O729 2.596 . S
Tb718 O730 2.374 . S
O719 Tb716 2.453 . S
O719 C735 1.245 . S
O720 Tb716 2.596 . S
O720 Tb718 2.343 . S
O720 C735 1.259 . S
O721 Tb716 2.374 . S
O721 C717 1.251 . S
C722 O726 1.275 . S
C722 O727 1.246 . S
O723 C717 1.263 . S
O723 Tb718 2.353 . S
C724 O728 1.245 . S
C724 O729 1.259 . S
C725 O730 1.250 . S
C725 O731 1.263 . S
O726 Tb718 2.427 . S
O726 C722 1.275 . S
O727 Tb718 2.513 . S
O727 C722 1.246 . S
O728 Tb718 2.453 . S
O728 C724 1.245 . S
O729 Tb716 2.343 . S
O729 Tb718 2.596 . S
O729 C724 1.259 . S
O730 Tb718 2.374 . S
O730 C725 1.250 . S
O731 Tb716 2.353 . S
O731 C725 1.263 . S
C732 O733 1.275 . S
C732 O734 1.246 . S
O733 Tb716 2.427 . S
O733 C732 1.275 . S
O734 Tb716 2.513 . S
O734 C732 1.246 . S
C735 O719 1.245 . S
C735 O720 1.259 . S
Tb736 O739 2.453 . S
Tb736 O740 2.596 . S
Tb736 O741 2.374 . S
Tb736 O749 2.343 . S
Tb736 O751 2.353 . S
Tb736 O753 2.427 . S
Tb736 O754 2.513 . S
C737 O741 1.251 . S
C737 O743 1.263 . S
Tb738 O740 2.343 . S
Tb738 O743 2.353 . S
Tb738 O746 2.427 . S
Tb738 O747 2.513 . S
Tb738 O748 2.453 . S
Tb738 O749 2.596 . S
Tb738 O750 2.374 . S
O739 Tb736 2.453 . S
O739 C755 1.245 . S
O740 Tb736 2.596 . S
O740 Tb738 2.343 . S
O740 C755 1.259 . S
O741 Tb736 2.374 . S
O741 C737 1.251 . S
C742 O746 1.275 . S
C742 O747 1.246 . S
O743 C737 1.263 . S
O743 Tb738 2.353 . S
C744 O748 1.245 . S
C744 O749 1.259 . S
C745 O750 1.250 . S
C745 O751 1.263 . S
O746 Tb738 2.427 . S
O746 C742 1.275 . S
O747 Tb738 2.513 . S
O747 C742 1.246 . S
O748 Tb738 2.453 . S
O748 C744 1.245 . S
O749 Tb736 2.343 . S
O749 Tb738 2.596 . S
O749 C744 1.259 . S
O750 Tb738 2.374 . S
O750 C745 1.250 . S
O751 Tb736 2.353 . S
O751 C745 1.263 . S
C752 O753 1.275 . S
C752 O754 1.246 . S
O753 Tb736 2.427 . S
O753 C752 1.275 . S
O754 Tb736 2.513 . S
O754 C752 1.246 . S
C755 O739 1.245 . S
C755 O740 1.259 . S
C756 C757 1.349 . S
C756 C758 1.327 . S
C756 H781 0.950 . S
C757 C756 1.349 . S
C757 C773 1.349 . S
C758 C756 1.327 . S
C758 C777 1.429 . S
C758 H782 0.950 . S
C759 C776 1.574 . S
C759 C778 1.368 . S
C759 H783 0.949 . S
H760 C764 0.949 . S
C761 C762 1.349 . S
C761 C763 1.327 . S
C761 H784 0.950 . S
C762 C761 1.349 . S
C762 C774 1.349 . S
C763 C761 1.327 . S
C763 C779 1.429 . S
C763 H785 0.950 . S
C764 H760 0.949 . S
C764 C772 1.574 . S
C764 C780 1.368 . S
H765 C773 0.950 . S
H766 C771 0.950 . S
H767 C772 0.949 . S
H768 C774 0.950 . S
H769 C775 0.950 . S
H770 C776 0.949 . S
C771 H766 0.950 . S
C771 C773 1.327 . S
C771 C777 1.429 . S
C772 C764 1.574 . S
C772 H767 0.949 . S
C772 C778 1.368 . S
C773 C757 1.349 . S
C773 H765 0.950 . S
C773 C771 1.327 . S
C774 C762 1.349 . S
C774 H768 0.950 . S
C774 C775 1.327 . S
C775 H769 0.950 . S
C775 C774 1.327 . S
C775 C779 1.429 . S
C776 C759 1.574 . S
C776 H770 0.949 . S
C776 C780 1.368 . S
C777 C758 1.429 . S
C777 C771 1.429 . S
C777 C778 1.523 . S
C778 C759 1.368 . S
C778 C772 1.368 . S
C778 C777 1.523 . S
C779 C763 1.429 . S
C779 C775 1.429 . S
C779 C780 1.523 . S
C780 C764 1.368 . S
C780 C776 1.368 . S
C780 C779 1.523 . S
H781 C756 0.950 . S
H782 C758 0.950 . S
H783 C759 0.949 . S
H784 C761 0.950 . S
H785 C763 0.950 . S
C786 C787 1.349 . S
C786 C788 1.327 . S
C786 H811 0.950 . S
C787 C786 1.349 . S
C787 C803 1.349 . S
C788 C786 1.327 . S
C788 C807 1.429 . S
C788 H812 0.950 . S
C789 C806 1.574 . S
C789 C808 1.368 . S
C789 H813 0.949 . S
H790 C794 0.949 . S
C791 C792 1.349 . S
C791 C793 1.327 . S
C791 H814 0.950 . S
C792 C791 1.349 . S
C792 C804 1.349 . S
C793 C791 1.327 . S
C793 C809 1.429 . S
C793 H815 0.950 . S
C794 H790 0.949 . S
C794 C802 1.574 . S
C794 C810 1.368 . S
H795 C803 0.950 . S
H796 C801 0.950 . S
H797 C802 0.949 . S
H798 C804 0.950 . S
H799 C805 0.950 . S
H800 C806 0.949 . S
C801 H796 0.950 . S
C801 C803 1.327 . S
C801 C807 1.429 . S
C802 C794 1.574 . S
C802 H797 0.949 . S
C802 C808 1.368 . S
C803 C787 1.349 . S
C803 H795 0.950 . S
C803 C801 1.327 . S
C804 C792 1.349 . S
C804 H798 0.950 . S
C804 C805 1.327 . S
C805 H799 0.950 . S
C805 C804 1.327 . S
C805 C809 1.429 . S
C806 C789 1.574 . S
C806 H800 0.949 . S
C806 C810 1.368 . S
C807 C788 1.429 . S
C807 C801 1.429 . S
C807 C808 1.523 . S
C808 C789 1.368 . S
C808 C802 1.368 . S
C808 C807 1.523 . S
C809 C793 1.429 . S
C809 C805 1.429 . S
C809 C810 1.523 . S
C810 C794 1.368 . S
C810 C806 1.368 . S
C810 C809 1.523 . S
H811 C786 0.950 . S
H812 C788 0.950 . S
H813 C789 0.949 . S
H814 C791 0.950 . S
H815 C793 0.950 . S
C816 C817 1.349 . S
C816 C818 1.327 . S
C816 H841 0.950 . S
C817 C816 1.349 . S
C817 C833 1.349 . S
C818 C816 1.327 . S
C818 C837 1.429 . S
C818 H842 0.950 . S
C819 C836 1.574 . S
C819 C838 1.368 . S
C819 H843 0.949 . S
H820 C824 0.949 . S
C821 C822 1.349 . S
C821 C823 1.327 . S
C821 H844 0.950 . S
C822 C821 1.349 . S
C822 C834 1.349 . S
C823 C821 1.327 . S
C823 C839 1.429 . S
C823 H845 0.950 . S
C824 H820 0.949 . S
C824 C832 1.574 . S
C824 C840 1.368 . S
H825 C833 0.950 . S
H826 C831 0.950 . S
H827 C832 0.949 . S
H828 C834 0.950 . S
H829 C835 0.950 . S
H830 C836 0.949 . S
C831 H826 0.950 . S
C831 C833 1.327 . S
C831 C837 1.429 . S
C832 C824 1.574 . S
C832 H827 0.949 . S
C832 C838 1.368 . S
C833 C817 1.349 . S
C833 H825 0.950 . S
C833 C831 1.327 . S
C834 C822 1.349 . S
C834 H828 0.950 . S
C834 C835 1.327 . S
C835 H829 0.950 . S
C835 C834 1.327 . S
C835 C839 1.429 . S
C836 C819 1.574 . S
C836 H830 0.949 . S
C836 C840 1.368 . S
C837 C818 1.429 . S
C837 C831 1.429 . S
C837 C838 1.523 . S
C838 C819 1.368 . S
C838 C832 1.368 . S
C838 C837 1.523 . S
C839 C823 1.429 . S
C839 C835 1.429 . S
C839 C840 1.523 . S
C840 C824 1.368 . S
C840 C836 1.368 . S
C840 C839 1.523 . S
H841 C816 0.950 . S
H842 C818 0.950 . S
H843 C819 0.949 . S
H844 C821 0.950 . S
H845 C823 0.950 . S
C846 C847 1.349 . S
C846 C848 1.327 . S
C846 H871 0.950 . S
C847 C846 1.349 . S
C847 C863 1.349 . S
C848 C846 1.327 . S
C848 C867 1.429 . S
C848 H872 0.950 . S
C849 C866 1.574 . S
C849 C868 1.368 . S
C849 H873 0.949 . S
H850 C854 0.949 . S
C851 C852 1.349 . S
C851 C853 1.327 . S
C851 H874 0.950 1_556 S
C852 C851 1.349 . S
C852 C864 1.349 . S
C853 C851 1.327 . S
C853 C869 1.429 . S
C853 H875 0.950 . S
C854 H850 0.949 . S
C854 C862 1.574 . S
C854 C870 1.368 . S
H855 C863 0.950 . S
H856 C861 0.950 . S
H857 C862 0.949 . S
H858 C864 0.950 . S
H859 C865 0.950 . S
H860 C866 0.949 . S
C861 H856 0.950 . S
C861 C863 1.327 . S
C861 C867 1.429 . S
C862 C854 1.574 . S
C862 H857 0.949 . S
C862 C868 1.368 . S
C863 C847 1.349 . S
C863 H855 0.950 . S
C863 C861 1.327 . S
C864 C852 1.349 . S
C864 H858 0.950 . S
C864 C865 1.327 . S
C865 H859 0.950 . S
C865 C864 1.327 . S
C865 C869 1.429 . S
C866 C849 1.574 . S
C866 H860 0.949 . S
C866 C870 1.368 . S
C867 C848 1.429 . S
C867 C861 1.429 . S
C867 C868 1.523 . S
C868 C849 1.368 . S
C868 C862 1.368 . S
C868 C867 1.523 . S
C869 C853 1.429 . S
C869 C865 1.429 . S
C869 C870 1.523 . S
C870 C854 1.368 . S
C870 C866 1.368 . S
C870 C869 1.523 . S
H871 C846 0.950 . S
H872 C848 0.950 . S
H873 C849 0.949 . S
H874 C851 0.950 1_554 S
H875 C853 0.950 . S
C876 C877 1.349 . S
C876 C878 1.327 . S
C876 H901 0.950 . S
C877 C876 1.349 . S
C877 C893 1.349 . S
C878 C876 1.327 . S
C878 C897 1.429 . S
C878 H902 0.950 . S
C879 C896 1.574 . S
C879 C898 1.368 . S
C879 H903 0.949 . S
H880 C884 0.949 . S
C881 C882 1.349 . S
C881 C883 1.327 . S
C881 H904 0.950 . S
C882 C881 1.349 . S
C882 C894 1.349 . S
C883 C881 1.327 . S
C883 C899 1.429 . S
C883 H905 0.950 . S
C884 H880 0.949 . S
C884 C892 1.574 . S
C884 C900 1.368 . S
H885 C893 0.950 . S
H886 C891 0.950 . S
H887 C892 0.949 . S
H888 C894 0.950 . S
H889 C895 0.950 . S
H890 C896 0.949 . S
C891 H886 0.950 . S
C891 C893 1.327 . S
C891 C897 1.429 . S
C892 C884 1.574 . S
C892 H887 0.949 . S
C892 C898 1.368 . S
C893 C877 1.349 . S
C893 H885 0.950 . S
C893 C891 1.327 . S
C894 C882 1.349 . S
C894 H888 0.950 . S
C894 C895 1.327 . S
C895 H889 0.950 . S
C895 C894 1.327 . S
C895 C899 1.429 . S
C896 C879 1.574 . S
C896 H890 0.949 . S
C896 C900 1.368 . S
C897 C878 1.429 . S
C897 C891 1.429 . S
C897 C898 1.523 . S
C898 C879 1.368 . S
C898 C892 1.368 . S
C898 C897 1.523 . S
C899 C883 1.429 . S
C899 C895 1.429 . S
C899 C900 1.523 . S
C900 C884 1.368 . S
C900 C896 1.368 . S
C900 C899 1.523 . S
H901 C876 0.950 . S
H902 C878 0.950 . S
H903 C879 0.949 . S
H904 C881 0.950 . S
H905 C883 0.950 . S
C906 C907 1.349 . S
C906 C908 1.327 . S
C906 H931 0.950 . S
C907 C906 1.349 . S
C907 C923 1.349 . S
C908 C906 1.327 . S
C908 C927 1.429 . S
C908 H932 0.950 . S
C909 C926 1.574 . S
C909 C928 1.368 . S
C909 H933 0.949 . S
H910 C914 0.949 . S
C911 C912 1.314 1_554 S
C911 C913 1.310 1_554 S
C911 H934 1.005 . S
C912 C911 1.314 1_556 S
C912 C924 1.349 . S
C913 C911 1.310 1_556 S
C913 C929 1.429 . S
C913 H935 0.950 1_556 S
C914 H910 0.949 . S
C914 C922 1.574 . S
C914 C930 1.368 . S
H915 C923 0.950 . S
H916 C921 0.950 . S
H917 C922 0.949 . S
H918 C924 0.950 . S
H919 C925 0.950 . S
H920 C926 0.949 . S
C921 H916 0.950 . S
C921 C923 1.327 . S
C921 C927 1.429 . S
C922 C914 1.574 . S
C922 H917 0.949 . S
C922 C928 1.368 . S
C923 C907 1.349 . S
C923 H915 0.950 . S
C923 C921 1.327 . S
C924 C912 1.349 . S
C924 H918 0.950 . S
C924 C925 1.327 . S
C925 H919 0.950 . S
C925 C924 1.327 . S
C925 C929 1.429 . S
C926 C909 1.574 . S
C926 H920 0.949 . S
C926 C930 1.368 . S
C927 C908 1.429 . S
C927 C921 1.429 . S
C927 C928 1.523 . S
C928 C909 1.368 . S
C928 C922 1.368 . S
C928 C927 1.523 . S
C929 C913 1.429 . S
C929 C925 1.429 . S
C929 C930 1.523 . S
C930 C914 1.368 . S
C930 C926 1.368 . S
C930 C929 1.523 . S
H931 C906 0.950 . S
H932 C908 0.950 . S
H933 C909 0.949 . S
H934 C911 1.005 . S
H935 C913 0.950 1_554 S
C936 C937 1.349 . S
C936 C938 1.327 . S
C936 H961 0.950 . S
C937 C936 1.349 . S
C937 C953 1.349 . S
C938 C936 1.327 . S
C938 C957 1.429 . S
C938 H962 0.950 . S
C939 C956 1.574 . S
C939 C958 1.368 . S
C939 H963 0.949 . S
H940 C944 0.949 . S
C941 C942 1.349 . S
C941 C943 1.327 . S
C941 H964 0.950 . S
C942 C941 1.349 . S
C942 C954 1.349 . S
C943 C941 1.327 . S
C943 C959 1.429 . S
C943 H965 0.950 . S
C944 H940 0.949 . S
C944 C952 1.574 . S
C944 C960 1.368 . S
H945 C953 0.950 . S
H946 C951 0.950 . S
H947 C952 0.949 . S
H948 C954 0.950 . S
H949 C955 0.950 . S
H950 C956 0.949 . S
C951 H946 0.950 . S
C951 C953 1.327 . S
C951 C957 1.429 . S
C952 C944 1.574 . S
C952 H947 0.949 . S
C952 C958 1.368 . S
C953 C937 1.349 . S
C953 H945 0.950 . S
C953 C951 1.327 . S
C954 C942 1.349 . S
C954 H948 0.950 . S
C954 C955 1.327 . S
C955 H949 0.950 . S
C955 C954 1.327 . S
C955 C959 1.429 . S
C956 C939 1.574 . S
C956 H950 0.949 . S
C956 C960 1.368 . S
C957 C938 1.429 . S
C957 C951 1.429 . S
C957 C958 1.523 . S
C958 C939 1.368 . S
C958 C952 1.368 . S
C958 C957 1.523 . S
C959 C943 1.429 . S
C959 C955 1.429 . S
C959 C960 1.523 . S
C960 C944 1.368 . S
C960 C956 1.368 . S
C960 C959 1.523 . S
H961 C936 0.950 . S
H962 C938 0.950 . S
H963 C939 0.949 . S
H964 C941 0.950 . S
H965 C943 0.950 . S
C966 C967 1.349 . S
C966 C968 1.327 . S
C966 H991 0.950 . S
C967 C966 1.349 . S
C967 C983 1.349 . S
C968 C966 1.327 . S
C968 C987 1.429 . S
C968 H992 0.950 . S
C969 C986 1.574 . S
C969 C988 1.368 . S
C969 H993 0.949 . S
H970 C974 0.949 . S
C971 C972 1.349 . S
C971 C973 1.327 . S
C971 H994 0.950 . S
C972 C971 1.349 . S
C972 C984 1.349 . S
C973 C971 1.327 . S
C973 C989 1.429 . S
C973 H995 0.950 . S
C974 H970 0.949 . S
C974 C982 1.574 . S
C974 C990 1.368 . S
H975 C983 0.950 . S
H976 C981 0.950 . S
H977 C982 0.949 . S
H978 C984 0.950 . S
H979 C985 0.950 . S
H980 C986 0.949 . S
C981 H976 0.950 . S
C981 C983 1.327 . S
C981 C987 1.429 . S
C982 C974 1.574 . S
C982 H977 0.949 . S
C982 C988 1.368 . S
C983 C967 1.349 . S
C983 H975 0.950 . S
C983 C981 1.327 . S
C984 C972 1.349 . S
C984 H978 0.950 . S
C984 C985 1.327 . S
C985 H979 0.950 . S
C985 C984 1.327 . S
C985 C989 1.429 . S
C986 C969 1.574 . S
C986 H980 0.949 . S
C986 C990 1.368 . S
C987 C968 1.429 . S
C987 C981 1.429 . S
C987 C988 1.523 . S
C988 C969 1.368 . S
C988 C982 1.368 . S
C988 C987 1.523 . S
C989 C973 1.429 . S
C989 C985 1.429 . S
C989 C990 1.523 . S
C990 C974 1.368 . S
C990 C986 1.368 . S
C990 C989 1.523 . S
H991 C966 0.950 . S
H992 C968 0.950 . S
H993 C969 0.949 . S
H994 C971 0.950 . S
H995 C973 0.950 . S
C996 C997 1.349 . S
C996 C998 1.327 . S
C996 H1021 0.950 . S
C997 C996 1.349 . S
C997 C1013 1.349 . S
C998 C996 1.327 . S
C998 C1017 1.429 . S
C998 H1022 0.950 . S
C999 C1016 1.574 . S
C999 C1018 1.368 . S
C999 H1023 0.949 . S
H1000 C1004 0.949 . S
C1001 C1002 1.349 . S
C1001 C1003 1.327 . S
C1001 H1024 0.950 . S
C1002 C1001 1.349 . S
C1002 C1014 1.349 . S
C1003 C1001 1.327 . S
C1003 C1019 1.429 . S
C1003 H1025 0.950 . S
C1004 H1000 0.949 . S
C1004 C1012 1.574 . S
C1004 C1020 1.368 . S
H1005 C1013 0.950 . S
H1006 C1011 0.950 . S
H1007 C1012 0.949 . S
H1008 C1014 0.950 1_554 S
H1009 C1015 0.985 . S
H1010 C1016 0.949 . S
C1011 H1006 0.950 . S
C1011 C1013 1.327 . S
C1011 C1017 1.429 . S
C1012 C1004 1.574 . S
C1012 H1007 0.949 . S
C1012 C1018 1.368 . S
C1013 C997 1.349 . S
C1013 H1005 0.950 . S
C1013 C1011 1.327 . S
C1014 C1002 1.349 . S
C1014 H1008 0.950 1_556 S
C1014 C1015 1.327 . S
C1015 H1009 0.985 . S
C1015 C1014 1.327 . S
C1015 C1019 1.429 . S
C1016 C999 1.574 . S
C1016 H1010 0.949 . S
C1016 C1020 1.368 . S
C1017 C998 1.429 . S
C1017 C1011 1.429 . S
C1017 C1018 1.523 . S
C1018 C999 1.368 . S
C1018 C1012 1.368 . S
C1018 C1017 1.523 . S
C1019 C1003 1.429 . S
C1019 C1015 1.429 . S
C1019 C1020 1.523 . S
C1020 C1004 1.368 . S
C1020 C1016 1.368 . S
C1020 C1019 1.523 . S
H1021 C996 0.950 . S
H1022 C998 0.950 . S
H1023 C999 0.949 . S
H1024 C1001 0.950 . S
H1025 C1003 0.950 . S
C1026 C1027 1.349 . S
C1026 C1028 1.327 . S
C1026 H1051 0.950 . S
C1027 C1026 1.349 . S
C1027 C1043 1.349 . S
C1028 C1026 1.327 . S
C1028 C1047 1.429 . S
C1028 H1052 0.950 . S
C1029 C1046 1.574 . S
C1029 C1048 1.368 . S
C1029 H1053 0.949 . S
H1030 C1034 0.949 . S
C1031 C1032 1.349 . S
C1031 C1033 1.327 . S
C1031 H1054 0.950 . S
C1032 C1031 1.349 . S
C1032 C1044 1.349 . S
C1033 C1031 1.327 . S
C1033 C1049 1.429 . S
C1033 H1055 0.950 . S
C1034 H1030 0.949 . S
C1034 C1042 1.574 . S
C1034 C1050 1.368 . S
H1035 C1043 0.950 . S
H1036 C1041 0.950 . S
H1037 C1042 0.949 . S
H1038 C1044 0.950 . S
H1039 C1045 0.950 . S
H1040 C1046 0.949 . S
C1041 H1036 0.950 . S
C1041 C1043 1.327 . S
C1041 C1047 1.429 . S
C1042 C1034 1.574 . S
C1042 H1037 0.949 . S
C1042 C1048 1.368 . S
C1043 C1027 1.349 . S
C1043 H1035 0.950 . S
C1043 C1041 1.327 . S
C1044 C1032 1.349 . S
C1044 H1038 0.950 . S
C1044 C1045 1.327 . S
C1045 H1039 0.950 . S
C1045 C1044 1.327 . S
C1045 C1049 1.429 . S
C1046 C1029 1.574 . S
C1046 H1040 0.949 . S
C1046 C1050 1.368 . S
C1047 C1028 1.429 . S
C1047 C1041 1.429 . S
C1047 C1048 1.523 . S
C1048 C1029 1.368 . S
C1048 C1042 1.368 . S
C1048 C1047 1.523 . S
C1049 C1033 1.429 . S
C1049 C1045 1.429 . S
C1049 C1050 1.523 . S
C1050 C1034 1.368 . S
C1050 C1046 1.368 . S
C1050 C1049 1.523 . S
H1051 C1026 0.950 . S
H1052 C1028 0.950 . S
H1053 C1029 0.949 . S
H1054 C1031 0.950 . S
H1055 C1033 0.950 . S
C1056 C1057 1.349 . S
C1056 C1058 1.327 . S
C1056 H1081 0.950 . S
C1057 C1056 1.349 . S
C1057 C1073 1.349 . S
C1058 C1056 1.327 . S
C1058 C1077 1.429 . S
C1058 H1082 0.950 . S
C1059 C1076 1.574 . S
C1059 C1078 1.368 . S
C1059 H1083 0.949 . S
H1060 C1064 0.949 . S
C1061 C1062 1.349 . S
C1061 C1063 1.327 . S
C1061 H1084 0.950 . S
C1062 C1061 1.349 . S
C1062 C1074 1.349 . S
C1063 C1061 1.327 . S
C1063 C1079 1.429 . S
C1063 H1085 0.950 . S
C1064 H1060 0.949 . S
C1064 C1072 1.574 . S
C1064 C1080 1.368 . S
H1065 C1073 0.950 . S
H1066 C1071 0.950 . S
H1067 C1072 0.949 . S
H1068 C1074 0.950 . S
H1069 C1075 0.950 . S
H1070 C1076 0.949 . S
C1071 H1066 0.950 . S
C1071 C1073 1.327 . S
C1071 C1077 1.429 . S
C1072 C1064 1.574 . S
C1072 H1067 0.949 . S
C1072 C1078 1.368 . S
C1073 C1057 1.349 . S
C1073 H1065 0.950 . S
C1073 C1071 1.327 . S
C1074 C1062 1.349 . S
C1074 H1068 0.950 . S
C1074 C1075 1.327 . S
C1075 H1069 0.950 . S
C1075 C1074 1.327 . S
C1075 C1079 1.429 . S
C1076 C1059 1.574 . S
C1076 H1070 0.949 . S
C1076 C1080 1.368 . S
C1077 C1058 1.429 . S
C1077 C1071 1.429 . S
C1077 C1078 1.523 . S
C1078 C1059 1.368 . S
C1078 C1072 1.368 . S
C1078 C1077 1.523 . S
C1079 C1063 1.429 . S
C1079 C1075 1.429 . S
C1079 C1080 1.523 . S
C1080 C1064 1.368 . S
C1080 C1076 1.368 . S
C1080 C1079 1.523 . S
H1081 C1056 0.950 . S
H1082 C1058 0.950 . S
H1083 C1059 0.949 . S
H1084 C1061 0.950 . S
H1085 C1063 0.950 . S
C1086 C1087 1.349 . S
C1086 C1088 1.327 . S
C1086 H1111 0.950 . S
C1087 C1086 1.349 . S
C1087 C1103 1.349 . S
C1088 C1086 1.327 . S
C1088 C1107 1.429 . S
C1088 H1112 0.950 . S
C1089 C1106 1.574 . S
C1089 C1108 1.368 . S
C1089 H1113 0.949 . S
H1090 C1094 0.949 . S
C1091 C1092 1.349 . S
C1091 C1093 1.327 . S
C1091 H1114 0.950 1_554 S
C1092 C1091 1.349 . S
C1092 C1104 1.349 . S
C1093 C1091 1.327 . S
C1093 C1109 1.429 . S
C1093 H1115 0.950 . S
C1094 H1090 0.949 . S
C1094 C1102 1.574 . S
C1094 C1110 1.368 . S
H1095 C1103 0.950 . S
H1096 C1101 0.950 . S
H1097 C1102 0.949 . S
H1098 C1104 0.950 . S
H1099 C1105 0.950 . S
H1100 C1106 0.949 . S
C1101 H1096 0.950 . S
C1101 C1103 1.327 . S
C1101 C1107 1.429 . S
C1102 C1094 1.574 . S
C1102 H1097 0.949 . S
C1102 C1108 1.368 . S
C1103 C1087 1.349 . S
C1103 H1095 0.950 . S
C1103 C1101 1.327 . S
C1104 C1092 1.349 . S
C1104 H1098 0.950 . S
C1104 C1105 1.327 . S
C1105 H1099 0.950 . S
C1105 C1104 1.327 . S
C1105 C1109 1.429 . S
C1106 C1089 1.574 . S
C1106 H1100 0.949 . S
C1106 C1110 1.368 . S
C1107 C1088 1.429 . S
C1107 C1101 1.429 . S
C1107 C1108 1.523 . S
C1108 C1089 1.368 . S
C1108 C1102 1.368 . S
C1108 C1107 1.523 . S
C1109 C1093 1.429 . S
C1109 C1105 1.429 . S
C1109 C1110 1.523 . S
C1110 C1094 1.368 . S
C1110 C1106 1.368 . S
C1110 C1109 1.523 . S
H1111 C1086 0.950 . S
H1112 C1088 0.950 . S
H1113 C1089 0.949 . S
H1114 C1091 0.950 1_556 S
H1115 C1093 0.950 . S
C1116 C1117 1.349 . S
C1116 C1118 1.327 . S
C1116 H1141 0.950 . S
C1117 C1116 1.349 . S
C1117 C1133 1.349 . S
C1118 C1116 1.327 . S
C1118 C1137 1.429 . S
C1118 H1142 0.950 . S
C1119 C1136 1.574 . S
C1119 C1138 1.368 . S
C1119 H1143 0.949 . S
H1120 C1124 0.949 . S
C1121 C1122 1.349 . S
C1121 C1123 1.327 . S
C1121 H1144 0.950 . S
C1122 C1121 1.349 . S
C1122 C1134 1.349 . S
C1123 C1121 1.327 . S
C1123 C1139 1.429 . S
C1123 H1145 0.950 . S
C1124 H1120 0.949 . S
C1124 C1132 1.574 . S
C1124 C1140 1.368 . S
H1125 C1133 0.950 . S
H1126 C1131 0.950 . S
H1127 C1132 0.949 1_655 S
H1128 C1134 0.950 . S
H1129 C1135 0.950 . S
H1130 C1136 0.949 . S
C1131 H1126 0.950 . S
C1131 C1133 1.327 . S
C1131 C1137 1.429 . S
C1132 C1124 1.574 . S
C1132 H1127 0.949 1_455 S
C1132 C1138 1.368 . S
C1133 C1117 1.349 . S
C1133 H1125 0.950 . S
C1133 C1131 1.327 . S
C1134 C1122 1.349 . S
C1134 H1128 0.950 . S
C1134 C1135 1.327 . S
C1135 H1129 0.950 . S
C1135 C1134 1.327 . S
C1135 C1139 1.429 . S
C1136 C1119 1.574 . S
C1136 H1130 0.949 . S
C1136 C1140 1.368 . S
C1137 C1118 1.429 . S
C1137 C1131 1.429 . S
C1137 C1138 1.523 1_655 S
C1138 C1119 1.368 . S
C1138 C1132 1.368 . S
C1138 C1137 1.523 1_455 S
C1139 C1123 1.429 . S
C1139 C1135 1.429 . S
C1139 C1140 1.523 . S
C1140 C1124 1.368 . S
C1140 C1136 1.368 . S
C1140 C1139 1.523 . S
H1141 C1116 0.950 . S
H1142 C1118 0.950 . S
H1143 C1119 0.949 . S
H1144 C1121 0.950 . S
H1145 C1123 0.950 . S
C1146 C1147 1.349 . S
C1146 C1148 1.327 . S
C1146 H1171 0.950 . S
C1147 C1146 1.349 . S
C1147 C1163 1.349 . S
C1148 C1146 1.327 . S
C1148 C1167 1.429 . S
C1148 H1172 0.950 . S
C1149 C1166 1.574 . S
C1149 C1168 1.368 . S
C1149 H1173 0.949 . S
H1150 C1154 0.949 . S
C1151 C1152 1.349 . S
C1151 C1153 1.327 . S
C1151 H1174 0.950 . S
C1152 C1151 1.349 . S
C1152 C1164 1.349 . S
C1153 C1151 1.327 . S
C1153 C1169 1.429 . S
C1153 H1175 0.950 . S
C1154 H1150 0.949 . S
C1154 C1162 1.574 . S
C1154 C1170 1.368 . S
H1155 C1163 0.950 . S
H1156 C1161 0.950 . S
H1157 C1162 0.949 . S
H1158 C1164 0.950 . S
H1159 C1165 0.950 . S
H1160 C1166 0.949 . S
C1161 H1156 0.950 . S
C1161 C1163 1.327 . S
C1161 C1167 1.429 . S
C1162 C1154 1.574 . S
C1162 H1157 0.949 . S
C1162 C1168 1.368 . S
C1163 C1147 1.349 . S
C1163 H1155 0.950 . S
C1163 C1161 1.327 . S
C1164 C1152 1.349 . S
C1164 H1158 0.950 . S
C1164 C1165 1.327 . S
C1165 H1159 0.950 . S
C1165 C1164 1.327 . S
C1165 C1169 1.429 . S
C1166 C1149 1.574 . S
C1166 H1160 0.949 . S
C1166 C1170 1.368 . S
C1167 C1148 1.429 . S
C1167 C1161 1.429 . S
C1167 C1168 1.523 . S
C1168 C1149 1.368 . S
C1168 C1162 1.368 . S
C1168 C1167 1.523 . S
C1169 C1153 1.429 . S
C1169 C1165 1.429 . S
C1169 C1170 1.523 . S
C1170 C1154 1.368 . S
C1170 C1166 1.368 . S
C1170 C1169 1.523 . S
H1171 C1146 0.950 . S
H1172 C1148 0.950 . S
H1173 C1149 0.949 . S
H1174 C1151 0.950 . S
H1175 C1153 0.950 . S
C1176 C1177 1.349 . S
C1176 C1178 1.327 . S
C1176 H1201 0.950 . S
C1177 C1176 1.349 . S
C1177 C1193 1.349 . S
C1178 C1176 1.327 . S
C1178 C1197 1.429 . S
C1178 H1202 0.950 . S
C1179 C1196 1.574 . S
C1179 C1198 1.364 1_565 S
C1179 H1203 0.949 . S
H1180 C1184 0.949 . S
C1181 C1182 1.349 . S
C1181 C1183 1.327 . S
C1181 H1204 0.950 . S
C1182 C1181 1.349 . S
C1182 C1194 1.349 . S
C1183 C1181 1.327 . S
C1183 C1199 1.429 . S
C1183 H1205 0.950 . S
C1184 H1180 0.949 . S
C1184 C1192 1.574 . S
C1184 C1200 1.368 . S
H1185 C1193 0.950 . S
H1186 C1191 0.950 . S
H1187 C1192 0.949 1_545 S
H1188 C1194 0.950 . S
H1189 C1195 0.950 . S
H1190 C1196 0.949 . S
C1191 H1186 0.950 . S
C1191 C1193 1.327 . S
C1191 C1197 1.429 . S
C1192 C1184 1.574 . S
C1192 H1187 0.949 1_565 S
C1192 C1198 1.361 1_565 S
C1193 C1177 1.349 . S
C1193 H1185 0.950 . S
C1193 C1191 1.327 . S
C1194 C1182 1.349 . S
C1194 H1188 0.950 . S
C1194 C1195 1.327 . S
C1195 H1189 0.950 . S
C1195 C1194 1.327 . S
C1195 C1199 1.429 . S
C1196 C1179 1.574 . S
C1196 H1190 0.949 . S
C1196 C1200 1.368 . S
C1197 C1178 1.429 . S
C1197 C1191 1.429 . S
C1197 C1198 1.538 . S
C1198 C1179 1.364 1_545 S
C1198 C1192 1.361 1_545 S
C1198 C1197 1.538 . S
C1199 C1183 1.429 . S
C1199 C1195 1.429 . S
C1199 C1200 1.523 . S
C1200 C1184 1.368 . S
C1200 C1196 1.368 . S
C1200 C1199 1.523 . S
H1201 C1176 0.950 . S
H1202 C1178 0.950 . S
H1203 C1179 0.949 . S
H1204 C1181 0.950 . S
H1205 C1183 0.950 . S
C1206 C1207 1.349 . S
C1206 C1208 1.327 . S
C1206 H1231 0.950 . S
C1207 C1206 1.349 . S
C1207 C1223 1.349 . S
C1208 C1206 1.327 . S
C1208 C1227 1.429 . S
C1208 H1232 0.950 . S
C1209 C1226 1.574 . S
C1209 C1228 1.368 . S
C1209 H1233 0.949 . S
H1210 C1214 0.949 . S
C1211 C1212 1.349 . S
C1211 C1213 1.327 . S
C1211 H1234 0.950 . S
C1212 C1211 1.349 . S
C1212 C1224 1.349 . S
C1213 C1211 1.327 . S
C1213 C1229 1.429 . S
C1213 H1235 0.950 . S
C1214 H1210 0.949 . S
C1214 C1222 1.574 . S
C1214 C1230 1.368 . S
H1215 C1223 0.950 . S
H1216 C1221 0.950 . S
H1217 C1222 0.949 . S
H1218 C1224 0.950 . S
H1219 C1225 0.950 . S
H1220 C1226 0.949 . S
C1221 H1216 0.950 . S
C1221 C1223 1.327 . S
C1221 C1227 1.429 . S
C1222 C1214 1.574 . S
C1222 H1217 0.949 . S
C1222 C1228 1.368 . S
C1223 C1207 1.349 . S
C1223 H1215 0.950 . S
C1223 C1221 1.327 . S
C1224 C1212 1.349 . S
C1224 H1218 0.950 . S
C1224 C1225 1.327 . S
C1225 H1219 0.950 . S
C1225 C1224 1.327 . S
C1225 C1229 1.429 . S
C1226 C1209 1.574 . S
C1226 H1220 0.949 . S
C1226 C1230 1.368 . S
C1227 C1208 1.429 . S
C1227 C1221 1.429 . S
C1227 C1228 1.523 . S
C1228 C1209 1.368 . S
C1228 C1222 1.368 . S
C1228 C1227 1.523 . S
C1229 C1213 1.429 . S
C1229 C1225 1.429 . S
C1229 C1230 1.523 . S
C1230 C1214 1.368 . S
C1230 C1226 1.368 . S
C1230 C1229 1.523 . S
H1231 C1206 0.950 . S
H1232 C1208 0.950 . S
H1233 C1209 0.949 . S
H1234 C1211 0.950 . S
H1235 C1213 0.950 . S
C1236 C1237 1.349 . S
C1236 C1238 1.327 . S
C1236 H1261 0.950 . S
C1237 C1236 1.349 . S
C1237 C1253 1.349 . S
C1238 C1236 1.327 . S
C1238 C1257 1.429 . S
C1238 H1262 0.950 . S
C1239 C1256 1.574 . S
C1239 C1258 1.368 . S
C1239 H1263 0.949 . S
H1240 C1244 0.949 . S
C1241 C1242 1.349 . S
C1241 C1243 1.327 . S
C1241 H1264 0.950 . S
C1242 C1241 1.349 . S
C1242 C1254 1.349 . S
C1243 C1241 1.327 . S
C1243 C1259 1.429 . S
C1243 H1265 0.950 . S
C1244 H1240 0.949 . S
C1244 C1252 1.574 . S
C1244 C1260 1.368 . S
H1245 C1253 0.950 . S
H1246 C1251 0.950 . S
H1247 C1252 0.949 . S
H1248 C1254 0.950 . S
H1249 C1255 0.950 . S
H1250 C1256 0.949 . S
C1251 H1246 0.950 . S
C1251 C1253 1.327 . S
C1251 C1257 1.429 . S
C1252 C1244 1.574 . S
C1252 H1247 0.949 . S
C1252 C1258 1.368 . S
C1253 C1237 1.349 . S
C1253 H1245 0.950 . S
C1253 C1251 1.327 . S
C1254 C1242 1.349 . S
C1254 H1248 0.950 . S
C1254 C1255 1.327 . S
C1255 H1249 0.950 . S
C1255 C1254 1.327 . S
C1255 C1259 1.429 . S
C1256 C1239 1.574 . S
C1256 H1250 0.949 . S
C1256 C1260 1.368 . S
C1257 C1238 1.429 . S
C1257 C1251 1.429 . S
C1257 C1258 1.523 . S
C1258 C1239 1.368 . S
C1258 C1252 1.368 . S
C1258 C1257 1.523 . S
C1259 C1243 1.429 . S
C1259 C1255 1.429 . S
C1259 C1260 1.523 . S
C1260 C1244 1.368 . S
C1260 C1256 1.368 . S
C1260 C1259 1.523 . S
H1261 C1236 0.950 . S
H1262 C1238 0.950 . S
H1263 C1239 0.949 . S
H1264 C1241 0.950 . S
H1265 C1243 0.950 . S
C1266 C1267 1.349 . S
C1266 C1268 1.327 . S
C1266 H1291 0.950 . S
C1267 C1266 1.349 . S
C1267 C1283 1.349 . S
C1268 C1266 1.327 . S
C1268 C1287 1.429 . S
C1268 H1292 0.950 . S
C1269 C1286 1.574 . S
C1269 C1288 1.368 . S
C1269 H1293 0.949 . S
H1270 C1274 0.949 . S
C1271 C1272 1.349 . S
C1271 C1273 1.327 . S
C1271 H1294 0.950 . S
C1272 C1271 1.349 . S
C1272 C1284 1.349 . S
C1273 C1271 1.327 . S
C1273 C1289 1.429 . S
C1273 H1295 0.950 . S
C1274 H1270 0.949 . S
C1274 C1282 1.574 . S
C1274 C1290 1.368 . S
H1275 C1283 0.950 . S
H1276 C1281 0.950 . S
H1277 C1282 0.949 . S
H1278 C1284 0.950 . S
H1279 C1285 0.950 . S
H1280 C1286 0.949 . S
C1281 H1276 0.950 . S
C1281 C1283 1.327 . S
C1281 C1287 1.429 . S
C1282 C1274 1.574 . S
C1282 H1277 0.949 . S
C1282 C1288 1.368 . S
C1283 C1267 1.349 . S
C1283 H1275 0.950 . S
C1283 C1281 1.327 . S
C1284 C1272 1.349 . S
C1284 H1278 0.950 . S
C1284 C1285 1.327 . S
C1285 H1279 0.950 . S
C1285 C1284 1.327 . S
C1285 C1289 1.429 . S
C1286 C1269 1.574 . S
C1286 H1280 0.949 . S
C1286 C1290 1.368 . S
C1287 C1268 1.429 . S
C1287 C1281 1.429 . S
C1287 C1288 1.523 . S
C1288 C1269 1.368 . S
C1288 C1282 1.368 . S
C1288 C1287 1.523 . S
C1289 C1273 1.429 . S
C1289 C1285 1.429 . S
C1289 C1290 1.523 . S
C1290 C1274 1.368 . S
C1290 C1286 1.368 . S
C1290 C1289 1.523 . S
H1291 C1266 0.950 . S
H1292 C1268 0.950 . S
H1293 C1269 0.949 . S
H1294 C1271 0.950 . S
H1295 C1273 0.950 . S
C1296 C1297 1.349 . S
C1296 C1298 1.327 . S
C1296 H1321 0.950 . S
C1297 C1296 1.349 . S
C1297 C1313 1.349 . S
C1298 C1296 1.327 . S
C1298 C1317 1.429 . S
C1298 H1322 0.950 . S
C1299 C1316 1.574 . S
C1299 C1318 1.368 . S
C1299 H1323 0.949 . S
H1300 C1304 0.949 . S
C1301 C1302 1.349 . S
C1301 C1303 1.327 . S
C1301 H1324 0.950 . S
C1302 C1301 1.349 . S
C1302 C1314 1.349 . S
C1303 C1301 1.327 . S
C1303 C1319 1.429 . S
C1303 H1325 0.950 . S
C1304 H1300 0.949 . S
C1304 C1312 1.574 . S
C1304 C1320 1.368 . S
H1305 C1313 0.950 . S
H1306 C1311 0.950 . S
H1307 C1312 0.949 . S
H1308 C1314 0.950 . S
H1309 C1315 0.950 . S
H1310 C1316 0.949 . S
C1311 H1306 0.950 . S
C1311 C1313 1.327 . S
C1311 C1317 1.429 . S
C1312 C1304 1.574 . S
C1312 H1307 0.949 . S
C1312 C1318 1.368 . S
C1313 C1297 1.349 . S
C1313 H1305 0.950 . S
C1313 C1311 1.327 . S
C1314 C1302 1.349 . S
C1314 H1308 0.950 . S
C1314 C1315 1.327 . S
C1315 H1309 0.950 . S
C1315 C1314 1.327 . S
C1315 C1319 1.429 . S
C1316 C1299 1.574 . S
C1316 H1310 0.949 . S
C1316 C1320 1.368 . S
C1317 C1298 1.429 . S
C1317 C1311 1.429 . S
C1317 C1318 1.523 . S
C1318 C1299 1.368 . S
C1318 C1312 1.368 . S
C1318 C1317 1.523 . S
C1319 C1303 1.429 . S
C1319 C1315 1.429 . S
C1319 C1320 1.523 . S
C1320 C1304 1.368 . S
C1320 C1316 1.368 . S
C1320 C1319 1.523 . S
H1321 C1296 0.950 . S
H1322 C1298 0.950 . S
H1323 C1299 0.949 . S
H1324 C1301 0.950 . S
H1325 C1303 0.950 . S
C1326 C1327 1.349 . S
C1326 C1328 1.327 . S
C1326 H1351 0.950 . S
C1327 C1326 1.349 . S
C1327 C1343 1.349 . S
C1328 C1326 1.327 . S
C1328 C1347 1.429 . S
C1328 H1352 0.950 . S
C1329 C1346 1.574 . S
C1329 C1348 1.368 . S
C1329 H1353 0.949 . S
H1330 C1334 0.949 . S
C1331 C1332 1.349 . S
C1331 C1333 1.327 . S
C1331 H1354 0.950 . S
C1332 C1331 1.349 . S
C1332 C1344 1.349 . S
C1333 C1331 1.327 . S
C1333 C1349 1.429 . S
C1333 H1355 0.950 . S
C1334 H1330 0.949 . S
C1334 C1342 1.574 . S
C1334 C1350 1.368 . S
H1335 C1343 0.950 . S
H1336 C1341 0.950 . S
H1337 C1342 0.949 . S
H1338 C1344 0.950 . S
H1339 C1345 0.950 . S
H1340 C1346 0.949 . S
C1341 H1336 0.950 . S
C1341 C1343 1.327 . S
C1341 C1347 1.429 . S
C1342 C1334 1.574 . S
C1342 H1337 0.949 . S
C1342 C1348 1.368 . S
C1343 C1327 1.349 . S
C1343 H1335 0.950 . S
C1343 C1341 1.327 . S
C1344 C1332 1.349 . S
C1344 H1338 0.950 . S
C1344 C1345 1.327 . S
C1345 H1339 0.950 . S
C1345 C1344 1.327 . S
C1345 C1349 1.429 . S
C1346 C1329 1.574 . S
C1346 H1340 0.949 . S
C1346 C1350 1.368 . S
C1347 C1328 1.429 . S
C1347 C1341 1.429 . S
C1347 C1348 1.523 . S
C1348 C1329 1.368 . S
C1348 C1342 1.368 . S
C1348 C1347 1.523 . S
C1349 C1333 1.429 . S
C1349 C1345 1.429 . S
C1349 C1350 1.523 . S
C1350 C1334 1.368 . S
C1350 C1346 1.368 . S
C1350 C1349 1.523 . S
H1351 C1326 0.950 . S
H1352 C1328 0.950 . S
H1353 C1329 0.949 . S
H1354 C1331 0.950 . S
H1355 C1333 0.950 . S
C1356 C1357 1.349 . S
C1356 C1358 1.327 . S
C1356 H1381 0.950 . S
C1357 C1356 1.349 . S
C1357 C1373 1.349 . S
C1358 C1356 1.327 . S
C1358 C1377 1.429 . S
C1358 H1382 0.950 . S
C1359 C1376 1.574 . S
C1359 C1378 1.368 . S
C1359 H1383 0.949 . S
H1360 C1364 0.949 . S
C1361 C1362 1.349 . S
C1361 C1363 1.327 . S
C1361 H1384 0.950 . S
C1362 C1361 1.349 . S
C1362 C1374 1.349 . S
C1363 C1361 1.327 . S
C1363 C1379 1.429 . S
C1363 H1385 0.950 . S
C1364 H1360 0.949 . S
C1364 C1372 1.574 . S
C1364 C1380 1.368 . S
H1365 C1373 0.950 . S
H1366 C1371 0.950 . S
H1367 C1372 0.949 . S
H1368 C1374 0.950 . S
H1369 C1375 0.950 . S
H1370 C1376 0.949 . S
C1371 H1366 0.950 . S
C1371 C1373 1.327 . S
C1371 C1377 1.429 . S
C1372 C1364 1.574 . S
C1372 H1367 0.949 . S
C1372 C1378 1.368 . S
C1373 C1357 1.349 . S
C1373 H1365 0.950 . S
C1373 C1371 1.327 . S
C1374 C1362 1.349 . S
C1374 H1368 0.950 . S
C1374 C1375 1.327 . S
C1375 H1369 0.950 . S
C1375 C1374 1.327 . S
C1375 C1379 1.429 . S
C1376 C1359 1.574 . S
C1376 H1370 0.949 . S
C1376 C1380 1.368 . S
C1377 C1358 1.429 . S
C1377 C1371 1.429 . S
C1377 C1378 1.523 . S
C1378 C1359 1.368 . S
C1378 C1372 1.368 . S
C1378 C1377 1.523 . S
C1379 C1363 1.429 . S
C1379 C1375 1.429 . S
C1379 C1380 1.523 . S
C1380 C1364 1.368 . S
C1380 C1376 1.368 . S
C1380 C1379 1.523 . S
H1381 C1356 0.950 . S
H1382 C1358 0.950 . S
H1383 C1359 0.949 . S
H1384 C1361 0.950 . S
H1385 C1363 0.950 . S
C1386 C1387 1.349 . S
C1386 C1388 1.327 . S
C1386 H1411 0.950 . S
C1387 C1386 1.349 . S
C1387 C1403 1.349 . S
C1388 C1386 1.327 . S
C1388 C1407 1.429 . S
C1388 H1412 0.950 . S
C1389 C1406 1.574 . S
C1389 C1408 1.368 . S
C1389 H1413 0.949 . S
H1390 C1394 0.949 . S
C1391 C1392 1.349 . S
C1391 C1393 1.327 . S
C1391 H1414 0.950 . S
C1392 C1391 1.349 . S
C1392 C1404 1.349 . S
C1393 C1391 1.327 . S
C1393 C1409 1.429 . S
C1393 H1415 0.950 . S
C1394 H1390 0.949 . S
C1394 C1402 1.574 . S
C1394 C1410 1.368 . S
H1395 C1403 0.950 . S
H1396 C1401 0.950 . S
H1397 C1402 0.949 . S
H1398 C1404 0.950 . S
H1399 C1405 0.950 . S
H1400 C1406 0.949 . S
C1401 H1396 0.950 . S
C1401 C1403 1.327 . S
C1401 C1407 1.429 . S
C1402 C1394 1.574 . S
C1402 H1397 0.949 . S
C1402 C1408 1.368 . S
C1403 C1387 1.349 . S
C1403 H1395 0.950 . S
C1403 C1401 1.327 . S
C1404 C1392 1.349 . S
C1404 H1398 0.950 . S
C1404 C1405 1.327 . S
C1405 H1399 0.950 . S
C1405 C1404 1.327 . S
C1405 C1409 1.429 . S
C1406 C1389 1.574 . S
C1406 H1400 0.949 . S
C1406 C1410 1.368 . S
C1407 C1388 1.429 . S
C1407 C1401 1.429 . S
C1407 C1408 1.523 1_545 S
C1408 C1389 1.368 . S
C1408 C1402 1.368 . S
C1408 C1407 1.523 1_565 S
C1409 C1393 1.429 . S
C1409 C1405 1.429 . S
C1409 C1410 1.523 . S
C1410 C1394 1.368 . S
C1410 C1406 1.368 . S
C1410 C1409 1.523 . S
H1411 C1386 0.950 . S
H1412 C1388 0.950 . S
H1413 C1389 0.949 . S
H1414 C1391 0.950 . S
H1415 C1393 0.950 . S
C1416 C1417 1.349 . S
C1416 C1418 1.327 . S
C1416 H1441 0.950 . S
C1417 C1416 1.349 . S
C1417 C1433 1.349 . S
C1418 C1416 1.327 . S
C1418 C1437 1.429 . S
C1418 H1442 0.950 . S
C1419 C1436 1.574 . S
C1419 C1438 1.368 . S
C1419 H1443 0.949 . S
H1420 C1424 0.949 . S
C1421 C1422 1.349 . S
C1421 C1423 1.327 . S
C1421 H1444 0.950 . S
C1422 C1421 1.349 . S
C1422 C1434 1.349 . S
C1423 C1421 1.327 . S
C1423 C1439 1.429 . S
C1423 H1445 0.950 . S
C1424 H1420 0.949 . S
C1424 C1432 1.574 . S
C1424 C1440 1.368 . S
H1425 C1433 0.950 . S
H1426 C1431 0.950 1_455 S
H1427 C1432 0.949 1_655 S
H1428 C1434 0.950 . S
H1429 C1435 0.950 . S
H1430 C1436 0.949 . S
C1431 H1426 0.950 1_655 S
C1431 C1433 1.327 . S
C1431 C1437 1.429 . S
C1432 C1424 1.574 . S
C1432 H1427 0.949 1_455 S
C1432 C1438 1.368 . S
C1433 C1417 1.349 . S
C1433 H1425 0.950 . S
C1433 C1431 1.327 . S
C1434 C1422 1.349 . S
C1434 H1428 0.950 . S
C1434 C1435 1.327 . S
C1435 H1429 0.950 . S
C1435 C1434 1.327 . S
C1435 C1439 1.429 . S
C1436 C1419 1.574 . S
C1436 H1430 0.949 . S
C1436 C1440 1.368 . S
C1437 C1418 1.429 . S
C1437 C1431 1.429 . S
C1437 C1438 1.523 1_655 S
C1438 C1419 1.368 . S
C1438 C1432 1.368 . S
C1438 C1437 1.523 1_455 S
C1439 C1423 1.429 . S
C1439 C1435 1.429 . S
C1439 C1440 1.523 . S
C1440 C1424 1.368 . S
C1440 C1436 1.368 . S
C1440 C1439 1.523 . S
H1441 C1416 0.950 . S
H1442 C1418 0.950 . S
H1443 C1419 0.949 . S
H1444 C1421 0.950 . S
H1445 C1423 0.950 . S
C1446 C1447 1.349 . S
C1446 C1448 1.327 . S
C1446 H1471 0.950 . S
C1447 C1446 1.349 . S
C1447 C1463 1.349 . S
C1448 C1446 1.327 . S
C1448 C1467 1.429 . S
C1448 H1472 0.950 . S
C1449 C1466 1.574 . S
C1449 C1468 1.368 . S
C1449 H1473 0.949 . S
H1450 C1454 0.949 . S
C1451 C1452 1.349 . S
C1451 C1453 1.327 . S
C1451 H1474 0.950 . S
C1452 C1451 1.349 . S
C1452 C1464 1.349 . S
C1453 C1451 1.327 . S
C1453 C1469 1.429 . S
C1453 H1475 0.950 . S
C1454 H1450 0.949 . S
C1454 C1462 1.574 . S
C1454 C1470 1.368 . S
H1455 C1463 0.950 . S
H1456 C1461 0.950 . S
H1457 C1462 0.949 . S
H1458 C1464 0.950 . S
H1459 C1465 0.950 . S
H1460 C1466 0.949 . S
C1461 H1456 0.950 . S
C1461 C1463 1.327 . S
C1461 C1467 1.429 . S
C1462 C1454 1.574 . S
C1462 H1457 0.949 . S
C1462 C1468 1.368 . S
C1463 C1447 1.349 . S
C1463 H1455 0.950 . S
C1463 C1461 1.327 . S
C1464 C1452 1.349 . S
C1464 H1458 0.950 . S
C1464 C1465 1.327 . S
C1465 H1459 0.950 . S
C1465 C1464 1.327 . S
C1465 C1469 1.429 . S
C1466 C1449 1.574 . S
C1466 H1460 0.949 . S
C1466 C1470 1.368 . S
C1467 C1448 1.429 . S
C1467 C1461 1.429 . S
C1467 C1468 1.523 . S
C1468 C1449 1.368 . S
C1468 C1462 1.368 . S
C1468 C1467 1.523 . S
C1469 C1453 1.429 . S
C1469 C1465 1.429 . S
C1469 C1470 1.523 . S
C1470 C1454 1.368 . S
C1470 C1466 1.368 . S
C1470 C1469 1.523 . S
H1471 C1446 0.950 . S
H1472 C1448 0.950 . S
H1473 C1449 0.949 . S
H1474 C1451 0.950 . S
H1475 C1453 0.950 . S
C1476 C1477 1.349 . S
C1476 C1478 1.327 . S
C1476 H1501 0.950 . S
C1477 C1476 1.349 . S
C1477 C1493 1.349 . S
C1478 C1476 1.327 . S
C1478 C1497 1.429 . S
C1478 H1502 0.950 . S
C1479 C1496 1.574 . S
C1479 C1498 1.368 . S
C1479 H1503 0.949 . S
H1480 C1484 0.949 . S
C1481 C1482 1.349 . S
C1481 C1483 1.327 . S
C1481 H1504 0.950 . S
C1482 C1481 1.349 . S
C1482 C1494 1.349 . S
C1483 C1481 1.327 . S
C1483 C1499 1.429 . S
C1483 H1505 0.950 . S
C1484 H1480 0.949 . S
C1484 C1492 1.574 . S
C1484 C1500 1.368 . S
H1485 C1493 0.950 . S
H1486 C1491 0.950 . S
H1487 C1492 0.949 . S
H1488 C1494 0.950 . S
H1489 C1495 0.950 . S
H1490 C1496 0.949 . S
C1491 H1486 0.950 . S
C1491 C1493 1.327 . S
C1491 C1497 1.429 . S
C1492 C1484 1.574 . S
C1492 H1487 0.949 . S
C1492 C1498 1.368 . S
C1493 C1477 1.349 . S
C1493 H1485 0.950 . S
C1493 C1491 1.327 . S
C1494 C1482 1.349 . S
C1494 H1488 0.950 . S
C1494 C1495 1.327 . S
C1495 H1489 0.950 . S
C1495 C1494 1.327 . S
C1495 C1499 1.429 . S
C1496 C1479 1.574 . S
C1496 H1490 0.949 . S
C1496 C1500 1.368 . S
C1497 C1478 1.429 . S
C1497 C1491 1.429 . S
C1497 C1498 1.523 . S
C1498 C1479 1.368 . S
C1498 C1492 1.368 . S
C1498 C1497 1.523 . S
C1499 C1483 1.429 . S
C1499 C1495 1.429 . S
C1499 C1500 1.523 . S
C1500 C1484 1.368 . S
C1500 C1496 1.368 . S
C1500 C1499 1.523 . S
H1501 C1476 0.950 . S
H1502 C1478 0.950 . S
H1503 C1479 0.949 . S
H1504 C1481 0.950 . S
H1505 C1483 0.950 . S
C1506 C1507 1.349 . S
C1506 C1508 1.327 . S
C1506 H1531 0.950 . S
C1507 C1506 1.349 . S
C1507 C1523 1.349 . S
C1508 C1506 1.327 . S
C1508 C1527 1.429 . S
C1508 H1532 0.950 . S
C1509 C1526 1.574 . S
C1509 C1528 1.368 . S
C1509 H1533 0.949 . S
H1510 C1514 0.949 . S
C1511 C1512 1.349 . S
C1511 C1513 1.327 . S
C1511 H1534 0.950 . S
C1512 C1511 1.349 . S
C1512 C1524 1.349 . S
C1513 C1511 1.327 . S
C1513 C1529 1.429 . S
C1513 H1535 0.950 . S
C1514 H1510 0.949 . S
C1514 C1522 1.574 . S
C1514 C1530 1.368 . S
H1515 C1523 0.950 . S
H1516 C1521 0.950 . S
H1517 C1522 0.949 . S
H1518 C1524 0.950 . S
H1519 C1525 0.950 . S
H1520 C1526 0.949 . S
C1521 H1516 0.950 . S
C1521 C1523 1.327 . S
C1521 C1527 1.429 . S
C1522 C1514 1.574 . S
C1522 H1517 0.949 . S
C1522 C1528 1.368 . S
C1523 C1507 1.349 . S
C1523 H1515 0.950 . S
C1523 C1521 1.327 . S
C1524 C1512 1.349 . S
C1524 H1518 0.950 . S
C1524 C1525 1.327 . S
C1525 H1519 0.950 . S
C1525 C1524 1.327 . S
C1525 C1529 1.429 . S
C1526 C1509 1.574 . S
C1526 H1520 0.949 . S
C1526 C1530 1.368 . S
C1527 C1508 1.429 . S
C1527 C1521 1.429 . S
C1527 C1528 1.523 . S
C1528 C1509 1.368 . S
C1528 C1522 1.368 . S
C1528 C1527 1.523 . S
C1529 C1513 1.429 . S
C1529 C1525 1.429 . S
C1529 C1530 1.523 . S
C1530 C1514 1.368 . S
C1530 C1526 1.368 . S
C1530 C1529 1.523 . S
H1531 C1506 0.950 . S
H1532 C1508 0.950 . S
H1533 C1509 0.949 . S
H1534 C1511 0.950 . S
H1535 C1513 0.950 . S
C1536 C1537 1.349 . S
C1536 C1538 1.327 . S
C1536 H1561 0.950 . S
C1537 C1536 1.349 . S
C1537 C1553 1.349 . S
C1538 C1536 1.327 . S
C1538 C1557 1.429 . S
C1538 H1562 0.950 . S
C1539 C1556 1.574 . S
C1539 C1558 1.368 . S
C1539 H1563 0.949 . S
H1540 C1544 0.949 . S
C1541 C1542 1.349 . S
C1541 C1543 1.327 . S
C1541 H1564 0.950 . S
C1542 C1541 1.349 . S
C1542 C1554 1.349 . S
C1543 C1541 1.327 . S
C1543 C1559 1.429 . S
C1543 H1565 0.950 . S
C1544 H1540 0.949 . S
C1544 C1552 1.574 . S
C1544 C1560 1.368 . S
H1545 C1553 0.950 . S
H1546 C1551 0.950 . S
H1547 C1552 0.949 . S
H1548 C1554 0.950 . S
H1549 C1555 0.950 . S
H1550 C1556 0.949 . S
C1551 H1546 0.950 . S
C1551 C1553 1.327 . S
C1551 C1557 1.429 . S
C1552 C1544 1.574 . S
C1552 H1547 0.949 . S
C1552 C1558 1.368 . S
C1553 C1537 1.349 . S
C1553 H1545 0.950 . S
C1553 C1551 1.327 . S
C1554 C1542 1.349 . S
C1554 H1548 0.950 . S
C1554 C1555 1.327 . S
C1555 H1549 0.950 . S
C1555 C1554 1.327 . S
C1555 C1559 1.429 . S
C1556 C1539 1.574 . S
C1556 H1550 0.949 . S
C1556 C1560 1.368 . S
C1557 C1538 1.429 . S
C1557 C1551 1.429 . S
C1557 C1558 1.523 . S
C1558 C1539 1.368 . S
C1558 C1552 1.368 . S
C1558 C1557 1.523 . S
C1559 C1543 1.429 . S
C1559 C1555 1.429 . S
C1559 C1560 1.523 . S
C1560 C1544 1.368 . S
C1560 C1556 1.368 . S
C1560 C1559 1.523 . S
H1561 C1536 0.950 . S
H1562 C1538 0.950 . S
H1563 C1539 0.949 . S
H1564 C1541 0.950 . S
H1565 C1543 0.950 . S
C1566 C1567 1.349 . S
C1566 C1568 1.327 . S
C1566 H1591 0.950 . S
C1567 C1566 1.349 . S
C1567 C1583 1.349 . S
C1568 C1566 1.327 . S
C1568 C1587 1.429 . S
C1568 H1592 0.950 . S
C1569 C1586 1.574 . S
C1569 C1588 1.368 . S
C1569 H1593 0.949 . S
H1570 C1574 0.949 . S
C1571 C1572 1.349 . S
C1571 C1573 1.327 . S
C1571 H1594 0.950 . S
C1572 C1571 1.349 . S
C1572 C1584 1.349 . S
C1573 C1571 1.327 . S
C1573 C1589 1.429 . S
C1573 H1595 0.950 . S
C1574 H1570 0.949 . S
C1574 C1582 1.574 . S
C1574 C1590 1.368 . S
H1575 C1583 0.950 . S
H1576 C1581 0.950 . S
H1577 C1582 0.949 1_565 S
H1578 C1584 0.950 . S
H1579 C1585 0.950 . S
H1580 C1586 0.949 . S
C1581 H1576 0.950 . S
C1581 C1583 1.327 . S
C1581 C1587 1.429 . S
C1582 C1574 1.574 . S
C1582 H1577 0.949 1_545 S
C1582 C1588 1.368 . S
C1583 C1567 1.349 . S
C1583 H1575 0.950 . S
C1583 C1581 1.327 . S
C1584 C1572 1.349 . S
C1584 H1578 0.950 . S
C1584 C1585 1.327 . S
C1585 H1579 0.950 . S
C1585 C1584 1.327 . S
C1585 C1589 1.429 . S
C1586 C1569 1.574 . S
C1586 H1580 0.949 . S
C1586 C1590 1.368 . S
C1587 C1568 1.429 . S
C1587 C1581 1.429 . S
C1587 C1588 1.523 1_565 S
C1588 C1569 1.368 . S
C1588 C1582 1.368 . S
C1588 C1587 1.523 1_545 S
C1589 C1573 1.429 . S
C1589 C1585 1.429 . S
C1589 C1590 1.523 . S
C1590 C1574 1.368 . S
C1590 C1586 1.368 . S
C1590 C1589 1.523 . S
H1591 C1566 0.950 . S
H1592 C1568 0.950 . S
H1593 C1569 0.949 . S
H1594 C1571 0.950 . S
H1595 C1573 0.950 . S
C1596 C1597 1.349 . S
C1596 C1598 1.327 . S
C1596 H1621 0.950 . S
C1597 C1596 1.349 . S
C1597 C1613 1.349 . S
C1598 C1596 1.327 . S
C1598 C1617 1.429 . S
C1598 H1622 0.950 . S
C1599 C1616 1.574 . S
C1599 C1618 1.368 . S
C1599 H1623 0.949 . S
H1600 C1604 0.949 . S
C1601 C1602 1.349 . S
C1601 C1603 1.327 . S
C1601 H1624 0.950 . S
C1602 C1601 1.349 . S
C1602 C1614 1.349 . S
C1603 C1601 1.327 . S
C1603 C1619 1.429 . S
C1603 H1625 0.950 . S
C1604 H1600 0.949 . S
C1604 C1612 1.574 . S
C1604 C1620 1.368 . S
H1605 C1613 0.950 . S
H1606 C1611 0.950 . S
H1607 C1612 0.949 . S
H1608 C1614 0.950 . S
H1609 C1615 0.950 . S
H1610 C1616 0.949 . S
C1611 H1606 0.950 . S
C1611 C1613 1.327 . S
C1611 C1617 1.429 . S
C1612 C1604 1.574 . S
C1612 H1607 0.949 . S
C1612 C1618 1.368 . S
C1613 C1597 1.349 . S
C1613 H1605 0.950 . S
C1613 C1611 1.327 . S
C1614 C1602 1.349 . S
C1614 H1608 0.950 . S
C1614 C1615 1.327 . S
C1615 H1609 0.950 . S
C1615 C1614 1.327 . S
C1615 C1619 1.429 . S
C1616 C1599 1.574 . S
C1616 H1610 0.949 . S
C1616 C1620 1.368 . S
C1617 C1598 1.429 . S
C1617 C1611 1.429 . S
C1617 C1618 1.523 1_455 S
C1618 C1599 1.368 . S
C1618 C1612 1.368 . S
C1618 C1617 1.523 1_655 S
C1619 C1603 1.429 . S
C1619 C1615 1.429 . S
C1619 C1620 1.523 . S
C1620 C1604 1.368 . S
C1620 C1616 1.368 . S
C1620 C1619 1.523 . S
H1621 C1596 0.950 . S
H1622 C1598 0.950 . S
H1623 C1599 0.949 . S
H1624 C1601 0.950 . S
H1625 C1603 0.950 . S
C1626 C1627 1.349 . S
C1626 C1628 1.327 . S
C1626 H1651 0.950 . S
C1627 C1626 1.349 . S
C1627 C1643 1.349 . S
C1628 C1626 1.327 . S
C1628 C1647 1.429 . S
C1628 H1652 0.950 . S
C1629 C1646 1.574 . S
C1629 C1648 1.368 . S
C1629 H1653 0.949 . S
H1630 C1634 0.949 . S
C1631 C1632 1.349 . S
C1631 C1633 1.327 . S
C1631 H1654 0.950 . S
C1632 C1631 1.349 . S
C1632 C1644 1.349 . S
C1633 C1631 1.327 . S
C1633 C1649 1.429 . S
C1633 H1655 0.950 . S
C1634 H1630 0.949 . S
C1634 C1642 1.574 . S
C1634 C1650 1.368 . S
H1635 C1643 0.950 . S
H1636 C1641 0.950 . S
H1637 C1642 0.949 . S
H1638 C1644 0.950 . S
H1639 C1645 0.950 . S
H1640 C1646 0.949 . S
C1641 H1636 0.950 . S
C1641 C1643 1.327 . S
C1641 C1647 1.429 . S
C1642 C1634 1.574 . S
C1642 H1637 0.949 . S
C1642 C1648 1.368 . S
C1643 C1627 1.349 . S
C1643 H1635 0.950 . S
C1643 C1641 1.327 . S
C1644 C1632 1.349 . S
C1644 H1638 0.950 . S
C1644 C1645 1.327 . S
C1645 H1639 0.950 . S
C1645 C1644 1.327 . S
C1645 C1649 1.429 . S
C1646 C1629 1.574 . S
C1646 H1640 0.949 . S
C1646 C1650 1.368 . S
C1647 C1628 1.429 . S
C1647 C1641 1.429 . S
C1647 C1648 1.523 . S
C1648 C1629 1.368 . S
C1648 C1642 1.368 . S
C1648 C1647 1.523 . S
C1649 C1633 1.429 . S
C1649 C1645 1.429 . S
C1649 C1650 1.523 . S
C1650 C1634 1.368 . S
C1650 C1646 1.368 . S
C1650 C1649 1.523 . S
H1651 C1626 0.950 . S
H1652 C1628 0.950 . S
H1653 C1629 0.949 . S
H1654 C1631 0.950 . S
H1655 C1633 0.950 . S
C1656 C1657 1.349 . S
C1656 C1658 1.327 . S
C1656 H1681 0.950 . S
C1657 C1656 1.349 . S
C1657 C1673 1.349 . S
C1658 C1656 1.327 . S
C1658 C1677 1.429 . S
C1658 H1682 0.950 . S
C1659 C1676 1.574 . S
C1659 C1678 1.373 1_655 S
C1659 H1683 0.949 1_655 S
H1660 C1664 0.949 . S
C1661 C1662 1.349 . S
C1661 C1663 1.327 . S
C1661 H1684 0.950 . S
C1662 C1661 1.349 . S
C1662 C1674 1.349 . S
C1663 C1661 1.327 . S
C1663 C1679 1.429 . S
C1663 H1685 0.950 . S
C1664 H1660 0.949 . S
C1664 C1672 1.574 . S
C1664 C1680 1.368 . S
H1665 C1673 0.950 . S
H1666 C1671 0.950 . S
H1667 C1672 0.949 . S
H1668 C1674 0.950 . S
H1669 C1675 0.950 . S
H1670 C1676 0.949 . S
C1671 H1666 0.950 . S
C1671 C1673 1.327 . S
C1671 C1677 1.429 . S
C1672 C1664 1.574 . S
C1672 H1667 0.949 . S
C1672 C1678 1.354 1_655 S
C1673 C1657 1.349 . S
C1673 H1665 0.950 . S
C1673 C1671 1.327 . S
C1674 C1662 1.349 . S
C1674 H1668 0.950 . S
C1674 C1675 1.327 . S
C1675 H1669 0.950 . S
C1675 C1674 1.327 . S
C1675 C1679 1.429 . S
C1676 C1659 1.574 . S
C1676 H1670 0.949 . S
C1676 C1680 1.368 . S
C1677 C1658 1.429 . S
C1677 C1671 1.429 . S
C1677 C1678 1.536 . S
C1678 C1659 1.373 1_455 S
C1678 C1672 1.354 1_455 S
C1678 C1677 1.536 . S
C1679 C1663 1.429 . S
C1679 C1675 1.429 . S
C1679 C1680 1.523 . S
C1680 C1664 1.368 . S
C1680 C1676 1.368 . S
C1680 C1679 1.523 . S
H1681 C1656 0.950 . S
H1682 C1658 0.950 . S
H1683 C1659 0.949 1_455 S
H1684 C1661 0.950 . S
H1685 C1663 0.950 . S
C1686 C1687 1.349 . S
C1686 C1688 1.327 . S
C1686 H1711 0.950 . S
C1687 C1686 1.349 . S
C1687 C1703 1.349 . S
C1688 C1686 1.327 . S
C1688 C1707 1.429 . S
C1688 H1712 0.950 . S
C1689 C1706 1.574 . S
C1689 C1708 1.368 . S
C1689 H1713 0.949 . S
H1690 C1694 0.949 . S
C1691 C1692 1.349 . S
C1691 C1693 1.327 . S
C1691 H1714 0.950 . S
C1692 C1691 1.349 . S
C1692 C1704 1.349 . S
C1693 C1691 1.327 . S
C1693 C1709 1.429 . S
C1693 H1715 0.950 . S
C1694 H1690 0.949 . S
C1694 C1702 1.574 . S
C1694 C1710 1.368 . S
H1695 C1703 0.950 . S
H1696 C1701 0.950 . S
H1697 C1702 0.949 . S
H1698 C1704 0.950 . S
H1699 C1705 0.950 . S
H1700 C1706 0.949 . S
C1701 H1696 0.950 . S
C1701 C1703 1.327 . S
C1701 C1707 1.429 . S
C1702 C1694 1.574 . S
C1702 H1697 0.949 . S
C1702 C1708 1.368 . S
C1703 C1687 1.349 . S
C1703 H1695 0.950 . S
C1703 C1701 1.327 . S
C1704 C1692 1.349 . S
C1704 H1698 0.950 . S
C1704 C1705 1.327 . S
C1705 H1699 0.950 . S
C1705 C1704 1.327 . S
C1705 C1709 1.429 . S
C1706 C1689 1.574 . S
C1706 H1700 0.949 . S
C1706 C1710 1.368 . S
C1707 C1688 1.429 . S
C1707 C1701 1.429 . S
C1707 C1708 1.523 . S
C1708 C1689 1.368 . S
C1708 C1702 1.368 . S
C1708 C1707 1.523 . S
C1709 C1693 1.429 . S
C1709 C1705 1.429 . S
C1709 C1710 1.523 . S
C1710 C1694 1.368 . S
C1710 C1706 1.368 . S
C1710 C1709 1.523 . S
H1711 C1686 0.950 . S
H1712 C1688 0.950 . S
H1713 C1689 0.949 . S
H1714 C1691 0.950 . S
H1715 C1693 0.950 . S
C1716 C1717 1.349 . S
C1716 C1718 1.327 . S
C1716 H1741 0.950 . S
C1717 C1716 1.349 . S
C1717 C1733 1.349 . S
C1718 C1716 1.327 . S
C1718 C1737 1.429 . S
C1718 H1742 0.950 . S
C1719 C1736 1.574 . S
C1719 C1738 1.368 . S
C1719 H1743 0.949 . S
H1720 C1724 0.949 . S
C1721 C1722 1.349 . S
C1721 C1723 1.327 . S
C1721 H1744 0.950 . S
C1722 C1721 1.349 . S
C1722 C1734 1.349 . S
C1723 C1721 1.327 . S
C1723 C1739 1.429 . S
C1723 H1745 0.950 . S
C1724 H1720 0.949 . S
C1724 C1732 1.574 . S
C1724 C1740 1.368 . S
H1725 C1733 0.950 . S
H1726 C1731 0.950 . S
H1727 C1732 0.949 . S
H1728 C1734 0.950 . S
H1729 C1735 0.950 . S
H1730 C1736 0.949 . S
C1731 H1726 0.950 . S
C1731 C1733 1.327 . S
C1731 C1737 1.429 . S
C1732 C1724 1.574 . S
C1732 H1727 0.949 . S
C1732 C1738 1.368 . S
C1733 C1717 1.349 . S
C1733 H1725 0.950 . S
C1733 C1731 1.327 . S
C1734 C1722 1.349 . S
C1734 H1728 0.950 . S
C1734 C1735 1.327 . S
C1735 H1729 0.950 . S
C1735 C1734 1.327 . S
C1735 C1739 1.429 . S
C1736 C1719 1.574 . S
C1736 H1730 0.949 . S
C1736 C1740 1.368 . S
C1737 C1718 1.429 . S
C1737 C1731 1.429 . S
C1737 C1738 1.523 1_565 S
C1738 C1719 1.368 . S
C1738 C1732 1.368 . S
C1738 C1737 1.523 1_545 S
C1739 C1723 1.429 . S
C1739 C1735 1.429 . S
C1739 C1740 1.523 . S
C1740 C1724 1.368 . S
C1740 C1736 1.368 . S
C1740 C1739 1.523 . S
H1741 C1716 0.950 . S
H1742 C1718 0.950 . S
H1743 C1719 0.949 . S
H1744 C1721 0.950 . S
H1745 C1723 0.950 . S
C1746 C1747 1.349 . S
C1746 C1748 1.327 . S
C1746 H1771 0.950 . S
C1747 C1746 1.349 . S
C1747 C1763 1.349 . S
C1748 C1746 1.327 . S
C1748 C1767 1.429 . S
C1748 H1772 0.950 . S
C1749 C1766 1.574 . S
C1749 C1768 1.368 . S
C1749 H1773 0.949 . S
H1750 C1754 0.949 . S
C1751 C1752 1.349 . S
C1751 C1753 1.327 . S
C1751 H1774 0.950 . S
C1752 C1751 1.349 . S
C1752 C1764 1.349 . S
C1753 C1751 1.327 . S
C1753 C1769 1.429 . S
C1753 H1775 0.950 . S
C1754 H1750 0.949 . S
C1754 C1762 1.574 . S
C1754 C1770 1.368 . S
H1755 C1763 0.950 . S
H1756 C1761 0.950 . S
H1757 C1762 0.949 . S
H1758 C1764 0.950 . S
H1759 C1765 0.950 . S
H1760 C1766 0.949 . S
C1761 H1756 0.950 . S
C1761 C1763 1.327 . S
C1761 C1767 1.429 . S
C1762 C1754 1.574 . S
C1762 H1757 0.949 . S
C1762 C1768 1.368 . S
C1763 C1747 1.349 . S
C1763 H1755 0.950 . S
C1763 C1761 1.327 . S
C1764 C1752 1.349 . S
C1764 H1758 0.950 . S
C1764 C1765 1.327 . S
C1765 H1759 0.950 . S
C1765 C1764 1.327 . S
C1765 C1769 1.429 . S
C1766 C1749 1.574 . S
C1766 H1760 0.949 . S
C1766 C1770 1.368 . S
C1767 C1748 1.429 . S
C1767 C1761 1.429 . S
C1767 C1768 1.523 . S
C1768 C1749 1.368 . S
C1768 C1762 1.368 . S
C1768 C1767 1.523 . S
C1769 C1753 1.429 . S
C1769 C1765 1.429 . S
C1769 C1770 1.523 . S
C1770 C1754 1.368 . S
C1770 C1766 1.368 . S
C1770 C1769 1.523 . S
H1771 C1746 0.950 . S
H1772 C1748 0.950 . S
H1773 C1749 0.949 . S
H1774 C1751 0.950 . S
H1775 C1753 0.950 . S
C1776 C1777 1.349 . S
C1776 C1778 1.327 . S
C1776 H1801 0.950 . S
C1777 C1776 1.349 . S
C1777 C1793 1.349 . S
C1778 C1776 1.327 . S
C1778 C1797 1.429 . S
C1778 H1802 0.950 . S
C1779 C1796 1.574 . S
C1779 C1798 1.368 . S
C1779 H1803 0.949 . S
H1780 C1784 0.949 . S
C1781 C1782 1.349 . S
C1781 C1783 1.327 . S
C1781 H1804 0.950 . S
C1782 C1781 1.349 . S
C1782 C1794 1.349 . S
C1783 C1781 1.327 . S
C1783 C1799 1.429 . S
C1783 H1805 0.950 . S
C1784 H1780 0.949 . S
C1784 C1792 1.574 . S
C1784 C1800 1.368 . S
H1785 C1793 0.950 . S
H1786 C1791 0.950 . S
H1787 C1792 0.949 . S
H1788 C1794 0.950 . S
H1789 C1795 0.950 . S
H1790 C1796 0.949 . S
C1791 H1786 0.950 . S
C1791 C1793 1.327 . S
C1791 C1797 1.429 . S
C1792 C1784 1.574 . S
C1792 H1787 0.949 . S
C1792 C1798 1.368 . S
C1793 C1777 1.349 . S
C1793 H1785 0.950 . S
C1793 C1791 1.327 . S
C1794 C1782 1.349 . S
C1794 H1788 0.950 . S
C1794 C1795 1.327 . S
C1795 H1789 0.950 . S
C1795 C1794 1.327 . S
C1795 C1799 1.429 . S
C1796 C1779 1.574 . S
C1796 H1790 0.949 . S
C1796 C1800 1.368 . S
C1797 C1778 1.429 . S
C1797 C1791 1.429 . S
C1797 C1798 1.523 . S
C1798 C1779 1.368 . S
C1798 C1792 1.368 . S
C1798 C1797 1.523 . S
C1799 C1783 1.429 . S
C1799 C1795 1.429 . S
C1799 C1800 1.523 . S
C1800 C1784 1.368 . S
C1800 C1796 1.368 . S
C1800 C1799 1.523 . S
H1801 C1776 0.950 . S
H1802 C1778 0.950 . S
H1803 C1779 0.949 . S
H1804 C1781 0.950 . S
H1805 C1783 0.950 . S
C1806 C1807 1.349 . S
C1806 C1808 1.327 . S
C1806 H1831 0.950 . S
C1807 C1806 1.349 . S
C1807 C1823 1.349 . S
C1808 C1806 1.327 . S
C1808 C1827 1.429 . S
C1808 H1832 0.950 . S
C1809 C1826 1.574 . S
C1809 C1828 1.368 . S
C1809 H1833 0.949 . S
H1810 C1814 0.949 . S
C1811 C1812 1.349 . S
C1811 C1813 1.327 . S
C1811 H1834 0.950 . S
C1812 C1811 1.349 . S
C1812 C1824 1.349 . S
C1813 C1811 1.327 . S
C1813 C1829 1.429 . S
C1813 H1835 0.950 . S
C1814 H1810 0.949 . S
C1814 C1822 1.574 . S
C1814 C1830 1.368 . S
H1815 C1823 0.950 . S
H1816 C1821 0.950 . S
H1817 C1822 0.949 . S
H1818 C1824 0.950 . S
H1819 C1825 0.950 . S
H1820 C1826 0.949 . S
C1821 H1816 0.950 . S
C1821 C1823 1.327 . S
C1821 C1827 1.429 . S
C1822 C1814 1.574 . S
C1822 H1817 0.949 . S
C1822 C1828 1.368 . S
C1823 C1807 1.349 . S
C1823 H1815 0.950 . S
C1823 C1821 1.327 . S
C1824 C1812 1.349 . S
C1824 H1818 0.950 . S
C1824 C1825 1.327 . S
C1825 H1819 0.950 . S
C1825 C1824 1.327 . S
C1825 C1829 1.429 . S
C1826 C1809 1.574 . S
C1826 H1820 0.949 . S
C1826 C1830 1.368 . S
C1827 C1808 1.429 . S
C1827 C1821 1.429 . S
C1827 C1828 1.523 . S
C1828 C1809 1.368 . S
C1828 C1822 1.368 . S
C1828 C1827 1.523 . S
C1829 C1813 1.429 . S
C1829 C1825 1.429 . S
C1829 C1830 1.523 . S
C1830 C1814 1.368 . S
C1830 C1826 1.368 . S
C1830 C1829 1.523 . S
H1831 C1806 0.950 . S
H1832 C1808 0.950 . S
H1833 C1809 0.949 . S
H1834 C1811 0.950 . S
H1835 C1813 0.950 . S
C1836 C1837 1.349 . S
C1836 C1838 1.327 . S
C1836 H1861 0.950 . S
C1837 C1836 1.349 . S
C1837 C1853 1.349 . S
C1838 C1836 1.327 . S
C1838 C1857 1.429 . S
C1838 H1862 0.950 . S
C1839 C1856 1.574 . S
C1839 C1858 1.368 . S
C1839 H1863 0.949 . S
H1840 C1844 0.949 . S
C1841 C1842 1.349 . S
C1841 C1843 1.327 . S
C1841 H1864 0.950 . S
C1842 C1841 1.349 . S
C1842 C1854 1.349 1_565 S
C1843 C1841 1.327 . S
C1843 C1859 1.429 . S
C1843 H1865 0.950 . S
C1844 H1840 0.949 . S
C1844 C1852 1.574 . S
C1844 C1860 1.368 . S
H1845 C1853 0.950 . S
H1846 C1851 0.950 . S
H1847 C1852 0.949 . S
H1848 C1854 0.950 . S
H1849 C1855 0.950 1_545 S
H1850 C1856 0.949 . S
C1851 H1846 0.950 . S
C1851 C1853 1.327 . S
C1851 C1857 1.429 . S
C1852 C1844 1.574 . S
C1852 H1847 0.949 . S
C1852 C1858 1.368 . S
C1853 C1837 1.349 . S
C1853 H1845 0.950 . S
C1853 C1851 1.327 . S
C1854 C1842 1.349 1_545 S
C1854 H1848 0.950 . S
C1854 C1855 1.327 1_545 S
C1855 H1849 0.950 1_565 S
C1855 C1854 1.327 1_565 S
C1855 C1859 1.429 . S
C1856 C1839 1.574 . S
C1856 H1850 0.949 . S
C1856 C1860 1.368 . S
C1857 C1838 1.429 . S
C1857 C1851 1.429 . S
C1857 C1858 1.523 . S
C1858 C1839 1.368 . S
C1858 C1852 1.368 . S
C1858 C1857 1.523 . S
C1859 C1843 1.429 . S
C1859 C1855 1.429 . S
C1859 C1860 1.523 . S
C1860 C1844 1.368 . S
C1860 C1856 1.368 . S
C1860 C1859 1.523 . S
H1861 C1836 0.950 . S
H1862 C1838 0.950 . S
H1863 C1839 0.949 . S
H1864 C1841 0.950 . S
H1865 C1843 0.950 . S
C1866 C1867 1.349 . S
C1866 C1868 1.327 . S
C1866 H1891 0.950 . S
C1867 C1866 1.349 . S
C1867 C1883 1.349 . S
C1868 C1866 1.327 . S
C1868 C1887 1.429 . S
C1868 H1892 0.950 . S
C1869 C1886 1.574 . S
C1869 C1888 1.368 . S
C1869 H1893 0.949 . S
H1870 C1874 0.949 . S
C1871 C1872 1.321 1_655 S
C1871 C1873 1.322 1_655 S
C1871 H1894 0.988 . S
C1872 C1871 1.321 1_455 S
C1872 C1884 1.349 . S
C1873 C1871 1.322 1_455 S
C1873 C1889 1.429 . S
C1873 H1895 0.950 1_455 S
C1874 H1870 0.949 . S
C1874 C1882 1.574 . S
C1874 C1890 1.368 . S
H1875 C1883 0.950 . S
H1876 C1881 0.950 . S
H1877 C1882 0.949 . S
H1878 C1884 0.950 . S
H1879 C1885 0.950 . S
H1880 C1886 0.949 1_655 S
C1881 H1876 0.950 . S
C1881 C1883 1.327 . S
C1881 C1887 1.429 . S
C1882 C1874 1.574 . S
C1882 H1877 0.949 . S
C1882 C1888 1.368 . S
C1883 C1867 1.349 . S
C1883 H1875 0.950 . S
C1883 C1881 1.327 . S
C1884 C1872 1.349 . S
C1884 H1878 0.950 . S
C1884 C1885 1.327 . S
C1885 H1879 0.950 . S
C1885 C1884 1.327 . S
C1885 C1889 1.429 . S
C1886 C1869 1.574 . S
C1886 H1880 0.949 1_455 S
C1886 C1890 1.368 . S
C1887 C1868 1.429 . S
C1887 C1881 1.429 . S
C1887 C1888 1.523 . S
C1888 C1869 1.368 . S
C1888 C1882 1.368 . S
C1888 C1887 1.523 . S
C1889 C1873 1.429 . S
C1889 C1885 1.429 . S
C1889 C1890 1.523 . S
C1890 C1874 1.368 . S
C1890 C1886 1.368 . S
C1890 C1889 1.523 . S
H1891 C1866 0.950 . S
H1892 C1868 0.950 . S
H1893 C1869 0.949 . S
H1894 C1871 0.988 . S
H1895 C1873 0.950 1_655 S
C1896 C1897 1.349 . S
C1896 C1898 1.327 . S
C1896 H1921 0.950 . S
C1897 C1896 1.349 . S
C1897 C1913 1.349 . S
C1898 C1896 1.327 . S
C1898 C1917 1.429 . S
C1898 H1922 0.950 . S
C1899 C1916 1.574 . S
C1899 C1918 1.368 . S
C1899 H1923 0.949 . S
H1900 C1904 0.949 . S
C1901 C1902 1.349 . S
C1901 C1903 1.327 . S
C1901 H1924 0.950 . S
C1902 C1901 1.349 . S
C1902 C1914 1.349 . S
C1903 C1901 1.327 . S
C1903 C1919 1.429 . S
C1903 H1925 0.950 . S
C1904 H1900 0.949 . S
C1904 C1912 1.574 . S
C1904 C1920 1.368 . S
H1905 C1913 0.950 . S
H1906 C1911 0.950 . S
H1907 C1912 0.949 . S
H1908 C1914 0.950 . S
H1909 C1915 0.950 . S
H1910 C1916 0.949 . S
C1911 H1906 0.950 . S
C1911 C1913 1.327 . S
C1911 C1917 1.429 . S
C1912 C1904 1.574 . S
C1912 H1907 0.949 . S
C1912 C1918 1.368 . S
C1913 C1897 1.349 . S
C1913 H1905 0.950 . S
C1913 C1911 1.327 . S
C1914 C1902 1.349 . S
C1914 H1908 0.950 . S
C1914 C1915 1.327 . S
C1915 H1909 0.950 . S
C1915 C1914 1.327 . S
C1915 C1919 1.429 . S
C1916 C1899 1.574 . S
C1916 H1910 0.949 . S
C1916 C1920 1.368 . S
C1917 C1898 1.429 . S
C1917 C1911 1.429 . S
C1917 C1918 1.523 . S
C1918 C1899 1.368 . S
C1918 C1912 1.368 . S
C1918 C1917 1.523 . S
C1919 C1903 1.429 . S
C1919 C1915 1.429 . S
C1919 C1920 1.523 . S
C1920 C1904 1.368 . S
C1920 C1916 1.368 . S
C1920 C1919 1.523 . S
H1921 C1896 0.950 . S
H1922 C1898 0.950 . S
H1923 C1899 0.949 . S
H1924 C1901 0.950 . S
H1925 C1903 0.950 . S
C1926 C1927 1.349 . S
C1926 C1928 1.327 . S
C1926 H1951 0.950 . S
C1927 C1926 1.349 . S
C1927 C1943 1.349 . S
C1928 C1926 1.327 . S
C1928 C1947 1.429 . S
C1928 H1952 0.950 . S
C1929 C1946 1.574 . S
C1929 C1948 1.368 . S
C1929 H1953 0.949 . S
H1930 C1934 0.949 . S
C1931 C1932 1.349 . S
C1931 C1933 1.327 . S
C1931 H1954 0.950 . S
C1932 C1931 1.349 . S
C1932 C1944 1.349 . S
C1933 C1931 1.327 . S
C1933 C1949 1.429 . S
C1933 H1955 0.950 . S
C1934 H1930 0.949 . S
C1934 C1942 1.574 . S
C1934 C1950 1.368 . S
H1935 C1943 0.950 . S
H1936 C1941 0.950 . S
H1937 C1942 0.949 . S
H1938 C1944 0.950 . S
H1939 C1945 0.950 . S
H1940 C1946 0.949 . S
C1941 H1936 0.950 . S
C1941 C1943 1.327 . S
C1941 C1947 1.429 . S
C1942 C1934 1.574 . S
C1942 H1937 0.949 . S
C1942 C1948 1.368 . S
C1943 C1927 1.349 . S
C1943 H1935 0.950 . S
C1943 C1941 1.327 . S
C1944 C1932 1.349 . S
C1944 H1938 0.950 . S
C1944 C1945 1.327 . S
C1945 H1939 0.950 . S
C1945 C1944 1.327 . S
C1945 C1949 1.429 . S
C1946 C1929 1.574 . S
C1946 H1940 0.949 . S
C1946 C1950 1.368 . S
C1947 C1928 1.429 . S
C1947 C1941 1.429 . S
C1947 C1948 1.523 . S
C1948 C1929 1.368 . S
C1948 C1942 1.368 . S
C1948 C1947 1.523 . S
C1949 C1933 1.429 . S
C1949 C1945 1.429 . S
C1949 C1950 1.523 . S
C1950 C1934 1.368 . S
C1950 C1946 1.368 . S
C1950 C1949 1.523 . S
H1951 C1926 0.950 . S
H1952 C1928 0.950 . S
H1953 C1929 0.949 . S
H1954 C1931 0.950 . S
H1955 C1933 0.950 . S
C1956 C1957 1.349 . S
C1956 C1958 1.327 . S
C1956 H1981 0.950 . S
C1957 C1956 1.349 . S
C1957 C1973 1.349 . S
C1958 C1956 1.327 . S
C1958 C1977 1.429 . S
C1958 H1982 0.950 . S
C1959 C1976 1.574 . S
C1959 C1978 1.368 . S
C1959 H1983 0.949 . S
H1960 C1964 0.949 . S
C1961 C1962 1.349 . S
C1961 C1963 1.327 . S
C1961 H1984 0.950 . S
C1962 C1961 1.349 . S
C1962 C1974 1.349 . S
C1963 C1961 1.327 . S
C1963 C1979 1.429 . S
C1963 H1985 0.950 . S
C1964 H1960 0.949 . S
C1964 C1972 1.574 . S
C1964 C1980 1.368 . S
H1965 C1973 0.950 . S
H1966 C1971 0.950 . S
H1967 C1972 0.949 . S
H1968 C1974 0.950 . S
H1969 C1975 0.950 . S
H1970 C1976 0.949 . S
C1971 H1966 0.950 . S
C1971 C1973 1.327 . S
C1971 C1977 1.429 . S
C1972 C1964 1.574 . S
C1972 H1967 0.949 . S
C1972 C1978 1.368 . S
C1973 C1957 1.349 . S
C1973 H1965 0.950 . S
C1973 C1971 1.327 . S
C1974 C1962 1.349 . S
C1974 H1968 0.950 . S
C1974 C1975 1.327 . S
C1975 H1969 0.950 . S
C1975 C1974 1.327 . S
C1975 C1979 1.429 . S
C1976 C1959 1.574 . S
C1976 H1970 0.949 . S
C1976 C1980 1.368 . S
C1977 C1958 1.429 . S
C1977 C1971 1.429 . S
C1977 C1978 1.523 . S
C1978 C1959 1.368 . S
C1978 C1972 1.368 . S
C1978 C1977 1.523 . S
C1979 C1963 1.429 . S
C1979 C1975 1.429 . S
C1979 C1980 1.523 . S
C1980 C1964 1.368 . S
C1980 C1976 1.368 . S
C1980 C1979 1.523 . S
H1981 C1956 0.950 . S
H1982 C1958 0.950 . S
H1983 C1959 0.949 . S
H1984 C1961 0.950 . S
H1985 C1963 0.950 . S
C1986 C1987 1.349 . S
C1986 C1988 1.327 . S
C1986 H2011 0.950 . S
C1987 C1986 1.349 . S
C1987 C2003 1.349 . S
C1988 C1986 1.327 . S
C1988 C2007 1.429 . S
C1988 H2012 0.950 . S
C1989 C2006 1.574 . S
C1989 C2008 1.368 . S
C1989 H2013 0.949 . S
H1990 C1994 0.949 . S
C1991 C1992 1.349 1_565 S
C1991 C1993 1.330 . S
C1991 H2014 0.950 . S
C1992 C1991 1.349 1_545 S
C1992 C2004 1.349 . S
C1993 C1991 1.330 . S
C1993 C2009 1.420 1_565 S
C1993 H2015 0.956 . S
C1994 H1990 0.949 . S
C1994 C2002 1.574 . S
C1994 C2010 1.368 . S
H1995 C2003 0.950 . S
H1996 C2001 0.950 . S
H1997 C2002 0.949 . S
H1998 C2004 0.950 . S
H1999 C2005 0.950 . S
H2000 C2006 0.949 1_565 S
C2001 H1996 0.950 . S
C2001 C2003 1.327 . S
C2001 C2007 1.429 . S
C2002 C1994 1.574 . S
C2002 H1997 0.949 . S
C2002 C2008 1.368 . S
C2003 C1987 1.349 . S
C2003 H1995 0.950 . S
C2003 C2001 1.327 . S
C2004 C1992 1.349 . S
C2004 H1998 0.950 . S
C2004 C2005 1.327 . S
C2005 H1999 0.950 . S
C2005 C2004 1.327 . S
C2005 C2009 1.429 . S
C2006 C1989 1.574 . S
C2006 H2000 0.949 1_545 S
C2006 C2010 1.368 . S
C2007 C1988 1.429 . S
C2007 C2001 1.429 . S
C2007 C2008 1.523 . S
C2008 C1989 1.368 . S
C2008 C2002 1.368 . S
C2008 C2007 1.523 . S
C2009 C1993 1.420 1_545 S
C2009 C2005 1.429 . S
C2009 C2010 1.523 . S
C2010 C1994 1.368 . S
C2010 C2006 1.368 . S
C2010 C2009 1.523 . S
H2011 C1986 0.950 . S
H2012 C1988 0.950 . S
H2013 C1989 0.949 . S
H2014 C1991 0.950 . S
H2015 C1993 0.956 . S
C2016 C2017 1.349 . S
C2016 C2018 1.327 . S
C2016 H2041 0.950 . S
C2017 C2016 1.349 . S
C2017 C2033 1.349 . S
C2018 C2016 1.327 . S
C2018 C2037 1.429 . S
C2018 H2042 0.950 . S
C2019 C2036 1.574 . S
C2019 C2038 1.368 . S
C2019 H2043 0.949 . S
H2020 C2024 0.949 . S
C2021 C2022 1.349 . S
C2021 C2023 1.327 . S
C2021 H2044 0.950 . S
C2022 C2021 1.349 . S
C2022 C2034 1.349 . S
C2023 C2021 1.327 . S
C2023 C2039 1.429 . S
C2023 H2045 0.950 . S
C2024 H2020 0.949 . S
C2024 C2032 1.574 . S
C2024 C2040 1.368 . S
H2025 C2033 0.950 . S
H2026 C2031 0.950 . S
H2027 C2032 0.949 . S
H2028 C2034 0.950 . S
H2029 C2035 0.950 . S
H2030 C2036 0.949 . S
C2031 H2026 0.950 . S
C2031 C2033 1.327 . S
C2031 C2037 1.429 . S
C2032 C2024 1.574 . S
C2032 H2027 0.949 . S
C2032 C2038 1.368 . S
C2033 C2017 1.349 . S
C2033 H2025 0.950 . S
C2033 C2031 1.327 . S
C2034 C2022 1.349 . S
C2034 H2028 0.950 . S
C2034 C2035 1.327 . S
C2035 H2029 0.950 . S
C2035 C2034 1.327 . S
C2035 C2039 1.429 . S
C2036 C2019 1.574 . S
C2036 H2030 0.949 . S
C2036 C2040 1.368 . S
C2037 C2018 1.429 . S
C2037 C2031 1.429 . S
C2037 C2038 1.523 . S
C2038 C2019 1.368 . S
C2038 C2032 1.368 . S
C2038 C2037 1.523 . S
C2039 C2023 1.429 . S
C2039 C2035 1.429 . S
C2039 C2040 1.523 . S
C2040 C2024 1.368 . S
C2040 C2036 1.368 . S
C2040 C2039 1.523 . S
H2041 C2016 0.950 . S
H2042 C2018 0.950 . S
H2043 C2019 0.949 . S
H2044 C2021 0.950 . S
H2045 C2023 0.950 . S
C2046 C2047 1.349 . S
C2046 C2048 1.327 . S
C2046 H2071 0.950 . S
C2047 C2046 1.349 . S
C2047 C2063 1.349 . S
C2048 C2046 1.327 . S
C2048 C2067 1.429 . S
C2048 H2072 0.950 . S
C2049 C2066 1.574 . S
C2049 C2068 1.368 . S
C2049 H2073 0.949 . S
H2050 C2054 0.949 . S
C2051 C2052 1.349 . S
C2051 C2053 1.327 . S
C2051 H2074 0.950 . S
C2052 C2051 1.349 . S
C2052 C2064 1.349 . S
C2053 C2051 1.327 . S
C2053 C2069 1.429 . S
C2053 H2075 0.950 . S
C2054 H2050 0.949 . S
C2054 C2062 1.574 . S
C2054 C2070 1.368 . S
H2055 C2063 0.950 . S
H2056 C2061 0.950 . S
H2057 C2062 0.949 . S
H2058 C2064 0.950 . S
H2059 C2065 0.950 . S
H2060 C2066 0.949 . S
C2061 H2056 0.950 . S
C2061 C2063 1.327 . S
C2061 C2067 1.429 . S
C2062 C2054 1.574 . S
C2062 H2057 0.949 . S
C2062 C2068 1.368 . S
C2063 C2047 1.349 . S
C2063 H2055 0.950 . S
C2063 C2061 1.327 . S
C2064 C2052 1.349 . S
C2064 H2058 0.950 . S
C2064 C2065 1.327 . S
C2065 H2059 0.950 . S
C2065 C2064 1.327 . S
C2065 C2069 1.429 . S
C2066 C2049 1.574 . S
C2066 H2060 0.949 . S
C2066 C2070 1.368 . S
C2067 C2048 1.429 . S
C2067 C2061 1.429 . S
C2067 C2068 1.523 . S
C2068 C2049 1.368 . S
C2068 C2062 1.368 . S
C2068 C2067 1.523 . S
C2069 C2053 1.429 . S
C2069 C2065 1.429 . S
C2069 C2070 1.523 . S
C2070 C2054 1.368 . S
C2070 C2066 1.368 . S
C2070 C2069 1.523 . S
H2071 C2046 0.950 . S
H2072 C2048 0.950 . S
H2073 C2049 0.949 . S
H2074 C2051 0.950 . S
H2075 C2053 0.950 . S
C2076 C2077 1.349 . S
C2076 C2078 1.327 . S
C2076 H2101 0.950 . S
C2077 C2076 1.349 . S
C2077 C2093 1.349 . S
C2078 C2076 1.327 . S
C2078 C2097 1.429 . S
C2078 H2102 0.950 . S
C2079 C2096 1.574 . S
C2079 C2098 1.368 . S
C2079 H2103 0.949 . S
H2080 C2084 0.949 . S
C2081 C2082 1.349 . S
C2081 C2083 1.327 . S
C2081 H2104 0.950 . S
C2082 C2081 1.349 . S
C2082 C2094 1.349 . S
C2083 C2081 1.327 . S
C2083 C2099 1.429 . S
C2083 H2105 0.950 . S
C2084 H2080 0.949 . S
C2084 C2092 1.574 . S
C2084 C2100 1.368 . S
H2085 C2093 0.950 . S
H2086 C2091 0.950 . S
H2087 C2092 0.949 . S
H2088 C2094 0.950 . S
H2089 C2095 0.950 . S
H2090 C2096 0.949 . S
C2091 H2086 0.950 . S
C2091 C2093 1.327 . S
C2091 C2097 1.429 . S
C2092 C2084 1.574 . S
C2092 H2087 0.949 . S
C2092 C2098 1.368 . S
C2093 C2077 1.349 . S
C2093 H2085 0.950 . S
C2093 C2091 1.327 . S
C2094 C2082 1.349 . S
C2094 H2088 0.950 . S
C2094 C2095 1.327 . S
C2095 H2089 0.950 . S
C2095 C2094 1.327 . S
C2095 C2099 1.429 . S
C2096 C2079 1.574 . S
C2096 H2090 0.949 . S
C2096 C2100 1.368 . S
C2097 C2078 1.429 . S
C2097 C2091 1.429 . S
C2097 C2098 1.523 . S
C2098 C2079 1.368 . S
C2098 C2092 1.368 . S
C2098 C2097 1.523 . S
C2099 C2083 1.429 . S
C2099 C2095 1.429 . S
C2099 C2100 1.523 . S
C2100 C2084 1.368 . S
C2100 C2096 1.368 . S
C2100 C2099 1.523 . S
H2101 C2076 0.950 . S
H2102 C2078 0.950 . S
H2103 C2079 0.949 . S
H2104 C2081 0.950 . S
H2105 C2083 0.950 . S
C2106 C2107 1.349 . S
C2106 C2108 1.327 . S
C2106 H2131 0.950 . S
C2107 C2106 1.349 . S
C2107 C2123 1.349 . S
C2108 C2106 1.327 . S
C2108 C2127 1.429 . S
C2108 H2132 0.950 . S
C2109 C2126 1.574 . S
C2109 C2128 1.368 . S
C2109 H2133 0.949 . S
H2110 C2114 0.949 . S
C2111 C2112 1.349 . S
C2111 C2113 1.327 . S
C2111 H2134 0.950 . S
C2112 C2111 1.349 . S
C2112 C2124 1.349 . S
C2113 C2111 1.327 . S
C2113 C2129 1.429 . S
C2113 H2135 0.950 . S
C2114 H2110 0.949 . S
C2114 C2122 1.574 . S
C2114 C2130 1.368 . S
H2115 C2123 0.950 . S
H2116 C2121 0.950 . S
H2117 C2122 0.949 . S
H2118 C2124 0.950 . S
H2119 C2125 0.950 . S
H2120 C2126 0.949 . S
C2121 H2116 0.950 . S
C2121 C2123 1.327 . S
C2121 C2127 1.429 . S
C2122 C2114 1.574 . S
C2122 H2117 0.949 . S
C2122 C2128 1.368 . S
C2123 C2107 1.349 . S
C2123 H2115 0.950 . S
C2123 C2121 1.327 . S
C2124 C2112 1.349 . S
C2124 H2118 0.950 . S
C2124 C2125 1.327 . S
C2125 H2119 0.950 . S
C2125 C2124 1.327 . S
C2125 C2129 1.429 . S
C2126 C2109 1.574 . S
C2126 H2120 0.949 . S
C2126 C2130 1.368 . S
C2127 C2108 1.429 . S
C2127 C2121 1.429 . S
C2127 C2128 1.523 . S
C2128 C2109 1.368 . S
C2128 C2122 1.368 . S
C2128 C2127 1.523 . S
C2129 C2113 1.429 . S
C2129 C2125 1.429 . S
C2129 C2130 1.523 . S
C2130 C2114 1.368 . S
C2130 C2126 1.368 . S
C2130 C2129 1.523 . S
H2131 C2106 0.950 . S
H2132 C2108 0.950 . S
H2133 C2109 0.949 . S
H2134 C2111 0.950 . S
H2135 C2113 0.950 . S
C2136 C2137 1.349 . S
C2136 C2138 1.327 . S
C2136 H2161 0.950 . S
C2137 C2136 1.349 . S
C2137 C2153 1.349 . S
C2138 C2136 1.327 . S
C2138 C2157 1.429 . S
C2138 H2162 0.950 . S
C2139 C2156 1.574 . S
C2139 C2158 1.368 . S
C2139 H2163 0.949 . S
H2140 C2144 0.949 . S
C2141 C2142 1.349 . S
C2141 C2143 1.327 . S
C2141 H2164 0.950 . S
C2142 C2141 1.349 . S
C2142 C2154 1.349 . S
C2143 C2141 1.327 . S
C2143 C2159 1.429 . S
C2143 H2165 0.950 . S
C2144 H2140 0.949 . S
C2144 C2152 1.574 . S
C2144 C2160 1.368 . S
H2145 C2153 0.950 . S
H2146 C2151 0.950 . S
H2147 C2152 0.949 . S
H2148 C2154 0.950 . S
H2149 C2155 0.950 . S
H2150 C2156 0.949 . S
C2151 H2146 0.950 . S
C2151 C2153 1.327 . S
C2151 C2157 1.429 . S
C2152 C2144 1.574 . S
C2152 H2147 0.949 . S
C2152 C2158 1.368 . S
C2153 C2137 1.349 . S
C2153 H2145 0.950 . S
C2153 C2151 1.327 . S
C2154 C2142 1.349 . S
C2154 H2148 0.950 . S
C2154 C2155 1.327 . S
C2155 H2149 0.950 . S
C2155 C2154 1.327 . S
C2155 C2159 1.429 . S
C2156 C2139 1.574 . S
C2156 H2150 0.949 . S
C2156 C2160 1.368 . S
C2157 C2138 1.429 . S
C2157 C2151 1.429 . S
C2157 C2158 1.523 . S
C2158 C2139 1.368 . S
C2158 C2152 1.368 . S
C2158 C2157 1.523 . S
C2159 C2143 1.429 . S
C2159 C2155 1.429 . S
C2159 C2160 1.523 . S
C2160 C2144 1.368 . S
C2160 C2156 1.368 . S
C2160 C2159 1.523 . S
H2161 C2136 0.950 . S
H2162 C2138 0.950 . S
H2163 C2139 0.949 . S
H2164 C2141 0.950 . S
H2165 C2143 0.950 . S
C2166 C2167 1.349 . S
C2166 C2168 1.327 . S
C2166 H2191 0.950 . S
C2167 C2166 1.349 . S
C2167 C2183 1.349 . S
C2168 C2166 1.327 . S
C2168 C2187 1.429 . S
C2168 H2192 0.950 . S
C2169 C2186 1.574 . S
C2169 C2188 1.368 . S
C2169 H2193 0.949 . S
H2170 C2174 0.949 . S
C2171 C2172 1.349 . S
C2171 C2173 1.327 . S
C2171 H2194 0.950 . S
C2172 C2171 1.349 . S
C2172 C2184 1.349 . S
C2173 C2171 1.327 . S
C2173 C2189 1.429 . S
C2173 H2195 0.950 . S
C2174 H2170 0.949 . S
C2174 C2182 1.574 . S
C2174 C2190 1.368 . S
H2175 C2183 0.950 . S
H2176 C2181 0.950 . S
H2177 C2182 0.949 . S
H2178 C2184 0.950 . S
H2179 C2185 0.950 . S
H2180 C2186 0.949 . S
C2181 H2176 0.950 . S
C2181 C2183 1.327 . S
C2181 C2187 1.429 . S
C2182 C2174 1.574 . S
C2182 H2177 0.949 . S
C2182 C2188 1.368 . S
C2183 C2167 1.349 . S
C2183 H2175 0.950 . S
C2183 C2181 1.327 . S
C2184 C2172 1.349 . S
C2184 H2178 0.950 . S
C2184 C2185 1.327 . S
C2185 H2179 0.950 . S
C2185 C2184 1.327 . S
C2185 C2189 1.429 . S
C2186 C2169 1.574 . S
C2186 H2180 0.949 . S
C2186 C2190 1.368 . S
C2187 C2168 1.429 . S
C2187 C2181 1.429 . S
C2187 C2188 1.523 . S
C2188 C2169 1.368 . S
C2188 C2182 1.368 . S
C2188 C2187 1.523 . S
C2189 C2173 1.429 . S
C2189 C2185 1.429 . S
C2189 C2190 1.523 . S
C2190 C2174 1.368 . S
C2190 C2186 1.368 . S
C2190 C2189 1.523 . S
H2191 C2166 0.950 . S
H2192 C2168 0.950 . S
H2193 C2169 0.949 . S
H2194 C2171 0.950 . S
H2195 C2173 0.950 . S
C2196 C2197 1.349 . S
C2196 C2198 1.327 . S
C2196 H2221 0.950 . S
C2197 C2196 1.349 . S
C2197 C2213 1.349 . S
C2198 C2196 1.327 . S
C2198 C2217 1.429 . S
C2198 H2222 0.950 . S
C2199 C2216 1.574 . S
C2199 C2218 1.368 . S
C2199 H2223 0.949 . S
H2200 C2204 0.949 . S
C2201 C2202 1.349 . S
C2201 C2203 1.327 . S
C2201 H2224 0.950 . S
C2202 C2201 1.349 . S
C2202 C2214 1.349 . S
C2203 C2201 1.327 . S
C2203 C2219 1.429 . S
C2203 H2225 0.950 . S
C2204 H2200 0.949 . S
C2204 C2212 1.574 . S
C2204 C2220 1.368 . S
H2205 C2213 0.950 . S
H2206 C2211 0.950 . S
H2207 C2212 0.949 . S
H2208 C2214 0.950 . S
H2209 C2215 0.950 . S
H2210 C2216 0.949 . S
C2211 H2206 0.950 . S
C2211 C2213 1.327 . S
C2211 C2217 1.429 . S
C2212 C2204 1.574 . S
C2212 H2207 0.949 . S
C2212 C2218 1.368 . S
C2213 C2197 1.349 . S
C2213 H2205 0.950 . S
C2213 C2211 1.327 . S
C2214 C2202 1.349 . S
C2214 H2208 0.950 . S
C2214 C2215 1.327 . S
C2215 H2209 0.950 . S
C2215 C2214 1.327 . S
C2215 C2219 1.429 . S
C2216 C2199 1.574 . S
C2216 H2210 0.949 . S
C2216 C2220 1.368 . S
C2217 C2198 1.429 . S
C2217 C2211 1.429 . S
C2217 C2218 1.523 . S
C2218 C2199 1.368 . S
C2218 C2212 1.368 . S
C2218 C2217 1.523 . S
C2219 C2203 1.429 . S
C2219 C2215 1.429 . S
C2219 C2220 1.523 . S
C2220 C2204 1.368 . S
C2220 C2216 1.368 . S
C2220 C2219 1.523 . S
H2221 C2196 0.950 . S
H2222 C2198 0.950 . S
H2223 C2199 0.949 . S
H2224 C2201 0.950 . S
H2225 C2203 0.950 . S
C2226 C2227 1.349 . S
C2226 C2228 1.327 . S
C2226 H2251 0.950 . S
C2227 C2226 1.349 . S
C2227 C2243 1.349 . S
C2228 C2226 1.327 . S
C2228 C2247 1.429 . S
C2228 H2252 0.950 . S
C2229 C2246 1.574 . S
C2229 C2248 1.368 . S
C2229 H2253 0.949 . S
H2230 C2234 0.949 . S
C2231 C2232 1.349 . S
C2231 C2233 1.327 . S
C2231 H2254 0.950 . S
C2232 C2231 1.349 . S
C2232 C2244 1.349 . S
C2233 C2231 1.327 . S
C2233 C2249 1.429 . S
C2233 H2255 0.950 . S
C2234 H2230 0.949 . S
C2234 C2242 1.574 . S
C2234 C2250 1.368 . S
H2235 C2243 0.950 . S
H2236 C2241 0.950 . S
H2237 C2242 0.949 . S
H2238 C2244 0.950 . S
H2239 C2245 0.950 . S
H2240 C2246 0.949 . S
C2241 H2236 0.950 . S
C2241 C2243 1.327 . S
C2241 C2247 1.429 . S
C2242 C2234 1.574 . S
C2242 H2237 0.949 . S
C2242 C2248 1.368 . S
C2243 C2227 1.349 . S
C2243 H2235 0.950 . S
C2243 C2241 1.327 . S
C2244 C2232 1.349 . S
C2244 H2238 0.950 . S
C2244 C2245 1.327 . S
C2245 H2239 0.950 . S
C2245 C2244 1.327 . S
C2245 C2249 1.429 . S
C2246 C2229 1.574 . S
C2246 H2240 0.949 . S
C2246 C2250 1.368 . S
C2247 C2228 1.429 . S
C2247 C2241 1.429 . S
C2247 C2248 1.523 . S
C2248 C2229 1.368 . S
C2248 C2242 1.368 . S
C2248 C2247 1.523 . S
C2249 C2233 1.429 . S
C2249 C2245 1.429 . S
C2249 C2250 1.523 . S
C2250 C2234 1.368 . S
C2250 C2246 1.368 . S
C2250 C2249 1.523 . S
H2251 C2226 0.950 . S
H2252 C2228 0.950 . S
H2253 C2229 0.949 . S
H2254 C2231 0.950 . S
H2255 C2233 0.950 . S
C2256 C2257 1.349 . S
C2256 C2258 1.327 . S
C2256 H2281 0.950 . S
C2257 C2256 1.349 . S
C2257 C2273 1.349 . S
C2258 C2256 1.327 . S
C2258 C2277 1.429 . S
C2258 H2282 0.950 . S
C2259 C2276 1.574 . S
C2259 C2278 1.368 . S
C2259 H2283 0.949 . S
H2260 C2264 0.949 . S
C2261 C2262 1.349 . S
C2261 C2263 1.327 . S
C2261 H2284 0.950 . S
C2262 C2261 1.349 . S
C2262 C2274 1.349 . S
C2263 C2261 1.327 . S
C2263 C2279 1.429 . S
C2263 H2285 0.950 . S
C2264 H2260 0.949 . S
C2264 C2272 1.574 . S
C2264 C2280 1.368 . S
H2265 C2273 0.950 . S
H2266 C2271 0.950 . S
H2267 C2272 0.949 . S
H2268 C2274 0.950 . S
H2269 C2275 0.950 . S
H2270 C2276 0.949 . S
C2271 H2266 0.950 . S
C2271 C2273 1.327 . S
C2271 C2277 1.429 . S
C2272 C2264 1.574 . S
C2272 H2267 0.949 . S
C2272 C2278 1.368 . S
C2273 C2257 1.349 . S
C2273 H2265 0.950 . S
C2273 C2271 1.327 . S
C2274 C2262 1.349 . S
C2274 H2268 0.950 . S
C2274 C2275 1.327 . S
C2275 H2269 0.950 . S
C2275 C2274 1.327 . S
C2275 C2279 1.429 . S
C2276 C2259 1.574 . S
C2276 H2270 0.949 . S
C2276 C2280 1.368 . S
C2277 C2258 1.429 . S
C2277 C2271 1.429 . S
C2277 C2278 1.523 . S
C2278 C2259 1.368 . S
C2278 C2272 1.368 . S
C2278 C2277 1.523 . S
C2279 C2263 1.429 . S
C2279 C2275 1.429 . S
C2279 C2280 1.523 . S
C2280 C2264 1.368 . S
C2280 C2276 1.368 . S
C2280 C2279 1.523 . S
H2281 C2256 0.950 . S
H2282 C2258 0.950 . S
H2283 C2259 0.949 . S
H2284 C2261 0.950 . S
H2285 C2263 0.950 . S
C2286 C2287 1.349 . S
C2286 C2288 1.327 . S
C2286 H2311 0.950 . S
C2287 C2286 1.349 . S
C2287 C2303 1.349 . S
C2288 C2286 1.327 . S
C2288 C2307 1.429 . S
C2288 H2312 0.950 . S
C2289 C2306 1.574 . S
C2289 C2308 1.368 . S
C2289 H2313 0.949 . S
H2290 C2294 0.949 . S
C2291 C2292 1.349 . S
C2291 C2293 1.327 . S
C2291 H2314 0.950 . S
C2292 C2291 1.349 . S
C2292 C2304 1.349 . S
C2293 C2291 1.327 . S
C2293 C2309 1.429 . S
C2293 H2315 0.950 . S
C2294 H2290 0.949 . S
C2294 C2302 1.574 . S
C2294 C2310 1.368 . S
H2295 C2303 0.950 . S
H2296 C2301 0.950 . S
H2297 C2302 0.949 . S
H2298 C2304 0.950 . S
H2299 C2305 0.950 . S
H2300 C2306 0.949 . S
C2301 H2296 0.950 . S
C2301 C2303 1.327 . S
C2301 C2307 1.429 . S
C2302 C2294 1.574 . S
C2302 H2297 0.949 . S
C2302 C2308 1.368 . S
C2303 C2287 1.349 . S
C2303 H2295 0.950 . S
C2303 C2301 1.327 . S
C2304 C2292 1.349 . S
C2304 H2298 0.950 . S
C2304 C2305 1.327 . S
C2305 H2299 0.950 . S
C2305 C2304 1.327 . S
C2305 C2309 1.429 . S
C2306 C2289 1.574 . S
C2306 H2300 0.949 . S
C2306 C2310 1.368 . S
C2307 C2288 1.429 . S
C2307 C2301 1.429 . S
C2307 C2308 1.523 . S
C2308 C2289 1.368 . S
C2308 C2302 1.368 . S
C2308 C2307 1.523 . S
C2309 C2293 1.429 . S
C2309 C2305 1.429 . S
C2309 C2310 1.523 . S
C2310 C2294 1.368 . S
C2310 C2306 1.368 . S
C2310 C2309 1.523 . S
H2311 C2286 0.950 . S
H2312 C2288 0.950 . S
H2313 C2289 0.949 . S
H2314 C2291 0.950 . S
H2315 C2293 0.950 . S
C2316 C2317 1.349 . S
C2316 C2318 1.327 . S
C2316 H2341 0.950 . S
C2317 C2316 1.349 . S
C2317 C2333 1.349 . S
C2318 C2316 1.327 . S
C2318 C2337 1.429 . S
C2318 H2342 0.950 . S
C2319 C2336 1.574 . S
C2319 C2338 1.368 . S
C2319 H2343 0.949 . S
H2320 C2324 0.949 . S
C2321 C2322 1.349 . S
C2321 C2323 1.327 . S
C2321 H2344 0.950 . S
C2322 C2321 1.349 . S
C2322 C2334 1.349 . S
C2323 C2321 1.327 . S
C2323 C2339 1.429 . S
C2323 H2345 0.950 . S
C2324 H2320 0.949 . S
C2324 C2332 1.574 . S
C2324 C2340 1.368 . S
H2325 C2333 0.950 . S
H2326 C2331 0.950 . S
H2327 C2332 0.949 . S
H2328 C2334 0.950 . S
H2329 C2335 0.950 . S
H2330 C2336 0.949 . S
C2331 H2326 0.950 . S
C2331 C2333 1.327 . S
C2331 C2337 1.429 . S
C2332 C2324 1.574 . S
C2332 H2327 0.949 . S
C2332 C2338 1.368 . S
C2333 C2317 1.349 . S
C2333 H2325 0.950 . S
C2333 C2331 1.327 . S
C2334 C2322 1.349 . S
C2334 H2328 0.950 . S
C2334 C2335 1.327 . S
C2335 H2329 0.950 . S
C2335 C2334 1.327 . S
C2335 C2339 1.429 . S
C2336 C2319 1.574 . S
C2336 H2330 0.949 . S
C2336 C2340 1.368 . S
C2337 C2318 1.429 . S
C2337 C2331 1.429 . S
C2337 C2338 1.523 . S
C2338 C2319 1.368 . S
C2338 C2332 1.368 . S
C2338 C2337 1.523 . S
C2339 C2323 1.429 . S
C2339 C2335 1.429 . S
C2339 C2340 1.523 . S
C2340 C2324 1.368 . S
C2340 C2336 1.368 . S
C2340 C2339 1.523 . S
H2341 C2316 0.950 . S
H2342 C2318 0.950 . S
H2343 C2319 0.949 . S
H2344 C2321 0.950 . S
H2345 C2323 0.950 . S
C2346 C2347 1.349 . S
C2346 C2348 1.327 . S
C2346 H2371 0.950 . S
C2347 C2346 1.349 . S
C2347 C2363 1.349 . S
C2348 C2346 1.327 . S
C2348 C2367 1.429 . S
C2348 H2372 0.950 . S
C2349 C2366 1.574 . S
C2349 C2368 1.368 . S
C2349 H2373 0.949 . S
H2350 C2354 0.949 . S
C2351 C2352 1.349 . S
C2351 C2353 1.327 . S
C2351 H2374 0.950 . S
C2352 C2351 1.349 . S
C2352 C2364 1.349 . S
C2353 C2351 1.327 . S
C2353 C2369 1.429 . S
C2353 H2375 0.950 . S
C2354 H2350 0.949 . S
C2354 C2362 1.574 . S
C2354 C2370 1.368 . S
H2355 C2363 0.950 . S
H2356 C2361 0.950 . S
H2357 C2362 0.949 . S
H2358 C2364 0.950 . S
H2359 C2365 0.950 . S
H2360 C2366 0.949 . S
C2361 H2356 0.950 . S
C2361 C2363 1.327 . S
C2361 C2367 1.429 . S
C2362 C2354 1.574 . S
C2362 H2357 0.949 . S
C2362 C2368 1.368 . S
C2363 C2347 1.349 . S
C2363 H2355 0.950 . S
C2363 C2361 1.327 . S
C2364 C2352 1.349 . S
C2364 H2358 0.950 . S
C2364 C2365 1.327 . S
C2365 H2359 0.950 . S
C2365 C2364 1.327 . S
C2365 C2369 1.429 . S
C2366 C2349 1.574 . S
C2366 H2360 0.949 . S
C2366 C2370 1.368 . S
C2367 C2348 1.429 . S
C2367 C2361 1.429 . S
C2367 C2368 1.523 . S
C2368 C2349 1.368 . S
C2368 C2362 1.368 . S
C2368 C2367 1.523 . S
C2369 C2353 1.429 . S
C2369 C2365 1.429 . S
C2369 C2370 1.523 . S
C2370 C2354 1.368 . S
C2370 C2366 1.368 . S
C2370 C2369 1.523 . S
H2371 C2346 0.950 . S
H2372 C2348 0.950 . S
H2373 C2349 0.949 . S
H2374 C2351 0.950 . S
H2375 C2353 0.950 . S
C757 C439 1.446 . S
C762 C582 1.484 . S
C787 C465 1.554 . S
C792 C602 1.532 . S
C817 C401 1.550 . S
C822 C625 1.536 . S
C847 C369 1.436 . S
C852 C605 1.428 . S
C882 C622 1.435 . S
C877 C305 1.443 . S
C907 C343 1.332 . S
C912 C585 1.385 . S
C942 C592 1.518 . S
C937 C375 1.541 . S
C972 C612 1.499 . S
C967 C311 1.520 . S
C997 C337 1.486 . S
C1002 C617 1.536 . S
C1027 C433 1.385 . S
C1032 C597 1.426 . S
C1057 C471 1.409 . S
C1062 C632 1.401 . S
C1092 C577 1.422 . S
C1087 C407 1.432 . S
C1122 C642 1.484 . S
C1117 C55 1.446 . S
C1147 C81 1.554 . S
C1152 C662 1.532 . S
C1177 C17 1.550 . S
C1182 C685 1.536 . S
C1207 C561 1.436 . S
C1212 C665 1.428 . S
C1237 C497 1.442 . S
C1242 C682 1.435 . S
C1267 C535 1.332 . S
C1272 C645 1.385 . S
C1297 C567 1.540 . S
C1302 C652 1.518 . S
C1327 C503 1.520 . S
C1332 C672 1.499 . S
C1362 C677 1.535 . S
C1357 C529 1.486 . S
C1387 C49 1.385 . S
C1392 C657 1.426 . S
C1422 C692 1.401 . S
C1417 C87 1.409 . S
C1447 C23 1.432 . S
C1452 C637 1.422 . S
C1482 C702 1.485 . S
C1477 C247 1.446 . S
C1507 C273 1.554 . S
C1512 C722 1.532 . S
C1542 C745 1.536 . S
C1537 C209 1.550 . S
C1572 C725 1.428 . S
C1567 C177 1.436 . S
C1602 C742 1.435 . S
C1597 C113 1.442 . S
C1627 C151 1.332 . S
C1632 C705 1.385 . S
C1657 C183 1.540 . S
C1662 C712 1.518 . S
C1687 C119 1.520 . S
C1692 C732 1.499 . S
C1722 C737 1.535 . S
C1717 C145 1.486 . S
C1747 C241 1.385 . S
C1752 C717 1.426 . S
C1777 C279 1.409 . S
C1782 C752 1.401 . S
C1807 C215 1.432 . S
C1812 C697 1.422 . S
C1837 C509 1.247 . S
C1842 C595 1.234 1_565 S
C1872 C615 1.597 . S
C1867 C541 1.583 . S
C1897 C573 1.483 . S
C1902 C624 1.443 . S
C1927 C221 1.695 . S
C1932 C604 1.622 1_655 S
C1957 C253 1.391 . S
C1962 C635 1.407 . S
C1992 C584 1.250 . S
C1987 C285 1.245 . S
C2017 C125 1.247 . S
C2022 C655 1.234 . S
C2047 C157 1.583 . S
C2052 C675 1.597 . S
C2077 C189 1.483 . S
C2082 C684 1.443 . S
C2107 C413 1.695 . S
C2112 C664 1.631 . S
C2142 C695 1.407 . S
C2137 C445 1.391 . S
C2167 C477 1.245 . S
C2172 C644 1.228 . S
C2197 C317 1.247 . S
C2202 C715 1.234 . S
C2227 C349 1.583 . S
C2232 C735 1.596 . S
C2262 C744 1.443 . S
C2257 C381 1.483 . S
C2287 C29 1.695 . S
C2292 C724 1.631 . S
C2317 C61 1.391 . S
C2322 C755 1.407 . S
C2347 C93 1.245 . S
C2352 C704 1.228 . S
