# Generated by pormake.
# Topology pts, (4,4)-cn, num edge types: 1
# Building blocks:
#     Node 0, Type 0, BuildingBlock: NAWXER_clean_linker_0, # of connection points: 4
#     Node 1, Type 0, BuildingBlock: NAWXER_clean_linker_0, # of connection points: 4
#     Node 2, Type 1, BuildingBlock: AZAVOO_clean_sbu_0, # of connection points: 4
#     Node 3, Type 1, BuildingBlock: AZAVOO_clean_sbu_0, # of connection points: 4
#     Edge 4, Type (0, 1), BuildingBlock: FUNLAD_clean_linker_0, # of connection points: 2
#     Edge 5, Type (0, 1), BuildingBlock: FUNLAD_clean_linker_0, # of connection points: 2
#     Edge 6, Type (0, 1), BuildingBlock: FUNLAD_clean_linker_0, # of connection points: 2
#     Edge 7, Type (0, 1), BuildingBlock: FUNLAD_clean_linker_0, # of connection points: 2
#     Edge 8, Type (0, 1), BuildingBlock: FUNLAD_clean_linker_0, # of connection points: 2
#     Edge 9, Type (0, 1), BuildingBlock: FUNLAD_clean_linker_0, # of connection points: 2
#     Edge 10, Type (0, 1), BuildingBlock: FUNLAD_clean_linker_0, # of connection points: 2
#     Edge 11, Type (0, 1), BuildingBlock: FUNLAD_clean_linker_0, # of connection points: 2
# Relax obj value: 0.000
# Max RMSD: 0.036
# Mean RMSD: 0.020
data_MOF--net-pts--node1-AZAVOO_clean_sbu_0--node2-NAWXER_clean_linker_0--edge1-FUNLAD_clean_linker_0
_symmetry_space_group_name_H-M    P1
_symmetry_Int_Tables_number       1
_symmetry_cell_setting            triclinic
loop_
_symmetry_equiv_pos_as_xyz
'x, y, z'
_cell_length_a     33.012663
_cell_length_b     33.897685
_cell_length_c     48.822208
_cell_angle_alpha  89.923726
_cell_angle_beta   96.064606
_cell_angle_gamma 89.807591
loop_
_atom_site_label
_atom_site_type_symbol
_atom_site_fract_x
_atom_site_fract_y
_atom_site_fract_z
_atom_type_partial_charge
C0 C 0.65997 0.05707 0.95322 0.0
C1 C 0.65868 0.03158 0.93046 0.0
C2 C 0.63058 0.0545 0.97175 0.0
C3 C 0.59971 0.02593 0.96817 0.0
C4 C 0.62756 0.00323 0.9268 0.0
C5 C 0.59829 0.00057 0.94541 0.0
C6 C 0.56749 0.0239 0.98707 0.0
C7 C 0.68359 0.99109 0.03818 0.0
C8 C 0.69451 0.01503 0.06129 0.0
C9 C 0.64513 -0.0054 0.02338 0.0
C10 C 0.61704 0.02284 0.03089 0.0
C11 C 0.66606 0.04286 0.06897 0.0
C12 C 0.62781 0.04669 0.05396 0.0
C13 C 0.57552 0.02589 0.01606 0.0
C14 C 0.40999 0.0084 0.05631 0.0
C15 C 0.41126 0.03997 0.07508 0.0
C16 C 0.4401 0.00429 0.03837 0.0
C17 C 0.47172 0.03195 0.03863 0.0
C18 C 0.44328 0.06728 0.07545 0.0
C19 C 0.47329 0.06317 0.05753 0.0
C20 C 0.50402 0.02832 0.01995 0.0
C21 C 0.38562 0.04748 0.96609 0.0
C22 C 0.37623 0.0169 0.94701 0.0
C23 C 0.42446 0.05008 0.98052 0.0
C24 C 0.45446 0.02181 0.97644 0.0
C25 C 0.40664 0.98909 0.94272 0.0
C26 C 0.4453 0.99161 0.95721 0.0
C27 C 0.496 0.02403 0.9911 0.0
H28 H 0.68308 0.0797 0.95631 0.0
H29 H 0.63161 0.07532 0.98861 0.0
H30 H 0.62593 0.98296 0.9096 0.0
H31 H 0.57459 0.97853 0.94208 0.0
H32 H 0.70468 0.96948 0.03152 0.0
H33 H 0.63723 0.97476 0.00631 0.0
H34 H 0.6729 0.06118 0.08701 0.0
H35 H 0.6065 0.06822 0.06048 0.0
H36 H 0.38617 0.98645 0.05584 0.0
H37 H 0.43885 0.97935 0.02446 0.0
H38 H 0.44496 0.09216 0.08942 0.0
H39 H 0.49752 0.08473 0.05817 0.0
H40 H 0.36293 0.06936 0.96994 0.0
H41 H 0.43109 0.07432 0.99469 0.0
H42 H 0.40085 0.96569 0.92775 0.0
H43 H 0.46813 0.96979 0.95344 0.0
N44 N 0.52808 0.02224 0.97581 0.0
N45 N 0.54344 0.02883 0.03128 0.0
C46 C 0.05563 0.63235 0.55537 0.0
C47 C 0.02132 0.63717 0.56978 0.0
C48 C 0.05862 0.59986 0.53812 0.0
C49 C 0.02755 0.57154 0.53532 0.0
C50 C 0.99014 0.60895 0.56681 0.0
C51 C 0.99352 0.57606 0.54998 0.0
C52 C 0.0315 0.53611 0.51835 0.0
C53 C 0.00395 0.6362 0.45843 0.0
C54 C 0.03215 0.64149 0.43905 0.0
C55 C 0.00601 0.6029 0.47544 0.0
C56 C 0.0369 0.5746 0.4739 0.0
C57 C 0.06279 0.61291 0.43743 0.0
C58 C 0.06511 0.57991 0.45465 0.0
C59 C 0.0381 0.53769 0.49028 0.0
C60 C 0.02698 0.36873 0.45435 0.0
C61 C 0.05685 0.36905 0.4358 0.0
C62 C 0.02355 0.40017 0.47245 0.0
C63 C 0.0503 0.43231 0.47262 0.0
C64 C 0.08378 0.40111 0.43621 0.0
C65 C 0.0804 0.43247 0.45435 0.0
C66 C 0.04488 0.46754 0.48974 0.0
C67 C 0.07642 0.3699 0.55108 0.0
C68 C 0.04683 0.36254 0.56916 0.0
C69 C 0.0734 0.4031 0.53399 0.0
C70 C 0.04044 0.42932 0.53438 0.0
C71 C 0.01399 0.38895 0.56959 0.0
C72 C 0.01094 0.42208 0.55245 0.0
C73 C 0.03817 0.46601 0.51784 0.0
H74 H 0.07995 0.65387 0.55731 0.0
H75 H 0.08541 0.59652 0.52729 0.0
H76 H 0.96353 0.61203 0.57787 0.0
H77 H 0.96945 0.55426 0.54824 0.0
H78 H 0.98011 0.65769 0.46042 0.0
H79 H 0.9828 0.59894 0.48928 0.0
H80 H 0.08453 0.61548 0.4224 0.0
H81 H 0.08883 0.55823 0.4527 0.0
H82 H 0.00598 0.34431 0.45472 0.0
H83 H -0.00067 0.39978 0.48577 0.0
H84 H 0.10675 0.40255 0.42196 0.0
H85 H 0.10104 0.45719 0.45386 0.0
H86 H 0.10249 0.35052 0.55063 0.0
H87 H 0.09735 0.40873 0.52096 0.0
H88 H 0.9905 0.38391 0.58309 0.0
H89 H 0.98547 0.44212 0.55332 0.0
N90 N 0.03157 0.50039 0.53098 0.0
N91 N 0.04467 0.50332 0.47717 0.0
Mg92 Mg 0.07738 -0.0048 0.26726 0.0
O93 O 0.01532 -0.00637 0.24068 0.0
O94 O 0.96765 0.98674 0.26966 0.0
Mg95 Mg 0.99811 0.9818 0.31361 0.0
C96 C 0.97805 0.99093 0.24537 0.0
C97 C 0.14627 0.02652 0.23648 0.0
O98 O 0.16194 0.02634 0.26237 0.0
O99 O 0.06398 0.05788 0.28103 0.0
O100 O 0.01698 0.04651 0.30997 0.0
O101 O 0.08331 0.92964 0.26558 0.0
O102 O 0.05429 0.96169 0.29769 0.0
C103 C 0.03963 0.06997 0.29792 0.0
C104 C 0.06421 0.92852 0.28741 0.0
O105 O 0.10921 0.01666 0.23087 0.0
Mg106 Mg 0.99609 0.99334 0.74041 0.0
O107 O 0.05609 0.98681 0.76873 0.0
O108 O 0.10498 0.97306 0.74176 0.0
Mg109 Mg 0.07748 0.97304 0.69685 0.0
C110 C 0.09318 0.97895 0.7655 0.0
C111 C 0.92455 0.01617 0.77 0.0
O112 O 0.90959 0.0051 0.7452 0.0
O113 O 0.01513 0.05475 0.72746 0.0
O114 O 0.0631 0.03917 0.70013 0.0
O115 O 0.98576 0.92812 0.74157 0.0
O116 O 0.01833 0.95847 0.71045 0.0
C117 C 0.04143 0.06466 0.71131 0.0
C118 C 0.00588 0.92601 0.72025 0.0
O119 O 0.96301 0.01668 0.7757 0.0
C120 C 0.33842 0.03716 0.08586 0.0
C121 C 0.37975 0.04415 0.09453 0.0
C122 C 0.3089 0.04115 0.10426 0.0
C123 C 0.32018 0.05201 0.13185 0.0
C124 C 0.36142 0.05946 0.14032 0.0
C125 C 0.39085 0.05544 0.12197 0.0
C126 C 0.29041 0.056 0.15259 0.0
C127 C 0.25328 0.03908 0.15025 0.0
C128 C 0.2257 0.03976 0.17253 0.0
C129 C 0.18408 0.03184 0.16583 0.0
C130 C 0.15781 0.02897 0.18644 0.0
C131 C 0.17272 0.03363 0.21429 0.0
H132 H 0.27231 0.0502 0.20677 0.0
C133 C 0.21415 0.04242 0.22097 0.0
C134 C 0.24037 0.04527 0.20041 0.0
H135 H 0.22672 0.04595 0.24222 0.0
H136 H 0.32878 0.02917 0.0647 0.0
H137 H 0.27741 0.03626 0.09654 0.0
H138 H 0.37107 0.06791 0.1614 0.0
H139 H 0.42244 0.06063 0.12944 0.0
H140 H 0.30057 0.07245 0.17107 0.0
H141 H 0.24263 0.02305 0.13168 0.0
H142 H 0.17194 0.0272 0.14458 0.0
H143 H 0.12607 0.02204 0.18059 0.0
C144 C 0.04208 0.33083 0.61526 0.0
C145 C 0.05043 0.32766 0.58769 0.0
C146 C 0.04561 0.29797 0.63271 0.0
C147 C 0.05731 0.26109 0.62284 0.0
C148 C 0.06602 0.25814 0.59537 0.0
C149 C 0.06255 0.29096 0.57798 0.0
C150 C 0.06157 0.22508 0.64034 0.0
C151 C 0.04441 0.22033 0.66402 0.0
C152 C 0.04669 0.18228 0.6793 0.0
C153 C 0.01442 0.17126 0.69424 0.0
C154 C 0.01353 0.13364 0.70605 0.0
C155 C 0.04505 0.10647 0.70315 0.0
H156 H 0.10606 0.16428 0.66817 0.0
C157 C 0.07873 0.11863 0.68994 0.0
C158 C 0.07971 0.15617 0.67833 0.0
H159 H 0.10398 0.09873 0.6879 0.0
H160 H 0.03347 0.35893 0.62351 0.0
H161 H 0.03978 0.30191 0.65392 0.0
H162 H 0.07526 0.23019 0.5872 0.0
H163 H 0.06886 0.28743 0.55679 0.0
H164 H 0.07753 0.20035 0.63223 0.0
H165 H 0.02518 0.24334 0.67115 0.0
H166 H 0.98893 0.19109 0.69571 0.0
H167 H 0.98727 0.12526 0.71626 0.0
C168 C 0.75522 0.04306 0.09023 0.0
C169 C 0.73474 0.01018 0.07794 0.0
C170 C 0.79128 0.03824 0.10764 0.0
C171 C 0.80791 0.00044 0.11299 0.0
C172 C 0.78878 0.96781 0.09966 0.0
C173 C 0.75236 0.97253 0.08253 0.0
C174 C 0.84429 -0.00575 0.13311 0.0
C175 C 0.84966 0.01487 0.15674 0.0
C176 C 0.88302 0.00693 0.17883 0.0
C177 C 0.87551 0.0131 0.20622 0.0
C178 C 0.90615 0.0069 0.22772 0.0
C179 C 0.94543 -0.00474 0.2223 0.0
H180 H 0.92903 0.99056 0.15226 0.0
C181 C 0.95317 0.98935 0.19482 0.0
C182 C 0.92212 -0.00517 0.17324 0.0
H183 H 0.98318 0.98054 0.19 0.0
H184 H 0.74328 0.0726 0.08656 0.0
H185 H 0.80606 0.06413 0.11698 0.0
H186 H 0.80115 0.93841 0.10336 0.0
H187 H 0.7374 0.94645 0.07366 0.0
H188 H 0.86462 0.96986 0.12975 0.0
H189 H 0.82668 0.03632 0.16117 0.0
H190 H 0.8457 0.02263 0.21103 0.0
H191 H 0.89921 0.01213 0.24861 0.0
C192 C 0.0495 0.6804 0.60861 0.0
C193 C 0.01805 0.67165 0.58787 0.0
C194 C 0.04664 0.71339 0.62544 0.0
C195 C 0.0125 0.73846 0.62148 0.0
C196 C 0.98125 0.72978 0.60062 0.0
C197 C 0.98372 0.69636 0.58418 0.0
C198 C 0.00995 0.77522 0.63751 0.0
C199 C 0.02486 0.77854 0.66414 0.0
C200 C 0.02229 0.81623 0.67914 0.0
C201 C 0.0124 0.81626 0.7064 0.0
C202 C 0.00757 0.85194 0.72013 0.0
C203 C 0.01366 0.88803 0.70699 0.0
H204 H 0.03815 0.85305 0.64554 0.0
C205 C 0.0254 0.88777 0.68015 0.0
C206 C 0.02947 0.85227 0.66633 0.0
H207 H 0.03037 0.91507 0.66947 0.0
H208 H 0.07624 0.66167 0.61178 0.0
H209 H 0.07163 0.71983 0.64096 0.0
H210 H 0.95486 0.74892 0.59704 0.0
H211 H 0.95926 0.69029 0.56816 0.0
H212 H 0.9938 0.80005 0.62725 0.0
H213 H 0.03717 0.75283 0.67548 0.0
H214 H 0.00716 0.78873 0.71675 0.0
H215 H 0.99873 0.8513 0.74087 0.0
C216 C 0.31713 0.97763 0.92496 0.0
C217 C 0.33546 0.01448 0.93089 0.0
C218 C 0.28059 0.97495 0.90781 0.0
C219 C 0.26151 0.00912 0.89619 0.0
C220 C 0.2786 0.04605 0.90326 0.0
C221 C 0.31532 0.04874 0.92028 0.0
C222 C 0.2246 0.00709 0.87601 0.0
C223 C 0.21821 0.97713 0.85799 0.0
C224 C 0.18478 0.97698 0.83514 0.0
C225 C 0.1913 0.95772 0.81057 0.0
C226 C 0.16143 0.95816 0.78811 0.0
C227 C 0.12392 0.97722 0.78988 0.0
H228 H 0.14058 0.00968 0.85613 0.0
C229 C 0.11674 -0.00466 0.81482 0.0
C230 C 0.14697 -0.00459 0.83723 0.0
H231 H 0.08808 0.01013 0.81687 0.0
H232 H 0.33119 0.95073 0.93341 0.0
H233 H 0.26748 0.94608 0.90361 0.0
H234 H 0.26432 0.07284 0.89476 0.0
H235 H 0.32862 0.07758 0.9243 0.0
H236 H 0.20463 0.03271 0.87409 0.0
H237 H 0.2406 0.95353 0.85819 0.0
H238 H 0.22001 0.943 0.80852 0.0
H239 H 0.16781 0.94356 0.7693 0.0
C240 C 0.02322 0.32074 0.40188 0.0
C241 C 0.05905 0.33673 0.41548 0.0
C242 C 0.02503 0.29021 0.38289 0.0
C243 C 0.06288 0.27511 0.37679 0.0
C244 C 0.09867 0.2912 0.39035 0.0
C245 C 0.09684 0.32175 0.4094 0.0
C246 C 0.06623 0.24076 0.35818 0.0
C247 C 0.03555 0.22813 0.33994 0.0
C248 C 0.0368 0.18954 0.32586 0.0
C249 C 0.00105 0.16709 0.32245 0.0
C250 C 0.00182 0.12863 0.31245 0.0
C251 C 0.03815 0.11221 0.30493 0.0
H252 H 0.10064 0.19097 0.31886 0.0
C253 C 0.07338 0.13558 0.30648 0.0
C254 C 0.07283 0.17391 0.31711 0.0
H255 H 0.10174 0.12361 0.30072 0.0
H256 H 0.99363 0.33188 0.40587 0.0
H257 H 0.99654 0.2781 0.37373 0.0
H258 H 0.12822 0.27986 0.38639 0.0
H259 H 0.12502 0.33311 0.41976 0.0
H260 H 0.09456 0.22409 0.3607 0.0
H261 H 0.00696 0.24419 0.3372 0.0
H262 H 0.97285 0.17864 0.32879 0.0
H263 H 0.97411 0.11138 0.31116 0.0
C264 C 0.73052 0.04103 0.91896 0.0
C265 C 0.68902 0.03515 0.9102 0.0
C266 C 0.75899 0.04411 0.89976 0.0
C267 C 0.74646 0.04136 0.87134 0.0
C268 C 0.70488 0.03628 0.86268 0.0
C269 C 0.67653 0.03302 0.88184 0.0
C270 C 0.77527 0.04369 0.84993 0.0
C271 C 0.81546 0.03557 0.85453 0.0
C272 C 0.84279 0.03361 0.83215 0.0
C273 C 0.88511 0.03687 0.83889 0.0
C274 C 0.91185 0.03242 0.81865 0.0
C275 C 0.89676 0.02427 0.79125 0.0
H276 H 0.79568 0.02173 0.79849 0.0
C277 C 0.85444 0.02155 0.78445 0.0
C278 C 0.8278 0.02591 0.8046 0.0
H279 H 0.84175 0.01498 0.76359 0.0
H280 H 0.74107 0.04279 0.94069 0.0
H281 H 0.79052 0.04905 0.90735 0.0
H282 H 0.69426 0.03439 0.84095 0.0
H283 H 0.64469 0.02924 0.87439 0.0
H284 H 0.76203 0.05081 0.82923 0.0
H285 H 0.82905 0.02899 0.87524 0.0
H286 H 0.89757 0.04242 0.85995 0.0
H287 H 0.94432 0.03452 0.82459 0.0
C288 C 0.06474 0.69431 0.4127 0.0
C289 C 0.02926 0.67615 0.42018 0.0
C290 C 0.06219 0.72617 0.39445 0.0
C291 C 0.02404 0.7408 0.38335 0.0
C292 C 0.98859 0.72335 0.39122 0.0
C293 C 0.99112 0.69112 0.40922 0.0
C294 C 0.02056 0.77552 0.36474 0.0
C295 C 0.0481 0.78333 0.34701 0.0
C296 C 0.04755 0.81993 0.33026 0.0
C297 C 0.0671 0.82007 0.30608 0.0
C298 C 0.07088 0.85506 0.29138 0.0
C299 C 0.05569 0.89075 0.30083 0.0
H300 H 0.01694 0.8568 0.35817 0.0
C301 C 0.03529 0.89041 0.32468 0.0
C302 C 0.0312 0.85543 0.33923 0.0
H303 H 0.02369 0.9174 0.33277 0.0
H304 H 0.09462 0.68429 0.42125 0.0
H305 H 0.09015 0.73986 0.3896 0.0
H306 H 0.95885 0.73435 0.38314 0.0
H307 H 0.96313 0.67763 0.41421 0.0
H308 H 0.99413 0.79455 0.36533 0.0
H309 H 0.07212 0.76202 0.34455 0.0
H310 H 0.08023 0.79318 0.29885 0.0
H311 H 0.08696 0.85434 0.27316 0.0
loop_
_geom_bond_atom_site_label_1
_geom_bond_atom_site_label_2
_geom_bond_distance
_geom_bond_site_symmetry_2
_ccdc_geom_bond_type
C0 C1 1.384 . S
C0 C2 1.384 . S
C0 H28 0.931 . S
C1 C0 1.384 . S
C1 C4 1.382 1_545 S
C2 C0 1.384 . S
C2 C3 1.381 . S
C2 H29 0.930 . S
C3 C2 1.381 . S
C3 C5 1.381 1_545 S
C3 C6 1.487 . S
C4 C1 1.382 1_565 S
C4 C5 1.387 . S
C4 H30 0.930 . S
C5 C3 1.381 1_565 S
C5 C4 1.387 . S
C5 H31 0.931 . S
C6 C3 1.487 . S
C6 C13 1.399 1_556 S
C6 N44 1.343 . S
C7 C8 1.384 1_565 S
C7 C9 1.384 . S
C7 H32 0.931 . S
C8 C7 1.384 1_545 S
C8 C11 1.382 . S
C9 C7 1.384 . S
C9 C10 1.381 1_565 S
C9 H33 0.930 . S
C10 C9 1.381 1_545 S
C10 C12 1.381 . S
C10 C13 1.487 . S
C11 C8 1.382 . S
C11 C12 1.387 . S
C11 H34 0.930 . S
C12 C10 1.381 . S
C12 C11 1.387 . S
C12 H35 0.931 . S
C13 C6 1.399 1_554 S
C13 C10 1.487 . S
C13 N45 1.343 . S
C14 C15 1.384 1_565 S
C14 C16 1.384 . S
C14 H36 0.931 . S
C15 C14 1.384 1_545 S
C15 C18 1.382 . S
C16 C14 1.384 . S
C16 C17 1.381 1_565 S
C16 H37 0.930 . S
C17 C16 1.381 1_545 S
C17 C19 1.381 . S
C17 C20 1.487 . S
C18 C15 1.382 . S
C18 C19 1.387 . S
C18 H38 0.930 . S
C19 C17 1.381 . S
C19 C18 1.387 . S
C19 H39 0.931 . S
C20 C17 1.487 . S
C20 C27 1.399 1_554 S
C20 N45 1.343 . S
C21 C22 1.384 . S
C21 C23 1.384 . S
C21 H40 0.931 . S
C22 C21 1.384 . S
C22 C25 1.382 1_545 S
C23 C21 1.384 . S
C23 C24 1.381 . S
C23 H41 0.930 . S
C24 C23 1.381 . S
C24 C26 1.381 1_545 S
C24 C27 1.487 . S
C25 C22 1.382 1_565 S
C25 C26 1.387 . S
C25 H42 0.930 . S
C26 C24 1.381 1_565 S
C26 C25 1.387 . S
C26 H43 0.931 . S
C27 C20 1.399 1_556 S
C27 C24 1.487 . S
C27 N44 1.343 . S
H28 C0 0.931 . S
H29 C2 0.930 . S
H30 C4 0.930 . S
H31 C5 0.931 . S
H32 C7 0.931 . S
H33 C9 0.930 . S
H34 C11 0.930 . S
H35 C12 0.931 . S
H36 C14 0.931 . S
H37 C16 0.930 . S
H38 C18 0.930 . S
H39 C19 0.931 . S
H40 C21 0.931 . S
H41 C23 0.930 . S
H42 C25 0.930 . S
H43 C26 0.931 . S
N44 C6 1.343 . S
N44 C27 1.343 . S
N45 C13 1.343 . S
N45 C20 1.343 . S
C46 C47 1.384 . S
C46 C48 1.384 . S
C46 H74 0.931 . S
C47 C46 1.384 . S
C47 C50 1.382 . S
C48 C46 1.384 . S
C48 C49 1.381 . S
C48 H75 0.930 . S
C49 C48 1.381 . S
C49 C51 1.381 . S
C49 C52 1.487 . S
C50 C47 1.382 . S
C50 C51 1.387 . S
C50 H76 0.930 1_455 S
C51 C49 1.381 . S
C51 C50 1.387 . S
C51 H77 0.931 1_455 S
C52 C49 1.487 . S
C52 C59 1.399 . S
C52 N90 1.343 . S
C53 C54 1.384 . S
C53 C55 1.384 . S
C53 H78 0.931 1_455 S
C54 C53 1.384 . S
C54 C57 1.382 . S
C55 C53 1.384 . S
C55 C56 1.381 . S
C55 H79 0.930 1_455 S
C56 C55 1.381 . S
C56 C58 1.381 . S
C56 C59 1.487 . S
C57 C54 1.382 . S
C57 C58 1.387 . S
C57 H80 0.930 . S
C58 C56 1.381 . S
C58 C57 1.387 . S
C58 H81 0.931 . S
C59 C52 1.399 . S
C59 C56 1.487 . S
C59 N91 1.343 . S
C60 C61 1.384 . S
C60 C62 1.384 . S
C60 H82 0.931 1_455 S
C61 C60 1.384 . S
C61 C64 1.382 . S
C62 C60 1.384 . S
C62 C63 1.381 . S
C62 H83 0.930 1_455 S
C63 C62 1.381 . S
C63 C65 1.381 . S
C63 C66 1.487 . S
C64 C61 1.382 . S
C64 C65 1.387 . S
C64 H84 0.930 . S
C65 C63 1.381 . S
C65 C64 1.387 . S
C65 H85 0.931 . S
C66 C63 1.487 . S
C66 C73 1.399 . S
C66 N91 1.343 . S
C67 C68 1.384 . S
C67 C69 1.384 . S
C67 H86 0.931 . S
C68 C67 1.384 . S
C68 C71 1.382 . S
C69 C67 1.384 . S
C69 C70 1.381 . S
C69 H87 0.930 . S
C70 C69 1.381 . S
C70 C72 1.381 . S
C70 C73 1.487 . S
C71 C68 1.382 . S
C71 C72 1.387 . S
C71 H88 0.930 1_455 S
C72 C70 1.381 . S
C72 C71 1.387 . S
C72 H89 0.931 1_455 S
C73 C66 1.399 . S
C73 C70 1.487 . S
C73 N90 1.343 . S
H74 C46 0.931 . S
H75 C48 0.930 . S
H76 C50 0.930 1_655 S
H77 C51 0.931 1_655 S
H78 C53 0.931 1_655 S
H79 C55 0.930 1_655 S
H80 C57 0.930 . S
H81 C58 0.931 . S
H82 C60 0.931 1_655 S
H83 C62 0.930 1_655 S
H84 C64 0.930 . S
H85 C65 0.931 . S
H86 C67 0.931 . S
H87 C69 0.930 . S
H88 C71 0.930 1_655 S
H89 C72 0.931 1_655 S
N90 C52 1.343 . S
N90 C73 1.343 . S
N91 C59 1.343 . S
N91 C66 1.343 . S
Mg92 O93 2.028 . S
Mg92 O99 1.986 . S
Mg92 O101 2.114 1_545 S
Mg92 O102 2.251 1_545 S
Mg92 O105 2.010 . S
O93 Mg92 2.028 . S
O93 C96 1.250 1_455 S
O94 Mg95 2.028 . S
O94 C96 1.248 . S
Mg95 O94 2.028 . S
Mg95 O100 2.032 1_655 S
Mg95 O102 2.079 1_645 S
C96 O93 1.250 1_655 S
C96 O94 1.248 . S
C97 O98 1.264 . S
C97 O105 1.249 . S
O98 C97 1.264 . S
O99 Mg92 1.986 . S
O99 C103 1.246 . S
O100 Mg95 2.032 1_455 S
O100 C103 1.259 . S
O101 Mg92 2.114 1_565 S
O101 C104 1.252 . S
O102 Mg92 2.251 1_565 S
O102 Mg95 2.079 1_465 S
O102 C104 1.273 . S
C103 O99 1.246 . S
C103 O100 1.259 . S
C104 O101 1.252 . S
C104 O102 1.273 . S
O105 Mg92 2.010 . S
O105 C97 1.249 . S
Mg106 O107 2.028 1_655 S
Mg106 O113 1.983 1_655 S
Mg106 O115 2.114 1_545 S
Mg106 O116 2.251 1_645 S
Mg106 O119 2.010 . S
O107 Mg106 2.028 1_455 S
O107 C110 1.250 . S
O108 Mg109 2.028 . S
O108 C110 1.248 . S
Mg109 O108 2.028 . S
Mg109 O114 2.032 . S
Mg109 O116 2.079 1_545 S
C110 O107 1.250 . S
C110 O108 1.248 . S
C111 O112 1.264 . S
C111 O119 1.249 . S
O112 C111 1.264 . S
O113 Mg106 1.983 1_455 S
O113 C117 1.260 . S
O114 Mg109 2.032 . S
O114 C117 1.259 . S
O115 Mg106 2.114 1_565 S
O115 C118 1.252 1_655 S
O116 Mg106 2.251 1_465 S
O116 Mg109 2.079 1_565 S
O116 C118 1.273 . S
C117 O113 1.260 . S
C117 O114 1.259 . S
C118 O115 1.252 1_455 S
C118 O116 1.273 . S
O119 Mg106 2.010 . S
O119 C111 1.249 . S
C120 C121 1.386 . S
C120 C122 1.383 . S
C120 H136 0.953 . S
C121 C120 1.386 . S
C121 C125 1.383 . S
C122 C120 1.383 . S
C122 C123 1.402 . S
C122 H137 0.951 1_545 S
C123 C122 1.402 . S
C123 C124 1.375 . S
C123 C126 1.481 . S
C124 C123 1.375 . S
C124 C125 1.367 . S
C124 H138 0.951 . S
C125 C121 1.383 . S
C125 C124 1.367 . S
C125 H139 0.950 . S
C126 C123 1.481 . S
C126 C127 1.297 1_545 S
C126 H140 0.950 . S
C127 C126 1.297 1_565 S
C127 C128 1.481 . S
C127 H141 0.950 . S
C128 C127 1.481 . S
C128 C129 1.375 1_565 S
C128 C134 1.402 1_565 S
C129 C128 1.375 1_545 S
C129 C130 1.372 . S
C129 H142 0.948 1_545 S
C130 C129 1.372 . S
C130 C131 1.392 . S
C130 H143 0.951 . S
C131 C130 1.392 . S
C131 C133 1.384 . S
H132 C134 0.949 . S
C133 C131 1.384 . S
C133 C134 1.385 . S
C133 H135 0.950 . S
C134 C128 1.402 1_545 S
C134 H132 0.949 . S
C134 C133 1.385 . S
H135 C133 0.950 . S
H136 C120 0.953 . S
H137 C122 0.951 1_565 S
H138 C124 0.951 . S
H139 C125 0.950 . S
H140 C126 0.950 . S
H141 C127 0.950 . S
H142 C129 0.948 1_565 S
H143 C130 0.951 . S
C144 C145 1.386 . S
C144 C146 1.383 . S
C144 H160 0.951 1_455 S
C145 C144 1.386 . S
C145 C149 1.383 . S
C146 C144 1.383 . S
C146 C147 1.402 . S
C146 H161 0.951 1_455 S
C147 C146 1.402 . S
C147 C148 1.375 . S
C147 C150 1.481 . S
C148 C147 1.375 . S
C148 C149 1.367 . S
C148 H162 0.951 . S
C149 C145 1.383 . S
C149 C148 1.367 . S
C149 H163 0.950 . S
C150 C147 1.481 . S
C150 C151 1.297 . S
C150 H164 0.950 . S
C151 C150 1.297 . S
C151 C152 1.479 . S
C151 H165 0.950 1_455 S
C152 C151 1.479 . S
C152 C153 1.375 1_455 S
C152 C158 1.404 . S
C153 C152 1.375 1_655 S
C153 C154 1.369 . S
C153 H166 0.950 . S
C154 C153 1.369 . S
C154 C155 1.392 1_655 S
C154 H167 0.951 . S
C155 C154 1.392 1_455 S
C155 C157 1.384 . S
H156 C158 0.949 . S
C157 C155 1.384 . S
C157 C158 1.385 . S
C157 H159 0.950 . S
C158 C152 1.404 . S
C158 H156 0.949 . S
C158 C157 1.385 . S
H159 C157 0.950 . S
H160 C144 0.951 1_655 S
H161 C146 0.951 1_655 S
H162 C148 0.951 . S
H163 C149 0.950 . S
H164 C150 0.950 . S
H165 C151 0.950 1_655 S
H166 C153 0.950 . S
H167 C154 0.951 . S
C168 C169 1.386 . S
C168 C170 1.383 . S
C168 H184 0.951 . S
C169 C168 1.386 . S
C169 C173 1.383 1_545 S
C170 C168 1.383 . S
C170 C171 1.402 1_545 S
C170 H185 0.951 . S
C171 C170 1.402 1_565 S
C171 C172 1.375 . S
C171 C174 1.481 . S
C172 C171 1.375 . S
C172 C173 1.367 . S
C172 H186 0.951 . S
C173 C169 1.383 1_565 S
C173 C172 1.367 . S
C173 H187 0.950 . S
C174 C171 1.481 . S
C174 C175 1.297 1_565 S
C174 H188 0.950 . S
C175 C174 1.297 1_545 S
C175 C176 1.479 . S
C175 H189 0.950 . S
C176 C175 1.479 . S
C176 C177 1.375 . S
C176 C182 1.404 1_545 S
C177 C176 1.375 . S
C177 C178 1.369 . S
C177 H190 0.950 . S
C178 C177 1.369 . S
C178 C179 1.392 . S
C178 H191 0.951 . S
C179 C178 1.392 . S
C179 C181 1.384 1_545 S
H180 C182 0.949 . S
C181 C179 1.384 1_565 S
C181 C182 1.385 . S
C181 H183 0.950 . S
C182 C176 1.404 1_565 S
C182 H180 0.949 . S
C182 C181 1.385 . S
H183 C181 0.950 . S
H184 C168 0.951 . S
H185 C170 0.951 . S
H186 C172 0.951 . S
H187 C173 0.950 . S
H188 C174 0.950 . S
H189 C175 0.950 . S
H190 C177 0.950 . S
H191 C178 0.951 . S
C192 C193 1.386 . S
C192 C194 1.383 . S
C192 H208 0.951 . S
C193 C192 1.386 . S
C193 C197 1.383 . S
C194 C192 1.383 . S
C194 C195 1.402 . S
C194 H209 0.951 . S
C195 C194 1.402 . S
C195 C196 1.375 . S
C195 C198 1.481 . S
C196 C195 1.375 . S
C196 C197 1.367 . S
C196 H210 0.951 1_455 S
C197 C193 1.383 . S
C197 C196 1.367 . S
C197 H211 0.950 1_455 S
C198 C195 1.481 . S
C198 C199 1.297 . S
C198 H212 0.950 . S
C199 C198 1.297 . S
C199 C200 1.479 . S
C199 H213 0.950 . S
C200 C199 1.479 . S
C200 C201 1.375 . S
C200 C206 1.404 . S
C201 C200 1.375 . S
C201 C202 1.369 . S
C201 H214 0.950 . S
C202 C201 1.369 . S
C202 C203 1.392 . S
C202 H215 0.951 . S
C203 C202 1.392 . S
C203 C205 1.384 . S
H204 C206 0.949 . S
C205 C203 1.384 . S
C205 C206 1.385 . S
C205 H207 0.950 1_455 S
C206 C200 1.404 . S
C206 H204 0.949 . S
C206 C205 1.385 . S
H207 C205 0.950 1_655 S
H208 C192 0.951 . S
H209 C194 0.951 . S
H210 C196 0.951 1_655 S
H211 C197 0.950 1_655 S
H212 C198 0.950 . S
H213 C199 0.950 . S
H214 C201 0.950 . S
H215 C202 0.951 . S
C216 C217 1.386 1_565 S
C216 C218 1.383 . S
C216 H232 0.951 . S
C217 C216 1.386 1_545 S
C217 C221 1.383 . S
C218 C216 1.383 . S
C218 C219 1.402 1_565 S
C218 H233 0.951 . S
C219 C218 1.402 1_545 S
C219 C220 1.375 . S
C219 C222 1.481 . S
C220 C219 1.375 . S
C220 C221 1.367 . S
C220 H234 0.951 . S
C221 C217 1.383 . S
C221 C220 1.367 . S
C221 H235 0.950 . S
C222 C219 1.481 . S
C222 C223 1.297 . S
C222 H236 0.950 . S
C223 C222 1.297 . S
C223 C224 1.479 . S
C223 H237 0.950 1_545 S
C224 C223 1.479 . S
C224 C225 1.375 1_545 S
C224 C230 1.404 . S
C225 C224 1.375 1_565 S
C225 C226 1.369 . S
C225 H238 0.950 . S
C226 C225 1.369 . S
C226 C227 1.392 1_565 S
C226 H239 0.951 . S
C227 C226 1.392 1_545 S
C227 C229 1.384 . S
H228 C230 0.949 . S
C229 C227 1.384 . S
C229 C230 1.385 . S
C229 H231 0.950 . S
C230 C224 1.404 . S
C230 H228 0.949 . S
C230 C229 1.385 . S
H231 C229 0.950 . S
H232 C216 0.951 . S
H233 C218 0.951 . S
H234 C220 0.951 . S
H235 C221 0.950 . S
H236 C222 0.950 . S
H237 C223 0.950 1_565 S
H238 C225 0.950 . S
H239 C226 0.951 . S
C240 C241 1.386 . S
C240 C242 1.383 . S
C240 H256 0.951 1_455 S
C241 C240 1.386 . S
C241 C245 1.383 . S
C242 C240 1.383 . S
C242 C243 1.402 . S
C242 H257 0.939 1_455 S
C243 C242 1.402 . S
C243 C244 1.375 . S
C243 C246 1.481 . S
C244 C243 1.375 . S
C244 C245 1.367 . S
C244 H258 0.951 . S
C245 C241 1.383 . S
C245 C244 1.367 . S
C245 H259 0.950 . S
C246 C243 1.481 . S
C246 C247 1.297 . S
C246 H260 0.950 . S
C247 C246 1.297 . S
C247 C248 1.479 . S
C247 H261 0.950 . S
C248 C247 1.479 . S
C248 C249 1.375 . S
C248 C254 1.404 . S
C249 C248 1.375 . S
C249 C250 1.369 . S
C249 H262 0.950 1_455 S
C250 C249 1.369 . S
C250 C251 1.392 . S
C250 H263 0.951 1_455 S
C251 C250 1.392 . S
C251 C253 1.384 . S
H252 C254 0.949 . S
C253 C251 1.384 . S
C253 C254 1.385 . S
C253 H255 0.950 . S
C254 C248 1.404 . S
C254 H252 0.949 . S
C254 C253 1.385 . S
H255 C253 0.950 . S
H256 C240 0.951 1_655 S
H257 C242 0.939 1_655 S
H258 C244 0.951 . S
H259 C245 0.950 . S
H260 C246 0.950 . S
H261 C247 0.950 . S
H262 C249 0.950 1_655 S
H263 C250 0.951 1_655 S
C264 C265 1.386 . S
C264 C266 1.383 . S
C264 H280 0.951 . S
C265 C264 1.386 . S
C265 C269 1.383 1_545 S
C266 C264 1.383 . S
C266 C267 1.395 1_545 S
C266 H281 0.951 . S
C267 C266 1.395 1_565 S
C267 C268 1.379 . S
C267 C270 1.482 . S
C268 C267 1.379 . S
C268 C269 1.367 . S
C268 H282 0.951 . S
C269 C265 1.383 1_565 S
C269 C268 1.367 . S
C269 H283 0.950 . S
C270 C267 1.482 . S
C270 C271 1.297 1_565 S
C270 H284 0.950 . S
C271 C270 1.297 1_545 S
C271 C272 1.479 . S
C271 H285 0.950 . S
C272 C271 1.479 . S
C272 C273 1.375 . S
C272 C278 1.404 1_545 S
C273 C272 1.375 . S
C273 C274 1.369 . S
C273 H286 0.950 . S
C274 C273 1.369 . S
C274 C275 1.392 . S
C274 H287 0.951 . S
C275 C274 1.392 . S
C275 C277 1.384 1_545 S
H276 C278 0.949 . S
C277 C275 1.384 1_565 S
C277 C278 1.385 . S
C277 H279 0.950 . S
C278 C272 1.404 1_565 S
C278 H276 0.949 . S
C278 C277 1.385 . S
H279 C277 0.950 . S
H280 C264 0.951 . S
H281 C266 0.951 . S
H282 C268 0.951 . S
H283 C269 0.950 . S
H284 C270 0.950 . S
H285 C271 0.950 . S
H286 C273 0.950 . S
H287 C274 0.951 . S
C288 C289 1.386 . S
C288 C290 1.383 . S
C288 H304 0.951 . S
C289 C288 1.386 . S
C289 C293 1.383 . S
C290 C288 1.383 . S
C290 C291 1.402 . S
C290 H305 0.951 . S
C291 C290 1.402 . S
C291 C292 1.375 . S
C291 C294 1.481 . S
C292 C291 1.375 . S
C292 C293 1.367 . S
C292 H306 0.951 1_455 S
C293 C289 1.383 . S
C293 C292 1.367 . S
C293 H307 0.950 1_455 S
C294 C291 1.481 . S
C294 C295 1.297 . S
C294 H308 0.950 . S
C295 C294 1.297 . S
C295 C296 1.479 . S
C295 H309 0.950 . S
C296 C295 1.479 . S
C296 C297 1.375 . S
C296 C302 1.404 . S
C297 C296 1.375 . S
C297 C298 1.369 . S
C297 H310 0.950 . S
C298 C297 1.369 . S
C298 C299 1.392 . S
C298 H311 0.951 . S
C299 C298 1.392 . S
C299 C301 1.384 . S
H300 C302 0.949 . S
C301 C299 1.384 . S
C301 C302 1.385 . S
C301 H303 0.950 . S
C302 C296 1.404 . S
C302 H300 0.949 . S
C302 C301 1.385 . S
H303 C301 0.950 . S
H304 C288 0.951 . S
H305 C290 0.951 . S
H306 C292 0.951 1_655 S
H307 C293 0.950 1_655 S
H308 C294 0.950 . S
H309 C295 0.950 . S
H310 C297 0.950 . S
H311 C298 0.951 . S
C131 C97 1.252 . S
C121 C15 1.505 . S
C155 C117 1.479 . S
C145 C68 1.488 . S
C179 C96 1.411 . S
C169 C8 1.503 . S
C203 C118 1.498 . S
C193 C47 1.499 . S
C227 C110 1.494 . S
C217 C22 1.498 . S
C251 C103 1.465 . S
C241 C61 1.494 . S
C275 C111 1.296 . S
C265 C1 1.502 . S
C289 C54 1.507 . S
C299 C104 1.494 . S
