# Generated by pormake.
# Topology eea, (3,6)-cn, num edge types: 1
# Building blocks:
#     Node 0, Type 0, BuildingBlock: BETDIP_clean_linker_0, # of connection points: 3
#     Node 1, Type 0, BuildingBlock: BETDIP_clean_linker_0, # of connection points: 3
#     Node 2, Type 0, BuildingBlock: BETDIP_clean_linker_0, # of connection points: 3
#     Node 3, Type 0, BuildingBlock: BETDIP_clean_linker_0, # of connection points: 3
#     Node 4, Type 0, BuildingBlock: BETDIP_clean_linker_0, # of connection points: 3
#     Node 5, Type 0, BuildingBlock: BETDIP_clean_linker_0, # of connection points: 3
#     Node 6, Type 0, BuildingBlock: BETDIP_clean_linker_0, # of connection points: 3
#     Node 7, Type 0, BuildingBlock: BETDIP_clean_linker_0, # of connection points: 3
#     Node 8, Type 0, BuildingBlock: BETDIP_clean_linker_0, # of connection points: 3
#     Node 9, Type 0, BuildingBlock: BETDIP_clean_linker_0, # of connection points: 3
#     Node 10, Type 0, BuildingBlock: BETDIP_clean_linker_0, # of connection points: 3
#     Node 11, Type 0, BuildingBlock: BETDIP_clean_linker_0, # of connection points: 3
#     Node 12, Type 0, BuildingBlock: BETDIP_clean_linker_0, # of connection points: 3
#     Node 13, Type 0, BuildingBlock: BETDIP_clean_linker_0, # of connection points: 3
#     Node 14, Type 0, BuildingBlock: BETDIP_clean_linker_0, # of connection points: 3
#     Node 15, Type 0, BuildingBlock: BETDIP_clean_linker_0, # of connection points: 3
#     Node 16, Type 0, BuildingBlock: BETDIP_clean_linker_0, # of connection points: 3
#     Node 17, Type 0, BuildingBlock: BETDIP_clean_linker_0, # of connection points: 3
#     Node 18, Type 1, BuildingBlock: HISSIN_clean_sbu_0, # of connection points: 6
#     Node 19, Type 1, BuildingBlock: HISSIN_clean_sbu_0, # of connection points: 6
#     Node 20, Type 1, BuildingBlock: HISSIN_clean_sbu_0, # of connection points: 6
#     Node 21, Type 1, BuildingBlock: HISSIN_clean_sbu_0, # of connection points: 6
#     Node 22, Type 1, BuildingBlock: HISSIN_clean_sbu_0, # of connection points: 6
#     Node 23, Type 1, BuildingBlock: HISSIN_clean_sbu_0, # of connection points: 6
#     Node 24, Type 1, BuildingBlock: HISSIN_clean_sbu_0, # of connection points: 6
#     Node 25, Type 1, BuildingBlock: HISSIN_clean_sbu_0, # of connection points: 6
#     Node 26, Type 1, BuildingBlock: HISSIN_clean_sbu_0, # of connection points: 6
#     Edge 27, Type (0, 1), BuildingBlock: OJICUG_clean_linker_0, # of connection points: 2
#     Edge 28, Type (0, 1), BuildingBlock: OJICUG_clean_linker_0, # of connection points: 2
#     Edge 29, Type (0, 1), BuildingBlock: OJICUG_clean_linker_0, # of connection points: 2
#     Edge 30, Type (0, 1), BuildingBlock: OJICUG_clean_linker_0, # of connection points: 2
#     Edge 31, Type (0, 1), BuildingBlock: OJICUG_clean_linker_0, # of connection points: 2
#     Edge 32, Type (0, 1), BuildingBlock: OJICUG_clean_linker_0, # of connection points: 2
#     Edge 33, Type (0, 1), BuildingBlock: OJICUG_clean_linker_0, # of connection points: 2
#     Edge 34, Type (0, 1), BuildingBlock: OJICUG_clean_linker_0, # of connection points: 2
#     Edge 35, Type (0, 1), BuildingBlock: OJICUG_clean_linker_0, # of connection points: 2
#     Edge 36, Type (0, 1), BuildingBlock: OJICUG_clean_linker_0, # of connection points: 2
#     Edge 37, Type (0, 1), BuildingBlock: OJICUG_clean_linker_0, # of connection points: 2
#     Edge 38, Type (0, 1), BuildingBlock: OJICUG_clean_linker_0, # of connection points: 2
#     Edge 39, Type (0, 1), BuildingBlock: OJICUG_clean_linker_0, # of connection points: 2
#     Edge 40, Type (0, 1), BuildingBlock: OJICUG_clean_linker_0, # of connection points: 2
#     Edge 41, Type (0, 1), BuildingBlock: OJICUG_clean_linker_0, # of connection points: 2
#     Edge 42, Type (0, 1), BuildingBlock: OJICUG_clean_linker_0, # of connection points: 2
#     Edge 43, Type (0, 1), BuildingBlock: OJICUG_clean_linker_0, # of connection points: 2
#     Edge 44, Type (0, 1), BuildingBlock: OJICUG_clean_linker_0, # of connection points: 2
#     Edge 45, Type (0, 1), BuildingBlock: OJICUG_clean_linker_0, # of connection points: 2
#     Edge 46, Type (0, 1), BuildingBlock: OJICUG_clean_linker_0, # of connection points: 2
#     Edge 47, Type (0, 1), BuildingBlock: OJICUG_clean_linker_0, # of connection points: 2
#     Edge 48, Type (0, 1), BuildingBlock: OJICUG_clean_linker_0, # of connection points: 2
#     Edge 49, Type (0, 1), BuildingBlock: OJICUG_clean_linker_0, # of connection points: 2
#     Edge 50, Type (0, 1), BuildingBlock: OJICUG_clean_linker_0, # of connection points: 2
#     Edge 51, Type (0, 1), BuildingBlock: OJICUG_clean_linker_0, # of connection points: 2
#     Edge 52, Type (0, 1), BuildingBlock: OJICUG_clean_linker_0, # of connection points: 2
#     Edge 53, Type (0, 1), BuildingBlock: OJICUG_clean_linker_0, # of connection points: 2
#     Edge 54, Type (0, 1), BuildingBlock: OJICUG_clean_linker_0, # of connection points: 2
#     Edge 55, Type (0, 1), BuildingBlock: OJICUG_clean_linker_0, # of connection points: 2
#     Edge 56, Type (0, 1), BuildingBlock: OJICUG_clean_linker_0, # of connection points: 2
#     Edge 57, Type (0, 1), BuildingBlock: OJICUG_clean_linker_0, # of connection points: 2
#     Edge 58, Type (0, 1), BuildingBlock: OJICUG_clean_linker_0, # of connection points: 2
#     Edge 59, Type (0, 1), BuildingBlock: OJICUG_clean_linker_0, # of connection points: 2
#     Edge 60, Type (0, 1), BuildingBlock: OJICUG_clean_linker_0, # of connection points: 2
#     Edge 61, Type (0, 1), BuildingBlock: OJICUG_clean_linker_0, # of connection points: 2
#     Edge 62, Type (0, 1), BuildingBlock: OJICUG_clean_linker_0, # of connection points: 2
#     Edge 63, Type (0, 1), BuildingBlock: OJICUG_clean_linker_0, # of connection points: 2
#     Edge 64, Type (0, 1), BuildingBlock: OJICUG_clean_linker_0, # of connection points: 2
#     Edge 65, Type (0, 1), BuildingBlock: OJICUG_clean_linker_0, # of connection points: 2
#     Edge 66, Type (0, 1), BuildingBlock: OJICUG_clean_linker_0, # of connection points: 2
#     Edge 67, Type (0, 1), BuildingBlock: OJICUG_clean_linker_0, # of connection points: 2
#     Edge 68, Type (0, 1), BuildingBlock: OJICUG_clean_linker_0, # of connection points: 2
#     Edge 69, Type (0, 1), BuildingBlock: OJICUG_clean_linker_0, # of connection points: 2
#     Edge 70, Type (0, 1), BuildingBlock: OJICUG_clean_linker_0, # of connection points: 2
#     Edge 71, Type (0, 1), BuildingBlock: OJICUG_clean_linker_0, # of connection points: 2
#     Edge 72, Type (0, 1), BuildingBlock: OJICUG_clean_linker_0, # of connection points: 2
#     Edge 73, Type (0, 1), BuildingBlock: OJICUG_clean_linker_0, # of connection points: 2
#     Edge 74, Type (0, 1), BuildingBlock: OJICUG_clean_linker_0, # of connection points: 2
#     Edge 75, Type (0, 1), BuildingBlock: OJICUG_clean_linker_0, # of connection points: 2
#     Edge 76, Type (0, 1), BuildingBlock: OJICUG_clean_linker_0, # of connection points: 2
#     Edge 77, Type (0, 1), BuildingBlock: OJICUG_clean_linker_0, # of connection points: 2
#     Edge 78, Type (0, 1), BuildingBlock: OJICUG_clean_linker_0, # of connection points: 2
#     Edge 79, Type (0, 1), BuildingBlock: OJICUG_clean_linker_0, # of connection points: 2
#     Edge 80, Type (0, 1), BuildingBlock: OJICUG_clean_linker_0, # of connection points: 2
# Relax obj value: 0.062
# Max RMSD: 0.228
# Mean RMSD: 0.162
data_MOF--net-eea--node1-HISSIN_clean_sbu_0--node2-BETDIP_clean_linker_0--edge1-OJICUG_clean_linker_0
_symmetry_space_group_name_H-M    P1
_symmetry_Int_Tables_number       1
_symmetry_cell_setting            triclinic
loop_
_symmetry_equiv_pos_as_xyz
'x, y, z'
_cell_length_a     39.371588
_cell_length_b     39.836001
_cell_length_c     54.726825
_cell_angle_alpha  92.669007
_cell_angle_beta   92.495998
_cell_angle_gamma 120.05005
loop_
_atom_site_label
_atom_site_type_symbol
_atom_site_fract_x
_atom_site_fract_y
_atom_site_fract_z
_atom_type_partial_charge
H0 H 0.23482 0.09875 0.3729 0.0
H1 H 0.29185 0.18457 0.43391 0.0
H2 H 0.29695 0.08006 0.43277 0.0
H3 H 0.28675 0.22395 0.411 0.0
C4 C 0.26331 0.20794 0.39667 0.0
C5 C 0.2529 0.10858 0.39008 0.0
C6 C 0.26425 0.08427 0.40142 0.0
C7 C 0.26367 0.14539 0.40111 0.0
C8 C 0.28483 0.15734 0.42429 0.0
C9 C 0.29665 0.13373 0.43574 0.0
C10 C 0.28728 0.0979 0.42391 0.0
N11 N 0.25104 0.16863 0.38902 0.0
H12 H 0.93629 0.13421 0.38065 0.0
H13 H 0.85824 0.11243 0.43763 0.0
H14 H 0.95689 0.22715 0.43406 0.0
H15 H 0.85114 0.05215 0.43174 0.0
C16 C 0.848 0.04835 0.41182 0.0
C17 C 0.92806 0.14518 0.39642 0.0
C18 C 0.95126 0.18437 0.40568 0.0
C19 C 0.89486 0.11913 0.40793 0.0
C20 C 0.88409 0.13236 0.42877 0.0
C21 C 0.90666 0.17114 0.43851 0.0
C22 C 0.94007 0.19703 0.42681 0.0
N23 N 0.87246 0.07985 0.39795 0.0
H24 H 0.88705 0.78959 0.38117 0.0
H25 H 0.92427 0.74955 0.44273 0.0
H26 H 0.81431 0.74795 0.44182 0.0
H27 H 0.98451 0.79229 0.43136 0.0
C28 C 0.98187 0.79118 0.41146 0.0
C29 C 0.88173 0.778 0.39902 0.0
C30 C 0.84705 0.76985 0.41006 0.0
C31 C 0.91021 0.77182 0.41081 0.0
C32 C 0.90306 0.75545 0.43367 0.0
C33 C 0.86833 0.74658 0.44497 0.0
C34 C 0.84079 0.75423 0.43307 0.0
N35 N 0.94548 0.78233 0.39907 0.0
H36 H 0.09317 0.21463 0.63659 0.0
H37 H 0.16986 0.26128 0.57875 0.0
H38 H 0.06221 0.26405 0.57695 0.0
H39 H 0.18337 0.21405 0.58748 0.0
C40 C 0.18456 0.21508 0.60739 0.0
C41 C 0.0991 0.2281 0.61936 0.0
C42 C 0.07265 0.23799 0.60818 0.0
C43 C 0.13342 0.23518 0.60853 0.0
C44 C 0.14278 0.25452 0.58684 0.0
C45 C 0.11747 0.26545 0.57546 0.0
C46 C 0.08212 0.25641 0.58601 0.0
N47 N 0.15823 0.22304 0.62005 0.0
H48 H 0.78266 0.87233 0.65244 0.0
H49 H 0.74359 0.89993 0.58574 0.0
H50 H 0.74356 0.7928 0.58748 0.0
H51 H 0.73491 0.93972 0.60965 0.0
C52 C 0.75844 0.95058 0.62414 0.0
C53 C 0.77112 0.86452 0.63342 0.0
C54 C 0.76391 0.8291 0.62165 0.0
C55 C 0.76325 0.89002 0.62084 0.0
C56 C 0.74873 0.88024 0.59608 0.0
C57 C 0.7409 0.84493 0.58419 0.0
C58 C 0.74842 0.81947 0.59704 0.0
N59 N 0.77181 0.92596 0.63317 0.0
H60 H 0.13837 0.9172 0.6409 0.0
H61 H 0.10391 0.82663 0.58328 0.0
H62 H 0.21617 0.93089 0.58432 0.0
H63 H 0.04339 0.8127 0.59331 0.0
C64 C 0.04586 0.81754 0.61316 0.0
C65 C 0.14529 0.90619 0.62454 0.0
C66 C 0.18109 0.92912 0.614 0.0
C67 C 0.11718 0.86942 0.61367 0.0
C68 C 0.12495 0.85518 0.5918 0.0
C69 C 0.16066 0.87748 0.58111 0.0
C70 C 0.1886 0.91398 0.59253 0.0
N71 N 0.08165 0.84763 0.62534 0.0
H72 H 0.90711 0.43565 0.70206 0.0
H73 H 0.95656 0.51613 0.76596 0.0
H74 H 0.95727 0.4087 0.76442 0.0
H75 H 0.90258 0.52175 0.75592 0.0
C76 C 0.90415 0.52412 0.73624 0.0
C77 C 0.92184 0.44329 0.72034 0.0
C78 C 0.93205 0.41806 0.73143 0.0
C79 C 0.92925 0.4779 0.733 0.0
C80 C 0.94913 0.48856 0.75651 0.0
C81 C 0.95971 0.46392 0.7679 0.0
C82 C 0.95091 0.42868 0.75525 0.0
N83 N 0.91538 0.50094 0.72211 0.0
H84 H 0.5988 0.46956 0.71168 0.0
H85 H 0.52564 0.44541 0.77163 0.0
H86 H 0.62961 0.55744 0.77126 0.0
H87 H 0.51811 0.38511 0.76372 0.0
C88 C 0.51334 0.38204 0.74383 0.0
C89 C 0.59332 0.47913 0.72916 0.0
C90 C 0.61895 0.5171 0.7399 0.0
C91 C 0.56052 0.45284 0.74088 0.0
C92 C 0.55168 0.46522 0.76287 0.0
C93 C 0.57615 0.50305 0.77376 0.0
C94 C 0.61018 0.52861 0.76246 0.0
N95 N 0.53648 0.41423 0.73005 0.0
H96 H 0.55214 0.12275 0.71342 0.0
H97 H 0.58905 0.08153 0.77446 0.0
H98 H 0.47917 0.08009 0.77389 0.0
H99 H 0.64951 0.12376 0.76299 0.0
C100 C 0.64672 0.12317 0.74312 0.0
C101 C 0.54676 0.11089 0.73118 0.0
C102 C 0.51204 0.1026 0.74225 0.0
C103 C 0.57515 0.10442 0.74282 0.0
C104 C 0.5679 0.08764 0.76554 0.0
C105 C 0.53311 0.07855 0.77685 0.0
C106 C 0.50568 0.08653 0.76513 0.0
N107 N 0.61035 0.11496 0.73098 0.0
H108 H 0.75649 0.54274 0.96913 0.0
H109 H 0.83239 0.59127 0.91106 0.0
H110 H 0.72622 0.59626 0.91179 0.0
H111 H 0.85527 0.55381 0.921 0.0
C112 C 0.85116 0.54837 0.94018 0.0
C113 C 0.76239 0.55699 0.95218 0.0
C114 C 0.73647 0.56828 0.94196 0.0
C115 C 0.79639 0.56405 0.94092 0.0
C116 C 0.8057 0.58445 0.91962 0.0
C117 C 0.7807 0.59644 0.90907 0.0
C118 C 0.74583 0.58765 0.92014 0.0
N119 N 0.8208 0.5509 0.95184 0.0
H120 H 0.45555 0.2053 0.98294 0.0
H121 H 0.4065 0.23143 0.92011 0.0
H122 H 0.40146 0.1219 0.91985 0.0
H123 H 0.39993 0.27059 0.94587 0.0
C124 C 0.42523 0.28187 0.9591 0.0
C125 C 0.43974 0.19621 0.96498 0.0
C126 C 0.43009 0.16011 0.9529 0.0
C127 C 0.43 0.22152 0.95376 0.0
C128 C 0.4122 0.21146 0.92972 0.0
C129 C 0.40216 0.17574 0.91746 0.0
C130 C 0.41003 0.14975 0.92937 0.0
N131 N 0.44036 0.25778 0.96644 0.0
H132 H 0.80409 0.24491 0.97497 0.0
H133 H 0.76698 0.1616 0.91231 0.0
H134 H 0.87499 0.2706 0.91336 0.0
H135 H 0.70728 0.14604 0.92482 0.0
C136 C 0.71043 0.14847 0.94474 0.0
C137 C 0.80941 0.23648 0.95707 0.0
C138 C 0.84281 0.2624 0.94546 0.0
C139 C 0.78151 0.20039 0.94521 0.0
C140 C 0.78789 0.18955 0.92164 0.0
C141 C 0.8213 0.21521 0.90988 0.0
C142 C 0.84867 0.2512 0.92209 0.0
N143 N 0.74703 0.17633 0.95724 0.0
H144 H 0.56502 0.76395 0.0398 0.0
H145 H 0.6194 0.84572 0.10309 0.0
H146 H 0.62451 0.74119 0.09911 0.0
H147 H 0.61293 0.88615 0.08205 0.0
C148 C 0.59219 0.87166 0.06619 0.0
C149 C 0.58228 0.77261 0.05727 0.0
C150 C 0.59251 0.74722 0.06818 0.0
C151 C 0.59306 0.80896 0.06913 0.0
C152 C 0.61311 0.81931 0.09268 0.0
C153 C 0.62368 0.79444 0.10369 0.0
C154 C 0.61461 0.75936 0.09094 0.0
N155 N 0.58143 0.8332 0.05735 0.0
H156 H 0.26165 0.80096 0.04293 0.0
H157 H 0.19646 0.7733 0.10693 0.0
H158 H 0.30205 0.88386 0.10637 0.0
H159 H 0.14624 0.73546 0.07927 0.0
C160 C 0.15911 0.7231 0.06727 0.0
C161 C 0.25854 0.80924 0.06147 0.0
C162 C 0.28644 0.84589 0.07303 0.0
C163 C 0.22578 0.78323 0.07333 0.0
C164 C 0.22113 0.79354 0.09731 0.0
C165 C 0.24819 0.82997 0.10918 0.0
C166 C 0.28071 0.85611 0.09693 0.0
N167 N 0.19848 0.74652 0.06095 0.0
H168 H 0.21886 0.4605 0.04866 0.0
H169 H 0.25455 0.41529 0.10813 0.0
H170 H 0.14356 0.41157 0.10731 0.0
H171 H 0.31498 0.45843 0.09736 0.0
C172 C 0.31239 0.45804 0.0775 0.0
C173 C 0.21279 0.44656 0.06574 0.0
C174 C 0.17782 0.4373 0.07674 0.0
C175 C 0.24097 0.43944 0.07702 0.0
C176 C 0.23345 0.42163 0.0994 0.0
C177 C 0.19851 0.41195 0.11066 0.0
C178 C 0.17097 0.41987 0.09911 0.0
N179 N 0.27634 0.45052 0.06528 0.0
H180 H 0.43075 0.88436 0.30637 0.0
H181 H 0.50268 0.92566 0.24593 0.0
H182 H 0.39452 0.92744 0.24547 0.0
H183 H 0.51763 0.87989 0.2557 0.0
C184 C 0.51981 0.88217 0.27563 0.0
C185 C 0.43524 0.89613 0.28859 0.0
C186 C 0.408 0.90506 0.27755 0.0
C187 C 0.46848 0.90197 0.27691 0.0
C188 C 0.47586 0.91891 0.25436 0.0
C189 C 0.44956 0.92859 0.24295 0.0
C190 C 0.41553 0.92129 0.25461 0.0
N191 N 0.49422 0.891 0.28846 0.0
H192 H 0.12508 0.54148 0.31588 0.0
H193 H 0.07503 0.56702 0.25329 0.0
H194 H 0.06923 0.45713 0.25337 0.0
H195 H 0.07086 0.60799 0.27846 0.0
C196 C 0.09562 0.61856 0.29203 0.0
C197 C 0.10889 0.53218 0.29804 0.0
C198 C 0.09876 0.49583 0.28615 0.0
C199 C 0.0992 0.55748 0.28681 0.0
C200 C 0.08085 0.54714 0.26291 0.0
C201 C 0.07024 0.51115 0.25081 0.0
C202 C 0.07821 0.48519 0.26274 0.0
N203 N 0.11001 0.59391 0.29942 0.0
H204 H 0.47497 0.57988 0.31029 0.0
H205 H 0.43812 0.49577 0.24827 0.0
H206 H 0.54781 0.60317 0.24966 0.0
H207 H 0.37768 0.48237 0.25906 0.0
C208 C 0.38015 0.48486 0.27899 0.0
C209 C 0.48042 0.57133 0.29247 0.0
C210 C 0.51529 0.59606 0.28159 0.0
C211 C 0.45189 0.53572 0.28038 0.0
C212 C 0.45911 0.52383 0.25745 0.0
C213 C 0.49424 0.54777 0.24659 0.0
C214 C 0.52174 0.58391 0.25864 0.0
N215 N 0.41647 0.51264 0.29187 0.0
Eu216 Eu 0.48329 0.98006 0.98239 0.0
Eu217 Eu 0.51133 0.02882 0.03773 0.0
C218 C 0.4746 0.05578 0.99503 0.0
C219 C 0.47551 0.96811 0.91359 0.0
C220 C 0.49185 0.00853 0.91345 0.0
C221 C 0.47874 0.96406 0.86933 0.0
C222 C 0.50161 0.02661 0.89146 0.0
C223 C 0.46898 0.94599 0.8914 0.0
C224 C 0.49531 0.00466 0.86907 0.0
C225 C 0.46758 0.94968 0.93706 0.0
O226 O 0.4456 0.98839 0.03556 0.0
O227 O 0.43814 0.9404 0.0072 0.0
C228 C 0.42552 0.95247 0.02561 0.0
O229 O 0.5211 0.96055 1.00228 0.0
O230 O 0.50115 0.05801 0.06897 0.0
O231 O 0.55097 0.04901 0.0711 0.0
O232 O 0.50862 0.97178 0.04131 0.0
C233 C 0.52169 0.95569 0.02581 0.0
O234 O 0.53514 0.03862 0.97813 0.0
O235 O 0.56641 0.05371 0.01665 0.0
O236 O 0.50027 0.06758 0.01417 0.0
O237 O 0.49882 0.95679 0.95067 0.0
O238 O 0.44194 0.95279 0.94989 0.0
O239 O 0.4594 0.02099 0.98352 0.0
C240 C 0.51685 0.04073 0.10727 0.0
C241 C 0.54002 0.02877 0.1203 0.0
C242 C 0.47014 0.01688 0.13893 0.0
C243 C 0.52815 0.01062 0.14213 0.0
C244 C 0.48198 0.03499 0.11704 0.0
C245 C 0.49287 0.00408 0.15164 0.0
C246 C 0.52852 0.05802 0.08334 0.0
C247 C 0.56719 0.05744 0.99285 0.0
H248 H 0.49756 0.0262 0.93044 0.0
H249 H 0.47301 0.94615 0.85245 0.0
H250 H 0.51482 0.05792 0.8921 0.0
H251 H 0.45662 0.91479 0.89115 0.0
H252 H 0.56726 0.03308 0.11351 0.0
H253 H 0.44271 0.01215 0.14561 0.0
H254 H 0.54681 0.00186 0.15165 0.0
H255 H 0.46347 0.04399 0.1076 0.0
Eu256 Eu 0.03348 0.4977 0.98507 0.0
Eu257 Eu 0.98597 0.47791 0.0354 0.0
C258 C 0.95705 0.41565 0.98927 0.0
C259 C 0.05358 0.50622 0.91832 0.0
C260 C 0.01336 0.49119 0.91213 0.0
C261 C 0.06556 0.51103 0.87518 0.0
C262 C 0.99926 0.48596 0.8876 0.0
C263 C 0.07963 0.51622 0.89978 0.0
C264 C 0.02518 0.49575 0.86881 0.0
C265 C 0.06806 0.5109 0.94409 0.0
O266 O 0.04502 0.48408 0.04565 0.0
O267 O 0.05582 0.46604 0.00785 0.0
C268 C 0.06304 0.47112 0.03178 0.0
O269 O 0.07246 0.54745 0.01286 0.0
O270 O 0.95893 0.43694 0.06319 0.0
O271 O 0.95814 0.49089 0.06522 0.0
O272 O 0.02482 0.54299 0.03739 0.0
C273 C 0.06008 0.56282 0.02947 0.0
O274 O 0.99177 0.52064 0.98112 0.0
O275 O 0.94574 0.48447 0.00776 0.0
O276 O 0.96509 0.42128 0.01307 0.0
O277 O 0.06629 0.5376 0.95777 0.0
O278 O 0.05565 0.47865 0.95483 0.0
O279 O 0.97459 0.44424 0.97511 0.0
C280 C 0.96577 0.46662 0.10284 0.0
C281 C 0.98067 0.50307 0.11585 0.0
C282 C 0.98107 0.44225 0.1392 0.0
C283 C 0.99616 0.50918 0.14015 0.0
C284 C 0.96539 0.43608 0.11493 0.0
C285 C 0.99719 0.47905 0.15197 0.0
C286 C 0.95193 0.46042 0.07657 0.0
C287 C 0.95679 0.50707 0.98946 0.0
H288 H 0.99283 0.48322 0.9263 0.0
H289 H 0.08632 0.51926 0.86117 0.0
H290 H 0.96795 0.47358 0.88334 0.0
H291 H 0.11079 0.52793 0.90432 0.0
H292 H 0.98097 0.52712 0.1072 0.0
H293 H 0.9816 0.41848 0.14768 0.0
H294 H 1.00754 0.53765 0.14964 0.0
H295 H 0.95376 0.40756 0.10543 0.0
Eu296 Eu 0.54141 0.51193 0.03494 0.0
Eu297 Eu 0.50858 0.52681 0.98181 0.0
C298 C 0.54646 0.59372 0.02541 0.0
C299 C 0.55416 0.5074 0.10306 0.0
C300 C 0.53149 0.52515 0.10669 0.0
C301 C 0.55548 0.49864 0.14662 0.0
C302 C 0.52067 0.5294 0.13012 0.0
C303 C 0.56612 0.49421 0.12313 0.0
C304 C 0.53245 0.51611 0.15037 0.0
C305 C 0.56307 0.50051 0.07815 0.0
O306 O 0.57419 0.55162 0.98104 0.0
O307 O 0.58343 0.51359 0.00759 0.0
C308 C 0.59479 0.53636 0.98943 0.0
O309 O 0.50131 0.45308 0.01561 0.0
O310 O 0.51456 0.56626 0.95384 0.0
O311 O 0.4697 0.50547 0.9481 0.0
O312 O 0.50772 0.47015 0.97598 0.0
C313 C 0.49785 0.44393 0.99199 0.0
O314 O 0.48737 0.5147 0.04276 0.0
O315 O 0.45518 0.49966 1.00428 0.0
O316 O 0.51894 0.57714 0.00736 0.0
O317 O 0.533 0.47391 0.06423 0.0
O318 O 0.58459 0.53131 0.06657 0.0
O319 O 0.56382 0.57623 0.03532 0.0
C320 C 0.50294 0.53669 0.91401 0.0
C321 C 0.53173 0.52605 0.91164 0.0
C322 C 0.50203 0.54456 0.87032 0.0
C323 C 0.5454 0.52441 0.88872 0.0
C324 C 0.48837 0.54619 0.89328 0.0
C325 C 0.53055 0.53342 0.86773 0.0
C326 C 0.48883 0.5385 0.93818 0.0
C327 C 0.45518 0.50265 0.02839 0.0
H328 H 0.52193 0.53545 0.09136 0.0
H329 H 0.56475 0.48783 0.1618 0.0
H330 H 0.50345 0.5435 0.13242 0.0
H331 H 0.58328 0.48009 0.12058 0.0
H332 H 0.54342 0.51875 0.92752 0.0
H333 H 0.49031 0.55212 0.85459 0.0
H334 H 0.56691 0.51519 0.88738 0.0
H335 H 0.4664 0.5548 0.89485 0.0
Eu336 Eu 0.15088 0.31553 0.31618 0.0
Eu337 Eu 0.18122 0.36506 0.37156 0.0
C338 C 0.14358 0.39197 0.3288 0.0
C339 C 0.14209 0.30245 0.24748 0.0
C340 C 0.15897 0.3429 0.24721 0.0
C341 C 0.14474 0.29776 0.20322 0.0
C342 C 0.16863 0.36068 0.22514 0.0
C343 C 0.13504 0.27998 0.22537 0.0
C344 C 0.16169 0.33837 0.20282 0.0
C345 C 0.13399 0.28435 0.27102 0.0
O346 O 0.1161 0.3238 0.37166 0.0
O347 O 0.1043 0.2771 0.34072 0.0
C348 C 0.09413 0.28886 0.36054 0.0
O349 O 0.18767 0.29472 0.33572 0.0
O350 O 0.17337 0.39619 0.40272 0.0
O351 O 0.22139 0.38447 0.40464 0.0
O352 O 0.17798 0.30775 0.37514 0.0
C353 C 0.18932 0.29047 0.35927 0.0
O354 O 0.20382 0.37346 0.31147 0.0
O355 O 0.23551 0.38886 0.34994 0.0
O356 O 0.16901 0.4034 0.34808 0.0
O357 O 0.1651 0.29086 0.28452 0.0
O358 O 0.10904 0.28857 0.2839 0.0
O359 O 0.1283 0.35734 0.31712 0.0
C360 C 0.18766 0.37761 0.44026 0.0
C361 C 0.16165 0.33739 0.44022 0.0
C362 C 0.18883 0.38303 0.48478 0.0
C363 C 0.14923 0.32011 0.46225 0.0
C364 C 0.20109 0.40033 0.46267 0.0
C365 C 0.16276 0.34266 0.48486 0.0
C366 C 0.20049 0.3955 0.4169 0.0
C367 C 0.23602 0.39234 0.32612 0.0
H368 H 0.1651 0.36082 0.26414 0.0
H369 H 0.13859 0.27965 0.18637 0.0
H370 H 0.18218 0.39202 0.22564 0.0
H371 H 0.12227 0.24874 0.22526 0.0
H372 H 0.15114 0.3193 0.42309 0.0
H373 H 0.19953 0.40134 0.50181 0.0
H374 H 0.12963 0.28893 0.46159 0.0
H375 H 0.22107 0.43142 0.46307 0.0
Eu376 Eu 0.70444 0.83456 0.31965 0.0
Eu377 Eu 0.6571 0.81382 0.36962 0.0
C378 C 0.62768 0.75109 0.32438 0.0
C379 C 0.72292 0.84174 0.25288 0.0
C380 C 0.68218 0.81933 0.24718 0.0
C381 C 0.73269 0.85009 0.20965 0.0
C382 C 0.66674 0.81228 0.22288 0.0
C383 C 0.74814 0.85714 0.23406 0.0
C384 C 0.69181 0.82753 0.20383 0.0
C385 C 0.73862 0.85044 0.27855 0.0
O386 O 0.69791 0.7891 0.37146 0.0
O387 O 0.74538 0.8309 0.34783 0.0
C388 C 0.734 0.80564 0.36452 0.0
O389 O 0.72677 0.89146 0.34218 0.0
O390 O 0.62474 0.7717 0.39592 0.0
O391 O 0.63524 0.83049 0.40111 0.0
O392 O 0.71494 0.86818 0.38012 0.0
C393 C 0.73329 0.89688 0.36615 0.0
O394 O 0.64699 0.83145 0.30958 0.0
O395 O 0.63359 0.84572 0.34773 0.0
O396 O 0.61629 0.76755 0.34079 0.0
O397 O 0.731 0.87415 0.29113 0.0
O398 O 0.73255 0.82057 0.29052 0.0
O399 O 0.66375 0.76923 0.31741 0.0
C400 C 0.64049 0.8011 0.43593 0.0
C401 C 0.68123 0.81695 0.44032 0.0
C402 C 0.633 0.79408 0.47943 0.0
C403 C 0.69785 0.82183 0.46416 0.0
C404 C 0.61637 0.78934 0.45551 0.0
C405 C 0.67397 0.81083 0.48399 0.0
C406 C 0.62374 0.79758 0.41091 0.0
C407 C 0.62832 0.84332 0.32366 0.0
H408 H 0.66229 0.8076 0.26159 0.0
H409 H 0.75271 0.8619 0.19534 0.0
H410 H 0.6351 0.79532 0.21903 0.0
H411 H 0.77967 0.87472 0.23825 0.0
H412 H 0.70021 0.82593 0.42531 0.0
H413 H 0.61397 0.78568 0.49441 0.0
H414 H 0.72941 0.83435 0.46709 0.0
H415 H 0.58486 0.777 0.45234 0.0
Eu416 Eu 0.21179 0.84714 0.37 0.0
Eu417 Eu 0.18001 0.86255 0.31667 0.0
C418 C 0.21697 0.9293 0.36051 0.0
C419 C 0.22292 0.83991 0.43804 0.0
C420 C 0.20029 0.85757 0.44206 0.0
C421 C 0.22264 0.82833 0.48123 0.0
C422 C 0.18874 0.86046 0.46549 0.0
C423 C 0.23403 0.82531 0.45772 0.0
C424 C 0.1997 0.8458 0.48536 0.0
C425 C 0.23272 0.83455 0.41309 0.0
O426 O 0.24578 0.88823 0.3167 0.0
O427 O 0.25465 0.84974 0.34298 0.0
C428 C 0.26636 0.87296 0.32507 0.0
O429 O 0.17118 0.7886 0.35042 0.0
O430 O 0.18726 0.90119 0.28786 0.0
O431 O 0.14124 0.84079 0.28293 0.0
O432 O 0.18042 0.80655 0.31112 0.0
C433 C 0.16901 0.77985 0.32685 0.0
O434 O 0.1576 0.84977 0.37755 0.0
O435 O 0.12615 0.83559 0.33885 0.0
O436 O 0.19037 0.91322 0.3419 0.0
O437 O 0.20328 0.80812 0.39869 0.0
O438 O 0.25402 0.86611 0.40211 0.0
O439 O 0.23353 0.91141 0.37094 0.0
C440 C 0.17668 0.86913 0.2489 0.0
C441 C 0.20346 0.85566 0.24824 0.0
C442 C 0.17988 0.87561 0.20501 0.0
C443 C 0.21805 0.8518 0.22612 0.0
C444 C 0.16517 0.87936 0.22721 0.0
C445 C 0.20624 0.86146 0.20419 0.0
C446 C 0.16163 0.87303 0.27237 0.0
C447 C 0.1257 0.83811 0.36296 0.0
H448 H 0.19134 0.8689 0.42702 0.0
H449 H 0.23129 0.81649 0.49609 0.0
H450 H 0.17165 0.87463 0.46809 0.0
H451 H 0.25114 0.81121 0.45487 0.0
H452 H 0.21303 0.84802 0.26489 0.0
H453 H 0.16991 0.88293 0.18841 0.0
H454 H 0.23867 0.84131 0.22619 0.0
H455 H 0.14467 0.88999 0.22742 0.0
Eu456 Eu 0.81806 0.65109 0.65141 0.0
Eu457 Eu 0.8467 0.69955 0.70622 0.0
C458 C 0.80845 0.72552 0.66452 0.0
C459 C 0.81008 0.639 0.58249 0.0
C460 C 0.82669 0.67941 0.5821 0.0
C461 C 0.81373 0.63423 0.53831 0.0
C462 C 0.83682 0.69714 0.56001 0.0
C463 C 0.80365 0.61652 0.56046 0.0
C464 C 0.83056 0.67482 0.53779 0.0
C465 C 0.80173 0.62084 0.60601 0.0
O466 O 0.78071 0.65939 0.70429 0.0
O467 O 0.77306 0.61114 0.67607 0.0
C468 C 0.76046 0.6234 0.69439 0.0
O469 O 0.8542 0.62971 0.67146 0.0
O470 O 0.83746 0.73038 0.73691 0.0
O471 O 0.88552 0.71874 0.73989 0.0
O472 O 0.8416 0.64161 0.71023 0.0
C473 C 0.85347 0.62411 0.69493 0.0
O474 O 0.87028 0.7094 0.64702 0.0
O475 O 0.90189 0.72299 0.68529 0.0
O476 O 0.83718 0.73843 0.68187 0.0
O477 O 0.83267 0.6271 0.6196 0.0
O478 O 0.77671 0.62504 0.61884 0.0
O479 O 0.79134 0.68963 0.65448 0.0
C480 C 0.85033 0.71163 0.77482 0.0
C481 C 0.82214 0.67191 0.7745 0.0
C482 C 0.85323 0.71606 0.81941 0.0
C483 C 0.80969 0.65434 0.79645 0.0
C484 C 0.86565 0.73361 0.7974 0.0
C485 C 0.82522 0.67611 0.81924 0.0
C486 C 0.86405 0.72964 0.75162 0.0
C487 C 0.90263 0.72717 0.66154 0.0
H488 H 0.83228 0.69735 0.59896 0.0
H489 H 0.80802 0.61606 0.52155 0.0
H490 H 0.85021 0.72846 0.56044 0.0
H491 H 0.79107 0.58532 0.56042 0.0
H492 H 0.81003 0.65438 0.75723 0.0
H493 H 0.86548 0.73384 0.83657 0.0
H494 H 0.78855 0.62348 0.79556 0.0
H495 H 0.88736 0.76431 0.79802 0.0
Eu496 Eu 0.37022 0.16912 0.65183 0.0
Eu497 Eu 0.32244 0.14734 0.70205 0.0
C498 C 0.29325 0.08448 0.6561 0.0
C499 C 0.39184 0.17815 0.58546 0.0
C500 C 0.35126 0.15761 0.57892 0.0
C501 C 0.40439 0.1857 0.5425 0.0
C502 C 0.33728 0.15151 0.55434 0.0
C503 C 0.41838 0.19196 0.56718 0.0
C504 C 0.36368 0.1658 0.53589 0.0
C505 C 0.40616 0.18653 0.61139 0.0
O506 O 0.36324 0.12276 0.70419 0.0
O507 O 0.41033 0.16392 0.68004 0.0
C508 C 0.39904 0.1388 0.69685 0.0
O509 O 0.39051 0.22547 0.67448 0.0
O510 O 0.28993 0.10591 0.72865 0.0
O511 O 0.30101 0.16492 0.73339 0.0
O512 O 0.38059 0.20163 0.71223 0.0
C513 C 0.39794 0.23067 0.69836 0.0
O514 O 0.31251 0.16521 0.64143 0.0
O515 O 0.2974 0.17747 0.67959 0.0
O516 O 0.28256 0.09859 0.67438 0.0
O517 O 0.39718 0.20942 0.62374 0.0
O518 O 0.40021 0.15661 0.62324 0.0
O519 O 0.32774 0.10432 0.64712 0.0
C520 C 0.30458 0.13538 0.76859 0.0
C521 C 0.34512 0.1508 0.77366 0.0
C522 C 0.29512 0.12793 0.8119 0.0
C523 C 0.36066 0.15523 0.79773 0.0
C524 C 0.27957 0.12361 0.78773 0.0
C525 C 0.3359 0.14424 0.81713 0.0
C526 C 0.28883 0.13203 0.74333 0.0
C527 C 0.29268 0.1756 0.65551 0.0
H528 H 0.3304 0.1467 0.59288 0.0
H529 H 0.42536 0.19719 0.52866 0.0
H530 H 0.30577 0.13552 0.54977 0.0
H531 H 0.44981 0.208 0.57202 0.0
H532 H 0.36476 0.15975 0.75898 0.0
H533 H 0.27543 0.11952 0.82653 0.0
H534 H 0.39211 0.16738 0.80118 0.0
H535 H 0.24818 0.11156 0.78403 0.0
Eu536 Eu 0.87656 0.18193 0.69943 0.0
Eu537 Eu 0.84262 0.1959 0.64685 0.0
C538 C 0.88399 0.26353 0.68914 0.0
C539 C 0.88671 0.17802 0.7674 0.0
C540 C 0.86444 0.19641 0.76978 0.0
C541 C 0.88258 0.16736 0.81078 0.0
C542 C 0.8513 0.20025 0.79244 0.0
C543 C 0.89557 0.16335 0.78797 0.0
C544 C 0.86038 0.186 0.81329 0.0
C545 C 0.89841 0.17228 0.74312 0.0
O546 O 0.908 0.21918 0.6451 0.0
O547 O 0.91775 0.18191 0.67208 0.0
C548 C 0.92872 0.20405 0.6536 0.0
O549 O 0.83658 0.1226 0.68052 0.0
O550 O 0.84868 0.23603 0.61932 0.0
O551 O 0.80313 0.17551 0.61341 0.0
O552 O 0.84065 0.1388 0.6407 0.0
C553 C 0.83172 0.11294 0.65689 0.0
O554 O 0.82248 0.18477 0.70747 0.0
O555 O 0.78933 0.16755 0.66929 0.0
O556 O 0.85274 0.24499 0.67367 0.0
O557 O 0.87036 0.14433 0.72869 0.0
O558 O 0.91866 0.20359 0.7317 0.0
O559 O 0.90331 0.24653 0.69668 0.0
C560 C 0.83581 0.20687 0.57919 0.0
C561 C 0.86623 0.19861 0.57651 0.0
C562 C 0.83118 0.21139 0.53518 0.0
C563 C 0.87896 0.19662 0.55332 0.0
C564 C 0.8185 0.21344 0.55844 0.0
C565 C 0.86148 0.20279 0.53233 0.0
C566 C 0.82242 0.20866 0.60364 0.0
C567 C 0.78972 0.17118 0.69339 0.0
H568 H 0.85698 0.20761 0.75403 0.0
H569 H 0.89047 0.15646 0.82651 0.0
H570 H 0.83376 0.21419 0.79357 0.0
H571 H 0.91246 0.14877 0.7864 0.0
H572 H 0.87992 0.19339 0.59236 0.0
H573 H 0.81734 0.21664 0.51945 0.0
H574 H 0.90188 0.18932 0.55179 0.0
H575 H 0.79512 0.22004 0.56021 0.0
C576 C 0.34002 0.85906 0.04469 0.0
C577 C 0.32143 0.87317 0.06014 0.0
H578 H 0.38701 0.87286 0.02142 0.0
C579 C 0.33668 0.91358 0.06322 0.0
H580 H 0.32966 0.82823 0.04215 0.0
C581 C 0.36999 0.93915 0.05163 0.0
C582 C 0.38865 0.925 0.03639 0.0
H583 H 0.32281 0.9256 0.0745 0.0
H584 H 0.38115 0.97011 0.05468 0.0
C585 C 0.37304 0.88466 0.03281 0.0
C586 C 0.12951 0.46093 0.07953 0.0
C587 C 0.14856 0.44617 0.06511 0.0
H588 H 0.08776 0.48034 0.08043 0.0
C589 C 0.13926 0.4398 0.03961 0.0
H590 H 0.13638 0.46674 0.09919 0.0
C591 C 0.11152 0.44786 0.0288 0.0
C592 C 0.09239 0.46248 0.04325 0.0
H593 H 0.15301 0.42804 0.02799 0.0
H594 H 0.105 0.44245 0.00911 0.0
C595 C 0.10175 0.46894 0.06874 0.0
C596 C 0.57517 0.69973 0.03103 0.0
C597 C 0.57919 0.70747 0.05669 0.0
H598 H 0.561 0.65711 1.00092 0.0
C599 C 0.57076 0.67672 0.07163 0.0
H600 H 0.58164 0.72256 0.0189 0.0
C601 C 0.56063 0.63998 0.06134 0.0
C602 C 0.55709 0.6326 0.03586 0.0
H603 H 0.57183 0.6808 0.0914 0.0
H604 H 0.55487 0.61708 0.07333 0.0
C605 C 0.56366 0.6624 0.0207 0.0
C606 C 0.88682 0.33403 0.94286 0.0
C607 C 0.87117 0.30177 0.95709 0.0
H608 H 0.92621 0.39506 0.94176 0.0
C609 C 0.88347 0.30741 0.98216 0.0
H610 H 0.87735 0.33083 0.92358 0.0
C611 C 0.9113 0.34444 0.99267 0.0
C612 C 0.92743 0.37651 0.97829 0.0
H613 H 0.87219 0.2831 0.99355 0.0
H614 H 0.92046 0.3478 0.01201 0.0
C615 C 0.91473 0.37092 0.9533 0.0
C616 C 0.68528 0.58581 0.95333 0.0
C617 C 0.69999 0.56007 0.95421 0.0
H618 H 0.6407 0.59845 0.96356 0.0
C619 C 0.67965 0.52655 0.96713 0.0
H620 H 0.70029 0.61234 0.94411 0.0
C621 C 0.64605 0.51928 0.97898 0.0
C622 C 0.63132 0.54483 0.97779 0.0
H623 H 0.68924 0.50544 0.96786 0.0
H624 H 0.6311 0.49313 0.98861 0.0
C625 C 0.6512 0.57806 0.96473 0.0
C626 C 0.44455 0.13189 0.98982 0.0
C627 C 0.44216 0.13386 0.96418 0.0
H628 H 0.45743 0.10597 0.01979 0.0
C629 C 0.45166 0.11047 0.94919 0.0
H630 H 0.43706 0.14896 1.00202 0.0
C631 C 0.46172 0.08493 0.95936 0.0
C632 C 0.46399 0.08307 0.98482 0.0
H633 H 0.45177 0.11199 0.9295 0.0
H634 H 0.46849 0.06709 0.94728 0.0
C635 C 0.45594 0.10711 1.00005 0.0
C636 C 0.63844 0.10423 0.94418 0.0
C637 C 0.6746 0.12622 0.95795 0.0
H638 H 0.57673 0.06605 0.94422 0.0
C639 C 0.67559 0.12644 0.98372 0.0
H640 H 0.6368 0.10359 0.92432 0.0
C641 C 0.64077 0.10453 0.99539 0.0
C642 C 0.60451 0.08235 0.98146 0.0
H643 H 0.70317 0.14319 0.99482 0.0
H644 H 0.6423 0.10478 0.01521 0.0
C645 C 0.60392 0.08276 0.95571 0.0
C646 C 0.87052 0.52347 0.9768 0.0
C647 C 0.87748 0.53746 0.95334 0.0
H648 H 0.88998 0.50241 1.00662 0.0
C649 C 0.91022 0.541 0.94195 0.0
H650 H 0.84537 0.52027 0.98599 0.0
C651 C 0.93585 0.53123 0.95378 0.0
C652 C 0.92908 0.51716 0.97722 0.0
H653 H 0.9162 0.55161 0.92386 0.0
H654 H 0.96084 0.53441 0.94438 0.0
C655 C 0.89597 0.51313 0.98856 0.0
C656 C 0.46827 0.33768 0.98987 0.0
C657 C 0.44505 0.3234 0.96756 0.0
H658 H 0.50289 0.38743 0.01532 0.0
C659 C 0.44026 0.34907 0.95305 0.0
H660 H 0.47227 0.31834 1.00138 0.0
C661 C 0.45852 0.38857 0.96065 0.0
C662 C 0.48094 0.40279 0.98324 0.0
H663 H 0.42251 0.33857 0.93573 0.0
H664 H 0.4542 0.40777 0.94917 0.0
C665 C 0.48566 0.37707 0.99782 0.0
C666 C 0.09636 0.66004 0.06497 0.0
C667 C 0.13449 0.68216 0.0574 0.0
H668 H 0.04308 0.60507 0.06227 0.0
C669 C 0.14845 0.66478 0.04079 0.0
H670 H 0.08502 0.67279 0.07783 0.0
C671 C 0.12441 0.6259 0.03179 0.0
C672 C 0.08608 0.60371 0.0393 0.0
H673 H 0.17781 0.68116 0.03468 0.0
H674 H 0.13587 0.61331 0.01891 0.0
C675 C 0.07242 0.62122 0.05607 0.0
C676 C 0.34775 0.46926 0.03846 0.0
C677 C 0.34829 0.46968 0.06422 0.0
H678 H 0.38108 0.47932 1.00678 0.0
C679 C 0.38395 0.48141 0.07782 0.0
H680 H 0.32063 0.4603 0.02746 0.0
C681 C 0.41838 0.49244 0.0661 0.0
C682 C 0.41815 0.49187 0.04033 0.0
H683 H 0.38526 0.48204 0.09767 0.0
H684 H 0.44517 0.50111 0.0774 0.0
C685 C 0.38238 0.48017 0.02662 0.0
C686 C 0.55611 0.88255 0.03114 0.0
C687 C 0.57351 0.8922 0.0553 0.0
H688 H 0.52648 0.89577 1.00253 0.0
C689 C 0.57354 0.92242 0.06948 0.0
H690 H 0.55594 0.85944 0.0198 0.0
C691 C 0.55606 0.94243 0.05989 0.0
C692 C 0.53904 0.93329 0.03566 0.0
H693 H 0.58681 0.93037 0.08815 0.0
H694 H 0.55653 0.9656 0.07137 0.0
C695 C 0.53942 0.90335 0.02126 0.0
C696 C 0.02067 0.24124 0.40794 0.0
C697 C 0.98765 0.21148 0.39376 0.0
H698 H 0.07956 0.28892 0.40854 0.0
C699 C 0.9902 0.20745 0.36824 0.0
H700 H 0.02059 0.24489 0.42765 0.0
C701 C 0.02488 0.23209 0.35735 0.0
C702 C 0.05742 0.26196 0.37162 0.0
H703 H 0.96532 0.18549 0.35652 0.0
H704 H 0.02594 0.22823 0.33773 0.0
C705 C 0.05482 0.26638 0.39698 0.0
C706 C 0.83038 0.8116 0.38468 0.0
C707 C 0.8178 0.77843 0.39791 0.0
H708 H 0.81398 0.84605 0.36378 0.0
C709 C 0.77712 0.75406 0.39984 0.0
H710 H 0.86139 0.83153 0.38316 0.0
C711 C 0.7499 0.76292 0.38912 0.0
C712 C 0.76262 0.79601 0.37588 0.0
H713 H 0.76614 0.72789 0.40947 0.0
H714 H 0.71886 0.74359 0.39101 0.0
C715 C 0.80314 0.82012 0.37367 0.0
C716 C 0.24595 0.03541 0.36496 0.0
C717 C 0.25107 0.04418 0.39056 0.0
H718 H 0.23049 0.99174 0.33535 0.0
C719 C 0.24361 0.01414 0.40593 0.0
H720 H 0.25179 0.05766 0.35248 0.0
C721 C 0.23301 0.97701 0.39606 0.0
C722 C 0.22812 0.96855 0.37062 0.0
H723 H 0.24564 0.01902 0.42569 0.0
H724 H 0.22789 0.95465 0.40836 0.0
C725 C 0.23403 0.99776 0.3551 0.0
C726 C 0.5316 0.65807 0.306 0.0
C727 C 0.54434 0.63522 0.2935 0.0
H728 H 0.54783 0.71243 0.32545 0.0
C729 C 0.585 0.65081 0.29156 0.0
H730 H 0.50057 0.64742 0.30749 0.0
C731 C 0.61209 0.68852 0.3014 0.0
C732 C 0.59922 0.71129 0.31375 0.0
H733 H 0.596 0.63385 0.28246 0.0
H734 H 0.64314 0.69967 0.29952 0.0
C735 C 0.55872 0.69554 0.31612 0.0
C736 C 0.35564 0.92146 0.28779 0.0
C737 C 0.3717 0.897 0.28991 0.0
H738 H 0.31004 0.93309 0.29711 0.0
C739 C 0.35277 0.86475 0.30406 0.0
H740 H 0.36955 0.94694 0.27749 0.0
C741 C 0.31915 0.85742 0.31587 0.0
C742 C 0.30305 0.88169 0.31351 0.0
H743 H 0.36346 0.84461 0.30575 0.0
H744 H 0.30527 0.83219 0.32642 0.0
C745 C 0.32161 0.91371 0.29926 0.0
C746 C 0.12002 0.44594 0.28267 0.0
C747 C 0.11086 0.46968 0.29756 0.0
H748 H 0.13687 0.40259 0.28097 0.0
C749 C 0.11383 0.46832 0.32325 0.0
H750 H 0.11961 0.44694 0.26294 0.0
C751 C 0.12548 0.44381 0.33363 0.0
C752 C 0.13325 0.41944 0.31851 0.0
H753 H 0.10658 0.48564 0.3354 0.0
H754 H 0.12731 0.44307 0.35339 0.0
C755 C 0.13041 0.42073 0.293 0.0
C756 C 0.34437 0.46238 0.31757 0.0
C757 C 0.34393 0.46219 0.29183 0.0
H758 H 0.31058 0.4404 0.34879 0.0
C759 C 0.30805 0.43971 0.27779 0.0
H760 H 0.37168 0.47945 0.32889 0.0
C761 C 0.27329 0.41775 0.28907 0.0
C762 C 0.27341 0.4174 0.3148 0.0
H763 H 0.30683 0.43905 0.25794 0.0
H764 H 0.24632 0.40067 0.27744 0.0
C765 C 0.30939 0.44005 0.32897 0.0
C766 C 0.55163 0.87407 0.31427 0.0
C767 C 0.54729 0.87249 0.28853 0.0
H768 H 0.58072 0.86612 0.34567 0.0
C769 C 0.56967 0.86142 0.27463 0.0
H770 H 0.53477 0.88256 0.32549 0.0
C771 C 0.59582 0.852 0.28609 0.0
C772 C 0.60035 0.85348 0.31183 0.0
H773 H 0.5669 0.85999 0.25476 0.0
H774 H 0.61252 0.84358 0.27466 0.0
C775 C 0.57797 0.86468 0.32582 0.0
C776 C 0.11223 0.68635 0.28658 0.0
C777 C 0.11554 0.65984 0.30106 0.0
H778 H 0.12757 0.74553 0.28319 0.0
C779 C 0.1374 0.67307 0.32387 0.0
H780 H 0.09553 0.67666 0.26888 0.0
C781 C 0.15494 0.71227 0.33232 0.0
C782 C 0.15177 0.73884 0.31775 0.0
H783 H 0.1402 0.65304 0.33537 0.0
H784 H 0.17112 0.72184 0.35018 0.0
C785 C 0.13068 0.72566 0.29469 0.0
C786 C 0.81276 0.00335 0.37411 0.0
C787 C 0.81908 0.00978 0.39977 0.0
H788 H 0.78053 0.9626 0.34331 0.0
C789 C 0.797 0.97906 0.41425 0.0
H790 H 0.82928 0.02656 0.36246 0.0
C791 C 0.76909 0.94244 0.40333 0.0
C792 C 0.76261 0.93584 0.37765 0.0
H793 H 0.80131 0.98338 0.43409 0.0
H794 H 0.7526 0.91935 0.41507 0.0
C795 C 0.78473 0.96671 0.36314 0.0
C796 C 0.01762 0.80266 0.37253 0.0
C797 C 0.018 0.80345 0.3983 0.0
H798 H 0.05132 0.813 0.34099 0.0
C799 C 0.05379 0.81628 0.41205 0.0
H800 H 0.99042 0.79289 0.36141 0.0
C801 C 0.08845 0.82794 0.40048 0.0
C802 C 0.0884 0.82695 0.37471 0.0
H803 H 0.05501 0.81727 0.43191 0.0
H804 H 0.11531 0.83742 0.41191 0.0
C805 C 0.05252 0.81423 0.36083 0.0
C806 C 0.22313 0.21675 0.36329 0.0
C807 C 0.24298 0.22753 0.38679 0.0
H808 H 0.19094 0.22893 0.33581 0.0
C809 C 0.24424 0.25824 0.40116 0.0
H810 H 0.22197 0.19323 0.35184 0.0
C811 C 0.22581 0.27783 0.39234 0.0
C812 C 0.20666 0.26781 0.36866 0.0
H813 H 0.25938 0.26699 0.41934 0.0
H814 H 0.22743 0.30152 0.40388 0.0
C815 C 0.20554 0.23718 0.35413 0.0
C816 C 0.67556 0.5304 0.71418 0.0
C817 C 0.65481 0.54437 0.72764 0.0
H818 H 0.72468 0.54422 0.69285 0.0
C819 C 0.66878 0.58463 0.72932 0.0
H820 H 0.66642 0.49979 0.71283 0.0
C821 C 0.70283 0.61017 0.71831 0.0
C822 C 0.72336 0.59607 0.70492 0.0
H823 H 0.65334 0.59658 0.739 0.0
H824 H 0.71296 0.64102 0.7202 0.0
C825 C 0.70916 0.55589 0.70276 0.0
C826 C 0.44212 0.08706 0.7321 0.0
C827 C 0.48281 0.11136 0.73018 0.0
H828 H 0.38389 0.0767 0.7233 0.0
C829 C 0.49541 0.14455 0.71695 0.0
H830 H 0.43108 0.06086 0.74171 0.0
C831 C 0.46821 0.15313 0.70594 0.0
C832 C 0.42767 0.12909 0.70815 0.0
H833 H 0.52643 0.16446 0.71542 0.0
H834 H 0.47907 0.17907 0.69604 0.0
C835 C 0.41494 0.09599 0.72139 0.0
C836 C 0.94603 0.36412 0.72152 0.0
C837 C 0.92093 0.37955 0.719 0.0
H838 H 0.95406 0.31543 0.71416 0.0
C839 C 0.88422 0.357 0.70561 0.0
H840 H 0.97478 0.38092 0.73135 0.0
C841 C 0.87258 0.31964 0.69545 0.0
C842 C 0.89721 0.30385 0.69866 0.0
H843 H 0.86386 0.36767 0.70361 0.0
H844 H 0.84382 0.30278 0.68564 0.0
C845 C 0.93422 0.32662 0.71159 0.0
C846 C 0.23387 0.99865 0.60983 0.0
C847 C 0.21025 0.96911 0.62491 0.0
H848 H 0.27922 0.05804 0.60796 0.0
C849 C 0.2147 0.97828 0.65043 0.0
H850 H 0.23072 0.99337 0.59007 0.0
C851 C 0.24152 0.0159 0.66049 0.0
C852 C 0.26529 0.04489 0.64537 0.0
H853 H 0.19782 0.95639 0.66277 0.0
H854 H 0.24417 0.02216 0.68019 0.0
C855 C 0.26154 0.03593 0.62 0.0
C856 C 0.0155 0.19601 0.63305 0.0
C857 C 0.03544 0.22913 0.61973 0.0
H858 H 0.96676 0.16243 0.65435 0.0
C859 C 0.01957 0.25379 0.61776 0.0
H860 H 0.02596 0.17566 0.6346 0.0
C861 C 0.98489 0.24549 0.62859 0.0
C862 C 0.96549 0.21274 0.64214 0.0
H863 H 0.03419 0.27997 0.60815 0.0
H864 H 0.97361 0.26515 0.62666 0.0
C865 C 0.98127 0.18818 0.64431 0.0
C866 C 0.74934 0.76208 0.63043 0.0
C867 C 0.77371 0.80264 0.63454 0.0
H868 H 0.74118 0.70602 0.63662 0.0
C869 C 0.80852 0.81758 0.64995 0.0
H870 H 0.72191 0.74955 0.6191 0.0
C871 C 0.81929 0.79252 0.66034 0.0
C872 C 0.79566 0.75205 0.65534 0.0
H873 H 0.82819 0.84866 0.65331 0.0
H874 H 0.84678 0.80494 0.67161 0.0
C875 C 0.76031 0.7371 0.64057 0.0
C876 C 0.0106 0.79776 0.65219 0.0
C877 C 0.00999 0.79537 0.62639 0.0
H878 H 0.97708 0.77788 0.68378 0.0
C879 C 0.97427 0.771 0.61264 0.0
H880 H 0.03785 0.81629 0.66328 0.0
C881 C 0.93979 0.74951 0.62424 0.0
C882 C 0.94001 0.75144 0.65002 0.0
H883 H 0.97293 0.76856 0.59277 0.0
H884 H 0.91292 0.73095 0.61279 0.0
C885 C 0.97587 0.77578 0.66393 0.0
C886 C 0.23464 0.19457 0.60644 0.0
C887 C 0.21165 0.20487 0.62031 0.0
H888 H 0.27791 0.17724 0.60651 0.0
C889 C 0.21515 0.20536 0.64602 0.0
H890 H 0.23253 0.19397 0.5866 0.0
C891 C 0.24137 0.19579 0.65758 0.0
C892 C 0.26447 0.18549 0.64363 0.0
H893 H 0.19781 0.21323 0.65721 0.0
H894 H 0.24354 0.19651 0.67742 0.0
C895 C 0.26066 0.18495 0.61791 0.0
C896 C 0.77417 0.01798 0.61789 0.0
C897 C 0.77794 0.99208 0.63273 0.0
H898 H 0.78908 0.07686 0.61369 0.0
C899 C 0.80023 0.00618 0.65538 0.0
H900 H 0.75718 0.00767 0.60031 0.0
C901 C 0.81789 0.04562 0.66326 0.0
C902 C 0.81427 0.07161 0.64833 0.0
H903 H 0.80348 0.9867 0.66717 0.0
H904 H 0.83451 0.05581 0.68096 0.0
C905 C 0.79259 0.05751 0.62547 0.0
C906 C 0.47609 0.33765 0.7062 0.0
C907 C 0.48399 0.34363 0.73179 0.0
H908 H 0.44254 0.29721 0.67553 0.0
C909 C 0.46325 0.31249 0.74628 0.0
H910 H 0.49157 0.36119 0.69457 0.0
C911 C 0.43518 0.27589 0.73543 0.0
C912 C 0.42721 0.2697 0.70982 0.0
H913 H 0.46879 0.31646 0.76607 0.0
H914 H 0.41981 0.25246 0.74717 0.0
C915 C 0.44792 0.301 0.69531 0.0
C916 C 0.7187 0.14829 0.74319 0.0
C917 C 0.68268 0.13557 0.72972 0.0
H918 H 0.78025 0.16961 0.74249 0.0
C919 C 0.68186 0.13504 0.70395 0.0
H920 H 0.72025 0.14906 0.76304 0.0
C921 C 0.71653 0.1468 0.69197 0.0
C922 C 0.75266 0.15953 0.70554 0.0
H923 H 0.65449 0.12534 0.69304 0.0
H924 H 0.71498 0.14581 0.67212 0.0
C925 C 0.75318 0.1602 0.73132 0.0
C926 C 0.87757 0.56857 0.73995 0.0
C927 C 0.89102 0.549 0.72487 0.0
H928 H 0.8551 0.60727 0.7424 0.0
C929 C 0.89174 0.55371 0.69957 0.0
H930 H 0.87672 0.56539 0.75951 0.0
C931 C 0.87931 0.57793 0.6896 0.0
C932 C 0.86597 0.59768 0.7048 0.0
H933 H 0.90203 0.53891 0.68752 0.0
H934 H 0.88033 0.58129 0.67007 0.0
C935 C 0.86515 0.59257 0.73007 0.0
C936 C 0.47396 0.93342 0.20076 0.0
C937 C 0.45817 0.94652 0.21895 0.0
H938 H 0.49665 0.94074 0.16536 0.0
C939 C 0.45232 0.9778 0.21438 0.0
H940 H 0.47812 0.9089 0.2034 0.0
C941 C 0.46303 0.99617 0.19246 0.0
C942 C 0.47985 0.9837 0.17459 0.0
H943 H 0.44058 0.98889 0.22806 0.0
H944 H 0.45914 0.02085 0.18984 0.0
C945 C 0.48467 0.95175 0.17892 0.0
C946 C 0.06879 0.52923 0.20788 0.0
C947 C 0.05216 0.50172 0.2253 0.0
H948 H 0.06496 0.54337 0.17109 0.0
C949 C 0.01781 0.46608 0.21836 0.0
H950 H 0.09567 0.55668 0.21263 0.0
C951 C 0.99988 0.45854 0.19454 0.0
C952 C 0.01615 0.48644 0.17722 0.0
H953 H 1.0043 0.4445 0.23152 0.0
H954 H 0.97286 0.43122 0.18986 0.0
C955 C 0.05107 0.52166 0.18412 0.0
C956 C 0.54013 0.54173 0.21878 0.0
C957 C 0.50252 0.53605 0.2224 0.0
H958 H 0.57908 0.54012 0.19329 0.0
C959 C 0.47404 0.52169 0.20242 0.0
H960 H 0.56259 0.55246 0.23389 0.0
C961 C 0.48349 0.51457 0.17909 0.0
C962 C 0.52151 0.52134 0.17535 0.0
H963 H 0.44489 0.51723 0.20463 0.0
H964 H 0.46113 0.50404 0.16394 0.0
C965 C 0.54949 0.53439 0.19555 0.0
C966 C 0.96438 0.48986 0.81135 0.0
C967 C 0.97799 0.47391 0.79347 0.0
H968 H 0.96898 0.50982 0.84895 0.0
C969 C 1.00823 0.46643 0.80042 0.0
H970 H 0.94083 0.49558 0.80669 0.0
C971 C 0.024 0.47409 0.82476 0.0
C972 C 0.00987 0.4894 0.8427 0.0
H973 H 0.01963 0.45449 0.78704 0.0
H974 H 0.04662 0.46715 0.82962 0.0
C975 C 0.98017 0.49756 0.83565 0.0
C976 C 0.52672 0.50522 0.80009 0.0
C977 C 0.56582 0.51494 0.79715 0.0
H978 H 0.48494 0.50304 0.82455 0.0
C979 C 0.59399 0.53341 0.81717 0.0
H980 H 0.50443 0.49136 0.78491 0.0
C981 C 0.58285 0.54042 0.83995 0.0
C982 C 0.54336 0.52929 0.84312 0.0
H983 H 0.62431 0.5411 0.81548 0.0
H984 H 0.60507 0.55408 0.85517 0.0
C985 C 0.51562 0.51228 0.82277 0.0
C986 C 0.50848 0.07276 0.81908 0.0
C987 C 0.52499 0.06057 0.80085 0.0
H988 H 0.48574 0.06457 0.85448 0.0
C989 C 0.53237 0.03026 0.80545 0.0
H990 H 0.50282 0.09632 0.81633 0.0
C991 C 0.52287 0.0122 0.82752 0.0
C992 C 0.50589 0.02409 0.84561 0.0
H993 H 0.54477 0.01991 0.79177 0.0
H994 H 0.52907 0.98903 0.83045 0.0
C995 C 0.49905 0.05478 0.84112 0.0
C996 C 0.1671 0.31654 0.5505 0.0
C997 C 0.12832 0.28632 0.55258 0.0
H998 H 0.20835 0.3577 0.5277 0.0
C999 C 0.10054 0.27562 0.53243 0.0
H1000 H 0.18915 0.32584 0.56575 0.0
C1001 C 0.11153 0.2941 0.51058 0.0
C1002 C 0.15051 0.32394 0.5084 0.0
H1003 H 0.07049 0.25234 0.53335 0.0
H1004 H 0.08945 0.28501 0.49538 0.0
C1005 C 0.17803 0.33512 0.52875 0.0
C1006 C 0.69215 0.79857 0.55072 0.0
C1007 C 0.72509 0.83506 0.55821 0.0
H1008 H 0.64999 0.76223 0.52124 0.0
C1009 C 0.74188 0.86284 0.54097 0.0
H1010 H 0.67857 0.77674 0.56373 0.0
C1011 C 0.72558 0.85464 0.51681 0.0
C1012 C 0.69206 0.81852 0.5094 0.0
H1013 H 0.7675 0.89107 0.54623 0.0
H1014 H 0.73868 0.87696 0.50406 0.0
C1015 C 0.67563 0.79043 0.52653 0.0
C1016 C 0.20587 0.86864 0.55404 0.0
C1017 C 0.16866 0.86419 0.55735 0.0
H1018 H 0.24491 0.8666 0.5288 0.0
C1019 C 0.14063 0.85073 0.53715 0.0
H1020 H 0.22797 0.87868 0.56933 0.0
C1021 C 0.15031 0.84373 0.51389 0.0
C1022 C 0.18813 0.8498 0.51038 0.0
H1023 H 0.1118 0.84725 0.53911 0.0
H1024 H 0.12837 0.83417 0.49855 0.0
C1025 C 0.21548 0.86147 0.53085 0.0
C1026 C 0.67245 0.84094 0.13742 0.0
C1027 C 0.64179 0.80345 0.12922 0.0
H1028 H 0.71241 0.87804 0.16755 0.0
C1029 C 0.62798 0.77412 0.14567 0.0
H1030 H 0.68376 0.86405 0.12511 0.0
C1031 C 0.64449 0.78196 0.16974 0.0
C1032 C 0.67511 0.81939 0.17801 0.0
H1033 H 0.60401 0.74506 0.14 0.0
H1034 H 0.63336 0.75858 0.18185 0.0
C1035 C 0.68907 0.84882 0.1616 0.0
C1036 C 0.23151 0.81335 0.15226 0.0
C1037 C 0.2416 0.8402 0.1343 0.0
H1038 H 0.21226 0.79888 0.18819 0.0
C1039 C 0.24214 0.87526 0.13992 0.0
H1040 H 0.23109 0.7862 0.14849 0.0
C1041 C 0.23124 0.88256 0.16273 0.0
C1042 C 0.22005 0.85513 0.18044 0.0
H1043 H 0.24959 0.89636 0.12636 0.0
H1044 H 0.23127 0.90951 0.16644 0.0
C1045 C 0.22096 0.82075 0.17506 0.0
C1046 C 0.19801 0.36355 0.13906 0.0
C1047 C 0.19042 0.39375 0.13453 0.0
H1048 H 0.19505 0.32248 0.1641 0.0
C1049 C 0.17392 0.40587 0.15278 0.0
H1050 H 0.21043 0.3533 0.12535 0.0
C1051 C 0.16475 0.388 0.17483 0.0
C1052 C 0.17186 0.35749 0.1793 0.0
H1053 H 0.1681 0.42934 0.15004 0.0
H1054 H 0.15148 0.39775 0.18825 0.0
C1055 C 0.18873 0.34556 0.16116 0.0
C1056 C 0.83043 0.64753 0.88413 0.0
C1057 C 0.79137 0.61813 0.88649 0.0
H1058 H 0.87173 0.68841 0.86126 0.0
C1059 C 0.76312 0.60894 0.86684 0.0
H1060 H 0.85287 0.65575 0.899 0.0
C1061 C 0.7739 0.62803 0.84519 0.0
C1062 C 0.81316 0.65693 0.84267 0.0
H1063 H 0.73284 0.58632 0.86795 0.0
H1064 H 0.75142 0.62009 0.83039 0.0
C1065 C 0.84117 0.66663 0.86255 0.0
C1066 C 0.35187 0.13077 0.88401 0.0
C1067 C 0.38532 0.16678 0.8917 0.0
H1068 H 0.3098 0.09533 0.85423 0.0
C1069 C 0.40268 0.19481 0.87466 0.0
H1070 H 0.3379 0.10874 0.89684 0.0
C1071 C 0.38669 0.18726 0.85048 0.0
C1072 C 0.35295 0.1515 0.84278 0.0
H1073 H 0.42876 0.22265 0.88004 0.0
H1074 H 0.40042 0.20973 0.83789 0.0
C1075 C 0.33566 0.12326 0.85975 0.0
C1076 C 0.84025 0.23431 0.86757 0.0
C1077 C 0.82789 0.2058 0.88456 0.0
H1078 H 0.86083 0.25077 0.83223 0.0
C1079 C 0.82444 0.16977 0.8776 0.0
H1080 H 0.84277 0.26223 0.8723 0.0
C1081 C 0.83453 0.16299 0.85436 0.0
C1082 C 0.84798 0.19203 0.83764 0.0
H1083 H 0.81511 0.14732 0.89035 0.0
H1084 H 0.83195 0.13508 0.84953 0.0
C1085 C 0.85026 0.22758 0.84448 0.0
C1086 C 0.34839 0.14018 0.4672 0.0
C1087 C 0.31615 0.14497 0.46093 0.0
H1088 H 0.38874 0.14299 0.4959 0.0
C1089 C 0.30094 0.15837 0.47926 0.0
H1090 H 0.36084 0.13012 0.45338 0.0
C1091 C 0.31692 0.16582 0.50348 0.0
C1092 C 0.34848 0.16009 0.50989 0.0
H1093 H 0.27585 0.16194 0.47504 0.0
H1094 H 0.30432 0.17578 0.51725 0.0
C1095 C 0.36451 0.1478 0.49146 0.0
C1096 C 0.92449 0.20493 0.48095 0.0
C1097 C 0.89584 0.1836 0.46153 0.0
H1098 H 0.93622 0.22805 0.51847 0.0
C1099 C 0.85624 0.17133 0.46504 0.0
H1100 H 0.95521 0.2146 0.47888 0.0
C1101 C 0.8453 0.1787 0.48774 0.0
C1102 C 0.87369 0.19848 0.50753 0.0
H1103 H 0.83352 0.1552 0.45034 0.0
H1104 H 0.81436 0.1675 0.49002 0.0
C1105 C 0.91353 0.21221 0.50371 0.0
C1106 C 0.86772 0.69902 0.47411 0.0
C1107 C 0.86039 0.72925 0.46915 0.0
H1108 H 0.86434 0.65833 0.49956 0.0
C1109 C 0.84402 0.74194 0.48719 0.0
H1110 H 0.88002 0.68832 0.46059 0.0
C1111 C 0.83459 0.72447 0.50938 0.0
C1112 C 0.84132 0.69382 0.51423 0.0
H1113 H 0.83842 0.76547 0.48415 0.0
H1114 H 0.82134 0.73458 0.52258 0.0
C1115 C 0.85824 0.68148 0.49635 0.0
loop_
_geom_bond_atom_site_label_1
_geom_bond_atom_site_label_2
_geom_bond_distance
_geom_bond_site_symmetry_2
_ccdc_geom_bond_type
H0 C5 0.930 . S
H1 C8 0.930 . S
H2 C10 0.930 . S
H3 C4 1.016 . S
C4 H3 1.016 . S
C4 N11 1.286 . S
C5 H0 0.930 . S
C5 C6 1.397 . S
C5 C7 1.361 . S
C6 C5 1.397 . S
C6 C10 1.390 . S
C7 C5 1.361 . S
C7 C8 1.393 . S
C7 N11 1.413 . S
C8 H1 0.930 . S
C8 C7 1.393 . S
C8 C9 1.399 . S
C9 C8 1.399 . S
C9 C10 1.381 . S
C10 H2 0.930 . S
C10 C6 1.390 . S
C10 C9 1.381 . S
N11 C4 1.286 . S
N11 C7 1.413 . S
H12 C17 0.930 . S
H13 C20 0.930 . S
H14 C22 0.930 . S
H15 C16 1.016 . S
C16 H15 1.016 . S
C16 N23 1.286 . S
C17 H12 0.930 . S
C17 C18 1.397 . S
C17 C19 1.361 . S
C18 C17 1.397 . S
C18 C22 1.390 . S
C19 C17 1.361 . S
C19 C20 1.393 . S
C19 N23 1.413 . S
C20 H13 0.930 . S
C20 C19 1.393 . S
C20 C21 1.399 . S
C21 C20 1.399 . S
C21 C22 1.381 . S
C22 H14 0.930 . S
C22 C18 1.390 . S
C22 C21 1.381 . S
N23 C16 1.286 . S
N23 C19 1.413 . S
H24 C29 0.930 . S
H25 C32 0.930 . S
H26 C34 0.930 . S
H27 C28 1.016 . S
C28 H27 1.016 . S
C28 N35 1.286 . S
C29 H24 0.930 . S
C29 C30 1.397 . S
C29 C31 1.361 . S
C30 C29 1.397 . S
C30 C34 1.390 . S
C31 C29 1.361 . S
C31 C32 1.393 . S
C31 N35 1.413 . S
C32 H25 0.930 . S
C32 C31 1.393 . S
C32 C33 1.399 . S
C33 C32 1.399 . S
C33 C34 1.381 . S
C34 H26 0.930 . S
C34 C30 1.390 . S
C34 C33 1.381 . S
N35 C28 1.286 . S
N35 C31 1.413 . S
H36 C41 0.930 . S
H37 C44 0.930 . S
H38 C46 0.930 . S
H39 C40 1.016 . S
C40 H39 1.016 . S
C40 N47 1.286 . S
C41 H36 0.930 . S
C41 C42 1.397 . S
C41 C43 1.361 . S
C42 C41 1.397 . S
C42 C46 1.390 . S
C43 C41 1.361 . S
C43 C44 1.393 . S
C43 N47 1.413 . S
C44 H37 0.930 . S
C44 C43 1.393 . S
C44 C45 1.399 . S
C45 C44 1.399 . S
C45 C46 1.381 . S
C46 H38 0.930 . S
C46 C42 1.390 . S
C46 C45 1.381 . S
N47 C40 1.286 . S
N47 C43 1.413 . S
H48 C53 0.930 . S
H49 C56 0.930 . S
H50 C58 0.930 . S
H51 C52 1.016 . S
C52 H51 1.016 . S
C52 N59 1.286 . S
C53 H48 0.930 . S
C53 C54 1.397 . S
C53 C55 1.361 . S
C54 C53 1.397 . S
C54 C58 1.390 . S
C55 C53 1.361 . S
C55 C56 1.393 . S
C55 N59 1.413 . S
C56 H49 0.930 . S
C56 C55 1.393 . S
C56 C57 1.399 . S
C57 C56 1.399 . S
C57 C58 1.381 . S
C58 H50 0.930 . S
C58 C54 1.390 . S
C58 C57 1.381 . S
N59 C52 1.286 . S
N59 C55 1.413 . S
H60 C65 0.930 . S
H61 C68 0.930 . S
H62 C70 0.930 . S
H63 C64 1.016 . S
C64 H63 1.016 . S
C64 N71 1.286 . S
C65 H60 0.930 . S
C65 C66 1.397 . S
C65 C67 1.361 . S
C66 C65 1.397 . S
C66 C70 1.390 . S
C67 C65 1.361 . S
C67 C68 1.393 . S
C67 N71 1.413 . S
C68 H61 0.930 . S
C68 C67 1.393 . S
C68 C69 1.399 . S
C69 C68 1.399 . S
C69 C70 1.381 . S
C70 H62 0.930 . S
C70 C66 1.390 . S
C70 C69 1.381 . S
N71 C64 1.286 . S
N71 C67 1.413 . S
H72 C77 0.930 . S
H73 C80 0.930 . S
H74 C82 0.930 . S
H75 C76 1.016 . S
C76 H75 1.016 . S
C76 N83 1.286 . S
C77 H72 0.930 . S
C77 C78 1.397 . S
C77 C79 1.361 . S
C78 C77 1.397 . S
C78 C82 1.390 . S
C79 C77 1.361 . S
C79 C80 1.393 . S
C79 N83 1.413 . S
C80 H73 0.930 . S
C80 C79 1.393 . S
C80 C81 1.399 . S
C81 C80 1.399 . S
C81 C82 1.381 . S
C82 H74 0.930 . S
C82 C78 1.390 . S
C82 C81 1.381 . S
N83 C76 1.286 . S
N83 C79 1.413 . S
H84 C89 0.930 . S
H85 C92 0.930 . S
H86 C94 0.930 . S
H87 C88 1.016 . S
C88 H87 1.016 . S
C88 N95 1.286 . S
C89 H84 0.930 . S
C89 C90 1.397 . S
C89 C91 1.361 . S
C90 C89 1.397 . S
C90 C94 1.390 . S
C91 C89 1.361 . S
C91 C92 1.393 . S
C91 N95 1.413 . S
C92 H85 0.930 . S
C92 C91 1.393 . S
C92 C93 1.399 . S
C93 C92 1.399 . S
C93 C94 1.381 . S
C94 H86 0.930 . S
C94 C90 1.390 . S
C94 C93 1.381 . S
N95 C88 1.286 . S
N95 C91 1.413 . S
H96 C101 0.930 . S
H97 C104 0.930 . S
H98 C106 0.930 . S
H99 C100 1.016 . S
C100 H99 1.016 . S
C100 N107 1.286 . S
C101 H96 0.930 . S
C101 C102 1.397 . S
C101 C103 1.361 . S
C102 C101 1.397 . S
C102 C106 1.390 . S
C103 C101 1.361 . S
C103 C104 1.393 . S
C103 N107 1.413 . S
C104 H97 0.930 . S
C104 C103 1.393 . S
C104 C105 1.399 . S
C105 C104 1.399 . S
C105 C106 1.381 . S
C106 H98 0.930 . S
C106 C102 1.390 . S
C106 C105 1.381 . S
N107 C100 1.286 . S
N107 C103 1.413 . S
H108 C113 0.930 . S
H109 C116 0.930 . S
H110 C118 0.930 . S
H111 C112 1.016 . S
C112 H111 1.016 . S
C112 N119 1.286 . S
C113 H108 0.930 . S
C113 C114 1.397 . S
C113 C115 1.361 . S
C114 C113 1.397 . S
C114 C118 1.390 . S
C115 C113 1.361 . S
C115 C116 1.393 . S
C115 N119 1.413 . S
C116 H109 0.930 . S
C116 C115 1.393 . S
C116 C117 1.399 . S
C117 C116 1.399 . S
C117 C118 1.381 . S
C118 H110 0.930 . S
C118 C114 1.390 . S
C118 C117 1.381 . S
N119 C112 1.286 . S
N119 C115 1.413 . S
H120 C125 0.930 1_554 S
H121 C128 0.930 . S
H122 C130 0.930 . S
H123 C124 1.016 . S
C124 H123 1.016 . S
C124 N131 1.286 . S
C125 H120 0.930 1_556 S
C125 C126 1.397 . S
C125 C127 1.361 . S
C126 C125 1.397 . S
C126 C130 1.390 . S
C127 C125 1.361 . S
C127 C128 1.393 . S
C127 N131 1.413 . S
C128 H121 0.930 . S
C128 C127 1.393 . S
C128 C129 1.399 . S
C129 C128 1.399 . S
C129 C130 1.381 . S
C130 H122 0.930 . S
C130 C126 1.390 . S
C130 C129 1.381 . S
N131 C124 1.286 . S
N131 C127 1.413 . S
H132 C137 0.930 . S
H133 C140 0.930 . S
H134 C142 0.930 . S
H135 C136 1.016 . S
C136 H135 1.016 . S
C136 N143 1.286 . S
C137 H132 0.930 . S
C137 C138 1.397 . S
C137 C139 1.361 . S
C138 C137 1.397 . S
C138 C142 1.390 . S
C139 C137 1.361 . S
C139 C140 1.393 . S
C139 N143 1.413 . S
C140 H133 0.930 . S
C140 C139 1.393 . S
C140 C141 1.399 . S
C141 C140 1.399 . S
C141 C142 1.381 . S
C142 H134 0.930 . S
C142 C138 1.390 . S
C142 C141 1.381 . S
N143 C136 1.286 . S
N143 C139 1.413 . S
H144 C149 0.930 . S
H145 C152 0.930 . S
H146 C154 0.930 . S
H147 C148 1.016 . S
C148 H147 1.016 . S
C148 N155 1.286 . S
C149 H144 0.930 . S
C149 C150 1.397 . S
C149 C151 1.361 . S
C150 C149 1.397 . S
C150 C154 1.390 . S
C151 C149 1.361 . S
C151 C152 1.393 . S
C151 N155 1.413 . S
C152 H145 0.930 . S
C152 C151 1.393 . S
C152 C153 1.399 . S
C153 C152 1.399 . S
C153 C154 1.381 . S
C154 H146 0.930 . S
C154 C150 1.390 . S
C154 C153 1.381 . S
N155 C148 1.286 . S
N155 C151 1.413 . S
H156 C161 0.930 . S
H157 C164 0.930 . S
H158 C166 0.930 . S
H159 C160 1.016 . S
C160 H159 1.016 . S
C160 N167 1.286 . S
C161 H156 0.930 . S
C161 C162 1.397 . S
C161 C163 1.361 . S
C162 C161 1.397 . S
C162 C166 1.390 . S
C163 C161 1.361 . S
C163 C164 1.393 . S
C163 N167 1.413 . S
C164 H157 0.930 . S
C164 C163 1.393 . S
C164 C165 1.399 . S
C165 C164 1.399 . S
C165 C166 1.381 . S
C166 H158 0.930 . S
C166 C162 1.390 . S
C166 C165 1.381 . S
N167 C160 1.286 . S
N167 C163 1.413 . S
H168 C173 0.930 . S
H169 C176 0.930 . S
H170 C178 0.930 . S
H171 C172 1.016 . S
C172 H171 1.016 . S
C172 N179 1.286 . S
C173 H168 0.930 . S
C173 C174 1.397 . S
C173 C175 1.361 . S
C174 C173 1.397 . S
C174 C178 1.390 . S
C175 C173 1.361 . S
C175 C176 1.393 . S
C175 N179 1.413 . S
C176 H169 0.930 . S
C176 C175 1.393 . S
C176 C177 1.399 . S
C177 C176 1.399 . S
C177 C178 1.381 . S
C178 H170 0.930 . S
C178 C174 1.390 . S
C178 C177 1.381 . S
N179 C172 1.286 . S
N179 C175 1.413 . S
H180 C185 0.930 . S
H181 C188 0.930 . S
H182 C190 0.930 . S
H183 C184 1.016 . S
C184 H183 1.016 . S
C184 N191 1.286 . S
C185 H180 0.930 . S
C185 C186 1.397 . S
C185 C187 1.361 . S
C186 C185 1.397 . S
C186 C190 1.390 . S
C187 C185 1.361 . S
C187 C188 1.393 . S
C187 N191 1.413 . S
C188 H181 0.930 . S
C188 C187 1.393 . S
C188 C189 1.399 . S
C189 C188 1.399 . S
C189 C190 1.381 . S
C190 H182 0.930 . S
C190 C186 1.390 . S
C190 C189 1.381 . S
N191 C184 1.286 . S
N191 C187 1.413 . S
H192 C197 0.930 . S
H193 C200 0.930 . S
H194 C202 0.930 . S
H195 C196 1.016 . S
C196 H195 1.016 . S
C196 N203 1.286 . S
C197 H192 0.930 . S
C197 C198 1.397 . S
C197 C199 1.361 . S
C198 C197 1.397 . S
C198 C202 1.390 . S
C199 C197 1.361 . S
C199 C200 1.393 . S
C199 N203 1.413 . S
C200 H193 0.930 . S
C200 C199 1.393 . S
C200 C201 1.399 . S
C201 C200 1.399 . S
C201 C202 1.381 . S
C202 H194 0.930 . S
C202 C198 1.390 . S
C202 C201 1.381 . S
N203 C196 1.286 . S
N203 C199 1.413 . S
H204 C209 0.930 . S
H205 C212 0.930 . S
H206 C214 0.930 . S
H207 C208 1.016 . S
C208 H207 1.016 . S
C208 N215 1.286 . S
C209 H204 0.930 . S
C209 C210 1.397 . S
C209 C211 1.361 . S
C210 C209 1.397 . S
C210 C214 1.390 . S
C211 C209 1.361 . S
C211 C212 1.393 . S
C211 N215 1.413 . S
C212 H205 0.930 . S
C212 C211 1.393 . S
C212 C213 1.399 . S
C213 C212 1.399 . S
C213 C214 1.381 . S
C214 H206 0.930 . S
C214 C210 1.390 . S
C214 C213 1.381 . S
N215 C208 1.286 . S
N215 C211 1.413 . S
Eu216 C225 2.828 1_565 S
Eu216 O227 2.392 . S
Eu216 O229 2.418 . S
Eu216 O234 2.373 1_565 S
Eu216 O237 2.488 . S
Eu216 O238 2.471 1_565 S
Eu216 O239 2.349 1_565 S
Eu217 O226 2.373 1_545 S
Eu217 O230 2.488 . S
Eu217 O231 2.471 1_545 S
Eu217 O232 2.349 1_545 S
Eu217 O235 2.392 . S
Eu217 O236 2.418 . S
Eu217 C246 2.828 . S
C218 O236 1.244 . S
C218 O239 1.265 1_554 S
C219 C220 1.379 . S
C219 C223 1.373 1_545 S
C219 C225 1.505 . S
C220 C219 1.379 . S
C220 C222 1.369 . S
C220 H248 0.930 . S
C221 C223 1.383 1_545 S
C221 C224 1.382 . S
C221 H249 0.930 1_545 S
C222 C220 1.369 . S
C222 C224 1.392 . S
C222 H250 0.930 . S
C223 C219 1.373 1_565 S
C223 C221 1.383 1_565 S
C223 H251 0.931 . S
C224 C221 1.382 . S
C224 C222 1.392 . S
C225 Eu216 2.828 1_545 S
C225 C219 1.505 . S
C225 O237 1.249 1_545 S
C225 O238 1.244 . S
O226 Eu217 2.373 1_565 S
O226 C228 1.258 . S
O227 Eu216 2.392 . S
O227 C228 1.242 1_556 S
C228 O226 1.258 . S
C228 O227 1.242 1_554 S
O229 Eu216 2.418 . S
O229 C233 1.244 1_556 S
O230 Eu217 2.488 . S
O230 C246 1.249 . S
O231 Eu217 2.471 1_565 S
O231 C246 1.244 1_565 S
O232 Eu217 2.349 1_565 S
O232 C233 1.265 . S
C233 O229 1.244 1_554 S
C233 O232 1.265 . S
O234 Eu216 2.373 1_545 S
O234 C247 1.258 . S
O235 Eu217 2.392 . S
O235 C247 1.242 1_554 S
O236 Eu217 2.418 . S
O236 C218 1.244 . S
O237 Eu216 2.488 . S
O237 C225 1.249 1_565 S
O238 Eu216 2.471 1_545 S
O238 C225 1.244 . S
O239 Eu216 2.349 1_545 S
O239 C218 1.265 1_556 S
C240 C241 1.379 . S
C240 C244 1.373 1_565 S
C240 C246 1.505 1_565 S
C241 C240 1.379 . S
C241 C243 1.369 . S
C241 H252 0.930 . S
C242 C244 1.383 . S
C242 C245 1.382 1_545 S
C242 H253 0.930 . S
C243 C241 1.369 . S
C243 C245 1.392 . S
C243 H254 0.930 . S
C244 C240 1.373 1_545 S
C244 C242 1.383 . S
C244 H255 0.931 . S
C245 C242 1.382 1_565 S
C245 C243 1.392 . S
C246 Eu217 2.828 . S
C246 O230 1.249 . S
C246 O231 1.244 1_545 S
C246 C240 1.505 1_545 S
C247 O234 1.258 . S
C247 O235 1.242 1_556 S
H248 C220 0.930 . S
H249 C221 0.930 1_565 S
H250 C222 0.930 . S
H251 C223 0.931 . S
H252 C241 0.930 . S
H253 C242 0.930 . S
H254 C243 0.930 . S
H255 C244 0.931 . S
Eu256 C265 2.832 . S
Eu256 O267 2.392 1_556 S
Eu256 O269 2.418 . S
Eu256 O274 2.373 1_455 S
Eu256 O277 2.488 . S
Eu256 O278 2.471 1_455 S
Eu256 O279 2.349 1_455 S
Eu257 O266 2.373 1_655 S
Eu257 O270 2.488 . S
Eu257 O271 2.471 1_655 S
Eu257 O272 2.349 1_655 S
Eu257 O275 2.392 . S
Eu257 O276 2.418 . S
Eu257 C286 2.828 1_655 S
C258 O276 1.244 1_556 S
C258 O279 1.265 . S
C259 C260 1.379 . S
C259 C263 1.373 1_655 S
C259 C265 1.500 1_655 S
C260 C259 1.379 . S
C260 C262 1.369 . S
C260 H288 0.930 . S
C261 C263 1.383 1_655 S
C261 C264 1.382 . S
C261 H289 0.930 1_655 S
C262 C260 1.369 . S
C262 C264 1.392 . S
C262 H290 0.930 . S
C263 C259 1.373 1_455 S
C263 C261 1.383 1_455 S
C263 H291 0.931 . S
C264 C261 1.382 . S
C264 C262 1.392 . S
C265 Eu256 2.832 . S
C265 C259 1.500 1_455 S
C265 O277 1.256 . S
C265 O278 1.243 1_455 S
O266 Eu257 2.373 1_455 S
O266 C268 1.258 . S
O267 Eu256 2.392 1_554 S
O267 C268 1.242 . S
C268 O266 1.258 . S
C268 O267 1.242 . S
O269 Eu256 2.418 . S
O269 C273 1.244 1_556 S
O270 Eu257 2.488 . S
O270 C286 1.249 1_655 S
O271 Eu257 2.471 1_455 S
O271 C286 1.244 . S
O272 Eu257 2.349 1_455 S
O272 C273 1.265 . S
C273 O269 1.244 1_554 S
C273 O272 1.265 . S
O274 Eu256 2.373 1_655 S
O274 C287 1.258 . S
O275 Eu257 2.392 . S
O275 C287 1.242 1_554 S
O276 Eu257 2.418 . S
O276 C258 1.244 1_554 S
O277 Eu256 2.488 . S
O277 C265 1.256 . S
O278 Eu256 2.471 1_655 S
O278 C265 1.243 1_655 S
O279 Eu256 2.349 1_655 S
O279 C258 1.265 . S
C280 C281 1.379 . S
C280 C284 1.373 1_455 S
C280 C286 1.505 . S
C281 C280 1.379 . S
C281 C283 1.369 . S
C281 H292 0.930 . S
C282 C284 1.383 1_455 S
C282 C285 1.382 . S
C282 H293 0.930 1_455 S
C283 C281 1.369 . S
C283 C285 1.392 . S
C283 H294 0.930 . S
C284 C280 1.373 1_655 S
C284 C282 1.383 1_655 S
C284 H295 0.931 . S
C285 C282 1.382 . S
C285 C283 1.392 . S
C286 Eu257 2.828 1_455 S
C286 O270 1.249 1_455 S
C286 O271 1.244 . S
C286 C280 1.505 . S
C287 O274 1.258 . S
C287 O275 1.242 1_556 S
H288 C260 0.930 . S
H289 C261 0.930 1_455 S
H290 C262 0.930 . S
H291 C263 0.931 . S
H292 C281 0.930 . S
H293 C282 0.930 1_655 S
H294 C283 0.930 . S
H295 C284 0.931 . S
Eu296 C305 2.828 . S
Eu296 O307 2.392 . S
Eu296 O309 2.418 . S
Eu296 O314 2.373 . S
Eu296 O317 2.488 . S
Eu296 O318 2.471 . S
Eu296 O319 2.349 . S
Eu297 O306 2.373 . S
Eu297 O310 2.488 . S
Eu297 O311 2.471 . S
Eu297 O312 2.349 . S
Eu297 O315 2.392 1_556 S
Eu297 O316 2.418 . S
Eu297 C326 2.828 . S
C298 O316 1.244 1_554 S
C298 O319 1.265 . S
C299 C300 1.379 . S
C299 C303 1.373 . S
C299 C305 1.505 . S
C300 C299 1.379 . S
C300 C302 1.369 . S
C300 H328 0.930 . S
C301 C303 1.383 . S
C301 C304 1.382 . S
C301 H329 0.930 . S
C302 C300 1.369 . S
C302 C304 1.392 . S
C302 H330 0.930 . S
C303 C299 1.373 . S
C303 C301 1.383 . S
C303 H331 0.931 . S
C304 C301 1.382 . S
C304 C302 1.392 . S
C305 Eu296 2.828 . S
C305 C299 1.505 . S
C305 O317 1.249 . S
C305 O318 1.244 . S
O306 Eu297 2.373 . S
O306 C308 1.258 . S
O307 Eu296 2.392 . S
O307 C308 1.242 1_554 S
C308 O306 1.258 . S
C308 O307 1.242 1_556 S
O309 Eu296 2.418 . S
O309 C313 1.244 . S
O310 Eu297 2.488 . S
O310 C326 1.249 . S
O311 Eu297 2.471 . S
O311 C326 1.244 . S
O312 Eu297 2.349 . S
O312 C313 1.265 1_556 S
C313 O309 1.244 . S
C313 O312 1.265 1_554 S
O314 Eu296 2.373 . S
O314 C327 1.258 . S
O315 Eu297 2.392 1_554 S
O315 C327 1.242 . S
O316 Eu297 2.418 . S
O316 C298 1.244 1_556 S
O317 Eu296 2.488 . S
O317 C305 1.249 . S
O318 Eu296 2.471 . S
O318 C305 1.244 . S
O319 Eu296 2.349 . S
O319 C298 1.265 . S
C320 C321 1.379 . S
C320 C324 1.373 . S
C320 C326 1.505 . S
C321 C320 1.379 . S
C321 C323 1.369 . S
C321 H332 0.930 . S
C322 C324 1.383 . S
C322 C325 1.382 . S
C322 H333 0.930 . S
C323 C321 1.369 . S
C323 C325 1.392 . S
C323 H334 0.930 . S
C324 C320 1.373 . S
C324 C322 1.383 . S
C324 H335 0.931 . S
C325 C322 1.382 . S
C325 C323 1.392 . S
C326 Eu297 2.828 . S
C326 O310 1.249 . S
C326 O311 1.244 . S
C326 C320 1.505 . S
C327 O314 1.258 . S
C327 O315 1.242 . S
H328 C300 0.930 . S
H329 C301 0.930 . S
H330 C302 0.930 . S
H331 C303 0.931 . S
H332 C321 0.930 . S
H333 C322 0.930 . S
H334 C323 0.930 . S
H335 C324 0.931 . S
Eu336 C345 2.828 . S
Eu336 O347 2.392 . S
Eu336 O349 2.418 . S
Eu336 O354 2.373 . S
Eu336 O357 2.488 . S
Eu336 O358 2.471 . S
Eu336 O359 2.349 . S
Eu337 O346 2.373 . S
Eu337 O350 2.488 . S
Eu337 O351 2.471 . S
Eu337 O352 2.349 . S
Eu337 O355 2.392 . S
Eu337 O356 2.418 . S
Eu337 C366 2.828 . S
C338 O356 1.244 . S
C338 O359 1.265 . S
C339 C340 1.379 . S
C339 C343 1.373 . S
C339 C345 1.505 . S
C340 C339 1.379 . S
C340 C342 1.369 . S
C340 H368 0.930 . S
C341 C343 1.383 . S
C341 C344 1.382 . S
C341 H369 0.930 . S
C342 C340 1.369 . S
C342 C344 1.392 . S
C342 H370 0.930 . S
C343 C339 1.373 . S
C343 C341 1.383 . S
C343 H371 0.931 . S
C344 C341 1.382 . S
C344 C342 1.392 . S
C345 Eu336 2.828 . S
C345 C339 1.505 . S
C345 O357 1.249 . S
C345 O358 1.244 . S
O346 Eu337 2.373 . S
O346 C348 1.258 . S
O347 Eu336 2.392 . S
O347 C348 1.242 . S
C348 O346 1.258 . S
C348 O347 1.242 . S
O349 Eu336 2.418 . S
O349 C353 1.244 . S
O350 Eu337 2.488 . S
O350 C366 1.249 . S
O351 Eu337 2.471 . S
O351 C366 1.244 . S
O352 Eu337 2.349 . S
O352 C353 1.265 . S
C353 O349 1.244 . S
C353 O352 1.265 . S
O354 Eu336 2.373 . S
O354 C367 1.258 . S
O355 Eu337 2.392 . S
O355 C367 1.242 . S
O356 Eu337 2.418 . S
O356 C338 1.244 . S
O357 Eu336 2.488 . S
O357 C345 1.249 . S
O358 Eu336 2.471 . S
O358 C345 1.244 . S
O359 Eu336 2.349 . S
O359 C338 1.265 . S
C360 C361 1.379 . S
C360 C364 1.373 . S
C360 C366 1.505 . S
C361 C360 1.379 . S
C361 C363 1.369 . S
C361 H372 0.930 . S
C362 C364 1.383 . S
C362 C365 1.382 . S
C362 H373 0.930 . S
C363 C361 1.369 . S
C363 C365 1.392 . S
C363 H374 0.930 . S
C364 C360 1.373 . S
C364 C362 1.383 . S
C364 H375 0.931 . S
C365 C362 1.382 . S
C365 C363 1.392 . S
C366 Eu337 2.828 . S
C366 O350 1.249 . S
C366 O351 1.244 . S
C366 C360 1.505 . S
C367 O354 1.258 . S
C367 O355 1.242 . S
H368 C340 0.930 . S
H369 C341 0.930 . S
H370 C342 0.930 . S
H371 C343 0.931 . S
H372 C361 0.930 . S
H373 C362 0.930 . S
H374 C363 0.930 . S
H375 C364 0.931 . S
Eu376 C385 2.828 . S
Eu376 O387 2.392 . S
Eu376 O389 2.418 . S
Eu376 O394 2.373 . S
Eu376 O397 2.488 . S
Eu376 O398 2.471 . S
Eu376 O399 2.349 . S
Eu377 O386 2.373 . S
Eu377 O390 2.488 . S
Eu377 O391 2.471 . S
Eu377 O392 2.349 . S
Eu377 O395 2.392 . S
Eu377 O396 2.418 . S
Eu377 C406 2.828 . S
C378 O396 1.244 . S
C378 O399 1.265 . S
C379 C380 1.379 . S
C379 C383 1.373 . S
C379 C385 1.505 . S
C380 C379 1.379 . S
C380 C382 1.369 . S
C380 H408 0.930 . S
C381 C383 1.383 . S
C381 C384 1.382 . S
C381 H409 0.930 . S
C382 C380 1.369 . S
C382 C384 1.392 . S
C382 H410 0.930 . S
C383 C379 1.373 . S
C383 C381 1.383 . S
C383 H411 0.931 . S
C384 C381 1.382 . S
C384 C382 1.392 . S
C385 Eu376 2.828 . S
C385 C379 1.505 . S
C385 O397 1.249 . S
C385 O398 1.244 . S
O386 Eu377 2.373 . S
O386 C388 1.258 . S
O387 Eu376 2.392 . S
O387 C388 1.242 . S
C388 O386 1.258 . S
C388 O387 1.242 . S
O389 Eu376 2.418 . S
O389 C393 1.244 . S
O390 Eu377 2.488 . S
O390 C406 1.249 . S
O391 Eu377 2.471 . S
O391 C406 1.244 . S
O392 Eu377 2.349 . S
O392 C393 1.265 . S
C393 O389 1.244 . S
C393 O392 1.265 . S
O394 Eu376 2.373 . S
O394 C407 1.258 . S
O395 Eu377 2.392 . S
O395 C407 1.242 . S
O396 Eu377 2.418 . S
O396 C378 1.244 . S
O397 Eu376 2.488 . S
O397 C385 1.249 . S
O398 Eu376 2.471 . S
O398 C385 1.244 . S
O399 Eu376 2.349 . S
O399 C378 1.265 . S
C400 C401 1.379 . S
C400 C404 1.373 . S
C400 C406 1.505 . S
C401 C400 1.379 . S
C401 C403 1.369 . S
C401 H412 0.930 . S
C402 C404 1.383 . S
C402 C405 1.382 . S
C402 H413 0.930 . S
C403 C401 1.369 . S
C403 C405 1.392 . S
C403 H414 0.930 . S
C404 C400 1.373 . S
C404 C402 1.383 . S
C404 H415 0.931 . S
C405 C402 1.382 . S
C405 C403 1.392 . S
C406 Eu377 2.828 . S
C406 O390 1.249 . S
C406 O391 1.244 . S
C406 C400 1.505 . S
C407 O394 1.258 . S
C407 O395 1.242 . S
H408 C380 0.930 . S
H409 C381 0.930 . S
H410 C382 0.930 . S
H411 C383 0.931 . S
H412 C401 0.930 . S
H413 C402 0.930 . S
H414 C403 0.930 . S
H415 C404 0.931 . S
Eu416 C425 2.828 . S
Eu416 O427 2.392 . S
Eu416 O429 2.418 . S
Eu416 O434 2.373 . S
Eu416 O437 2.488 . S
Eu416 O438 2.471 . S
Eu416 O439 2.349 . S
Eu417 O426 2.373 . S
Eu417 O430 2.488 . S
Eu417 O431 2.471 . S
Eu417 O432 2.349 . S
Eu417 O435 2.392 . S
Eu417 O436 2.418 . S
Eu417 C446 2.828 . S
C418 O436 1.244 . S
C418 O439 1.265 . S
C419 C420 1.379 . S
C419 C423 1.373 . S
C419 C425 1.505 . S
C420 C419 1.379 . S
C420 C422 1.369 . S
C420 H448 0.930 . S
C421 C423 1.383 . S
C421 C424 1.382 . S
C421 H449 0.930 . S
C422 C420 1.369 . S
C422 C424 1.392 . S
C422 H450 0.930 . S
C423 C419 1.373 . S
C423 C421 1.383 . S
C423 H451 0.931 . S
C424 C421 1.382 . S
C424 C422 1.392 . S
C425 Eu416 2.828 . S
C425 C419 1.505 . S
C425 O437 1.249 . S
C425 O438 1.244 . S
O426 Eu417 2.373 . S
O426 C428 1.258 . S
O427 Eu416 2.392 . S
O427 C428 1.242 . S
C428 O426 1.258 . S
C428 O427 1.242 . S
O429 Eu416 2.418 . S
O429 C433 1.244 . S
O430 Eu417 2.488 . S
O430 C446 1.249 . S
O431 Eu417 2.471 . S
O431 C446 1.244 . S
O432 Eu417 2.349 . S
O432 C433 1.265 . S
C433 O429 1.244 . S
C433 O432 1.265 . S
O434 Eu416 2.373 . S
O434 C447 1.258 . S
O435 Eu417 2.392 . S
O435 C447 1.242 . S
O436 Eu417 2.418 . S
O436 C418 1.244 . S
O437 Eu416 2.488 . S
O437 C425 1.249 . S
O438 Eu416 2.471 . S
O438 C425 1.244 . S
O439 Eu416 2.349 . S
O439 C418 1.265 . S
C440 C441 1.379 . S
C440 C444 1.373 . S
C440 C446 1.505 . S
C441 C440 1.379 . S
C441 C443 1.369 . S
C441 H452 0.930 . S
C442 C444 1.383 . S
C442 C445 1.382 . S
C442 H453 0.930 . S
C443 C441 1.369 . S
C443 C445 1.392 . S
C443 H454 0.930 . S
C444 C440 1.373 . S
C444 C442 1.383 . S
C444 H455 0.931 . S
C445 C442 1.382 . S
C445 C443 1.392 . S
C446 Eu417 2.828 . S
C446 O430 1.249 . S
C446 O431 1.244 . S
C446 C440 1.505 . S
C447 O434 1.258 . S
C447 O435 1.242 . S
H448 C420 0.930 . S
H449 C421 0.930 . S
H450 C422 0.930 . S
H451 C423 0.931 . S
H452 C441 0.930 . S
H453 C442 0.930 . S
H454 C443 0.930 . S
H455 C444 0.931 . S
Eu456 C465 2.828 . S
Eu456 O467 2.392 . S
Eu456 O469 2.418 . S
Eu456 O474 2.373 . S
Eu456 O477 2.488 . S
Eu456 O478 2.471 . S
Eu456 O479 2.349 . S
Eu457 O466 2.373 . S
Eu457 O470 2.488 . S
Eu457 O471 2.471 . S
Eu457 O472 2.349 . S
Eu457 O475 2.392 . S
Eu457 O476 2.418 . S
Eu457 C486 2.828 . S
C458 O476 1.244 . S
C458 O479 1.265 . S
C459 C460 1.379 . S
C459 C463 1.373 . S
C459 C465 1.505 . S
C460 C459 1.379 . S
C460 C462 1.369 . S
C460 H488 0.930 . S
C461 C463 1.383 . S
C461 C464 1.382 . S
C461 H489 0.930 . S
C462 C460 1.369 . S
C462 C464 1.392 . S
C462 H490 0.930 . S
C463 C459 1.373 . S
C463 C461 1.383 . S
C463 H491 0.931 . S
C464 C461 1.382 . S
C464 C462 1.392 . S
C465 Eu456 2.828 . S
C465 C459 1.505 . S
C465 O477 1.249 . S
C465 O478 1.244 . S
O466 Eu457 2.373 . S
O466 C468 1.258 . S
O467 Eu456 2.392 . S
O467 C468 1.242 . S
C468 O466 1.258 . S
C468 O467 1.242 . S
O469 Eu456 2.418 . S
O469 C473 1.244 . S
O470 Eu457 2.488 . S
O470 C486 1.249 . S
O471 Eu457 2.471 . S
O471 C486 1.244 . S
O472 Eu457 2.349 . S
O472 C473 1.265 . S
C473 O469 1.244 . S
C473 O472 1.265 . S
O474 Eu456 2.373 . S
O474 C487 1.258 . S
O475 Eu457 2.392 . S
O475 C487 1.242 . S
O476 Eu457 2.418 . S
O476 C458 1.244 . S
O477 Eu456 2.488 . S
O477 C465 1.249 . S
O478 Eu456 2.471 . S
O478 C465 1.244 . S
O479 Eu456 2.349 . S
O479 C458 1.265 . S
C480 C481 1.379 . S
C480 C484 1.373 . S
C480 C486 1.505 . S
C481 C480 1.379 . S
C481 C483 1.369 . S
C481 H492 0.930 . S
C482 C484 1.383 . S
C482 C485 1.382 . S
C482 H493 0.930 . S
C483 C481 1.369 . S
C483 C485 1.392 . S
C483 H494 0.930 . S
C484 C480 1.373 . S
C484 C482 1.383 . S
C484 H495 0.931 . S
C485 C482 1.382 . S
C485 C483 1.392 . S
C486 Eu457 2.828 . S
C486 O470 1.249 . S
C486 O471 1.244 . S
C486 C480 1.505 . S
C487 O474 1.258 . S
C487 O475 1.242 . S
H488 C460 0.930 . S
H489 C461 0.930 . S
H490 C462 0.930 . S
H491 C463 0.931 . S
H492 C481 0.930 . S
H493 C482 0.930 . S
H494 C483 0.930 . S
H495 C484 0.931 . S
Eu496 C505 2.828 . S
Eu496 O507 2.392 . S
Eu496 O509 2.418 . S
Eu496 O514 2.373 . S
Eu496 O517 2.488 . S
Eu496 O518 2.471 . S
Eu496 O519 2.349 . S
Eu497 O506 2.373 . S
Eu497 O510 2.488 . S
Eu497 O511 2.471 . S
Eu497 O512 2.349 . S
Eu497 O515 2.392 . S
Eu497 O516 2.418 . S
Eu497 C526 2.828 . S
C498 O516 1.244 . S
C498 O519 1.265 . S
C499 C500 1.379 . S
C499 C503 1.373 . S
C499 C505 1.505 . S
C500 C499 1.379 . S
C500 C502 1.369 . S
C500 H528 0.930 . S
C501 C503 1.383 . S
C501 C504 1.382 . S
C501 H529 0.930 . S
C502 C500 1.369 . S
C502 C504 1.392 . S
C502 H530 0.930 . S
C503 C499 1.373 . S
C503 C501 1.383 . S
C503 H531 0.931 . S
C504 C501 1.382 . S
C504 C502 1.392 . S
C505 Eu496 2.828 . S
C505 C499 1.505 . S
C505 O517 1.249 . S
C505 O518 1.244 . S
O506 Eu497 2.373 . S
O506 C508 1.258 . S
O507 Eu496 2.392 . S
O507 C508 1.242 . S
C508 O506 1.258 . S
C508 O507 1.242 . S
O509 Eu496 2.418 . S
O509 C513 1.244 . S
O510 Eu497 2.488 . S
O510 C526 1.249 . S
O511 Eu497 2.471 . S
O511 C526 1.244 . S
O512 Eu497 2.349 . S
O512 C513 1.265 . S
C513 O509 1.244 . S
C513 O512 1.265 . S
O514 Eu496 2.373 . S
O514 C527 1.258 . S
O515 Eu497 2.392 . S
O515 C527 1.242 . S
O516 Eu497 2.418 . S
O516 C498 1.244 . S
O517 Eu496 2.488 . S
O517 C505 1.249 . S
O518 Eu496 2.471 . S
O518 C505 1.244 . S
O519 Eu496 2.349 . S
O519 C498 1.265 . S
C520 C521 1.379 . S
C520 C524 1.373 . S
C520 C526 1.505 . S
C521 C520 1.379 . S
C521 C523 1.369 . S
C521 H532 0.930 . S
C522 C524 1.383 . S
C522 C525 1.382 . S
C522 H533 0.930 . S
C523 C521 1.369 . S
C523 C525 1.392 . S
C523 H534 0.930 . S
C524 C520 1.373 . S
C524 C522 1.383 . S
C524 H535 0.931 . S
C525 C522 1.382 . S
C525 C523 1.392 . S
C526 Eu497 2.828 . S
C526 O510 1.249 . S
C526 O511 1.244 . S
C526 C520 1.505 . S
C527 O514 1.258 . S
C527 O515 1.242 . S
H528 C500 0.930 . S
H529 C501 0.930 . S
H530 C502 0.930 . S
H531 C503 0.931 . S
H532 C521 0.930 . S
H533 C522 0.930 . S
H534 C523 0.930 . S
H535 C524 0.931 . S
Eu536 C545 2.828 . S
Eu536 O547 2.392 . S
Eu536 O549 2.418 . S
Eu536 O554 2.373 . S
Eu536 O557 2.488 . S
Eu536 O558 2.471 . S
Eu536 O559 2.349 . S
Eu537 O546 2.373 . S
Eu537 O550 2.488 . S
Eu537 O551 2.471 . S
Eu537 O552 2.349 . S
Eu537 O555 2.392 . S
Eu537 O556 2.418 . S
Eu537 C566 2.828 . S
C538 O556 1.244 . S
C538 O559 1.265 . S
C539 C540 1.379 . S
C539 C543 1.373 . S
C539 C545 1.505 . S
C540 C539 1.379 . S
C540 C542 1.369 . S
C540 H568 0.930 . S
C541 C543 1.383 . S
C541 C544 1.382 . S
C541 H569 0.930 . S
C542 C540 1.369 . S
C542 C544 1.392 . S
C542 H570 0.930 . S
C543 C539 1.373 . S
C543 C541 1.383 . S
C543 H571 0.931 . S
C544 C541 1.382 . S
C544 C542 1.392 . S
C545 Eu536 2.828 . S
C545 C539 1.505 . S
C545 O557 1.249 . S
C545 O558 1.244 . S
O546 Eu537 2.373 . S
O546 C548 1.258 . S
O547 Eu536 2.392 . S
O547 C548 1.242 . S
C548 O546 1.258 . S
C548 O547 1.242 . S
O549 Eu536 2.418 . S
O549 C553 1.244 . S
O550 Eu537 2.488 . S
O550 C566 1.249 . S
O551 Eu537 2.471 . S
O551 C566 1.244 . S
O552 Eu537 2.349 . S
O552 C553 1.265 . S
C553 O549 1.244 . S
C553 O552 1.265 . S
O554 Eu536 2.373 . S
O554 C567 1.258 . S
O555 Eu537 2.392 . S
O555 C567 1.242 . S
O556 Eu537 2.418 . S
O556 C538 1.244 . S
O557 Eu536 2.488 . S
O557 C545 1.249 . S
O558 Eu536 2.471 . S
O558 C545 1.244 . S
O559 Eu536 2.349 . S
O559 C538 1.265 . S
C560 C561 1.379 . S
C560 C564 1.373 . S
C560 C566 1.505 . S
C561 C560 1.379 . S
C561 C563 1.369 . S
C561 H572 0.930 . S
C562 C564 1.383 . S
C562 C565 1.382 . S
C562 H573 0.930 . S
C563 C561 1.369 . S
C563 C565 1.392 . S
C563 H574 0.930 . S
C564 C560 1.373 . S
C564 C562 1.383 . S
C564 H575 0.931 . S
C565 C562 1.382 . S
C565 C563 1.392 . S
C566 Eu537 2.828 . S
C566 O550 1.249 . S
C566 O551 1.244 . S
C566 C560 1.505 . S
C567 O554 1.258 . S
C567 O555 1.242 . S
H568 C540 0.930 . S
H569 C541 0.930 . S
H570 C542 0.930 . S
H571 C543 0.931 . S
H572 C561 0.930 . S
H573 C562 0.930 . S
H574 C563 0.930 . S
H575 C564 0.931 . S
C576 C577 1.387 . S
C576 H580 0.950 . S
C576 C585 1.390 . S
C577 C576 1.387 . S
C577 C579 1.387 . S
H578 C585 0.950 1_556 S
C579 C577 1.387 . S
C579 C581 1.390 . S
C579 H583 0.950 . S
H580 C576 0.950 . S
C581 C579 1.390 . S
C581 C582 1.387 . S
C581 H584 0.950 . S
C582 C581 1.387 . S
C582 C585 1.387 . S
H583 C579 0.950 . S
H584 C581 0.950 . S
C585 C576 1.390 . S
C585 H578 0.950 1_554 S
C585 C582 1.387 . S
C586 C587 1.387 . S
C586 H590 0.950 . S
C586 C595 1.390 . S
C587 C586 1.387 . S
C587 C589 1.387 . S
H588 C595 0.950 . S
C589 C587 1.387 . S
C589 C591 1.390 . S
C589 H593 0.950 . S
H590 C586 0.950 . S
C591 C589 1.390 . S
C591 C592 1.387 . S
C591 H594 0.950 . S
C592 C591 1.387 . S
C592 C595 1.387 . S
H593 C589 0.950 . S
H594 C591 0.950 . S
C595 C586 1.390 . S
C595 H588 0.950 . S
C595 C592 1.387 . S
C596 C597 1.387 . S
C596 H600 0.950 1_554 S
C596 C605 1.390 1_554 S
C597 C596 1.387 . S
C597 C599 1.387 . S
H598 C605 0.950 . S
C599 C597 1.387 . S
C599 C601 1.390 . S
C599 H603 0.950 . S
H600 C596 0.950 1_556 S
C601 C599 1.390 . S
C601 C602 1.387 . S
C601 H604 0.950 . S
C602 C601 1.387 . S
C602 C605 1.387 1_554 S
H603 C599 0.950 . S
H604 C601 0.950 . S
C605 C596 1.390 1_556 S
C605 H598 0.950 . S
C605 C602 1.387 1_556 S
C606 C607 1.387 . S
C606 H610 0.950 . S
C606 C615 1.390 . S
C607 C606 1.387 . S
C607 C609 1.387 . S
H608 C615 0.950 . S
C609 C607 1.387 . S
C609 C611 1.390 1_556 S
C609 H613 0.950 1_556 S
H610 C606 0.950 . S
C611 C609 1.390 1_554 S
C611 C612 1.387 1_554 S
C611 H614 0.950 . S
C612 C611 1.387 1_556 S
C612 C615 1.387 . S
H613 C609 0.950 1_554 S
H614 C611 0.950 . S
C615 C606 1.390 . S
C615 H608 0.950 . S
C615 C612 1.387 . S
C616 C617 1.387 . S
C616 H620 0.950 . S
C616 C625 1.390 . S
C617 C616 1.387 . S
C617 C619 1.387 . S
H618 C625 0.950 . S
C619 C617 1.387 . S
C619 C621 1.390 . S
C619 H623 0.950 . S
H620 C616 0.950 . S
C621 C619 1.390 . S
C621 C622 1.387 . S
C621 H624 0.950 . S
C622 C621 1.387 . S
C622 C625 1.387 . S
H623 C619 0.950 . S
H624 C621 0.950 . S
C625 C616 1.390 . S
C625 H618 0.950 . S
C625 C622 1.387 . S
C626 C627 1.387 1_554 S
C626 H630 0.950 . S
C626 C635 1.390 . S
C627 C626 1.387 1_556 S
C627 C629 1.387 . S
H628 C635 0.950 . S
C629 C627 1.387 . S
C629 C631 1.390 . S
C629 H633 0.950 . S
H630 C626 0.950 . S
C631 C629 1.390 . S
C631 C632 1.387 . S
C631 H634 0.950 . S
C632 C631 1.387 . S
C632 C635 1.387 1_556 S
H633 C629 0.950 . S
H634 C631 0.950 . S
C635 C626 1.390 . S
C635 H628 0.950 . S
C635 C632 1.387 1_554 S
C636 C637 1.387 . S
C636 H640 0.950 . S
C636 C645 1.390 . S
C637 C636 1.387 . S
C637 C639 1.387 . S
H638 C645 0.950 . S
C639 C637 1.387 . S
C639 C641 1.390 1_556 S
C639 H643 0.950 1_556 S
H640 C636 0.950 . S
C641 C639 1.390 1_554 S
C641 C642 1.387 1_554 S
C641 H644 0.950 . S
C642 C641 1.387 1_556 S
C642 C645 1.387 . S
H643 C639 0.950 1_554 S
H644 C641 0.950 . S
C645 C636 1.390 . S
C645 H638 0.950 . S
C645 C642 1.387 . S
C646 C647 1.387 . S
C646 H650 0.950 . S
C646 C655 1.390 . S
C647 C646 1.387 . S
C647 C649 1.387 . S
H648 C655 0.950 1_554 S
C649 C647 1.387 . S
C649 C651 1.390 . S
C649 H653 0.950 . S
H650 C646 0.950 . S
C651 C649 1.390 . S
C651 C652 1.387 . S
C651 H654 0.950 . S
C652 C651 1.387 . S
C652 C655 1.387 . S
H653 C649 0.950 . S
H654 C651 0.950 . S
C655 C646 1.390 . S
C655 H648 0.950 1_556 S
C655 C652 1.387 . S
C656 C657 1.387 1_554 S
C656 H660 0.950 . S
C656 C665 1.390 . S
C657 C656 1.387 1_556 S
C657 C659 1.387 . S
H658 C665 0.950 . S
C659 C657 1.387 . S
C659 C661 1.390 . S
C659 H663 0.950 . S
H660 C656 0.950 . S
C661 C659 1.390 . S
C661 C662 1.387 . S
C661 H664 0.950 . S
C662 C661 1.387 . S
C662 C665 1.387 1_556 S
H663 C659 0.950 . S
H664 C661 0.950 . S
C665 C656 1.390 . S
C665 H658 0.950 . S
C665 C662 1.387 1_554 S
C666 C667 1.387 . S
C666 H670 0.950 . S
C666 C675 1.390 . S
C667 C666 1.387 . S
C667 C669 1.401 . S
H668 C675 0.950 . S
C669 C667 1.401 . S
C669 C671 1.390 1_554 S
C669 H673 0.936 1_554 S
H670 C666 0.950 . S
C671 C669 1.390 1_556 S
C671 C672 1.387 1_556 S
C671 H674 0.950 . S
C672 C671 1.387 1_554 S
C672 C675 1.387 . S
H673 C669 0.936 1_556 S
H674 C671 0.950 . S
C675 C666 1.390 . S
C675 H668 0.950 . S
C675 C672 1.387 . S
C676 C677 1.387 . S
C676 H680 0.950 . S
C676 C685 1.390 . S
C677 C676 1.387 . S
C677 C679 1.387 . S
H678 C685 0.950 1_556 S
C679 C677 1.387 . S
C679 C681 1.390 . S
C679 H683 0.950 . S
H680 C676 0.950 . S
C681 C679 1.390 . S
C681 C682 1.387 . S
C681 H684 0.950 . S
C682 C681 1.387 . S
C682 C685 1.387 . S
H683 C679 0.950 . S
H684 C681 0.950 . S
C685 C676 1.390 . S
C685 H678 0.950 1_554 S
C685 C682 1.387 . S
C686 C687 1.387 1_556 S
C686 H690 0.950 . S
C686 C695 1.390 . S
C687 C686 1.387 1_554 S
C687 C689 1.387 . S
H688 C695 0.950 . S
C689 C687 1.387 . S
C689 C691 1.390 . S
C689 H693 0.950 . S
H690 C686 0.950 . S
C691 C689 1.390 . S
C691 C692 1.387 . S
C691 H694 0.950 . S
C692 C691 1.387 . S
C692 C695 1.387 1_554 S
H693 C689 0.950 . S
H694 C691 0.950 . S
C695 C686 1.390 . S
C695 H688 0.950 . S
C695 C692 1.387 1_556 S
C696 C697 1.387 . S
C696 H700 0.950 . S
C696 C705 1.390 1_655 S
C697 C696 1.387 . S
C697 C699 1.387 . S
H698 C705 0.950 . S
C699 C697 1.387 . S
C699 C701 1.390 . S
C699 H703 0.950 . S
H700 C696 0.950 . S
C701 C699 1.390 . S
C701 C702 1.387 1_655 S
C701 H704 0.950 . S
C702 C701 1.387 1_455 S
C702 C705 1.387 . S
H703 C699 0.950 . S
H704 C701 0.950 . S
C705 C696 1.390 1_455 S
C705 H698 0.950 . S
C705 C702 1.387 . S
C706 C707 1.387 . S
C706 H710 0.950 . S
C706 C715 1.390 . S
C707 C706 1.387 . S
C707 C709 1.387 . S
H708 C715 0.950 . S
C709 C707 1.387 . S
C709 C711 1.390 . S
C709 H713 0.950 . S
H710 C706 0.950 . S
C711 C709 1.390 . S
C711 C712 1.387 . S
C711 H714 0.950 . S
C712 C711 1.387 . S
C712 C715 1.387 . S
H713 C709 0.950 . S
H714 C711 0.950 . S
C715 C706 1.390 . S
C715 H708 0.950 . S
C715 C712 1.387 . S
C716 C717 1.387 . S
C716 H720 0.950 . S
C716 C725 1.390 . S
C717 C716 1.387 . S
C717 C719 1.387 . S
H718 C725 0.945 1_565 S
C719 C717 1.387 . S
C719 C721 1.390 . S
C719 H723 0.950 . S
H720 C716 0.950 . S
C721 C719 1.390 . S
C721 C722 1.387 1_545 S
C721 H724 0.950 1_545 S
C722 C721 1.387 1_565 S
C722 C725 1.387 1_565 S
H723 C719 0.950 . S
H724 C721 0.950 1_565 S
C725 C716 1.390 . S
C725 H718 0.945 1_545 S
C725 C722 1.387 1_545 S
C726 C727 1.387 . S
C726 H730 0.950 . S
C726 C735 1.390 . S
C727 C726 1.387 . S
C727 C729 1.387 . S
H728 C735 0.950 . S
C729 C727 1.387 . S
C729 C731 1.390 . S
C729 H733 0.950 . S
H730 C726 0.950 . S
C731 C729 1.390 . S
C731 C732 1.387 . S
C731 H734 0.950 . S
C732 C731 1.387 . S
C732 C735 1.387 . S
H733 C729 0.950 . S
H734 C731 0.950 . S
C735 C726 1.390 . S
C735 H728 0.950 . S
C735 C732 1.387 . S
C736 C737 1.387 . S
C736 H740 0.950 . S
C736 C745 1.390 . S
C737 C736 1.387 . S
C737 C739 1.387 . S
H738 C745 0.950 . S
C739 C737 1.387 . S
C739 C741 1.390 . S
C739 H743 0.950 . S
H740 C736 0.950 . S
C741 C739 1.390 . S
C741 C742 1.387 . S
C741 H744 0.950 . S
C742 C741 1.387 . S
C742 C745 1.387 . S
H743 C739 0.950 . S
H744 C741 0.950 . S
C745 C736 1.390 . S
C745 H738 0.950 . S
C745 C742 1.387 . S
C746 C747 1.387 . S
C746 H750 0.950 . S
C746 C755 1.390 . S
C747 C746 1.387 . S
C747 C749 1.387 . S
H748 C755 0.950 . S
C749 C747 1.387 . S
C749 C751 1.390 . S
C749 H753 0.950 . S
H750 C746 0.950 . S
C751 C749 1.390 . S
C751 C752 1.387 . S
C751 H754 0.950 . S
C752 C751 1.387 . S
C752 C755 1.387 . S
H753 C749 0.950 . S
H754 C751 0.950 . S
C755 C746 1.390 . S
C755 H748 0.950 . S
C755 C752 1.387 . S
C756 C757 1.387 . S
C756 H760 0.950 . S
C756 C765 1.390 . S
C757 C756 1.387 . S
C757 C759 1.387 . S
H758 C765 0.950 . S
C759 C757 1.387 . S
C759 C761 1.390 . S
C759 H763 0.950 . S
H760 C756 0.950 . S
C761 C759 1.390 . S
C761 C762 1.387 . S
C761 H764 0.950 . S
C762 C761 1.387 . S
C762 C765 1.387 . S
H763 C759 0.950 . S
H764 C761 0.950 . S
C765 C756 1.390 . S
C765 H758 0.950 . S
C765 C762 1.387 . S
C766 C767 1.387 . S
C766 H770 0.950 . S
C766 C775 1.390 . S
C767 C766 1.387 . S
C767 C769 1.387 . S
H768 C775 0.950 . S
C769 C767 1.387 . S
C769 C771 1.390 . S
C769 H773 0.950 . S
H770 C766 0.950 . S
C771 C769 1.390 . S
C771 C772 1.387 . S
C771 H774 0.950 . S
C772 C771 1.387 . S
C772 C775 1.387 . S
H773 C769 0.950 . S
H774 C771 0.950 . S
C775 C766 1.390 . S
C775 H768 0.950 . S
C775 C772 1.387 . S
C776 C777 1.387 . S
C776 H780 0.950 . S
C776 C785 1.390 . S
C777 C776 1.387 . S
C777 C779 1.387 . S
H778 C785 0.950 . S
C779 C777 1.387 . S
C779 C781 1.390 . S
C779 H783 0.950 . S
H780 C776 0.950 . S
C781 C779 1.390 . S
C781 C782 1.387 . S
C781 H784 0.950 . S
C782 C781 1.387 . S
C782 C785 1.387 . S
H783 C779 0.950 . S
H784 C781 0.950 . S
C785 C776 1.390 . S
C785 H778 0.950 . S
C785 C782 1.387 . S
C786 C787 1.387 1_565 S
C786 H790 0.950 . S
C786 C795 1.390 . S
C787 C786 1.387 1_545 S
C787 C789 1.387 1_545 S
H788 C795 0.950 . S
C789 C787 1.387 1_565 S
C789 C791 1.390 . S
C789 H793 0.950 . S
H790 C786 0.950 . S
C791 C789 1.390 . S
C791 C792 1.387 . S
C791 H794 0.950 . S
C792 C791 1.387 . S
C792 C795 1.387 . S
H793 C789 0.950 . S
H794 C791 0.950 . S
C795 C786 1.390 . S
C795 H788 0.950 . S
C795 C792 1.387 . S
C796 C797 1.387 . S
C796 H800 0.950 . S
C796 C805 1.390 . S
C797 C796 1.387 . S
C797 C799 1.387 . S
H798 C805 0.950 . S
C799 C797 1.387 . S
C799 C801 1.390 . S
C799 H803 0.950 . S
H800 C796 0.950 . S
C801 C799 1.390 . S
C801 C802 1.387 . S
C801 H804 0.950 . S
C802 C801 1.387 . S
C802 C805 1.387 . S
H803 C799 0.950 . S
H804 C801 0.950 . S
C805 C796 1.390 . S
C805 H798 0.950 . S
C805 C802 1.387 . S
C806 C807 1.387 . S
C806 H810 0.950 . S
C806 C815 1.390 . S
C807 C806 1.387 . S
C807 C809 1.387 . S
H808 C815 0.950 . S
C809 C807 1.387 . S
C809 C811 1.390 . S
C809 H813 0.950 . S
H810 C806 0.950 . S
C811 C809 1.390 . S
C811 C812 1.387 . S
C811 H814 0.950 . S
C812 C811 1.387 . S
C812 C815 1.387 . S
H813 C809 0.950 . S
H814 C811 0.950 . S
C815 C806 1.390 . S
C815 H808 0.950 . S
C815 C812 1.387 . S
C816 C817 1.387 . S
C816 H820 0.950 . S
C816 C825 1.390 . S
C817 C816 1.387 . S
C817 C819 1.387 . S
H818 C825 0.950 . S
C819 C817 1.387 . S
C819 C821 1.390 . S
C819 H823 0.950 . S
H820 C816 0.950 . S
C821 C819 1.390 . S
C821 C822 1.387 . S
C821 H824 0.950 . S
C822 C821 1.387 . S
C822 C825 1.387 . S
H823 C819 0.950 . S
H824 C821 0.950 . S
C825 C816 1.390 . S
C825 H818 0.950 . S
C825 C822 1.387 . S
C826 C827 1.387 . S
C826 H830 0.950 . S
C826 C835 1.390 . S
C827 C826 1.387 . S
C827 C829 1.387 . S
H828 C835 0.950 . S
C829 C827 1.387 . S
C829 C831 1.390 . S
C829 H833 0.950 . S
H830 C826 0.950 . S
C831 C829 1.390 . S
C831 C832 1.387 . S
C831 H834 0.950 . S
C832 C831 1.387 . S
C832 C835 1.387 . S
H833 C829 0.950 . S
H834 C831 0.950 . S
C835 C826 1.390 . S
C835 H828 0.950 . S
C835 C832 1.387 . S
C836 C837 1.387 . S
C836 H840 0.950 . S
C836 C845 1.390 . S
C837 C836 1.387 . S
C837 C839 1.387 . S
H838 C845 0.950 . S
C839 C837 1.387 . S
C839 C841 1.390 . S
C839 H843 0.950 . S
H840 C836 0.950 . S
C841 C839 1.390 . S
C841 C842 1.387 . S
C841 H844 0.950 . S
C842 C841 1.387 . S
C842 C845 1.387 . S
H843 C839 0.950 . S
H844 C841 0.950 . S
C845 C836 1.390 . S
C845 H838 0.950 . S
C845 C842 1.387 . S
C846 C847 1.387 . S
C846 H850 0.950 . S
C846 C855 1.390 1_565 S
C847 C846 1.387 . S
C847 C849 1.387 . S
H848 C855 0.950 . S
C849 C847 1.387 . S
C849 C851 1.390 . S
C849 H853 0.950 . S
H850 C846 0.950 . S
C851 C849 1.390 . S
C851 C852 1.387 1_565 S
C851 H854 0.950 1_565 S
C852 C851 1.387 1_545 S
C852 C855 1.387 . S
H853 C849 0.950 . S
H854 C851 0.950 1_545 S
C855 C846 1.390 1_545 S
C855 H848 0.950 . S
C855 C852 1.387 . S
C856 C857 1.387 . S
C856 H860 0.950 . S
C856 C865 1.390 1_455 S
C857 C856 1.387 . S
C857 C859 1.387 . S
H858 C865 0.950 . S
C859 C857 1.387 . S
C859 C861 1.390 . S
C859 H863 0.950 . S
H860 C856 0.950 . S
C861 C859 1.390 . S
C861 C862 1.387 1_455 S
C861 H864 0.950 . S
C862 C861 1.387 1_655 S
C862 C865 1.387 . S
H863 C859 0.950 . S
H864 C861 0.950 . S
C865 C856 1.390 1_655 S
C865 H858 0.950 . S
C865 C862 1.387 . S
C866 C867 1.387 . S
C866 H870 0.950 . S
C866 C875 1.390 . S
C867 C866 1.387 . S
C867 C869 1.387 . S
H868 C875 0.950 . S
C869 C867 1.387 . S
C869 C871 1.390 . S
C869 H873 0.950 . S
H870 C866 0.950 . S
C871 C869 1.390 . S
C871 C872 1.387 . S
C871 H874 0.950 . S
C872 C871 1.387 . S
C872 C875 1.387 . S
H873 C869 0.950 . S
H874 C871 0.950 . S
C875 C866 1.390 . S
C875 H868 0.950 . S
C875 C872 1.387 . S
C876 C877 1.387 . S
C876 H880 0.950 . S
C876 C885 1.390 . S
C877 C876 1.387 . S
C877 C879 1.387 . S
H878 C885 0.950 . S
C879 C877 1.387 . S
C879 C881 1.390 . S
C879 H883 0.950 . S
H880 C876 0.950 . S
C881 C879 1.390 . S
C881 C882 1.387 . S
C881 H884 0.950 . S
C882 C881 1.387 . S
C882 C885 1.387 . S
H883 C879 0.950 . S
H884 C881 0.950 . S
C885 C876 1.390 . S
C885 H878 0.950 . S
C885 C882 1.387 . S
C886 C887 1.387 . S
C886 H890 0.950 . S
C886 C895 1.390 . S
C887 C886 1.387 . S
C887 C889 1.387 . S
H888 C895 0.950 . S
C889 C887 1.387 . S
C889 C891 1.390 . S
C889 H893 0.950 . S
H890 C886 0.950 . S
C891 C889 1.390 . S
C891 C892 1.387 . S
C891 H894 0.950 . S
C892 C891 1.387 . S
C892 C895 1.387 . S
H893 C889 0.950 . S
H894 C891 0.950 . S
C895 C886 1.390 . S
C895 H888 0.950 . S
C895 C892 1.387 . S
C896 C897 1.387 . S
C896 H900 0.950 . S
C896 C905 1.390 . S
C897 C896 1.387 . S
C897 C899 1.387 . S
H898 C905 0.950 . S
C899 C897 1.387 . S
C899 C901 1.390 . S
C899 H903 0.950 . S
H900 C896 0.950 . S
C901 C899 1.390 . S
C901 C902 1.387 . S
C901 H904 0.950 . S
C902 C901 1.387 . S
C902 C905 1.387 . S
H903 C899 0.950 . S
H904 C901 0.950 . S
C905 C896 1.390 . S
C905 H898 0.950 . S
C905 C902 1.387 . S
C906 C907 1.387 . S
C906 H910 0.950 . S
C906 C915 1.390 . S
C907 C906 1.387 . S
C907 C909 1.387 . S
H908 C915 0.950 . S
C909 C907 1.387 . S
C909 C911 1.390 . S
C909 H913 0.950 . S
H910 C906 0.950 . S
C911 C909 1.390 . S
C911 C912 1.387 . S
C911 H914 0.950 . S
C912 C911 1.387 . S
C912 C915 1.387 . S
H913 C909 0.950 . S
H914 C911 0.950 . S
C915 C906 1.390 . S
C915 H908 0.950 . S
C915 C912 1.387 . S
C916 C917 1.387 . S
C916 H920 0.950 . S
C916 C925 1.390 . S
C917 C916 1.387 . S
C917 C919 1.387 . S
H918 C925 0.950 . S
C919 C917 1.387 . S
C919 C921 1.390 . S
C919 H923 0.950 . S
H920 C916 0.950 . S
C921 C919 1.390 . S
C921 C922 1.387 . S
C921 H924 0.950 . S
C922 C921 1.387 . S
C922 C925 1.387 . S
H923 C919 0.950 . S
H924 C921 0.950 . S
C925 C916 1.390 . S
C925 H918 0.950 . S
C925 C922 1.387 . S
C926 C927 1.387 . S
C926 H930 0.950 . S
C926 C935 1.390 . S
C927 C926 1.387 . S
C927 C929 1.387 . S
H928 C935 0.950 . S
C929 C927 1.387 . S
C929 C931 1.390 . S
C929 H933 0.950 . S
H930 C926 0.950 . S
C931 C929 1.390 . S
C931 C932 1.387 . S
C931 H934 0.950 . S
C932 C931 1.387 . S
C932 C935 1.387 . S
H933 C929 0.950 . S
H934 C931 0.950 . S
C935 C926 1.390 . S
C935 H928 0.950 . S
C935 C932 1.387 . S
C936 C937 1.387 . S
C936 H940 0.950 . S
C936 C945 1.390 . S
C937 C936 1.387 . S
C937 C939 1.387 . S
H938 C945 0.950 . S
C939 C937 1.387 . S
C939 C941 1.390 . S
C939 H943 0.950 . S
H940 C936 0.950 . S
C941 C939 1.390 . S
C941 C942 1.387 . S
C941 H944 0.950 1_565 S
C942 C941 1.387 . S
C942 C945 1.387 . S
H943 C939 0.950 . S
H944 C941 0.950 1_545 S
C945 C936 1.390 . S
C945 H938 0.950 . S
C945 C942 1.387 . S
C946 C947 1.387 . S
C946 H950 0.950 . S
C946 C955 1.390 . S
C947 C946 1.387 . S
C947 C949 1.387 . S
H948 C955 0.950 . S
C949 C947 1.387 . S
C949 C951 1.390 . S
C949 H953 0.950 1_455 S
H950 C946 0.950 . S
C951 C949 1.390 . S
C951 C952 1.387 . S
C951 H954 0.950 1_455 S
C952 C951 1.387 . S
C952 C955 1.387 . S
H953 C949 0.950 1_655 S
H954 C951 0.950 1_655 S
C955 C946 1.390 . S
C955 H948 0.950 . S
C955 C952 1.387 . S
C956 C957 1.387 . S
C956 H960 0.950 . S
C956 C965 1.390 . S
C957 C956 1.387 . S
C957 C959 1.387 . S
H958 C965 0.950 . S
C959 C957 1.387 . S
C959 C961 1.390 . S
C959 H963 0.950 . S
H960 C956 0.950 . S
C961 C959 1.390 . S
C961 C962 1.387 . S
C961 H964 0.950 . S
C962 C961 1.387 . S
C962 C965 1.387 . S
H963 C959 0.950 . S
H964 C961 0.950 . S
C965 C956 1.390 . S
C965 H958 0.950 . S
C965 C962 1.387 . S
C966 C967 1.387 . S
C966 H970 0.950 . S
C966 C975 1.390 . S
C967 C966 1.387 . S
C967 C969 1.387 . S
H968 C975 0.950 . S
C969 C967 1.387 . S
C969 C971 1.390 . S
C969 H973 0.950 1_655 S
H970 C966 0.950 . S
C971 C969 1.390 . S
C971 C972 1.387 . S
C971 H974 0.949 1_655 S
C972 C971 1.387 . S
C972 C975 1.387 . S
H973 C969 0.950 1_455 S
H974 C971 0.949 1_455 S
C975 C966 1.390 . S
C975 H968 0.950 . S
C975 C972 1.387 . S
C976 C977 1.387 . S
C976 H980 0.950 . S
C976 C985 1.390 . S
C977 C976 1.387 . S
C977 C979 1.387 . S
H978 C985 0.950 . S
C979 C977 1.387 . S
C979 C981 1.390 . S
C979 H983 0.950 . S
H980 C976 0.950 . S
C981 C979 1.390 . S
C981 C982 1.387 . S
C981 H984 0.950 . S
C982 C981 1.387 . S
C982 C985 1.387 . S
H983 C979 0.950 . S
H984 C981 0.950 . S
C985 C976 1.390 . S
C985 H978 0.950 . S
C985 C982 1.387 . S
C986 C987 1.387 . S
C986 H990 0.950 . S
C986 C995 1.390 . S
C987 C986 1.387 . S
C987 C989 1.387 . S
H988 C995 0.950 . S
C989 C987 1.387 . S
C989 C991 1.390 . S
C989 H993 0.950 . S
H990 C986 0.950 . S
C991 C989 1.390 . S
C991 C992 1.387 . S
C991 H994 0.950 . S
C992 C991 1.387 . S
C992 C995 1.387 . S
H993 C989 0.950 . S
H994 C991 0.950 . S
C995 C986 1.390 . S
C995 H988 0.950 . S
C995 C992 1.387 . S
C996 C997 1.387 . S
C996 H1000 0.950 . S
C996 C1005 1.390 . S
C997 C996 1.387 . S
C997 C999 1.387 . S
H998 C1005 0.950 . S
C999 C997 1.387 . S
C999 C1001 1.390 . S
C999 H1003 0.950 . S
H1000 C996 0.950 . S
C1001 C999 1.390 . S
C1001 C1002 1.387 . S
C1001 H1004 0.950 . S
C1002 C1001 1.387 . S
C1002 C1005 1.387 . S
H1003 C999 0.950 . S
H1004 C1001 0.950 . S
C1005 C996 1.390 . S
C1005 H998 0.950 . S
C1005 C1002 1.387 . S
C1006 C1007 1.387 . S
C1006 H1010 0.950 . S
C1006 C1015 1.390 . S
C1007 C1006 1.387 . S
C1007 C1009 1.387 . S
H1008 C1015 0.950 . S
C1009 C1007 1.387 . S
C1009 C1011 1.390 . S
C1009 H1013 0.950 . S
H1010 C1006 0.950 . S
C1011 C1009 1.390 . S
C1011 C1012 1.387 . S
C1011 H1014 0.950 . S
C1012 C1011 1.387 . S
C1012 C1015 1.387 . S
H1013 C1009 0.950 . S
H1014 C1011 0.950 . S
C1015 C1006 1.390 . S
C1015 H1008 0.950 . S
C1015 C1012 1.387 . S
C1016 C1017 1.387 . S
C1016 H1020 0.950 . S
C1016 C1025 1.390 . S
C1017 C1016 1.387 . S
C1017 C1019 1.387 . S
H1018 C1025 0.950 . S
C1019 C1017 1.387 . S
C1019 C1021 1.390 . S
C1019 H1023 0.950 . S
H1020 C1016 0.950 . S
C1021 C1019 1.390 . S
C1021 C1022 1.387 . S
C1021 H1024 0.950 . S
C1022 C1021 1.387 . S
C1022 C1025 1.387 . S
H1023 C1019 0.950 . S
H1024 C1021 0.950 . S
C1025 C1016 1.390 . S
C1025 H1018 0.950 . S
C1025 C1022 1.387 . S
C1026 C1027 1.387 . S
C1026 H1030 0.950 . S
C1026 C1035 1.390 . S
C1027 C1026 1.387 . S
C1027 C1029 1.387 . S
H1028 C1035 0.950 . S
C1029 C1027 1.387 . S
C1029 C1031 1.390 . S
C1029 H1033 0.950 . S
H1030 C1026 0.950 . S
C1031 C1029 1.390 . S
C1031 C1032 1.387 . S
C1031 H1034 0.950 . S
C1032 C1031 1.387 . S
C1032 C1035 1.387 . S
H1033 C1029 0.950 . S
H1034 C1031 0.950 . S
C1035 C1026 1.390 . S
C1035 H1028 0.950 . S
C1035 C1032 1.387 . S
C1036 C1037 1.387 . S
C1036 H1040 0.950 . S
C1036 C1045 1.390 . S
C1037 C1036 1.387 . S
C1037 C1039 1.387 . S
H1038 C1045 0.950 . S
C1039 C1037 1.387 . S
C1039 C1041 1.390 . S
C1039 H1043 0.950 . S
H1040 C1036 0.950 . S
C1041 C1039 1.390 . S
C1041 C1042 1.387 . S
C1041 H1044 0.950 . S
C1042 C1041 1.387 . S
C1042 C1045 1.387 . S
H1043 C1039 0.950 . S
H1044 C1041 0.950 . S
C1045 C1036 1.390 . S
C1045 H1038 0.950 . S
C1045 C1042 1.387 . S
C1046 C1047 1.387 . S
C1046 H1050 0.950 . S
C1046 C1055 1.390 . S
C1047 C1046 1.387 . S
C1047 C1049 1.387 . S
H1048 C1055 0.950 . S
C1049 C1047 1.387 . S
C1049 C1051 1.390 . S
C1049 H1053 0.950 . S
H1050 C1046 0.950 . S
C1051 C1049 1.390 . S
C1051 C1052 1.387 . S
C1051 H1054 0.950 . S
C1052 C1051 1.387 . S
C1052 C1055 1.387 . S
H1053 C1049 0.950 . S
H1054 C1051 0.950 . S
C1055 C1046 1.390 . S
C1055 H1048 0.950 . S
C1055 C1052 1.387 . S
C1056 C1057 1.387 . S
C1056 H1060 0.950 . S
C1056 C1065 1.390 . S
C1057 C1056 1.387 . S
C1057 C1059 1.387 . S
H1058 C1065 0.950 . S
C1059 C1057 1.387 . S
C1059 C1061 1.390 . S
C1059 H1063 0.950 . S
H1060 C1056 0.950 . S
C1061 C1059 1.390 . S
C1061 C1062 1.387 . S
C1061 H1064 0.950 . S
C1062 C1061 1.387 . S
C1062 C1065 1.387 . S
H1063 C1059 0.950 . S
H1064 C1061 0.950 . S
C1065 C1056 1.390 . S
C1065 H1058 0.950 . S
C1065 C1062 1.387 . S
C1066 C1067 1.387 . S
C1066 H1070 0.950 . S
C1066 C1075 1.390 . S
C1067 C1066 1.387 . S
C1067 C1069 1.387 . S
H1068 C1075 0.950 . S
C1069 C1067 1.387 . S
C1069 C1071 1.390 . S
C1069 H1073 0.950 . S
H1070 C1066 0.950 . S
C1071 C1069 1.390 . S
C1071 C1072 1.387 . S
C1071 H1074 0.950 . S
C1072 C1071 1.387 . S
C1072 C1075 1.387 . S
H1073 C1069 0.950 . S
H1074 C1071 0.950 . S
C1075 C1066 1.390 . S
C1075 H1068 0.950 . S
C1075 C1072 1.387 . S
C1076 C1077 1.387 . S
C1076 H1080 0.950 . S
C1076 C1085 1.390 . S
C1077 C1076 1.387 . S
C1077 C1079 1.387 . S
H1078 C1085 0.950 . S
C1079 C1077 1.387 . S
C1079 C1081 1.390 . S
C1079 H1083 0.950 . S
H1080 C1076 0.950 . S
C1081 C1079 1.390 . S
C1081 C1082 1.387 . S
C1081 H1084 0.950 . S
C1082 C1081 1.387 . S
C1082 C1085 1.387 . S
H1083 C1079 0.950 . S
H1084 C1081 0.950 . S
C1085 C1076 1.390 . S
C1085 H1078 0.950 . S
C1085 C1082 1.387 . S
C1086 C1087 1.387 . S
C1086 H1090 0.950 . S
C1086 C1095 1.390 . S
C1087 C1086 1.387 . S
C1087 C1089 1.387 . S
H1088 C1095 0.950 . S
C1089 C1087 1.387 . S
C1089 C1091 1.390 . S
C1089 H1093 0.950 . S
H1090 C1086 0.950 . S
C1091 C1089 1.390 . S
C1091 C1092 1.387 . S
C1091 H1094 0.950 . S
C1092 C1091 1.387 . S
C1092 C1095 1.387 . S
H1093 C1089 0.950 . S
H1094 C1091 0.950 . S
C1095 C1086 1.390 . S
C1095 H1088 0.950 . S
C1095 C1092 1.387 . S
C1096 C1097 1.387 . S
C1096 H1100 0.950 . S
C1096 C1105 1.390 . S
C1097 C1096 1.387 . S
C1097 C1099 1.387 . S
H1098 C1105 0.950 . S
C1099 C1097 1.387 . S
C1099 C1101 1.390 . S
C1099 H1103 0.950 . S
H1100 C1096 0.950 . S
C1101 C1099 1.390 . S
C1101 C1102 1.387 . S
C1101 H1104 0.950 . S
C1102 C1101 1.387 . S
C1102 C1105 1.387 . S
H1103 C1099 0.950 . S
H1104 C1101 0.950 . S
C1105 C1096 1.390 . S
C1105 H1098 0.950 . S
C1105 C1102 1.387 . S
C1106 C1107 1.387 . S
C1106 H1110 0.950 . S
C1106 C1115 1.390 . S
C1107 C1106 1.387 . S
C1107 C1109 1.387 . S
H1108 C1115 0.950 . S
C1109 C1107 1.387 . S
C1109 C1111 1.390 . S
C1109 H1113 0.950 . S
H1110 C1106 0.950 . S
C1111 C1109 1.390 . S
C1111 C1112 1.387 . S
C1111 H1114 0.950 . S
C1112 C1111 1.387 . S
C1112 C1115 1.387 . S
H1113 C1109 0.950 . S
H1114 C1111 0.950 . S
C1115 C1106 1.390 . S
C1115 H1108 0.950 . S
C1115 C1112 1.387 . S
C577 C162 1.654 . S
C582 C228 1.663 . S
C587 C174 1.750 . S
C592 C268 1.745 . S
C597 C150 1.590 . S
C602 C298 1.574 . S
C607 C138 1.496 . S
C612 C258 1.468 . S
C622 C308 1.520 . S
C617 C114 1.523 . S
C627 C126 1.405 . S
C632 C218 1.399 1_556 S
C642 C247 1.670 . S
C637 C136 1.641 . S
C652 C287 1.645 . S
C647 C112 1.624 . S
C657 C124 1.630 . S
C662 C313 1.672 1_556 S
C667 C160 1.509 . S
C672 C273 1.532 . S
C677 C172 1.480 . S
C682 C327 1.490 . S
C692 C233 1.530 . S
C687 C148 1.492 . S
C702 C348 1.663 . S
C697 C18 1.655 . S
C707 C30 1.750 . S
C712 C388 1.746 . S
C717 C6 1.590 . S
C722 C418 1.574 . S
C727 C210 1.496 . S
C732 C378 1.470 . S
C737 C186 1.523 . S
C742 C428 1.520 . S
C747 C198 1.406 . S
C752 C338 1.398 . S
C757 C208 1.644 . S
C762 C367 1.672 . S
C767 C184 1.624 . S
C772 C407 1.644 . S
C782 C433 1.671 . S
C777 C196 1.628 . S
C787 C16 1.511 . S
C792 C393 1.532 . S
C802 C447 1.489 . S
C797 C28 1.480 1_455 S
C807 C4 1.492 . S
C812 C353 1.530 . S
C822 C468 1.663 . S
C817 C90 1.654 . S
C827 C102 1.751 . S
C832 C508 1.746 . S
C842 C538 1.574 . S
C837 C78 1.592 . S
C852 C498 1.468 . S
C847 C66 1.496 . S
C862 C548 1.520 . S
C857 C42 1.523 . S
C867 C54 1.406 . S
C872 C458 1.400 . S
C877 C64 1.644 1_655 S
C882 C487 1.671 . S
C887 C40 1.625 . S
C892 C527 1.645 . S
C902 C553 1.671 . S
C897 C52 1.628 1_545 S
C907 C88 1.511 . S
C912 C513 1.533 . S
C917 C100 1.480 . S
C922 C567 1.489 . S
C927 C76 1.490 . S
C932 C473 1.528 . S
C937 C189 1.613 . S
C942 C245 1.570 . S
C952 C285 1.869 . S
C947 C201 1.927 . S
C957 C213 1.561 . S
C962 C304 1.576 . S
C967 C81 1.735 . S
C972 C264 1.725 . S
C977 C93 1.690 . S
C982 C325 1.659 . S
C992 C224 1.377 . S
C987 C105 1.370 . S
C997 C45 1.610 . S
C1002 C365 1.567 . S
C1007 C57 1.925 . S
C1012 C405 1.867 . S
C1017 C69 1.561 . S
C1022 C424 1.576 . S
C1027 C153 1.734 . S
C1032 C384 1.725 . S
C1042 C445 1.660 . S
C1037 C165 1.691 . S
C1047 C177 1.369 . S
C1052 C344 1.377 . S
C1057 C117 1.610 . S
C1062 C485 1.567 . S
C1067 C129 1.925 . S
C1072 C525 1.867 . S
C1082 C544 1.576 . S
C1077 C141 1.562 . S
C1087 C9 1.733 . S
C1092 C504 1.723 . S
C1097 C21 1.691 . S
C1102 C565 1.660 . S
C1107 C33 1.369 . S
C1112 C464 1.377 . S
