# Generated by pormake.
# Topology anh, (6,3)-cn, num edge types: 1
# Building blocks:
#     Node 0, Type 0, BuildingBlock: INOVEN_clean_sbu_0, # of connection points: 6
#     Node 1, Type 0, BuildingBlock: INOVEN_clean_sbu_0, # of connection points: 6
#     Node 2, Type 0, BuildingBlock: INOVEN_clean_sbu_0, # of connection points: 6
#     Node 3, Type 1, BuildingBlock: PAMTOO_clean_linker_0, # of connection points: 3
#     Node 4, Type 1, BuildingBlock: PAMTOO_clean_linker_0, # of connection points: 3
#     Node 5, Type 1, BuildingBlock: PAMTOO_clean_linker_0, # of connection points: 3
#     Node 6, Type 1, BuildingBlock: PAMTOO_clean_linker_0, # of connection points: 3
#     Node 7, Type 1, BuildingBlock: PAMTOO_clean_linker_0, # of connection points: 3
#     Node 8, Type 1, BuildingBlock: PAMTOO_clean_linker_0, # of connection points: 3
#     Edge 9, Type (0, 1), BuildingBlock: KIFKEQ_clean_linker_1, # of connection points: 2
#     Edge 10, Type (0, 1), BuildingBlock: KIFKEQ_clean_linker_1, # of connection points: 2
#     Edge 11, Type (0, 1), BuildingBlock: KIFKEQ_clean_linker_1, # of connection points: 2
#     Edge 12, Type (0, 1), BuildingBlock: KIFKEQ_clean_linker_1, # of connection points: 2
#     Edge 13, Type (0, 1), BuildingBlock: KIFKEQ_clean_linker_1, # of connection points: 2
#     Edge 14, Type (0, 1), BuildingBlock: KIFKEQ_clean_linker_1, # of connection points: 2
#     Edge 15, Type (0, 1), BuildingBlock: KIFKEQ_clean_linker_1, # of connection points: 2
#     Edge 16, Type (0, 1), BuildingBlock: KIFKEQ_clean_linker_1, # of connection points: 2
#     Edge 17, Type (0, 1), BuildingBlock: KIFKEQ_clean_linker_1, # of connection points: 2
#     Edge 18, Type (0, 1), BuildingBlock: KIFKEQ_clean_linker_1, # of connection points: 2
#     Edge 19, Type (0, 1), BuildingBlock: KIFKEQ_clean_linker_1, # of connection points: 2
#     Edge 20, Type (0, 1), BuildingBlock: KIFKEQ_clean_linker_1, # of connection points: 2
#     Edge 21, Type (0, 1), BuildingBlock: KIFKEQ_clean_linker_1, # of connection points: 2
#     Edge 22, Type (0, 1), BuildingBlock: KIFKEQ_clean_linker_1, # of connection points: 2
#     Edge 23, Type (0, 1), BuildingBlock: KIFKEQ_clean_linker_1, # of connection points: 2
#     Edge 24, Type (0, 1), BuildingBlock: KIFKEQ_clean_linker_1, # of connection points: 2
#     Edge 25, Type (0, 1), BuildingBlock: KIFKEQ_clean_linker_1, # of connection points: 2
#     Edge 26, Type (0, 1), BuildingBlock: KIFKEQ_clean_linker_1, # of connection points: 2
# Relax obj value: 0.162
# Max RMSD: 0.187
# Mean RMSD: 0.128
data_MOF--net-anh--node1-INOVEN_clean_sbu_0--node2-PAMTOO_clean_linker_0--edge1-KIFKEQ_clean_linker_1
_symmetry_space_group_name_H-M    P1
_symmetry_Int_Tables_number       1
_symmetry_cell_setting            triclinic
loop_
_symmetry_equiv_pos_as_xyz
'x, y, z'
_cell_length_a     32.244515
_cell_length_b     38.475887
_cell_length_c     49.992784
_cell_angle_alpha  88.64537
_cell_angle_beta   92.393897
_cell_angle_gamma 130.24755
loop_
_atom_site_label
_atom_site_type_symbol
_atom_site_fract_x
_atom_site_fract_y
_atom_site_fract_z
_atom_type_partial_charge
Gd0 Gd 0.11436 0.48307 0.15198 0.0
Gd1 Gd 1.0591 0.51936 0.15314 0.0
C2 C 0.18731 0.59408 0.15413 0.0
C3 C 0.17888 0.46749 0.14663 0.0
C4 C 0.23688 0.50048 0.15298 0.0
C5 C 0.25847 0.49056 0.17344 0.0
C6 C 0.26895 0.5445 0.14205 0.0
C7 C 0.34689 0.56562 0.16843 0.0
C8 C 0.32337 0.57706 0.15002 0.0
C9 C 0.3127 0.52291 0.18137 0.0
C10 C 0.08621 0.48636 0.2013 0.0
C11 C 0.98686 0.40974 0.14805 0.0
C12 C 1.01011 0.54281 0.17456 0.0
C13 C 0.95168 0.5134 0.17779 0.0
C14 C 0.91741 0.50147 0.15532 0.0
C15 C 0.92973 0.4891 0.2018 0.0
C16 C 0.84095 0.43865 0.18001 0.0
C17 C 0.87472 0.45164 0.20281 0.0
C18 C 0.86256 0.46438 0.15641 0.0
C19 C 1.06711 0.51083 0.10009 0.0
O20 O 0.18767 0.55981 0.15362 0.0
O21 O 0.14164 0.58682 0.15361 0.0
O22 O 0.14896 0.45375 0.16754 0.0
O23 O 0.16134 0.477 0.12605 0.0
O24 O 0.07558 0.45043 0.19153 0.0
O25 O 0.1085 0.51751 0.18397 0.0
O26 O 0.98792 0.4428 0.15633 0.0
O27 O 1.03158 0.41902 0.14035 0.0
O28 O 1.02678 0.55406 0.14995 0.0
O29 O 1.033 0.52977 0.18857 0.0
O30 O 1.04312 0.52465 0.10956 0.0
O31 O 0.08452 0.50061 0.11917 0.0
H32 H 0.23356 0.45749 0.18301 0.0
H33 H 0.25246 0.55368 0.12696 0.0
H34 H 0.34811 0.60974 0.14005 0.0
H35 H 0.32834 0.51235 0.19595 0.0
H36 H 0.93308 0.51956 0.13655 0.0
H37 H 0.95557 0.49764 0.21939 0.0
H38 H 0.8585 0.43293 0.22135 0.0
H39 H 0.83692 0.45646 0.13884 0.0
Gd40 Gd 0.67913 0.02061 0.47753 0.0
Gd41 Gd 0.61164 0.04493 0.47202 0.0
C42 C 0.54605 0.93969 0.47152 0.0
C43 C 0.71674 0.98018 0.49017 0.0
C44 C 0.69309 0.93216 0.48926 0.0
C45 C 0.7102 0.91803 0.47013 0.0
C46 C 0.65392 0.90017 0.50751 0.0
C47 C 0.65421 0.84225 0.48944 0.0
C48 C 0.63455 0.85564 0.50751 0.0
C49 C 0.69087 0.87346 0.47017 0.0
C50 C 0.6638 0.03536 0.42642 0.0
C51 C 0.7445 0.12564 0.47651 0.0
C52 C 0.57642 0.08704 0.45912 0.0
C53 C 0.60061 0.13487 0.4623 0.0
C54 C 0.61299 0.15469 0.48785 0.0
C55 C 0.61098 0.16106 0.43951 0.0
C56 C 0.63815 0.22357 0.46768 0.0
C57 C 0.62942 0.2051 0.44218 0.0
C58 C 0.63165 0.19881 0.49049 0.0
C59 C 0.62462 0.02932 0.5233 0.0
O60 O 0.59334 0.95133 0.47934 0.0
O61 O 0.54267 0.9709 0.46412 0.0
O62 O 0.72502 1.00001 0.46706 0.0
O63 O 0.69739 0.99073 0.50772 0.0
O64 O 0.71051 0.05071 0.43666 0.0
O65 O 0.62744 1.01284 0.44343 0.0
O66 O 0.69718 0.11285 0.46777 0.0
O67 O 0.74796 0.09517 0.48567 0.0
O68 O 0.56279 0.06307 0.48101 0.0
O69 O 0.59959 0.07957 0.44208 0.0
O70 O 0.57919 0.01591 0.51251 0.0
O71 O 0.66215 0.05176 0.50668 0.0
H72 H 0.73985 0.94186 0.45563 0.0
H73 H 0.63909 0.90966 0.52225 0.0
H74 H 0.60557 0.83209 0.52231 0.0
H75 H 0.70708 0.86431 0.45609 0.0
H76 H 0.60636 0.13565 0.50583 0.0
H77 H 0.60278 0.14681 0.41964 0.0
H78 H 0.63405 0.22384 0.4244 0.0
H79 H 0.63746 0.2124 0.51033 0.0
Gd80 Gd 0.72662 0.62324 0.82772 0.0
Gd81 Gd 0.65009 0.52467 0.82845 0.0
C82 C 0.59202 0.56952 0.83096 0.0
C83 C 0.7735 0.70683 0.81722 0.0
C84 C 0.75324 0.73195 0.816 0.0
C85 C 0.77265 0.76635 0.83484 0.0
C86 C 0.71348 0.72112 0.79668 0.0
C87 C 0.71646 0.78138 0.81366 0.0
C88 C 0.69524 0.74554 0.79557 0.0
C89 C 0.75436 0.79083 0.83373 0.0
C90 C 0.70322 0.58749 0.8766 0.0
C91 C 0.78513 0.5785 0.83009 0.0
C92 C 0.60453 0.44157 0.83968 0.0
C93 C 0.61865 0.41258 0.83478 0.0
C94 C 0.60123 0.3875 0.81086 0.0
C95 C 0.64902 0.40917 0.85404 0.0
C96 C 0.64021 0.3535 0.82645 0.0
C97 C 0.65996 0.38001 0.84983 0.0
C98 C 0.61195 0.35832 0.80675 0.0
C99 C 0.66854 0.55893 0.77883 0.0
O100 O 0.64201 0.60729 0.8245 0.0
O101 O 0.5857 0.53223 0.83651 0.0
O102 O 0.77575 0.69321 0.84101 0.0
O103 O 0.75527 0.67619 0.79853 0.0
O104 O 0.75232 0.62207 0.87017 0.0
O105 O 0.66999 0.57468 0.85744 0.0
O106 O 0.73356 0.53958 0.83111 0.0
O107 O 0.7938 0.61732 0.82744 0.0
O108 O 0.59014 0.45307 0.81866 0.0
O109 O 0.63603 0.47503 0.85687 0.0
O110 O 0.6214 0.52344 0.78679 0.0
O111 O 0.70478 0.57331 0.79701 0.0
H112 H 0.80267 0.77483 0.85019 0.0
H113 H 0.69677 0.69412 0.78219 0.0
H114 H 0.66524 0.73694 0.78017 0.0
H115 H 0.77169 0.81841 0.84785 0.0
H116 H 0.57822 0.38957 0.7955 0.0
H117 H 0.66326 0.42821 0.87263 0.0
H118 H 0.68158 0.37659 0.86535 0.0
H119 H 0.5968 0.33845 0.78844 0.0
H120 H 0.68487 0.10969 0.2228 0.0
H121 H 0.5522 0.96496 0.22138 0.0
H122 H 0.62086 0.0377 0.14756 0.0
H123 H 0.49584 0.94598 0.13903 0.0
C124 C 0.4947 0.9377 0.16056 0.0
O125 O 0.54665 0.95624 0.16952 0.0
H126 H 0.48088 0.95336 0.17148 0.0
C127 C 0.65574 0.07824 0.21164 0.0
C128 C 0.65702 0.07902 0.18364 0.0
C129 C 0.61843 0.03743 0.22548 0.0
C130 C 0.58072 0.99683 0.21094 0.0
C131 C 0.58122 0.99662 0.18289 0.0
C132 C 0.61974 0.03785 0.16918 0.0
H133 H 0.64866 0.60847 0.57594 0.0
H134 H 0.66191 0.50408 0.5725 0.0
H135 H 0.64908 0.55892 0.50001 0.0
H136 H 0.59559 0.4657 0.49105 0.0
C137 C 0.60824 0.45891 0.5101 0.0
O138 O 0.65511 0.49921 0.52034 0.0
H139 H 0.57479 0.44325 0.52443 0.0
C140 C 0.65094 0.58608 0.56465 0.0
C141 C 0.64909 0.58753 0.53661 0.0
C142 C 0.65655 0.55682 0.57811 0.0
C143 C 0.65723 0.52693 0.56286 0.0
C144 C 0.65382 0.52749 0.53482 0.0
C145 C 0.65014 0.55792 0.5217 0.0
H146 H 0.07256 0.55172 0.89829 0.0
H147 H 0.21012 0.55793 0.89833 0.0
H148 H 0.15554 0.58106 0.82454 0.0
H149 H 0.22401 0.52978 0.82392 0.0
C150 C 0.24287 0.54584 0.8438 0.0
O151 O 0.23424 0.57745 0.84832 0.0
H152 H 0.2187 0.51757 0.85838 0.0
C153 C 0.10421 0.55695 0.88703 0.0
C154 C 0.10756 0.5674 0.85963 0.0
C155 C 0.14066 0.55404 0.90097 0.0
C156 C 0.18156 0.55918 0.88717 0.0
C157 C 0.18803 0.56782 0.85946 0.0
C158 C 0.15022 0.57216 0.84553 0.0
H159 H 1.02981 0.43398 0.40437 0.0
H160 H 0.17733 0.57387 0.40912 0.0
H161 H 0.10949 0.49447 0.48093 0.0
H162 H 0.17351 0.60182 0.48842 0.0
C163 C 0.19241 0.61062 0.4686 0.0
O164 O 0.19124 0.57564 0.46069 0.0
H165 H 0.16769 0.61394 0.45432 0.0
C166 C 1.06233 0.46343 0.41615 0.0
C167 C 1.06375 0.45905 0.44412 0.0
C168 C 0.10274 0.50444 0.40311 0.0
C169 C 0.14587 0.54176 0.41861 0.0
C170 C 0.14848 0.53862 0.44656 0.0
C171 C 0.10749 0.49701 0.45937 0.0
H172 H 0.66354 0.98332 0.72677 0.0
H173 H 0.65818 0.09202 0.73081 0.0
H174 H 0.67403 0.03831 0.80309 0.0
H175 H 0.60651 0.06389 0.8094 0.0
C176 C 0.6217 0.0884 0.79256 0.0
O177 O 0.66765 0.09807 0.78311 0.0
H178 H 0.58941 0.0728 0.77643 0.0
C179 C 0.66413 1.00713 0.73835 0.0
C180 C 0.66941 1.00735 0.76636 0.0
C181 C 0.66017 0.03748 0.72516 0.0
C182 C 0.66035 0.06772 0.74051 0.0
C183 C 0.66506 0.06768 0.76854 0.0
C184 C 0.66919 0.03735 0.78146 0.0
H185 H 0.65167 0.47266 0.07192 0.0
H186 H 0.51706 0.47091 0.05908 0.0
H187 H 0.552 0.44579 0.13704 0.0
H188 H 0.45052 0.39133 0.12886 0.0
C189 C 0.44117 0.41024 0.11663 0.0
O190 O 0.48785 0.45143 0.10819 0.0
H191 H 0.41453 0.38893 0.09912 0.0
C192 C 0.61812 0.46931 0.07934 0.0
C193 C 0.60454 0.45798 0.10614 0.0
C194 C 0.58777 0.47556 0.06229 0.0
C195 C 0.54253 0.46811 0.07206 0.0
C196 C 0.5302 0.45747 0.09886 0.0
C197 C 0.56255 0.45457 0.11622 0.0
H198 H 0.42084 0.58303 0.20872 0.0
H199 H 0.41205 0.60323 0.12451 0.0
H200 H 0.44398 0.53611 0.19939 0.0
H201 H 0.43938 0.55962 0.11467 0.0
H202 H 0.36575 0.41736 0.10067 0.0
H203 H 0.37117 0.47953 0.11594 0.0
H204 H 0.47525 0.50175 0.18309 0.0
H205 H 0.46653 0.43751 0.16845 0.0
C206 C 0.42797 0.5804 0.18817 0.0
C207 C 0.40556 0.58915 0.16717 0.0
C208 C 0.44021 0.55251 0.18276 0.0
C209 C 0.43763 0.54017 0.15609 0.0
C210 C 0.43645 0.56503 0.13544 0.0
C211 C 0.42246 0.59143 0.14123 0.0
C212 C 0.38665 0.43364 0.11964 0.0
C213 C 0.41604 0.42314 0.13331 0.0
C214 C 0.39194 0.47061 0.12782 0.0
C215 C 0.42669 0.49751 0.1498 0.0
C216 C 0.44929 0.48253 0.16573 0.0
C217 C 0.44309 0.44492 0.15777 0.0
H218 H 0.76474 0.18412 0.43742 0.0
H219 H 0.83583 0.17812 0.51041 0.0
H220 H 0.84208 0.26435 0.43313 0.0
H221 H 0.91292 0.26022 0.50723 0.0
H222 H 1.06871 0.40223 0.47644 0.0
H223 H 0.99323 0.3219 0.4864 0.0
H224 H 0.88046 0.33477 0.44894 0.0
H225 H 0.95562 0.41345 0.43817 0.0
C226 C 0.7968 0.20027 0.45283 0.0
C227 C 0.79378 0.1747 0.47436 0.0
C228 C 0.84128 0.24676 0.45057 0.0
C229 C 0.88393 0.26997 0.47018 0.0
C230 C 0.88135 0.24404 0.49161 0.0
C231 C 0.83703 0.19689 0.49353 0.0
C232 C 1.02757 0.38789 0.47083 0.0
C233 C 1.0183 0.41413 0.45619 0.0
C234 C 0.98407 0.34164 0.47646 0.0
C235 C 0.93021 0.32066 0.46772 0.0
C236 C 0.92111 0.34846 0.45507 0.0
C237 C 0.96431 0.39411 0.44922 0.0
H238 H 0.6965 0.81913 0.85178 0.0
H239 H 0.70896 0.8134 0.76647 0.0
H240 H 0.68623 0.87662 0.84445 0.0
H241 H 0.69661 0.86864 0.75926 0.0
H242 H 0.74868 1.00567 0.75494 0.0
H243 H 0.75877 0.95094 0.77007 0.0
H244 H 0.62266 0.88859 0.8215 0.0
H245 H 0.61319 0.94466 0.80646 0.0
C246 C 0.69644 0.82973 0.83153 0.0
C247 C 0.70371 0.81188 0.8097 0.0
C248 C 0.6902 0.86227 0.82736 0.0
C249 C 0.6916 0.8775 0.80136 0.0
C250 C 0.69647 0.85812 0.77958 0.0
C251 C 0.70273 0.82593 0.7837 0.0
C252 C 0.72137 0.98062 0.76973 0.0
C253 C 0.67947 0.97847 0.77913 0.0
C254 C 0.727 0.94929 0.77833 0.0
C255 C 0.6905 0.91485 0.79635 0.0
C256 C 0.651 0.91468 0.80743 0.0
C257 C 0.64555 0.94653 0.79885 0.0
H258 H 0.77954 0.43078 0.21893 0.0
H259 H 0.76931 0.37078 0.14444 0.0
H260 H 0.69428 0.41353 0.20754 0.0
H261 H 0.68661 0.35667 0.13199 0.0
H262 H 0.57608 0.37628 0.10097 0.0
H263 H 0.60457 0.34245 0.1297 0.0
H264 H 0.7084 0.46751 0.17608 0.0
H265 H 0.67642 0.4994 0.14827 0.0
C266 C 0.75731 0.41122 0.2009 0.0
C267 C 0.78189 0.40435 0.18171 0.0
C268 C 0.7088 0.40197 0.19417 0.0
C269 C 0.68602 0.38675 0.16819 0.0
C270 C 0.70379 0.36954 0.15197 0.0
C271 C 0.75145 0.37764 0.15905 0.0
C272 C 0.60489 0.39606 0.11747 0.0
C273 C 0.62575 0.44051 0.1223 0.0
C274 C 0.62059 0.37667 0.13404 0.0
C275 C 0.65845 0.40202 0.15522 0.0
C276 C 0.67804 0.44641 0.16038 0.0
C277 C 0.66118 0.46532 0.14414 0.0
H278 H 0.44988 0.90075 0.49456 0.0
H279 H 0.53022 0.86869 0.44742 0.0
H280 H 0.36795 0.8203 0.49447 0.0
H281 H 0.44776 0.78802 0.44669 0.0
H282 H 0.26566 0.65703 0.42816 0.0
H283 H 0.35244 0.73558 0.42877 0.0
H284 H 0.33433 0.74687 0.51242 0.0
H285 H 0.2479 0.66886 0.51163 0.0
C286 C 0.44977 0.87638 0.48404 0.0
C287 C 0.4963 0.89089 0.47101 0.0
C288 C 0.40298 0.83018 0.48413 0.0
C289 C 0.401 0.79731 0.47065 0.0
C290 C 0.44757 0.81218 0.45722 0.0
C291 C 0.4949 0.85833 0.45773 0.0
C292 C 0.28089 0.6761 0.44677 0.0
C293 C 0.24997 0.6565 0.46987 0.0
C294 C 0.3306 0.72117 0.44714 0.0
C295 C 0.35039 0.748 0.47059 0.0
C296 C 0.32013 0.72772 0.49387 0.0
C297 C 0.27073 0.68273 0.49351 0.0
H298 H 0.73021 0.35995 0.8315 0.0
H299 H 0.55664 0.26509 0.81561 0.0
H300 H 0.7326 0.2977 0.8265 0.0
H301 H 0.55892 0.20361 0.81077 0.0
H302 H 0.56932 0.09568 0.8301 0.0
H303 H 0.57988 0.16247 0.84156 0.0
H304 H 0.71018 0.24362 0.78633 0.0
H305 H 0.69935 0.17675 0.77463 0.0
C306 C 0.69276 0.32584 0.82705 0.0
C307 C 0.64328 0.31713 0.82372 0.0
C308 C 0.69412 0.29046 0.82415 0.0
C309 C 0.64583 0.24595 0.81851 0.0
C310 C 0.59656 0.23749 0.8155 0.0
C311 C 0.59534 0.2727 0.81798 0.0
C312 C 0.60095 0.12802 0.82087 0.0
C313 C 0.63397 0.13117 0.80184 0.0
C314 C 0.60692 0.1661 0.82735 0.0
C315 C 0.64587 0.20803 0.81482 0.0
C316 C 0.68037 0.21177 0.79651 0.0
C317 C 0.67402 0.17349 0.7898 0.0
H318 H 0.63327 0.78204 0.45093 0.0
H319 H 0.65143 0.80454 0.53652 0.0
H320 H 0.63038 0.71707 0.45801 0.0
H321 H 0.64669 0.73961 0.54337 0.0
H322 H 0.72337 0.6775 0.54565 0.0
H323 H 0.71954 0.73585 0.53035 0.0
H324 H 0.5739 0.63582 0.48281 0.0
H325 H 0.57818 0.57677 0.49815 0.0
C326 C 0.63566 0.77268 0.47118 0.0
C327 C 0.64285 0.79855 0.49316 0.0
C328 C 0.63366 0.73548 0.47518 0.0
C329 C 0.63928 0.72412 0.50117 0.0
C330 C 0.64312 0.74825 0.52309 0.0
C331 C 0.6451 0.78511 0.51915 0.0
C332 C 0.69096 0.66812 0.53166 0.0
C333 C 0.65039 0.6228 0.52349 0.0
C334 C 0.6887 0.70135 0.52295 0.0
C335 C 0.64564 0.68987 0.50601 0.0
C336 C 0.60722 0.6452 0.49605 0.0
C337 C 0.60962 0.61165 0.50479 0.0
H338 H 0.79754 0.51893 0.80757 0.0
H339 H 0.88619 0.63763 0.85783 0.0
H340 H 0.87364 0.51874 0.81131 0.0
H341 H 0.96178 0.63759 0.8621 0.0
H342 H 0.08773 0.62022 0.88241 0.0
H343 H 1.01432 0.62169 0.87561 0.0
H344 H 0.95519 0.53315 0.80718 0.0
H345 H 1.02884 0.53004 0.81517 0.0
C346 C 0.83311 0.54518 0.81961 0.0
C347 C 0.83391 0.57838 0.83225 0.0
C348 C 0.87799 0.54528 0.82174 0.0
C349 C 0.92668 0.57798 0.83726 0.0
C350 C 0.92681 0.61096 0.85 0.0
C351 C 0.88251 0.61138 0.84738 0.0
C352 C 1.05993 0.60127 0.86548 0.0
C353 C 1.06698 0.57534 0.84945 0.0
C354 C 1.01642 0.60219 0.86141 0.0
C355 C 0.97578 0.57758 0.84063 0.0
C356 C 0.98356 0.55262 0.82379 0.0
C357 C 1.02741 0.55139 0.8281 0.0
H358 H 0.20354 0.65387 0.1894 0.0
H359 H 0.28419 0.64274 0.12798 0.0
H360 H 0.28004 0.73412 0.19441 0.0
H361 H 0.35989 0.72473 0.13089 0.0
H362 H 0.50377 0.87378 0.14628 0.0
H363 H 0.43482 0.79094 0.14747 0.0
H364 H 0.3221 0.80327 0.17963 0.0
H365 H 0.39233 0.88507 0.1802 0.0
C366 C 0.23804 0.66895 0.17684 0.0
C367 C 0.23788 0.64199 0.15831 0.0
C368 C 0.28203 0.7156 0.17934 0.0
C369 C 0.32692 0.73761 0.16265 0.0
C370 C 0.32711 0.70996 0.14448 0.0
C371 C 0.28347 0.66265 0.14262 0.0
C372 C 0.46454 0.85841 0.15426 0.0
C373 C 0.45404 0.88612 0.16367 0.0
C374 C 0.42429 0.81061 0.15455 0.0
C375 C 0.37166 0.78894 0.16366 0.0
C376 C 0.36175 0.81727 0.17311 0.0
C377 C 0.40223 0.86481 0.17327 0.0
H378 H 0.72266 0.30715 0.48924 0.0
H379 H 0.5606 0.2277 0.45384 0.0
H380 H 0.72078 0.36859 0.49929 0.0
H381 H 0.55816 0.28794 0.46429 0.0
H382 H 0.54637 0.36931 0.52383 0.0
H383 H 0.55998 0.31602 0.51238 0.0
H384 H 0.70657 0.42338 0.47207 0.0
H385 H 0.6926 0.47691 0.4833 0.0
C386 C 0.68723 0.30337 0.48328 0.0
C387 C 0.6419 0.26332 0.47065 0.0
C388 C 0.68611 0.33819 0.48899 0.0
C389 C 0.63908 0.33241 0.48274 0.0
C390 C 0.59464 0.29286 0.46941 0.0
C391 C 0.59618 0.25872 0.46327 0.0
C392 C 0.58168 0.38157 0.51272 0.0
C393 C 0.61865 0.42709 0.50457 0.0
C394 C 0.5894 0.3512 0.50616 0.0
C395 C 0.63422 0.36587 0.49135 0.0
C396 C 0.672 0.4116 0.48368 0.0
C397 C 0.66393 0.44197 0.49002 0.0
H398 H 0.49715 0.5131 0.86088 0.0
H399 H 0.57316 0.62579 0.80657 0.0
H400 H 0.42126 0.51254 0.86498 0.0
H401 H 0.49671 0.62498 0.81018 0.0
H402 H 0.32663 0.59232 0.80535 0.0
H403 H 0.40742 0.59888 0.80237 0.0
H404 H 0.37595 0.53677 0.87989 0.0
H405 H 0.29576 0.53048 0.88266 0.0
C406 C 0.4981 0.53795 0.84956 0.0
C407 C 0.54328 0.56945 0.83327 0.0
C408 C 0.45371 0.5379 0.85209 0.0
C409 C 0.45024 0.56878 0.83808 0.0
C410 C 0.49538 0.60002 0.82152 0.0
C411 C 0.54043 0.60068 0.81946 0.0
C412 C 0.33759 0.58137 0.82231 0.0
C413 C 0.30321 0.56194 0.84467 0.0
C414 C 0.38467 0.58468 0.82048 0.0
C415 C 0.40061 0.56803 0.84066 0.0
C416 C 0.36689 0.54971 0.8633 0.0
C417 C 0.32028 0.54682 0.8652 0.0
H418 H 0.97987 0.33526 0.15043 0.0
H419 H 0.87996 0.37303 0.1504 0.0
H420 H 0.90174 0.25691 0.15548 0.0
H421 H 0.79986 0.29408 0.15398 0.0
H422 H 0.6567 0.1486 0.17383 0.0
H423 H 0.73273 0.22634 0.16342 0.0
H424 H 0.832 0.1877 0.15533 0.0
H425 H 0.75516 0.11065 0.16669 0.0
C426 C 0.94053 0.32652 0.15101 0.0
C427 C 0.93652 0.36079 0.14977 0.0
C428 C 0.89444 0.28055 0.15388 0.0
C429 C 0.84162 0.26634 0.15511 0.0
C430 C 0.83816 0.30135 0.15349 0.0
C431 C 0.88471 0.34759 0.15122 0.0
C432 C 0.69482 0.15705 0.16919 0.0
C433 C 0.69973 0.12344 0.17068 0.0
C434 C 0.73962 0.20243 0.16332 0.0
C435 C 0.79154 0.21619 0.15887 0.0
C436 C 0.79481 0.18107 0.15911 0.0
C437 C 0.74991 0.13576 0.16514 0.0
H438 H 1.028 0.53038 0.05886 0.0
H439 H 0.12963 0.49557 0.07524 0.0
H440 H 1.04832 0.53959 0.01178 0.0
H441 H 0.15132 0.50583 0.02758 0.0
H442 H 0.13539 0.49155 0.93291 0.0
H443 H 0.1184 0.47856 0.98113 0.0
H444 H 0.12206 0.59262 0.98421 0.0
H445 H 0.1376 0.60458 0.93651 0.0
C446 C 1.05475 0.52459 0.05239 0.0
C447 C 0.07736 0.51249 0.07099 0.0
C448 C 1.0669 0.53031 0.02527 0.0
C449 C 0.10247 0.52443 0.01566 0.0
C450 C 0.1238 0.51072 0.03411 0.0
C451 C 0.11146 0.5049 0.06147 0.0
C452 C 0.13311 0.51402 0.94408 0.0
C453 C 0.13705 0.54868 0.93078 0.0
C454 C 0.12336 0.50663 0.97173 0.0
C455 C 0.11757 0.53386 0.9867 0.0
C456 C 0.12443 0.5699 0.97343 0.0
C457 C 0.13375 0.57704 0.94599 0.0
H458 H 0.7329 0.10297 0.39193 0.0
H459 H 0.57132 0.97298 0.39639 0.0
H460 H 0.71882 0.10565 0.34396 0.0
H461 H 0.55807 0.97357 0.34795 0.0
H462 H 0.53672 1.00027 0.26102 0.0
H463 H 0.54492 1.00225 0.30998 0.0
H464 H 0.71691 0.07401 0.30514 0.0
H465 H 0.70869 0.0738 0.25674 0.0
C466 C 0.69446 0.07479 0.38248 0.0
C467 C 0.65344 0.03762 0.39769 0.0
C468 C 0.68639 0.07601 0.35491 0.0
C469 C 0.63765 0.03935 0.3417 0.0
C470 C 0.59596 1.00266 0.35725 0.0
C471 C 0.60359 1.00209 0.38501 0.0
C472 C 0.57615 0.01652 0.27062 0.0
C473 C 0.62215 0.03723 0.25516 0.0
C474 C 0.58095 0.01755 0.29867 0.0
C475 C 0.63176 0.03868 0.31181 0.0
C476 C 0.67738 0.05863 0.29605 0.0
C477 C 0.6727 0.05824 0.26818 0.0
H478 H 0.65504 0.60759 0.74559 0.0
H479 H 0.70258 0.52546 0.74797 0.0
H480 H 0.65667 0.60918 0.69655 0.0
H481 H 0.70385 0.52651 0.6989 0.0
H482 H 0.61833 0.48696 0.61374 0.0
H483 H 0.62926 0.49196 0.6625 0.0
H484 H 0.72099 0.6371 0.65859 0.0
H485 H 0.71232 0.63275 0.61004 0.0
C486 C 0.66709 0.59085 0.73551 0.0
C487 C 0.67943 0.56697 0.75024 0.0
C488 C 0.66789 0.5916 0.70756 0.0
C489 C 0.68 0.56766 0.69395 0.0
C490 C 0.69388 0.54486 0.70888 0.0
C491 C 0.6938 0.54468 0.73685 0.0
C492 C 0.64158 0.52005 0.6232 0.0
C493 C 0.66389 0.55933 0.60783 0.0
C494 C 0.64774 0.52288 0.65114 0.0
C495 C 0.67584 0.56493 0.6643 0.0
C496 C 0.69857 0.60418 0.649 0.0
C497 C 0.69315 0.6015 0.62113 0.0
H498 H 0.72054 0.0762 0.55322 0.0
H499 H 0.54605 0.98006 0.55952 0.0
H500 H 0.73095 0.07899 0.60225 0.0
H501 H 0.55629 0.98235 0.60812 0.0
H502 H 0.59247 0.04066 0.69246 0.0
H503 H 0.58606 0.03827 0.64353 0.0
H504 H 0.71501 0.03206 0.64193 0.0
H505 H 0.72209 0.03539 0.69077 0.0
C506 C 0.68453 0.05534 0.56506 0.0
C507 C 0.6325 0.02836 0.5526 0.0
C508 C 0.69042 0.05687 0.59309 0.0
C509 C 0.64437 0.03145 0.60909 0.0
C510 C 0.59253 1.0032 0.59644 0.0
C511 C 0.5867 1.00169 0.56857 0.0
C512 C 0.61978 0.03928 0.68162 0.0
C513 C 0.65761 0.03806 0.69544 0.0
C514 C 0.6158 0.03744 0.65362 0.0
C515 C 0.64985 0.03471 0.63883 0.0
C516 C 0.68842 0.03442 0.65269 0.0
C517 C 0.69213 0.03593 0.68066 0.0
H518 H 0.76436 0.59201 0.91772 0.0
H519 H 0.60328 0.54272 0.8955 0.0
H520 H 0.73363 0.56101 0.96291 0.0
H521 H 0.57338 0.51303 0.94059 0.0
H522 H 0.5887 0.53776 0.03481 0.0
H523 H 0.61466 0.56216 0.98866 0.0
H524 H 0.64899 0.47148 0.98115 0.0
H525 H 0.62073 0.44524 0.02703 0.0
C526 C 0.72267 0.57472 0.9226 0.0
C527 C 0.68612 0.56968 0.9035 0.0
C528 C 0.70515 0.55689 0.94815 0.0
C529 C 0.65143 0.53489 0.95474 0.0
C530 C 0.61497 0.52996 0.93565 0.0
C531 C 0.63208 0.54686 0.91004 0.0
C532 C 0.6009 0.52245 0.02319 0.0
C533 C 0.60286 0.4897 0.03441 0.0
C534 C 0.61591 0.53656 -0.00302 0.0
C535 C 0.63386 0.51864 0.98188 0.0
C536 C 0.63569 0.48584 0.99285 0.0
C537 C 0.61988 0.47116 0.01898 0.0
H538 H 0.14898 0.56603 0.23026 0.0
H539 H 1.02068 0.42096 0.23792 0.0
H540 H 0.15263 0.57462 0.27906 0.0
H541 H 1.02341 0.42957 0.28643 0.0
H542 H 1.01217 0.46655 0.37034 0.0
H543 H 1.00615 0.46528 0.32155 0.0
H544 H 0.18045 0.54935 0.31911 0.0
H545 H 0.1866 0.54947 0.36799 0.0
C546 C 0.12101 0.53611 0.24233 0.0
C547 C 0.0847 0.49277 0.23032 0.0
C548 C 0.12332 0.54099 0.27025 0.0
C549 C 0.08844 0.50276 0.28663 0.0
C550 C 1.05063 0.45972 0.2744 0.0
C551 C 1.04917 0.45475 0.24663 0.0
C552 C 1.0493 0.48456 0.35949 0.0
C553 C 0.09983 0.50753 0.37328 0.0
C554 C 1.04579 0.48402 0.33148 0.0
C555 C 0.09276 0.50697 0.31642 0.0
C556 C 0.14353 0.53163 0.33012 0.0
C557 C 0.14703 0.53174 0.35819 0.0
loop_
_geom_bond_atom_site_label_1
_geom_bond_atom_site_label_2
_geom_bond_distance
_geom_bond_site_symmetry_2
_ccdc_geom_bond_type
Gd0 C3 2.818 . S
Gd0 O20 2.377 . S
Gd0 O22 2.448 . S
Gd0 O23 2.506 . S
Gd0 O24 2.435 . S
Gd0 O25 2.717 1_455 S
Gd0 O27 2.395 1_455 S
Gd0 O31 2.327 . S
Gd1 C12 2.818 . S
Gd1 O21 2.395 1_655 S
Gd1 O25 2.327 . S
Gd1 O26 2.377 . S
Gd1 O28 2.448 . S
Gd1 O29 2.506 . S
Gd1 O30 2.435 . S
Gd1 O31 2.717 1_655 S
C2 O20 1.240 . S
C2 O21 1.240 . S
C3 Gd0 2.818 . S
C3 C4 1.510 . S
C3 O22 1.249 . S
C3 O23 1.252 . S
C4 C3 1.510 . S
C4 C5 1.404 . S
C4 C6 1.352 . S
C5 C4 1.404 . S
C5 C9 1.389 . S
C5 H32 0.930 . S
C6 C4 1.352 . S
C6 C8 1.374 . S
C6 H33 0.931 . S
C7 C8 1.359 . S
C7 C9 1.364 . S
C8 C6 1.374 . S
C8 C7 1.359 . S
C8 H34 0.931 . S
C9 C5 1.389 . S
C9 C7 1.364 . S
C9 H35 0.931 . S
C10 O24 1.256 . S
C10 O25 1.257 1_455 S
C11 O26 1.240 . S
C11 O27 1.240 . S
C12 Gd1 2.818 . S
C12 C13 1.510 . S
C12 O28 1.249 . S
C12 O29 1.252 . S
C13 C12 1.510 . S
C13 C14 1.404 . S
C13 C15 1.352 . S
C14 C13 1.404 . S
C14 C18 1.389 . S
C14 H36 0.930 . S
C15 C13 1.352 . S
C15 C17 1.374 . S
C15 H37 0.931 . S
C16 C17 1.359 . S
C16 C18 1.364 . S
C17 C15 1.374 . S
C17 C16 1.359 . S
C17 H38 0.931 . S
C18 C14 1.389 . S
C18 C16 1.364 . S
C18 H39 0.931 . S
C19 O30 1.256 1_455 S
C19 O31 1.257 . S
O20 Gd0 2.377 . S
O20 C2 1.240 . S
O21 Gd1 2.395 1_455 S
O21 C2 1.240 . S
O22 Gd0 2.448 . S
O22 C3 1.249 . S
O23 Gd0 2.506 . S
O23 C3 1.252 . S
O24 Gd0 2.435 . S
O24 C10 1.256 . S
O25 Gd0 2.717 1_655 S
O25 Gd1 2.327 . S
O25 C10 1.257 1_655 S
O26 Gd1 2.377 . S
O26 C11 1.240 . S
O27 Gd0 2.395 1_655 S
O27 C11 1.240 . S
O28 Gd1 2.448 . S
O28 C12 1.249 . S
O29 Gd1 2.506 . S
O29 C12 1.252 . S
O30 Gd1 2.435 . S
O30 C19 1.256 1_655 S
O31 Gd0 2.327 . S
O31 Gd1 2.717 1_455 S
O31 C19 1.257 . S
H32 C5 0.930 . S
H33 C6 0.931 . S
H34 C8 0.931 . S
H35 C9 0.931 . S
H36 C14 0.930 . S
H37 C15 0.931 . S
H38 C17 0.931 . S
H39 C18 0.931 . S
Gd40 C43 2.814 1_545 S
Gd40 O60 2.376 1_545 S
Gd40 O62 2.445 1_545 S
Gd40 O63 2.503 1_545 S
Gd40 O64 2.436 . S
Gd40 O65 2.720 . S
Gd40 O67 2.399 . S
Gd40 O71 2.329 . S
Gd41 C52 2.818 . S
Gd41 O61 2.395 1_545 S
Gd41 O65 2.327 . S
Gd41 O66 2.377 . S
Gd41 O68 2.448 . S
Gd41 O69 2.506 . S
Gd41 O70 2.435 . S
Gd41 O71 2.717 . S
C42 O60 1.240 . S
C42 O61 1.240 . S
C43 Gd40 2.814 1_565 S
C43 C44 1.510 . S
C43 O62 1.249 . S
C43 O63 1.252 . S
C44 C43 1.510 . S
C44 C45 1.404 . S
C44 C46 1.352 . S
C45 C44 1.404 . S
C45 C49 1.389 . S
C45 H72 0.930 . S
C46 C44 1.352 . S
C46 C48 1.374 . S
C46 H73 0.931 . S
C47 C48 1.359 . S
C47 C49 1.364 . S
C48 C46 1.374 . S
C48 C47 1.359 . S
C48 H74 0.931 . S
C49 C45 1.389 . S
C49 C47 1.364 . S
C49 H75 0.931 . S
C50 O64 1.256 . S
C50 O65 1.257 . S
C51 O66 1.240 . S
C51 O67 1.240 . S
C52 Gd41 2.818 . S
C52 C53 1.510 . S
C52 O68 1.249 . S
C52 O69 1.252 . S
C53 C52 1.510 . S
C53 C54 1.404 . S
C53 C55 1.352 . S
C54 C53 1.404 . S
C54 C58 1.389 . S
C54 H76 0.930 . S
C55 C53 1.352 . S
C55 C57 1.374 . S
C55 H77 0.931 . S
C56 C57 1.359 . S
C56 C58 1.364 . S
C57 C55 1.374 . S
C57 C56 1.359 . S
C57 H78 0.931 . S
C58 C54 1.389 . S
C58 C56 1.364 . S
C58 H79 0.931 . S
C59 O70 1.256 . S
C59 O71 1.257 . S
O60 Gd40 2.376 1_565 S
O60 C42 1.240 . S
O61 Gd41 2.395 1_565 S
O61 C42 1.240 . S
O62 Gd40 2.445 1_565 S
O62 C43 1.249 . S
O63 Gd40 2.503 1_565 S
O63 C43 1.252 . S
O64 Gd40 2.436 . S
O64 C50 1.256 . S
O65 Gd40 2.720 . S
O65 Gd41 2.327 . S
O65 C50 1.257 . S
O66 Gd41 2.377 . S
O66 C51 1.240 . S
O67 Gd40 2.399 . S
O67 C51 1.240 . S
O68 Gd41 2.448 . S
O68 C52 1.249 . S
O69 Gd41 2.506 . S
O69 C52 1.252 . S
O70 Gd41 2.435 . S
O70 C59 1.256 . S
O71 Gd40 2.329 . S
O71 Gd41 2.717 . S
O71 C59 1.257 . S
H72 C45 0.930 . S
H73 C46 0.931 . S
H74 C48 0.931 . S
H75 C49 0.931 . S
H76 C54 0.930 . S
H77 C55 0.931 . S
H78 C57 0.931 . S
H79 C58 0.931 . S
Gd80 C83 2.818 . S
Gd80 O100 2.377 . S
Gd80 O102 2.448 . S
Gd80 O103 2.506 . S
Gd80 O104 2.435 . S
Gd80 O105 2.717 . S
Gd80 O107 2.395 . S
Gd80 O111 2.327 . S
Gd81 C92 2.818 . S
Gd81 O101 2.395 . S
Gd81 O105 2.327 . S
Gd81 O106 2.377 . S
Gd81 O108 2.448 . S
Gd81 O109 2.506 . S
Gd81 O110 2.435 . S
Gd81 O111 2.717 . S
C82 O100 1.240 . S
C82 O101 1.240 . S
C83 Gd80 2.818 . S
C83 C84 1.510 . S
C83 O102 1.249 . S
C83 O103 1.252 . S
C84 C83 1.510 . S
C84 C85 1.404 . S
C84 C86 1.352 . S
C85 C84 1.404 . S
C85 C89 1.389 . S
C85 H112 0.930 . S
C86 C84 1.352 . S
C86 C88 1.374 . S
C86 H113 0.931 . S
C87 C88 1.359 . S
C87 C89 1.364 . S
C88 C86 1.374 . S
C88 C87 1.359 . S
C88 H114 0.931 . S
C89 C85 1.389 . S
C89 C87 1.364 . S
C89 H115 0.931 . S
C90 O104 1.256 . S
C90 O105 1.257 . S
C91 O106 1.240 . S
C91 O107 1.240 . S
C92 Gd81 2.818 . S
C92 C93 1.510 . S
C92 O108 1.249 . S
C92 O109 1.252 . S
C93 C92 1.510 . S
C93 C94 1.404 . S
C93 C95 1.352 . S
C94 C93 1.404 . S
C94 C98 1.389 . S
C94 H116 0.930 . S
C95 C93 1.352 . S
C95 C97 1.374 . S
C95 H117 0.931 . S
C96 C97 1.359 . S
C96 C98 1.364 . S
C97 C95 1.374 . S
C97 C96 1.359 . S
C97 H118 0.931 . S
C98 C94 1.389 . S
C98 C96 1.364 . S
C98 H119 0.931 . S
C99 O110 1.256 . S
C99 O111 1.257 . S
O100 Gd80 2.377 . S
O100 C82 1.240 . S
O101 Gd81 2.395 . S
O101 C82 1.240 . S
O102 Gd80 2.448 . S
O102 C83 1.249 . S
O103 Gd80 2.506 . S
O103 C83 1.252 . S
O104 Gd80 2.435 . S
O104 C90 1.256 . S
O105 Gd80 2.717 . S
O105 Gd81 2.327 . S
O105 C90 1.257 . S
O106 Gd81 2.377 . S
O106 C91 1.240 . S
O107 Gd80 2.395 . S
O107 C91 1.240 . S
O108 Gd81 2.448 . S
O108 C92 1.249 . S
O109 Gd81 2.506 . S
O109 C92 1.252 . S
O110 Gd81 2.435 . S
O110 C99 1.256 . S
O111 Gd80 2.327 . S
O111 Gd81 2.717 . S
O111 C99 1.257 . S
H112 C85 0.930 . S
H113 C86 0.931 . S
H114 C88 0.931 . S
H115 C89 0.931 . S
H116 C94 0.930 . S
H117 C95 0.931 . S
H118 C97 0.931 . S
H119 C98 0.931 . S
H120 C127 0.929 . S
H121 C130 0.930 . S
H122 C132 0.929 . S
H123 C124 0.969 . S
C124 H123 0.969 . S
C124 O125 1.550 . S
C124 H126 0.973 . S
O125 C124 1.550 . S
O125 C131 1.412 . S
H126 C124 0.973 . S
C127 H120 0.929 . S
C127 C128 1.400 . S
C127 C129 1.364 . S
C128 C127 1.400 . S
C128 C132 1.377 . S
C129 C127 1.364 . S
C129 C130 1.374 1_545 S
C130 H121 0.930 . S
C130 C129 1.374 1_565 S
C130 C131 1.383 . S
C131 O125 1.412 . S
C131 C130 1.383 . S
C131 C132 1.394 1_565 S
C132 H122 0.929 . S
C132 C128 1.377 . S
C132 C131 1.394 1_545 S
H133 C140 0.929 . S
H134 C143 0.930 . S
H135 C145 0.929 . S
H136 C137 0.969 . S
C137 H136 0.969 . S
C137 O138 1.550 . S
C137 H139 0.973 . S
O138 C137 1.550 . S
O138 C144 1.412 . S
H139 C137 0.973 . S
C140 H133 0.929 . S
C140 C141 1.400 . S
C140 C142 1.364 . S
C141 C140 1.400 . S
C141 C145 1.377 . S
C142 C140 1.364 . S
C142 C143 1.374 . S
C143 H134 0.930 . S
C143 C142 1.374 . S
C143 C144 1.383 . S
C144 O138 1.412 . S
C144 C143 1.383 . S
C144 C145 1.394 . S
C145 H135 0.929 . S
C145 C141 1.377 . S
C145 C144 1.394 . S
H146 C153 0.929 . S
H147 C156 0.930 . S
H148 C158 0.929 . S
H149 C150 0.969 . S
C150 H149 0.969 . S
C150 O151 1.550 . S
C150 H152 0.973 . S
O151 C150 1.550 . S
O151 C157 1.412 . S
H152 C150 0.973 . S
C153 H146 0.929 . S
C153 C154 1.400 . S
C153 C155 1.364 . S
C154 C153 1.400 . S
C154 C158 1.377 . S
C155 C153 1.364 . S
C155 C156 1.374 . S
C156 H147 0.930 . S
C156 C155 1.374 . S
C156 C157 1.383 . S
C157 O151 1.412 . S
C157 C156 1.383 . S
C157 C158 1.394 . S
C158 H148 0.929 . S
C158 C154 1.377 . S
C158 C157 1.394 . S
H159 C166 0.929 . S
H160 C169 0.930 . S
H161 C171 0.929 . S
H162 C163 0.969 . S
C163 H162 0.969 . S
C163 O164 1.550 . S
C163 H165 0.973 . S
O164 C163 1.550 . S
O164 C170 1.412 . S
H165 C163 0.973 . S
C166 H159 0.929 . S
C166 C167 1.400 . S
C166 C168 1.364 1_655 S
C167 C166 1.400 . S
C167 C171 1.377 1_655 S
C168 C166 1.364 1_455 S
C168 C169 1.374 . S
C169 H160 0.930 . S
C169 C168 1.374 . S
C169 C170 1.383 . S
C170 O164 1.412 . S
C170 C169 1.383 . S
C170 C171 1.394 . S
C171 H161 0.929 . S
C171 C167 1.377 1_455 S
C171 C170 1.394 . S
H172 C179 0.929 . S
H173 C182 0.930 . S
H174 C184 0.929 . S
H175 C176 0.969 . S
C176 H175 0.969 . S
C176 O177 1.550 . S
C176 H178 0.973 . S
O177 C176 1.550 . S
O177 C183 1.412 . S
H178 C176 0.973 . S
C179 H172 0.929 . S
C179 C180 1.400 . S
C179 C181 1.364 1_565 S
C180 C179 1.400 . S
C180 C184 1.377 1_565 S
C181 C179 1.364 1_545 S
C181 C182 1.374 . S
C182 H173 0.930 . S
C182 C181 1.374 . S
C182 C183 1.383 . S
C183 O177 1.412 . S
C183 C182 1.383 . S
C183 C184 1.394 . S
C184 H174 0.929 . S
C184 C180 1.377 1_545 S
C184 C183 1.394 . S
H185 C192 0.929 . S
H186 C195 0.930 . S
H187 C197 0.929 . S
H188 C189 0.969 . S
C189 H188 0.969 . S
C189 O190 1.550 . S
C189 H191 0.973 . S
O190 C189 1.550 . S
O190 C196 1.412 . S
H191 C189 0.973 . S
C192 H185 0.929 . S
C192 C193 1.400 . S
C192 C194 1.364 . S
C193 C192 1.400 . S
C193 C197 1.377 . S
C194 C192 1.364 . S
C194 C195 1.374 . S
C195 H186 0.930 . S
C195 C194 1.374 . S
C195 C196 1.383 . S
C196 O190 1.412 . S
C196 C195 1.383 . S
C196 C197 1.394 . S
C197 H187 0.929 . S
C197 C193 1.377 . S
C197 C196 1.394 . S
H198 C206 0.950 . S
H199 C211 0.950 . S
H200 C208 0.950 . S
H201 C210 0.950 . S
H202 C212 0.950 . S
H203 C214 0.950 . S
H204 C216 0.950 . S
H205 C217 0.950 . S
C206 H198 0.950 . S
C206 C207 1.386 . S
C206 C208 1.391 . S
C207 C206 1.386 . S
C207 C211 1.393 . S
C208 H200 0.950 . S
C208 C206 1.391 . S
C208 C209 1.400 . S
C209 C208 1.400 . S
C209 C210 1.398 . S
C209 C215 1.491 . S
C210 H201 0.950 . S
C210 C209 1.398 . S
C210 C211 1.391 . S
C211 H199 0.950 . S
C211 C207 1.393 . S
C211 C210 1.391 . S
C212 H202 0.950 . S
C212 C213 1.386 . S
C212 C214 1.391 . S
C213 C212 1.386 . S
C213 C217 1.393 . S
C214 H203 0.950 . S
C214 C212 1.391 . S
C214 C215 1.400 . S
C215 C209 1.491 . S
C215 C214 1.400 . S
C215 C216 1.398 . S
C216 H204 0.950 . S
C216 C215 1.398 . S
C216 C217 1.391 . S
C217 H205 0.950 . S
C217 C213 1.393 . S
C217 C216 1.391 . S
H218 C226 0.950 . S
H219 C231 0.950 . S
H220 C228 0.950 . S
H221 C230 0.950 . S
H222 C232 0.950 . S
H223 C234 0.950 . S
H224 C236 0.950 . S
H225 C237 0.950 . S
C226 H218 0.950 . S
C226 C227 1.386 . S
C226 C228 1.391 . S
C227 C226 1.386 . S
C227 C231 1.393 . S
C228 H220 0.950 . S
C228 C226 1.391 . S
C228 C229 1.400 . S
C229 C228 1.400 . S
C229 C230 1.398 . S
C229 C235 1.491 . S
C230 H221 0.950 . S
C230 C229 1.398 . S
C230 C231 1.391 . S
C231 H219 0.950 . S
C231 C227 1.393 . S
C231 C230 1.391 . S
C232 H222 0.950 . S
C232 C233 1.386 . S
C232 C234 1.391 . S
C233 C232 1.386 . S
C233 C237 1.393 . S
C234 H223 0.950 . S
C234 C232 1.391 . S
C234 C235 1.400 . S
C235 C229 1.491 . S
C235 C234 1.400 . S
C235 C236 1.398 . S
C236 H224 0.950 . S
C236 C235 1.398 . S
C236 C237 1.391 . S
C237 H225 0.950 . S
C237 C233 1.393 . S
C237 C236 1.391 . S
H238 C246 0.950 . S
H239 C251 0.950 . S
H240 C248 0.950 . S
H241 C250 0.950 . S
H242 C252 0.950 . S
H243 C254 0.950 . S
H244 C256 0.950 . S
H245 C257 0.950 . S
C246 H238 0.950 . S
C246 C247 1.386 . S
C246 C248 1.391 . S
C247 C246 1.386 . S
C247 C251 1.393 . S
C248 H240 0.950 . S
C248 C246 1.391 . S
C248 C249 1.400 . S
C249 C248 1.400 . S
C249 C250 1.398 . S
C249 C255 1.491 . S
C250 H241 0.950 . S
C250 C249 1.398 . S
C250 C251 1.391 . S
C251 H239 0.950 . S
C251 C247 1.393 . S
C251 C250 1.391 . S
C252 H242 0.950 . S
C252 C253 1.386 . S
C252 C254 1.391 . S
C253 C252 1.386 . S
C253 C257 1.393 . S
C254 H243 0.950 . S
C254 C252 1.391 . S
C254 C255 1.400 . S
C255 C249 1.491 . S
C255 C254 1.400 . S
C255 C256 1.398 . S
C256 H244 0.950 . S
C256 C255 1.398 . S
C256 C257 1.391 . S
C257 H245 0.950 . S
C257 C253 1.393 . S
C257 C256 1.391 . S
H258 C266 0.950 . S
H259 C271 0.950 . S
H260 C268 0.950 . S
H261 C270 0.950 . S
H262 C272 0.950 . S
H263 C274 0.950 . S
H264 C276 0.950 . S
H265 C277 0.950 . S
C266 H258 0.950 . S
C266 C267 1.386 . S
C266 C268 1.391 . S
C267 C266 1.386 . S
C267 C271 1.393 . S
C268 H260 0.950 . S
C268 C266 1.391 . S
C268 C269 1.400 . S
C269 C268 1.400 . S
C269 C270 1.398 . S
C269 C275 1.491 . S
C270 H261 0.950 . S
C270 C269 1.398 . S
C270 C271 1.391 . S
C271 H259 0.950 . S
C271 C267 1.393 . S
C271 C270 1.391 . S
C272 H262 0.950 . S
C272 C273 1.386 . S
C272 C274 1.391 . S
C273 C272 1.386 . S
C273 C277 1.393 . S
C274 H263 0.950 . S
C274 C272 1.391 . S
C274 C275 1.400 . S
C275 C269 1.491 . S
C275 C274 1.400 . S
C275 C276 1.398 . S
C276 H264 0.950 . S
C276 C275 1.398 . S
C276 C277 1.391 . S
C277 H265 0.950 . S
C277 C273 1.393 . S
C277 C276 1.391 . S
H278 C286 0.950 . S
H279 C291 0.950 . S
H280 C288 0.950 . S
H281 C290 0.950 . S
H282 C292 0.950 . S
H283 C294 0.950 . S
H284 C296 0.950 . S
H285 C297 0.950 . S
C286 H278 0.950 . S
C286 C287 1.386 . S
C286 C288 1.391 . S
C287 C286 1.386 . S
C287 C291 1.393 . S
C288 H280 0.950 . S
C288 C286 1.391 . S
C288 C289 1.400 . S
C289 C288 1.400 . S
C289 C290 1.398 . S
C289 C295 1.491 . S
C290 H281 0.950 . S
C290 C289 1.398 . S
C290 C291 1.391 . S
C291 H279 0.950 . S
C291 C287 1.393 . S
C291 C290 1.391 . S
C292 H282 0.950 . S
C292 C293 1.386 . S
C292 C294 1.391 . S
C293 C292 1.386 . S
C293 C297 1.393 . S
C294 H283 0.950 . S
C294 C292 1.391 . S
C294 C295 1.400 . S
C295 C289 1.491 . S
C295 C294 1.400 . S
C295 C296 1.398 . S
C296 H284 0.950 . S
C296 C295 1.398 . S
C296 C297 1.391 . S
C297 H285 0.950 . S
C297 C293 1.393 . S
C297 C296 1.391 . S
H298 C306 0.950 . S
H299 C311 0.950 . S
H300 C308 0.950 . S
H301 C310 0.950 . S
H302 C312 0.950 . S
H303 C314 0.950 . S
H304 C316 0.950 . S
H305 C317 0.950 . S
C306 H298 0.950 . S
C306 C307 1.386 . S
C306 C308 1.391 . S
C307 C306 1.386 . S
C307 C311 1.393 . S
C308 H300 0.950 . S
C308 C306 1.391 . S
C308 C309 1.400 . S
C309 C308 1.400 . S
C309 C310 1.398 . S
C309 C315 1.491 . S
C310 H301 0.950 . S
C310 C309 1.398 . S
C310 C311 1.391 . S
C311 H299 0.950 . S
C311 C307 1.393 . S
C311 C310 1.391 . S
C312 H302 0.950 . S
C312 C313 1.386 . S
C312 C314 1.391 . S
C313 C312 1.386 . S
C313 C317 1.393 . S
C314 H303 0.950 . S
C314 C312 1.391 . S
C314 C315 1.400 . S
C315 C309 1.491 . S
C315 C314 1.400 . S
C315 C316 1.398 . S
C316 H304 0.950 . S
C316 C315 1.398 . S
C316 C317 1.391 . S
C317 H305 0.950 . S
C317 C313 1.393 . S
C317 C316 1.391 . S
H318 C326 0.950 . S
H319 C331 0.950 . S
H320 C328 0.950 . S
H321 C330 0.950 . S
H322 C332 0.950 . S
H323 C334 0.950 . S
H324 C336 0.950 . S
H325 C337 0.950 . S
C326 H318 0.950 . S
C326 C327 1.386 . S
C326 C328 1.391 . S
C327 C326 1.386 . S
C327 C331 1.393 . S
C328 H320 0.950 . S
C328 C326 1.391 . S
C328 C329 1.400 . S
C329 C328 1.400 . S
C329 C330 1.398 . S
C329 C335 1.491 . S
C330 H321 0.950 . S
C330 C329 1.398 . S
C330 C331 1.391 . S
C331 H319 0.950 . S
C331 C327 1.393 . S
C331 C330 1.391 . S
C332 H322 0.950 . S
C332 C333 1.386 . S
C332 C334 1.391 . S
C333 C332 1.386 . S
C333 C337 1.393 . S
C334 H323 0.950 . S
C334 C332 1.391 . S
C334 C335 1.400 . S
C335 C329 1.491 . S
C335 C334 1.400 . S
C335 C336 1.398 . S
C336 H324 0.950 . S
C336 C335 1.398 . S
C336 C337 1.391 . S
C337 H325 0.950 . S
C337 C333 1.393 . S
C337 C336 1.391 . S
H338 C346 0.950 . S
H339 C351 0.950 . S
H340 C348 0.950 . S
H341 C350 0.950 . S
H342 C352 0.950 . S
H343 C354 0.950 . S
H344 C356 0.950 . S
H345 C357 0.950 . S
C346 H338 0.950 . S
C346 C347 1.386 . S
C346 C348 1.391 . S
C347 C346 1.386 . S
C347 C351 1.393 . S
C348 H340 0.950 . S
C348 C346 1.391 . S
C348 C349 1.400 . S
C349 C348 1.400 . S
C349 C350 1.398 . S
C349 C355 1.491 . S
C350 H341 0.950 . S
C350 C349 1.398 . S
C350 C351 1.391 . S
C351 H339 0.950 . S
C351 C347 1.393 . S
C351 C350 1.391 . S
C352 H342 0.950 . S
C352 C353 1.386 . S
C352 C354 1.391 . S
C353 C352 1.386 . S
C353 C357 1.393 . S
C354 H343 0.950 . S
C354 C352 1.391 . S
C354 C355 1.400 . S
C355 C349 1.491 . S
C355 C354 1.400 . S
C355 C356 1.398 . S
C356 H344 0.950 . S
C356 C355 1.398 . S
C356 C357 1.391 . S
C357 H345 0.950 . S
C357 C353 1.393 . S
C357 C356 1.391 . S
H358 C366 0.950 . S
H359 C371 0.950 . S
H360 C368 0.950 . S
H361 C370 0.950 . S
H362 C372 0.950 . S
H363 C374 0.950 . S
H364 C376 0.950 . S
H365 C377 0.950 . S
C366 H358 0.950 . S
C366 C367 1.386 . S
C366 C368 1.391 . S
C367 C366 1.386 . S
C367 C371 1.393 . S
C368 H360 0.950 . S
C368 C366 1.391 . S
C368 C369 1.400 . S
C369 C368 1.400 . S
C369 C370 1.398 . S
C369 C375 1.491 . S
C370 H361 0.950 . S
C370 C369 1.398 . S
C370 C371 1.391 . S
C371 H359 0.950 . S
C371 C367 1.393 . S
C371 C370 1.391 . S
C372 H362 0.950 . S
C372 C373 1.386 . S
C372 C374 1.391 . S
C373 C372 1.386 . S
C373 C377 1.393 . S
C374 H363 0.950 . S
C374 C372 1.391 . S
C374 C375 1.400 . S
C375 C369 1.491 . S
C375 C374 1.400 . S
C375 C376 1.398 . S
C376 H364 0.950 . S
C376 C375 1.398 . S
C376 C377 1.391 . S
C377 H365 0.950 . S
C377 C373 1.393 . S
C377 C376 1.391 . S
H378 C386 0.950 . S
H379 C391 0.950 . S
H380 C388 0.950 . S
H381 C390 0.950 . S
H382 C392 0.950 . S
H383 C394 0.950 . S
H384 C396 0.950 . S
H385 C397 0.950 . S
C386 H378 0.950 . S
C386 C387 1.386 . S
C386 C388 1.391 . S
C387 C386 1.386 . S
C387 C391 1.393 . S
C388 H380 0.950 . S
C388 C386 1.391 . S
C388 C389 1.400 . S
C389 C388 1.400 . S
C389 C390 1.398 . S
C389 C395 1.491 . S
C390 H381 0.950 . S
C390 C389 1.398 . S
C390 C391 1.391 . S
C391 H379 0.950 . S
C391 C387 1.393 . S
C391 C390 1.391 . S
C392 H382 0.950 . S
C392 C393 1.386 . S
C392 C394 1.391 . S
C393 C392 1.386 . S
C393 C397 1.393 . S
C394 H383 0.950 . S
C394 C392 1.391 . S
C394 C395 1.400 . S
C395 C389 1.491 . S
C395 C394 1.400 . S
C395 C396 1.398 . S
C396 H384 0.950 . S
C396 C395 1.398 . S
C396 C397 1.391 . S
C397 H385 0.950 . S
C397 C393 1.393 . S
C397 C396 1.391 . S
H398 C406 0.950 . S
H399 C411 0.950 . S
H400 C408 0.950 . S
H401 C410 0.950 . S
H402 C412 0.950 . S
H403 C414 0.950 . S
H404 C416 0.950 . S
H405 C417 0.950 . S
C406 H398 0.950 . S
C406 C407 1.386 . S
C406 C408 1.391 . S
C407 C406 1.386 . S
C407 C411 1.393 . S
C408 H400 0.950 . S
C408 C406 1.391 . S
C408 C409 1.400 . S
C409 C408 1.400 . S
C409 C410 1.398 . S
C409 C415 1.491 . S
C410 H401 0.950 . S
C410 C409 1.398 . S
C410 C411 1.391 . S
C411 H399 0.950 . S
C411 C407 1.393 . S
C411 C410 1.391 . S
C412 H402 0.950 . S
C412 C413 1.386 . S
C412 C414 1.391 . S
C413 C412 1.386 . S
C413 C417 1.393 . S
C414 H403 0.950 . S
C414 C412 1.391 . S
C414 C415 1.400 . S
C415 C409 1.491 . S
C415 C414 1.400 . S
C415 C416 1.398 . S
C416 H404 0.950 . S
C416 C415 1.398 . S
C416 C417 1.391 . S
C417 H405 0.950 . S
C417 C413 1.393 . S
C417 C416 1.391 . S
H418 C426 0.950 . S
H419 C431 0.950 . S
H420 C428 0.950 . S
H421 C430 0.950 . S
H422 C432 0.950 . S
H423 C434 0.950 . S
H424 C436 0.950 . S
H425 C437 0.950 . S
C426 H418 0.950 . S
C426 C427 1.386 . S
C426 C428 1.391 . S
C427 C426 1.386 . S
C427 C431 1.393 . S
C428 H420 0.950 . S
C428 C426 1.391 . S
C428 C429 1.400 . S
C429 C428 1.400 . S
C429 C430 1.398 . S
C429 C435 1.491 . S
C430 H421 0.950 . S
C430 C429 1.398 . S
C430 C431 1.391 . S
C431 H419 0.950 . S
C431 C427 1.393 . S
C431 C430 1.391 . S
C432 H422 0.950 . S
C432 C433 1.386 . S
C432 C434 1.391 . S
C433 C432 1.386 . S
C433 C437 1.393 . S
C434 H423 0.950 . S
C434 C432 1.391 . S
C434 C435 1.400 . S
C435 C429 1.491 . S
C435 C434 1.400 . S
C435 C436 1.398 . S
C436 H424 0.950 . S
C436 C435 1.398 . S
C436 C437 1.391 . S
C437 H425 0.950 . S
C437 C433 1.393 . S
C437 C436 1.391 . S
H438 C446 0.950 1_655 S
H439 C451 0.950 . S
H440 C448 0.950 . S
H441 C450 0.950 . S
H442 C452 0.950 . S
H443 C454 0.950 . S
H444 C456 0.950 . S
H445 C457 0.950 . S
C446 H438 0.950 1_455 S
C446 C447 1.386 . S
C446 C448 1.391 . S
C447 C446 1.386 . S
C447 C451 1.393 . S
C448 H440 0.950 . S
C448 C446 1.391 . S
C448 C449 1.400 . S
C449 C448 1.400 . S
C449 C450 1.398 . S
C449 C455 1.491 1_554 S
C450 H441 0.950 . S
C450 C449 1.398 . S
C450 C451 1.391 . S
C451 H439 0.950 . S
C451 C447 1.393 . S
C451 C450 1.391 . S
C452 H442 0.950 . S
C452 C453 1.386 . S
C452 C454 1.391 . S
C453 C452 1.386 . S
C453 C457 1.393 . S
C454 H443 0.950 . S
C454 C452 1.391 . S
C454 C455 1.400 . S
C455 C449 1.491 1_556 S
C455 C454 1.400 . S
C455 C456 1.398 . S
C456 H444 0.950 . S
C456 C455 1.398 . S
C456 C457 1.391 . S
C457 H445 0.950 . S
C457 C453 1.393 . S
C457 C456 1.391 . S
H458 C466 0.950 . S
H459 C471 0.950 . S
H460 C468 0.950 . S
H461 C470 0.950 . S
H462 C472 0.950 . S
H463 C474 0.950 . S
H464 C476 0.950 . S
H465 C477 0.950 . S
C466 H458 0.950 . S
C466 C467 1.386 . S
C466 C468 1.391 . S
C467 C466 1.386 . S
C467 C471 1.393 1_545 S
C468 H460 0.950 . S
C468 C466 1.391 . S
C468 C469 1.400 . S
C469 C468 1.400 . S
C469 C470 1.398 1_545 S
C469 C475 1.491 . S
C470 H461 0.950 . S
C470 C469 1.398 1_565 S
C470 C471 1.391 . S
C471 H459 0.950 . S
C471 C467 1.393 1_565 S
C471 C470 1.391 . S
C472 H462 0.950 . S
C472 C473 1.386 1_565 S
C472 C474 1.391 . S
C473 C472 1.386 1_545 S
C473 C477 1.393 . S
C474 H463 0.950 . S
C474 C472 1.391 . S
C474 C475 1.400 1_565 S
C475 C469 1.491 . S
C475 C474 1.400 1_545 S
C475 C476 1.398 . S
C476 H464 0.950 . S
C476 C475 1.398 . S
C476 C477 1.391 . S
C477 H465 0.950 . S
C477 C473 1.393 . S
C477 C476 1.391 . S
H478 C486 0.950 . S
H479 C491 0.950 . S
H480 C488 0.950 . S
H481 C490 0.950 . S
H482 C492 0.950 . S
H483 C494 0.950 . S
H484 C496 0.950 . S
H485 C497 0.950 . S
C486 H478 0.950 . S
C486 C487 1.386 . S
C486 C488 1.391 . S
C487 C486 1.386 . S
C487 C491 1.393 . S
C488 H480 0.950 . S
C488 C486 1.391 . S
C488 C489 1.400 . S
C489 C488 1.400 . S
C489 C490 1.398 . S
C489 C495 1.491 . S
C490 H481 0.950 . S
C490 C489 1.398 . S
C490 C491 1.391 . S
C491 H479 0.950 . S
C491 C487 1.393 . S
C491 C490 1.391 . S
C492 H482 0.950 . S
C492 C493 1.386 . S
C492 C494 1.391 . S
C493 C492 1.386 . S
C493 C497 1.393 . S
C494 H483 0.950 . S
C494 C492 1.391 . S
C494 C495 1.400 . S
C495 C489 1.491 . S
C495 C494 1.400 . S
C495 C496 1.398 . S
C496 H484 0.950 . S
C496 C495 1.398 . S
C496 C497 1.391 . S
C497 H485 0.950 . S
C497 C493 1.393 . S
C497 C496 1.391 . S
H498 C506 0.950 . S
H499 C511 0.950 1_565 S
H500 C508 0.950 . S
H501 C510 0.950 1_565 S
H502 C512 0.950 . S
H503 C514 0.950 . S
H504 C516 0.950 . S
H505 C517 0.950 . S
C506 H498 0.950 . S
C506 C507 1.386 . S
C506 C508 1.391 . S
C507 C506 1.386 . S
C507 C511 1.393 . S
C508 H500 0.950 . S
C508 C506 1.391 . S
C508 C509 1.400 . S
C509 C508 1.400 . S
C509 C510 1.398 . S
C509 C515 1.491 . S
C510 H501 0.950 1_545 S
C510 C509 1.398 . S
C510 C511 1.391 . S
C511 H499 0.950 1_545 S
C511 C507 1.393 . S
C511 C510 1.391 . S
C512 H502 0.950 . S
C512 C513 1.386 1_565 S
C512 C514 1.391 . S
C513 C512 1.386 1_545 S
C513 C517 1.393 . S
C514 H503 0.950 . S
C514 C512 1.391 . S
C514 C515 1.400 1_565 S
C515 C509 1.491 . S
C515 C514 1.400 1_545 S
C515 C516 1.398 . S
C516 H504 0.950 . S
C516 C515 1.398 . S
C516 C517 1.391 . S
C517 H505 0.950 . S
C517 C513 1.393 . S
C517 C516 1.391 . S
H518 C526 0.950 . S
H519 C531 0.950 . S
H520 C528 0.950 . S
H521 C530 0.950 . S
H522 C532 0.950 . S
H523 C534 0.950 1_556 S
H524 C536 0.950 . S
H525 C537 0.950 . S
C526 H518 0.950 . S
C526 C527 1.386 . S
C526 C528 1.391 . S
C527 C526 1.386 . S
C527 C531 1.393 . S
C528 H520 0.950 . S
C528 C526 1.391 . S
C528 C529 1.400 . S
C529 C528 1.400 . S
C529 C530 1.398 . S
C529 C535 1.491 . S
C530 H521 0.950 . S
C530 C529 1.398 . S
C530 C531 1.391 . S
C531 H519 0.950 . S
C531 C527 1.393 . S
C531 C530 1.391 . S
C532 H522 0.950 . S
C532 C533 1.386 . S
C532 C534 1.391 . S
C533 C532 1.386 . S
C533 C537 1.393 . S
C534 H523 0.950 1_554 S
C534 C532 1.391 . S
C534 C535 1.400 1_554 S
C535 C529 1.491 . S
C535 C534 1.400 1_556 S
C535 C536 1.398 1_556 S
C536 H524 0.950 . S
C536 C535 1.398 1_554 S
C536 C537 1.391 . S
C537 H525 0.950 . S
C537 C533 1.393 . S
C537 C536 1.391 . S
H538 C546 0.950 . S
H539 C551 0.950 . S
H540 C548 0.950 . S
H541 C550 0.950 . S
H542 C552 0.950 . S
H543 C554 0.950 . S
H544 C556 0.950 . S
H545 C557 0.950 . S
C546 H538 0.950 . S
C546 C547 1.386 1_455 S
C546 C548 1.391 . S
C547 C546 1.386 1_655 S
C547 C551 1.393 . S
C548 H540 0.950 . S
C548 C546 1.391 . S
C548 C549 1.400 . S
C549 C548 1.400 . S
C549 C550 1.398 1_455 S
C549 C555 1.491 . S
C550 H541 0.950 . S
C550 C549 1.398 1_655 S
C550 C551 1.391 . S
C551 H539 0.950 . S
C551 C547 1.393 . S
C551 C550 1.391 . S
C552 H542 0.950 . S
C552 C553 1.386 1_655 S
C552 C554 1.391 . S
C553 C552 1.386 1_455 S
C553 C557 1.393 . S
C554 H543 0.950 . S
C554 C552 1.391 . S
C554 C555 1.400 1_655 S
C555 C549 1.491 . S
C555 C554 1.400 1_455 S
C555 C556 1.398 . S
C556 H544 0.950 . S
C556 C555 1.398 . S
C556 C557 1.391 . S
C557 H545 0.950 . S
C557 C553 1.393 . S
C557 C556 1.391 . S
C207 C7 0.625 . S
C213 C189 0.664 . S
C227 C51 1.826 . S
C233 C167 1.792 . S
C247 C87 1.184 . S
C253 C180 1.185 . S
C267 C16 0.347 . S
C273 C193 0.258 . S
C293 C163 1.891 . S
C287 C42 2.032 . S
C313 C176 1.267 . S
C307 C96 1.356 . S
C327 C47 1.081 . S
C333 C141 1.078 . S
C347 C91 3.035 . S
C353 C154 2.991 1_655 S
C367 C2 2.048 . S
C373 C124 1.903 . S
C393 C137 1.311 . S
C387 C56 1.376 . S
C413 C150 2.862 . S
C407 C82 3.044 . S
C427 C11 1.834 . S
C433 C128 1.817 . S
C453 C155 1.744 . S
C447 C19 1.703 . S
C467 C50 1.449 . S
C473 C129 1.494 . S
C487 C99 1.526 . S
C493 C142 1.615 . S
C513 C181 1.544 . S
C507 C59 1.465 . S
C533 C194 1.344 . S
C527 C90 1.323 . S
C547 C10 1.444 1_655 S
C553 C168 1.482 . S
