# Generated by pormake.
# Topology cml, (3,6)-cn, num edge types: 1
# Building blocks:
#     Node 0, Type 0, BuildingBlock: CUQRIR_clean_linker_1, # of connection points: 3
#     Node 1, Type 0, BuildingBlock: CUQRIR_clean_linker_1, # of connection points: 3
#     Node 2, Type 0, BuildingBlock: CUQRIR_clean_linker_1, # of connection points: 3
#     Node 3, Type 0, BuildingBlock: CUQRIR_clean_linker_1, # of connection points: 3
#     Node 4, Type 0, BuildingBlock: CUQRIR_clean_linker_1, # of connection points: 3
#     Node 5, Type 0, BuildingBlock: CUQRIR_clean_linker_1, # of connection points: 3
#     Node 6, Type 0, BuildingBlock: CUQRIR_clean_linker_1, # of connection points: 3
#     Node 7, Type 0, BuildingBlock: CUQRIR_clean_linker_1, # of connection points: 3
#     Node 8, Type 1, BuildingBlock: OJICUG_clean_sbu_0, # of connection points: 6
#     Node 9, Type 1, BuildingBlock: OJICUG_clean_sbu_0, # of connection points: 6
#     Node 10, Type 1, BuildingBlock: OJICUG_clean_sbu_0, # of connection points: 6
#     Node 11, Type 1, BuildingBlock: OJICUG_clean_sbu_0, # of connection points: 6
#     Edge 12, Type (0, 1), BuildingBlock: TEMPAE_clean_linker_10, # of connection points: 2
#     Edge 13, Type (0, 1), BuildingBlock: TEMPAE_clean_linker_10, # of connection points: 2
#     Edge 14, Type (0, 1), BuildingBlock: TEMPAE_clean_linker_10, # of connection points: 2
#     Edge 15, Type (0, 1), BuildingBlock: TEMPAE_clean_linker_10, # of connection points: 2
#     Edge 16, Type (0, 1), BuildingBlock: TEMPAE_clean_linker_10, # of connection points: 2
#     Edge 17, Type (0, 1), BuildingBlock: TEMPAE_clean_linker_10, # of connection points: 2
#     Edge 18, Type (0, 1), BuildingBlock: TEMPAE_clean_linker_10, # of connection points: 2
#     Edge 19, Type (0, 1), BuildingBlock: TEMPAE_clean_linker_10, # of connection points: 2
#     Edge 20, Type (0, 1), BuildingBlock: TEMPAE_clean_linker_10, # of connection points: 2
#     Edge 21, Type (0, 1), BuildingBlock: TEMPAE_clean_linker_10, # of connection points: 2
#     Edge 22, Type (0, 1), BuildingBlock: TEMPAE_clean_linker_10, # of connection points: 2
#     Edge 23, Type (0, 1), BuildingBlock: TEMPAE_clean_linker_10, # of connection points: 2
#     Edge 24, Type (0, 1), BuildingBlock: TEMPAE_clean_linker_10, # of connection points: 2
#     Edge 25, Type (0, 1), BuildingBlock: TEMPAE_clean_linker_10, # of connection points: 2
#     Edge 26, Type (0, 1), BuildingBlock: TEMPAE_clean_linker_10, # of connection points: 2
#     Edge 27, Type (0, 1), BuildingBlock: TEMPAE_clean_linker_10, # of connection points: 2
#     Edge 28, Type (0, 1), BuildingBlock: TEMPAE_clean_linker_10, # of connection points: 2
#     Edge 29, Type (0, 1), BuildingBlock: TEMPAE_clean_linker_10, # of connection points: 2
#     Edge 30, Type (0, 1), BuildingBlock: TEMPAE_clean_linker_10, # of connection points: 2
#     Edge 31, Type (0, 1), BuildingBlock: TEMPAE_clean_linker_10, # of connection points: 2
#     Edge 32, Type (0, 1), BuildingBlock: TEMPAE_clean_linker_10, # of connection points: 2
#     Edge 33, Type (0, 1), BuildingBlock: TEMPAE_clean_linker_10, # of connection points: 2
#     Edge 34, Type (0, 1), BuildingBlock: TEMPAE_clean_linker_10, # of connection points: 2
#     Edge 35, Type (0, 1), BuildingBlock: TEMPAE_clean_linker_10, # of connection points: 2
# Relax obj value: 0.003
# Max RMSD: 0.059
# Mean RMSD: 0.046
data_MOF--net-cml--node1-OJICUG_clean_sbu_0--node2-CUQRIR_clean_linker_1--edge1-TEMPAE_clean_linker_10
_symmetry_space_group_name_H-M    P1
_symmetry_Int_Tables_number       1
_symmetry_cell_setting            triclinic
loop_
_symmetry_equiv_pos_as_xyz
'x, y, z'
_cell_length_a     38.528599
_cell_length_b     37.788257
_cell_length_c     32.48904
_cell_angle_alpha  89.994258
_cell_angle_beta   89.984073
_cell_angle_gamma 90.041349
loop_
_atom_site_label
_atom_site_type_symbol
_atom_site_fract_x
_atom_site_fract_y
_atom_site_fract_z
_atom_type_partial_charge
C0 C 0.24682 0.32955 0.03674 0.0
N1 N 0.27099 0.35541 0.03726 0.0
N2 N 0.22783 0.3314 1.00182 0.0
C3 C 0.2418 0.30258 0.07019 0.0
C4 C 0.24145 0.35913 0.98099 0.0
N5 N 0.26763 0.3739 0.00274 0.0
C6 C 0.2316 0.36934 0.93774 0.0
H7 H 0.25976 0.28012 0.06471 0.0
H8 H 0.2148 0.29235 0.07025 0.0
H9 H 0.24799 0.31414 0.10072 0.0
H10 H 0.21286 0.39159 0.93906 0.0
H11 H 0.21923 0.34698 0.92117 0.0
H12 H 0.25469 0.37825 0.92015 0.0
C13 C 0.76047 0.64832 0.54582 0.0
N14 N 0.73526 0.62362 0.54158 0.0
N15 N 0.77762 0.6528 0.50984 0.0
C16 C 0.76571 0.67067 0.58359 0.0
C17 C 0.76168 0.63049 0.48345 0.0
N18 N 0.73601 0.61275 0.50271 0.0
C19 C 0.76943 0.62819 0.43819 0.0
H20 H 0.74049 0.68189 0.59366 0.0
H21 H 0.7845 0.69242 0.57811 0.0
H22 H 0.77558 0.65376 0.60892 0.0
H23 H 0.79722 0.63392 0.43215 0.0
H24 H 0.75359 0.6482 0.42171 0.0
H25 H 0.76274 0.60161 0.426 0.0
C26 C 0.74812 0.33403 0.03242 0.0
N27 N 0.72188 0.35786 0.0322 0.0
N28 N 0.76126 0.3301 0.99401 0.0
C29 C 0.75865 0.31219 0.06904 0.0
C30 C 0.74215 0.35219 0.97048 0.0
N31 N 0.71824 0.3689 0.99364 0.0
C32 C 0.74695 0.35764 0.92498 0.0
H33 H 0.77771 0.32742 0.08753 0.0
H34 H 0.77092 0.28697 0.05939 0.0
H35 H 0.73589 0.30633 0.08884 0.0
H36 H 0.7293 0.33948 0.90818 0.0
H37 H 0.77405 0.35183 0.9156 0.0
H38 H 0.74027 0.38518 0.91615 0.0
C39 C 0.23363 0.65191 0.53719 0.0
N40 N 0.25926 0.62758 0.5337 0.0
N41 N 0.21875 0.65784 0.50009 0.0
C42 C 0.22584 0.67267 0.57559 0.0
C43 C 0.23624 0.63656 0.47394 0.0
N44 N 0.2608 0.61822 0.49432 0.0
C45 C 0.22988 0.63442 0.42835 0.0
H46 H 0.21028 0.65593 0.59673 0.0
H47 H 0.21093 0.69706 0.56871 0.0
H48 H 0.25028 0.67987 0.59162 0.0
H49 H 0.247 0.65372 0.41251 0.0
H50 H 0.20251 0.64105 0.421 0.0
H51 H 0.23604 0.60757 0.41659 0.0
C52 C 0.74814 0.82326 0.02544 0.0
N53 N 0.77215 0.84916 0.02806 0.0
N54 N 0.73035 0.82601 0.98972 0.0
C55 C 0.742 0.79546 0.05768 0.0
C56 C 0.74447 0.8544 0.97064 0.0
N57 N 0.76985 0.86862 0.99415 0.0
C58 C 0.73571 0.86607 0.92759 0.0
H59 H 0.75997 0.77303 0.0521 0.0
H60 H 0.71496 0.78541 0.05627 0.0
H61 H 0.74736 0.80614 0.08886 0.0
H62 H 0.71711 0.88842 0.92926 0.0
H63 H 0.72359 0.84435 0.90967 0.0
H64 H 0.75929 0.87537 0.91121 0.0
C65 C 0.24618 0.16332 0.53297 0.0
N66 N 0.22108 0.13831 0.53017 0.0
N67 N 0.25961 0.17032 0.49531 0.0
C68 C 0.25523 0.18329 0.57155 0.0
C69 C 0.24184 0.14887 0.46955 0.0
N70 N 0.21841 0.12958 0.4907 0.0
C71 C 0.24779 0.14627 0.4239 0.0
H72 H 0.23187 0.18725 0.59099 0.0
H73 H 0.26691 0.20941 0.56432 0.0
H74 H 0.27433 0.16763 0.58947 0.0
H75 H 0.27493 0.15338 0.41594 0.0
H76 H 0.23008 0.16494 0.408 0.0
H77 H 0.24207 0.11916 0.41265 0.0
C78 C 0.24433 0.82566 0.03049 0.0
N79 N 0.22012 0.85133 0.0333 0.0
N80 N 0.26254 0.82914 0.99512 0.0
C81 C 0.25023 0.79738 0.06222 0.0
C82 C 0.24842 0.8577 0.97644 0.0
N83 N 0.22269 0.87135 0.99986 0.0
C84 C 0.25738 0.86996 0.93364 0.0
H85 H 0.27735 0.78756 0.06104 0.0
H86 H 0.23246 0.77492 0.05588 0.0
H87 H 0.24444 0.80753 0.09353 0.0
H88 H 0.26941 0.84844 0.91533 0.0
H89 H 0.27614 0.89217 0.93581 0.0
H90 H 0.23393 0.87961 0.91732 0.0
C91 C 0.74326 0.16118 0.53878 0.0
N92 N 0.76834 0.13624 0.5354 0.0
N93 N 0.72893 0.16779 0.50152 0.0
C94 C 0.73517 0.18152 0.57739 0.0
C95 C 0.74612 0.14621 0.4754 0.0
N96 N 0.77005 0.12717 0.49595 0.0
C97 C 0.73945 0.14366 0.42989 0.0
H98 H 0.71736 0.16554 0.59676 0.0
H99 H 0.72242 0.20712 0.57035 0.0
H100 H 0.7592 0.1865 0.59531 0.0
H101 H 0.75698 0.1623 0.41361 0.0
H102 H 0.71222 0.15087 0.42256 0.0
H103 H 0.74489 0.11654 0.41851 0.0
Sc104 Sc 0.99266 0.84247 0.31529 0.0
Sc105 Sc 0.99366 0.93556 0.30726 0.0
Sc106 Sc 0.9942 0.89435 0.4051 0.0
O107 O 0.99349 0.89085 0.34252 0.0
C108 C 0.9419 0.82989 0.39127 0.0
C109 C 0.94145 0.8863 0.25725 0.0
C110 C 0.94292 0.95684 0.38106 0.0
C111 C 0.04468 0.88519 0.25699 0.0
C112 C 0.04486 0.82924 0.39 0.0
C113 C 0.04538 0.95683 0.38003 0.0
O114 O 0.9525 0.82277 0.35517 0.0
O115 O 0.95358 0.91653 0.2666 0.0
O116 O 0.95478 0.93413 0.40615 0.0
O117 O 0.03315 0.85668 0.27263 0.0
O118 O 0.03425 0.85525 0.41131 0.0
O119 O 0.03436 0.95994 0.3433 0.0
O120 O 0.0322 0.82149 0.35503 0.0
O121 O 0.03295 0.91564 0.26606 0.0
O122 O 0.03339 0.93446 0.40544 0.0
O123 O 0.95265 0.85757 0.27258 0.0
O124 O 0.95459 0.85481 0.41278 0.0
O125 O 0.95384 0.96031 0.34431 0.0
Sc126 Sc -0.00239 0.15109 0.8118 0.0
Sc127 Sc -0.00268 0.05763 0.8113 0.0
Sc128 Sc -0.0042 0.10446 0.9053 0.0
O129 O -0.00306 0.10435 0.84274 0.0
C130 C 0.0479 0.16813 0.88672 0.0
C131 C 0.04962 0.10423 0.75771 0.0
C132 C 0.04833 0.04157 0.88681 0.0
C133 C 0.94572 0.10475 0.75715 0.0
C134 C 0.94464 0.16783 0.88495 0.0
C135 C 0.94492 0.04038 0.88484 0.0
O136 O 0.03804 0.17295 0.84983 0.0
O137 O 0.03806 0.07451 0.77 0.0
O138 O 0.03627 0.06594 0.90957 0.0
O139 O 0.95725 0.13412 0.77057 0.0
O140 O 0.95505 0.1428 0.90785 0.0
O141 O 0.95646 0.03511 0.84866 0.0
O142 O 0.95794 0.17442 0.84995 0.0
O143 O 0.95785 0.07499 0.76854 0.0
O144 O 0.9569 0.0642 0.90839 0.0
O145 O 0.03738 0.13357 0.77012 0.0
O146 O 0.03459 0.14491 0.91015 0.0
O147 O 0.03689 0.03529 0.85076 0.0
Sc148 Sc 0.49741 0.3466 0.3176 0.0
Sc149 Sc 0.49888 0.43967 0.31127 0.0
Sc150 Sc 0.49669 0.39741 0.40839 0.0
O151 O 0.49768 0.39461 0.34575 0.0
C152 C 0.44467 0.33353 0.39196 0.0
C153 C 0.44704 0.39099 0.25957 0.0
C154 C 0.44639 0.46054 0.38322 0.0
C155 C 0.55062 0.39022 0.26115 0.0
C156 C 0.548 0.33242 0.39321 0.0
C157 C 0.54936 0.4591 0.38612 0.0
O158 O 0.4576 0.32571 0.35715 0.0
O159 O 0.4602 0.4209 0.2684 0.0
O160 O 0.45832 0.43832 0.40884 0.0
O161 O 0.53748 0.36159 0.27463 0.0
O162 O 0.53555 0.35707 0.41532 0.0
O163 O 0.53835 0.46351 0.34958 0.0
O164 O 0.53734 0.32589 0.35698 0.0
O165 O 0.53989 0.42058 0.27214 0.0
O166 O 0.53715 0.43616 0.41067 0.0
O167 O 0.45703 0.3621 0.27567 0.0
O168 O 0.45555 0.35922 0.41361 0.0
O169 O 0.45755 0.46364 0.34654 0.0
Sc170 Sc 0.49414 0.64881 0.80434 0.0
Sc171 Sc 0.49302 0.55543 0.80554 0.0
Sc172 Sc 0.49394 0.6034 0.89877 0.0
O173 O 0.49371 0.60251 0.83618 0.0
C174 C 0.54688 0.66519 0.87787 0.0
C175 C 0.54552 0.60108 0.75082 0.0
C176 C 0.54376 0.53812 0.88008 0.0
C177 C 0.44135 0.60192 0.75129 0.0
C178 C 0.44373 0.66815 0.8784 0.0
C179 C 0.44088 0.54112 0.88074 0.0
O180 O 0.5343 0.67148 0.84243 0.0
O181 O 0.53277 0.57167 0.76247 0.0
O182 O 0.53131 0.56168 0.90363 0.0
O183 O 0.45407 0.63134 0.76287 0.0
O184 O 0.45631 0.64495 0.90233 0.0
O185 O 0.45316 0.53372 0.84535 0.0
O186 O 0.45394 0.6722 0.84151 0.0
O187 O 0.4525 0.57225 0.76418 0.0
O188 O 0.45243 0.56619 0.90282 0.0
O189 O 0.53442 0.63073 0.76374 0.0
O190 O 0.53555 0.64087 0.90126 0.0
O191 O 0.53365 0.53338 0.84326 0.0
C192 C 0.16858 0.3194 0.97867 0.0
C193 C 0.20193 0.30718 0.98758 0.0
C194 C 0.14346 0.29649 0.96251 0.0
C195 C 0.15235 0.26075 0.95473 0.0
C196 C 0.18614 0.24834 0.9639 0.0
C197 C 0.21057 0.2718 0.98048 0.0
C198 C 0.10756 0.31051 0.95358 0.0
C199 C 0.1966 0.2105 0.95561 0.0
C200 C 0.07965 0.1938 0.9466 0.0
C201 C 0.07534 0.19115 0.90382 0.0
C202 C 0.10468 0.21633 0.96357 0.0
C203 C 0.12621 0.23635 0.93711 0.0
C204 C 0.12244 0.23343 0.8939 0.0
C205 C 0.09685 0.21101 0.87773 0.0
C206 C 0.10775 0.21912 0.00982 0.0
C207 C 0.14534 0.25412 0.86481 0.0
H208 H 0.16238 0.34695 0.98427 0.0
H209 H 0.23671 0.26288 0.98706 0.0
H210 H 0.1017 0.30771 0.92032 0.0
H211 H 0.08791 0.29482 0.97064 0.0
H212 H 0.10473 0.3388 0.96226 0.0
H213 H 0.22393 0.20515 0.96454 0.0
H214 H 0.17942 0.19215 0.97282 0.0
H215 H 0.19345 0.20446 0.9224 0.0
H216 H 0.06297 0.17872 0.96699 0.0
H217 H 0.0938 0.20891 0.84465 0.0
H218 H 0.10296 0.24682 0.01965 0.0
H219 H 0.13444 0.21213 0.01968 0.0
H220 H 0.08912 0.20156 0.02609 0.0
H221 H 0.14165 0.28291 0.86984 0.0
H222 H 0.13975 0.24805 0.83202 0.0
H223 H 0.17304 0.24815 0.87106 0.0
C224 C 0.83632 0.6754 0.49863 0.0
C225 C 0.80054 0.68095 0.49866 0.0
C226 C 0.85885 0.70132 0.48315 0.0
C227 C 0.84492 0.73322 0.46724 0.0
C228 C 0.80866 0.73918 0.46842 0.0
C229 C 0.78683 0.71279 0.48414 0.0
C230 C 0.89738 0.69409 0.48247 0.0
C231 C 0.79287 0.77279 0.4517 0.0
C232 C 0.90667 0.81023 0.45192 0.0
C233 C 0.91506 0.80689 0.41002 0.0
C234 C 0.88343 0.78676 0.47087 0.0
C235 C 0.86813 0.75943 0.44734 0.0
C236 C 0.87565 0.75649 0.40484 0.0
C237 C 0.89905 0.78023 0.38669 0.0
C238 C 0.87593 0.79066 0.51627 0.0
C239 C 0.85954 0.72778 0.37871 0.0
H240 H 0.84639 0.65038 0.50968 0.0
H241 H 0.75892 0.7164 0.48407 0.0
H242 H 0.90656 0.69255 0.45015 0.0
H243 H 0.91166 0.71607 0.49749 0.0
H244 H 0.90411 0.66894 0.49829 0.0
H245 H 0.76447 0.77421 0.45741 0.0
H246 H 0.80542 0.79624 0.46588 0.0
H247 H 0.79745 0.77439 0.41803 0.0
H248 H 0.91887 0.83071 0.47026 0.0
H249 H 0.90518 0.77751 0.35428 0.0
H250 H 0.885 0.76676 0.53295 0.0
H251 H 0.84756 0.79282 0.52149 0.0
H252 H 0.88881 0.81425 0.52982 0.0
H253 H 0.86764 0.70143 0.39029 0.0
H254 H 0.8671 0.72994 0.3458 0.0
H255 H 0.83082 0.72899 0.38088 0.0
C256 C 0.82086 0.30752 0.99503 0.0
C257 C 0.78692 0.30545 0.98017 0.0
C258 C 0.84662 0.28481 0.97988 0.0
C259 C 0.83783 0.25946 0.9495 0.0
C260 C 0.80327 0.25691 0.93508 0.0
C261 C 0.77818 0.28008 0.95063 0.0
C262 C 0.88326 0.28831 0.99583 0.0
C263 C 0.79288 0.22998 0.90301 0.0
C264 C 0.90925 0.22325 0.88133 0.0
C265 C 0.9165 0.19082 0.90049 0.0
C266 C 0.88371 0.24592 0.89705 0.0
C267 C 0.86483 0.23574 0.93249 0.0
C268 C 0.87161 0.20286 0.95161 0.0
C269 C 0.89744 0.18083 0.93546 0.0
C270 C 0.87716 0.28093 0.876 0.0
C271 C 0.85166 0.19102 0.98922 0.0
H272 H 0.82722 0.32743 0.01784 0.0
H273 H 0.75165 0.27863 0.93968 0.0
H274 H 0.89206 0.26276 0.00899 0.0
H275 H 0.90106 0.2949 0.97008 0.0
H276 H 0.88563 0.30911 0.01983 0.0
H277 H 0.76471 0.23102 0.89583 0.0
H278 H 0.80767 0.23461 0.8742 0.0
H279 H 0.79937 0.20293 0.91383 0.0
H280 H 0.92393 0.23123 0.85442 0.0
H281 H 0.9027 0.15572 0.95033 0.0
H282 H 0.88172 0.30295 0.89793 0.0
H283 H 0.84967 0.28258 0.86601 0.0
H284 H 0.89409 0.28488 0.84869 0.0
H285 H 0.85547 0.21025 0.01462 0.0
H286 H 0.85982 0.16442 1.00008 0.0
H287 H 0.82347 0.19029 0.98231 0.0
C288 C 0.20599 0.71316 0.4643 0.0
C289 C 0.19484 0.68515 0.48905 0.0
C290 C 0.18246 0.73856 0.45011 0.0
C291 C 0.14699 0.73541 0.46079 0.0
C292 C 0.13584 0.7076 0.48693 0.0
C293 C 0.16012 0.68275 0.50097 0.0
C294 C 0.19535 0.76801 0.42264 0.0
C295 C 0.09817 0.70334 0.49872 0.0
C296 C 0.0877 0.81427 0.4453 0.0
C297 C 0.07207 0.80603 0.40745 0.0
C298 C 0.11227 0.79158 0.46305 0.0
C299 C 0.12128 0.7599 0.44251 0.0
C300 C 0.10593 0.75157 0.40417 0.0
C301 C 0.08158 0.77478 0.38704 0.0
C302 C 0.12845 0.80136 0.50383 0.0
C303 C 0.11497 0.71795 0.38141 0.0
H304 H 0.23311 0.71466 0.45555 0.0
H305 H 0.15195 0.66078 0.52011 0.0
H306 H 0.18396 0.7651 0.39146 0.0
H307 H 0.1869 0.79404 0.43482 0.0
H308 H 0.22408 0.76808 0.41976 0.0
H309 H 0.09417 0.68153 0.52117 0.0
H310 H 0.08812 0.72826 0.51226 0.0
H311 H 0.08252 0.6977 0.47081 0.0
H312 H 0.08062 0.83838 0.46129 0.0
H313 H 0.06965 0.76811 0.35784 0.0
H314 H 0.1571 0.80266 0.50072 0.0
H315 H 0.12256 0.78069 0.52706 0.0
H316 H 0.11897 0.82723 0.51554 0.0
H317 H 0.1432 0.71724 0.37476 0.0
H318 H 0.10062 0.71537 0.35191 0.0
H319 H 0.10893 0.69463 0.40091 0.0
C320 C 0.67119 0.81517 0.96546 0.0
C321 C 0.70449 0.80252 0.97385 0.0
C322 C 0.64577 0.79271 0.94911 0.0
C323 C 0.65431 0.75702 0.94051 0.0
C324 C 0.68818 0.7443 0.94862 0.0
C325 C 0.71289 0.76728 0.96554 0.0
C326 C 0.60978 0.80704 0.94142 0.0
C327 C 0.69829 0.70654 0.93935 0.0
C328 C 0.5811 0.69041 0.93596 0.0
C329 C 0.57514 0.68793 0.89346 0.0
C330 C 0.60684 0.71281 0.95164 0.0
C331 C 0.62747 0.73276 0.92412 0.0
C332 C 0.62208 0.72993 0.88115 0.0
C333 C 0.59572 0.70773 0.8663 0.0
C334 C 0.61156 0.71556 0.9977 0.0
C335 C 0.64405 0.75046 0.85093 0.0
H336 H 0.66518 0.84261 0.97204 0.0
H337 H 0.73898 0.75803 0.97179 0.0
H338 H 0.60288 0.80395 0.90847 0.0
H339 H 0.59051 0.79172 0.95954 0.0
H340 H 0.60748 0.83544 0.94982 0.0
H341 H 0.72602 0.70121 0.94635 0.0
H342 H 0.68204 0.6881 0.95765 0.0
H343 H 0.69351 0.70059 0.90639 0.0
H344 H 0.56509 0.6754 0.95715 0.0
H345 H 0.59137 0.7057 0.83342 0.0
H346 H 0.60735 0.74328 0.00777 0.0
H347 H 0.63851 0.70832 0.00623 0.0
H348 H 0.59338 0.69814 0.01488 0.0
H349 H 0.64061 0.77928 0.85602 0.0
H350 H 0.63734 0.74432 0.81845 0.0
H351 H 0.67191 0.74443 0.8559 0.0
C352 C 0.27661 0.22305 0.45635 0.0
C353 C 0.28506 0.19633 0.48435 0.0
C354 C 0.30179 0.24715 0.4429 0.0
C355 C 0.33619 0.24412 0.45778 0.0
C356 C 0.34455 0.21767 0.48705 0.0
C357 C 0.3187 0.19407 0.50014 0.0
C358 C 0.29184 0.27518 0.41195 0.0
C359 C 0.38099 0.21354 0.50341 0.0
C360 C 0.40805 0.27893 0.38929 0.0
C361 C 0.41635 0.31112 0.40844 0.0
C362 C 0.3821 0.25684 0.40519 0.0
C363 C 0.36379 0.26732 0.44092 0.0
C364 C 0.37171 0.29989 0.46022 0.0
C365 C 0.39801 0.32137 0.44383 0.0
C366 C 0.37441 0.22217 0.38389 0.0
C367 C 0.35242 0.312 0.49814 0.0
H368 H 0.25031 0.22466 0.44467 0.0
H369 H 0.32487 0.17315 0.52175 0.0
H370 H 0.29957 0.30174 0.42328 0.0
H371 H 0.30586 0.27055 0.38262 0.0
H372 H 0.26352 0.27533 0.40553 0.0
H373 H 0.38273 0.19286 0.52763 0.0
H374 H 0.39876 0.20632 0.47788 0.0
H375 H 0.39034 0.23898 0.51637 0.0
H376 H 0.42214 0.27067 0.36206 0.0
H377 H 0.40412 0.34626 0.45875 0.0
H378 H 0.34689 0.22147 0.37389 0.0
H379 H 0.37826 0.19987 0.40565 0.0
H380 H 0.39119 0.21782 0.35655 0.0
H381 H 0.32422 0.31373 0.49149 0.0
H382 H 0.36153 0.33821 0.50926 0.0
H383 H 0.35572 0.2924 0.52326 0.0
C384 C 0.28036 0.77056 0.97081 0.0
C385 C 0.28848 0.80592 0.9789 0.0
C386 C 0.30504 0.7479 0.95331 0.0
C387 C 0.33858 0.7611 0.94421 0.0
C388 C 0.34685 0.7969 0.95256 0.0
C389 C 0.32149 0.819 0.96967 0.0
C390 C 0.29524 0.70996 0.94447 0.0
C391 C 0.38247 0.81176 0.9437 0.0
C392 C 0.41195 0.69493 0.93753 0.0
C393 C 0.41655 0.69182 0.89483 0.0
C394 C 0.38675 0.71753 0.95396 0.0
C395 C 0.36535 0.73718 0.92703 0.0
C396 C 0.36959 0.73403 0.8839 0.0
C397 C 0.39535 0.71151 0.86827 0.0
C398 C 0.3832 0.72056 1.00014 0.0
C399 C 0.34686 0.75435 0.85434 0.0
H400 H 0.25448 0.76095 0.97764 0.0
H401 H 0.32731 0.84652 0.97606 0.0
H402 H 0.29927 0.70404 0.91136 0.0
H403 H 0.31222 0.69182 0.96221 0.0
H404 H 0.26778 0.70418 0.95248 0.0
H405 H 0.38456 0.84022 0.95188 0.0
H406 H 0.40232 0.79682 0.9613 0.0
H407 H 0.38871 0.80864 0.91057 0.0
H408 H 0.42841 0.68002 0.95829 0.0
H409 H 0.39866 0.70908 0.83526 0.0
H410 H 0.35661 0.71284 0.00972 0.0
H411 H 0.38716 0.74843 0.0098 0.0
H412 H 0.40212 0.70363 0.01681 0.0
H413 H 0.31918 0.74775 0.85988 0.0
H414 H 0.35316 0.74852 0.82167 0.0
H415 H 0.34988 0.78319 0.85961 0.0
C416 C 0.71326 0.22137 0.46365 0.0
C417 C 0.704 0.19429 0.49082 0.0
C418 C 0.6885 0.24568 0.44978 0.0
C419 C 0.65372 0.2424 0.4633 0.0
C420 C 0.64456 0.21565 0.49187 0.0
C421 C 0.67002 0.19189 0.50549 0.0
C422 C 0.69932 0.27407 0.41967 0.0
C423 C 0.60768 0.21127 0.50673 0.0
C424 C 0.5925 0.31966 0.44732 0.0
C425 C 0.57551 0.30976 0.41087 0.0
C426 C 0.61809 0.29801 0.4648 0.0
C427 C 0.62662 0.26561 0.44554 0.0
C428 C 0.6096 0.25542 0.40881 0.0
C429 C 0.58437 0.27771 0.3918 0.0
C430 C 0.63608 0.30983 0.50374 0.0
C431 C 0.61795 0.2209 0.38756 0.0
H432 H 0.73981 0.22298 0.45281 0.0
H433 H 0.66329 0.17065 0.52645 0.0
H434 H 0.68638 0.26955 0.38963 0.0
H435 H 0.69099 0.30046 0.4309 0.0
H436 H 0.72784 0.27453 0.41464 0.0
H437 H 0.60533 0.19049 0.53076 0.0
H438 H 0.59784 0.2366 0.51941 0.0
H439 H 0.59071 0.20403 0.48045 0.0
H440 H 0.58595 0.34446 0.46216 0.0
H441 H 0.57125 0.26973 0.36378 0.0
H442 H 0.66445 0.31185 0.49835 0.0
H443 H 0.63212 0.28992 0.5284 0.0
H444 H 0.62646 0.33584 0.51484 0.0
H445 H 0.64574 0.22036 0.37863 0.0
H446 H 0.60197 0.21666 0.35953 0.0
H447 H 0.61354 0.19846 0.40897 0.0
C448 C 0.27963 0.43288 0.97425 0.0
C449 C 0.29166 0.40007 0.9881 0.0
C450 C 0.30249 0.45738 0.95647 0.0
C451 C 0.33814 0.44877 0.95306 0.0
C452 C 0.35045 0.41592 0.968 0.0
C453 C 0.3269 0.39178 0.98495 0.0
C454 C 0.28848 0.49215 0.94075 0.0
C455 C 0.38835 0.40599 0.96543 0.0
C456 C 0.39531 0.49404 0.87391 0.0
C457 C 0.41299 0.51878 0.8983 0.0
C458 C 0.37008 0.4717 0.89114 0.0
C459 C 0.36271 0.47397 0.93376 0.0
C460 C 0.38 0.49924 0.95839 0.0
C461 C 0.40478 0.52145 0.94034 0.0
C462 C 0.35182 0.44517 0.86394 0.0
C463 C 0.37307 0.50212 0.00406 0.0
H464 H 0.25224 0.43895 0.9768 0.0
H465 H 0.33583 0.36595 0.99472 0.0
H466 H 0.30196 0.51449 0.9561 0.0
H467 H 0.2936 0.49453 0.90726 0.0
H468 H 0.26012 0.49483 0.94608 0.0
H469 H 0.3938 0.37998 0.98003 0.0
H470 H 0.39658 0.40482 0.93274 0.0
H471 H 0.40448 0.42644 0.98076 0.0
H472 H 0.40133 0.49194 0.84141 0.0
H473 H 0.41835 0.54037 0.95957 0.0
H474 H 0.32327 0.44814 0.86688 0.0
H475 H 0.35843 0.41792 0.87394 0.0
H476 H 0.35905 0.44815 0.83102 0.0
H477 H 0.34497 0.50622 0.00974 0.0
H478 H 0.3877 0.52419 0.01855 0.0
H479 H 0.38049 0.47706 0.01955 0.0
C480 C 0.68651 0.60457 0.45657 0.0
C481 C 0.71081 0.5902 0.48372 0.0
C482 C 0.66032 0.58343 0.43964 0.0
C483 C 0.65942 0.54687 0.44913 0.0
C484 C 0.68474 0.5321 0.47566 0.0
C485 C 0.70989 0.55422 0.4933 0.0
C486 C 0.63303 0.60038 0.41275 0.0
C487 C 0.68511 0.49308 0.48562 0.0
C488 C 0.57436 0.49727 0.44064 0.0
C489 C 0.57721 0.48211 0.40146 0.0
C490 C 0.60074 0.51897 0.45624 0.0
C491 C 0.63113 0.52443 0.4326 0.0
C492 C 0.6343 0.50874 0.39318 0.0
C493 C 0.60689 0.48822 0.3777 0.0
C494 C 0.59596 0.53627 0.49782 0.0
C495 C 0.66681 0.51316 0.36773 0.0
H496 H 0.68744 0.63266 0.44988 0.0
H497 H 0.729 0.54357 0.5144 0.0
H498 H 0.63244 0.58741 0.38214 0.0
H499 H 0.60704 0.59672 0.42686 0.0
H500 H 0.63764 0.62916 0.4083 0.0
H501 H 0.7082 0.48542 0.50404 0.0
H502 H 0.66145 0.48595 0.50323 0.0
H503 H 0.68485 0.47732 0.4568 0.0
H504 H 0.55117 0.49261 0.45878 0.0
H505 H 0.60905 0.4761 0.34755 0.0
H506 H 0.59911 0.56538 0.49504 0.0
H507 H 0.61614 0.52681 0.51952 0.0
H508 H 0.57005 0.53064 0.51134 0.0
H509 H 0.6711 0.54154 0.36069 0.0
H510 H 0.66556 0.49826 0.33829 0.0
H511 H 0.68966 0.50384 0.38547 0.0
C512 C 0.6652 0.38168 0.95524 0.0
C513 C 0.69293 0.3936 0.97916 0.0
C514 C 0.64064 0.40551 0.93986 0.0
C515 C 0.64494 0.44215 0.94745 0.0
C516 C 0.67333 0.45426 0.97134 0.0
C517 C 0.69681 0.42959 0.98751 0.0
C518 C 0.6101 0.39151 0.91571 0.0
C519 C 0.67919 0.49319 0.97915 0.0
C520 C 0.5984 0.50336 0.87336 0.0
C521 C 0.57012 0.51422 0.89722 0.0
C522 C 0.62363 0.48066 0.8898 0.0
C523 C 0.6196 0.4677 0.93044 0.0
C524 C 0.59083 0.47835 0.95446 0.0
C525 C 0.56669 0.50201 0.93774 0.0
C526 C 0.65456 0.47059 0.86377 0.0
C527 C 0.58512 0.46414 0.99743 0.0
H528 H 0.66271 0.35359 0.94911 0.0
H529 H 0.71872 0.4383 0.00581 0.0
H530 H 0.58548 0.40058 0.92997 0.0
H531 H 0.61075 0.40206 0.88387 0.0
H532 H 0.60985 0.36214 0.91421 0.0
H533 H 0.70307 0.49819 0.99742 0.0
H534 H 0.68135 0.50748 0.94941 0.0
H535 H 0.65672 0.50454 0.99588 0.0
H536 H 0.60107 0.51311 0.84212 0.0
H537 H 0.54455 0.51023 0.95599 0.0
H538 H 0.65437 0.44169 0.85785 0.0
H539 H 0.67895 0.47676 0.88048 0.0
H540 H 0.65486 0.48464 0.83374 0.0
H541 H 0.58336 0.43483 0.99656 0.0
H542 H 0.56109 0.47471 0.01175 0.0
H543 H 0.60747 0.471 0.0174 0.0
C544 C 0.31113 0.60912 0.44965 0.0
C545 C 0.2862 0.59527 0.47641 0.0
C546 C 0.33714 0.58746 0.43329 0.0
C547 C 0.33728 0.55095 0.44304 0.0
C548 C 0.31141 0.53673 0.46929 0.0
C549 C 0.2864 0.55934 0.48628 0.0
C550 C 0.36499 0.60379 0.40665 0.0
C551 C 0.3103 0.49779 0.47958 0.0
C552 C 0.38958 0.49074 0.37321 0.0
C553 C 0.41884 0.48434 0.39756 0.0
C554 C 0.3624 0.51194 0.38793 0.0
C555 C 0.36538 0.52796 0.42719 0.0
C556 C 0.39538 0.52225 0.4514 0.0
C557 C 0.42152 0.49994 0.43653 0.0
C558 C 0.33029 0.5167 0.36189 0.0
C559 C 0.39994 0.53984 0.49285 0.0
H560 H 0.31075 0.63718 0.44273 0.0
H561 H 0.26679 0.54909 0.50703 0.0
H562 H 0.39077 0.59981 0.42116 0.0
H563 H 0.36568 0.59062 0.37617 0.0
H564 H 0.36092 0.63261 0.4019 0.0
H565 H 0.28693 0.49062 0.49782 0.0
H566 H 0.31051 0.48184 0.4509 0.0
H567 H 0.33369 0.49038 0.4975 0.0
H568 H 0.38754 0.47829 0.34323 0.0
H569 H 0.4444 0.49508 0.45514 0.0
H570 H 0.32649 0.54511 0.35463 0.0
H571 H 0.30709 0.50776 0.37928 0.0
H572 H 0.33171 0.50166 0.33255 0.0
H573 H 0.39729 0.56896 0.48969 0.0
H574 H 0.4256 0.53394 0.50684 0.0
H575 H 0.37937 0.53085 0.51433 0.0
C576 C 0.78241 0.92867 0.96924 0.0
C577 C 0.79415 0.89539 0.9818 0.0
C578 C 0.8057 0.95393 0.95378 0.0
C579 C 0.84145 0.94552 0.95129 0.0
C580 C 0.85344 0.91214 0.965 0.0
C581 C 0.8295 0.88733 0.97974 0.0
C582 C 0.79203 0.98926 0.93941 0.0
C583 C 0.8914 0.90234 0.96328 0.0
C584 C 0.89976 0.99326 0.87539 0.0
C585 C 0.91709 0.01724 0.90114 0.0
C586 C 0.87438 0.97033 0.89116 0.0
C587 C 0.86639 0.97127 0.93369 0.0
C588 C 0.88333 0.99573 0.95973 0.0
C589 C 0.90837 0.01851 0.94313 0.0
C590 C 0.85658 0.94463 0.86249 0.0
C591 C 0.87566 -0.00278 0.00532 0.0
H592 H 0.75493 0.93457 0.97097 0.0
H593 H 0.83822 0.86118 0.98853 0.0
H594 H 0.80537 0.01101 0.95601 0.0
H595 H 0.79761 0.99273 0.90615 0.0
H596 H 0.76361 0.99187 0.94431 0.0
H597 H 0.89655 0.87591 0.97697 0.0
H598 H 0.90037 0.90216 0.93082 0.0
H599 H 0.90715 0.92232 0.97993 0.0
H600 H 0.90616 0.99221 0.84292 0.0
H601 H 0.92161 0.03688 0.96338 0.0
H602 H 0.828 0.94763 0.86473 0.0
H603 H 0.8629 0.91709 0.87166 0.0
H604 H 0.86447 0.94847 0.8299 0.0
H605 H 0.84748 0.00121 0.01051 0.0
H606 H 0.89009 0.01881 0.02103 0.0
H607 H 0.88278 0.9717 0.01993 0.0
C608 C 0.19829 0.06849 0.48272 0.0
C609 C 0.19455 0.10441 0.47381 0.0
C610 C 0.17536 0.04355 0.46594 0.0
C611 C 0.14758 0.05527 0.44085 0.0
C612 C 0.14366 0.09178 0.43217 0.0
C613 C 0.16767 0.11591 0.4483 0.0
C614 C 0.1808 0.00478 0.47506 0.0
C615 C 0.11371 0.10541 0.40676 0.0
C616 C 0.10002 0.99142 0.37037 0.0
C617 C 0.07185 0.98169 0.39511 0.0
C618 C 0.12545 0.01479 0.38523 0.0
C619 C 0.12173 0.02956 0.42508 0.0
C620 C 0.09293 0.02021 0.44983 0.0
C621 C 0.06863 0.9959 0.43476 0.0
C622 C 0.15638 0.02345 0.35853 0.0
C623 C 0.08751 0.03629 0.49196 0.0
H624 H 0.21944 0.06007 0.5024 0.0
H625 H 0.16511 0.14394 0.44194 0.0
H626 H 0.15858 0.99436 0.49307 0.0
H627 H 0.18196 0.98952 0.4459 0.0
H628 H 0.20503 -6e-05 0.49271 0.0
H629 H 0.11445 0.13462 0.40302 0.0
H630 H 0.114 0.09304 0.37581 0.0
H631 H 0.08879 0.09801 0.42161 0.0
H632 H 0.10251 0.98019 0.33981 0.0
H633 H 0.04655 0.9886 0.45367 0.0
H634 H 0.18073 0.01718 0.37525 0.0
H635 H 0.15685 0.05217 0.35154 0.0
H636 H 0.15614 0.00857 0.32904 0.0
H637 H 0.10954 0.02947 0.51243 0.0
H638 H 0.06309 0.02706 0.50666 0.0
H639 H 0.08671 0.06558 0.48957 0.0
C640 C 0.21001 0.93157 0.9757 0.0
C641 C 0.19834 0.89807 0.98763 0.0
C642 C 0.18679 0.95671 0.95995 0.0
C643 C 0.15116 0.94798 0.95658 0.0
C644 C 0.13918 0.91445 0.96983 0.0
C645 C 0.16307 0.88973 0.98481 0.0
C646 C 0.20045 0.9922 0.94604 0.0
C647 C 0.10132 0.90432 0.96722 0.0
C648 C 0.08389 0.02035 0.94621 0.0
C649 C 0.07605 0.01884 0.904 0.0
C650 C 0.10873 -0.00216 0.96363 0.0
C651 C 0.12639 0.97345 0.93819 0.0
C652 C 0.11931 0.97231 0.89545 0.0
C653 C 0.09408 0.99494 0.87886 0.0
C654 C 0.1154 -0.0005 0.00943 0.0
C655 C 0.13791 0.94671 0.86739 0.0
H656 H 0.23742 0.93768 0.978 0.0
H657 H 0.1544 0.86342 0.99308 0.0
H658 H 0.19568 0.99557 0.91259 0.0
H659 H 0.18647 0.01382 0.96212 0.0
H660 H 0.22871 0.99517 0.95192 0.0
H661 H 0.09609 0.87795 0.98103 0.0
H662 H 0.08512 0.92428 0.98325 0.0
H663 H 0.093 0.90382 0.93454 0.0
H664 H 0.07006 0.03863 0.96599 0.0
H665 H 0.08836 0.99373 0.84623 0.0
H666 H 0.14344 0.00374 0.01544 0.0
H667 H 0.10814 0.97394 0.02391 0.0
H668 H 0.1005 0.021 0.02463 0.0
H669 H 0.16641 0.94999 0.87047 0.0
H670 H 0.13069 0.95042 0.83457 0.0
H671 H 0.1316 0.91914 0.87646 0.0
C672 C 0.79096 0.06646 0.48758 0.0
C673 C 0.79392 0.1024 0.47841 0.0
C674 C 0.81392 0.04191 0.47017 0.0
C675 C 0.84093 0.05408 0.44417 0.0
C676 C 0.84406 0.09062 0.43522 0.0
C677 C 0.82003 0.11434 0.452 0.0
C678 C 0.80932 0.00307 0.4796 0.0
C679 C 0.87323 0.10472 0.40884 0.0
C680 C 0.92055 0.99607 0.43603 0.0
C681 C 0.91665 0.98161 0.3966 0.0
C682 C 0.89627 0.02009 0.45166 0.0
C683 C 0.86684 0.02884 0.42772 0.0
C684 C 0.86249 0.01385 0.38808 0.0
C685 C 0.88789 0.99081 0.37261 0.0
C686 C 0.90235 0.03645 0.49351 0.0
C687 C 0.83087 0.02188 0.36229 0.0
H688 H 0.7704 0.05772 0.50797 0.0
H689 H 0.82199 0.14239 0.44548 0.0
H690 H 0.80783 0.98769 0.45054 0.0
H691 H 0.83208 0.99314 0.49699 0.0
H692 H 0.78556 -0.00217 0.49799 0.0
H693 H 0.87189 0.1339 0.40498 0.0
H694 H 0.89857 0.09788 0.42298 0.0
H695 H 0.87251 0.09223 0.37797 0.0
H696 H 0.9431 0.98914 0.45432 0.0
H697 H 0.88491 0.97934 0.34222 0.0
H698 H 0.88094 0.02922 0.51474 0.0
H699 H 0.90252 0.06574 0.49098 0.0
H700 H 0.92727 0.0278 0.50745 0.0
H701 H 0.80699 0.01513 0.37972 0.0
H702 H 0.83078 0.00698 0.3328 0.0
H703 H 0.82975 0.05058 0.3553 0.0
C704 C 0.32363 0.33912 0.07502 0.0
C705 C 0.29582 0.36222 0.06913 0.0
C706 C 0.34843 0.34572 0.10563 0.0
C707 C 0.34433 0.37542 0.13182 0.0
C708 C 0.31585 0.3986 0.12612 0.0
C709 C 0.29217 0.39198 0.09423 0.0
C710 C 0.37901 0.32103 0.10984 0.0
C711 C 0.31003 0.4299 0.15415 0.0
C712 C 0.3906 0.36755 0.23437 0.0
C713 C 0.41955 0.3893 0.22818 0.0
C714 C 0.36511 0.36402 0.20385 0.0
C715 C 0.36948 0.38162 0.1657 0.0
C716 C 0.39865 0.40381 0.15941 0.0
C717 C 0.42309 0.40789 0.19112 0.0
C718 C 0.33379 0.34105 0.21219 0.0
C719 C 0.40474 0.42209 0.11869 0.0
H720 H 0.32616 0.31629 0.05505 0.0
H721 H 0.27034 0.40954 0.08926 0.0
H722 H 0.40361 0.33629 0.10841 0.0
H723 H 0.3782 0.30766 0.14021 0.0
H724 H 0.37943 0.30048 0.0854 0.0
H725 H 0.28632 0.44501 0.14585 0.0
H726 H 0.30757 0.4207 0.18646 0.0
H727 H 0.33264 0.44803 0.15285 0.0
H728 H 0.38786 0.35337 0.26323 0.0
H729 H 0.44574 0.42442 0.18631 0.0
H730 H 0.33425 0.31758 0.1917 0.0
H731 H 0.30962 0.35589 0.20537 0.0
H732 H 0.33281 0.33176 0.24461 0.0
H733 H 0.40743 0.40203 0.09394 0.0
H734 H 0.42844 0.43885 0.11901 0.0
H735 H 0.38218 0.43893 0.11064 0.0
C736 C 0.67366 0.62354 0.56118 0.0
C737 C 0.70823 0.61582 0.57075 0.0
C738 C 0.64713 0.61769 0.58987 0.0
C739 C 0.65561 0.60473 0.6295 0.0
C740 C 0.69053 0.59636 0.63908 0.0
C741 C 0.71647 0.6019 0.6094 0.0
C742 C 0.61021 0.62659 0.57822 0.0
C743 C 0.70061 0.58267 0.68104 0.0
C744 C 0.5945 0.63185 0.71525 0.0
C745 C 0.57451 0.60116 0.72077 0.0
C746 C 0.6214 0.63302 0.68625 0.0
C747 C 0.62837 0.60285 0.66182 0.0
C748 C 0.60862 0.57161 0.66744 0.0
C749 C 0.58202 0.57106 0.69706 0.0
C750 C 0.64205 0.66677 0.68137 0.0
C751 C 0.61515 0.53908 0.6416 0.0
H752 H 0.66755 0.63517 0.53162 0.0
H753 H 0.74331 0.59589 0.61644 0.0
H754 H 0.59275 0.60406 0.58534 0.0
H755 H 0.6012 0.64959 0.59655 0.0
H756 H 0.60763 0.63315 0.54502 0.0
H757 H 0.72848 0.57527 0.68266 0.0
H758 H 0.69543 0.60328 0.70458 0.0
H759 H 0.68468 0.55922 0.68917 0.0
H760 H 0.58915 0.65514 0.73366 0.0
H761 H 0.56665 0.54726 0.70103 0.0
H762 H 0.6384 0.67751 0.64988 0.0
H763 H 0.67014 0.66129 0.68527 0.0
H764 H 0.63427 0.68739 0.70393 0.0
H765 H 0.61034 0.54519 0.60868 0.0
H766 H 0.59832 0.51651 0.65072 0.0
H767 H 0.64268 0.53084 0.64432 0.0
C768 C 0.66296 0.35987 0.06088 0.0
C769 C 0.69857 0.36583 0.06551 0.0
C770 C 0.63988 0.36625 0.09333 0.0
C771 C 0.65294 0.37807 0.13167 0.0
C772 C 0.68897 0.38436 0.13643 0.0
C773 C 0.7114 0.37829 0.10309 0.0
C774 C 0.60162 0.35954 0.08683 0.0
C775 C 0.70385 0.39676 0.17691 0.0
C776 C 0.58727 0.41746 0.20577 0.0
C777 C 0.57875 0.388 0.23011 0.0
C778 C 0.61203 0.41489 0.17419 0.0
C779 C 0.62892 0.38221 0.16713 0.0
C780 C 0.62135 0.35275 0.1925 0.0
C781 C 0.59624 0.35594 0.22353 0.0
C782 C 0.61921 0.44677 0.14746 0.0
C783 C 0.63909 0.31753 0.18613 0.0
H784 H 0.6533 0.34934 0.0321 0.0
H785 H 0.73902 0.38288 0.10636 0.0
H786 H 0.59293 0.33752 0.10694 0.0
H787 H 0.58639 0.38331 0.09548 0.0
H788 H 0.59551 0.35263 0.05438 0.0
H789 H 0.73226 0.40158 0.17509 0.0
H790 H 0.69089 0.42153 0.18683 0.0
H791 H 0.69888 0.37661 0.20104 0.0
H792 H 0.57384 0.44232 0.21053 0.0
H793 H 0.59008 0.33313 0.24241 0.0
H794 H 0.61087 0.44124 0.11541 0.0
H795 H 0.64746 0.45239 0.14658 0.0
H796 H 0.60544 0.4708 0.15849 0.0
H797 H 0.63181 0.30657 0.15565 0.0
H798 H 0.632 0.29794 0.21021 0.0
H799 H 0.66769 0.321 0.18622 0.0
C800 C 0.27454 0.60558 0.60268 0.0
C801 C 0.28478 0.619 0.56444 0.0
C802 C 0.29901 0.59978 0.63399 0.0
C803 C 0.33448 0.60726 0.62643 0.0
C804 C 0.345 0.6196 0.58722 0.0
C805 C 0.3199 0.62583 0.55692 0.0
C806 C 0.28679 0.58681 0.67547 0.0
C807 C 0.38259 0.62746 0.57768 0.0
C808 C 0.39367 0.63355 0.71439 0.0
C809 C 0.4127 0.60241 0.72088 0.0
C810 C 0.36745 0.63508 0.68455 0.0
C811 C 0.36031 0.60486 0.66024 0.0
C812 C 0.37897 0.57314 0.66702 0.0
C813 C 0.40482 0.57222 0.69749 0.0
C814 C 0.34787 0.66931 0.67847 0.0
C815 C 0.37231 0.54055 0.64132 0.0
H816 H 0.24729 0.60029 0.60819 0.0
H817 H 0.3276 0.63713 0.5277 0.0
H818 H 0.30172 0.56305 0.68485 0.0
H819 H 0.29153 0.60753 0.69902 0.0
H820 H 0.2587 0.58015 0.67553 0.0
H821 H 0.38675 0.63366 0.54461 0.0
H822 H 0.39143 0.65038 0.59628 0.0
H823 H 0.39912 0.60455 0.58605 0.0
H824 H 0.39933 0.6569 0.73259 0.0
H825 H 0.41948 0.54809 0.70222 0.0
H826 H 0.31952 0.66454 0.6807 0.0
H827 H 0.35313 0.67991 0.64723 0.0
H828 H 0.35522 0.68975 0.70145 0.0
H829 H 0.34441 0.53335 0.64249 0.0
H830 H 0.38788 0.5175 0.65174 0.0
H831 H 0.37875 0.54609 0.60865 0.0
C832 C 0.82393 0.8334 0.06775 0.0
C833 C 0.79545 0.85557 0.06161 0.0
C834 C 0.84749 0.83998 0.09971 0.0
C835 C 0.84143 0.86862 0.12694 0.0
C836 C 0.81212 0.89068 0.12113 0.0
C837 C 0.78973 0.88418 0.08794 0.0
C838 C 0.87902 0.81657 0.10406 0.0
C839 C 0.80421 0.92077 0.15021 0.0
C840 C 0.88642 0.8607 0.23034 0.0
C841 C 0.91433 0.88407 0.22546 0.0
C842 C 0.86162 0.85656 0.19911 0.0
C843 C 0.8657 0.87522 0.16161 0.0
C844 C 0.8938 0.89903 0.15667 0.0
C845 C 0.91749 0.90364 0.18904 0.0
C846 C 0.83136 0.83183 0.20601 0.0
C847 C 0.89961 0.91853 0.11664 0.0
H848 H 0.82802 0.81143 0.04686 0.0
H849 H 0.76739 0.90101 0.08275 0.0
H850 H 0.90295 0.83293 0.10356 0.0
H851 H 0.87832 0.80261 0.13407 0.0
H852 H 0.88072 0.79652 0.07913 0.0
H853 H 0.77975 0.93466 0.14208 0.0
H854 H 0.80199 0.91058 0.18214 0.0
H855 H 0.82575 0.94025 0.14988 0.0
H856 H 0.884 0.84571 0.25867 0.0
H857 H 0.93938 0.92139 0.1852 0.0
H858 H 0.8333 0.8089 0.18483 0.0
H859 H 0.80659 0.84557 0.19908 0.0
H860 H 0.83035 0.82174 0.23811 0.0
H861 H 0.90349 0.89921 0.09132 0.0
H862 H 0.92255 0.93633 0.11794 0.0
H863 H 0.87644 0.93452 0.10869 0.0
C864 C 0.21024 0.11418 0.59946 0.0
C865 C 0.19754 0.12748 0.5622 0.0
C866 C 0.18763 0.1066 0.63221 0.0
C867 C 0.15152 0.11225 0.62722 0.0
C868 C 0.13853 0.12421 0.5889 0.0
C869 C 0.16178 0.13205 0.55702 0.0
C870 C 0.20246 0.09394 0.67259 0.0
C871 C 0.10022 0.13026 0.5821 0.0
C872 C 0.08559 0.07502 0.70286 0.0
C873 C 0.07773 0.10507 0.72651 0.0
C874 C 0.11024 0.07661 0.671 0.0
C875 C 0.1276 0.1089 0.66292 0.0
C876 C 0.12069 0.13892 0.68764 0.0
C877 C 0.0958 0.13667 0.71898 0.0
C878 C 0.11683 0.04413 0.64509 0.0
C879 C 0.13886 0.17379 0.68021 0.0
H880 H 0.23795 0.1105 0.60312 0.0
H881 H 0.15213 0.14304 0.52846 0.0
H882 H 0.19865 0.11458 0.69646 0.0
H883 H 0.18865 0.06983 0.68317 0.0
H884 H 0.23064 0.088 0.67034 0.0
H885 H 0.09411 0.13611 0.54937 0.0
H886 H 0.08514 0.10666 0.59175 0.0
H887 H 0.0914 0.15285 0.60123 0.0
H888 H 0.07173 0.0505 0.70839 0.0
H889 H 0.09021 0.15994 0.73733 0.0
H890 H 0.14503 0.03831 0.64386 0.0
H891 H 0.10812 0.04904 0.61304 0.0
H892 H 0.10301 0.02046 0.65707 0.0
H893 H 0.16742 0.17 0.68036 0.0
H894 H 0.13208 0.19398 0.70371 0.0
H895 H 0.13167 0.18419 0.64943 0.0
C896 C 0.20026 0.88531 0.093 0.0
C897 C 0.196 0.85669 0.0663 0.0
C898 C 0.17681 0.89101 0.12537 0.0
C899 C 0.14791 0.86813 0.12992 0.0
C900 C 0.14337 0.83943 0.10237 0.0
C901 C 0.16796 0.83366 0.07129 0.0
C902 C 0.18312 0.9212 0.15485 0.0
C903 C 0.11231 0.81518 0.10532 0.0
C904 C 0.10016 0.85952 0.23157 0.0
C905 C 0.07214 0.88253 0.22565 0.0
C906 C 0.12576 0.8556 0.20121 0.0
C907 C 0.1224 0.87408 0.1635 0.0
C908 C 0.09406 0.89735 0.15739 0.0
C909 C 0.06955 0.90179 0.18894 0.0
C910 C 0.15623 0.83148 0.20936 0.0
C911 C 0.08901 0.91661 0.11708 0.0
H912 H 0.22223 0.90284 0.0887 0.0
H913 H 0.16496 0.81174 0.05007 0.0
H914 H 0.16129 0.94026 0.15342 0.0
H915 H 0.18433 0.91103 0.18687 0.0
H916 H 0.20762 0.93558 0.148 0.0
H917 H 0.11196 0.79503 0.08042 0.0
H918 H 0.1123 0.80133 0.13541 0.0
H919 H 0.08803 0.8309 0.1036 0.0
H920 H 0.10215 0.84481 0.26014 0.0
H921 H 0.0476 0.91928 0.18432 0.0
H922 H 0.18093 0.84582 0.20374 0.0
H923 H 0.15551 0.80867 0.1879 0.0
H924 H 0.15634 0.8212 0.2414 0.0
H925 H 0.11188 0.93346 0.1103 0.0
H926 H 0.06546 0.93356 0.11722 0.0
H927 H 0.08672 0.89718 0.09159 0.0
C928 C 0.82845 0.13137 0.55983 0.0
C929 C 0.79296 0.12616 0.56655 0.0
C930 C 0.85276 0.12404 0.5907 0.0
C931 C 0.84111 0.11201 0.6296 0.0
C932 C 0.80526 0.10584 0.63621 0.0
C933 C 0.78156 0.11289 0.60442 0.0
C934 C 0.89076 0.13066 0.58221 0.0
C935 C 0.79184 0.09311 0.67727 0.0
C936 C 0.90936 0.07552 0.70265 0.0
C937 C 0.91742 0.10559 0.72619 0.0
C938 C 0.88402 0.07691 0.67158 0.0
C939 C 0.86616 0.109 0.6642 0.0
C940 C 0.87344 0.1391 0.68865 0.0
C941 C 0.89902 0.13706 0.7192 0.0
C942 C 0.87706 0.04437 0.64589 0.0
C943 C 0.85479 0.17377 0.68188 0.0
H944 H 0.83708 0.1424 0.53082 0.0
H945 H 0.75403 0.10878 0.60928 0.0
H946 H 0.89988 0.1534 0.60091 0.0
H947 H 0.90643 0.10729 0.59121 0.0
H948 H 0.89577 0.13655 0.54923 0.0
H949 H 0.76366 0.08694 0.67637 0.0
H950 H 0.80614 0.06912 0.68719 0.0
H951 H 0.79633 0.11379 0.70093 0.0
H952 H 0.92346 0.0511 0.70776 0.0
H953 H 0.90477 0.16035 0.73745 0.0
H954 H 0.88446 0.04953 0.61343 0.0
H955 H 0.84894 0.03801 0.64614 0.0
H956 H 0.8917 0.02094 0.65702 0.0
H957 H 0.86087 0.18411 0.65074 0.0
H958 H 0.86218 0.19413 0.70494 0.0
H959 H 0.82629 0.16971 0.6834 0.0
loop_
_geom_bond_atom_site_label_1
_geom_bond_atom_site_label_2
_geom_bond_distance
_geom_bond_site_symmetry_2
_ccdc_geom_bond_type
C0 N1 1.317 . S
C0 N2 1.348 1_554 S
C0 C3 1.485 . S
N1 C0 1.317 . S
N1 N5 1.370 1_554 S
N2 C0 1.348 1_556 S
N2 C4 1.346 . S
C3 C0 1.485 . S
C3 H7 0.960 . S
C3 H8 0.961 . S
C3 H9 0.960 . S
C4 N2 1.346 . S
C4 N5 1.307 . S
C4 C6 1.486 . S
N5 N1 1.370 1_556 S
N5 C4 1.307 . S
C6 C4 1.486 . S
C6 H10 0.960 . S
C6 H11 0.960 . S
C6 H12 0.959 . S
H7 C3 0.960 . S
H8 C3 0.961 . S
H9 C3 0.960 . S
H10 C6 0.960 . S
H11 C6 0.960 . S
H12 C6 0.959 . S
C13 N14 1.317 . S
C13 N15 1.348 . S
C13 C16 1.485 . S
N14 C13 1.317 . S
N14 N18 1.370 . S
N15 C13 1.348 . S
N15 C17 1.346 . S
C16 C13 1.485 . S
C16 H20 0.960 . S
C16 H21 0.961 . S
C16 H22 0.960 . S
C17 N15 1.346 . S
C17 N18 1.307 . S
C17 C19 1.486 . S
N18 N14 1.370 . S
N18 C17 1.307 . S
C19 C17 1.486 . S
C19 H23 0.960 . S
C19 H24 0.960 . S
C19 H25 0.959 . S
H20 C16 0.960 . S
H21 C16 0.961 . S
H22 C16 0.960 . S
H23 C19 0.960 . S
H24 C19 0.960 . S
H25 C19 0.959 . S
C26 N27 1.317 . S
C26 N28 1.348 1_554 S
C26 C29 1.485 . S
N27 C26 1.317 . S
N27 N31 1.370 1_554 S
N28 C26 1.348 1_556 S
N28 C30 1.346 . S
C29 C26 1.485 . S
C29 H33 0.960 . S
C29 H34 0.961 . S
C29 H35 0.960 . S
C30 N28 1.346 . S
C30 N31 1.307 . S
C30 C32 1.486 . S
N31 N27 1.370 1_556 S
N31 C30 1.307 . S
C32 C30 1.486 . S
C32 H36 0.960 . S
C32 H37 0.960 . S
C32 H38 0.959 . S
H33 C29 0.960 . S
H34 C29 0.961 . S
H35 C29 0.960 . S
H36 C32 0.960 . S
H37 C32 0.960 . S
H38 C32 0.959 . S
C39 N40 1.317 . S
C39 N41 1.348 . S
C39 C42 1.485 . S
N40 C39 1.317 . S
N40 N44 1.370 . S
N41 C39 1.348 . S
N41 C43 1.346 . S
C42 C39 1.485 . S
C42 H46 0.960 . S
C42 H47 0.961 . S
C42 H48 0.960 . S
C43 N41 1.346 . S
C43 N44 1.307 . S
C43 C45 1.486 . S
N44 N40 1.370 . S
N44 C43 1.307 . S
C45 C43 1.486 . S
C45 H49 0.960 . S
C45 H50 0.960 . S
C45 H51 0.959 . S
H46 C42 0.960 . S
H47 C42 0.961 . S
H48 C42 0.960 . S
H49 C45 0.960 . S
H50 C45 0.960 . S
H51 C45 0.959 . S
C52 N53 1.317 . S
C52 N54 1.348 1_554 S
C52 C55 1.485 . S
N53 C52 1.317 . S
N53 N57 1.370 1_554 S
N54 C52 1.348 1_556 S
N54 C56 1.346 . S
C55 C52 1.485 . S
C55 H59 0.960 . S
C55 H60 0.961 . S
C55 H61 0.960 . S
C56 N54 1.346 . S
C56 N57 1.307 . S
C56 C58 1.486 . S
N57 N53 1.370 1_556 S
N57 C56 1.307 . S
C58 C56 1.486 . S
C58 H62 0.960 . S
C58 H63 0.960 . S
C58 H64 0.959 . S
H59 C55 0.960 . S
H60 C55 0.961 . S
H61 C55 0.960 . S
H62 C58 0.960 . S
H63 C58 0.960 . S
H64 C58 0.959 . S
C65 N66 1.317 . S
C65 N67 1.348 . S
C65 C68 1.485 . S
N66 C65 1.317 . S
N66 N70 1.370 . S
N67 C65 1.348 . S
N67 C69 1.346 . S
C68 C65 1.485 . S
C68 H72 0.960 . S
C68 H73 0.961 . S
C68 H74 0.960 . S
C69 N67 1.346 . S
C69 N70 1.307 . S
C69 C71 1.486 . S
N70 N66 1.370 . S
N70 C69 1.307 . S
C71 C69 1.486 . S
C71 H75 0.960 . S
C71 H76 0.960 . S
C71 H77 0.959 . S
H72 C68 0.960 . S
H73 C68 0.961 . S
H74 C68 0.960 . S
H75 C71 0.960 . S
H76 C71 0.960 . S
H77 C71 0.959 . S
C78 N79 1.317 . S
C78 N80 1.348 1_554 S
C78 C81 1.485 . S
N79 C78 1.317 . S
N79 N83 1.370 1_554 S
N80 C78 1.348 1_556 S
N80 C82 1.346 . S
C81 C78 1.485 . S
C81 H85 0.960 . S
C81 H86 0.961 . S
C81 H87 0.960 . S
C82 N80 1.346 . S
C82 N83 1.307 . S
C82 C84 1.486 . S
N83 N79 1.370 1_556 S
N83 C82 1.307 . S
C84 C82 1.486 . S
C84 H88 0.960 . S
C84 H89 0.960 . S
C84 H90 0.959 . S
H85 C81 0.960 . S
H86 C81 0.961 . S
H87 C81 0.960 . S
H88 C84 0.960 . S
H89 C84 0.960 . S
H90 C84 0.959 . S
C91 N92 1.317 . S
C91 N93 1.348 . S
C91 C94 1.485 . S
N92 C91 1.317 . S
N92 N96 1.370 . S
N93 C91 1.348 . S
N93 C95 1.346 . S
C94 C91 1.485 . S
C94 H98 0.960 . S
C94 H99 0.961 . S
C94 H100 0.960 . S
C95 N93 1.346 . S
C95 N96 1.307 . S
C95 C97 1.486 . S
N96 N92 1.370 . S
N96 C95 1.307 . S
C97 C95 1.486 . S
C97 H101 0.960 . S
C97 H102 0.960 . S
C97 H103 0.959 . S
H98 C94 0.960 . S
H99 C94 0.961 . S
H100 C94 0.960 . S
H101 C97 0.960 . S
H102 C97 0.960 . S
H103 C97 0.959 . S
Sc104 O107 2.025 . S
Sc104 O114 2.104 1_455 S
Sc104 O117 2.105 . S
Sc104 O120 2.105 . S
Sc104 O123 2.104 1_455 S
Sc105 O107 2.025 . S
Sc105 O115 2.104 1_455 S
Sc105 O119 2.105 . S
Sc105 O121 2.105 . S
Sc105 O125 2.104 1_455 S
Sc106 O107 2.025 . S
Sc106 O116 2.104 1_455 S
Sc106 O118 2.105 . S
Sc106 O122 2.105 . S
Sc106 O124 2.104 1_455 S
O107 Sc104 2.025 . S
O107 Sc105 2.025 . S
O107 Sc106 2.025 . S
C108 O114 1.268 . S
C108 O124 1.268 . S
C109 O115 1.268 . S
C109 O123 1.268 . S
C110 O116 1.268 . S
C110 O125 1.268 . S
C111 O117 1.268 . S
C111 O121 1.268 . S
C112 O118 1.268 . S
C112 O120 1.268 . S
C113 O119 1.268 . S
C113 O122 1.268 . S
O114 Sc104 2.104 1_655 S
O114 C108 1.268 . S
O115 Sc105 2.104 1_655 S
O115 C109 1.268 . S
O116 Sc106 2.104 1_655 S
O116 C110 1.268 . S
O117 Sc104 2.105 . S
O117 C111 1.268 . S
O118 Sc106 2.105 . S
O118 C112 1.268 . S
O119 Sc105 2.105 . S
O119 C113 1.268 . S
O120 Sc104 2.105 . S
O120 C112 1.268 . S
O121 Sc105 2.105 . S
O121 C111 1.268 . S
O122 Sc106 2.105 . S
O122 C113 1.268 . S
O123 Sc104 2.104 1_655 S
O123 C109 1.268 . S
O124 Sc106 2.104 1_655 S
O124 C108 1.268 . S
O125 Sc105 2.104 1_655 S
O125 C110 1.268 . S
Sc126 O129 2.025 . S
Sc126 O136 2.105 . S
Sc126 O139 2.104 1_455 S
Sc126 O142 2.104 1_455 S
Sc126 O145 2.105 . S
Sc127 O129 2.025 . S
Sc127 O137 2.105 . S
Sc127 O141 2.104 1_455 S
Sc127 O143 2.104 1_455 S
Sc127 O147 2.105 . S
Sc128 O129 2.025 . S
Sc128 O138 2.105 . S
Sc128 O140 2.104 1_455 S
Sc128 O144 2.104 1_455 S
Sc128 O146 2.105 . S
O129 Sc126 2.025 . S
O129 Sc127 2.025 . S
O129 Sc128 2.025 . S
C130 O136 1.268 . S
C130 O146 1.268 . S
C131 O137 1.268 . S
C131 O145 1.268 . S
C132 O138 1.268 . S
C132 O147 1.268 . S
C133 O139 1.268 . S
C133 O143 1.268 . S
C134 O140 1.268 . S
C134 O142 1.268 . S
C135 O141 1.268 . S
C135 O144 1.268 . S
O136 Sc126 2.105 . S
O136 C130 1.268 . S
O137 Sc127 2.105 . S
O137 C131 1.268 . S
O138 Sc128 2.105 . S
O138 C132 1.268 . S
O139 Sc126 2.104 1_655 S
O139 C133 1.268 . S
O140 Sc128 2.104 1_655 S
O140 C134 1.268 . S
O141 Sc127 2.104 1_655 S
O141 C135 1.268 . S
O142 Sc126 2.104 1_655 S
O142 C134 1.268 . S
O143 Sc127 2.104 1_655 S
O143 C133 1.268 . S
O144 Sc128 2.104 1_655 S
O144 C135 1.268 . S
O145 Sc126 2.105 . S
O145 C131 1.268 . S
O146 Sc128 2.105 . S
O146 C130 1.268 . S
O147 Sc127 2.105 . S
O147 C132 1.268 . S
Sc148 O151 2.025 . S
Sc148 O158 2.105 . S
Sc148 O161 2.105 . S
Sc148 O164 2.105 . S
Sc148 O167 2.105 . S
Sc149 O151 2.025 . S
Sc149 O159 2.105 . S
Sc149 O163 2.105 . S
Sc149 O165 2.105 . S
Sc149 O169 2.105 . S
Sc150 O151 2.025 . S
Sc150 O160 2.105 . S
Sc150 O162 2.105 . S
Sc150 O166 2.105 . S
Sc150 O168 2.105 . S
O151 Sc148 2.025 . S
O151 Sc149 2.025 . S
O151 Sc150 2.025 . S
C152 O158 1.268 . S
C152 O168 1.268 . S
C153 O159 1.268 . S
C153 O167 1.268 . S
C154 O160 1.268 . S
C154 O169 1.268 . S
C155 O161 1.268 . S
C155 O165 1.268 . S
C156 O162 1.268 . S
C156 O164 1.268 . S
C157 O163 1.268 . S
C157 O166 1.268 . S
O158 Sc148 2.105 . S
O158 C152 1.268 . S
O159 Sc149 2.105 . S
O159 C153 1.268 . S
O160 Sc150 2.105 . S
O160 C154 1.268 . S
O161 Sc148 2.105 . S
O161 C155 1.268 . S
O162 Sc150 2.105 . S
O162 C156 1.268 . S
O163 Sc149 2.105 . S
O163 C157 1.268 . S
O164 Sc148 2.105 . S
O164 C156 1.268 . S
O165 Sc149 2.105 . S
O165 C155 1.268 . S
O166 Sc150 2.105 . S
O166 C157 1.268 . S
O167 Sc148 2.105 . S
O167 C153 1.268 . S
O168 Sc150 2.105 . S
O168 C152 1.268 . S
O169 Sc149 2.105 . S
O169 C154 1.268 . S
Sc170 O173 2.025 . S
Sc170 O180 2.105 . S
Sc170 O183 2.105 . S
Sc170 O186 2.105 . S
Sc170 O189 2.105 . S
Sc171 O173 2.025 . S
Sc171 O181 2.105 . S
Sc171 O185 2.105 . S
Sc171 O187 2.105 . S
Sc171 O191 2.105 . S
Sc172 O173 2.025 . S
Sc172 O182 2.105 . S
Sc172 O184 2.105 . S
Sc172 O188 2.105 . S
Sc172 O190 2.105 . S
O173 Sc170 2.025 . S
O173 Sc171 2.025 . S
O173 Sc172 2.025 . S
C174 O180 1.268 . S
C174 O190 1.268 . S
C175 O181 1.268 . S
C175 O189 1.268 . S
C176 O182 1.268 . S
C176 O191 1.268 . S
C177 O183 1.268 . S
C177 O187 1.268 . S
C178 O184 1.268 . S
C178 O186 1.268 . S
C179 O185 1.268 . S
C179 O188 1.268 . S
O180 Sc170 2.105 . S
O180 C174 1.268 . S
O181 Sc171 2.105 . S
O181 C175 1.268 . S
O182 Sc172 2.105 . S
O182 C176 1.268 . S
O183 Sc170 2.105 . S
O183 C177 1.268 . S
O184 Sc172 2.105 . S
O184 C178 1.268 . S
O185 Sc171 2.105 . S
O185 C179 1.268 . S
O186 Sc170 2.105 . S
O186 C178 1.268 . S
O187 Sc171 2.105 . S
O187 C177 1.268 . S
O188 Sc172 2.105 . S
O188 C179 1.268 . S
O189 Sc170 2.105 . S
O189 C175 1.268 . S
O190 Sc172 2.105 . S
O190 C174 1.268 . S
O191 Sc171 2.105 . S
O191 C176 1.268 . S
C192 C193 1.391 . S
C192 C194 1.394 . S
C192 H208 0.931 . S
C193 C192 1.391 . S
C193 C197 1.376 . S
C194 C192 1.394 . S
C194 C195 1.369 . S
C194 C198 1.531 . S
C195 C194 1.369 . S
C195 C196 1.410 . S
C195 C203 1.503 . S
C196 C195 1.410 . S
C196 C197 1.392 . S
C196 C199 1.511 . S
C197 C193 1.376 . S
C197 C196 1.392 . S
C197 H209 0.929 . S
C198 C194 1.531 . S
C198 H210 0.960 . S
C198 H211 0.962 . S
C198 H212 0.960 . S
C199 C196 1.511 . S
C199 H213 0.961 . S
C199 H214 0.961 . S
C199 H215 0.961 . S
C200 C201 1.370 . S
C200 C202 1.363 . S
C200 H216 0.931 . S
C201 C200 1.370 . S
C201 C205 1.408 . S
C202 C200 1.363 . S
C202 C203 1.370 . S
C202 C206 1.524 . S
C203 C195 1.503 . S
C203 C202 1.370 . S
C203 C204 1.403 . S
C204 C203 1.403 . S
C204 C205 1.404 . S
C204 C207 1.539 . S
C205 C201 1.408 . S
C205 C204 1.404 . S
C205 H217 0.930 . S
C206 C202 1.524 . S
C206 H218 0.956 1_556 S
C206 H219 0.961 . S
C206 H220 0.961 1_556 S
C207 C204 1.539 . S
C207 H221 0.958 . S
C207 H222 0.961 . S
C207 H223 0.960 . S
H208 C192 0.931 . S
H209 C197 0.929 . S
H210 C198 0.960 . S
H211 C198 0.962 . S
H212 C198 0.960 . S
H213 C199 0.961 . S
H214 C199 0.961 . S
H215 C199 0.961 . S
H216 C200 0.931 . S
H217 C205 0.930 . S
H218 C206 0.956 1_554 S
H219 C206 0.961 . S
H220 C206 0.961 1_554 S
H221 C207 0.958 . S
H222 C207 0.961 . S
H223 C207 0.960 . S
C224 C225 1.391 . S
C224 C226 1.394 . S
C224 H240 0.931 . S
C225 C224 1.391 . S
C225 C229 1.376 . S
C226 C224 1.394 . S
C226 C227 1.369 . S
C226 C230 1.531 . S
C227 C226 1.369 . S
C227 C228 1.410 . S
C227 C235 1.503 . S
C228 C227 1.410 . S
C228 C229 1.392 . S
C228 C231 1.511 . S
C229 C225 1.376 . S
C229 C228 1.392 . S
C229 H241 0.929 . S
C230 C226 1.531 . S
C230 H242 0.960 . S
C230 H243 0.962 . S
C230 H244 0.960 . S
C231 C228 1.511 . S
C231 H245 0.961 . S
C231 H246 0.961 . S
C231 H247 0.961 . S
C232 C233 1.370 . S
C232 C234 1.363 . S
C232 H248 0.931 . S
C233 C232 1.370 . S
C233 C237 1.408 . S
C234 C232 1.363 . S
C234 C235 1.370 . S
C234 C238 1.524 . S
C235 C227 1.503 . S
C235 C234 1.370 . S
C235 C236 1.403 . S
C236 C235 1.403 . S
C236 C237 1.404 . S
C236 C239 1.539 . S
C237 C233 1.408 . S
C237 C236 1.404 . S
C237 H249 0.930 . S
C238 C234 1.524 . S
C238 H250 0.956 . S
C238 H251 0.961 . S
C238 H252 0.961 . S
C239 C236 1.539 . S
C239 H253 0.958 . S
C239 H254 0.961 . S
C239 H255 0.960 . S
H240 C224 0.931 . S
H241 C229 0.929 . S
H242 C230 0.960 . S
H243 C230 0.962 . S
H244 C230 0.960 . S
H245 C231 0.961 . S
H246 C231 0.961 . S
H247 C231 0.961 . S
H248 C232 0.931 . S
H249 C237 0.930 . S
H250 C238 0.956 . S
H251 C238 0.961 . S
H252 C238 0.961 . S
H253 C239 0.958 . S
H254 C239 0.961 . S
H255 C239 0.960 . S
C256 C257 1.391 1_554 S
C256 C258 1.394 1_554 S
C256 H272 0.931 . S
C257 C256 1.391 1_556 S
C257 C261 1.376 . S
C258 C256 1.394 1_556 S
C258 C259 1.369 . S
C258 C262 1.531 1_556 S
C259 C258 1.369 . S
C259 C260 1.410 . S
C259 C267 1.503 . S
C260 C259 1.410 . S
C260 C261 1.392 . S
C260 C263 1.511 . S
C261 C257 1.376 . S
C261 C260 1.392 . S
C261 H273 0.929 . S
C262 C258 1.531 1_554 S
C262 H274 0.960 . S
C262 H275 0.962 . S
C262 H276 0.960 . S
C263 C260 1.511 . S
C263 H277 0.961 . S
C263 H278 0.961 . S
C263 H279 0.961 . S
C264 C265 1.370 . S
C264 C266 1.363 . S
C264 H280 0.931 . S
C265 C264 1.370 . S
C265 C269 1.408 . S
C266 C264 1.363 . S
C266 C267 1.370 . S
C266 C270 1.524 . S
C267 C259 1.503 . S
C267 C266 1.370 . S
C267 C268 1.403 . S
C268 C267 1.403 . S
C268 C269 1.404 . S
C268 C271 1.539 . S
C269 C265 1.408 . S
C269 C268 1.404 . S
C269 H281 0.930 . S
C270 C266 1.524 . S
C270 H282 0.956 . S
C270 H283 0.961 . S
C270 H284 0.961 . S
C271 C268 1.539 . S
C271 H285 0.958 . S
C271 H286 0.961 . S
C271 H287 0.960 . S
H272 C256 0.931 . S
H273 C261 0.929 . S
H274 C262 0.960 . S
H275 C262 0.962 . S
H276 C262 0.960 . S
H277 C263 0.961 . S
H278 C263 0.961 . S
H279 C263 0.961 . S
H280 C264 0.931 . S
H281 C269 0.930 . S
H282 C270 0.956 . S
H283 C270 0.961 . S
H284 C270 0.961 . S
H285 C271 0.958 . S
H286 C271 0.961 . S
H287 C271 0.960 . S
C288 C289 1.391 . S
C288 C290 1.394 . S
C288 H304 0.931 . S
C289 C288 1.391 . S
C289 C293 1.376 . S
C290 C288 1.394 . S
C290 C291 1.369 . S
C290 C294 1.531 . S
C291 C290 1.369 . S
C291 C292 1.410 . S
C291 C299 1.503 . S
C292 C291 1.410 . S
C292 C293 1.392 . S
C292 C295 1.511 . S
C293 C289 1.376 . S
C293 C292 1.392 . S
C293 H305 0.929 . S
C294 C290 1.531 . S
C294 H306 0.960 . S
C294 H307 0.962 . S
C294 H308 0.960 . S
C295 C292 1.511 . S
C295 H309 0.961 . S
C295 H310 0.961 . S
C295 H311 0.961 . S
C296 C297 1.370 . S
C296 C298 1.363 . S
C296 H312 0.931 . S
C297 C296 1.370 . S
C297 C301 1.408 . S
C298 C296 1.363 . S
C298 C299 1.370 . S
C298 C302 1.524 . S
C299 C291 1.503 . S
C299 C298 1.370 . S
C299 C300 1.403 . S
C300 C299 1.403 . S
C300 C301 1.404 . S
C300 C303 1.539 . S
C301 C297 1.408 . S
C301 C300 1.404 . S
C301 H313 0.930 . S
C302 C298 1.524 . S
C302 H314 0.956 . S
C302 H315 0.961 . S
C302 H316 0.961 . S
C303 C300 1.539 . S
C303 H317 0.958 . S
C303 H318 0.961 . S
C303 H319 0.960 . S
H304 C288 0.931 . S
H305 C293 0.929 . S
H306 C294 0.960 . S
H307 C294 0.962 . S
H308 C294 0.960 . S
H309 C295 0.961 . S
H310 C295 0.961 . S
H311 C295 0.961 . S
H312 C296 0.931 . S
H313 C301 0.930 . S
H314 C302 0.956 . S
H315 C302 0.961 . S
H316 C302 0.961 . S
H317 C303 0.958 . S
H318 C303 0.961 . S
H319 C303 0.960 . S
C320 C321 1.391 . S
C320 C322 1.394 . S
C320 H336 0.931 . S
C321 C320 1.391 . S
C321 C325 1.376 . S
C322 C320 1.394 . S
C322 C323 1.369 . S
C322 C326 1.531 . S
C323 C322 1.369 . S
C323 C324 1.410 . S
C323 C331 1.503 . S
C324 C323 1.410 . S
C324 C325 1.392 . S
C324 C327 1.511 . S
C325 C321 1.376 . S
C325 C324 1.392 . S
C325 H337 0.929 . S
C326 C322 1.531 . S
C326 H338 0.960 . S
C326 H339 0.962 . S
C326 H340 0.960 . S
C327 C324 1.511 . S
C327 H341 0.961 . S
C327 H342 0.961 . S
C327 H343 0.961 . S
C328 C329 1.370 . S
C328 C330 1.363 . S
C328 H344 0.931 . S
C329 C328 1.370 . S
C329 C333 1.408 . S
C330 C328 1.363 . S
C330 C331 1.370 . S
C330 C334 1.524 . S
C331 C323 1.503 . S
C331 C330 1.370 . S
C331 C332 1.403 . S
C332 C331 1.403 . S
C332 C333 1.404 . S
C332 C335 1.539 . S
C333 C329 1.408 . S
C333 C332 1.404 . S
C333 H345 0.930 . S
C334 C330 1.524 . S
C334 H346 0.956 1_556 S
C334 H347 0.961 . S
C334 H348 0.961 1_556 S
C335 C332 1.539 . S
C335 H349 0.958 . S
C335 H350 0.961 . S
C335 H351 0.960 . S
H336 C320 0.931 . S
H337 C325 0.929 . S
H338 C326 0.960 . S
H339 C326 0.962 . S
H340 C326 0.960 . S
H341 C327 0.961 . S
H342 C327 0.961 . S
H343 C327 0.961 . S
H344 C328 0.931 . S
H345 C333 0.930 . S
H346 C334 0.956 1_554 S
H347 C334 0.961 . S
H348 C334 0.961 1_554 S
H349 C335 0.958 . S
H350 C335 0.961 . S
H351 C335 0.960 . S
C352 C353 1.391 . S
C352 C354 1.394 . S
C352 H368 0.931 . S
C353 C352 1.391 . S
C353 C357 1.376 . S
C354 C352 1.394 . S
C354 C355 1.369 . S
C354 C358 1.531 . S
C355 C354 1.369 . S
C355 C356 1.410 . S
C355 C363 1.503 . S
C356 C355 1.410 . S
C356 C357 1.392 . S
C356 C359 1.511 . S
C357 C353 1.376 . S
C357 C356 1.392 . S
C357 H369 0.929 . S
C358 C354 1.531 . S
C358 H370 0.960 . S
C358 H371 0.962 . S
C358 H372 0.960 . S
C359 C356 1.511 . S
C359 H373 0.961 . S
C359 H374 0.961 . S
C359 H375 0.961 . S
C360 C361 1.370 . S
C360 C362 1.363 . S
C360 H376 0.931 . S
C361 C360 1.370 . S
C361 C365 1.408 . S
C362 C360 1.363 . S
C362 C363 1.370 . S
C362 C366 1.524 . S
C363 C355 1.503 . S
C363 C362 1.370 . S
C363 C364 1.403 . S
C364 C363 1.403 . S
C364 C365 1.404 . S
C364 C367 1.539 . S
C365 C361 1.408 . S
C365 C364 1.404 . S
C365 H377 0.930 . S
C366 C362 1.524 . S
C366 H378 0.956 . S
C366 H379 0.961 . S
C366 H380 0.961 . S
C367 C364 1.539 . S
C367 H381 0.958 . S
C367 H382 0.961 . S
C367 H383 0.960 . S
H368 C352 0.931 . S
H369 C357 0.929 . S
H370 C358 0.960 . S
H371 C358 0.962 . S
H372 C358 0.960 . S
H373 C359 0.961 . S
H374 C359 0.961 . S
H375 C359 0.961 . S
H376 C360 0.931 . S
H377 C365 0.930 . S
H378 C366 0.956 . S
H379 C366 0.961 . S
H380 C366 0.961 . S
H381 C367 0.958 . S
H382 C367 0.961 . S
H383 C367 0.960 . S
C384 C385 1.391 . S
C384 C386 1.394 . S
C384 H400 0.931 1_556 S
C385 C384 1.391 . S
C385 C389 1.376 . S
C386 C384 1.394 . S
C386 C387 1.369 . S
C386 C390 1.531 1_556 S
C387 C386 1.369 . S
C387 C388 1.410 . S
C387 C395 1.503 . S
C388 C387 1.410 . S
C388 C389 1.392 . S
C388 C391 1.511 . S
C389 C385 1.376 . S
C389 C388 1.392 . S
C389 H401 0.929 . S
C390 C386 1.531 1_554 S
C390 H402 0.960 1_554 S
C390 H403 0.962 . S
C390 H404 0.960 . S
C391 C388 1.511 . S
C391 H405 0.961 . S
C391 H406 0.961 . S
C391 H407 0.961 . S
C392 C393 1.370 . S
C392 C394 1.363 . S
C392 H408 0.931 . S
C393 C392 1.370 . S
C393 C397 1.408 . S
C394 C392 1.363 . S
C394 C395 1.370 . S
C394 C398 1.524 . S
C395 C387 1.503 . S
C395 C394 1.370 . S
C395 C396 1.403 . S
C396 C395 1.403 . S
C396 C397 1.404 . S
C396 C399 1.539 . S
C397 C393 1.408 . S
C397 C396 1.404 . S
C397 H409 0.930 . S
C398 C394 1.524 . S
C398 H410 0.956 . S
C398 H411 0.961 . S
C398 H412 0.961 . S
C399 C396 1.539 . S
C399 H413 0.958 . S
C399 H414 0.961 . S
C399 H415 0.960 . S
H400 C384 0.931 1_554 S
H401 C389 0.929 . S
H402 C390 0.960 1_556 S
H403 C390 0.962 . S
H404 C390 0.960 . S
H405 C391 0.961 . S
H406 C391 0.961 . S
H407 C391 0.961 . S
H408 C392 0.931 . S
H409 C397 0.930 . S
H410 C398 0.956 . S
H411 C398 0.961 . S
H412 C398 0.961 . S
H413 C399 0.958 . S
H414 C399 0.961 . S
H415 C399 0.960 . S
C416 C417 1.391 . S
C416 C418 1.394 . S
C416 H432 0.931 . S
C417 C416 1.391 . S
C417 C421 1.376 . S
C418 C416 1.394 . S
C418 C419 1.369 . S
C418 C422 1.531 . S
C419 C418 1.369 . S
C419 C420 1.410 . S
C419 C427 1.503 . S
C420 C419 1.410 . S
C420 C421 1.392 . S
C420 C423 1.511 . S
C421 C417 1.376 . S
C421 C420 1.392 . S
C421 H433 0.929 . S
C422 C418 1.531 . S
C422 H434 0.960 . S
C422 H435 0.962 . S
C422 H436 0.960 . S
C423 C420 1.511 . S
C423 H437 0.961 . S
C423 H438 0.961 . S
C423 H439 0.961 . S
C424 C425 1.370 . S
C424 C426 1.363 . S
C424 H440 0.931 . S
C425 C424 1.370 . S
C425 C429 1.408 . S
C426 C424 1.363 . S
C426 C427 1.370 . S
C426 C430 1.524 . S
C427 C419 1.503 . S
C427 C426 1.370 . S
C427 C428 1.403 . S
C428 C427 1.403 . S
C428 C429 1.404 . S
C428 C431 1.539 . S
C429 C425 1.408 . S
C429 C428 1.404 . S
C429 H441 0.930 . S
C430 C426 1.524 . S
C430 H442 0.956 . S
C430 H443 0.961 . S
C430 H444 0.961 . S
C431 C428 1.539 . S
C431 H445 0.958 . S
C431 H446 0.961 . S
C431 H447 0.960 . S
H432 C416 0.931 . S
H433 C421 0.929 . S
H434 C422 0.960 . S
H435 C422 0.962 . S
H436 C422 0.960 . S
H437 C423 0.961 . S
H438 C423 0.961 . S
H439 C423 0.961 . S
H440 C424 0.931 . S
H441 C429 0.930 . S
H442 C430 0.956 . S
H443 C430 0.961 . S
H444 C430 0.961 . S
H445 C431 0.958 . S
H446 C431 0.961 . S
H447 C431 0.960 . S
C448 C449 1.391 . S
C448 C450 1.394 . S
C448 H464 0.931 . S
C449 C448 1.391 . S
C449 C453 1.376 . S
C450 C448 1.394 . S
C450 C451 1.369 . S
C450 C454 1.531 . S
C451 C450 1.369 . S
C451 C452 1.410 . S
C451 C459 1.503 . S
C452 C451 1.410 . S
C452 C453 1.392 . S
C452 C455 1.511 . S
C453 C449 1.376 . S
C453 C452 1.392 . S
C453 H465 0.929 . S
C454 C450 1.531 . S
C454 H466 0.960 . S
C454 H467 0.962 . S
C454 H468 0.960 . S
C455 C452 1.511 . S
C455 H469 0.961 . S
C455 H470 0.961 . S
C455 H471 0.961 . S
C456 C457 1.370 . S
C456 C458 1.363 . S
C456 H472 0.931 . S
C457 C456 1.370 . S
C457 C461 1.408 . S
C458 C456 1.363 . S
C458 C459 1.370 . S
C458 C462 1.524 . S
C459 C451 1.503 . S
C459 C458 1.370 . S
C459 C460 1.403 . S
C460 C459 1.403 . S
C460 C461 1.404 . S
C460 C463 1.539 1_556 S
C461 C457 1.408 . S
C461 C460 1.404 . S
C461 H473 0.930 . S
C462 C458 1.524 . S
C462 H474 0.956 . S
C462 H475 0.961 . S
C462 H476 0.961 . S
C463 C460 1.539 1_554 S
C463 H477 0.958 . S
C463 H478 0.961 . S
C463 H479 0.960 . S
H464 C448 0.931 . S
H465 C453 0.929 . S
H466 C454 0.960 . S
H467 C454 0.962 . S
H468 C454 0.960 . S
H469 C455 0.961 . S
H470 C455 0.961 . S
H471 C455 0.961 . S
H472 C456 0.931 . S
H473 C461 0.930 . S
H474 C462 0.956 . S
H475 C462 0.961 . S
H476 C462 0.961 . S
H477 C463 0.958 . S
H478 C463 0.961 . S
H479 C463 0.960 . S
C480 C481 1.391 . S
C480 C482 1.394 . S
C480 H496 0.931 . S
C481 C480 1.391 . S
C481 C485 1.376 . S
C482 C480 1.394 . S
C482 C483 1.369 . S
C482 C486 1.531 . S
C483 C482 1.369 . S
C483 C484 1.410 . S
C483 C491 1.503 . S
C484 C483 1.410 . S
C484 C485 1.392 . S
C484 C487 1.511 . S
C485 C481 1.376 . S
C485 C484 1.392 . S
C485 H497 0.929 . S
C486 C482 1.531 . S
C486 H498 0.960 . S
C486 H499 0.962 . S
C486 H500 0.960 . S
C487 C484 1.511 . S
C487 H501 0.961 . S
C487 H502 0.961 . S
C487 H503 0.961 . S
C488 C489 1.370 . S
C488 C490 1.363 . S
C488 H504 0.931 . S
C489 C488 1.370 . S
C489 C493 1.408 . S
C490 C488 1.363 . S
C490 C491 1.370 . S
C490 C494 1.524 . S
C491 C483 1.503 . S
C491 C490 1.370 . S
C491 C492 1.403 . S
C492 C491 1.403 . S
C492 C493 1.404 . S
C492 C495 1.539 . S
C493 C489 1.408 . S
C493 C492 1.404 . S
C493 H505 0.930 . S
C494 C490 1.524 . S
C494 H506 0.956 . S
C494 H507 0.961 . S
C494 H508 0.961 . S
C495 C492 1.539 . S
C495 H509 0.958 . S
C495 H510 0.961 . S
C495 H511 0.960 . S
H496 C480 0.931 . S
H497 C485 0.929 . S
H498 C486 0.960 . S
H499 C486 0.962 . S
H500 C486 0.960 . S
H501 C487 0.961 . S
H502 C487 0.961 . S
H503 C487 0.961 . S
H504 C488 0.931 . S
H505 C493 0.930 . S
H506 C494 0.956 . S
H507 C494 0.961 . S
H508 C494 0.961 . S
H509 C495 0.958 . S
H510 C495 0.961 . S
H511 C495 0.960 . S
C512 C513 1.391 . S
C512 C514 1.394 . S
C512 H528 0.931 . S
C513 C512 1.391 . S
C513 C517 1.376 . S
C514 C512 1.394 . S
C514 C515 1.369 . S
C514 C518 1.531 . S
C515 C514 1.369 . S
C515 C516 1.410 . S
C515 C523 1.503 . S
C516 C515 1.410 . S
C516 C517 1.392 . S
C516 C519 1.511 . S
C517 C513 1.376 . S
C517 C516 1.392 . S
C517 H529 0.929 . S
C518 C514 1.531 . S
C518 H530 0.960 . S
C518 H531 0.962 . S
C518 H532 0.960 . S
C519 C516 1.511 . S
C519 H533 0.961 . S
C519 H534 0.961 . S
C519 H535 0.961 . S
C520 C521 1.370 . S
C520 C522 1.363 . S
C520 H536 0.931 . S
C521 C520 1.370 . S
C521 C525 1.408 . S
C522 C520 1.363 . S
C522 C523 1.370 . S
C522 C526 1.524 . S
C523 C515 1.503 . S
C523 C522 1.370 . S
C523 C524 1.403 . S
C524 C523 1.403 . S
C524 C525 1.404 . S
C524 C527 1.539 1_556 S
C525 C521 1.408 . S
C525 C524 1.404 . S
C525 H537 0.930 . S
C526 C522 1.524 . S
C526 H538 0.956 . S
C526 H539 0.961 . S
C526 H540 0.961 . S
C527 C524 1.539 1_554 S
C527 H541 0.958 . S
C527 H542 0.961 . S
C527 H543 0.960 . S
H528 C512 0.931 . S
H529 C517 0.929 . S
H530 C518 0.960 . S
H531 C518 0.962 . S
H532 C518 0.960 . S
H533 C519 0.961 . S
H534 C519 0.961 . S
H535 C519 0.961 . S
H536 C520 0.931 . S
H537 C525 0.930 . S
H538 C526 0.956 . S
H539 C526 0.961 . S
H540 C526 0.961 . S
H541 C527 0.958 . S
H542 C527 0.961 . S
H543 C527 0.960 . S
C544 C545 1.391 . S
C544 C546 1.394 . S
C544 H560 0.931 . S
C545 C544 1.391 . S
C545 C549 1.376 . S
C546 C544 1.394 . S
C546 C547 1.369 . S
C546 C550 1.531 . S
C547 C546 1.369 . S
C547 C548 1.410 . S
C547 C555 1.503 . S
C548 C547 1.410 . S
C548 C549 1.392 . S
C548 C551 1.511 . S
C549 C545 1.376 . S
C549 C548 1.392 . S
C549 H561 0.929 . S
C550 C546 1.531 . S
C550 H562 0.960 . S
C550 H563 0.962 . S
C550 H564 0.960 . S
C551 C548 1.511 . S
C551 H565 0.961 . S
C551 H566 0.961 . S
C551 H567 0.961 . S
C552 C553 1.370 . S
C552 C554 1.363 . S
C552 H568 0.931 . S
C553 C552 1.370 . S
C553 C557 1.408 . S
C554 C552 1.363 . S
C554 C555 1.370 . S
C554 C558 1.524 . S
C555 C547 1.503 . S
C555 C554 1.370 . S
C555 C556 1.403 . S
C556 C555 1.403 . S
C556 C557 1.404 . S
C556 C559 1.539 . S
C557 C553 1.408 . S
C557 C556 1.404 . S
C557 H569 0.930 . S
C558 C554 1.524 . S
C558 H570 0.956 . S
C558 H571 0.961 . S
C558 H572 0.961 . S
C559 C556 1.539 . S
C559 H573 0.958 . S
C559 H574 0.961 . S
C559 H575 0.960 . S
H560 C544 0.931 . S
H561 C549 0.929 . S
H562 C550 0.960 . S
H563 C550 0.962 . S
H564 C550 0.960 . S
H565 C551 0.961 . S
H566 C551 0.961 . S
H567 C551 0.961 . S
H568 C552 0.931 . S
H569 C557 0.930 . S
H570 C558 0.956 . S
H571 C558 0.961 . S
H572 C558 0.961 . S
H573 C559 0.958 . S
H574 C559 0.961 . S
H575 C559 0.960 . S
C576 C577 1.391 . S
C576 C578 1.394 . S
C576 H592 0.931 . S
C577 C576 1.391 . S
C577 C581 1.376 . S
C578 C576 1.394 . S
C578 C579 1.369 . S
C578 C582 1.531 1_565 S
C579 C578 1.369 . S
C579 C580 1.410 . S
C579 C587 1.503 1_565 S
C580 C579 1.410 . S
C580 C581 1.392 . S
C580 C583 1.511 . S
C581 C577 1.376 . S
C581 C580 1.392 . S
C581 H593 0.929 1_556 S
C582 C578 1.531 1_545 S
C582 H594 0.960 . S
C582 H595 0.962 . S
C582 H596 0.960 . S
C583 C580 1.511 . S
C583 H597 0.961 . S
C583 H598 0.961 . S
C583 H599 0.961 1_556 S
C584 C585 1.370 . S
C584 C586 1.363 1_545 S
C584 H600 0.931 . S
C585 C584 1.370 . S
C585 C589 1.408 . S
C586 C584 1.363 1_565 S
C586 C587 1.370 1_565 S
C586 C590 1.524 . S
C587 C579 1.503 1_545 S
C587 C586 1.370 1_545 S
C587 C588 1.403 . S
C588 C587 1.403 . S
C588 C589 1.404 . S
C588 C591 1.539 1_556 S
C589 C585 1.408 . S
C589 C588 1.404 . S
C589 H601 0.930 . S
C590 C586 1.524 . S
C590 H602 0.956 . S
C590 H603 0.961 . S
C590 H604 0.961 . S
C591 C588 1.539 1_554 S
C591 H605 0.958 . S
C591 H606 0.961 . S
C591 H607 0.960 . S
H592 C576 0.931 . S
H593 C581 0.929 1_554 S
H594 C582 0.960 . S
H595 C582 0.962 . S
H596 C582 0.960 . S
H597 C583 0.961 . S
H598 C583 0.961 . S
H599 C583 0.961 1_554 S
H600 C584 0.931 . S
H601 C589 0.930 . S
H602 C590 0.956 . S
H603 C590 0.961 . S
H604 C590 0.961 . S
H605 C591 0.958 . S
H606 C591 0.961 . S
H607 C591 0.960 . S
C608 C609 1.391 . S
C608 C610 1.394 . S
C608 H624 0.931 . S
C609 C608 1.391 . S
C609 C613 1.376 . S
C610 C608 1.394 . S
C610 C611 1.369 . S
C610 C614 1.531 1_545 S
C611 C610 1.369 . S
C611 C612 1.410 . S
C611 C619 1.503 1_545 S
C612 C611 1.410 . S
C612 C613 1.392 . S
C612 C615 1.511 . S
C613 C609 1.376 . S
C613 C612 1.392 . S
C613 H625 0.929 . S
C614 C610 1.531 1_565 S
C614 H626 0.960 . S
C614 H627 0.962 . S
C614 H628 0.960 . S
C615 C612 1.511 . S
C615 H629 0.961 . S
C615 H630 0.961 . S
C615 H631 0.961 . S
C616 C617 1.370 . S
C616 C618 1.363 . S
C616 H632 0.931 . S
C617 C616 1.370 . S
C617 C621 1.408 . S
C618 C616 1.363 . S
C618 C619 1.370 . S
C618 C622 1.524 1_565 S
C619 C611 1.503 1_565 S
C619 C618 1.370 . S
C619 C620 1.403 . S
C620 C619 1.403 . S
C620 C621 1.404 . S
C620 C623 1.539 . S
C621 C617 1.408 . S
C621 C620 1.404 . S
C621 H633 0.930 . S
C622 C618 1.524 1_545 S
C622 H634 0.956 1_545 S
C622 H635 0.961 . S
C622 H636 0.969 . S
C623 C620 1.539 . S
C623 H637 0.958 . S
C623 H638 0.961 . S
C623 H639 0.960 1_565 S
H624 C608 0.931 . S
H625 C613 0.929 . S
H626 C614 0.960 . S
H627 C614 0.962 . S
H628 C614 0.960 . S
H629 C615 0.961 . S
H630 C615 0.961 . S
H631 C615 0.961 . S
H632 C616 0.931 . S
H633 C621 0.930 . S
H634 C622 0.956 1_565 S
H635 C622 0.961 . S
H636 C622 0.969 . S
H637 C623 0.958 . S
H638 C623 0.961 . S
H639 C623 0.960 1_545 S
C640 C641 1.391 . S
C640 C642 1.394 . S
C640 H656 0.931 . S
C641 C640 1.391 . S
C641 C645 1.376 . S
C642 C640 1.394 . S
C642 C643 1.369 . S
C642 C646 1.529 1_565 S
C643 C642 1.369 . S
C643 C644 1.410 . S
C643 C651 1.503 . S
C644 C643 1.410 . S
C644 C645 1.392 . S
C644 C647 1.511 . S
C645 C641 1.376 . S
C645 C644 1.392 . S
C645 H657 0.929 1_556 S
C646 C642 1.529 1_545 S
C646 H658 0.960 . S
C646 H659 0.963 . S
C646 H660 0.960 1_545 S
C647 C644 1.511 . S
C647 H661 0.961 1_556 S
C647 H662 0.961 . S
C647 H663 0.961 . S
C648 C649 1.370 . S
C648 C650 1.363 . S
C648 H664 0.931 . S
C649 C648 1.370 . S
C649 C653 1.408 . S
C650 C648 1.363 . S
C650 C651 1.370 1_545 S
C650 C654 1.524 . S
C651 C643 1.503 . S
C651 C650 1.370 1_565 S
C651 C652 1.403 . S
C652 C651 1.403 . S
C652 C653 1.404 1_565 S
C652 C655 1.539 . S
C653 C649 1.408 . S
C653 C652 1.404 1_545 S
C653 H665 0.930 . S
C654 C650 1.524 . S
C654 H666 0.956 . S
C654 H667 0.961 1_556 S
C654 H668 0.961 . S
C655 C652 1.539 . S
C655 H669 0.958 . S
C655 H670 0.961 . S
C655 H671 0.960 . S
H656 C640 0.931 . S
H657 C645 0.929 1_554 S
H658 C646 0.960 . S
H659 C646 0.963 . S
H660 C646 0.960 1_565 S
H661 C647 0.961 1_554 S
H662 C647 0.961 . S
H663 C647 0.961 . S
H664 C648 0.931 . S
H665 C653 0.930 . S
H666 C654 0.956 . S
H667 C654 0.961 1_554 S
H668 C654 0.961 . S
H669 C655 0.958 . S
H670 C655 0.961 . S
H671 C655 0.960 . S
C672 C673 1.391 . S
C672 C674 1.394 . S
C672 H688 0.931 . S
C673 C672 1.391 . S
C673 C677 1.376 . S
C674 C672 1.394 . S
C674 C675 1.369 . S
C674 C678 1.531 1_545 S
C675 C674 1.369 . S
C675 C676 1.410 . S
C675 C683 1.503 1_545 S
C676 C675 1.410 . S
C676 C677 1.392 . S
C676 C679 1.511 . S
C677 C673 1.376 . S
C677 C676 1.392 . S
C677 H689 0.929 . S
C678 C674 1.531 1_565 S
C678 H690 0.960 . S
C678 H691 0.962 . S
C678 H692 0.960 . S
C679 C676 1.511 . S
C679 H693 0.961 . S
C679 H694 0.961 . S
C679 H695 0.961 . S
C680 C681 1.370 . S
C680 C682 1.363 1_565 S
C680 H696 0.931 . S
C681 C680 1.370 . S
C681 C685 1.408 . S
C682 C680 1.363 1_545 S
C682 C683 1.370 1_545 S
C682 C686 1.524 . S
C683 C675 1.503 1_565 S
C683 C682 1.370 1_565 S
C683 C684 1.403 . S
C684 C683 1.403 . S
C684 C685 1.404 . S
C684 C687 1.539 . S
C685 C681 1.408 . S
C685 C684 1.404 . S
C685 H697 0.930 . S
C686 C682 1.524 . S
C686 H698 0.956 . S
C686 H699 0.961 . S
C686 H700 0.961 . S
C687 C684 1.539 . S
C687 H701 0.958 . S
C687 H702 0.961 . S
C687 H703 0.960 . S
H688 C672 0.931 . S
H689 C677 0.929 . S
H690 C678 0.960 . S
H691 C678 0.962 . S
H692 C678 0.960 . S
H693 C679 0.961 . S
H694 C679 0.961 . S
H695 C679 0.961 . S
H696 C680 0.931 . S
H697 C685 0.930 . S
H698 C686 0.956 . S
H699 C686 0.961 . S
H700 C686 0.961 . S
H701 C687 0.958 . S
H702 C687 0.961 . S
H703 C687 0.960 . S
C704 C705 1.391 . S
C704 C706 1.394 . S
C704 H720 0.931 . S
C705 C704 1.391 . S
C705 C709 1.376 . S
C706 C704 1.394 . S
C706 C707 1.369 . S
C706 C710 1.531 . S
C707 C706 1.369 . S
C707 C708 1.410 . S
C707 C715 1.503 . S
C708 C707 1.410 . S
C708 C709 1.392 . S
C708 C711 1.511 . S
C709 C705 1.376 . S
C709 C708 1.392 . S
C709 H721 0.929 . S
C710 C706 1.531 . S
C710 H722 0.960 . S
C710 H723 0.962 . S
C710 H724 0.960 . S
C711 C708 1.511 . S
C711 H725 0.961 . S
C711 H726 0.961 . S
C711 H727 0.961 . S
C712 C713 1.370 . S
C712 C714 1.363 . S
C712 H728 0.931 . S
C713 C712 1.370 . S
C713 C717 1.408 . S
C714 C712 1.363 . S
C714 C715 1.370 . S
C714 C718 1.524 . S
C715 C707 1.503 . S
C715 C714 1.370 . S
C715 C716 1.403 . S
C716 C715 1.403 . S
C716 C717 1.404 . S
C716 C719 1.539 . S
C717 C713 1.408 . S
C717 C716 1.404 . S
C717 H729 0.930 . S
C718 C714 1.524 . S
C718 H730 0.956 . S
C718 H731 0.961 . S
C718 H732 0.961 . S
C719 C716 1.539 . S
C719 H733 0.958 . S
C719 H734 0.961 . S
C719 H735 0.960 . S
H720 C704 0.931 . S
H721 C709 0.929 . S
H722 C710 0.960 . S
H723 C710 0.962 . S
H724 C710 0.960 . S
H725 C711 0.961 . S
H726 C711 0.961 . S
H727 C711 0.961 . S
H728 C712 0.931 . S
H729 C717 0.930 . S
H730 C718 0.956 . S
H731 C718 0.961 . S
H732 C718 0.961 . S
H733 C719 0.958 . S
H734 C719 0.961 . S
H735 C719 0.960 . S
C736 C737 1.391 . S
C736 C738 1.394 . S
C736 H752 0.931 . S
C737 C736 1.391 . S
C737 C741 1.376 . S
C738 C736 1.394 . S
C738 C739 1.369 . S
C738 C742 1.531 . S
C739 C738 1.369 . S
C739 C740 1.410 . S
C739 C747 1.503 . S
C740 C739 1.410 . S
C740 C741 1.392 . S
C740 C743 1.511 . S
C741 C737 1.376 . S
C741 C740 1.392 . S
C741 H753 0.929 . S
C742 C738 1.531 . S
C742 H754 0.960 . S
C742 H755 0.962 . S
C742 H756 0.960 . S
C743 C740 1.511 . S
C743 H757 0.961 . S
C743 H758 0.961 . S
C743 H759 0.961 . S
C744 C745 1.370 . S
C744 C746 1.363 . S
C744 H760 0.931 . S
C745 C744 1.370 . S
C745 C749 1.408 . S
C746 C744 1.363 . S
C746 C747 1.370 . S
C746 C750 1.524 . S
C747 C739 1.503 . S
C747 C746 1.370 . S
C747 C748 1.403 . S
C748 C747 1.403 . S
C748 C749 1.404 . S
C748 C751 1.539 . S
C749 C745 1.408 . S
C749 C748 1.404 . S
C749 H761 0.930 . S
C750 C746 1.524 . S
C750 H762 0.956 . S
C750 H763 0.961 . S
C750 H764 0.961 . S
C751 C748 1.539 . S
C751 H765 0.958 . S
C751 H766 0.961 . S
C751 H767 0.960 . S
H752 C736 0.931 . S
H753 C741 0.929 . S
H754 C742 0.960 . S
H755 C742 0.962 . S
H756 C742 0.960 . S
H757 C743 0.961 . S
H758 C743 0.961 . S
H759 C743 0.961 . S
H760 C744 0.931 . S
H761 C749 0.930 . S
H762 C750 0.956 . S
H763 C750 0.961 . S
H764 C750 0.961 . S
H765 C751 0.958 . S
H766 C751 0.961 . S
H767 C751 0.960 . S
C768 C769 1.391 . S
C768 C770 1.394 . S
C768 H784 0.931 . S
C769 C768 1.391 . S
C769 C773 1.376 . S
C770 C768 1.394 . S
C770 C771 1.369 . S
C770 C774 1.531 . S
C771 C770 1.369 . S
C771 C772 1.410 . S
C771 C779 1.503 . S
C772 C771 1.410 . S
C772 C773 1.392 . S
C772 C775 1.511 . S
C773 C769 1.376 . S
C773 C772 1.392 . S
C773 H785 0.929 . S
C774 C770 1.531 . S
C774 H786 0.960 . S
C774 H787 0.962 . S
C774 H788 0.960 . S
C775 C772 1.511 . S
C775 H789 0.961 . S
C775 H790 0.961 . S
C775 H791 0.961 . S
C776 C777 1.370 . S
C776 C778 1.363 . S
C776 H792 0.931 . S
C777 C776 1.370 . S
C777 C781 1.408 . S
C778 C776 1.363 . S
C778 C779 1.370 . S
C778 C782 1.524 . S
C779 C771 1.503 . S
C779 C778 1.370 . S
C779 C780 1.403 . S
C780 C779 1.403 . S
C780 C781 1.404 . S
C780 C783 1.539 . S
C781 C777 1.408 . S
C781 C780 1.404 . S
C781 H793 0.930 . S
C782 C778 1.524 . S
C782 H794 0.956 . S
C782 H795 0.961 . S
C782 H796 0.961 . S
C783 C780 1.539 . S
C783 H797 0.958 . S
C783 H798 0.961 . S
C783 H799 0.960 . S
H784 C768 0.931 . S
H785 C773 0.929 . S
H786 C774 0.960 . S
H787 C774 0.962 . S
H788 C774 0.960 . S
H789 C775 0.961 . S
H790 C775 0.961 . S
H791 C775 0.961 . S
H792 C776 0.931 . S
H793 C781 0.930 . S
H794 C782 0.956 . S
H795 C782 0.961 . S
H796 C782 0.961 . S
H797 C783 0.958 . S
H798 C783 0.961 . S
H799 C783 0.960 . S
C800 C801 1.391 . S
C800 C802 1.394 . S
C800 H816 0.931 . S
C801 C800 1.391 . S
C801 C805 1.376 . S
C802 C800 1.394 . S
C802 C803 1.369 . S
C802 C806 1.531 . S
C803 C802 1.369 . S
C803 C804 1.410 . S
C803 C811 1.503 . S
C804 C803 1.410 . S
C804 C805 1.392 . S
C804 C807 1.511 . S
C805 C801 1.376 . S
C805 C804 1.392 . S
C805 H817 0.929 . S
C806 C802 1.531 . S
C806 H818 0.960 . S
C806 H819 0.962 . S
C806 H820 0.960 . S
C807 C804 1.511 . S
C807 H821 0.961 . S
C807 H822 0.961 . S
C807 H823 0.961 . S
C808 C809 1.370 . S
C808 C810 1.363 . S
C808 H824 0.931 . S
C809 C808 1.370 . S
C809 C813 1.408 . S
C810 C808 1.363 . S
C810 C811 1.370 . S
C810 C814 1.524 . S
C811 C803 1.503 . S
C811 C810 1.370 . S
C811 C812 1.403 . S
C812 C811 1.403 . S
C812 C813 1.404 . S
C812 C815 1.539 . S
C813 C809 1.408 . S
C813 C812 1.404 . S
C813 H825 0.930 . S
C814 C810 1.524 . S
C814 H826 0.956 . S
C814 H827 0.961 . S
C814 H828 0.961 . S
C815 C812 1.539 . S
C815 H829 0.958 . S
C815 H830 0.961 . S
C815 H831 0.960 . S
H816 C800 0.931 . S
H817 C805 0.929 . S
H818 C806 0.960 . S
H819 C806 0.962 . S
H820 C806 0.960 . S
H821 C807 0.961 . S
H822 C807 0.961 . S
H823 C807 0.961 . S
H824 C808 0.931 . S
H825 C813 0.930 . S
H826 C814 0.956 . S
H827 C814 0.961 . S
H828 C814 0.961 . S
H829 C815 0.958 . S
H830 C815 0.961 . S
H831 C815 0.960 . S
C832 C833 1.391 . S
C832 C834 1.394 . S
C832 H848 0.931 . S
C833 C832 1.391 . S
C833 C837 1.376 . S
C834 C832 1.394 . S
C834 C835 1.369 . S
C834 C838 1.531 . S
C835 C834 1.369 . S
C835 C836 1.410 . S
C835 C843 1.503 . S
C836 C835 1.410 . S
C836 C837 1.392 . S
C836 C839 1.511 . S
C837 C833 1.376 . S
C837 C836 1.392 . S
C837 H849 0.929 . S
C838 C834 1.531 . S
C838 H850 0.960 . S
C838 H851 0.962 . S
C838 H852 0.960 . S
C839 C836 1.511 . S
C839 H853 0.961 . S
C839 H854 0.961 . S
C839 H855 0.961 . S
C840 C841 1.370 . S
C840 C842 1.363 . S
C840 H856 0.931 . S
C841 C840 1.370 . S
C841 C845 1.408 . S
C842 C840 1.363 . S
C842 C843 1.370 . S
C842 C846 1.524 . S
C843 C835 1.503 . S
C843 C842 1.370 . S
C843 C844 1.403 . S
C844 C843 1.403 . S
C844 C845 1.404 . S
C844 C847 1.539 . S
C845 C841 1.408 . S
C845 C844 1.404 . S
C845 H857 0.930 . S
C846 C842 1.524 . S
C846 H858 0.956 . S
C846 H859 0.961 . S
C846 H860 0.961 . S
C847 C844 1.539 . S
C847 H861 0.958 . S
C847 H862 0.961 . S
C847 H863 0.960 . S
H848 C832 0.931 . S
H849 C837 0.929 . S
H850 C838 0.960 . S
H851 C838 0.962 . S
H852 C838 0.960 . S
H853 C839 0.961 . S
H854 C839 0.961 . S
H855 C839 0.961 . S
H856 C840 0.931 . S
H857 C845 0.930 . S
H858 C846 0.956 . S
H859 C846 0.961 . S
H860 C846 0.961 . S
H861 C847 0.958 . S
H862 C847 0.961 . S
H863 C847 0.960 . S
C864 C865 1.391 . S
C864 C866 1.394 . S
C864 H880 0.931 . S
C865 C864 1.391 . S
C865 C869 1.376 . S
C866 C864 1.394 . S
C866 C867 1.369 . S
C866 C870 1.531 . S
C867 C866 1.369 . S
C867 C868 1.410 . S
C867 C875 1.503 . S
C868 C867 1.410 . S
C868 C869 1.392 . S
C868 C871 1.511 . S
C869 C865 1.376 . S
C869 C868 1.392 . S
C869 H881 0.929 . S
C870 C866 1.531 . S
C870 H882 0.960 . S
C870 H883 0.962 . S
C870 H884 0.960 . S
C871 C868 1.511 . S
C871 H885 0.961 . S
C871 H886 0.961 . S
C871 H887 0.961 . S
C872 C873 1.370 . S
C872 C874 1.363 . S
C872 H888 0.931 . S
C873 C872 1.370 . S
C873 C877 1.408 . S
C874 C872 1.363 . S
C874 C875 1.370 . S
C874 C878 1.524 . S
C875 C867 1.503 . S
C875 C874 1.370 . S
C875 C876 1.403 . S
C876 C875 1.403 . S
C876 C877 1.404 . S
C876 C879 1.539 . S
C877 C873 1.408 . S
C877 C876 1.404 . S
C877 H889 0.930 . S
C878 C874 1.524 . S
C878 H890 0.956 . S
C878 H891 0.961 . S
C878 H892 0.961 . S
C879 C876 1.539 . S
C879 H893 0.958 . S
C879 H894 0.961 . S
C879 H895 0.960 . S
H880 C864 0.931 . S
H881 C869 0.929 . S
H882 C870 0.960 . S
H883 C870 0.962 . S
H884 C870 0.960 . S
H885 C871 0.961 . S
H886 C871 0.961 . S
H887 C871 0.961 . S
H888 C872 0.931 . S
H889 C877 0.930 . S
H890 C878 0.956 . S
H891 C878 0.961 . S
H892 C878 0.961 . S
H893 C879 0.958 . S
H894 C879 0.961 . S
H895 C879 0.960 . S
C896 C897 1.391 . S
C896 C898 1.394 . S
C896 H912 0.931 . S
C897 C896 1.391 . S
C897 C901 1.376 . S
C898 C896 1.394 . S
C898 C899 1.369 . S
C898 C902 1.531 . S
C899 C898 1.369 . S
C899 C900 1.410 . S
C899 C907 1.503 . S
C900 C899 1.410 . S
C900 C901 1.392 . S
C900 C903 1.511 . S
C901 C897 1.376 . S
C901 C900 1.392 . S
C901 H913 0.929 . S
C902 C898 1.531 . S
C902 H914 0.960 . S
C902 H915 0.962 . S
C902 H916 0.960 . S
C903 C900 1.511 . S
C903 H917 0.961 . S
C903 H918 0.961 . S
C903 H919 0.961 . S
C904 C905 1.370 . S
C904 C906 1.363 . S
C904 H920 0.931 . S
C905 C904 1.370 . S
C905 C909 1.408 . S
C906 C904 1.363 . S
C906 C907 1.370 . S
C906 C910 1.524 . S
C907 C899 1.503 . S
C907 C906 1.370 . S
C907 C908 1.403 . S
C908 C907 1.403 . S
C908 C909 1.404 . S
C908 C911 1.539 . S
C909 C905 1.408 . S
C909 C908 1.404 . S
C909 H921 0.930 . S
C910 C906 1.524 . S
C910 H922 0.956 . S
C910 H923 0.961 . S
C910 H924 0.961 . S
C911 C908 1.539 . S
C911 H925 0.958 . S
C911 H926 0.961 . S
C911 H927 0.960 . S
H912 C896 0.931 . S
H913 C901 0.929 . S
H914 C902 0.960 . S
H915 C902 0.962 . S
H916 C902 0.960 . S
H917 C903 0.961 . S
H918 C903 0.961 . S
H919 C903 0.961 . S
H920 C904 0.931 . S
H921 C909 0.930 . S
H922 C910 0.956 . S
H923 C910 0.961 . S
H924 C910 0.961 . S
H925 C911 0.958 . S
H926 C911 0.961 . S
H927 C911 0.960 . S
C928 C929 1.391 . S
C928 C930 1.394 . S
C928 H944 0.931 . S
C929 C928 1.391 . S
C929 C933 1.376 . S
C930 C928 1.394 . S
C930 C931 1.369 . S
C930 C934 1.531 . S
C931 C930 1.369 . S
C931 C932 1.410 . S
C931 C939 1.503 . S
C932 C931 1.410 . S
C932 C933 1.392 . S
C932 C935 1.511 . S
C933 C929 1.376 . S
C933 C932 1.392 . S
C933 H945 0.929 . S
C934 C930 1.531 . S
C934 H946 0.960 . S
C934 H947 0.962 . S
C934 H948 0.960 . S
C935 C932 1.511 . S
C935 H949 0.961 . S
C935 H950 0.961 . S
C935 H951 0.961 . S
C936 C937 1.370 . S
C936 C938 1.363 . S
C936 H952 0.931 . S
C937 C936 1.370 . S
C937 C941 1.408 . S
C938 C936 1.363 . S
C938 C939 1.370 . S
C938 C942 1.524 . S
C939 C931 1.503 . S
C939 C938 1.370 . S
C939 C940 1.403 . S
C940 C939 1.403 . S
C940 C941 1.404 . S
C940 C943 1.539 . S
C941 C937 1.408 . S
C941 C940 1.404 . S
C941 H953 0.930 . S
C942 C938 1.524 . S
C942 H954 0.956 . S
C942 H955 0.961 . S
C942 H956 0.961 . S
C943 C940 1.539 . S
C943 H957 0.958 . S
C943 H958 0.961 . S
C943 H959 0.960 . S
H944 C928 0.931 . S
H945 C933 0.929 . S
H946 C934 0.960 . S
H947 C934 0.962 . S
H948 C934 0.960 . S
H949 C935 0.961 . S
H950 C935 0.961 . S
H951 C935 0.961 . S
H952 C936 0.931 . S
H953 C941 0.930 . S
H954 C942 0.956 . S
H955 C942 0.961 . S
H956 C942 0.961 . S
H957 C943 0.958 . S
H958 C943 0.961 . S
H959 C943 0.960 . S
C193 N2 1.532 . S
C201 C130 1.516 . S
C233 C108 1.522 . S
C225 N15 1.525 . S
C265 C134 1.521 . S
C257 N28 1.512 . S
C297 C112 1.519 . S
C289 N41 1.515 . S
C329 C174 1.516 . S
C321 N54 1.532 . S
C361 C152 1.515 . S
C353 N67 1.527 . S
C385 N80 1.511 . S
C393 C178 1.522 . S
C425 C156 1.509 . S
C417 N93 1.531 . S
C449 N5 1.509 . S
C457 C179 1.486 . S
C489 C157 1.495 . S
C481 N18 1.507 . S
C513 N31 1.506 . S
C521 C176 1.487 . S
C545 N44 1.504 . S
C553 C154 1.486 . S
C585 C135 1.489 . S
C577 N57 1.510 . S
C609 N70 1.506 . S
C617 C113 1.484 . S
C649 C132 1.487 . S
C641 N83 1.485 . S
C681 C110 1.498 . S
C673 N96 1.501 . S
C713 C153 1.481 . S
C705 N1 1.497 . S
C745 C175 1.487 . S
C737 N14 1.509 . S
C769 N27 1.474 . S
C777 C155 1.492 . S
C809 C177 1.485 . S
C801 N40 1.503 . S
C841 C109 1.486 . S
C833 N53 1.509 . S
C865 N66 1.492 . S
C873 C131 1.489 . S
C897 N79 1.495 . S
C905 C111 1.481 . S
C929 N92 1.470 . S
C937 C133 1.487 . S
