# Generated by pormake.
# Topology ssb, (4,4)-cn, num edge types: 1
# Building blocks:
#     Node 0, Type 0, BuildingBlock: AZAVOO_clean_linker_0, # of connection points: 4
#     Node 1, Type 0, BuildingBlock: AZAVOO_clean_linker_0, # of connection points: 4
#     Node 2, Type 0, BuildingBlock: AZAVOO_clean_linker_0, # of connection points: 4
#     Node 3, Type 0, BuildingBlock: AZAVOO_clean_linker_0, # of connection points: 4
#     Node 4, Type 0, BuildingBlock: AZAVOO_clean_linker_0, # of connection points: 4
#     Node 5, Type 0, BuildingBlock: AZAVOO_clean_linker_0, # of connection points: 4
#     Node 6, Type 0, BuildingBlock: AZAVOO_clean_linker_0, # of connection points: 4
#     Node 7, Type 0, BuildingBlock: AZAVOO_clean_linker_0, # of connection points: 4
#     Node 8, Type 1, BuildingBlock: KOZSID_clean_sbu_0, # of connection points: 4
#     Node 9, Type 1, BuildingBlock: KOZSID_clean_sbu_0, # of connection points: 4
#     Node 10, Type 1, BuildingBlock: KOZSID_clean_sbu_0, # of connection points: 4
#     Node 11, Type 1, BuildingBlock: KOZSID_clean_sbu_0, # of connection points: 4
#     Node 12, Type 1, BuildingBlock: KOZSID_clean_sbu_0, # of connection points: 4
#     Node 13, Type 1, BuildingBlock: KOZSID_clean_sbu_0, # of connection points: 4
#     Node 14, Type 1, BuildingBlock: KOZSID_clean_sbu_0, # of connection points: 4
#     Node 15, Type 1, BuildingBlock: KOZSID_clean_sbu_0, # of connection points: 4
#     Edge 16, Type (0, 1), BuildingBlock: CIFDUS_clean_linker_0, # of connection points: 2
#     Edge 17, Type (0, 1), BuildingBlock: CIFDUS_clean_linker_0, # of connection points: 2
#     Edge 18, Type (0, 1), BuildingBlock: CIFDUS_clean_linker_0, # of connection points: 2
#     Edge 19, Type (0, 1), BuildingBlock: CIFDUS_clean_linker_0, # of connection points: 2
#     Edge 20, Type (0, 1), BuildingBlock: CIFDUS_clean_linker_0, # of connection points: 2
#     Edge 21, Type (0, 1), BuildingBlock: CIFDUS_clean_linker_0, # of connection points: 2
#     Edge 22, Type (0, 1), BuildingBlock: CIFDUS_clean_linker_0, # of connection points: 2
#     Edge 23, Type (0, 1), BuildingBlock: CIFDUS_clean_linker_0, # of connection points: 2
#     Edge 24, Type (0, 1), BuildingBlock: CIFDUS_clean_linker_0, # of connection points: 2
#     Edge 25, Type (0, 1), BuildingBlock: CIFDUS_clean_linker_0, # of connection points: 2
#     Edge 26, Type (0, 1), BuildingBlock: CIFDUS_clean_linker_0, # of connection points: 2
#     Edge 27, Type (0, 1), BuildingBlock: CIFDUS_clean_linker_0, # of connection points: 2
#     Edge 28, Type (0, 1), BuildingBlock: CIFDUS_clean_linker_0, # of connection points: 2
#     Edge 29, Type (0, 1), BuildingBlock: CIFDUS_clean_linker_0, # of connection points: 2
#     Edge 30, Type (0, 1), BuildingBlock: CIFDUS_clean_linker_0, # of connection points: 2
#     Edge 31, Type (0, 1), BuildingBlock: CIFDUS_clean_linker_0, # of connection points: 2
#     Edge 32, Type (0, 1), BuildingBlock: CIFDUS_clean_linker_0, # of connection points: 2
#     Edge 33, Type (0, 1), BuildingBlock: CIFDUS_clean_linker_0, # of connection points: 2
#     Edge 34, Type (0, 1), BuildingBlock: CIFDUS_clean_linker_0, # of connection points: 2
#     Edge 35, Type (0, 1), BuildingBlock: CIFDUS_clean_linker_0, # of connection points: 2
#     Edge 36, Type (0, 1), BuildingBlock: CIFDUS_clean_linker_0, # of connection points: 2
#     Edge 37, Type (0, 1), BuildingBlock: CIFDUS_clean_linker_0, # of connection points: 2
#     Edge 38, Type (0, 1), BuildingBlock: CIFDUS_clean_linker_0, # of connection points: 2
#     Edge 39, Type (0, 1), BuildingBlock: CIFDUS_clean_linker_0, # of connection points: 2
#     Edge 40, Type (0, 1), BuildingBlock: CIFDUS_clean_linker_0, # of connection points: 2
#     Edge 41, Type (0, 1), BuildingBlock: CIFDUS_clean_linker_0, # of connection points: 2
#     Edge 42, Type (0, 1), BuildingBlock: CIFDUS_clean_linker_0, # of connection points: 2
#     Edge 43, Type (0, 1), BuildingBlock: CIFDUS_clean_linker_0, # of connection points: 2
#     Edge 44, Type (0, 1), BuildingBlock: CIFDUS_clean_linker_0, # of connection points: 2
#     Edge 45, Type (0, 1), BuildingBlock: CIFDUS_clean_linker_0, # of connection points: 2
#     Edge 46, Type (0, 1), BuildingBlock: CIFDUS_clean_linker_0, # of connection points: 2
#     Edge 47, Type (0, 1), BuildingBlock: CIFDUS_clean_linker_0, # of connection points: 2
# Relax obj value: 0.049
# Max RMSD: 0.296
# Mean RMSD: 0.111
data_MOF--net-ssb--node1-KOZSID_clean_sbu_0--node2-AZAVOO_clean_linker_0--edge1-CIFDUS_clean_linker_0
_symmetry_space_group_name_H-M    P1
_symmetry_Int_Tables_number       1
_symmetry_cell_setting            triclinic
loop_
_symmetry_equiv_pos_as_xyz
'x, y, z'
_cell_length_a     54.584162
_cell_length_b     55.944602
_cell_length_c     40.121437
_cell_angle_alpha  95.258372
_cell_angle_beta   95.17846
_cell_angle_gamma 90.345766
loop_
_atom_site_label
_atom_site_type_symbol
_atom_site_fract_x
_atom_site_fract_y
_atom_site_fract_z
_atom_type_partial_charge
H0 H 0.15088 0.51643 0.29863 0.0
H1 H 0.34722 0.40579 0.08515 0.0
H2 H 0.22727 0.41997 0.33345 0.0
H3 H 0.19243 0.418 0.36776 0.0
H4 H 0.16522 0.35416 0.30697 0.0
H5 H 0.19944 0.35678 0.27153 0.0
H6 H 0.23928 0.45877 0.28737 0.0
H7 H 0.20702 0.48823 0.29631 0.0
H8 H 0.15247 0.43653 0.24899 0.0
H9 H 0.18495 0.40735 0.23981 0.0
H10 H 0.28561 0.4532 0.2428 0.0
H11 H 0.28713 0.48795 0.21016 0.0
H12 H 0.21904 0.46424 0.15309 0.0
H13 H 0.21763 0.42955 0.18613 0.0
H14 H 0.31861 0.40878 0.24374 0.0
H15 H 0.34952 0.41172 0.2037 0.0
H16 H 0.29261 0.39976 0.12145 0.0
H17 H 0.26197 0.39642 0.16178 0.0
H18 H 0.3127 0.36817 0.28339 0.0
H19 H 0.34774 0.34649 0.26174 0.0
H20 H 0.30334 0.32582 0.16869 0.0
H21 H 0.26855 0.347 0.19077 0.0
H22 H 0.26012 0.37135 0.33869 0.0
H23 H 0.26086 0.33547 0.36923 0.0
H24 H 0.25 0.2913 0.27467 0.0
H25 H 0.24727 0.32726 0.24483 0.0
O26 O 0.16336 0.50458 0.29457 0.0
O27 O 0.13603 0.4773 0.27019 0.0
O28 O 0.36396 0.41052 0.14472 0.0
O29 O 0.33534 0.40498 0.10153 0.0
C30 C 0.2347 0.39202 0.27609 0.0
C31 C 0.23401 0.41292 0.25818 0.0
C32 C 0.25173 0.41659 0.23547 0.0
C33 C 0.26966 0.39895 0.22998 0.0
C34 C 0.26989 0.37773 0.2469 0.0
C35 C 0.25277 0.37428 0.27057 0.0
C36 C 0.2158 0.38864 0.29979 0.0
C37 C 0.2139 0.40547 0.32762 0.0
C38 C 0.19409 0.40435 0.34715 0.0
C39 C 0.1763 0.386 0.33971 0.0
C40 C 0.17885 0.36841 0.31305 0.0
C41 C 0.19838 0.36984 0.293 0.0
C42 C 0.21444 0.43094 0.26295 0.0
C43 C 0.22037 0.45391 0.27875 0.0
C44 C 0.2019 0.47067 0.28392 0.0
C45 C 0.17715 0.46473 0.27341 0.0
C46 C 0.17133 0.44169 0.25742 0.0
C47 C 0.18983 0.42498 0.25217 0.0
C48 C 0.25154 0.43871 0.21694 0.0
C49 C 0.27094 0.45556 0.22337 0.0
C50 C 0.27184 0.47538 0.20451 0.0
C51 C 0.2533 0.47893 0.1787 0.0
C52 C 0.23353 0.4623 0.1729 0.0
C53 C 0.2327 0.44239 0.19174 0.0
C54 C 0.28809 0.40233 0.20563 0.0
C55 C 0.31287 0.40684 0.21706 0.0
C56 C 0.33047 0.40852 0.19414 0.0
C57 C 0.32354 0.40592 0.15935 0.0
C58 C 0.29858 0.40182 0.14804 0.0
C59 C 0.28102 0.40001 0.171 0.0
C60 C 0.2882 0.35919 0.23856 0.0
C61 C 0.31034 0.35811 0.2589 0.0
C62 C 0.33038 0.34599 0.24633 0.0
C63 C 0.32843 0.33476 0.21329 0.0
C64 C 0.30546 0.33408 0.19428 0.0
C65 C 0.28552 0.34618 0.20685 0.0
C66 C 0.25375 0.35217 0.28932 0.0
C67 C 0.25768 0.35391 0.32459 0.0
C68 C 0.2584 0.33323 0.34205 0.0
C69 C 0.25554 0.31013 0.32471 0.0
C70 C 0.25183 0.30856 0.28929 0.0
C71 C 0.25066 0.32923 0.27196 0.0
C72 C 0.15755 0.4825 0.27922 0.0
C73 C 0.34222 0.40731 0.13489 0.0
H74 H 0.62612 0.1532 0.31087 0.0
H75 H 0.85568 0.23732 0.52675 0.0
H76 H 0.71219 0.24259 0.27401 0.0
H77 H 0.67611 0.24782 0.23484 0.0
H78 H 0.65793 0.3121 0.29546 0.0
H79 H 0.69354 0.30605 0.33532 0.0
H80 H 0.72165 0.20274 0.3236 0.0
H81 H 0.68535 0.17627 0.31426 0.0
H82 H 0.64145 0.23325 0.35724 0.0
H83 H 0.67796 0.25943 0.36678 0.0
H84 H 0.77244 0.20445 0.37303 0.0
H85 H 0.7721 0.17157 0.4094 0.0
H86 H 0.7111 0.204 0.45717 0.0
H87 H 0.71211 0.2374 0.42164 0.0
H88 H 0.8113 0.24508 0.36756 0.0
H89 H 0.84548 0.2365 0.40833 0.0
H90 H 0.79916 0.25274 0.48918 0.0
H91 H 0.76526 0.26158 0.4482 0.0
H92 H 0.79936 0.28825 0.31662 0.0
H93 H 0.83839 0.3104 0.32755 0.0
H94 H 0.82348 0.32622 0.43145 0.0
H95 H 0.78373 0.30632 0.41919 0.0
H96 H 0.74935 0.28669 0.27114 0.0
H97 H 0.75137 0.32262 0.24085 0.0
H98 H 0.74839 0.36724 0.33418 0.0
H99 H 0.74629 0.33121 0.36425 0.0
O100 O 0.64026 0.16394 0.31492 0.0
O101 O 0.61849 0.19386 0.33709 0.0
O102 O 0.86561 0.23264 0.46764 0.0
O103 O 0.8425 0.24063 0.51008 0.0
C104 C 0.72591 0.26922 0.33273 0.0
C105 C 0.7245 0.24906 0.35127 0.0
C106 C 0.74406 0.24421 0.37501 0.0
C107 C 0.76514 0.25935 0.3801 0.0
C108 C 0.76648 0.27966 0.36174 0.0
C109 C 0.74674 0.28469 0.33825 0.0
C110 C 0.7054 0.27391 0.30747 0.0
C111 C 0.70044 0.25785 0.27869 0.0
C112 C 0.67991 0.26096 0.25627 0.0
C113 C 0.66409 0.28034 0.26209 0.0
C114 C 0.66953 0.29677 0.29056 0.0
C115 C 0.68999 0.29353 0.31312 0.0
C116 C 0.70242 0.23298 0.34584 0.0
C117 C 0.70419 0.20942 0.3311 0.0
C118 C 0.68342 0.19436 0.32573 0.0
C119 C 0.66049 0.20265 0.33497 0.0
C120 C 0.65882 0.2263 0.34979 0.0
C121 C 0.67962 0.24131 0.35522 0.0
C122 C 0.74242 0.22334 0.39492 0.0
C123 C 0.75901 0.20444 0.39132 0.0
C124 C 0.75879 0.18575 0.41198 0.0
C125 C 0.74162 0.18548 0.43596 0.0
C126 C 0.72439 0.20389 0.43866 0.0
C127 C 0.72494 0.22285 0.41845 0.0
C128 C 0.78582 0.25394 0.40493 0.0
C129 C 0.80861 0.24683 0.3941 0.0
C130 C 0.82808 0.24191 0.41743 0.0
C131 C 0.82504 0.24392 0.45204 0.0
C132 C 0.80213 0.25099 0.46274 0.0
C133 C 0.78271 0.25599 0.4394 0.0
C134 C 0.78879 0.29546 0.3672 0.0
C135 C 0.8043 0.29716 0.34145 0.0
C136 C 0.82682 0.30955 0.34795 0.0
C137 C 0.83451 0.31999 0.38055 0.0
C138 C 0.81831 0.31895 0.40585 0.0
C139 C 0.79557 0.30721 0.39906 0.0
C140 C 0.7477 0.3064 0.31984 0.0
C141 C 0.74896 0.30424 0.28495 0.0
C142 C 0.75002 0.32473 0.26772 0.0
C143 C 0.75001 0.3477 0.2852 0.0
C144 C 0.74866 0.34977 0.32015 0.0
C145 C 0.74744 0.32926 0.33732 0.0
C146 C 0.63844 0.18664 0.32912 0.0
C147 C 0.84566 0.2387 0.47693 0.0
H148 H 0.65578 0.9161 0.32287 0.0
H149 H 0.68966 0.66513 0.15569 0.0
H150 H 0.76004 0.84195 0.34736 0.0
H151 H 0.76276 0.87347 0.39412 0.0
H152 H 0.73992 0.82224 0.45995 0.0
H153 H 0.73742 0.7908 0.41299 0.0
H154 H 0.72235 0.83827 0.28709 0.0
H155 H 0.69703 0.874 0.29424 0.0
H156 H 0.66472 0.84432 0.37625 0.0
H157 H 0.68995 0.80855 0.36854 0.0
H158 H 0.72841 0.79493 0.23365 0.0
H159 H 0.6989 0.80451 0.18751 0.0
H160 H 0.63907 0.79116 0.24736 0.0
H161 H 0.66894 0.78201 0.29374 0.0
H162 H 0.76176 0.75118 0.24028 0.0
H163 H 0.75401 0.72098 0.19233 0.0
H164 H 0.68492 0.70211 0.22879 0.0
H165 H 0.69311 0.73214 0.27693 0.0
H166 H 0.79986 0.75255 0.29954 0.0
H167 H 0.8192 0.71506 0.28029 0.0
H168 H 0.75549 0.67532 0.30296 0.0
H169 H 0.73709 0.71268 0.32369 0.0
H170 H 0.79861 0.80327 0.34197 0.0
H171 H 0.83802 0.80205 0.37569 0.0
H172 H 0.81044 0.74426 0.42697 0.0
H173 H 0.77067 0.74569 0.39289 0.0
O174 O 0.66548 0.90173 0.32031 0.0
O175 O 0.64951 0.88572 0.3624 0.0
O176 O 0.72894 0.6875 0.15686 0.0
O177 O 0.69315 0.67724 0.17437 0.0
C178 C 0.74338 0.79596 0.34747 0.0
C179 C 0.72355 0.7993 0.3232 0.0
C180 C 0.71908 0.78253 0.29481 0.0
C181 C 0.73322 0.76154 0.29186 0.0
C182 C 0.75268 0.75781 0.31657 0.0
C183 C 0.75844 0.77558 0.34356 0.0
C184 C 0.74838 0.81414 0.37676 0.0
C185 C 0.75592 0.8375 0.372 0.0
C186 C 0.75727 0.8555 0.39866 0.0
C187 C 0.75125 0.85043 0.43066 0.0
C188 C 0.7448 0.82671 0.43567 0.0
C189 C 0.74338 0.80872 0.40892 0.0
C190 C 0.70785 0.82079 0.32716 0.0
C191 C 0.70964 0.83945 0.30639 0.0
C192 C 0.69523 0.85987 0.31063 0.0
C193 C 0.67885 0.86202 0.33582 0.0
C194 C 0.67713 0.84323 0.35659 0.0
C195 C 0.69151 0.8228 0.35226 0.0
C196 C 0.70077 0.78772 0.2669 0.0
C197 C 0.70891 0.79397 0.23668 0.0
C198 C 0.69202 0.79934 0.21034 0.0
C199 C 0.66662 0.79851 0.2137 0.0
C200 C 0.65852 0.79221 0.24411 0.0
C201 C 0.67549 0.78686 0.27053 0.0
C202 C 0.72807 0.74372 0.26216 0.0
C203 C 0.74501 0.74044 0.23792 0.0
C204 C 0.74051 0.72322 0.21052 0.0
C205 C 0.71885 0.70909 0.20676 0.0
C206 C 0.70178 0.71266 0.23094 0.0
C207 C 0.70637 0.72983 0.2584 0.0
C208 C 0.76705 0.73536 0.31299 0.0
C209 C 0.79059 0.73566 0.30163 0.0
C210 C 0.80142 0.7142 0.29014 0.0
C211 C 0.78876 0.6921 0.28946 0.0
C212 C 0.76598 0.69184 0.30334 0.0
C213 C 0.75534 0.71324 0.31516 0.0
C214 C 0.78185 0.77459 0.36504 0.0
C215 C 0.80103 0.79039 0.36055 0.0
C216 C 0.82355 0.78955 0.37964 0.0
C217 C 0.82733 0.77292 0.40373 0.0
C218 C 0.80795 0.75728 0.40861 0.0
C219 C 0.78535 0.75801 0.38918 0.0
C220 C 0.66369 0.88381 0.34041 0.0
C221 C 0.71404 0.69067 0.17779 0.0
H222 H 0.35551 0.99039 0.28896 0.0
H223 H 0.26473 0.76187 0.0621 0.0
H224 H 0.26363 0.90266 0.3199 0.0
H225 H 0.25983 0.94036 0.3549 0.0
H226 H 0.20277 0.96247 0.28262 0.0
H227 H 0.20606 0.92424 0.24864 0.0
H228 H 0.3058 0.89658 0.27476 0.0
H229 H 0.33216 0.93251 0.28595 0.0
H230 H 0.27874 0.97194 0.22722 0.0
H231 H 0.25269 0.93579 0.21602 0.0
H232 H 0.31146 0.85596 0.23052 0.0
H233 H 0.34717 0.85613 0.19746 0.0
H234 H 0.30475 0.89316 0.12243 0.0
H235 H 0.26926 0.89329 0.15599 0.0
H236 H 0.26854 0.81007 0.22088 0.0
H237 H 0.27649 0.77629 0.18024 0.0
H238 H 0.25064 0.8181 0.09895 0.0
H239 H 0.24274 0.85174 0.13994 0.0
H240 H 0.21983 0.81158 0.25737 0.0
H241 H 0.19805 0.7754 0.23097 0.0
H242 H 0.17799 0.81302 0.14282 0.0
H243 H 0.19754 0.84889 0.17072 0.0
H244 H 0.23239 0.86435 0.31833 0.0
H245 H 0.20189 0.85827 0.35779 0.0
H246 H 0.14369 0.86097 0.27788 0.0
H247 H 0.17446 0.86778 0.23842 0.0
O248 O 0.34495 0.97632 0.2839 0.0
O249 O 0.31688 0.99579 0.2535 0.0
O250 O 0.27931 0.75623 0.12094 0.0
O251 O 0.26189 0.77506 0.07861 0.0
C252 C 0.2406 0.8904 0.25773 0.0
C253 C 0.26111 0.89209 0.23886 0.0
C254 C 0.26601 0.87333 0.21467 0.0
C255 C 0.24983 0.85341 0.20825 0.0
C256 C 0.22883 0.8521 0.22632 0.0
C257 C 0.2248 0.87006 0.25221 0.0
C258 C 0.23512 0.91084 0.28185 0.0
C259 C 0.24985 0.91541 0.31221 0.0
C260 C 0.24783 0.93705 0.33191 0.0
C261 C 0.2313 0.95463 0.32124 0.0
C262 C 0.21555 0.9493 0.29172 0.0
C263 C 0.2174 0.9275 0.27224 0.0
C264 C 0.27745 0.91363 0.2445 0.0
C265 C 0.29996 0.91296 0.26412 0.0
C266 C 0.31492 0.93352 0.27057 0.0
C267 C 0.30755 0.95511 0.25751 0.0
C268 C 0.28497 0.95561 0.23766 0.0
C269 C 0.27007 0.93502 0.23118 0.0
C270 C 0.28789 0.87462 0.19556 0.0
C271 C 0.31003 0.86434 0.20714 0.0
C272 C 0.33035 0.86451 0.18832 0.0
C273 C 0.32865 0.87463 0.15741 0.0
C274 C 0.30647 0.88512 0.14607 0.0
C275 C 0.28628 0.88528 0.16518 0.0
C276 C 0.25527 0.83334 0.18329 0.0
C277 C 0.26474 0.81191 0.19427 0.0
C278 C 0.26923 0.79267 0.17102 0.0
C279 C 0.26424 0.79453 0.13633 0.0
C280 C 0.25471 0.81608 0.12546 0.0
C281 C 0.2503 0.83536 0.14877 0.0
C282 C 0.21054 0.83264 0.21563 0.0
C283 C 0.20971 0.81207 0.23295 0.0
C284 C 0.19757 0.79127 0.21744 0.0
C285 C 0.18679 0.79061 0.18398 0.0
C286 C 0.18568 0.81227 0.16847 0.0
C287 C 0.19714 0.83305 0.18433 0.0
C288 C 0.20568 0.86665 0.27552 0.0
C289 C 0.21305 0.86395 0.30936 0.0
C290 C 0.19563 0.86046 0.33186 0.0
C291 C 0.17045 0.85926 0.32089 0.0
C292 C 0.16302 0.86173 0.2869 0.0
C293 C 0.18052 0.86561 0.26441 0.0
C294 C 0.32333 0.977 0.26475 0.0
C295 C 0.26896 0.77408 0.1116 0.0
H296 H 0.41747 0.99605 0.738 0.0
H297 H 0.14925 0.95765 0.60628 0.0
H298 H 0.33995 0.88518 0.73808 0.0
H299 H 0.37837 0.87873 0.77203 0.0
H300 H 0.34529 0.90678 0.86127 0.0
H301 H 0.30659 0.91233 0.82698 0.0
H302 H 0.33337 0.93144 0.69664 0.0
H303 H 0.37062 0.95664 0.70453 0.0
H304 H 0.35284 0.98132 0.80471 0.0
H305 H 0.31551 0.95622 0.79633 0.0
H306 H 0.2825 0.93482 0.65109 0.0
H307 H 0.28518 0.9709 0.62115 0.0
H308 H 0.28142 0.01508 0.71465 0.0
H309 H 0.27894 0.97894 0.74427 0.0
H310 H 0.24583 0.89171 0.65245 0.0
H311 H 0.2115 0.89935 0.61142 0.0
H312 H 0.19149 0.9608 0.67632 0.0
H313 H 0.22569 0.95273 0.71736 0.0
H314 H 0.25766 0.85051 0.70075 0.0
H315 H 0.222 0.82634 0.67626 0.0
H316 H 0.17379 0.8803 0.71714 0.0
H317 H 0.20964 0.90374 0.74296 0.0
H318 H 0.30233 0.84832 0.7462 0.0
H319 H 0.30032 0.81321 0.77799 0.0
H320 H 0.24795 0.84955 0.83892 0.0
H321 H 0.24952 0.88418 0.80603 0.0
O322 O 0.40257 0.98633 0.73534 0.0
O323 O 0.3926 0.99845 0.78666 0.0
O324 O 0.17392 0.92235 0.58976 0.0
O325 O 0.16298 0.95423 0.62205 0.0
C326 C 0.29853 0.90559 0.75869 0.0
C327 C 0.29941 0.92645 0.74118 0.0
C328 C 0.27942 0.93209 0.71848 0.0
C329 C 0.25865 0.91652 0.71311 0.0
C330 C 0.25754 0.89584 0.73116 0.0
C331 C 0.27742 0.89044 0.7543 0.0
C332 C 0.32057 0.89915 0.78015 0.0
C333 C 0.34094 0.88953 0.76506 0.0
C334 C 0.36294 0.88615 0.78446 0.0
C335 C 0.36506 0.89255 0.81936 0.0
C336 C 0.34426 0.90148 0.83453 0.0
C337 C 0.32215 0.90468 0.81505 0.0
C338 C 0.32179 0.94204 0.74591 0.0
C339 C 0.33751 0.9424 0.7202 0.0
C340 C 0.3588 0.95676 0.72481 0.0
C341 C 0.36473 0.97098 0.75528 0.0
C342 C 0.34884 0.97058 0.78096 0.0
C343 C 0.32753 0.95625 0.77628 0.0
C344 C 0.2805 0.95413 0.69996 0.0
C345 C 0.2821 0.9523 0.66506 0.0
C346 C 0.28355 0.97299 0.64795 0.0
C347 C 0.28359 0.99604 0.66539 0.0
C348 C 0.28184 0.99772 0.70037 0.0
C349 C 0.2803 0.97705 0.71739 0.0
C350 C 0.23817 0.92162 0.6879 0.0
C351 C 0.23397 0.90678 0.65777 0.0
C352 C 0.21438 0.9112 0.63437 0.0
C353 C 0.19873 0.93069 0.64061 0.0
C354 C 0.20317 0.94564 0.67073 0.0
C355 C 0.22271 0.94113 0.69418 0.0
C356 C 0.23625 0.87897 0.72343 0.0
C357 C 0.23941 0.85665 0.70551 0.0
C358 C 0.21899 0.84303 0.69115 0.0
C359 C 0.19503 0.85162 0.69415 0.0
C360 C 0.19194 0.87307 0.71445 0.0
C361 C 0.21241 0.88656 0.72912 0.0
C362 C 0.27617 0.86895 0.77379 0.0
C363 C 0.29043 0.84868 0.76643 0.0
C364 C 0.28932 0.82862 0.78486 0.0
C365 C 0.27403 0.82834 0.81138 0.0
C366 C 0.25967 0.84875 0.8185 0.0
C367 C 0.26067 0.86873 0.79985 0.0
C368 C 0.38744 0.98611 0.76017 0.0
C369 C 0.17784 0.93542 0.61587 0.0
H370 H 0.20175 0.53682 0.79984 0.0
H371 H 0.22507 0.27444 0.64232 0.0
H372 H 0.31023 0.45444 0.79469 0.0
H373 H 0.31844 0.49244 0.82823 0.0
H374 H 0.29918 0.46006 0.91646 0.0
H375 H 0.28942 0.42234 0.88175 0.0
H376 H 0.25837 0.45406 0.75243 0.0
H377 H 0.23561 0.49111 0.76315 0.0
H378 H 0.21936 0.46888 0.85932 0.0
H379 H 0.24188 0.43175 0.84805 0.0
H380 H 0.24864 0.41192 0.70348 0.0
H381 H 0.20851 0.41329 0.67099 0.0
H382 H 0.17301 0.39364 0.75688 0.0
H383 H 0.21311 0.39299 0.78923 0.0
H384 H 0.28707 0.3755 0.69828 0.0
H385 H 0.27553 0.34412 0.65281 0.0
H386 H 0.22781 0.31146 0.71672 0.0
H387 H 0.23947 0.34303 0.76191 0.0
H388 H 0.33269 0.37337 0.74423 0.0
H389 H 0.34643 0.33663 0.71405 0.0
H390 H 0.30064 0.29455 0.76956 0.0
H391 H 0.28713 0.33141 0.79984 0.0
H392 H 0.35126 0.39745 0.80237 0.0
H393 H 0.38487 0.38473 0.84157 0.0
H394 H 0.33164 0.36434 0.90766 0.0
H395 H 0.29837 0.37691 0.86841 0.0
O396 O 0.21041 0.52192 0.79593 0.0
O397 O 0.20276 0.50975 0.84525 0.0
O398 O 0.25148 0.3067 0.62625 0.0
O399 O 0.22961 0.28728 0.65967 0.0
C400 C 0.28864 0.41513 0.81314 0.0
C401 C 0.26625 0.41815 0.79338 0.0
C402 C 0.25785 0.40026 0.7678 0.0
C403 C 0.27216 0.3798 0.76127 0.0
C404 C 0.29406 0.37644 0.78179 0.0
C405 C 0.30189 0.39373 0.80839 0.0
C406 C 0.29925 0.43569 0.83578 0.0
C407 C 0.30842 0.45541 0.82146 0.0
C408 C 0.31325 0.47714 0.84084 0.0
C409 C 0.3093 0.47952 0.87517 0.0
C410 C 0.30198 0.45905 0.89001 0.0
C411 C 0.29676 0.43734 0.87036 0.0
C412 C 0.25171 0.44023 0.79943 0.0
C413 C 0.24968 0.45714 0.77565 0.0
C414 C 0.23676 0.47833 0.78191 0.0
C415 C 0.2257 0.48299 0.81212 0.0
C416 C 0.22767 0.46588 0.83581 0.0
C417 C 0.24053 0.44467 0.82946 0.0
C418 C 0.23365 0.40239 0.74862 0.0
C419 C 0.23211 0.40811 0.71523 0.0
C420 C 0.20923 0.40872 0.69671 0.0
C421 C 0.18755 0.40351 0.71131 0.0
C422 C 0.18927 0.3981 0.74501 0.0
C423 C 0.21213 0.3976 0.7635 0.0
C424 C 0.26404 0.3615 0.73324 0.0
C425 C 0.27399 0.36163 0.70226 0.0
C426 C 0.26739 0.34369 0.6764 0.0
C427 C 0.25077 0.32525 0.68117 0.0
C428 C 0.24069 0.32535 0.71224 0.0
C429 C 0.24722 0.34339 0.73803 0.0
C430 C 0.30885 0.35495 0.77399 0.0
C431 C 0.32667 0.35616 0.75115 0.0
C432 C 0.33436 0.33521 0.73381 0.0
C433 C 0.32429 0.31287 0.73921 0.0
C434 C 0.30879 0.31154 0.76512 0.0
C435 C 0.30105 0.33254 0.78242 0.0
C436 C 0.3225 0.38829 0.83284 0.0
C437 C 0.34698 0.39045 0.82549 0.0
C438 C 0.36606 0.38305 0.84774 0.0
C439 C 0.36083 0.37357 0.87766 0.0
C440 C 0.33624 0.37186 0.88505 0.0
C441 C 0.31725 0.37903 0.86272 0.0
C442 C 0.21224 0.50564 0.81888 0.0
C443 C 0.24403 0.30591 0.65397 0.0
H444 H 0.90549 0.40028 0.90488 0.0
H445 H 0.82875 0.19978 0.63561 0.0
H446 H 0.81455 0.30611 0.91573 0.0
H447 H 0.81083 0.33937 0.95895 0.0
H448 H 0.74851 0.36554 0.8993 0.0
H449 H 0.75281 0.33257 0.85581 0.0
H450 H 0.85807 0.30673 0.86463 0.0
H451 H 0.88391 0.342 0.88444 0.0
H452 H 0.82414 0.38813 0.85454 0.0
H453 H 0.79867 0.35274 0.83433 0.0
H454 H 0.85997 0.26892 0.79537 0.0
H455 H 0.89011 0.28133 0.75805 0.0
H456 H 0.84618 0.34311 0.73759 0.0
H457 H 0.81572 0.33017 0.77351 0.0
H458 H 0.82023 0.22481 0.80003 0.0
H459 H 0.83066 0.19672 0.7532 0.0
H460 H 0.81027 0.24968 0.68404 0.0
H461 H 0.79958 0.27747 0.73104 0.0
H462 H 0.77339 0.22536 0.84694 0.0
H463 H 0.75553 0.18671 0.82288 0.0
H464 H 0.73876 0.21661 0.72782 0.0
H465 H 0.75479 0.25537 0.75297 0.0
H466 H 0.76526 0.26941 0.90392 0.0
H467 H 0.72549 0.27154 0.92804 0.0
H468 H 0.69014 0.28819 0.83236 0.0
H469 H 0.72989 0.28638 0.80866 0.0
O470 O 0.89499 0.38658 0.8968 0.0
O471 O 0.86358 0.40948 0.88133 0.0
O472 O 0.83497 0.18394 0.6912 0.0
O473 O 0.82485 0.21057 0.6546 0.0
C474 C 0.79001 0.3004 0.85341 0.0
C475 C 0.8108 0.30565 0.83657 0.0
C476 C 0.81643 0.29083 0.80796 0.0
C477 C 0.80225 0.26983 0.79747 0.0
C478 C 0.78108 0.26479 0.81378 0.0
C479 C 0.7746 0.28047 0.84119 0.0
C480 C 0.78399 0.31695 0.88261 0.0
C481 C 0.79968 0.31867 0.91246 0.0
C482 C 0.7975 0.33767 0.93714 0.0
C483 C 0.77957 0.35527 0.93235 0.0
C484 C 0.76276 0.35248 0.90346 0.0
C485 C 0.76498 0.33349 0.87878 0.0
C486 C 0.82644 0.32718 0.84836 0.0
C487 C 0.85063 0.32447 0.86234 0.0
C488 C 0.86532 0.34465 0.87367 0.0
C489 C 0.85606 0.36789 0.87118 0.0
C490 C 0.83182 0.3705 0.85694 0.0
C491 C 0.8172 0.35032 0.84551 0.0
C492 C 0.83568 0.29867 0.78721 0.0
C493 C 0.85689 0.28511 0.78282 0.0
C494 C 0.87404 0.29221 0.76163 0.0
C495 C 0.87043 0.31323 0.74524 0.0
C496 C 0.84949 0.32702 0.75031 0.0
C497 C 0.83214 0.31965 0.77081 0.0
C498 C 0.80929 0.2532 0.76895 0.0
C499 C 0.81808 0.23031 0.77475 0.0
C500 C 0.82402 0.21431 0.74796 0.0
C501 C 0.82133 0.22097 0.71485 0.0
C502 C 0.8126 0.24399 0.7092 0.0
C503 C 0.80658 0.25994 0.736 0.0
C504 C 0.76578 0.24308 0.80155 0.0
C505 C 0.7651 0.22368 0.82125 0.0
C506 C 0.75522 0.20148 0.80722 0.0
C507 C 0.74616 0.19816 0.77303 0.0
C508 C 0.74532 0.21825 0.75421 0.0
C509 C 0.75471 0.24051 0.76847 0.0
C510 C 0.75042 0.27779 0.8546 0.0
C511 C 0.74883 0.27308 0.88808 0.0
C512 C 0.72614 0.27424 0.90175 0.0
C513 C 0.70479 0.28026 0.88211 0.0
C514 C 0.70634 0.28384 0.84816 0.0
C515 C 0.72896 0.28258 0.83452 0.0
C516 C 0.87168 0.38929 0.88336 0.0
C517 C 0.82749 0.20399 0.68629 0.0
H518 H 0.96266 0.6873 0.81927 0.0
H519 H 0.72862 0.67997 0.99152 0.0
H520 H 0.87509 0.77966 0.83105 0.0
H521 H 0.90009 0.78922 0.78619 0.0
H522 H 0.83917 0.76903 0.71244 0.0
H523 H 0.81438 0.75907 0.75743 0.0
H524 H 0.88208 0.73937 0.87833 0.0
H525 H 0.91978 0.71964 0.86254 0.0
H526 H 0.88225 0.69354 0.76642 0.0
H527 H 0.8446 0.71312 0.78269 0.0
H528 H 0.84323 0.73362 0.93208 0.0
H529 H 0.85179 0.6998 0.96547 0.0
H530 H 0.83678 0.65068 0.87613 0.0
H531 H 0.82726 0.68474 0.84319 0.0
H532 H 0.79561 0.76562 0.93577 0.0
H533 H 0.77263 0.75133 0.97985 0.0
H534 H 0.75597 0.68484 0.91786 0.0
H535 H 0.77867 0.6995 0.87378 0.0
H536 H 0.78369 0.80634 0.88758 0.0
H537 H 0.74419 0.8205 0.90645 0.0
H538 H 0.70948 0.75368 0.86397 0.0
H539 H 0.74865 0.73993 0.84444 0.0
H540 H 0.83003 0.81413 0.83902 0.0
H541 H 0.81652 0.85059 0.81386 0.0
H542 H 0.75117 0.81311 0.76679 0.0
H543 H 0.76509 0.77639 0.79144 0.0
O544 O 0.94752 0.69485 0.82508 0.0
O545 O 0.92742 0.68199 0.77595 0.0
O546 O 0.74664 0.72069 0.0052 0.0
O547 O 0.7378 0.68607 0.97449 0.0
C548 C 0.82903 0.75975 0.8243 0.0
C549 C 0.83785 0.73993 0.84112 0.0
C550 C 0.82491 0.73173 0.86681 0.0
C551 C 0.80257 0.7425 0.87476 0.0
C552 C 0.79331 0.76184 0.85734 0.0
C553 C 0.80689 0.77087 0.83272 0.0
C554 C 0.84299 0.76847 0.79749 0.0
C555 C 0.86709 0.77746 0.80522 0.0
C556 C 0.88135 0.78283 0.77962 0.0
C557 C 0.87163 0.77965 0.74584 0.0
C558 C 0.84708 0.77175 0.73827 0.0
C559 C 0.83291 0.76609 0.7639 0.0
C560 C 0.86063 0.72764 0.83168 0.0
C561 C 0.88201 0.72925 0.85397 0.0
C562 C 0.90353 0.71803 0.84483 0.0
C563 C 0.90404 0.70502 0.8132 0.0
C564 C 0.8825 0.70342 0.79096 0.0
C565 C 0.86099 0.7146 0.80017 0.0
C566 C 0.83438 0.71154 0.88539 0.0
C567 C 0.84224 0.71556 0.91968 0.0
C568 C 0.8473 0.69621 0.93863 0.0
C569 C 0.84476 0.67254 0.92347 0.0
C570 C 0.83852 0.6687 0.88858 0.0
C571 C 0.83328 0.68809 0.86969 0.0
C572 C 0.78883 0.73359 0.90163 0.0
C573 C 0.78693 0.748 0.93175 0.0
C574 C 0.77383 0.73978 0.95689 0.0
C575 C 0.76247 0.71692 0.95238 0.0
C576 C 0.7645 0.70251 0.92217 0.0
C577 C 0.77752 0.7108 0.89699 0.0
C578 C 0.76906 0.77203 0.86482 0.0
C579 C 0.76742 0.79503 0.88166 0.0
C580 C 0.74492 0.80306 0.89244 0.0
C581 C 0.72394 0.78804 0.88693 0.0
C582 C 0.72547 0.76548 0.86882 0.0
C583 C 0.74777 0.75765 0.85763 0.0
C584 C 0.79857 0.79265 0.81694 0.0
C585 C 0.8129 0.81374 0.82305 0.0
C586 C 0.80517 0.83449 0.80878 0.0
C587 C 0.78282 0.83455 0.7885 0.0
C588 C 0.76836 0.81349 0.78261 0.0
C589 C 0.77629 0.79259 0.79653 0.0
C590 C 0.92696 0.69323 0.8035 0.0
C591 C 0.74852 0.7081 0.97901 0.0
C592 C 0.05101 0.40689 0.57879 0.0
C593 C 0.05795 0.43038 0.59007 0.0
C594 C 0.03862 0.44453 0.58065 0.0
C595 C 0.02111 0.429 0.56398 0.0
N596 N 0.02823 0.40597 0.56231 0.0
Co597 Co 0.00925 0.37785 0.53915 0.0
N598 N 0.98726 0.39873 0.5127 0.0
C599 C 0.98534 0.42273 0.51851 0.0
C600 C 0.9695 0.43254 0.49517 0.0
C601 C 0.9605 0.41351 0.47365 0.0
C602 C 0.9711 0.393 0.48543 0.0
N603 N 0.99014 0.34958 0.51642 0.0
C604 C 0.97276 0.34796 0.48987 0.0
C605 C 0.96294 0.32476 0.48412 0.0
C606 C 0.97424 0.31168 0.50807 0.0
C607 C 0.99024 0.32742 0.52718 0.0
N608 N 0.03138 0.3571 0.5655 0.0
C609 C 0.02683 0.33427 0.57128 0.0
C610 C 0.04558 0.32461 0.59067 0.0
C611 C 0.063 0.34256 0.59757 0.0
C612 C 0.05383 0.36216 0.58182 0.0
N613 N 0.98702 0.37975 0.57486 0.0
C614 C 0.95668 0.37329 0.62568 0.0
C615 C 0.98149 0.37947 0.63365 0.0
C616 C 0.9964 0.38255 0.60781 0.0
C617 C 0.94691 0.37216 0.59216 0.0
C618 C 0.96232 0.37585 0.56718 0.0
N619 N 0.03172 0.37564 0.5038 0.0
C620 C 0.05857 0.35186 0.47023 0.0
C621 C 0.06856 0.3726 0.45926 0.0
C622 C 0.05879 0.39485 0.47004 0.0
C623 C 0.04022 0.39593 0.49188 0.0
C624 C 0.04041 0.35378 0.49263 0.0
H625 H 0.03337 0.4133 0.50001 0.0
H626 H 0.0339 0.33755 0.5016 0.0
H627 H 0.01575 0.38601 0.61446 0.0
H628 H 0.95437 0.37436 0.54156 0.0
C629 C 0.00077 0.43573 0.54352 0.0
C630 C 0.06595 0.38578 0.58502 0.0
C631 C 0.96231 0.36856 0.47334 0.0
C632 C 0.00705 0.3215 0.55343 0.0
H633 H 0.07526 0.43674 0.60325 0.0
H634 H 0.03806 0.46393 0.58376 0.0
H635 H 0.9653 0.45131 0.49364 0.0
H636 H 0.94691 0.41449 0.45244 0.0
H637 H 0.9484 0.31799 0.46555 0.0
H638 H 0.9711 0.29292 0.51118 0.0
H639 H 0.04688 0.30645 0.59784 0.0
H640 H 0.08037 0.3414 0.6126 0.0
H641 H 0.98958 0.38056 0.65943 0.0
H642 H 0.92766 0.36774 0.58524 0.0
H643 H 0.06491 0.33417 0.46202 0.0
H644 H 0.06592 0.41149 0.46271 0.0
C645 C 0.72275 0.05026 0.67549 0.0
C646 C 0.70153 0.05477 0.69154 0.0
C647 C 0.68416 0.03853 0.67681 0.0
C648 C 0.69577 0.02491 0.65297 0.0
N649 N 0.71952 0.0314 0.65165 0.0
Co650 Co 0.74337 0.01522 0.6221 0.0
N651 N 0.71691 0.99387 0.59694 0.0
C652 C 0.69268 0.99428 0.60154 0.0
C653 C 0.67875 0.97804 0.58003 0.0
C654 C 0.69504 0.96664 0.56034 0.0
C655 C 0.71808 0.9766 0.57109 0.0
N656 N 0.76763 0.99783 0.59432 0.0
C657 C 0.76434 0.97914 0.57025 0.0
C658 C 0.78651 0.97183 0.55844 0.0
C659 C 0.80444 0.98617 0.57596 0.0
C660 C 0.79228 1.00138 0.59734 0.0
N661 N 0.76944 0.03796 0.64523 0.0
C662 C 0.79328 0.03882 0.63864 0.0
C663 C 0.80631 0.0579 0.65545 0.0
C664 C 0.78976 0.07017 0.67369 0.0
C665 C 0.76754 0.05756 0.66738 0.0
N666 N 0.75024 0.9917 0.65575 0.0
C667 C 0.76268 0.95354 0.69483 0.0
C668 C 0.77962 0.97192 0.69223 0.0
C669 C 0.77311 0.99062 0.67269 0.0
C670 C 0.73882 0.95558 0.67965 0.0
C671 C 0.73294 0.97485 0.66082 0.0
N672 N 0.73671 0.03854 0.58848 0.0
C673 C 0.75148 0.06265 0.54756 0.0
C674 C 0.7293 0.07495 0.54504 0.0
C675 C 0.71034 0.06777 0.56328 0.0
C676 C 0.71434 0.04943 0.58449 0.0
C677 C 0.75485 0.04485 0.56942 0.0
H678 H 0.69925 0.04467 0.59791 0.0
H679 H 0.77249 0.03677 0.57086 0.0
H680 H 0.78723 0.00358 0.67115 0.0
H681 H 0.71443 0.97526 0.6499 0.0
C682 C 0.68413 0.00823 0.6286 0.0
C683 C 0.7452 0.06485 0.683 0.0
C684 C 0.74065 0.96818 0.55723 0.0
C685 C 0.80304 0.02095 0.61743 0.0
H686 H 0.69872 0.06868 0.71135 0.0
H687 H 0.6651 0.03737 0.68202 0.0
H688 H 0.65921 0.9744 0.57942 0.0
H689 H 0.69054 0.9522 0.54086 0.0
H690 H 0.78944 0.95783 0.5388 0.0
H691 H 0.82392 0.98601 0.57276 0.0
H692 H 0.82552 0.06243 0.65443 0.0
H693 H 0.79373 0.08663 0.68962 0.0
H694 H 0.79807 0.97171 0.70463 0.0
H695 H 0.72489 0.94195 0.68106 0.0
H696 H 0.76646 0.06693 0.53304 0.0
H697 H 0.69275 0.07665 0.56202 0.0
C698 C 0.05447 0.82985 0.58012 0.0
C699 C 0.06064 0.85375 0.59015 0.0
C700 C 0.04752 0.86726 0.56816 0.0
C701 C 0.03412 0.851 0.54598 0.0
N702 N 0.0378 0.8281 0.55288 0.0
Co703 Co 0.02278 0.79923 0.52634 0.0
N704 N 0.99657 0.81846 0.50476 0.0
C705 C 0.99725 0.84232 0.50264 0.0
C706 C 0.97632 0.85053 0.48605 0.0
C707 C 0.96166 0.83055 0.47707 0.0
C708 C 0.97457 0.81121 0.48876 0.0
N709 N 0.00777 0.77044 0.49961 0.0
C710 C 0.98485 0.76724 0.48389 0.0
C711 C 0.98173 0.7442 0.46792 0.0
C712 C 0.00363 0.73272 0.4738 0.0
C713 C 0.01881 0.74932 0.49298 0.0
N714 N 0.04907 0.77992 0.54778 0.0
C715 C 0.05563 0.75765 0.53654 0.0
C716 C 0.07438 0.74872 0.55671 0.0
C717 C 0.08017 0.76659 0.58195 0.0
C718 C 0.06467 0.78559 0.57562 0.0
N719 N 0.0021 0.79427 0.5624 0.0
C720 C 0.97185 0.78726 0.61348 0.0
C721 C 0.98482 0.76812 0.59878 0.0
C722 C -0.00026 0.77198 0.57322 0.0
C723 C 0.97441 0.80998 0.60209 0.0
C724 C 0.98968 0.81312 0.5767 0.0
N725 N 0.04346 0.80434 0.49017 0.0
C726 C 0.08261 0.81527 0.47245 0.0
C727 C 0.07256 0.81444 0.43894 0.0
C728 C 0.04772 0.8078 0.43157 0.0
C729 C 0.03354 0.80278 0.45747 0.0
C730 C 0.06781 0.81022 0.49757 0.0
H731 H 0.01441 0.79802 0.45107 0.0
H732 H 0.07609 0.81137 0.52307 0.0
H733 H 0.00929 0.7569 0.5621 0.0
H734 H 0.99142 0.83084 0.5686 0.0
C735 C 0.01558 0.8566 0.52158 0.0
C736 C 0.06701 0.80943 0.59443 0.0
C737 C 0.96638 0.78609 0.48202 0.0
C738 C 0.04142 0.7445 0.51022 0.0
H739 H 0.07368 0.8607 0.61072 0.0
H740 H 0.04739 0.88664 0.56876 0.0
H741 H 0.97179 0.86894 0.48214 0.0
H742 H 0.94364 0.83023 0.46336 0.0
H743 H 0.96537 0.7365 0.45357 0.0
H744 H 0.00759 0.71418 0.46625 0.0
H745 H 0.0824 0.73108 0.55399 0.0
H746 H 0.09444 0.76586 0.60237 0.0
H747 H 0.98319 0.75021 0.60664 0.0
H748 H 0.96495 0.82532 0.61303 0.0
H749 H 0.10183 0.81978 0.47933 0.0
H750 H 0.03909 0.80703 0.4061 0.0
C751 C 0.30103 0.11371 0.5344 0.0
C752 C 0.32317 0.10174 0.53789 0.0
C753 C 0.33891 0.11254 0.51913 0.0
C754 C 0.32551 0.13032 0.50509 0.0
N755 N 0.30229 0.13188 0.51422 0.0
Co756 Co 0.27598 0.15346 0.49611 0.0
N757 N 0.2992 0.16959 0.46884 0.0
C758 C 0.32347 0.16515 0.46792 0.0
C759 C 0.3351 0.17953 0.44822 0.0
C760 C 0.31732 0.19443 0.43633 0.0
C761 C 0.29575 0.1883 0.44958 0.0
N762 N 0.24923 0.1738 0.47624 0.0
C763 C 0.25008 0.19149 0.4552 0.0
C764 C 0.22696 0.2011 0.44833 0.0
C765 C 0.21104 0.18907 0.46538 0.0
C766 C 0.22519 0.1729 0.48182 0.0
N767 N 0.25318 0.1387 0.52534 0.0
C768 C 0.22953 0.14471 0.52862 0.0
C769 C 0.21848 0.13197 0.55089 0.0
C770 C 0.23609 0.11675 0.56236 0.0
C771 C 0.25687 0.12094 0.54609 0.0
N772 N 0.28469 0.17873 0.53321 0.0
C773 C 0.29759 0.21623 0.58311 0.0
C774 C 0.27331 0.21296 0.56934 0.0
C775 C 0.26722 0.19402 0.5449 0.0
C776 C 0.31526 0.2002 0.5723 0.0
C777 C 0.30851 0.1818 0.54721 0.0
N778 N 0.26746 0.1279 0.45914 0.0
C779 C 0.24217 0.0934 0.43724 0.0
C780 C 0.26027 0.08503 0.4167 0.0
C781 C 0.28081 0.09982 0.41532 0.0
C782 C 0.28407 0.12093 0.43662 0.0
C783 C 0.24589 0.11498 0.45755 0.0
H784 H 0.3006 0.1308 0.43502 0.0
H785 H 0.2314 0.12033 0.47265 0.0
H786 H 0.24831 0.19227 0.53562 0.0
H787 H 0.32295 0.17052 0.53923 0.0
C788 C 0.33436 0.14639 0.48425 0.0
C789 C 0.27909 0.1066 0.54971 0.0
C790 C 0.27248 0.20073 0.4429 0.0
C791 C 0.21737 0.15977 0.50693 0.0
H792 H 0.32744 0.08655 0.55214 0.0
H793 H 0.35782 0.10787 0.5159 0.0
H794 H 0.3542 0.17912 0.44292 0.0
H795 H 0.31995 0.20818 0.41966 0.0
H796 H 0.2221 0.21591 0.43364 0.0
H797 H 0.19171 0.19265 0.46712 0.0
H798 H 0.19956 0.13288 0.55694 0.0
H799 H 0.23367 0.1035 0.57988 0.0
H800 H 0.25907 0.22498 0.57748 0.0
H801 H 0.33431 0.20229 0.58247 0.0
H802 H 0.22567 0.08294 0.43897 0.0
H803 H 0.29482 0.09484 0.3986 0.0
C804 C 0.5602 0.86672 0.07287 0.0
C805 C 0.57353 0.88575 0.0907 0.0
C806 C 0.56835 0.90554 0.07403 0.0
C807 C 0.55236 0.89754 0.04698 0.0
N808 N 0.54688 0.8738 0.04541 0.0
Co809 Co 0.52533 0.85458 0.00933 0.0
N810 N 0.51694 0.88391 0.9856 0.0
C811 C 0.52562 0.90653 0.99424 0.0
C812 C 0.51481 0.92319 0.97486 0.0
C813 C 0.49776 0.91057 0.95303 0.0
C814 C 0.49929 0.88683 0.96031 0.0
N815 N 0.50405 0.83533 0.97305 0.0
C816 C 0.48838 0.84291 0.94827 0.0
C817 C 0.47642 0.82385 0.92868 0.0
C818 C 0.48426 0.80346 0.94232 0.0
C819 C 0.50055 0.81124 0.9692 0.0
N820 N 0.5331 0.82527 0.03333 0.0
C821 C 0.52473 0.80259 0.02399 0.0
C822 C 0.53256 0.78638 0.0461 0.0
C823 C 0.54686 0.79941 0.071 0.0
C824 C 0.5471 0.82292 0.06246 0.0
N825 N 0.49649 0.86038 0.03547 0.0
C826 C 0.45544 0.86857 0.07242 0.0
C827 C 0.45879 0.8463 0.05485 0.0
C828 C 0.47939 0.84256 0.0369 0.0
C829 C 0.47289 0.88672 0.07114 0.0
C830 C 0.49301 0.88235 0.05237 0.0
N831 N 0.55449 0.8487 0.9832 0.0
C832 C 0.58134 0.82093 0.95484 0.0
C833 C 0.59837 0.83924 0.95208 0.0
C834 C 0.59244 0.8626 0.96382 0.0
C835 C 0.57053 0.8669 0.97887 0.0
C836 C 0.55988 0.82598 0.97041 0.0
H837 H 0.56728 0.88506 0.98729 0.0
H838 H 0.54819 0.81104 0.97219 0.0
H839 H 0.48112 0.82509 0.02441 0.0
H840 H 0.5055 0.89701 0.05179 0.0
C841 C 0.54194 0.91189 0.02286 0.0
C842 C 0.56136 0.84218 0.08247 0.0
C843 C 0.48257 0.86789 0.94437 0.0
C844 C 0.51005 0.79692 0.9939 0.0
H845 H 0.58592 0.88537 0.11326 0.0
H846 H 0.57549 0.92361 0.08073 0.0
H847 H 0.51804 0.94241 0.97742 0.0
H848 H 0.48505 0.91816 0.93471 0.0
H849 H 0.46263 0.82474 0.9077 0.0
H850 H 0.47776 0.78528 0.93474 0.0
H851 H 0.52849 0.76731 0.04422 0.0
H852 H 0.55621 0.79235 0.09287 0.0
H853 H 0.4458 0.83166 0.05544 0.0
H854 H 0.47084 0.90433 0.08419 0.0
H855 H 0.58455 0.80261 0.94522 0.0
H856 H 0.60491 0.87751 0.96233 0.0
C857 C 0.20182 0.67242 0.0301 0.0
C858 C 0.1763 0.67281 0.02513 0.0
C859 C 0.16997 0.66463 0.99214 0.0
C860 C 0.19179 0.6592 0.97887 0.0
N861 N 0.21136 0.66326 0.00173 0.0
Co862 Co 0.24586 0.65525 0.99467 0.0
N863 N 0.23559 0.6332 0.95475 0.0
C864 C 0.21407 0.63319 0.93567 0.0
C865 C 0.21252 0.6151 0.90987 0.0
C866 C 0.23442 0.60311 0.9133 0.0
C867 C 0.248 0.61459 0.94113 0.0
N868 N 0.28025 0.64696 0.98764 0.0
C869 C 0.28878 0.62657 0.97236 0.0
C870 C 0.31431 0.62677 0.97515 0.0
C871 C 0.32175 0.64837 0.99239 0.0
C872 C 0.30044 0.66 0.99942 0.0
N873 N 0.2564 0.67764 0.03415 0.0
C874 C 0.27872 0.68835 0.0404 0.0
C875 C 0.28013 0.70481 0.06802 0.0
C876 C 0.25726 0.70445 0.07962 0.0
C877 C 0.24311 0.68747 0.05856 0.0
N878 N 0.24415 0.62875 0.02347 0.0
C879 C 0.24165 0.59041 0.06415 0.0
C880 C 0.26169 0.60662 0.06857 0.0
C881 C 0.26257 0.62561 0.0481 0.0
C882 C 0.223 0.5939 0.03866 0.0
C883 C 0.22457 0.61306 0.01876 0.0
N884 N 0.24754 0.68185 0.96586 0.0
C885 C 0.26067 0.69811 0.91646 0.0
C886 C 0.24981 0.72022 0.92521 0.0
C887 C 0.23795 0.72263 0.95489 0.0
C888 C 0.23712 0.70342 0.97481 0.0
C889 C 0.25916 0.67915 0.93691 0.0
H890 H 0.22802 0.7061 0.99758 0.0
H891 H 0.26736 0.66224 0.92925 0.0
H892 H 0.27817 0.63779 0.0522 0.0
H893 H 0.20991 0.6151 0.99941 0.0
C894 C 0.19422 0.64607 0.94778 0.0
C895 C 0.21671 0.68259 0.06071 0.0
C896 C 0.27258 0.6077 0.95432 0.0
C897 C 0.29861 0.67988 0.02301 0.0
H898 H 0.16348 0.67831 0.0433 0.0
H899 H 0.15156 0.66179 0.97987 0.0
H900 H 0.19678 0.61015 0.89215 0.0
H901 H 0.2396 0.58747 0.89772 0.0
H902 H 0.32641 0.61284 0.96634 0.0
H903 H 0.34044 0.65414 0.00068 0.0
H904 H 0.29602 0.71538 0.07894 0.0
H905 H 0.25165 0.71576 0.1008 0.0
H906 H 0.27646 0.60494 0.08809 0.0
H907 H 0.20731 0.58175 0.03374 0.0
H908 H 0.26985 0.6953 0.89362 0.0
H909 H 0.22953 0.73941 0.96296 0.0
C910 C 0.49218 0.33655 0.99554 0.0
C911 C 0.49246 0.35974 0.9858 0.0
C912 C 0.5085 0.37278 0.00852 0.0
C913 C 0.51722 0.35684 0.03054 0.0
N914 N 0.50787 0.33432 0.02314 0.0
Co915 Co 0.51642 0.30534 0.04753 0.0
N916 N 0.53888 0.3249 0.08204 0.0
C917 C 0.54254 0.34897 0.08471 0.0
C918 C 0.55898 0.35727 0.1111 0.0
C919 C 0.56644 0.33732 0.12608 0.0
C920 C 0.55404 0.31791 0.10782 0.0
N921 N 0.52588 0.27617 0.07113 0.0
C922 C 0.54317 0.2737 0.09694 0.0
C923 C 0.54501 0.25005 0.10462 0.0
C924 C 0.52849 0.237 0.08249 0.0
C925 C 0.51762 0.25337 0.06267 0.0
N926 N 0.49318 0.28599 0.01367 0.0
C927 C 0.48768 0.26233 0.01297 0.0
C928 C 0.46999 0.25437 0.98793 0.0
C929 C 0.46354 0.27419 0.9719 0.0
C930 C 0.47785 0.29313 0.98805 0.0
N931 N 0.54396 0.29888 0.01913 0.0
C932 C 0.58523 0.28857 0.98333 0.0
C933 C 0.56733 0.27098 0.98538 0.0
C934 C 0.5469 0.27653 0.00304 0.0
C935 C 0.58181 0.31157 0.99872 0.0
C936 C 0.56123 0.31629 0.0164 0.0
N937 N 0.48893 0.3117 0.07629 0.0
C938 C 0.45731 0.29722 0.10828 0.0
C939 C 0.45078 0.32065 0.1187 0.0
C940 C 0.46357 0.33952 0.10714 0.0
C941 C 0.48248 0.3347 0.08636 0.0
C942 C 0.47605 0.29321 0.08704 0.0
H943 H 0.49155 0.34992 0.07877 0.0
H944 H 0.47977 0.27493 0.07984 0.0
H945 H 0.5339 0.26236 0.00366 0.0
H946 H 0.55992 0.33404 0.02812 0.0
C947 C 0.53259 0.36286 0.05984 0.0
C948 C 0.47561 0.31772 0.97896 0.0
C949 C 0.5585 0.29309 0.11451 0.0
C950 C 0.49966 0.24798 0.03591 0.0
H951 H 0.4817 0.36665 0.96488 0.0
H952 H 0.51279 0.39176 0.00943 0.0
H953 H 0.56554 0.37553 0.1178 0.0
H954 H 0.58006 0.33704 0.14738 0.0
H955 H 0.5572 0.24297 0.12402 0.0
H956 H 0.52503 0.21784 0.08081 0.0
H957 H 0.46251 0.23635 0.98221 0.0
H958 H 0.44966 0.27467 0.95095 0.0
H959 H 0.56903 0.25301 0.97333 0.0
H960 H 0.59529 0.32575 0.99791 0.0
H961 H 0.44826 0.28189 0.11671 0.0
H962 H 0.45894 0.35804 0.11376 0.0
C963 C 0.77935 0.56031 0.1683 0.0
C964 C 0.75874 0.57462 0.1708 0.0
C965 C 0.74259 0.56761 0.14347 0.0
C966 C 0.75413 0.54949 0.12587 0.0
N967 N 0.77645 0.54449 0.14056 0.0
Co968 Co 0.79937 0.52007 0.12296 0.0
N969 N 0.77255 0.50336 0.09273 0.0
C970 C 0.75056 0.5126 0.08331 0.0
C971 C 0.73553 0.49664 0.06279 0.0
C972 C 0.749 0.47616 0.0588 0.0
C973 C 0.77169 0.48088 0.07695 0.0
N974 N 0.82226 0.49567 0.10517 0.0
C975 C 0.81735 0.47395 0.08795 0.0
C976 C 0.83893 0.46284 0.07957 0.0
C977 C 0.85791 0.47825 0.09193 0.0
C978 C 0.84693 0.49788 0.10705 0.0
N979 N 0.82621 0.53688 0.15306 0.0
C980 C 0.85048 0.53466 0.15003 0.0
C981 C 0.86471 0.54885 0.17412 0.0
C982 C 0.84836 0.56094 0.19328 0.0
C983 C 0.82498 0.55345 0.17968 0.0
N984 N 0.79276 0.4999 0.15823 0.0
C985 C 0.78319 0.46697 0.20373 0.0
C986 C 0.80741 0.47284 0.19846 0.0
C987 C 0.81179 0.48931 0.17557 0.0
C988 C 0.76388 0.47872 0.1869 0.0
C989 C 0.76907 0.49524 0.16441 0.0
N990 N 0.80607 0.54014 0.08748 0.0
C991 C 0.81571 0.57876 0.07 0.0
C992 C 0.81602 0.56876 0.03678 0.0
C993 C 0.81126 0.54417 0.02938 0.0
C994 C 0.80647 0.53016 0.05511 0.0
C995 C 0.81056 0.56419 0.09491 0.0
H996 H 0.80307 0.51123 0.04874 0.0
H997 H 0.81015 0.57245 0.12018 0.0
H998 H 0.83057 0.4929 0.17112 0.0
H999 H 0.75389 0.50373 0.15132 0.0
C1000 C 0.74324 0.53449 0.09872 0.0
C1001 C 0.80216 0.56402 0.19063 0.0
C1002 C 0.79259 0.46445 0.0764 0.0
C1003 C 0.85909 0.51672 0.12751 0.0
H1004 H 0.75583 0.58893 0.19003 0.0
H1005 H 0.72435 0.57447 0.13769 0.0
H1006 H 0.7167 0.49921 0.05299 0.0
H1007 H 0.74283 0.45972 0.04404 0.0
H1008 H 0.84076 0.44555 0.06561 0.0
H1009 H 0.87739 0.47518 0.09087 0.0
H1010 H 0.88459 0.54982 0.17791 0.0
H1011 H 0.85309 0.57402 0.21451 0.0
H1012 H 0.82285 0.46402 0.2108 0.0
H1013 H 0.74491 0.47488 0.19066 0.0
H1014 H 0.81893 0.5978 0.07661 0.0
H1015 H 0.81143 0.5358 0.00396 0.0
H1016 H 0.16495 0.35474 0.38375 0.0
H1017 H 0.1391 0.41762 0.3378 0.0
H1018 H 0.10264 0.41838 0.36934 0.0
H1019 H 0.0785 0.4013 0.41018 0.0
H1020 H 0.1066 0.34066 0.46043 0.0
H1021 H 0.14136 0.3385 0.42645 0.0
C1022 C 0.15121 0.3685 0.38073 0.0
C1023 C 0.15442 0.38605 0.35864 0.0
C1024 C 0.13066 0.36912 0.39948 0.0
C1025 C 0.13681 0.40398 0.35484 0.0
C1026 C 0.11603 0.40439 0.37279 0.0
C1027 C 0.09231 0.38776 0.41412 0.0
C1028 C 0.08962 0.37111 0.43788 0.0
C1029 C 0.11284 0.38712 0.39534 0.0
C1030 C 0.10766 0.35342 0.44189 0.0
C1031 C 0.12779 0.35229 0.42268 0.0
H1032 H 0.70465 0.15529 0.44645 0.0
H1033 H 0.78069 0.17365 0.47708 0.0
H1034 H 0.78302 0.14187 0.51514 0.0
H1035 H 0.76377 0.10875 0.53868 0.0
H1036 H 0.68866 0.08779 0.50529 0.0
H1037 H 0.68533 0.12123 0.46995 0.0
C1038 C 0.72162 0.15228 0.46164 0.0
C1039 C 0.74251 0.16654 0.45911 0.0
C1040 C 0.72293 0.1337 0.48295 0.0
C1041 C 0.76451 0.16261 0.47859 0.0
C1042 C 0.76581 0.14456 0.50034 0.0
C1043 C 0.74674 0.11121 0.52333 0.0
C1044 C 0.72661 0.09558 0.52433 0.0
C1045 C 0.74521 0.12989 0.50244 0.0
C1046 C 0.70442 0.09962 0.50514 0.0
C1047 C 0.70255 0.11862 0.48475 0.0
H1048 H 0.87204 0.77239 0.3798 0.0
H1049 H 0.83686 0.77183 0.47171 0.0
H1050 H 0.87712 0.77457 0.50437 0.0
H1051 H 0.92241 0.77995 0.50672 0.0
H1052 H 0.95697 0.78089 0.41452 0.0
H1053 H 0.9169 0.77534 0.38183 0.0
C1054 C 0.87322 0.77282 0.40699 0.0
C1055 C 0.85158 0.77216 0.4234 0.0
C1056 C 0.8963 0.77459 0.42545 0.0
C1057 C 0.85332 0.77225 0.45856 0.0
C1058 C 0.87629 0.77397 0.47722 0.0
C1059 C 0.92099 0.77865 0.47947 0.0
C1060 C 0.94229 0.78071 0.46278 0.0
C1061 C 0.89789 0.77555 0.46095 0.0
C1062 C 0.9406 0.77918 0.42757 0.0
C1063 C 0.91778 0.77609 0.409 0.0
H1064 H 0.27178 0.98024 0.34791 0.0
H1065 H 0.19263 0.98434 0.33395 0.0
H1066 H 0.19462 0.02549 0.36064 0.0
H1067 H 0.21898 0.06026 0.38767 0.0
H1068 H 0.29791 0.05418 0.40555 0.0
H1069 H 0.29575 0.01388 0.37724 0.0
C1070 C 0.25488 0.98989 0.35127 0.0
C1071 C 0.23208 0.97911 0.33914 0.0
C1072 C 0.25612 0.01333 0.36696 0.0
C1073 C 0.21045 0.99225 0.34284 0.0
C1074 C 0.21157 0.01575 0.35819 0.0
C1075 C 0.23571 0.05009 0.38574 0.0
C1076 C 0.25859 0.06056 0.39852 0.0
C1077 C 0.23433 0.02649 0.3703 0.0
C1078 C 0.28007 0.04703 0.39523 0.0
C1079 C 0.27887 0.02379 0.37937 0.0
H1080 H 0.14822 0.84425 0.7112 0.0
H1081 H 0.19387 0.83347 0.62875 0.0
H1082 H 0.15864 0.81781 0.59162 0.0
H1083 H 0.11432 0.81006 0.58112 0.0
H1084 H 0.0678 0.82178 0.66199 0.0
H1085 H 0.10375 0.83454 0.70116 0.0
C1086 C 0.15045 0.83837 0.68515 0.0
C1087 C 0.17375 0.83994 0.67293 0.0
C1088 C 0.12991 0.82974 0.6636 0.0
C1089 C 0.17633 0.83205 0.63912 0.0
C1090 C 0.15612 0.8233 0.61769 0.0
C1091 C 0.11224 0.815 0.60751 0.0
C1092 C 0.08874 0.81475 0.61903 0.0
C1093 C 0.13281 0.82241 0.62951 0.0
C1094 C 0.08591 0.82163 0.65293 0.0
C1095 C 0.10639 0.82897 0.67516 0.0
H1096 H 0.31346 0.31375 0.67296 0.0
H1097 H 0.33573 0.26604 0.74821 0.0
H1098 H 0.3312 0.23159 0.70543 0.0
H1099 H 0.31777 0.21504 0.64719 0.0
H1100 H 0.29235 0.26318 0.57394 0.0
H1101 H 0.30155 0.29771 0.61526 0.0
C1102 C 0.3179 0.29587 0.67984 0.0
C1103 C 0.32526 0.29236 0.71346 0.0
C1104 C 0.31441 0.27631 0.65553 0.0
C1105 C 0.33024 0.26907 0.72233 0.0
C1106 C 0.32754 0.24944 0.69796 0.0
C1107 C 0.31451 0.23315 0.64042 0.0
C1108 C 0.30441 0.23679 0.60785 0.0
C1109 C 0.31915 0.25282 0.6646 0.0
C1110 C 0.29998 0.26016 0.59907 0.0
C1111 C 0.30524 0.27981 0.6226 0.0
H1112 H 0.89333 0.35639 0.74562 0.0
H1113 H 0.88587 0.28602 0.69182 0.0
H1114 H 0.91175 0.29863 0.64967 0.0
H1115 H 0.93542 0.33008 0.6273 0.0
H1116 H 0.94485 0.39982 0.68229 0.0
H1117 H 0.91919 0.38721 0.72496 0.0
C1118 C 0.89754 0.34386 0.72471 0.0
C1119 C 0.88776 0.32037 0.72161 0.0
C1120 C 0.91257 0.35118 0.70082 0.0
C1121 C 0.89341 0.30413 0.69471 0.0
C1122 C 0.90804 0.31137 0.67057 0.0
C1123 C 0.93173 0.34246 0.64865 0.0
C1124 C 0.94155 0.36588 0.65167 0.0
C1125 C 0.9175 0.3349 0.67321 0.0
C1126 C 0.93723 0.38175 0.67958 0.0
C1127 C 0.92263 0.37454 0.70386 0.0
H1128 H 0.8099 0.8617 0.75313 0.0
H1129 H 0.73824 0.85627 0.78924 0.0
H1130 H 0.72579 0.89323 0.76436 0.0
H1131 H 0.73566 0.92717 0.73293 0.0
H1132 H 0.80676 0.93076 0.69402 0.0
H1133 H 0.8193 0.89481 0.72037 0.0
C1134 C 0.79161 0.86873 0.75566 0.0
C1135 C 0.77502 0.85651 0.77302 0.0
C1136 C 0.78459 0.88974 0.74115 0.0
C1137 C 0.75123 0.86544 0.77576 0.0
C1138 C 0.74418 0.88657 0.76171 0.0
C1139 C 0.75381 0.92 0.72992 0.0
C1140 C 0.77026 0.93188 0.71173 0.0
C1141 C 0.76074 0.89886 0.74435 0.0
C1142 C 0.79387 0.92242 0.70854 0.0
C1143 C 0.80101 0.90167 0.7233 0.0
H1144 H 0.91775 0.76334 0.73941 0.0
H1145 H 0.86064 0.80438 0.69086 0.0
H1146 H 0.88661 0.8104 0.64557 0.0
H1147 H 0.9256 0.80388 0.61982 0.0
H1148 H 0.98241 0.76236 0.66823 0.0
H1149 H 0.9565 0.75657 0.71352 0.0
C1150 C 0.91111 0.77379 0.71905 0.0
C1151 C 0.88741 0.78356 0.71856 0.0
C1152 C 0.92604 0.77699 0.69305 0.0
C1153 C 0.8788 0.79663 0.69169 0.0
C1154 C 0.89365 0.80012 0.66588 0.0
C1155 C 0.93234 0.79371 0.64042 0.0
C1156 C 0.95591 0.78361 0.64072 0.0
C1157 C 0.91731 0.79038 0.66631 0.0
C1158 C 0.96426 0.77013 0.66727 0.0
C1159 C 0.94951 0.76692 0.69325 0.0
H1160 H 0.26205 0.00514 0.60332 0.0
H1161 H 0.31026 0.03712 0.68691 0.0
H1162 H 0.31339 0.07373 0.65874 0.0
H1163 H 0.30211 0.09721 0.61036 0.0
H1164 H 0.25431 0.06524 0.52673 0.0
H1165 H 0.25157 0.02816 0.55451 0.0
C1166 C 0.27345 0.01999 0.61528 0.0
C1167 C 0.28577 0.01824 0.64743 0.0
C1168 C 0.27528 0.0411 0.59881 0.0
C1169 C 0.3002 0.03795 0.66253 0.0
C1170 C 0.30214 0.05892 0.64631 0.0
C1171 C 0.29126 0.082 0.59825 0.0
C1172 C 0.2785 0.08382 0.56653 0.0
C1173 C 0.2897 0.06078 0.61451 0.0
C1174 C 0.26432 0.06415 0.55111 0.0
C1175 C 0.26274 0.04299 0.56702 0.0
H1176 H 0.17645 0.38587 0.64605 0.0
H1177 H 0.14393 0.42026 0.73191 0.0
H1178 H 0.10351 0.41773 0.70037 0.0
H1179 H 0.0772 0.4049 0.64884 0.0
H1180 H 0.10952 0.37203 0.56227 0.0
H1181 H 0.15041 0.37486 0.59354 0.0
C1182 C 0.16061 0.39317 0.65771 0.0
C1183 C 0.16324 0.40314 0.69138 0.0
C1184 C 0.13744 0.39188 0.63931 0.0
C1185 C 0.14239 0.41213 0.70623 0.0
C1186 C 0.11928 0.41081 0.68817 0.0
C1187 C 0.09333 0.39875 0.6368 0.0
C1188 C 0.09072 0.38872 0.60331 0.0
C1189 C 0.11658 0.4006 0.65482 0.0
C1190 C 0.11142 0.38013 0.58798 0.0
C1191 C 0.13466 0.38171 0.60584 0.0
H1192 H 0.76742 0.15548 0.78649 0.0
H1193 H 0.71063 0.18532 0.72107 0.0
H1194 H 0.70496 0.14662 0.68797 0.0
H1195 H 0.71834 0.10494 0.67501 0.0
H1196 H 0.77228 0.0744 0.74326 0.0
H1197 H 0.77642 0.11265 0.77838 0.0
C1198 C 0.75327 0.15354 0.76563 0.0
C1199 C 0.73983 0.17366 0.75614 0.0
C1200 C 0.7497 0.13107 0.74702 0.0
C1201 C 0.72184 0.17048 0.72856 0.0
C1202 C 0.71843 0.14826 0.70966 0.0
C1203 C 0.7307 0.10667 0.69787 0.0
C1204 C 0.74539 0.08719 0.70629 0.0
C1205 C 0.73266 0.12858 0.71818 0.0
C1206 C 0.76114 0.08939 0.73611 0.0
C1207 C 0.76348 0.1112 0.75613 0.0
H1208 H 0.84937 0.35709 0.42741 0.0
H1209 H 0.87731 0.30611 0.35302 0.0
H1210 H 0.91915 0.31968 0.37163 0.0
H1211 H 0.94835 0.34255 0.41364 0.0
H1212 H 0.91992 0.38721 0.49424 0.0
H1213 H 0.87799 0.37944 0.46902 0.0
C1214 C 0.86451 0.34866 0.41535 0.0
C1215 C 0.85987 0.33032 0.38902 0.0
C1216 C 0.88867 0.3554 0.42754 0.0
C1217 C 0.87997 0.32045 0.37305 0.0
C1218 C 0.90407 0.328 0.38396 0.0
C1219 C 0.9329 0.35074 0.42529 0.0
C1220 C 0.93717 0.36561 0.45546 0.0
C1221 C 0.90869 0.34497 0.4118 0.0
C1222 C 0.91709 0.376 0.47069 0.0
C1223 C 0.89311 0.3714 0.45645 0.0
H1224 H 0.73297 0.89532 0.42682 0.0
H1225 H 0.76831 0.84936 0.4968 0.0
H1226 H 0.76719 0.88138 0.54237 0.0
H1227 H 0.75684 0.92287 0.56219 0.0
H1228 H 0.72258 0.96904 0.49202 0.0
H1229 H 0.72261 0.93659 0.44652 0.0
C1230 C 0.74067 0.89239 0.45197 0.0
C1231 C 0.75083 0.87 0.45833 0.0
C1232 C 0.74007 0.9109 0.47799 0.0
C1233 C 0.76023 0.86634 0.49124 0.0
C1234 C 0.75968 0.88467 0.51729 0.0
C1235 C 0.74934 0.92565 0.53689 0.0
C1236 C 0.73971 0.94811 0.53017 0.0
C1237 C 0.74969 0.90703 0.51095 0.0
C1238 C 0.73 0.95176 0.49751 0.0
C1239 C 0.7301 0.93329 0.4716 0.0
H1240 H 0.13286 0.82645 0.31364 0.0
H1241 H 0.16757 0.88287 0.38265 0.0
H1242 H 0.1398 0.87451 0.42476 0.0
H1243 H 0.10665 0.85043 0.44258 0.0
H1244 H 0.07286 0.79276 0.37478 0.0
H1245 H 0.09889 0.80264 0.33136 0.0
C1246 C 0.13408 0.83707 0.33776 0.0
C1247 C 0.15224 0.8552 0.34512 0.0
C1248 C 0.11827 0.83192 0.36205 0.0
C1249 C 0.15386 0.86869 0.37657 0.0
C1250 C 0.13799 0.86393 0.40061 0.0
C1251 C 0.1051 0.83986 0.41842 0.0
C1252 C 0.08791 0.82077 0.41211 0.0
C1253 C 0.12036 0.84539 0.39379 0.0
C1254 C 0.08577 0.80767 0.3803 0.0
C1255 C 0.10076 0.81322 0.35549 0.0
H1256 H 0.28214 0.30183 0.38448 0.0
H1257 H 0.2298 0.26763 0.30722 0.0
H1258 H 0.2314 0.23101 0.33556 0.0
H1259 H 0.24737 0.20822 0.38258 0.0
H1260 H 0.29652 0.24329 0.46241 0.0
H1261 H 0.29628 0.27986 0.43304 0.0
C1262 C 0.27076 0.28657 0.37391 0.0
C1263 C 0.25609 0.28781 0.3432 0.0
C1264 C 0.27119 0.26552 0.39092 0.0
C1265 C 0.24185 0.26738 0.33013 0.0
C1266 C 0.24253 0.24633 0.34655 0.0
C1267 C 0.25785 0.22397 0.39361 0.0
C1268 C 0.27189 0.22307 0.4247 0.0
C1269 C 0.25715 0.24513 0.37692 0.0
C1270 C 0.28559 0.24353 0.43852 0.0
C1271 C 0.28541 0.26445 0.42175 0.0
H1272 H 0.69791 0.82926 0.88156 0.0
H1273 H 0.69862 0.76205 0.92634 0.0
H1274 H 0.66035 0.77224 0.95109 0.0
H1275 H 0.62676 0.79997 0.95986 0.0
H1276 H 0.62409 0.8663 0.91257 0.0
H1277 H 0.66327 0.85701 0.88962 0.0
C1278 C 0.68964 0.81696 0.89685 0.0
C1279 C 0.70092 0.7949 0.90203 0.0
C1280 C 0.66738 0.8228 0.91064 0.0
C1281 C 0.69007 0.77901 0.92173 0.0
C1282 C 0.66826 0.78486 0.93596 0.0
C1283 C 0.63446 0.81229 0.94411 0.0
C1284 C 0.62227 0.83376 0.93788 0.0
C1285 C 0.65667 0.80661 0.9304 0.0
C1286 C 0.63309 0.84976 0.91816 0.0
C1287 C 0.65545 0.84438 0.90481 0.0
H1288 H 0.2346 0.80958 0.8391 0.0
H1289 H 0.31208 0.79886 0.83001 0.0
H1290 H 0.31123 0.76421 0.86256 0.0
H1291 H 0.28882 0.7372 0.89514 0.0
H1292 H 0.21192 0.74922 0.90642 0.0
H1293 H 0.21244 0.78317 0.87229 0.0
C1294 C 0.25142 0.79991 0.84446 0.0
C1295 C 0.27334 0.80705 0.83169 0.0
C1296 C 0.25097 0.78012 0.86388 0.0
C1297 C 0.29476 0.79375 0.83871 0.0
C1298 C 0.29437 0.77393 0.85766 0.0
C1299 C 0.27213 0.74714 0.88992 0.0
C1300 C 0.25037 0.74059 0.90348 0.0
C1301 C 0.2726 0.76693 0.87044 0.0
C1302 C 0.229 0.75394 0.89669 0.0
C1303 C 0.22926 0.77335 0.87703 0.0
H1304 H 0.39925 0.3454 0.86168 0.0
H1305 H 0.36684 0.38221 0.94584 0.0
H1306 H 0.39878 0.36696 0.98466 0.0
H1307 H 0.43633 0.34367 0.99467 0.0
H1308 H 0.46942 0.3075 0.91097 0.0
H1309 H 0.43676 0.32182 0.87177 0.0
C1310 C 0.39935 0.35024 0.8885 0.0
C1311 C 0.38078 0.36494 0.9009 0.0
C1312 C 0.41774 0.34136 0.91067 0.0
C1313 C 0.38086 0.37077 0.93574 0.0
C1314 C 0.39912 0.36211 0.95793 0.0
C1315 C 0.43612 0.33882 0.96782 0.0
C1316 C 0.45487 0.3245 0.95544 0.0
C1317 C 0.4176 0.34739 0.94568 0.0
C1318 C 0.45485 0.31835 0.92078 0.0
C1319 C 0.43634 0.32664 0.8985 0.0
H1320 H 0.78594 0.35982 0.00117 0.0
H1321 H 0.77491 0.40107 0.91537 0.0
H1322 H 0.77786 0.43824 0.95231 0.0
H1323 H 0.7848 0.45927 0.00881 0.0
H1324 H 0.79569 0.41881 0.09502 0.0
H1325 H 0.79215 0.38106 0.05823 0.0
C1326 C 0.78416 0.37695 0.99062 0.0
C1327 C 0.77999 0.37761 0.95554 0.0
C1328 C 0.78606 0.39838 0.01207 0.0
C1329 C 0.77762 0.39998 0.94227 0.0
C1330 C 0.77954 0.42129 0.96335 0.0
C1331 C 0.78615 0.44211 0.01941 0.0
C1332 C 0.79012 0.44157 0.05438 0.0
C1333 C 0.78386 0.42071 0.99821 0.0
C1334 C 0.79237 0.41944 0.06808 0.0
C1335 C 0.79034 0.39796 0.04709 0.0
H1336 H 0.65988 0.27335 0.1938 0.0
H1337 H 0.61814 0.29348 0.27818 0.0
H1338 H 0.5815 0.29838 0.23996 0.0
H1339 H 0.5614 0.29754 0.1823 0.0
H1340 H 0.60287 0.27692 0.09823 0.0
H1341 H 0.63948 0.27091 0.13656 0.0
C1342 C 0.6427 0.27852 0.20388 0.0
C1343 C 0.64181 0.28315 0.2388 0.0
C1344 C 0.62165 0.28103 0.18181 0.0
C1345 C 0.61947 0.29021 0.25138 0.0
C1346 C 0.59844 0.29283 0.22957 0.0
C1347 C 0.57848 0.29151 0.17265 0.0
C1348 C 0.57977 0.2876 0.13786 0.0
C1349 C 0.59935 0.28838 0.19477 0.0
C1350 C 0.60175 0.2799 0.12512 0.0
C1351 C 0.62258 0.2766 0.14695 0.0
H1352 H 0.78579 0.64547 0.30508 0.0
H1353 H 0.8109 0.68883 0.2308 0.0
H1354 H 0.82025 0.6528 0.19588 0.0
H1355 H 0.81687 0.60904 0.18311 0.0
H1356 H 0.78888 0.56554 0.25461 0.0
H1357 H 0.78477 0.60141 0.29376 0.0
C1358 C 0.79341 0.64707 0.28134 0.0
C1359 C 0.79757 0.66998 0.27075 0.0
C1360 C 0.79802 0.62618 0.26069 0.0
C1361 C 0.80785 0.67158 0.24007 0.0
C1362 C 0.81297 0.65092 0.21978 0.0
C1363 C 0.81043 0.6075 0.20765 0.0
C1364 C 0.80344 0.58488 0.21641 0.0
C1365 C 0.80757 0.62818 0.22944 0.0
C1366 C 0.79461 0.58286 0.24777 0.0
C1367 C 0.79215 0.60335 0.26995 0.0
H1368 H 0.37624 0.88736 0.17694 0.0
H1369 H 0.32809 0.85911 0.09108 0.0
H1370 H 0.36302 0.85512 0.05692 0.0
H1371 H 0.40748 0.85851 0.05199 0.0
H1372 H 0.45554 0.88776 0.13734 0.0
H1373 H 0.42047 0.89264 0.17121 0.0
C1374 C 0.37347 0.88035 0.15074 0.0
C1375 C 0.34972 0.87344 0.13653 0.0
C1376 C 0.3936 0.87828 0.13123 0.0
C1377 C 0.34623 0.86468 0.10246 0.0
C1378 C 0.36618 0.86229 0.08299 0.0
C1379 C 0.41021 0.86593 0.07802 0.0
C1380 C 0.434 0.87262 0.09229 0.0
C1381 C 0.38997 0.86885 0.09719 0.0
C1382 C 0.43734 0.88258 0.12584 0.0
C1383 C 0.41733 0.88527 0.14522 0.0
H1384 H 0.21635 0.50785 0.15509 0.0
H1385 H 0.29436 0.49623 0.15387 0.0
H1386 H 0.29778 0.52955 0.11928 0.0
H1387 H 0.27864 0.56174 0.08831 0.0
H1388 H 0.20065 0.57347 0.08971 0.0
H1389 H 0.19725 0.54025 0.12443 0.0
C1390 C 0.23409 0.51247 0.14709 0.0
C1391 C 0.25507 0.49945 0.15739 0.0
C1392 C 0.23596 0.5317 0.12693 0.0
C1393 C 0.27792 0.50605 0.14695 0.0
C1394 C 0.2799 0.52507 0.12691 0.0
C1395 C 0.26091 0.55722 0.09645 0.0
C1396 C 0.23993 0.57021 0.08607 0.0
C1397 C 0.25906 0.53807 0.11673 0.0
C1398 C 0.2171 0.56369 0.09666 0.0
C1399 C 0.21513 0.54471 0.11678 0.0
H1400 H 0.37281 0.35747 0.21804 0.0
H1401 H 0.33364 0.29422 0.17088 0.0
H1402 H 0.36817 0.28418 0.13766 0.0
H1403 H 0.40812 0.29489 0.11942 0.0
H1404 H 0.44814 0.35708 0.16886 0.0
H1405 H 0.4144 0.36609 0.20357 0.0
C1406 C 0.37205 0.34113 0.20117 0.0
C1407 C 0.35066 0.32661 0.19698 0.0
C1408 C 0.39191 0.3355 0.18212 0.0
C1409 C 0.34981 0.30581 0.17438 0.0
C1410 C 0.36953 0.30007 0.15537 0.0
C1411 C 0.40977 0.31016 0.1382 0.0
C1412 C 0.43068 0.32538 0.14112 0.0
C1413 C 0.39049 0.31503 0.15861 0.0
C1414 C 0.43211 0.34533 0.16535 0.0
C1415 C 0.41289 0.3504 0.1855 0.0
H1416 H 0.77951 0.38671 0.30369 0.0
H1417 H 0.72509 0.35715 0.22593 0.0
H1418 H 0.72969 0.39218 0.1947 0.0
H1419 H 0.75039 0.43032 0.18848 0.0
H1420 H 0.80521 0.45969 0.26579 0.0
H1421 H 0.7991 0.42566 0.29848 0.0
C1422 C 0.76842 0.38812 0.28013 0.0
C1423 C 0.75201 0.36941 0.26708 0.0
C1424 C 0.77127 0.4082 0.26227 0.0
C1425 C 0.73804 0.37124 0.23627 0.0
C1426 C 0.74058 0.39128 0.2185 0.0
C1427 C 0.76068 0.42946 0.21276 0.0
C1428 C 0.77815 0.44747 0.22482 0.0
C1429 C 0.75729 0.40975 0.23113 0.0
C1430 C 0.79175 0.44593 0.25597 0.0
C1431 C 0.78825 0.42652 0.27464 0.0
H1432 H 0.62502 0.82501 0.21724 0.0
H1433 H 0.66816 0.78506 0.14677 0.0
H1434 H 0.6398 0.79565 0.10008 0.0
H1435 H 0.60267 0.81628 0.07911 0.0
H1436 H 0.55855 0.85485 0.14918 0.0
H1437 H 0.58723 0.84471 0.19636 0.0
C1438 C 0.62805 0.81838 0.19171 0.0
C1439 C 0.64876 0.80434 0.18554 0.0
C1440 C 0.61153 0.82436 0.16495 0.0
C1441 C 0.6526 0.7962 0.15222 0.0
C1442 C 0.63632 0.80214 0.12549 0.0
C1443 C 0.59945 0.82237 0.10479 0.0
C1444 C 0.57878 0.83628 0.11099 0.0
C1445 C 0.6158 0.81625 0.13156 0.0
C1446 C 0.57452 0.84418 0.14413 0.0
C1447 C 0.59085 0.83835 0.17096 0.0
H1448 H 0.20625 0.7459 0.19257 0.0
H1449 H 0.15338 0.78164 0.12788 0.0
H1450 H 0.15645 0.74964 0.08341 0.0
H1451 H 0.18136 0.7169 0.05986 0.0
H1452 H 0.22752 0.67668 0.12685 0.0
H1453 H 0.21947 0.70542 0.17423 0.0
C1454 C 0.19446 0.74652 0.16949 0.0
C1455 C 0.18096 0.76733 0.16309 0.0
C1456 C 0.19537 0.72746 0.14432 0.0
C1457 C 0.16544 0.76688 0.13294 0.0
C1458 C 0.16694 0.7484 0.10744 0.0
C1459 C 0.18842 0.71339 0.08503 0.0
C1460 C 0.20511 0.69471 0.08982 0.0
C1461 C 0.183 0.72938 0.11225 0.0
C1462 C 0.21468 0.69103 0.12263 0.0
C1463 C 0.21021 0.70752 0.14964 0.0
H1464 H 0.37333 0.87781 0.88238 0.0
H1465 H 0.41092 0.90288 0.80173 0.0
H1466 H 0.45052 0.89812 0.83351 0.0
H1467 H 0.47473 0.88567 0.88371 0.0
H1468 H 0.4373 0.86188 0.96496 0.0
H1469 H 0.39736 0.86765 0.9338 0.0
C1470 C 0.39015 0.88255 0.87192 0.0
C1471 C 0.38907 0.89044 0.83952 0.0
C1472 C 0.4129 0.88006 0.89052 0.0
C1473 C 0.41115 0.89624 0.82627 0.0
C1474 C 0.43384 0.89371 0.84453 0.0
C1475 C 0.45774 0.88216 0.89464 0.0
C1476 C 0.45869 0.87365 0.92651 0.0
C1477 C 0.43496 0.88547 0.87656 0.0
C1478 C 0.43676 0.86866 0.94045 0.0
C1479 C 0.41403 0.87187 0.92264 0.0
H1480 H 0.27888 0.4965 0.92191 0.0
H1481 H 0.34039 0.51762 0.87002 0.0
H1482 H 0.3352 0.55937 0.89118 0.0
H1483 H 0.30989 0.59024 0.91864 0.0
H1484 H 0.25087 0.56877 0.97436 0.0
H1485 H 0.25841 0.52653 0.95737 0.0
C1486 C 0.29177 0.50999 0.91606 0.0
C1487 C 0.30972 0.50383 0.89379 0.0
C1488 C 0.28892 0.53393 0.92866 0.0
C1489 C 0.32594 0.52185 0.88631 0.0
C1490 C 0.32306 0.54576 0.89849 0.0
C1491 C 0.29946 0.57629 0.92831 0.0
C1492 C 0.28018 0.58246 0.94821 0.0
C1493 C 0.30414 0.55209 0.91885 0.0
C1494 C 0.26592 0.56427 0.95917 0.0
C1495 C 0.2702 0.54019 0.94944 0.0
H1496 H 0.68316 0.25237 0.92372 0.0
H1497 H 0.67398 0.31782 0.87513 0.0
H1498 H 0.63595 0.3259 0.90151 0.0
H1499 H 0.60574 0.31486 0.93929 0.0
H1500 H 0.61466 0.24953 0.98813 0.0
H1501 H 0.65226 0.24083 0.96069 0.0
C1502 C 0.67281 0.26839 0.919 0.0
C1503 C 0.68131 0.28443 0.89748 0.0
C1504 C 0.65093 0.27294 0.93427 0.0
C1505 C 0.66763 0.30503 0.89127 0.0
C1506 C 0.64597 0.30974 0.90649 0.0
C1507 C 0.61599 0.29877 0.94399 0.0
C1508 C 0.60752 0.28292 0.96576 0.0
C1509 C 0.63752 0.2939 0.92816 0.0
C1510 C 0.62073 0.26192 0.97124 0.0
C1511 C 0.64228 0.257 0.95571 0.0
H1512 H 0.81403 0.6339 0.91729 0.0
H1513 H 0.87731 0.66582 0.97782 0.0
H1514 H 0.87472 0.63553 0.0176 0.0
H1515 H 0.85246 0.60191 0.03723 0.0
H1516 H 0.7894 0.57007 0.97632 0.0
H1517 H 0.79431 0.5981 0.93403 0.0
C1518 C 0.82769 0.63388 0.93867 0.0
C1519 C 0.84576 0.65217 0.94468 0.0
C1520 C 0.82603 0.61653 0.96142 0.0
C1521 C 0.86302 0.65211 0.97289 0.0
C1522 C 0.86157 0.6348 0.9956 0.0
C1523 C 0.83991 0.60109 0.01457 0.0
C1524 C 0.82049 0.58418 0.00992 0.0
C1525 C 0.84278 0.6173 0.99052 0.0
C1526 C 0.80454 0.58293 0.98031 0.0
C1527 C 0.80726 0.599 0.95625 0.0
loop_
_geom_bond_atom_site_label_1
_geom_bond_atom_site_label_2
_geom_bond_distance
_geom_bond_site_symmetry_2
_ccdc_geom_bond_type
H0 O26 0.856 . S
H1 O29 0.854 . S
H2 C37 0.930 . S
H3 C38 0.930 . S
H4 C40 0.930 . S
H5 C41 0.930 . S
H6 C43 0.931 . S
H7 C44 0.930 . S
H8 C46 0.930 . S
H9 C47 0.929 . S
H10 C49 0.930 . S
H11 C50 0.931 . S
H12 C52 0.930 . S
H13 C53 0.929 . S
H14 C55 0.931 . S
H15 C56 0.930 . S
H16 C58 0.930 . S
H17 C59 0.932 . S
H18 C61 0.930 . S
H19 C62 0.929 . S
H20 C64 0.931 . S
H21 C65 0.930 . S
H22 C67 0.929 . S
H23 C68 0.931 . S
H24 C70 0.930 . S
H25 C71 0.929 . S
O26 H0 0.856 . S
O26 C72 1.300 . S
O27 C72 1.209 . S
O28 C73 1.199 . S
O29 H1 0.854 . S
O29 C73 1.297 . S
C30 C31 1.404 . S
C30 C35 1.397 . S
C30 C36 1.492 . S
C31 C30 1.404 . S
C31 C32 1.396 . S
C31 C42 1.492 . S
C32 C31 1.396 . S
C32 C33 1.397 . S
C32 C48 1.509 . S
C33 C32 1.397 . S
C33 C34 1.412 . S
C33 C54 1.485 . S
C34 C33 1.412 . S
C34 C35 1.388 . S
C34 C60 1.490 . S
C35 C30 1.397 . S
C35 C34 1.388 . S
C35 C66 1.519 . S
C36 C30 1.492 . S
C36 C37 1.363 . S
C36 C41 1.390 . S
C37 H2 0.930 . S
C37 C36 1.363 . S
C37 C38 1.372 . S
C38 H3 0.930 . S
C38 C37 1.372 . S
C38 C39 1.383 . S
C39 C38 1.383 . S
C39 C40 1.395 . S
C40 H4 0.930 . S
C40 C39 1.395 . S
C40 C41 1.362 . S
C41 H5 0.930 . S
C41 C36 1.390 . S
C41 C40 1.362 . S
C42 C31 1.492 . S
C42 C43 1.377 . S
C42 C47 1.397 . S
C43 H6 0.931 . S
C43 C42 1.377 . S
C43 C44 1.376 . S
C44 H7 0.930 . S
C44 C43 1.376 . S
C44 C45 1.376 . S
C45 C44 1.376 . S
C45 C46 1.378 . S
C45 C72 1.486 . S
C46 H8 0.930 . S
C46 C45 1.378 . S
C46 C47 1.376 . S
C47 H9 0.929 . S
C47 C42 1.397 . S
C47 C46 1.376 . S
C48 C32 1.509 . S
C48 C49 1.391 . S
C48 C53 1.386 . S
C49 H10 0.930 . S
C49 C48 1.391 . S
C49 C50 1.375 . S
C50 H11 0.931 . S
C50 C49 1.375 . S
C50 C51 1.375 . S
C51 C50 1.375 . S
C51 C52 1.361 . S
C52 H12 0.930 . S
C52 C51 1.361 . S
C52 C53 1.399 . S
C53 H13 0.929 . S
C53 C48 1.386 . S
C53 C52 1.399 . S
C54 C33 1.485 . S
C54 C55 1.394 . S
C54 C59 1.360 . S
C55 H14 0.931 . S
C55 C54 1.394 . S
C55 C56 1.372 . S
C56 H15 0.930 . S
C56 C55 1.372 . S
C56 C57 1.397 . S
C57 C56 1.397 . S
C57 C58 1.390 . S
C57 C73 1.476 . S
C58 H16 0.930 . S
C58 C57 1.390 . S
C58 C59 1.366 . S
C59 H17 0.932 . S
C59 C54 1.360 . S
C59 C58 1.366 . S
C60 C34 1.490 . S
C60 C61 1.380 . S
C60 C65 1.386 . S
C61 H18 0.930 . S
C61 C60 1.380 . S
C61 C62 1.381 . S
C62 H19 0.929 . S
C62 C61 1.381 . S
C62 C63 1.371 . S
C63 C62 1.371 . S
C63 C64 1.380 . S
C64 H20 0.931 . S
C64 C63 1.380 . S
C64 C65 1.387 . S
C65 H21 0.930 . S
C65 C60 1.386 . S
C65 C64 1.387 . S
C66 C35 1.519 . S
C66 C67 1.377 . S
C66 C71 1.361 . S
C67 H22 0.929 . S
C67 C66 1.377 . S
C67 C68 1.386 . S
C68 H23 0.931 . S
C68 C67 1.386 . S
C68 C69 1.363 . S
C69 C68 1.363 . S
C69 C70 1.385 . S
C70 H24 0.930 . S
C70 C69 1.385 . S
C70 C71 1.396 . S
C71 H25 0.929 . S
C71 C66 1.361 . S
C71 C70 1.396 . S
C72 O26 1.300 . S
C72 O27 1.209 . S
C72 C45 1.486 . S
C73 O28 1.199 . S
C73 O29 1.297 . S
C73 C57 1.476 . S
H74 O100 0.856 . S
H75 O103 0.854 . S
H76 C111 0.930 . S
H77 C112 0.930 . S
H78 C114 0.930 . S
H79 C115 0.930 . S
H80 C117 0.931 . S
H81 C118 0.930 . S
H82 C120 0.930 . S
H83 C121 0.929 . S
H84 C123 0.930 . S
H85 C124 0.931 . S
H86 C126 0.930 . S
H87 C127 0.929 . S
H88 C129 0.931 . S
H89 C130 0.930 . S
H90 C132 0.930 . S
H91 C133 0.932 . S
H92 C135 0.930 . S
H93 C136 0.929 . S
H94 C138 0.931 . S
H95 C139 0.930 . S
H96 C141 0.929 . S
H97 C142 0.931 . S
H98 C144 0.930 . S
H99 C145 0.929 . S
O100 H74 0.856 . S
O100 C146 1.300 . S
O101 C146 1.209 . S
O102 C147 1.199 . S
O103 H75 0.854 . S
O103 C147 1.297 . S
C104 C105 1.404 . S
C104 C109 1.397 . S
C104 C110 1.492 . S
C105 C104 1.404 . S
C105 C106 1.396 . S
C105 C116 1.492 . S
C106 C105 1.396 . S
C106 C107 1.397 . S
C106 C122 1.509 . S
C107 C106 1.397 . S
C107 C108 1.412 . S
C107 C128 1.485 . S
C108 C107 1.412 . S
C108 C109 1.388 . S
C108 C134 1.490 . S
C109 C104 1.397 . S
C109 C108 1.388 . S
C109 C140 1.519 . S
C110 C104 1.492 . S
C110 C111 1.363 . S
C110 C115 1.390 . S
C111 H76 0.930 . S
C111 C110 1.363 . S
C111 C112 1.372 . S
C112 H77 0.930 . S
C112 C111 1.372 . S
C112 C113 1.383 . S
C113 C112 1.383 . S
C113 C114 1.395 . S
C114 H78 0.930 . S
C114 C113 1.395 . S
C114 C115 1.362 . S
C115 H79 0.930 . S
C115 C110 1.390 . S
C115 C114 1.362 . S
C116 C105 1.492 . S
C116 C117 1.377 . S
C116 C121 1.397 . S
C117 H80 0.931 . S
C117 C116 1.377 . S
C117 C118 1.376 . S
C118 H81 0.930 . S
C118 C117 1.376 . S
C118 C119 1.376 . S
C119 C118 1.376 . S
C119 C120 1.378 . S
C119 C146 1.486 . S
C120 H82 0.930 . S
C120 C119 1.378 . S
C120 C121 1.376 . S
C121 H83 0.929 . S
C121 C116 1.397 . S
C121 C120 1.376 . S
C122 C106 1.509 . S
C122 C123 1.391 . S
C122 C127 1.386 . S
C123 H84 0.930 . S
C123 C122 1.391 . S
C123 C124 1.375 . S
C124 H85 0.931 . S
C124 C123 1.375 . S
C124 C125 1.375 . S
C125 C124 1.375 . S
C125 C126 1.361 . S
C126 H86 0.930 . S
C126 C125 1.361 . S
C126 C127 1.399 . S
C127 H87 0.929 . S
C127 C122 1.386 . S
C127 C126 1.399 . S
C128 C107 1.485 . S
C128 C129 1.394 . S
C128 C133 1.360 . S
C129 H88 0.931 . S
C129 C128 1.394 . S
C129 C130 1.372 . S
C130 H89 0.930 . S
C130 C129 1.372 . S
C130 C131 1.397 . S
C131 C130 1.397 . S
C131 C132 1.390 . S
C131 C147 1.476 . S
C132 H90 0.930 . S
C132 C131 1.390 . S
C132 C133 1.366 . S
C133 H91 0.932 . S
C133 C128 1.360 . S
C133 C132 1.366 . S
C134 C108 1.490 . S
C134 C135 1.380 . S
C134 C139 1.386 . S
C135 H92 0.930 . S
C135 C134 1.380 . S
C135 C136 1.381 . S
C136 H93 0.929 . S
C136 C135 1.381 . S
C136 C137 1.371 . S
C137 C136 1.371 . S
C137 C138 1.380 . S
C138 H94 0.931 . S
C138 C137 1.380 . S
C138 C139 1.387 . S
C139 H95 0.930 . S
C139 C134 1.386 . S
C139 C138 1.387 . S
C140 C109 1.519 . S
C140 C141 1.377 . S
C140 C145 1.361 . S
C141 H96 0.929 . S
C141 C140 1.377 . S
C141 C142 1.386 . S
C142 H97 0.931 . S
C142 C141 1.386 . S
C142 C143 1.363 . S
C143 C142 1.363 . S
C143 C144 1.385 . S
C144 H98 0.930 . S
C144 C143 1.385 . S
C144 C145 1.396 . S
C145 H99 0.929 . S
C145 C140 1.361 . S
C145 C144 1.396 . S
C146 O100 1.300 . S
C146 O101 1.209 . S
C146 C119 1.486 . S
C147 O102 1.199 . S
C147 O103 1.297 . S
C147 C131 1.476 . S
H148 O174 0.856 . S
H149 O177 0.854 . S
H150 C185 0.930 . S
H151 C186 0.930 . S
H152 C188 0.930 . S
H153 C189 0.930 . S
H154 C191 0.931 . S
H155 C192 0.930 . S
H156 C194 0.930 . S
H157 C195 0.929 . S
H158 C197 0.930 . S
H159 C198 0.931 . S
H160 C200 0.930 . S
H161 C201 0.929 . S
H162 C203 0.931 . S
H163 C204 0.930 . S
H164 C206 0.930 . S
H165 C207 0.932 . S
H166 C209 0.930 . S
H167 C210 0.929 . S
H168 C212 0.931 . S
H169 C213 0.930 . S
H170 C215 0.929 . S
H171 C216 0.931 . S
H172 C218 0.930 . S
H173 C219 0.929 . S
O174 H148 0.856 . S
O174 C220 1.300 . S
O175 C220 1.209 . S
O176 C221 1.199 . S
O177 H149 0.854 . S
O177 C221 1.297 . S
C178 C179 1.404 . S
C178 C183 1.397 . S
C178 C184 1.492 . S
C179 C178 1.404 . S
C179 C180 1.396 . S
C179 C190 1.492 . S
C180 C179 1.396 . S
C180 C181 1.397 . S
C180 C196 1.509 . S
C181 C180 1.397 . S
C181 C182 1.412 . S
C181 C202 1.485 . S
C182 C181 1.412 . S
C182 C183 1.388 . S
C182 C208 1.490 . S
C183 C178 1.397 . S
C183 C182 1.388 . S
C183 C214 1.519 . S
C184 C178 1.492 . S
C184 C185 1.363 . S
C184 C189 1.390 . S
C185 H150 0.930 . S
C185 C184 1.363 . S
C185 C186 1.372 . S
C186 H151 0.930 . S
C186 C185 1.372 . S
C186 C187 1.383 . S
C187 C186 1.383 . S
C187 C188 1.395 . S
C188 H152 0.930 . S
C188 C187 1.395 . S
C188 C189 1.362 . S
C189 H153 0.930 . S
C189 C184 1.390 . S
C189 C188 1.362 . S
C190 C179 1.492 . S
C190 C191 1.377 . S
C190 C195 1.397 . S
C191 H154 0.931 . S
C191 C190 1.377 . S
C191 C192 1.376 . S
C192 H155 0.930 . S
C192 C191 1.376 . S
C192 C193 1.376 . S
C193 C192 1.376 . S
C193 C194 1.378 . S
C193 C220 1.486 . S
C194 H156 0.930 . S
C194 C193 1.378 . S
C194 C195 1.376 . S
C195 H157 0.929 . S
C195 C190 1.397 . S
C195 C194 1.376 . S
C196 C180 1.509 . S
C196 C197 1.391 . S
C196 C201 1.386 . S
C197 H158 0.930 . S
C197 C196 1.391 . S
C197 C198 1.375 . S
C198 H159 0.931 . S
C198 C197 1.375 . S
C198 C199 1.375 . S
C199 C198 1.375 . S
C199 C200 1.361 . S
C200 H160 0.930 . S
C200 C199 1.361 . S
C200 C201 1.399 . S
C201 H161 0.929 . S
C201 C196 1.386 . S
C201 C200 1.399 . S
C202 C181 1.485 . S
C202 C203 1.394 . S
C202 C207 1.360 . S
C203 H162 0.931 . S
C203 C202 1.394 . S
C203 C204 1.372 . S
C204 H163 0.930 . S
C204 C203 1.372 . S
C204 C205 1.397 . S
C205 C204 1.397 . S
C205 C206 1.390 . S
C205 C221 1.476 . S
C206 H164 0.930 . S
C206 C205 1.390 . S
C206 C207 1.366 . S
C207 H165 0.932 . S
C207 C202 1.360 . S
C207 C206 1.366 . S
C208 C182 1.490 . S
C208 C209 1.380 . S
C208 C213 1.386 . S
C209 H166 0.930 . S
C209 C208 1.380 . S
C209 C210 1.381 . S
C210 H167 0.929 . S
C210 C209 1.381 . S
C210 C211 1.371 . S
C211 C210 1.371 . S
C211 C212 1.380 . S
C212 H168 0.931 . S
C212 C211 1.380 . S
C212 C213 1.387 . S
C213 H169 0.930 . S
C213 C208 1.386 . S
C213 C212 1.387 . S
C214 C183 1.519 . S
C214 C215 1.377 . S
C214 C219 1.361 . S
C215 H170 0.929 . S
C215 C214 1.377 . S
C215 C216 1.386 . S
C216 H171 0.931 . S
C216 C215 1.386 . S
C216 C217 1.363 . S
C217 C216 1.363 . S
C217 C218 1.385 . S
C218 H172 0.930 . S
C218 C217 1.385 . S
C218 C219 1.396 . S
C219 H173 0.929 . S
C219 C214 1.361 . S
C219 C218 1.396 . S
C220 O174 1.300 . S
C220 O175 1.209 . S
C220 C193 1.486 . S
C221 O176 1.199 . S
C221 O177 1.297 . S
C221 C205 1.476 . S
H222 O248 0.856 . S
H223 O251 0.854 . S
H224 C259 0.930 . S
H225 C260 0.930 . S
H226 C262 0.930 . S
H227 C263 0.930 . S
H228 C265 0.931 . S
H229 C266 0.930 . S
H230 C268 0.930 . S
H231 C269 0.929 . S
H232 C271 0.930 . S
H233 C272 0.931 . S
H234 C274 0.930 . S
H235 C275 0.929 . S
H236 C277 0.931 . S
H237 C278 0.930 . S
H238 C280 0.930 . S
H239 C281 0.932 . S
H240 C283 0.930 . S
H241 C284 0.929 . S
H242 C286 0.931 . S
H243 C287 0.930 . S
H244 C289 0.929 . S
H245 C290 0.931 . S
H246 C292 0.930 . S
H247 C293 0.929 . S
O248 H222 0.856 . S
O248 C294 1.300 . S
O249 C294 1.209 . S
O250 C295 1.199 . S
O251 H223 0.854 . S
O251 C295 1.297 . S
C252 C253 1.404 . S
C252 C257 1.397 . S
C252 C258 1.492 . S
C253 C252 1.404 . S
C253 C254 1.396 . S
C253 C264 1.492 . S
C254 C253 1.396 . S
C254 C255 1.397 . S
C254 C270 1.509 . S
C255 C254 1.397 . S
C255 C256 1.412 . S
C255 C276 1.485 . S
C256 C255 1.412 . S
C256 C257 1.388 . S
C256 C282 1.490 . S
C257 C252 1.397 . S
C257 C256 1.388 . S
C257 C288 1.519 . S
C258 C252 1.492 . S
C258 C259 1.363 . S
C258 C263 1.390 . S
C259 H224 0.930 . S
C259 C258 1.363 . S
C259 C260 1.372 . S
C260 H225 0.930 . S
C260 C259 1.372 . S
C260 C261 1.383 . S
C261 C260 1.383 . S
C261 C262 1.395 . S
C262 H226 0.930 . S
C262 C261 1.395 . S
C262 C263 1.362 . S
C263 H227 0.930 . S
C263 C258 1.390 . S
C263 C262 1.362 . S
C264 C253 1.492 . S
C264 C265 1.377 . S
C264 C269 1.397 . S
C265 H228 0.931 . S
C265 C264 1.377 . S
C265 C266 1.376 . S
C266 H229 0.930 . S
C266 C265 1.376 . S
C266 C267 1.376 . S
C267 C266 1.376 . S
C267 C268 1.378 . S
C267 C294 1.486 1_565 S
C268 H230 0.930 . S
C268 C267 1.378 . S
C268 C269 1.376 . S
C269 H231 0.929 . S
C269 C264 1.397 . S
C269 C268 1.376 . S
C270 C254 1.509 . S
C270 C271 1.391 . S
C270 C275 1.386 . S
C271 H232 0.930 . S
C271 C270 1.391 . S
C271 C272 1.375 . S
C272 H233 0.931 . S
C272 C271 1.375 . S
C272 C273 1.375 . S
C273 C272 1.375 . S
C273 C274 1.361 . S
C274 H234 0.930 . S
C274 C273 1.361 . S
C274 C275 1.399 . S
C275 H235 0.929 . S
C275 C270 1.386 . S
C275 C274 1.399 . S
C276 C255 1.485 . S
C276 C277 1.394 . S
C276 C281 1.360 . S
C277 H236 0.931 . S
C277 C276 1.394 . S
C277 C278 1.372 . S
C278 H237 0.930 . S
C278 C277 1.372 . S
C278 C279 1.397 . S
C279 C278 1.397 . S
C279 C280 1.390 . S
C279 C295 1.476 . S
C280 H238 0.930 . S
C280 C279 1.390 . S
C280 C281 1.366 . S
C281 H239 0.932 . S
C281 C276 1.360 . S
C281 C280 1.366 . S
C282 C256 1.490 . S
C282 C283 1.380 . S
C282 C287 1.386 . S
C283 H240 0.930 . S
C283 C282 1.380 . S
C283 C284 1.381 . S
C284 H241 0.929 . S
C284 C283 1.381 . S
C284 C285 1.371 . S
C285 C284 1.371 . S
C285 C286 1.380 . S
C286 H242 0.931 . S
C286 C285 1.380 . S
C286 C287 1.387 . S
C287 H243 0.930 . S
C287 C282 1.386 . S
C287 C286 1.387 . S
C288 C257 1.519 . S
C288 C289 1.377 . S
C288 C293 1.361 . S
C289 H244 0.929 . S
C289 C288 1.377 . S
C289 C290 1.386 . S
C290 H245 0.931 . S
C290 C289 1.386 . S
C290 C291 1.363 . S
C291 C290 1.363 . S
C291 C292 1.385 . S
C292 H246 0.930 . S
C292 C291 1.385 . S
C292 C293 1.396 . S
C293 H247 0.929 . S
C293 C288 1.361 . S
C293 C292 1.396 . S
C294 O248 1.300 . S
C294 O249 1.209 . S
C294 C267 1.486 1_545 S
C295 O250 1.199 . S
C295 O251 1.297 . S
C295 C279 1.476 . S
H296 O322 0.856 . S
H297 O325 0.854 . S
H298 C333 0.930 . S
H299 C334 0.930 . S
H300 C336 0.930 . S
H301 C337 0.930 . S
H302 C339 0.931 . S
H303 C340 0.930 . S
H304 C342 0.930 . S
H305 C343 0.929 . S
H306 C345 0.930 . S
H307 C346 0.931 . S
H308 C348 0.930 1_545 S
H309 C349 0.929 . S
H310 C351 0.931 . S
H311 C352 0.930 . S
H312 C354 0.930 . S
H313 C355 0.932 . S
H314 C357 0.930 . S
H315 C358 0.929 . S
H316 C360 0.931 . S
H317 C361 0.930 . S
H318 C363 0.929 . S
H319 C364 0.931 . S
H320 C366 0.930 . S
H321 C367 0.929 . S
O322 H296 0.856 . S
O322 C368 1.300 . S
O323 C368 1.209 . S
O324 C369 1.199 . S
O325 H297 0.854 . S
O325 C369 1.297 . S
C326 C327 1.404 . S
C326 C331 1.397 . S
C326 C332 1.492 . S
C327 C326 1.404 . S
C327 C328 1.396 . S
C327 C338 1.492 . S
C328 C327 1.396 . S
C328 C329 1.397 . S
C328 C344 1.509 . S
C329 C328 1.397 . S
C329 C330 1.412 . S
C329 C350 1.485 . S
C330 C329 1.412 . S
C330 C331 1.388 . S
C330 C356 1.490 . S
C331 C326 1.397 . S
C331 C330 1.388 . S
C331 C362 1.519 . S
C332 C326 1.492 . S
C332 C333 1.363 . S
C332 C337 1.390 . S
C333 H298 0.930 . S
C333 C332 1.363 . S
C333 C334 1.372 . S
C334 H299 0.930 . S
C334 C333 1.372 . S
C334 C335 1.383 . S
C335 C334 1.383 . S
C335 C336 1.395 . S
C336 H300 0.930 . S
C336 C335 1.395 . S
C336 C337 1.362 . S
C337 H301 0.930 . S
C337 C332 1.390 . S
C337 C336 1.362 . S
C338 C327 1.492 . S
C338 C339 1.377 . S
C338 C343 1.397 . S
C339 H302 0.931 . S
C339 C338 1.377 . S
C339 C340 1.376 . S
C340 H303 0.930 . S
C340 C339 1.376 . S
C340 C341 1.376 . S
C341 C340 1.376 . S
C341 C342 1.378 . S
C341 C368 1.486 . S
C342 H304 0.930 . S
C342 C341 1.378 . S
C342 C343 1.376 . S
C343 H305 0.929 . S
C343 C338 1.397 . S
C343 C342 1.376 . S
C344 C328 1.509 . S
C344 C345 1.391 . S
C344 C349 1.386 . S
C345 H306 0.930 . S
C345 C344 1.391 . S
C345 C346 1.375 . S
C346 H307 0.931 . S
C346 C345 1.375 . S
C346 C347 1.375 . S
C347 C346 1.375 . S
C347 C348 1.361 . S
C348 H308 0.930 1_565 S
C348 C347 1.361 . S
C348 C349 1.399 . S
C349 H309 0.929 . S
C349 C344 1.386 . S
C349 C348 1.399 . S
C350 C329 1.485 . S
C350 C351 1.394 . S
C350 C355 1.360 . S
C351 H310 0.931 . S
C351 C350 1.394 . S
C351 C352 1.372 . S
C352 H311 0.930 . S
C352 C351 1.372 . S
C352 C353 1.397 . S
C353 C352 1.397 . S
C353 C354 1.390 . S
C353 C369 1.476 . S
C354 H312 0.930 . S
C354 C353 1.390 . S
C354 C355 1.366 . S
C355 H313 0.932 . S
C355 C350 1.360 . S
C355 C354 1.366 . S
C356 C330 1.490 . S
C356 C357 1.380 . S
C356 C361 1.386 . S
C357 H314 0.930 . S
C357 C356 1.380 . S
C357 C358 1.381 . S
C358 H315 0.929 . S
C358 C357 1.381 . S
C358 C359 1.371 . S
C359 C358 1.371 . S
C359 C360 1.380 . S
C360 H316 0.931 . S
C360 C359 1.380 . S
C360 C361 1.387 . S
C361 H317 0.930 . S
C361 C356 1.386 . S
C361 C360 1.387 . S
C362 C331 1.519 . S
C362 C363 1.377 . S
C362 C367 1.361 . S
C363 H318 0.929 . S
C363 C362 1.377 . S
C363 C364 1.386 . S
C364 H319 0.931 . S
C364 C363 1.386 . S
C364 C365 1.363 . S
C365 C364 1.363 . S
C365 C366 1.385 . S
C366 H320 0.930 . S
C366 C365 1.385 . S
C366 C367 1.396 . S
C367 H321 0.929 . S
C367 C362 1.361 . S
C367 C366 1.396 . S
C368 O322 1.300 . S
C368 O323 1.209 . S
C368 C341 1.486 . S
C369 O324 1.199 . S
C369 O325 1.297 . S
C369 C353 1.476 . S
H370 O396 0.856 . S
H371 O399 0.854 . S
H372 C407 0.930 . S
H373 C408 0.930 . S
H374 C410 0.930 . S
H375 C411 0.930 . S
H376 C413 0.931 . S
H377 C414 0.930 . S
H378 C416 0.930 . S
H379 C417 0.929 . S
H380 C419 0.930 . S
H381 C420 0.931 . S
H382 C422 0.930 . S
H383 C423 0.929 . S
H384 C425 0.931 . S
H385 C426 0.930 . S
H386 C428 0.930 . S
H387 C429 0.932 . S
H388 C431 0.930 . S
H389 C432 0.929 . S
H390 C434 0.931 . S
H391 C435 0.930 . S
H392 C437 0.929 . S
H393 C438 0.931 . S
H394 C440 0.930 . S
H395 C441 0.929 . S
O396 H370 0.856 . S
O396 C442 1.300 . S
O397 C442 1.209 . S
O398 C443 1.199 . S
O399 H371 0.854 . S
O399 C443 1.297 . S
C400 C401 1.404 . S
C400 C405 1.397 . S
C400 C406 1.492 . S
C401 C400 1.404 . S
C401 C402 1.396 . S
C401 C412 1.492 . S
C402 C401 1.396 . S
C402 C403 1.397 . S
C402 C418 1.509 . S
C403 C402 1.397 . S
C403 C404 1.412 . S
C403 C424 1.485 . S
C404 C403 1.412 . S
C404 C405 1.388 . S
C404 C430 1.490 . S
C405 C400 1.397 . S
C405 C404 1.388 . S
C405 C436 1.519 . S
C406 C400 1.492 . S
C406 C407 1.363 . S
C406 C411 1.390 . S
C407 H372 0.930 . S
C407 C406 1.363 . S
C407 C408 1.372 . S
C408 H373 0.930 . S
C408 C407 1.372 . S
C408 C409 1.383 . S
C409 C408 1.383 . S
C409 C410 1.395 . S
C410 H374 0.930 . S
C410 C409 1.395 . S
C410 C411 1.362 . S
C411 H375 0.930 . S
C411 C406 1.390 . S
C411 C410 1.362 . S
C412 C401 1.492 . S
C412 C413 1.377 . S
C412 C417 1.397 . S
C413 H376 0.931 . S
C413 C412 1.377 . S
C413 C414 1.376 . S
C414 H377 0.930 . S
C414 C413 1.376 . S
C414 C415 1.376 . S
C415 C414 1.376 . S
C415 C416 1.378 . S
C415 C442 1.486 . S
C416 H378 0.930 . S
C416 C415 1.378 . S
C416 C417 1.376 . S
C417 H379 0.929 . S
C417 C412 1.397 . S
C417 C416 1.376 . S
C418 C402 1.509 . S
C418 C419 1.391 . S
C418 C423 1.386 . S
C419 H380 0.930 . S
C419 C418 1.391 . S
C419 C420 1.375 . S
C420 H381 0.931 . S
C420 C419 1.375 . S
C420 C421 1.375 . S
C421 C420 1.375 . S
C421 C422 1.361 . S
C422 H382 0.930 . S
C422 C421 1.361 . S
C422 C423 1.399 . S
C423 H383 0.929 . S
C423 C418 1.386 . S
C423 C422 1.399 . S
C424 C403 1.485 . S
C424 C425 1.394 . S
C424 C429 1.360 . S
C425 H384 0.931 . S
C425 C424 1.394 . S
C425 C426 1.372 . S
C426 H385 0.930 . S
C426 C425 1.372 . S
C426 C427 1.397 . S
C427 C426 1.397 . S
C427 C428 1.390 . S
C427 C443 1.476 . S
C428 H386 0.930 . S
C428 C427 1.390 . S
C428 C429 1.366 . S
C429 H387 0.932 . S
C429 C424 1.360 . S
C429 C428 1.366 . S
C430 C404 1.490 . S
C430 C431 1.380 . S
C430 C435 1.386 . S
C431 H388 0.930 . S
C431 C430 1.380 . S
C431 C432 1.381 . S
C432 H389 0.929 . S
C432 C431 1.381 . S
C432 C433 1.371 . S
C433 C432 1.371 . S
C433 C434 1.380 . S
C434 H390 0.931 . S
C434 C433 1.380 . S
C434 C435 1.387 . S
C435 H391 0.930 . S
C435 C430 1.386 . S
C435 C434 1.387 . S
C436 C405 1.519 . S
C436 C437 1.377 . S
C436 C441 1.361 . S
C437 H392 0.929 . S
C437 C436 1.377 . S
C437 C438 1.386 . S
C438 H393 0.931 . S
C438 C437 1.386 . S
C438 C439 1.363 . S
C439 C438 1.363 . S
C439 C440 1.385 . S
C440 H394 0.930 . S
C440 C439 1.385 . S
C440 C441 1.396 . S
C441 H395 0.929 . S
C441 C436 1.361 . S
C441 C440 1.396 . S
C442 O396 1.300 . S
C442 O397 1.209 . S
C442 C415 1.486 . S
C443 O398 1.199 . S
C443 O399 1.297 . S
C443 C427 1.476 . S
H444 O470 0.856 . S
H445 O473 0.854 . S
H446 C481 0.930 . S
H447 C482 0.930 . S
H448 C484 0.930 . S
H449 C485 0.930 . S
H450 C487 0.931 . S
H451 C488 0.930 . S
H452 C490 0.930 . S
H453 C491 0.929 . S
H454 C493 0.930 . S
H455 C494 0.931 . S
H456 C496 0.930 . S
H457 C497 0.929 . S
H458 C499 0.931 . S
H459 C500 0.930 . S
H460 C502 0.930 . S
H461 C503 0.932 . S
H462 C505 0.930 . S
H463 C506 0.929 . S
H464 C508 0.931 . S
H465 C509 0.930 . S
H466 C511 0.929 . S
H467 C512 0.931 . S
H468 C514 0.930 . S
H469 C515 0.929 . S
O470 H444 0.856 . S
O470 C516 1.300 . S
O471 C516 1.209 . S
O472 C517 1.199 . S
O473 H445 0.854 . S
O473 C517 1.297 . S
C474 C475 1.404 . S
C474 C479 1.397 . S
C474 C480 1.492 . S
C475 C474 1.404 . S
C475 C476 1.396 . S
C475 C486 1.492 . S
C476 C475 1.396 . S
C476 C477 1.397 . S
C476 C492 1.509 . S
C477 C476 1.397 . S
C477 C478 1.412 . S
C477 C498 1.485 . S
C478 C477 1.412 . S
C478 C479 1.388 . S
C478 C504 1.490 . S
C479 C474 1.397 . S
C479 C478 1.388 . S
C479 C510 1.519 . S
C480 C474 1.492 . S
C480 C481 1.363 . S
C480 C485 1.390 . S
C481 H446 0.930 . S
C481 C480 1.363 . S
C481 C482 1.372 . S
C482 H447 0.930 . S
C482 C481 1.372 . S
C482 C483 1.383 . S
C483 C482 1.383 . S
C483 C484 1.395 . S
C484 H448 0.930 . S
C484 C483 1.395 . S
C484 C485 1.362 . S
C485 H449 0.930 . S
C485 C480 1.390 . S
C485 C484 1.362 . S
C486 C475 1.492 . S
C486 C487 1.377 . S
C486 C491 1.397 . S
C487 H450 0.931 . S
C487 C486 1.377 . S
C487 C488 1.376 . S
C488 H451 0.930 . S
C488 C487 1.376 . S
C488 C489 1.376 . S
C489 C488 1.376 . S
C489 C490 1.378 . S
C489 C516 1.486 . S
C490 H452 0.930 . S
C490 C489 1.378 . S
C490 C491 1.376 . S
C491 H453 0.929 . S
C491 C486 1.397 . S
C491 C490 1.376 . S
C492 C476 1.509 . S
C492 C493 1.391 . S
C492 C497 1.386 . S
C493 H454 0.930 . S
C493 C492 1.391 . S
C493 C494 1.375 . S
C494 H455 0.931 . S
C494 C493 1.375 . S
C494 C495 1.375 . S
C495 C494 1.375 . S
C495 C496 1.361 . S
C496 H456 0.930 . S
C496 C495 1.361 . S
C496 C497 1.399 . S
C497 H457 0.929 . S
C497 C492 1.386 . S
C497 C496 1.399 . S
C498 C477 1.485 . S
C498 C499 1.394 . S
C498 C503 1.360 . S
C499 H458 0.931 . S
C499 C498 1.394 . S
C499 C500 1.372 . S
C500 H459 0.930 . S
C500 C499 1.372 . S
C500 C501 1.397 . S
C501 C500 1.397 . S
C501 C502 1.390 . S
C501 C517 1.476 . S
C502 H460 0.930 . S
C502 C501 1.390 . S
C502 C503 1.366 . S
C503 H461 0.932 . S
C503 C498 1.360 . S
C503 C502 1.366 . S
C504 C478 1.490 . S
C504 C505 1.380 . S
C504 C509 1.386 . S
C505 H462 0.930 . S
C505 C504 1.380 . S
C505 C506 1.381 . S
C506 H463 0.929 . S
C506 C505 1.381 . S
C506 C507 1.371 . S
C507 C506 1.371 . S
C507 C508 1.380 . S
C508 H464 0.931 . S
C508 C507 1.380 . S
C508 C509 1.387 . S
C509 H465 0.930 . S
C509 C504 1.386 . S
C509 C508 1.387 . S
C510 C479 1.519 . S
C510 C511 1.377 . S
C510 C515 1.361 . S
C511 H466 0.929 . S
C511 C510 1.377 . S
C511 C512 1.386 . S
C512 H467 0.931 . S
C512 C511 1.386 . S
C512 C513 1.363 . S
C513 C512 1.363 . S
C513 C514 1.385 . S
C514 H468 0.930 . S
C514 C513 1.385 . S
C514 C515 1.396 . S
C515 H469 0.929 . S
C515 C510 1.361 . S
C515 C514 1.396 . S
C516 O470 1.300 . S
C516 O471 1.209 . S
C516 C489 1.486 . S
C517 O472 1.199 . S
C517 O473 1.297 . S
C517 C501 1.476 . S
H518 O544 0.856 . S
H519 O547 0.854 . S
H520 C555 0.930 . S
H521 C556 0.930 . S
H522 C558 0.930 . S
H523 C559 0.930 . S
H524 C561 0.931 . S
H525 C562 0.930 . S
H526 C564 0.930 . S
H527 C565 0.929 . S
H528 C567 0.930 . S
H529 C568 0.931 . S
H530 C570 0.930 . S
H531 C571 0.929 . S
H532 C573 0.931 . S
H533 C574 0.930 . S
H534 C576 0.930 . S
H535 C577 0.932 . S
H536 C579 0.930 . S
H537 C580 0.929 . S
H538 C582 0.931 . S
H539 C583 0.930 . S
H540 C585 0.929 . S
H541 C586 0.931 . S
H542 C588 0.930 . S
H543 C589 0.929 . S
O544 H518 0.856 . S
O544 C590 1.300 . S
O545 C590 1.209 . S
O546 C591 1.199 1_554 S
O547 H519 0.854 . S
O547 C591 1.297 . S
C548 C549 1.404 . S
C548 C553 1.397 . S
C548 C554 1.492 . S
C549 C548 1.404 . S
C549 C550 1.396 . S
C549 C560 1.492 . S
C550 C549 1.396 . S
C550 C551 1.397 . S
C550 C566 1.509 . S
C551 C550 1.397 . S
C551 C552 1.412 . S
C551 C572 1.485 . S
C552 C551 1.412 . S
C552 C553 1.388 . S
C552 C578 1.490 . S
C553 C548 1.397 . S
C553 C552 1.388 . S
C553 C584 1.519 . S
C554 C548 1.492 . S
C554 C555 1.363 . S
C554 C559 1.390 . S
C555 H520 0.930 . S
C555 C554 1.363 . S
C555 C556 1.372 . S
C556 H521 0.930 . S
C556 C555 1.372 . S
C556 C557 1.383 . S
C557 C556 1.383 . S
C557 C558 1.395 . S
C558 H522 0.930 . S
C558 C557 1.395 . S
C558 C559 1.362 . S
C559 H523 0.930 . S
C559 C554 1.390 . S
C559 C558 1.362 . S
C560 C549 1.492 . S
C560 C561 1.377 . S
C560 C565 1.397 . S
C561 H524 0.931 . S
C561 C560 1.377 . S
C561 C562 1.376 . S
C562 H525 0.930 . S
C562 C561 1.376 . S
C562 C563 1.376 . S
C563 C562 1.376 . S
C563 C564 1.378 . S
C563 C590 1.486 . S
C564 H526 0.930 . S
C564 C563 1.378 . S
C564 C565 1.376 . S
C565 H527 0.929 . S
C565 C560 1.397 . S
C565 C564 1.376 . S
C566 C550 1.509 . S
C566 C567 1.391 . S
C566 C571 1.386 . S
C567 H528 0.930 . S
C567 C566 1.391 . S
C567 C568 1.375 . S
C568 H529 0.931 . S
C568 C567 1.375 . S
C568 C569 1.375 . S
C569 C568 1.375 . S
C569 C570 1.361 . S
C570 H530 0.930 . S
C570 C569 1.361 . S
C570 C571 1.399 . S
C571 H531 0.929 . S
C571 C566 1.386 . S
C571 C570 1.399 . S
C572 C551 1.485 . S
C572 C573 1.394 . S
C572 C577 1.360 . S
C573 H532 0.931 . S
C573 C572 1.394 . S
C573 C574 1.372 . S
C574 H533 0.930 . S
C574 C573 1.372 . S
C574 C575 1.397 . S
C575 C574 1.397 . S
C575 C576 1.390 . S
C575 C591 1.476 . S
C576 H534 0.930 . S
C576 C575 1.390 . S
C576 C577 1.366 . S
C577 H535 0.932 . S
C577 C572 1.360 . S
C577 C576 1.366 . S
C578 C552 1.490 . S
C578 C579 1.380 . S
C578 C583 1.386 . S
C579 H536 0.930 . S
C579 C578 1.380 . S
C579 C580 1.381 . S
C580 H537 0.929 . S
C580 C579 1.381 . S
C580 C581 1.371 . S
C581 C580 1.371 . S
C581 C582 1.380 . S
C582 H538 0.931 . S
C582 C581 1.380 . S
C582 C583 1.387 . S
C583 H539 0.930 . S
C583 C578 1.386 . S
C583 C582 1.387 . S
C584 C553 1.519 . S
C584 C585 1.377 . S
C584 C589 1.361 . S
C585 H540 0.929 . S
C585 C584 1.377 . S
C585 C586 1.386 . S
C586 H541 0.931 . S
C586 C585 1.386 . S
C586 C587 1.363 . S
C587 C586 1.363 . S
C587 C588 1.385 . S
C588 H542 0.930 . S
C588 C587 1.385 . S
C588 C589 1.396 . S
C589 H543 0.929 . S
C589 C584 1.361 . S
C589 C588 1.396 . S
C590 O544 1.300 . S
C590 O545 1.209 . S
C590 C563 1.486 . S
C591 O546 1.199 1_556 S
C591 O547 1.297 . S
C591 C575 1.476 . S
C592 C593 1.443 . S
C592 N596 1.376 . S
C592 C630 1.389 . S
C593 C592 1.443 . S
C593 C594 1.340 . S
C593 H633 0.951 . S
C594 C593 1.340 . S
C594 C595 1.439 . S
C594 H634 0.950 . S
C595 C594 1.439 . S
C595 N596 1.374 . S
C595 C629 1.395 1_455 S
N596 C592 1.376 . S
N596 C595 1.374 . S
N596 Co597 2.008 . S
Co597 N596 2.008 . S
Co597 N598 1.995 1_455 S
Co597 N603 2.008 1_455 S
Co597 N608 1.995 . S
Co597 N613 2.282 1_455 S
Co597 N619 2.282 . S
N598 Co597 1.995 1_655 S
N598 C599 1.376 . S
N598 C602 1.383 . S
C599 N598 1.376 . S
C599 C600 1.446 . S
C599 C629 1.391 . S
C600 C599 1.446 . S
C600 C601 1.339 . S
C600 H635 0.949 . S
C601 C600 1.339 . S
C601 C602 1.439 . S
C601 H636 0.950 . S
C602 N598 1.383 . S
C602 C601 1.439 . S
C602 C631 1.392 . S
N603 Co597 2.008 1_655 S
N603 C604 1.376 . S
N603 C607 1.374 . S
C604 N603 1.376 . S
C604 C605 1.443 . S
C604 C631 1.389 . S
C605 C604 1.443 . S
C605 C606 1.340 . S
C605 H637 0.951 . S
C606 C605 1.340 . S
C606 C607 1.439 . S
C606 H638 0.950 . S
C607 N603 1.374 . S
C607 C606 1.439 . S
C607 C632 1.395 1_655 S
N608 Co597 1.995 . S
N608 C609 1.376 . S
N608 C612 1.383 . S
C609 N608 1.376 . S
C609 C610 1.446 . S
C609 C632 1.391 . S
C610 C609 1.446 . S
C610 C611 1.339 . S
C610 H639 0.949 . S
C611 C610 1.339 . S
C611 C612 1.439 . S
C611 H640 0.950 . S
C612 N608 1.383 . S
C612 C611 1.439 . S
C612 C630 1.392 . S
N613 Co597 2.282 1_655 S
N613 C616 1.332 . S
N613 C618 1.332 . S
C614 C615 1.386 . S
C614 C617 1.388 . S
C615 C614 1.386 . S
C615 C616 1.382 . S
C615 H641 0.950 . S
C616 N613 1.332 . S
C616 C615 1.382 . S
C616 H627 0.952 . S
C617 C614 1.388 . S
C617 C618 1.382 . S
C617 H642 0.950 . S
C618 N613 1.332 . S
C618 C617 1.382 . S
C618 H628 0.948 . S
N619 Co597 2.282 . S
N619 C623 1.332 . S
N619 C624 1.332 . S
C620 C621 1.388 . S
C620 C624 1.382 . S
C620 H643 0.950 . S
C621 C620 1.388 . S
C621 C622 1.386 . S
C622 C621 1.386 . S
C622 C623 1.382 . S
C622 H644 0.950 . S
C623 N619 1.332 . S
C623 C622 1.382 . S
C623 H625 0.952 . S
C624 N619 1.332 . S
C624 C620 1.382 . S
C624 H626 0.948 . S
H625 C623 0.952 . S
H626 C624 0.948 . S
H627 C616 0.952 . S
H628 C618 0.948 . S
C629 C595 1.395 1_655 S
C629 C599 1.391 . S
C630 C592 1.389 . S
C630 C612 1.392 . S
C631 C602 1.392 . S
C631 C604 1.389 . S
C632 C607 1.395 1_455 S
C632 C609 1.391 . S
H633 C593 0.951 . S
H634 C594 0.950 . S
H635 C600 0.949 . S
H636 C601 0.950 . S
H637 C605 0.951 . S
H638 C606 0.950 . S
H639 C610 0.949 . S
H640 C611 0.950 . S
H641 C615 0.950 . S
H642 C617 0.950 . S
H643 C620 0.950 . S
H644 C622 0.950 . S
C645 C646 1.443 . S
C645 N649 1.376 . S
C645 C683 1.389 . S
C646 C645 1.443 . S
C646 C647 1.340 . S
C646 H686 0.951 . S
C647 C646 1.340 . S
C647 C648 1.439 . S
C647 H687 0.950 . S
C648 C647 1.439 . S
C648 N649 1.374 . S
C648 C682 1.395 . S
N649 C645 1.376 . S
N649 C648 1.374 . S
N649 Co650 2.008 . S
Co650 N649 2.008 . S
Co650 N651 1.995 1_545 S
Co650 N656 2.008 1_545 S
Co650 N661 1.995 . S
Co650 N666 2.282 1_545 S
Co650 N672 2.282 . S
N651 Co650 1.995 1_565 S
N651 C652 1.376 . S
N651 C655 1.383 . S
C652 N651 1.376 . S
C652 C653 1.446 . S
C652 C682 1.391 1_565 S
C653 C652 1.446 . S
C653 C654 1.339 . S
C653 H688 0.949 . S
C654 C653 1.339 . S
C654 C655 1.439 . S
C654 H689 0.950 . S
C655 N651 1.383 . S
C655 C654 1.439 . S
C655 C684 1.392 . S
N656 Co650 2.008 1_565 S
N656 C657 1.376 . S
N656 C660 1.374 . S
C657 N656 1.376 . S
C657 C658 1.443 . S
C657 C684 1.389 . S
C658 C657 1.443 . S
C658 C659 1.340 . S
C658 H690 0.951 . S
C659 C658 1.340 . S
C659 C660 1.439 . S
C659 H691 0.950 . S
C660 N656 1.374 . S
C660 C659 1.439 . S
C660 C685 1.395 1_565 S
N661 Co650 1.995 . S
N661 C662 1.376 . S
N661 C665 1.383 . S
C662 N661 1.376 . S
C662 C663 1.446 . S
C662 C685 1.391 . S
C663 C662 1.446 . S
C663 C664 1.339 . S
C663 H692 0.949 . S
C664 C663 1.339 . S
C664 C665 1.439 . S
C664 H693 0.950 . S
C665 N661 1.383 . S
C665 C664 1.439 . S
C665 C683 1.392 . S
N666 Co650 2.282 1_565 S
N666 C669 1.332 . S
N666 C671 1.332 . S
C667 C668 1.386 . S
C667 C670 1.388 . S
C668 C667 1.386 . S
C668 C669 1.382 . S
C668 H694 0.950 . S
C669 N666 1.332 . S
C669 C668 1.382 . S
C669 H680 0.952 . S
C670 C667 1.388 . S
C670 C671 1.382 . S
C670 H695 0.950 . S
C671 N666 1.332 . S
C671 C670 1.382 . S
C671 H681 0.948 . S
N672 Co650 2.282 . S
N672 C676 1.332 . S
N672 C677 1.332 . S
C673 C674 1.388 . S
C673 C677 1.382 . S
C673 H696 0.950 . S
C674 C673 1.388 . S
C674 C675 1.386 . S
C675 C674 1.386 . S
C675 C676 1.382 . S
C675 H697 0.950 . S
C676 N672 1.332 . S
C676 C675 1.382 . S
C676 H678 0.952 . S
C677 N672 1.332 . S
C677 C673 1.382 . S
C677 H679 0.948 . S
H678 C676 0.952 . S
H679 C677 0.948 . S
H680 C669 0.952 . S
H681 C671 0.948 . S
C682 C648 1.395 . S
C682 C652 1.391 1_545 S
C683 C645 1.389 . S
C683 C665 1.392 . S
C684 C655 1.392 . S
C684 C657 1.389 . S
C685 C660 1.395 1_545 S
C685 C662 1.391 . S
H686 C646 0.951 . S
H687 C647 0.950 . S
H688 C653 0.949 . S
H689 C654 0.950 . S
H690 C658 0.951 . S
H691 C659 0.950 . S
H692 C663 0.949 . S
H693 C664 0.950 . S
H694 C668 0.950 . S
H695 C670 0.950 . S
H696 C673 0.950 . S
H697 C675 0.950 . S
C698 C699 1.443 . S
C698 N702 1.376 . S
C698 C736 1.389 . S
C699 C698 1.443 . S
C699 C700 1.340 . S
C699 H739 0.951 . S
C700 C699 1.340 . S
C700 C701 1.439 . S
C700 H740 0.950 . S
C701 C700 1.439 . S
C701 N702 1.374 . S
C701 C735 1.395 . S
N702 C698 1.376 . S
N702 C701 1.374 . S
N702 Co703 2.008 . S
Co703 N702 2.008 . S
Co703 N704 1.995 . S
Co703 N709 2.008 . S
Co703 N714 1.995 . S
Co703 N719 2.282 . S
Co703 N725 2.282 . S
N704 Co703 1.995 . S
N704 C705 1.376 . S
N704 C708 1.383 1_455 S
C705 N704 1.376 . S
C705 C706 1.446 1_455 S
C705 C735 1.391 . S
C706 C705 1.446 1_655 S
C706 C707 1.339 . S
C706 H741 0.949 . S
C707 C706 1.339 . S
C707 C708 1.439 . S
C707 H742 0.950 . S
C708 N704 1.383 1_655 S
C708 C707 1.439 . S
C708 C737 1.392 . S
N709 Co703 2.008 . S
N709 C710 1.376 1_455 S
N709 C713 1.374 . S
C710 N709 1.376 1_655 S
C710 C711 1.443 . S
C710 C737 1.389 . S
C711 C710 1.443 . S
C711 C712 1.340 1_655 S
C711 H743 0.951 . S
C712 C711 1.340 1_455 S
C712 C713 1.439 . S
C712 H744 0.950 . S
C713 N709 1.374 . S
C713 C712 1.439 . S
C713 C738 1.395 . S
N714 Co703 1.995 . S
N714 C715 1.376 . S
N714 C718 1.383 . S
C715 N714 1.376 . S
C715 C716 1.446 . S
C715 C738 1.391 . S
C716 C715 1.446 . S
C716 C717 1.339 . S
C716 H745 0.949 . S
C717 C716 1.339 . S
C717 C718 1.439 . S
C717 H746 0.950 . S
C718 N714 1.383 . S
C718 C717 1.439 . S
C718 C736 1.392 . S
N719 Co703 2.282 . S
N719 C722 1.332 . S
N719 C724 1.332 1_455 S
C720 C721 1.386 . S
C720 C723 1.388 . S
C721 C720 1.386 . S
C721 C722 1.382 1_655 S
C721 H747 0.950 . S
C722 N719 1.332 . S
C722 C721 1.382 1_455 S
C722 H733 0.952 . S
C723 C720 1.388 . S
C723 C724 1.382 . S
C723 H748 0.950 . S
C724 N719 1.332 1_655 S
C724 C723 1.382 . S
C724 H734 0.948 . S
N725 Co703 2.282 . S
N725 C729 1.332 . S
N725 C730 1.332 . S
C726 C727 1.388 . S
C726 C730 1.382 . S
C726 H749 0.950 . S
C727 C726 1.388 . S
C727 C728 1.386 . S
C728 C727 1.386 . S
C728 C729 1.382 . S
C728 H750 0.950 . S
C729 N725 1.332 . S
C729 C728 1.382 . S
C729 H731 0.952 . S
C730 N725 1.332 . S
C730 C726 1.382 . S
C730 H732 0.948 . S
H731 C729 0.952 . S
H732 C730 0.948 . S
H733 C722 0.952 . S
H734 C724 0.948 . S
C735 C701 1.395 . S
C735 C705 1.391 . S
C736 C698 1.389 . S
C736 C718 1.392 . S
C737 C708 1.392 . S
C737 C710 1.389 . S
C738 C713 1.395 . S
C738 C715 1.391 . S
H739 C699 0.951 . S
H740 C700 0.950 . S
H741 C706 0.949 . S
H742 C707 0.950 . S
H743 C711 0.951 . S
H744 C712 0.950 . S
H745 C716 0.949 . S
H746 C717 0.950 . S
H747 C721 0.950 . S
H748 C723 0.950 . S
H749 C726 0.950 . S
H750 C728 0.950 . S
C751 C752 1.443 . S
C751 N755 1.376 . S
C751 C789 1.389 . S
C752 C751 1.443 . S
C752 C753 1.340 . S
C752 H792 0.951 . S
C753 C752 1.340 . S
C753 C754 1.439 . S
C753 H793 0.950 . S
C754 C753 1.439 . S
C754 N755 1.374 . S
C754 C788 1.395 . S
N755 C751 1.376 . S
N755 C754 1.374 . S
N755 Co756 2.008 . S
Co756 N755 2.008 . S
Co756 N757 1.995 . S
Co756 N762 2.008 . S
Co756 N767 1.995 . S
Co756 N772 2.282 . S
Co756 N778 2.282 . S
N757 Co756 1.995 . S
N757 C758 1.376 . S
N757 C761 1.383 . S
C758 N757 1.376 . S
C758 C759 1.446 . S
C758 C788 1.391 . S
C759 C758 1.446 . S
C759 C760 1.339 . S
C759 H794 0.949 . S
C760 C759 1.339 . S
C760 C761 1.439 . S
C760 H795 0.950 . S
C761 N757 1.383 . S
C761 C760 1.439 . S
C761 C790 1.392 . S
N762 Co756 2.008 . S
N762 C763 1.376 . S
N762 C766 1.374 . S
C763 N762 1.376 . S
C763 C764 1.443 . S
C763 C790 1.389 . S
C764 C763 1.443 . S
C764 C765 1.340 . S
C764 H796 0.951 . S
C765 C764 1.340 . S
C765 C766 1.439 . S
C765 H797 0.950 . S
C766 N762 1.374 . S
C766 C765 1.439 . S
C766 C791 1.395 . S
N767 Co756 1.995 . S
N767 C768 1.376 . S
N767 C771 1.383 . S
C768 N767 1.376 . S
C768 C769 1.446 . S
C768 C791 1.391 . S
C769 C768 1.446 . S
C769 C770 1.339 . S
C769 H798 0.949 . S
C770 C769 1.339 . S
C770 C771 1.439 . S
C770 H799 0.950 . S
C771 N767 1.383 . S
C771 C770 1.439 . S
C771 C789 1.392 . S
N772 Co756 2.282 . S
N772 C775 1.332 . S
N772 C777 1.332 . S
C773 C774 1.386 . S
C773 C776 1.388 . S
C774 C773 1.386 . S
C774 C775 1.382 . S
C774 H800 0.950 . S
C775 N772 1.332 . S
C775 C774 1.382 . S
C775 H786 0.952 . S
C776 C773 1.388 . S
C776 C777 1.382 . S
C776 H801 0.950 . S
C777 N772 1.332 . S
C777 C776 1.382 . S
C777 H787 0.948 . S
N778 Co756 2.282 . S
N778 C782 1.332 . S
N778 C783 1.332 . S
C779 C780 1.388 . S
C779 C783 1.382 . S
C779 H802 0.950 . S
C780 C779 1.388 . S
C780 C781 1.386 . S
C781 C780 1.386 . S
C781 C782 1.382 . S
C781 H803 0.950 . S
C782 N778 1.332 . S
C782 C781 1.382 . S
C782 H784 0.952 . S
C783 N778 1.332 . S
C783 C779 1.382 . S
C783 H785 0.948 . S
H784 C782 0.952 . S
H785 C783 0.948 . S
H786 C775 0.952 . S
H787 C777 0.948 . S
C788 C754 1.395 . S
C788 C758 1.391 . S
C789 C751 1.389 . S
C789 C771 1.392 . S
C790 C761 1.392 . S
C790 C763 1.389 . S
C791 C766 1.395 . S
C791 C768 1.391 . S
H792 C752 0.951 . S
H793 C753 0.950 . S
H794 C759 0.949 . S
H795 C760 0.950 . S
H796 C764 0.951 . S
H797 C765 0.950 . S
H798 C769 0.949 . S
H799 C770 0.950 . S
H800 C774 0.950 . S
H801 C776 0.950 . S
H802 C779 0.950 . S
H803 C781 0.950 . S
C804 C805 1.443 . S
C804 N808 1.376 . S
C804 C842 1.389 . S
C805 C804 1.443 . S
C805 C806 1.340 . S
C805 H845 0.951 . S
C806 C805 1.340 . S
C806 C807 1.439 . S
C806 H846 0.950 . S
C807 C806 1.439 . S
C807 N808 1.374 . S
C807 C841 1.395 . S
N808 C804 1.376 . S
N808 C807 1.374 . S
N808 Co809 2.008 . S
Co809 N808 2.008 . S
Co809 N810 1.995 1_554 S
Co809 N815 2.008 1_554 S
Co809 N820 1.995 . S
Co809 N825 2.282 . S
Co809 N831 2.282 1_554 S
N810 Co809 1.995 1_556 S
N810 C811 1.376 . S
N810 C814 1.383 . S
C811 N810 1.376 . S
C811 C812 1.446 . S
C811 C841 1.391 1_556 S
C812 C811 1.446 . S
C812 C813 1.339 . S
C812 H847 0.949 . S
C813 C812 1.339 . S
C813 C814 1.439 . S
C813 H848 0.950 . S
C814 N810 1.383 . S
C814 C813 1.439 . S
C814 C843 1.392 . S
N815 Co809 2.008 1_556 S
N815 C816 1.376 . S
N815 C819 1.374 . S
C816 N815 1.376 . S
C816 C817 1.443 . S
C816 C843 1.389 . S
C817 C816 1.443 . S
C817 C818 1.340 . S
C817 H849 0.951 . S
C818 C817 1.340 . S
C818 C819 1.439 . S
C818 H850 0.950 . S
C819 N815 1.374 . S
C819 C818 1.439 . S
C819 C844 1.393 1_556 S
N820 Co809 1.995 . S
N820 C821 1.376 . S
N820 C824 1.383 . S
C821 N820 1.376 . S
C821 C822 1.446 . S
C821 C844 1.393 . S
C822 C821 1.446 . S
C822 C823 1.339 . S
C822 H851 0.949 . S
C823 C822 1.339 . S
C823 C824 1.439 . S
C823 H852 0.950 . S
C824 N820 1.383 . S
C824 C823 1.439 . S
C824 C842 1.392 . S
N825 Co809 2.282 . S
N825 C828 1.332 . S
N825 C830 1.332 . S
C826 C827 1.386 . S
C826 C829 1.388 . S
C827 C826 1.386 . S
C827 C828 1.382 . S
C827 H853 0.950 . S
C828 N825 1.332 . S
C828 C827 1.382 . S
C828 H839 0.952 . S
C829 C826 1.388 . S
C829 C830 1.382 . S
C829 H854 0.950 . S
C830 N825 1.332 . S
C830 C829 1.382 . S
C830 H840 0.948 . S
N831 Co809 2.282 1_556 S
N831 C835 1.332 . S
N831 C836 1.332 . S
C832 C833 1.388 . S
C832 C836 1.382 . S
C832 H855 0.950 . S
C833 C832 1.388 . S
C833 C834 1.386 . S
C834 C833 1.386 . S
C834 C835 1.382 . S
C834 H856 0.950 . S
C835 N831 1.332 . S
C835 C834 1.382 . S
C835 H837 0.952 . S
C836 N831 1.332 . S
C836 C832 1.382 . S
C836 H838 0.948 . S
H837 C835 0.952 . S
H838 C836 0.948 . S
H839 C828 0.952 . S
H840 C830 0.948 . S
C841 C807 1.395 . S
C841 C811 1.391 1_554 S
C842 C804 1.389 . S
C842 C824 1.392 . S
C843 C814 1.392 . S
C843 C816 1.389 . S
C844 C819 1.393 1_554 S
C844 C821 1.393 . S
H845 C805 0.951 . S
H846 C806 0.950 . S
H847 C812 0.949 . S
H848 C813 0.950 . S
H849 C817 0.951 . S
H850 C818 0.950 . S
H851 C822 0.949 . S
H852 C823 0.950 . S
H853 C827 0.950 . S
H854 C829 0.950 . S
H855 C832 0.950 . S
H856 C834 0.950 . S
C857 C858 1.443 . S
C857 N861 1.376 . S
C857 C895 1.389 . S
C858 C857 1.443 . S
C858 C859 1.340 . S
C858 H898 0.951 . S
C859 C858 1.340 . S
C859 C860 1.439 . S
C859 H899 0.950 . S
C860 C859 1.439 . S
C860 N861 1.374 . S
C860 C894 1.395 1_554 S
N861 C857 1.376 . S
N861 C860 1.374 . S
N861 Co862 2.008 . S
Co862 N861 2.008 . S
Co862 N863 1.995 1_554 S
Co862 N868 2.008 1_554 S
Co862 N873 1.995 . S
Co862 N878 2.282 . S
Co862 N884 2.282 1_554 S
N863 Co862 1.995 1_556 S
N863 C864 1.376 . S
N863 C867 1.383 . S
C864 N863 1.376 . S
C864 C865 1.446 . S
C864 C894 1.391 . S
C865 C864 1.446 . S
C865 C866 1.339 . S
C865 H900 0.949 . S
C866 C865 1.339 . S
C866 C867 1.439 . S
C866 H901 0.950 . S
C867 N863 1.383 . S
C867 C866 1.439 . S
C867 C896 1.392 . S
N868 Co862 2.008 1_556 S
N868 C869 1.376 . S
N868 C872 1.374 1_556 S
C869 N868 1.376 . S
C869 C870 1.443 . S
C869 C896 1.389 . S
C870 C869 1.443 . S
C870 C871 1.343 . S
C870 H902 0.951 . S
C871 C870 1.343 . S
C871 C872 1.437 1_556 S
C871 H903 0.949 1_556 S
C872 N868 1.374 1_554 S
C872 C871 1.437 1_554 S
C872 C897 1.395 . S
N873 Co862 1.995 . S
N873 C874 1.376 . S
N873 C877 1.383 . S
C874 N873 1.376 . S
C874 C875 1.446 . S
C874 C897 1.391 . S
C875 C874 1.446 . S
C875 C876 1.339 . S
C875 H904 0.949 . S
C876 C875 1.339 . S
C876 C877 1.439 . S
C876 H905 0.950 . S
C877 N873 1.383 . S
C877 C876 1.439 . S
C877 C895 1.392 . S
N878 Co862 2.282 . S
N878 C881 1.332 . S
N878 C883 1.332 . S
C879 C880 1.386 . S
C879 C882 1.388 . S
C880 C879 1.386 . S
C880 C881 1.382 . S
C880 H906 0.950 . S
C881 N878 1.332 . S
C881 C880 1.382 . S
C881 H892 0.952 . S
C882 C879 1.388 . S
C882 C883 1.382 . S
C882 H907 0.950 . S
C883 N878 1.332 . S
C883 C882 1.382 . S
C883 H893 0.948 . S
N884 Co862 2.282 1_556 S
N884 C888 1.332 . S
N884 C889 1.332 . S
C885 C886 1.388 . S
C885 C889 1.382 . S
C885 H908 0.950 . S
C886 C885 1.388 . S
C886 C887 1.386 . S
C887 C886 1.386 . S
C887 C888 1.382 . S
C887 H909 0.950 . S
C888 N884 1.332 . S
C888 C887 1.382 . S
C888 H890 0.952 . S
C889 N884 1.332 . S
C889 C885 1.382 . S
C889 H891 0.948 . S
H890 C888 0.952 . S
H891 C889 0.948 . S
H892 C881 0.952 . S
H893 C883 0.948 . S
C894 C860 1.395 1_556 S
C894 C864 1.391 . S
C895 C857 1.389 . S
C895 C877 1.392 . S
C896 C867 1.392 . S
C896 C869 1.389 . S
C897 C872 1.395 . S
C897 C874 1.391 . S
H898 C858 0.951 . S
H899 C859 0.950 . S
H900 C865 0.949 . S
H901 C866 0.950 . S
H902 C870 0.951 . S
H903 C871 0.949 1_554 S
H904 C875 0.949 . S
H905 C876 0.950 . S
H906 C880 0.950 . S
H907 C882 0.950 . S
H908 C885 0.950 . S
H909 C887 0.950 . S
C910 C911 1.443 . S
C910 N914 1.376 . S
C910 C948 1.389 1_554 S
C911 C910 1.443 . S
C911 C912 1.340 . S
C911 H951 0.951 1_554 S
C912 C911 1.340 . S
C912 C913 1.439 . S
C912 H952 0.950 . S
C913 C912 1.439 . S
C913 N914 1.374 . S
C913 C947 1.395 . S
N914 C910 1.376 . S
N914 C913 1.374 . S
N914 Co915 2.008 . S
Co915 N914 2.008 . S
Co915 N916 1.995 . S
Co915 N921 2.008 . S
Co915 N926 1.995 . S
Co915 N931 2.282 . S
Co915 N937 2.282 . S
N916 Co915 1.995 . S
N916 C917 1.376 . S
N916 C920 1.383 . S
C917 N916 1.376 . S
C917 C918 1.446 . S
C917 C947 1.391 . S
C918 C917 1.446 . S
C918 C919 1.339 . S
C918 H953 0.949 . S
C919 C918 1.339 . S
C919 C920 1.439 . S
C919 H954 0.950 . S
C920 N916 1.383 . S
C920 C919 1.439 . S
C920 C949 1.392 . S
N921 Co915 2.008 . S
N921 C922 1.376 . S
N921 C925 1.374 . S
C922 N921 1.376 . S
C922 C923 1.443 . S
C922 C949 1.389 . S
C923 C922 1.443 . S
C923 C924 1.340 . S
C923 H955 0.951 . S
C924 C923 1.340 . S
C924 C925 1.439 . S
C924 H956 0.950 . S
C925 N921 1.374 . S
C925 C924 1.439 . S
C925 C950 1.395 . S
N926 Co915 1.995 . S
N926 C927 1.376 . S
N926 C930 1.383 1_554 S
C927 N926 1.376 . S
C927 C928 1.446 1_554 S
C927 C950 1.391 . S
C928 C927 1.446 1_556 S
C928 C929 1.339 . S
C928 H957 0.949 . S
C929 C928 1.339 . S
C929 C930 1.439 . S
C929 H958 0.950 . S
C930 N926 1.383 1_556 S
C930 C929 1.439 . S
C930 C948 1.392 . S
N931 Co915 2.282 . S
N931 C934 1.331 . S
N931 C936 1.332 . S
C932 C933 1.386 . S
C932 C935 1.388 1_556 S
C933 C932 1.386 . S
C933 C934 1.383 1_556 S
C933 H959 0.950 . S
C934 N931 1.331 . S
C934 C933 1.383 1_554 S
C934 H945 0.952 1_554 S
C935 C932 1.388 1_554 S
C935 C936 1.382 . S
C935 H960 0.950 . S
C936 N931 1.332 . S
C936 C935 1.382 . S
C936 H946 0.948 . S
N937 Co915 2.282 . S
N937 C941 1.332 . S
N937 C942 1.332 . S
C938 C939 1.388 . S
C938 C942 1.382 . S
C938 H961 0.950 . S
C939 C938 1.388 . S
C939 C940 1.386 . S
C940 C939 1.386 . S
C940 C941 1.382 . S
C940 H962 0.950 . S
C941 N937 1.332 . S
C941 C940 1.382 . S
C941 H943 0.952 . S
C942 N937 1.332 . S
C942 C938 1.382 . S
C942 H944 0.948 . S
H943 C941 0.952 . S
H944 C942 0.948 . S
H945 C934 0.952 1_556 S
H946 C936 0.948 . S
C947 C913 1.395 . S
C947 C917 1.391 . S
C948 C910 1.389 1_556 S
C948 C930 1.392 . S
C949 C920 1.392 . S
C949 C922 1.389 . S
C950 C925 1.395 . S
C950 C927 1.391 . S
H951 C911 0.951 1_556 S
H952 C912 0.950 . S
H953 C918 0.949 . S
H954 C919 0.950 . S
H955 C923 0.951 . S
H956 C924 0.950 . S
H957 C928 0.949 . S
H958 C929 0.950 . S
H959 C933 0.950 . S
H960 C935 0.950 . S
H961 C938 0.950 . S
H962 C940 0.950 . S
C963 C964 1.443 . S
C963 N967 1.376 . S
C963 C1001 1.389 . S
C964 C963 1.443 . S
C964 C965 1.340 . S
C964 H1004 0.951 . S
C965 C964 1.340 . S
C965 C966 1.439 . S
C965 H1005 0.950 . S
C966 C965 1.439 . S
C966 N967 1.374 . S
C966 C1000 1.395 . S
N967 C963 1.376 . S
N967 C966 1.374 . S
N967 Co968 2.008 . S
Co968 N967 2.008 . S
Co968 N969 1.995 . S
Co968 N974 2.008 . S
Co968 N979 1.995 . S
Co968 N984 2.282 . S
Co968 N990 2.282 . S
N969 Co968 1.995 . S
N969 C970 1.376 . S
N969 C973 1.383 . S
C970 N969 1.376 . S
C970 C971 1.446 . S
C970 C1000 1.391 . S
C971 C970 1.446 . S
C971 C972 1.339 . S
C971 H1006 0.949 . S
C972 C971 1.339 . S
C972 C973 1.439 . S
C972 H1007 0.950 . S
C973 N969 1.383 . S
C973 C972 1.439 . S
C973 C1002 1.392 . S
N974 Co968 2.008 . S
N974 C975 1.376 . S
N974 C978 1.374 . S
C975 N974 1.376 . S
C975 C976 1.443 . S
C975 C1002 1.389 . S
C976 C975 1.443 . S
C976 C977 1.340 . S
C976 H1008 0.951 . S
C977 C976 1.340 . S
C977 C978 1.439 . S
C977 H1009 0.950 . S
C978 N974 1.374 . S
C978 C977 1.439 . S
C978 C1003 1.395 . S
N979 Co968 1.995 . S
N979 C980 1.376 . S
N979 C983 1.383 . S
C980 N979 1.376 . S
C980 C981 1.446 . S
C980 C1003 1.391 . S
C981 C980 1.446 . S
C981 C982 1.339 . S
C981 H1010 0.949 . S
C982 C981 1.339 . S
C982 C983 1.439 . S
C982 H1011 0.950 . S
C983 N979 1.383 . S
C983 C982 1.439 . S
C983 C1001 1.392 . S
N984 Co968 2.282 . S
N984 C987 1.332 . S
N984 C989 1.332 . S
C985 C986 1.386 . S
C985 C988 1.388 . S
C986 C985 1.386 . S
C986 C987 1.382 . S
C986 H1012 0.950 . S
C987 N984 1.332 . S
C987 C986 1.382 . S
C987 H998 0.952 . S
C988 C985 1.388 . S
C988 C989 1.382 . S
C988 H1013 0.950 . S
C989 N984 1.332 . S
C989 C988 1.382 . S
C989 H999 0.948 . S
N990 Co968 2.282 . S
N990 C994 1.332 . S
N990 C995 1.332 . S
C991 C992 1.388 . S
C991 C995 1.382 . S
C991 H1014 0.950 . S
C992 C991 1.388 . S
C992 C993 1.386 . S
C993 C992 1.386 . S
C993 C994 1.382 . S
C993 H1015 0.950 . S
C994 N990 1.332 . S
C994 C993 1.382 . S
C994 H996 0.952 . S
C995 N990 1.332 . S
C995 C991 1.382 . S
C995 H997 0.948 . S
H996 C994 0.952 . S
H997 C995 0.948 . S
H998 C987 0.952 . S
H999 C989 0.948 . S
C1000 C966 1.395 . S
C1000 C970 1.391 . S
C1001 C963 1.389 . S
C1001 C983 1.392 . S
C1002 C973 1.392 . S
C1002 C975 1.389 . S
C1003 C978 1.395 . S
C1003 C980 1.391 . S
H1004 C964 0.951 . S
H1005 C965 0.950 . S
H1006 C971 0.949 . S
H1007 C972 0.950 . S
H1008 C976 0.951 . S
H1009 C977 0.950 . S
H1010 C981 0.949 . S
H1011 C982 0.950 . S
H1012 C986 0.950 . S
H1013 C988 0.950 . S
H1014 C991 0.950 . S
H1015 C993 0.950 . S
H1016 C1022 0.930 . S
H1017 C1025 0.930 . S
H1018 C1026 0.930 . S
H1019 C1027 0.930 . S
H1020 C1030 0.930 . S
H1021 C1031 0.930 . S
C1022 H1016 0.930 . S
C1022 C1023 1.355 . S
C1022 C1024 1.415 . S
C1023 C1022 1.355 . S
C1023 C1025 1.419 . S
C1024 C1022 1.415 . S
C1024 C1029 1.425 . S
C1024 C1031 1.409 . S
C1025 H1017 0.930 . S
C1025 C1023 1.419 . S
C1025 C1026 1.362 . S
C1026 H1018 0.930 . S
C1026 C1025 1.362 . S
C1026 C1029 1.409 . S
C1027 H1019 0.930 . S
C1027 C1028 1.355 . S
C1027 C1029 1.415 . S
C1028 C1027 1.355 . S
C1028 C1030 1.419 . S
C1029 C1024 1.425 . S
C1029 C1026 1.409 . S
C1029 C1027 1.415 . S
C1030 H1020 0.930 . S
C1030 C1028 1.419 . S
C1030 C1031 1.362 . S
C1031 H1021 0.930 . S
C1031 C1024 1.409 . S
C1031 C1030 1.362 . S
H1032 C1038 0.930 . S
H1033 C1041 0.930 . S
H1034 C1042 0.930 . S
H1035 C1043 0.930 . S
H1036 C1046 0.930 . S
H1037 C1047 0.930 . S
C1038 H1032 0.930 . S
C1038 C1039 1.355 . S
C1038 C1040 1.415 . S
C1039 C1038 1.355 . S
C1039 C1041 1.419 . S
C1040 C1038 1.415 . S
C1040 C1045 1.425 . S
C1040 C1047 1.409 . S
C1041 H1033 0.930 . S
C1041 C1039 1.419 . S
C1041 C1042 1.362 . S
C1042 H1034 0.930 . S
C1042 C1041 1.362 . S
C1042 C1045 1.409 . S
C1043 H1035 0.930 . S
C1043 C1044 1.355 . S
C1043 C1045 1.415 . S
C1044 C1043 1.355 . S
C1044 C1046 1.419 . S
C1045 C1040 1.425 . S
C1045 C1042 1.409 . S
C1045 C1043 1.415 . S
C1046 H1036 0.930 . S
C1046 C1044 1.419 . S
C1046 C1047 1.362 . S
C1047 H1037 0.930 . S
C1047 C1040 1.409 . S
C1047 C1046 1.362 . S
H1048 C1054 0.930 . S
H1049 C1057 0.930 . S
H1050 C1058 0.930 . S
H1051 C1059 0.930 . S
H1052 C1062 0.930 . S
H1053 C1063 0.930 . S
C1054 H1048 0.930 . S
C1054 C1055 1.355 . S
C1054 C1056 1.415 . S
C1055 C1054 1.355 . S
C1055 C1057 1.419 . S
C1056 C1054 1.415 . S
C1056 C1061 1.425 . S
C1056 C1063 1.409 . S
C1057 H1049 0.930 . S
C1057 C1055 1.419 . S
C1057 C1058 1.362 . S
C1058 H1050 0.930 . S
C1058 C1057 1.362 . S
C1058 C1061 1.409 . S
C1059 H1051 0.930 . S
C1059 C1060 1.355 . S
C1059 C1061 1.415 . S
C1060 C1059 1.355 . S
C1060 C1062 1.419 . S
C1061 C1056 1.425 . S
C1061 C1058 1.409 . S
C1061 C1059 1.415 . S
C1062 H1052 0.930 . S
C1062 C1060 1.419 . S
C1062 C1063 1.362 . S
C1063 H1053 0.930 . S
C1063 C1056 1.409 . S
C1063 C1062 1.362 . S
H1064 C1070 0.930 . S
H1065 C1073 0.930 . S
H1066 C1074 0.930 . S
H1067 C1075 0.930 . S
H1068 C1078 0.930 . S
H1069 C1079 0.930 1_565 S
C1070 H1064 0.930 . S
C1070 C1071 1.355 . S
C1070 C1072 1.396 1_565 S
C1071 C1070 1.355 . S
C1071 C1073 1.414 . S
C1072 C1070 1.396 1_545 S
C1072 C1077 1.445 . S
C1072 C1079 1.409 . S
C1073 H1065 0.930 . S
C1073 C1071 1.414 . S
C1073 C1074 1.367 1_565 S
C1074 H1066 0.930 . S
C1074 C1073 1.367 1_545 S
C1074 C1077 1.409 . S
C1075 H1067 0.930 . S
C1075 C1076 1.355 . S
C1075 C1077 1.415 . S
C1076 C1075 1.355 . S
C1076 C1078 1.419 . S
C1077 C1072 1.445 . S
C1077 C1074 1.409 . S
C1077 C1075 1.415 . S
C1078 H1068 0.930 . S
C1078 C1076 1.419 . S
C1078 C1079 1.362 . S
C1079 H1069 0.930 1_545 S
C1079 C1072 1.409 . S
C1079 C1078 1.362 . S
H1080 C1086 0.930 . S
H1081 C1089 0.930 . S
H1082 C1090 0.930 . S
H1083 C1091 0.930 . S
H1084 C1094 0.930 . S
H1085 C1095 0.930 . S
C1086 H1080 0.930 . S
C1086 C1087 1.355 . S
C1086 C1088 1.415 . S
C1087 C1086 1.355 . S
C1087 C1089 1.419 . S
C1088 C1086 1.415 . S
C1088 C1093 1.425 . S
C1088 C1095 1.409 . S
C1089 H1081 0.930 . S
C1089 C1087 1.419 . S
C1089 C1090 1.362 . S
C1090 H1082 0.930 . S
C1090 C1089 1.362 . S
C1090 C1093 1.409 . S
C1091 H1083 0.930 . S
C1091 C1092 1.355 . S
C1091 C1093 1.415 . S
C1092 C1091 1.355 . S
C1092 C1094 1.419 . S
C1093 C1088 1.425 . S
C1093 C1090 1.409 . S
C1093 C1091 1.415 . S
C1094 H1084 0.930 . S
C1094 C1092 1.419 . S
C1094 C1095 1.362 . S
C1095 H1085 0.930 . S
C1095 C1088 1.409 . S
C1095 C1094 1.362 . S
H1096 C1102 0.930 . S
H1097 C1105 0.930 . S
H1098 C1106 0.930 . S
H1099 C1107 0.930 . S
H1100 C1110 0.930 . S
H1101 C1111 0.930 . S
C1102 H1096 0.930 . S
C1102 C1103 1.355 . S
C1102 C1104 1.415 . S
C1103 C1102 1.355 . S
C1103 C1105 1.419 . S
C1104 C1102 1.415 . S
C1104 C1109 1.425 . S
C1104 C1111 1.409 . S
C1105 H1097 0.930 . S
C1105 C1103 1.419 . S
C1105 C1106 1.362 . S
C1106 H1098 0.930 . S
C1106 C1105 1.362 . S
C1106 C1109 1.409 . S
C1107 H1099 0.930 . S
C1107 C1108 1.355 . S
C1107 C1109 1.415 . S
C1108 C1107 1.355 . S
C1108 C1110 1.419 . S
C1109 C1104 1.425 . S
C1109 C1106 1.409 . S
C1109 C1107 1.415 . S
C1110 H1100 0.930 . S
C1110 C1108 1.419 . S
C1110 C1111 1.362 . S
C1111 H1101 0.930 . S
C1111 C1104 1.409 . S
C1111 C1110 1.362 . S
H1112 C1118 0.930 . S
H1113 C1121 0.930 . S
H1114 C1122 0.930 . S
H1115 C1123 0.930 . S
H1116 C1126 0.930 . S
H1117 C1127 0.930 . S
C1118 H1112 0.930 . S
C1118 C1119 1.355 . S
C1118 C1120 1.415 . S
C1119 C1118 1.355 . S
C1119 C1121 1.419 . S
C1120 C1118 1.415 . S
C1120 C1125 1.425 . S
C1120 C1127 1.409 . S
C1121 H1113 0.930 . S
C1121 C1119 1.419 . S
C1121 C1122 1.362 . S
C1122 H1114 0.930 . S
C1122 C1121 1.362 . S
C1122 C1125 1.409 . S
C1123 H1115 0.930 . S
C1123 C1124 1.355 . S
C1123 C1125 1.415 . S
C1124 C1123 1.355 . S
C1124 C1126 1.419 . S
C1125 C1120 1.425 . S
C1125 C1122 1.409 . S
C1125 C1123 1.415 . S
C1126 H1116 0.930 . S
C1126 C1124 1.419 . S
C1126 C1127 1.362 . S
C1127 H1117 0.930 . S
C1127 C1120 1.409 . S
C1127 C1126 1.362 . S
H1128 C1134 0.930 . S
H1129 C1137 0.930 . S
H1130 C1138 0.930 . S
H1131 C1139 0.930 . S
H1132 C1142 0.930 . S
H1133 C1143 0.930 . S
C1134 H1128 0.930 . S
C1134 C1135 1.355 . S
C1134 C1136 1.415 . S
C1135 C1134 1.355 . S
C1135 C1137 1.419 . S
C1136 C1134 1.415 . S
C1136 C1141 1.425 . S
C1136 C1143 1.409 . S
C1137 H1129 0.930 . S
C1137 C1135 1.419 . S
C1137 C1138 1.362 . S
C1138 H1130 0.930 . S
C1138 C1137 1.362 . S
C1138 C1141 1.409 . S
C1139 H1131 0.930 . S
C1139 C1140 1.355 . S
C1139 C1141 1.415 . S
C1140 C1139 1.355 . S
C1140 C1142 1.419 . S
C1141 C1136 1.425 . S
C1141 C1138 1.409 . S
C1141 C1139 1.415 . S
C1142 H1132 0.930 . S
C1142 C1140 1.419 . S
C1142 C1143 1.362 . S
C1143 H1133 0.930 . S
C1143 C1136 1.409 . S
C1143 C1142 1.362 . S
H1144 C1150 0.930 . S
H1145 C1153 0.930 . S
H1146 C1154 0.930 . S
H1147 C1155 0.930 . S
H1148 C1158 0.930 . S
H1149 C1159 0.930 . S
C1150 H1144 0.930 . S
C1150 C1151 1.355 . S
C1150 C1152 1.415 . S
C1151 C1150 1.355 . S
C1151 C1153 1.419 . S
C1152 C1150 1.415 . S
C1152 C1157 1.425 . S
C1152 C1159 1.409 . S
C1153 H1145 0.930 . S
C1153 C1151 1.419 . S
C1153 C1154 1.362 . S
C1154 H1146 0.930 . S
C1154 C1153 1.362 . S
C1154 C1157 1.409 . S
C1155 H1147 0.930 . S
C1155 C1156 1.355 . S
C1155 C1157 1.415 . S
C1156 C1155 1.355 . S
C1156 C1158 1.419 . S
C1157 C1152 1.425 . S
C1157 C1154 1.409 . S
C1157 C1155 1.415 . S
C1158 H1148 0.930 . S
C1158 C1156 1.419 . S
C1158 C1159 1.362 . S
C1159 H1149 0.930 . S
C1159 C1152 1.409 . S
C1159 C1158 1.362 . S
H1160 C1166 0.930 . S
H1161 C1169 0.930 1_565 S
H1162 C1170 0.930 . S
H1163 C1171 0.930 . S
H1164 C1174 0.930 . S
H1165 C1175 0.930 . S
C1166 H1160 0.930 . S
C1166 C1167 1.355 . S
C1166 C1168 1.415 . S
C1167 C1166 1.355 . S
C1167 C1169 1.419 . S
C1168 C1166 1.415 . S
C1168 C1173 1.425 . S
C1168 C1175 1.409 . S
C1169 H1161 0.930 1_545 S
C1169 C1167 1.419 . S
C1169 C1170 1.362 . S
C1170 H1162 0.930 . S
C1170 C1169 1.362 . S
C1170 C1173 1.409 . S
C1171 H1163 0.930 . S
C1171 C1172 1.355 . S
C1171 C1173 1.415 . S
C1172 C1171 1.355 . S
C1172 C1174 1.419 . S
C1173 C1168 1.425 . S
C1173 C1170 1.409 . S
C1173 C1171 1.415 . S
C1174 H1164 0.930 . S
C1174 C1172 1.419 . S
C1174 C1175 1.362 . S
C1175 H1165 0.930 . S
C1175 C1168 1.409 . S
C1175 C1174 1.362 . S
H1176 C1182 0.930 . S
H1177 C1185 0.930 . S
H1178 C1186 0.930 . S
H1179 C1187 0.930 . S
H1180 C1190 0.930 . S
H1181 C1191 0.930 . S
C1182 H1176 0.930 . S
C1182 C1183 1.355 . S
C1182 C1184 1.415 . S
C1183 C1182 1.355 . S
C1183 C1185 1.419 . S
C1184 C1182 1.415 . S
C1184 C1189 1.425 . S
C1184 C1191 1.409 . S
C1185 H1177 0.930 . S
C1185 C1183 1.419 . S
C1185 C1186 1.362 . S
C1186 H1178 0.930 . S
C1186 C1185 1.362 . S
C1186 C1189 1.409 . S
C1187 H1179 0.930 . S
C1187 C1188 1.355 . S
C1187 C1189 1.415 . S
C1188 C1187 1.355 . S
C1188 C1190 1.419 . S
C1189 C1184 1.425 . S
C1189 C1186 1.409 . S
C1189 C1187 1.415 . S
C1190 H1180 0.930 . S
C1190 C1188 1.419 . S
C1190 C1191 1.362 . S
C1191 H1181 0.930 . S
C1191 C1184 1.409 . S
C1191 C1190 1.362 . S
H1192 C1198 0.930 . S
H1193 C1201 0.930 . S
H1194 C1202 0.930 . S
H1195 C1203 0.930 . S
H1196 C1206 0.930 . S
H1197 C1207 0.930 . S
C1198 H1192 0.930 . S
C1198 C1199 1.355 . S
C1198 C1200 1.415 . S
C1199 C1198 1.355 . S
C1199 C1201 1.419 . S
C1200 C1198 1.415 . S
C1200 C1205 1.425 . S
C1200 C1207 1.409 . S
C1201 H1193 0.930 . S
C1201 C1199 1.419 . S
C1201 C1202 1.362 . S
C1202 H1194 0.930 . S
C1202 C1201 1.362 . S
C1202 C1205 1.409 . S
C1203 H1195 0.930 . S
C1203 C1204 1.355 . S
C1203 C1205 1.415 . S
C1204 C1203 1.355 . S
C1204 C1206 1.419 . S
C1205 C1200 1.425 . S
C1205 C1202 1.409 . S
C1205 C1203 1.415 . S
C1206 H1196 0.930 . S
C1206 C1204 1.419 . S
C1206 C1207 1.362 . S
C1207 H1197 0.930 . S
C1207 C1200 1.409 . S
C1207 C1206 1.362 . S
H1208 C1214 0.930 . S
H1209 C1217 0.930 . S
H1210 C1218 0.930 . S
H1211 C1219 0.930 . S
H1212 C1222 0.930 . S
H1213 C1223 0.930 . S
C1214 H1208 0.930 . S
C1214 C1215 1.355 . S
C1214 C1216 1.415 . S
C1215 C1214 1.355 . S
C1215 C1217 1.419 . S
C1216 C1214 1.415 . S
C1216 C1221 1.425 . S
C1216 C1223 1.409 . S
C1217 H1209 0.930 . S
C1217 C1215 1.419 . S
C1217 C1218 1.362 . S
C1218 H1210 0.930 . S
C1218 C1217 1.362 . S
C1218 C1221 1.409 . S
C1219 H1211 0.930 . S
C1219 C1220 1.355 . S
C1219 C1221 1.415 . S
C1220 C1219 1.355 . S
C1220 C1222 1.419 . S
C1221 C1216 1.425 . S
C1221 C1218 1.409 . S
C1221 C1219 1.415 . S
C1222 H1212 0.930 . S
C1222 C1220 1.419 . S
C1222 C1223 1.362 . S
C1223 H1213 0.930 . S
C1223 C1216 1.409 . S
C1223 C1222 1.362 . S
H1224 C1230 0.930 . S
H1225 C1233 0.930 . S
H1226 C1234 0.930 . S
H1227 C1235 0.930 . S
H1228 C1238 0.930 . S
H1229 C1239 0.930 . S
C1230 H1224 0.930 . S
C1230 C1231 1.355 . S
C1230 C1232 1.415 . S
C1231 C1230 1.355 . S
C1231 C1233 1.419 . S
C1232 C1230 1.415 . S
C1232 C1237 1.425 . S
C1232 C1239 1.409 . S
C1233 H1225 0.930 . S
C1233 C1231 1.419 . S
C1233 C1234 1.362 . S
C1234 H1226 0.930 . S
C1234 C1233 1.362 . S
C1234 C1237 1.409 . S
C1235 H1227 0.930 . S
C1235 C1236 1.355 . S
C1235 C1237 1.415 . S
C1236 C1235 1.355 . S
C1236 C1238 1.419 . S
C1237 C1232 1.425 . S
C1237 C1234 1.409 . S
C1237 C1235 1.415 . S
C1238 H1228 0.930 . S
C1238 C1236 1.419 . S
C1238 C1239 1.362 . S
C1239 H1229 0.930 . S
C1239 C1232 1.409 . S
C1239 C1238 1.362 . S
H1240 C1246 0.930 . S
H1241 C1249 0.930 . S
H1242 C1250 0.930 . S
H1243 C1251 0.930 . S
H1244 C1254 0.930 . S
H1245 C1255 0.930 . S
C1246 H1240 0.930 . S
C1246 C1247 1.355 . S
C1246 C1248 1.415 . S
C1247 C1246 1.355 . S
C1247 C1249 1.419 . S
C1248 C1246 1.415 . S
C1248 C1253 1.425 . S
C1248 C1255 1.409 . S
C1249 H1241 0.930 . S
C1249 C1247 1.419 . S
C1249 C1250 1.362 . S
C1250 H1242 0.930 . S
C1250 C1249 1.362 . S
C1250 C1253 1.409 . S
C1251 H1243 0.930 . S
C1251 C1252 1.355 . S
C1251 C1253 1.415 . S
C1252 C1251 1.355 . S
C1252 C1254 1.419 . S
C1253 C1248 1.425 . S
C1253 C1250 1.409 . S
C1253 C1251 1.415 . S
C1254 H1244 0.930 . S
C1254 C1252 1.419 . S
C1254 C1255 1.362 . S
C1255 H1245 0.930 . S
C1255 C1248 1.409 . S
C1255 C1254 1.362 . S
H1256 C1262 0.930 . S
H1257 C1265 0.930 . S
H1258 C1266 0.930 . S
H1259 C1267 0.930 . S
H1260 C1270 0.930 . S
H1261 C1271 0.930 . S
C1262 H1256 0.930 . S
C1262 C1263 1.355 . S
C1262 C1264 1.415 . S
C1263 C1262 1.355 . S
C1263 C1265 1.419 . S
C1264 C1262 1.415 . S
C1264 C1269 1.425 . S
C1264 C1271 1.409 . S
C1265 H1257 0.930 . S
C1265 C1263 1.419 . S
C1265 C1266 1.362 . S
C1266 H1258 0.930 . S
C1266 C1265 1.362 . S
C1266 C1269 1.409 . S
C1267 H1259 0.930 . S
C1267 C1268 1.355 . S
C1267 C1269 1.415 . S
C1268 C1267 1.355 . S
C1268 C1270 1.419 . S
C1269 C1264 1.425 . S
C1269 C1266 1.409 . S
C1269 C1267 1.415 . S
C1270 H1260 0.930 . S
C1270 C1268 1.419 . S
C1270 C1271 1.362 . S
C1271 H1261 0.930 . S
C1271 C1264 1.409 . S
C1271 C1270 1.362 . S
H1272 C1278 0.930 . S
H1273 C1281 0.930 . S
H1274 C1282 0.930 . S
H1275 C1283 0.930 . S
H1276 C1286 0.930 . S
H1277 C1287 0.930 . S
C1278 H1272 0.930 . S
C1278 C1279 1.355 . S
C1278 C1280 1.415 . S
C1279 C1278 1.355 . S
C1279 C1281 1.419 . S
C1280 C1278 1.415 . S
C1280 C1285 1.425 . S
C1280 C1287 1.409 . S
C1281 H1273 0.930 . S
C1281 C1279 1.419 . S
C1281 C1282 1.362 . S
C1282 H1274 0.930 . S
C1282 C1281 1.362 . S
C1282 C1285 1.409 . S
C1283 H1275 0.930 . S
C1283 C1284 1.355 . S
C1283 C1285 1.415 . S
C1284 C1283 1.355 . S
C1284 C1286 1.419 . S
C1285 C1280 1.425 . S
C1285 C1282 1.409 . S
C1285 C1283 1.415 . S
C1286 H1276 0.930 . S
C1286 C1284 1.419 . S
C1286 C1287 1.362 . S
C1287 H1277 0.930 . S
C1287 C1280 1.409 . S
C1287 C1286 1.362 . S
H1288 C1294 0.930 . S
H1289 C1297 0.930 . S
H1290 C1298 0.930 . S
H1291 C1299 0.930 . S
H1292 C1302 0.930 . S
H1293 C1303 0.930 . S
C1294 H1288 0.930 . S
C1294 C1295 1.355 . S
C1294 C1296 1.415 . S
C1295 C1294 1.355 . S
C1295 C1297 1.419 . S
C1296 C1294 1.415 . S
C1296 C1301 1.425 . S
C1296 C1303 1.409 . S
C1297 H1289 0.930 . S
C1297 C1295 1.419 . S
C1297 C1298 1.362 . S
C1298 H1290 0.930 . S
C1298 C1297 1.362 . S
C1298 C1301 1.409 . S
C1299 H1291 0.930 . S
C1299 C1300 1.355 . S
C1299 C1301 1.415 . S
C1300 C1299 1.355 . S
C1300 C1302 1.419 . S
C1301 C1296 1.425 . S
C1301 C1298 1.409 . S
C1301 C1299 1.415 . S
C1302 H1292 0.930 . S
C1302 C1300 1.419 . S
C1302 C1303 1.362 . S
C1303 H1293 0.930 . S
C1303 C1296 1.409 . S
C1303 C1302 1.362 . S
H1304 C1310 0.930 . S
H1305 C1313 0.930 . S
H1306 C1314 0.930 . S
H1307 C1315 0.930 . S
H1308 C1318 0.930 . S
H1309 C1319 0.930 . S
C1310 H1304 0.930 . S
C1310 C1311 1.355 . S
C1310 C1312 1.415 . S
C1311 C1310 1.355 . S
C1311 C1313 1.419 . S
C1312 C1310 1.415 . S
C1312 C1317 1.425 . S
C1312 C1319 1.409 . S
C1313 H1305 0.930 . S
C1313 C1311 1.419 . S
C1313 C1314 1.362 . S
C1314 H1306 0.930 . S
C1314 C1313 1.362 . S
C1314 C1317 1.409 . S
C1315 H1307 0.930 . S
C1315 C1316 1.355 . S
C1315 C1317 1.415 . S
C1316 C1315 1.355 . S
C1316 C1318 1.419 . S
C1317 C1312 1.425 . S
C1317 C1314 1.409 . S
C1317 C1315 1.415 . S
C1318 H1308 0.930 . S
C1318 C1316 1.419 . S
C1318 C1319 1.362 . S
C1319 H1309 0.930 . S
C1319 C1312 1.409 . S
C1319 C1318 1.362 . S
H1320 C1326 0.930 . S
H1321 C1329 0.930 . S
H1322 C1330 0.930 . S
H1323 C1331 0.930 . S
H1324 C1334 0.930 . S
H1325 C1335 0.930 . S
C1326 H1320 0.930 . S
C1326 C1327 1.355 1_554 S
C1326 C1328 1.415 . S
C1327 C1326 1.355 1_556 S
C1327 C1329 1.419 . S
C1328 C1326 1.415 . S
C1328 C1333 1.425 . S
C1328 C1335 1.409 . S
C1329 H1321 0.930 . S
C1329 C1327 1.419 . S
C1329 C1330 1.362 . S
C1330 H1322 0.930 . S
C1330 C1329 1.362 . S
C1330 C1333 1.409 1_556 S
C1331 H1323 0.930 . S
C1331 C1332 1.355 . S
C1331 C1333 1.415 . S
C1332 C1331 1.355 . S
C1332 C1334 1.419 . S
C1333 C1328 1.425 . S
C1333 C1330 1.409 1_554 S
C1333 C1331 1.415 . S
C1334 H1324 0.930 . S
C1334 C1332 1.419 . S
C1334 C1335 1.362 . S
C1335 H1325 0.930 . S
C1335 C1328 1.409 . S
C1335 C1334 1.362 . S
H1336 C1342 0.930 . S
H1337 C1345 0.930 . S
H1338 C1346 0.930 . S
H1339 C1347 0.930 . S
H1340 C1350 0.930 . S
H1341 C1351 0.930 . S
C1342 H1336 0.930 . S
C1342 C1343 1.355 . S
C1342 C1344 1.415 . S
C1343 C1342 1.355 . S
C1343 C1345 1.419 . S
C1344 C1342 1.415 . S
C1344 C1349 1.425 . S
C1344 C1351 1.409 . S
C1345 H1337 0.930 . S
C1345 C1343 1.419 . S
C1345 C1346 1.362 . S
C1346 H1338 0.930 . S
C1346 C1345 1.362 . S
C1346 C1349 1.409 . S
C1347 H1339 0.930 . S
C1347 C1348 1.355 . S
C1347 C1349 1.415 . S
C1348 C1347 1.355 . S
C1348 C1350 1.419 . S
C1349 C1344 1.425 . S
C1349 C1346 1.409 . S
C1349 C1347 1.415 . S
C1350 H1340 0.930 . S
C1350 C1348 1.419 . S
C1350 C1351 1.362 . S
C1351 H1341 0.930 . S
C1351 C1344 1.409 . S
C1351 C1350 1.362 . S
H1352 C1358 0.930 . S
H1353 C1361 0.930 . S
H1354 C1362 0.930 . S
H1355 C1363 0.930 . S
H1356 C1366 0.930 . S
H1357 C1367 0.930 . S
C1358 H1352 0.930 . S
C1358 C1359 1.355 . S
C1358 C1360 1.415 . S
C1359 C1358 1.355 . S
C1359 C1361 1.419 . S
C1360 C1358 1.415 . S
C1360 C1365 1.425 . S
C1360 C1367 1.409 . S
C1361 H1353 0.930 . S
C1361 C1359 1.419 . S
C1361 C1362 1.362 . S
C1362 H1354 0.930 . S
C1362 C1361 1.362 . S
C1362 C1365 1.409 . S
C1363 H1355 0.930 . S
C1363 C1364 1.355 . S
C1363 C1365 1.415 . S
C1364 C1363 1.355 . S
C1364 C1366 1.419 . S
C1365 C1360 1.425 . S
C1365 C1362 1.409 . S
C1365 C1363 1.415 . S
C1366 H1356 0.930 . S
C1366 C1364 1.419 . S
C1366 C1367 1.362 . S
C1367 H1357 0.930 . S
C1367 C1360 1.409 . S
C1367 C1366 1.362 . S
H1368 C1374 0.930 . S
H1369 C1377 0.930 . S
H1370 C1378 0.930 . S
H1371 C1379 0.930 . S
H1372 C1382 0.930 . S
H1373 C1383 0.930 . S
C1374 H1368 0.930 . S
C1374 C1375 1.355 . S
C1374 C1376 1.415 . S
C1375 C1374 1.355 . S
C1375 C1377 1.419 . S
C1376 C1374 1.415 . S
C1376 C1381 1.425 . S
C1376 C1383 1.409 . S
C1377 H1369 0.930 . S
C1377 C1375 1.419 . S
C1377 C1378 1.362 . S
C1378 H1370 0.930 . S
C1378 C1377 1.362 . S
C1378 C1381 1.409 . S
C1379 H1371 0.930 . S
C1379 C1380 1.355 . S
C1379 C1381 1.415 . S
C1380 C1379 1.355 . S
C1380 C1382 1.419 . S
C1381 C1376 1.425 . S
C1381 C1378 1.409 . S
C1381 C1379 1.415 . S
C1382 H1372 0.930 . S
C1382 C1380 1.419 . S
C1382 C1383 1.362 . S
C1383 H1373 0.930 . S
C1383 C1376 1.409 . S
C1383 C1382 1.362 . S
H1384 C1390 0.930 . S
H1385 C1393 0.930 . S
H1386 C1394 0.930 . S
H1387 C1395 0.930 . S
H1388 C1398 0.930 . S
H1389 C1399 0.930 . S
C1390 H1384 0.930 . S
C1390 C1391 1.355 . S
C1390 C1392 1.415 . S
C1391 C1390 1.355 . S
C1391 C1393 1.419 . S
C1392 C1390 1.415 . S
C1392 C1397 1.425 . S
C1392 C1399 1.409 . S
C1393 H1385 0.930 . S
C1393 C1391 1.419 . S
C1393 C1394 1.362 . S
C1394 H1386 0.930 . S
C1394 C1393 1.362 . S
C1394 C1397 1.409 . S
C1395 H1387 0.930 . S
C1395 C1396 1.355 . S
C1395 C1397 1.415 . S
C1396 C1395 1.355 . S
C1396 C1398 1.419 . S
C1397 C1392 1.425 . S
C1397 C1394 1.409 . S
C1397 C1395 1.415 . S
C1398 H1388 0.930 . S
C1398 C1396 1.419 . S
C1398 C1399 1.362 . S
C1399 H1389 0.930 . S
C1399 C1392 1.409 . S
C1399 C1398 1.362 . S
H1400 C1406 0.930 . S
H1401 C1409 0.930 . S
H1402 C1410 0.930 . S
H1403 C1411 0.930 . S
H1404 C1414 0.930 . S
H1405 C1415 0.930 . S
C1406 H1400 0.930 . S
C1406 C1407 1.355 . S
C1406 C1408 1.415 . S
C1407 C1406 1.355 . S
C1407 C1409 1.419 . S
C1408 C1406 1.415 . S
C1408 C1413 1.425 . S
C1408 C1415 1.409 . S
C1409 H1401 0.930 . S
C1409 C1407 1.419 . S
C1409 C1410 1.362 . S
C1410 H1402 0.930 . S
C1410 C1409 1.362 . S
C1410 C1413 1.409 . S
C1411 H1403 0.930 . S
C1411 C1412 1.355 . S
C1411 C1413 1.415 . S
C1412 C1411 1.355 . S
C1412 C1414 1.419 . S
C1413 C1408 1.425 . S
C1413 C1410 1.409 . S
C1413 C1411 1.415 . S
C1414 H1404 0.930 . S
C1414 C1412 1.419 . S
C1414 C1415 1.362 . S
C1415 H1405 0.930 . S
C1415 C1408 1.409 . S
C1415 C1414 1.362 . S
H1416 C1422 0.930 . S
H1417 C1425 0.930 . S
H1418 C1426 0.930 . S
H1419 C1427 0.930 . S
H1420 C1430 0.930 . S
H1421 C1431 0.930 . S
C1422 H1416 0.930 . S
C1422 C1423 1.355 . S
C1422 C1424 1.415 . S
C1423 C1422 1.355 . S
C1423 C1425 1.419 . S
C1424 C1422 1.415 . S
C1424 C1429 1.425 . S
C1424 C1431 1.409 . S
C1425 H1417 0.930 . S
C1425 C1423 1.419 . S
C1425 C1426 1.362 . S
C1426 H1418 0.930 . S
C1426 C1425 1.362 . S
C1426 C1429 1.409 . S
C1427 H1419 0.930 . S
C1427 C1428 1.355 . S
C1427 C1429 1.415 . S
C1428 C1427 1.355 . S
C1428 C1430 1.419 . S
C1429 C1424 1.425 . S
C1429 C1426 1.409 . S
C1429 C1427 1.415 . S
C1430 H1420 0.930 . S
C1430 C1428 1.419 . S
C1430 C1431 1.362 . S
C1431 H1421 0.930 . S
C1431 C1424 1.409 . S
C1431 C1430 1.362 . S
H1432 C1438 0.930 . S
H1433 C1441 0.930 . S
H1434 C1442 0.930 . S
H1435 C1443 0.930 . S
H1436 C1446 0.930 . S
H1437 C1447 0.930 . S
C1438 H1432 0.930 . S
C1438 C1439 1.355 . S
C1438 C1440 1.415 . S
C1439 C1438 1.355 . S
C1439 C1441 1.419 . S
C1440 C1438 1.415 . S
C1440 C1445 1.425 . S
C1440 C1447 1.409 . S
C1441 H1433 0.930 . S
C1441 C1439 1.419 . S
C1441 C1442 1.362 . S
C1442 H1434 0.930 . S
C1442 C1441 1.362 . S
C1442 C1445 1.409 . S
C1443 H1435 0.930 . S
C1443 C1444 1.355 . S
C1443 C1445 1.415 . S
C1444 C1443 1.355 . S
C1444 C1446 1.419 . S
C1445 C1440 1.425 . S
C1445 C1442 1.409 . S
C1445 C1443 1.415 . S
C1446 H1436 0.930 . S
C1446 C1444 1.419 . S
C1446 C1447 1.362 . S
C1447 H1437 0.930 . S
C1447 C1440 1.409 . S
C1447 C1446 1.362 . S
H1448 C1454 0.930 . S
H1449 C1457 0.930 . S
H1450 C1458 0.930 . S
H1451 C1459 0.930 . S
H1452 C1462 0.930 . S
H1453 C1463 0.930 . S
C1454 H1448 0.930 . S
C1454 C1455 1.355 . S
C1454 C1456 1.415 . S
C1455 C1454 1.355 . S
C1455 C1457 1.419 . S
C1456 C1454 1.415 . S
C1456 C1461 1.425 . S
C1456 C1463 1.409 . S
C1457 H1449 0.930 . S
C1457 C1455 1.419 . S
C1457 C1458 1.362 . S
C1458 H1450 0.930 . S
C1458 C1457 1.362 . S
C1458 C1461 1.409 . S
C1459 H1451 0.930 . S
C1459 C1460 1.355 . S
C1459 C1461 1.415 . S
C1460 C1459 1.355 . S
C1460 C1462 1.419 . S
C1461 C1456 1.425 . S
C1461 C1458 1.409 . S
C1461 C1459 1.415 . S
C1462 H1452 0.930 . S
C1462 C1460 1.419 . S
C1462 C1463 1.362 . S
C1463 H1453 0.930 . S
C1463 C1456 1.409 . S
C1463 C1462 1.362 . S
H1464 C1470 0.930 . S
H1465 C1473 0.930 . S
H1466 C1474 0.930 . S
H1467 C1475 0.930 . S
H1468 C1478 0.930 . S
H1469 C1479 0.930 . S
C1470 H1464 0.930 . S
C1470 C1471 1.355 . S
C1470 C1472 1.415 . S
C1471 C1470 1.355 . S
C1471 C1473 1.419 . S
C1472 C1470 1.415 . S
C1472 C1477 1.425 . S
C1472 C1479 1.409 . S
C1473 H1465 0.930 . S
C1473 C1471 1.419 . S
C1473 C1474 1.362 . S
C1474 H1466 0.930 . S
C1474 C1473 1.362 . S
C1474 C1477 1.409 . S
C1475 H1467 0.930 . S
C1475 C1476 1.355 . S
C1475 C1477 1.415 . S
C1476 C1475 1.355 . S
C1476 C1478 1.419 . S
C1477 C1472 1.425 . S
C1477 C1474 1.409 . S
C1477 C1475 1.415 . S
C1478 H1468 0.930 . S
C1478 C1476 1.419 . S
C1478 C1479 1.362 . S
C1479 H1469 0.930 . S
C1479 C1472 1.409 . S
C1479 C1478 1.362 . S
H1480 C1486 0.930 . S
H1481 C1489 0.930 . S
H1482 C1490 0.930 . S
H1483 C1491 0.930 . S
H1484 C1494 0.930 . S
H1485 C1495 0.930 . S
C1486 H1480 0.930 . S
C1486 C1487 1.355 . S
C1486 C1488 1.415 . S
C1487 C1486 1.355 . S
C1487 C1489 1.419 . S
C1488 C1486 1.415 . S
C1488 C1493 1.425 . S
C1488 C1495 1.409 . S
C1489 H1481 0.930 . S
C1489 C1487 1.419 . S
C1489 C1490 1.362 . S
C1490 H1482 0.930 . S
C1490 C1489 1.362 . S
C1490 C1493 1.409 . S
C1491 H1483 0.930 . S
C1491 C1492 1.355 . S
C1491 C1493 1.415 . S
C1492 C1491 1.355 . S
C1492 C1494 1.419 . S
C1493 C1488 1.425 . S
C1493 C1490 1.409 . S
C1493 C1491 1.415 . S
C1494 H1484 0.930 . S
C1494 C1492 1.419 . S
C1494 C1495 1.362 . S
C1495 H1485 0.930 . S
C1495 C1488 1.409 . S
C1495 C1494 1.362 . S
H1496 C1502 0.930 . S
H1497 C1505 0.930 . S
H1498 C1506 0.930 . S
H1499 C1507 0.930 . S
H1500 C1510 0.930 1_554 S
H1501 C1511 0.930 1_554 S
C1502 H1496 0.930 . S
C1502 C1503 1.355 . S
C1502 C1504 1.415 . S
C1503 C1502 1.355 . S
C1503 C1505 1.419 . S
C1504 C1502 1.415 . S
C1504 C1509 1.425 . S
C1504 C1511 1.409 . S
C1505 H1497 0.930 . S
C1505 C1503 1.419 . S
C1505 C1506 1.362 . S
C1506 H1498 0.930 . S
C1506 C1505 1.362 . S
C1506 C1509 1.409 . S
C1507 H1499 0.930 . S
C1507 C1508 1.355 . S
C1507 C1509 1.415 . S
C1508 C1507 1.355 . S
C1508 C1510 1.419 . S
C1509 C1504 1.425 . S
C1509 C1506 1.409 . S
C1509 C1507 1.415 . S
C1510 H1500 0.930 1_556 S
C1510 C1508 1.419 . S
C1510 C1511 1.362 . S
C1511 H1501 0.930 1_556 S
C1511 C1504 1.409 . S
C1511 C1510 1.362 . S
H1512 C1518 0.930 . S
H1513 C1521 0.930 . S
H1514 C1522 0.930 . S
H1515 C1523 0.930 . S
H1516 C1526 0.930 . S
H1517 C1527 0.930 1_556 S
C1518 H1512 0.930 . S
C1518 C1519 1.355 . S
C1518 C1520 1.415 . S
C1519 C1518 1.355 . S
C1519 C1521 1.419 . S
C1520 C1518 1.415 . S
C1520 C1525 1.425 . S
C1520 C1527 1.409 1_556 S
C1521 H1513 0.930 . S
C1521 C1519 1.419 . S
C1521 C1522 1.362 . S
C1522 H1514 0.930 . S
C1522 C1521 1.362 . S
C1522 C1525 1.409 . S
C1523 H1515 0.930 . S
C1523 C1524 1.355 . S
C1523 C1525 1.415 1_554 S
C1524 C1523 1.355 . S
C1524 C1526 1.419 . S
C1525 C1520 1.425 . S
C1525 C1522 1.409 . S
C1525 C1523 1.415 1_556 S
C1526 H1516 0.930 . S
C1526 C1524 1.419 . S
C1526 C1527 1.362 . S
C1527 H1517 0.930 1_554 S
C1527 C1520 1.409 1_554 S
C1527 C1526 1.362 . S
C1028 C621 1.666 . S
C1023 C39 1.611 . S
C1044 C674 1.442 . S
C1039 C125 1.421 . S
C1060 C737 2.242 . S
C1055 C217 2.167 . S
C1076 C780 1.797 . S
C1071 C261 1.699 . S
C1087 C359 1.494 . S
C1092 C736 1.474 . S
C1108 C773 1.295 . S
C1103 C433 1.264 . S
C1124 C614 1.503 . S
C1119 C495 1.532 . S
C1140 C667 1.447 . S
C1135 C587 1.443 . S
C1156 C720 1.761 . S
C1151 C557 1.750 . S
C1172 C789 1.391 . S
C1167 C347 1.407 1_545 S
C1188 C630 1.161 . S
C1183 C421 1.155 . S
C1204 C683 1.825 . S
C1199 C507 1.785 . S
C1220 C631 1.511 . S
C1215 C137 1.515 . S
C1236 C684 1.998 . S
C1231 C187 1.942 . S
C1252 C727 2.529 . S
C1247 C291 2.456 . S
C1268 C790 2.247 . S
C1263 C69 2.250 . S
C1284 C833 1.407 . S
C1279 C581 1.394 . S
C1295 C365 2.189 . S
C1300 C886 2.166 . S
C1311 C439 2.562 . S
C1316 C948 2.558 . S
C1327 C483 1.640 . S
C1332 C1002 1.724 . S
C1343 C113 1.724 . S
C1348 C949 1.752 . S
C1359 C211 1.856 . S
C1364 C1001 1.913 . S
C1375 C273 1.395 . S
C1380 C826 1.416 . S
C1396 C879 1.280 . S
C1391 C51 1.265 . S
C1412 C939 1.451 . S
C1407 C63 1.384 . S
C1423 C143 1.592 . S
C1428 C985 1.600 . S
C1439 C199 1.953 . S
C1444 C842 1.990 . S
C1455 C285 1.141 . S
C1460 C895 1.236 . S
C1476 C843 1.609 . S
C1471 C335 1.583 . S
C1492 C896 2.096 . S
C1487 C409 1.936 . S
C1503 C513 1.926 . S
C1508 C932 1.934 . S
C1524 C992 1.401 . S
C1519 C569 1.408 . S
