# Generated by pormake.
# Topology pth, (4,4)-cn, num edge types: 1
# Building blocks:
#     Node 0, Type 0, BuildingBlock: NAHDIM_clean_sbu_0, # of connection points: 4
#     Node 1, Type 0, BuildingBlock: NAHDIM_clean_sbu_0, # of connection points: 4
#     Node 2, Type 0, BuildingBlock: NAHDIM_clean_sbu_0, # of connection points: 4
#     Node 3, Type 1, BuildingBlock: NAWXER_clean_linker_0, # of connection points: 4
#     Node 4, Type 1, BuildingBlock: NAWXER_clean_linker_0, # of connection points: 4
#     Node 5, Type 1, BuildingBlock: NAWXER_clean_linker_0, # of connection points: 4
#     Edge 6, Type (0, 1), BuildingBlock: CIFDUS_clean_linker_0, # of connection points: 2
#     Edge 7, Type (0, 1), BuildingBlock: CIFDUS_clean_linker_0, # of connection points: 2
#     Edge 8, Type (0, 1), BuildingBlock: CIFDUS_clean_linker_0, # of connection points: 2
#     Edge 9, Type (0, 1), BuildingBlock: CIFDUS_clean_linker_0, # of connection points: 2
#     Edge 10, Type (0, 1), BuildingBlock: CIFDUS_clean_linker_0, # of connection points: 2
#     Edge 11, Type (0, 1), BuildingBlock: CIFDUS_clean_linker_0, # of connection points: 2
#     Edge 12, Type (0, 1), BuildingBlock: CIFDUS_clean_linker_0, # of connection points: 2
#     Edge 13, Type (0, 1), BuildingBlock: CIFDUS_clean_linker_0, # of connection points: 2
#     Edge 14, Type (0, 1), BuildingBlock: CIFDUS_clean_linker_0, # of connection points: 2
#     Edge 15, Type (0, 1), BuildingBlock: CIFDUS_clean_linker_0, # of connection points: 2
#     Edge 16, Type (0, 1), BuildingBlock: CIFDUS_clean_linker_0, # of connection points: 2
#     Edge 17, Type (0, 1), BuildingBlock: CIFDUS_clean_linker_0, # of connection points: 2
# Relax obj value: 0.041
# Max RMSD: 0.165
# Mean RMSD: 0.084
data_MOF--net-pth--node1-NAHDIM_clean_sbu_0--node2-NAWXER_clean_linker_0--edge1-CIFDUS_clean_linker_0
_symmetry_space_group_name_H-M    P1
_symmetry_Int_Tables_number       1
_symmetry_cell_setting            triclinic
loop_
_symmetry_equiv_pos_as_xyz
'x, y, z'
_cell_length_a     26.024313
_cell_length_b     26.159645
_cell_length_c     57.960116
_cell_angle_alpha  91.799163
_cell_angle_beta   90.174946
_cell_angle_gamma 120.67839
loop_
_atom_site_label
_atom_site_type_symbol
_atom_site_fract_x
_atom_site_fract_y
_atom_site_fract_z
_atom_type_partial_charge
C0 C 0.08672 0.98617 0.07451 0.0
O1 O 0.10608 0.04009 0.0832 0.0
O2 O 0.0355 0.08094 0.0622 0.0
Zn3 Zn 0.04127 0.02661 0.03845 0.0
O4 O 0.96241 0.97643 0.0213 0.0
C5 C 0.10224 0.12376 0.01029 0.0
O6 O 0.05797 0.12995 0.01771 0.0
O7 O 0.06037 0.97141 0.05485 0.0
C8 C 0.95745 0.9737 -0.0006 0.0
O9 O 0.00504 0.00571 0.98714 0.0
C10 C 0.98817 0.0741 0.07129 0.0
O11 O 0.93637 0.02716 0.06532 0.0
O12 O 0.10572 0.07955 0.01673 0.0
C13 C 0.02232 0.12251 0.33976 0.0
O14 O 0.97026 0.07567 0.34406 0.0
O15 O 0.03246 0.98535 0.3501 0.0
Zn16 Zn 0.05341 0.05945 0.36911 0.0
O17 O 0.98402 0.04498 0.38884 0.0
C18 C 0.11087 0.04492 0.40727 0.0
O19 O 0.05485 0.00447 0.41069 0.0
O20 O 0.06926 0.12684 0.34861 0.0
C21 C 0.99251 0.07958 0.40618 0.0
O22 O 0.04694 0.12315 0.41141 0.0
C23 C 0.04312 0.98601 0.32869 0.0
O24 O 0.06661 0.03647 0.31808 0.0
O25 O 0.12361 0.07712 0.38977 0.0
C26 C 0.07301 0.95952 0.66379 0.0
O27 O 0.02878 0.95715 0.65186 0.0
O28 O 0.98536 0.02016 0.67694 0.0
Zn29 Zn 0.02563 -0.00204 0.70129 0.0
O30 O 0.08137 0.06862 0.72186 0.0
C31 C 0.91566 0.93242 0.72513 0.0
O32 O 0.9074 0.97376 0.71672 0.0
O33 O 0.07796 0.97247 0.68531 0.0
C34 C 0.06692 0.08967 0.73904 0.0
O35 O 0.01044 0.06571 0.74438 0.0
C36 C 0.97306 0.06124 0.67903 0.0
O37 O 0.98762 0.09395 0.69826 0.0
O38 O 0.96351 0.93257 0.72056 0.0
C39 C 0.93402 0.32656 0.24354 0.0
C40 C 0.97878 0.34323 0.26069 0.0
C41 C 0.93562 0.36864 0.22885 0.0
C42 C 0.98264 0.42803 0.23068 0.0
C43 C 0.02468 0.40319 0.26296 0.0
C44 C 0.02645 0.44515 0.24814 0.0
C45 C 0.98665 0.47277 0.21461 0.0
C46 C 0.00433 0.33693 0.17098 0.0
C47 C 0.95896 0.30749 0.15395 0.0
C48 C 0.01155 0.38735 0.18302 0.0
C49 C 0.97298 0.40873 0.17849 0.0
C50 C 0.92042 0.32905 0.14948 0.0
C51 C 0.92762 0.3794 0.16156 0.0
C52 C 0.98147 0.46339 0.19035 0.0
C53 C 0.07449 0.70893 0.15729 0.0
C54 C 0.03377 0.69884 0.13922 0.0
C55 C 0.0628 0.66418 0.17257 0.0
C56 C 0.0102 0.60844 0.17009 0.0
C57 C 0.98158 0.64248 0.13659 0.0
C58 C 0.97023 0.59756 0.15176 0.0
C59 C -0.0022 0.56087 0.18613 0.0
C60 C 0.97708 0.69815 0.2258 0.0
C61 C 0.01505 0.72408 0.24525 0.0
C62 C 0.97187 0.64771 0.21453 0.0
C63 C 0.00589 0.62325 0.22209 0.0
C64 C 0.04785 0.69876 0.25321 0.0
C65 C 0.04331 0.64881 0.24172 0.0
C66 C 0.00043 0.56942 0.2104 0.0
H67 H 0.89816 0.28077 0.24122 0.0
H68 H 0.90033 0.3546 0.21593 0.0
H69 H 0.05914 0.41783 0.27627 0.0
H70 H 0.0627 0.4909 0.25007 0.0
H71 H 0.03456 0.32124 0.1749 0.0
H72 H 0.04778 0.41007 0.19563 0.0
H73 H 0.88572 0.308 0.13619 0.0
H74 H 0.89783 0.39565 0.15761 0.0
H75 H 0.11572 0.75125 0.15955 0.0
H76 H 0.09505 0.673 0.18625 0.0
H77 H 0.94883 0.63329 0.12308 0.0
H78 H 0.92961 0.55467 0.14947 0.0
H79 H 0.95045 0.71617 0.2196 0.0
H80 H 0.9406 0.62747 0.20008 0.0
H81 H 0.07753 0.71803 0.26817 0.0
H82 H 0.06944 0.63039 0.24808 0.0
N83 N 0.99571 0.52535 0.22369 0.0
N84 N 0.98743 0.50788 0.17706 0.0
C85 C 0.76084 0.12246 0.50838 0.0
C86 C 0.75372 0.07544 0.49355 0.0
C87 C 0.71201 0.11841 0.52001 0.0
C88 C 0.65518 0.06762 0.51684 0.0
C89 C 0.69662 0.02416 0.49088 0.0
C90 C 0.64776 0.02067 0.50219 0.0
C91 C 0.60282 0.0635 0.52824 0.0
C92 C 0.70643 0.03328 0.58353 0.0
C93 C 0.73374 0.08173 0.59963 0.0
C94 C 0.66269 0.02773 0.56792 0.0
C95 C 0.64502 0.07017 0.56826 0.0
C96 C 0.71608 0.12444 0.59967 0.0
C97 C 0.67168 0.1183 0.58429 0.0
C98 C 0.59762 0.06379 0.55239 0.0
C99 C 0.33499 0.97092 0.56138 0.0
C100 C 0.33544 0.00065 0.58206 0.0
C101 C 0.38834 0.9867 0.55026 0.0
C102 C 0.44308 0.03328 0.55938 0.0
C103 C 0.39037 0.04642 0.5914 0.0
C104 C 0.44367 0.0624 0.5802 0.0
C105 C 0.50002 0.04942 0.54803 0.0
C106 C 0.39876 0.09522 0.49879 0.0
C107 C 0.3858 0.06625 0.47694 0.0
C108 C 0.43846 0.09177 0.51401 0.0
C109 C 0.46455 0.0577 0.50794 0.0
C110 C 0.41343 0.03395 0.4705 0.0
C111 C 0.4524 0.02965 0.48589 0.0
C112 C 0.50743 0.05438 0.52385 0.0
H113 H 0.80379 0.16301 0.5106 0.0
H114 H 0.71832 0.15536 0.53112 0.0
H115 H 0.68952 0.98649 0.48007 0.0
H116 H 0.60414 0.98099 0.49966 0.0
H117 H 0.71776 -0.00121 0.58327 0.0
H118 H 0.64187 0.98974 0.55587 0.0
H119 H 0.73667 0.16282 0.61151 0.0
H120 H 0.65853 0.1515 0.58475 0.0
H121 H 0.29347 0.93484 0.55399 0.0
H122 H 0.38681 0.96203 0.53466 0.0
H123 H 0.39208 0.07053 0.6072 0.0
H124 H 0.48537 0.098 0.5877 0.0
H125 H 0.37874 0.12121 0.50398 0.0
H126 H 0.44908 0.11627 0.53043 0.0
H127 H 0.40399 0.01112 0.45374 0.0
H128 H 0.47265 0.00392 0.48063 0.0
N129 N 0.55801 0.05966 0.51485 0.0
N130 N 0.54612 0.05593 0.56143 0.0
C131 C 0.32173 0.36026 0.8356 0.0
C132 C 0.28371 0.36932 0.82126 0.0
C133 C 0.36837 0.40801 0.8481 0.0
C134 C 0.37795 0.46559 0.84629 0.0
C135 C 0.29302 0.42689 0.81963 0.0
C136 C 0.34033 0.47484 0.83185 0.0
C137 C 0.42852 0.51645 0.85878 0.0
C138 C 0.29102 0.41187 0.91099 0.0
C139 C 0.31032 0.3875 0.92787 0.0
C140 C 0.33193 0.45463 0.89641 0.0
C141 C 0.3929 0.47325 0.89816 0.0
C142 C 0.37151 0.40684 0.92979 0.0
C143 C 0.41241 0.44952 0.91514 0.0
C144 C 0.43682 0.51885 0.88294 0.0
C145 C 0.65035 0.76604 0.90005 0.0
C146 C 0.67989 0.75366 0.91737 0.0
C147 C 0.60081 0.71975 0.88814 0.0
C148 C 0.58093 0.66021 0.89295 0.0
C149 C 0.65869 0.69421 0.92269 0.0
C150 C 0.60965 0.64797 0.91061 0.0
C151 C 0.52927 0.61034 0.88027 0.0
C152 C 0.66934 0.70579 0.8274 0.0
C153 C 0.65202 0.72966 0.80964 0.0
C154 C 0.62711 0.66593 0.84248 0.0
C155 C 0.5669 0.65007 0.84039 0.0
C156 C 0.5914 0.71242 0.80725 0.0
C157 C 0.54931 0.67293 0.82243 0.0
C158 C 0.52142 0.60724 0.85599 0.0
H159 H 0.31532 0.31622 0.83714 0.0
H160 H 0.39748 0.40016 0.85892 0.0
H161 H 0.26458 0.43496 0.8085 0.0
H162 H 0.3474 0.5191 0.83015 0.0
H163 H 0.24417 0.39774 0.90898 0.0
H164 H 0.31591 0.47349 0.88392 0.0
H165 H 0.38795 0.3897 0.94286 0.0
H166 H 0.45935 0.46379 0.91698 0.0
H167 H 0.66522 0.81154 0.89587 0.0
H168 H 0.5781 0.73055 0.8752 0.0
H169 H 0.68086 0.68339 0.93586 0.0
H170 H 0.59478 0.60248 0.91481 0.0
H171 H 0.71564 0.7183 0.82983 0.0
H172 H 0.64156 0.64739 0.85571 0.0
H173 H 0.57628 0.72896 0.79347 0.0
H174 H 0.50294 0.66046 0.82022 0.0
N175 N 0.47098 0.56069 0.84623 0.0
N176 N 0.48691 0.56566 0.89275 0.0
H177 H 0.89658 0.07894 0.09202 0.0
H178 H 0.08897 0.17366 0.08754 0.0
H179 H 0.09663 0.25267 0.11326 0.0
H180 H 0.04911 0.29715 0.1357 0.0
H181 H 0.85712 0.2036 0.14064 0.0
H182 H 0.84895 0.12217 0.1159 0.0
C183 C 0.94017 0.11671 0.09676 0.0
C184 C 0.99203 0.12036 0.08776 0.0
C185 C 0.9444 0.16242 0.11154 0.0
C186 C 0.04821 0.16967 0.09411 0.0
C187 C 0.05274 0.215 0.10884 0.0
C188 C 0.0055 0.25853 0.13169 0.0
C189 C 0.95384 0.25645 0.14002 0.0
C190 C 0.00116 0.21207 0.11749 0.0
C191 C 0.89758 0.20656 0.13425 0.0
C192 C 0.89289 0.1599 0.12018 0.0
H193 H 0.99569 0.12148 0.44991 0.0
H194 H 0.87499 0.02049 0.39305 0.0
H195 H 0.79078 0.01088 0.41501 0.0
H196 H 0.75213 0.03365 0.44972 0.0
H197 H 0.87132 0.12851 0.5078 0.0
H198 H 0.95569 0.13917 0.48573 0.0
C199 C 0.95092 0.09734 0.44236 0.0
C200 C 0.94155 0.07197 0.41988 0.0
C201 C 0.90259 0.09132 0.45518 0.0
C202 C 0.88329 0.04026 0.41037 0.0
C203 C 0.83516 0.03492 0.42288 0.0
C204 C 0.79627 0.05574 0.4578 0.0
C205 C 0.80506 0.08035 0.48044 0.0
C206 C 0.84436 0.06044 0.44526 0.0
C207 C 0.86313 0.11002 0.49028 0.0
C208 C 0.91144 0.11577 0.47774 0.0
H209 H 0.81991 0.93255 0.74317 0.0
H210 H 0.91095 0.83327 0.74181 0.0
H211 H 0.83706 0.7614 0.76768 0.0
H212 H 0.74645 0.72686 0.79056 0.0
H213 H 0.65859 0.82927 0.79292 0.0
H214 H 0.73108 0.89937 0.76646 0.0
C215 C 0.8236 0.89511 0.74844 0.0
C216 C 0.87081 0.88822 0.74051 0.0
C217 C 0.78142 0.85441 0.76344 0.0
C218 C 0.87505 0.83963 0.74767 0.0
C219 C 0.83282 0.79853 0.76245 0.0
C220 C 0.74349 0.76484 0.78549 0.0
C221 C 0.69688 0.77253 0.79369 0.0
C222 C 0.7859 0.80559 0.77049 0.0
C223 C 0.6933 0.82159 0.78661 0.0
C224 C 0.735 0.86198 0.77159 0.0
H225 H 0.051 0.8715 0.06183 0.0
H226 H 0.12496 -0.00111 0.11937 0.0
H227 H 0.1168 0.92165 0.1442 0.0
H228 H 0.08215 0.81684 0.15028 0.0
H229 H 0.01074 0.68972 0.09259 0.0
H230 H 0.02347 0.76793 0.06726 0.0
C231 C 0.0659 0.88255 0.07974 0.0
C232 C 0.08815 0.94086 0.08873 0.0
C233 C 0.06077 0.83783 0.09401 0.0
C234 C 0.10754 0.9544 0.11197 0.0
C235 C 0.10268 0.91018 0.12624 0.0
C236 C 0.07036 0.80628 0.13209 0.0
C237 C 0.04502 0.7472 0.12347 0.0
C238 C 0.07844 0.85157 0.11754 0.0
C239 C 0.02918 0.73447 0.09986 0.0
C240 C 0.03685 0.77928 0.0853 0.0
H241 H 0.22683 0.08174 0.39798 0.0
H242 H 0.09914 0.02074 0.45267 0.0
H243 H 0.17397 0.02468 0.47935 0.0
H244 H 0.27428 0.04142 0.48676 0.0
H245 H 0.40048 0.0959 0.43171 0.0
H246 H 0.32778 0.09829 0.40545 0.0
C247 C 0.21577 0.06995 0.4158 0.0
C248 C 0.15778 0.05119 0.42342 0.0
C249 C 0.25855 0.07067 0.43089 0.0
C250 C 0.14353 0.03515 0.44643 0.0
C251 C 0.18623 0.03738 0.46169 0.0
C252 C 0.28589 0.05429 0.46905 0.0
C253 C 0.34246 0.06869 0.46112 0.0
C254 C 0.24362 0.05443 0.45404 0.0
C255 C 0.35692 0.08438 0.43809 0.0
C256 C 0.3155 0.08592 0.42313 0.0
H257 H 0.0541 0.16544 0.76842 0.0
H258 H 0.18546 0.12713 0.74105 0.0
H259 H 0.26366 0.20944 0.76446 0.0
H260 H 0.29502 0.29248 0.79264 0.0
H261 H 0.16556 0.33457 0.81876 0.0
H262 H 0.08622 0.25076 0.79588 0.0
C263 C 0.09983 0.17509 0.76764 0.0
C264 C 0.11392 0.14012 0.7531 0.0
C265 C 0.14485 0.22315 0.78089 0.0
C266 C 0.17347 0.1535 0.75206 0.0
C267 C 0.21822 0.20046 0.76547 0.0
C268 C 0.24931 0.28295 0.79337 0.0
C269 C 0.23579 0.31904 0.80741 0.0
C270 C 0.20443 0.23552 0.77994 0.0
C271 C 0.17677 0.3072 0.80799 0.0
C272 C 0.13152 0.25932 0.79498 0.0
H273 H 0.90033 0.10656 0.68411 0.0
H274 H 0.96345 0.02809 0.63349 0.0
H275 H 0.89764 0.03102 0.60405 0.0
H276 H 0.81956 0.05227 0.59314 0.0
H277 H 0.74994 0.12213 0.64483 0.0
H278 H 0.82187 0.12745 0.67319 0.0
C279 C 0.90016 0.09076 0.66656 0.0
C280 C 0.93672 0.06729 0.66094 0.0
C281 C 0.86104 0.09103 0.6499 0.0
C282 C 0.93552 0.04623 0.63822 0.0
C283 C 0.89791 0.04786 0.6214 0.0
C284 C 0.81959 0.06815 0.61065 0.0
C285 C 0.77912 0.08672 0.61672 0.0
C286 C 0.85983 0.06934 0.62714 0.0
C287 C 0.78104 0.10843 0.63944 0.0
C288 C 0.82189 0.11103 0.65579 0.0
H289 H 0.92897 0.96589 0.95378 0.0
H290 H 0.85574 0.8874 0.01893 0.0
H291 H 0.76257 0.81371 -0.00065 0.0
H292 H 0.70351 0.76879 0.96352 0.0
H293 H 0.77639 0.84749 0.89847 0.0
H294 H 0.8679 0.92432 0.91825 0.0
C295 C 0.89256 0.93284 0.96372 0.0
C296 C 0.89956 0.93187 0.98775 0.0
C297 C 0.83907 0.89063 0.95238 0.0
C298 C 0.85165 0.8891 0.0004 0.0
C299 C 0.79837 0.84683 0.98922 0.0
C300 C 0.7395 0.80283 0.95372 0.0
C301 C 0.7335 0.80235 0.92959 0.0
C302 C 0.7919 0.84671 0.96519 0.0
C303 C 0.77992 0.8472 0.91709 0.0
C304 C 0.83232 0.8909 0.92837 0.0
H305 H 0.04684 0.96812 0.28241 0.0
H306 H 0.01678 0.88086 0.34717 0.0
H307 H 0.00555 0.79228 0.32705 0.0
H308 H 0.00642 0.74024 0.29115 0.0
H309 H 0.03408 0.8262 0.22633 0.0
H310 H 0.0439 0.91463 0.24635 0.0
C311 C 0.03767 0.92967 0.29212 0.0
C312 C 0.03297 0.93127 0.31627 0.0
C313 C 0.03097 0.87872 0.28044 0.0
C314 C 0.02057 0.88086 0.32857 0.0
C315 C 0.01431 0.8302 0.31709 0.0
C316 C 0.01484 0.77851 0.28148 0.0
C317 C 0.01995 0.77707 0.25738 0.0
C318 C 0.0199 0.82882 0.29307 0.0
C319 C 0.02981 0.82638 0.24491 0.0
C320 C 0.03558 0.87692 0.25635 0.0
H321 H 0.08627 0.95227 0.61749 0.0
H322 H 0.17028 0.96233 0.68319 0.0
H323 H 0.25761 0.9725 0.66353 0.0
H324 H 0.31322 0.98613 0.62789 0.0
H325 H 0.2306 0.97931 0.56233 0.0
H326 H 0.13938 0.95961 0.58173 0.0
C327 C 0.1233 0.95587 0.62753 0.0
C328 C 0.12188 0.95707 0.65179 0.0
C329 C 0.17385 0.96273 0.61614 0.0
C330 C 0.17028 0.96163 0.6645 0.0
C331 C 0.22038 0.96766 0.65328 0.0
C332 C 0.27522 0.98036 0.61787 0.0
C333 C 0.27884 0.98472 0.59375 0.0
C334 C 0.22322 0.9697 0.62915 0.0
C335 C 0.22884 0.9759 0.58092 0.0
C336 C 0.17679 0.96492 0.59201 0.0
H337 H 0.10752 0.22348 0.99562 0.0
H338 H 0.19605 0.12215 0.98958 0.0
H339 H 0.2683 0.19484 0.96349 0.0
H340 H 0.30563 0.28686 0.94218 0.0
H341 H 0.21745 0.38838 0.94919 0.0
H342 H 0.14521 0.31532 0.97492 0.0
C343 C 0.14256 0.21713 0.98861 0.0
C344 C 0.14632 0.1674 0.99454 0.0
C345 C 0.18384 0.25899 0.97372 0.0
C346 C 0.19214 0.16006 0.98531 0.0
C347 C 0.23345 0.20159 0.97039 0.0
C348 C 0.27092 0.29325 0.94951 0.0
C349 C 0.26687 0.34295 0.94368 0.0
C350 C 0.22971 0.25125 0.96448 0.0
C351 C 0.22108 0.35011 0.95308 0.0
C352 C 0.17996 0.30854 0.96792 0.0
H353 H 0.92968 0.133 0.32482 0.0
H354 H 0.12154 0.21678 0.32172 0.0
H355 H 0.12502 0.29264 0.29701 0.0
H356 H 0.07307 0.33386 0.27579 0.0
H357 H 0.88146 0.25127 0.28036 0.0
H358 H 0.87843 0.17565 0.30477 0.0
C359 C 0.97235 0.16777 0.31873 0.0
C360 C 0.02526 0.16907 0.32503 0.0
C361 C 0.97402 0.21126 0.30471 0.0
C362 C 0.08015 0.21477 0.31713 0.0
C363 C 0.08215 0.25809 0.30299 0.0
C364 C 0.03071 0.29977 0.28234 0.0
C365 C 0.97753 0.29822 0.2761 0.0
C366 C 0.02931 0.25671 0.29665 0.0
C367 C 0.92297 0.25307 0.28451 0.0
C368 C 0.9212 0.20997 0.29861 0.0
loop_
_geom_bond_atom_site_label_1
_geom_bond_atom_site_label_2
_geom_bond_distance
_geom_bond_site_symmetry_2
_ccdc_geom_bond_type
C0 O1 1.160 . S
C0 O7 1.185 . S
O1 C0 1.160 . S
O2 Zn3 1.899 . S
O2 C10 1.284 1_455 S
Zn3 O2 1.899 . S
Zn3 O4 2.032 1_445 S
Zn3 O7 2.086 1_545 S
Zn3 O12 1.977 . S
O4 Zn3 2.032 1_665 S
O4 C8 1.278 . S
C5 O6 1.203 . S
C5 O12 1.267 . S
O6 C5 1.203 . S
O7 C0 1.185 . S
O7 Zn3 2.086 1_565 S
C8 O4 1.278 . S
C8 O9 1.211 1_564 S
O9 C8 1.211 1_546 S
C10 O2 1.284 1_655 S
C10 O11 1.273 . S
O11 C10 1.273 . S
O12 Zn3 1.977 . S
O12 C5 1.267 . S
C13 O14 1.160 . S
C13 O20 1.185 . S
O14 C13 1.160 . S
O15 Zn16 1.899 . S
O15 C23 1.284 1_545 S
Zn16 O15 1.899 . S
Zn16 O17 2.032 1_455 S
Zn16 O20 2.086 . S
Zn16 O25 1.977 . S
O17 Zn16 2.032 1_655 S
O17 C21 1.278 . S
C18 O19 1.203 . S
C18 O25 1.267 . S
O19 C18 1.203 . S
O20 C13 1.185 . S
O20 Zn16 2.086 . S
C21 O17 1.278 . S
C21 O22 1.211 . S
O22 C21 1.211 . S
C23 O15 1.284 1_565 S
C23 O24 1.273 1_455 S
O24 C23 1.273 1_655 S
O25 Zn16 1.977 . S
O25 C18 1.267 . S
C26 O27 1.160 . S
C26 O33 1.185 1_545 S
O27 C26 1.160 . S
O28 Zn29 1.899 1_655 S
O28 C36 1.284 . S
Zn29 O28 1.899 1_455 S
Zn29 O30 2.032 . S
Zn29 O33 2.086 1_545 S
Zn29 O38 1.977 1_445 S
O30 Zn29 2.032 . S
O30 C34 1.278 . S
C31 O32 1.203 . S
C31 O38 1.267 . S
O32 C31 1.203 . S
O33 C26 1.185 1_565 S
O33 Zn29 2.086 1_565 S
C34 O30 1.278 . S
C34 O35 1.211 . S
O35 C34 1.211 . S
C36 O28 1.284 . S
C36 O37 1.273 . S
O37 C36 1.273 . S
O38 Zn29 1.977 1_665 S
O38 C31 1.267 . S
C39 C40 1.384 1_655 S
C39 C41 1.384 . S
C39 H67 0.931 . S
C40 C39 1.384 1_455 S
C40 C43 1.382 . S
C41 C39 1.384 . S
C41 C42 1.381 1_655 S
C41 H68 0.930 . S
C42 C41 1.381 1_455 S
C42 C44 1.381 . S
C42 C45 1.487 . S
C43 C40 1.382 . S
C43 C44 1.387 . S
C43 H69 0.930 . S
C44 C42 1.381 . S
C44 C43 1.387 . S
C44 H70 0.931 . S
C45 C42 1.487 . S
C45 C52 1.399 . S
C45 N83 1.343 . S
C46 C47 1.384 . S
C46 C48 1.384 . S
C46 H71 0.931 . S
C47 C46 1.384 . S
C47 C50 1.382 1_455 S
C48 C46 1.384 . S
C48 C49 1.381 . S
C48 H72 0.930 . S
C49 C48 1.381 . S
C49 C51 1.381 1_455 S
C49 C52 1.487 . S
C50 C47 1.382 1_655 S
C50 C51 1.387 . S
C50 H73 0.930 . S
C51 C49 1.381 1_655 S
C51 C50 1.387 . S
C51 H74 0.931 . S
C52 C45 1.399 . S
C52 C49 1.487 . S
C52 N84 1.343 . S
C53 C54 1.384 . S
C53 C55 1.384 . S
C53 H75 0.931 . S
C54 C53 1.384 . S
C54 C57 1.382 1_455 S
C55 C53 1.384 . S
C55 C56 1.381 . S
C55 H76 0.930 . S
C56 C55 1.381 . S
C56 C58 1.381 1_455 S
C56 C59 1.487 . S
C57 C54 1.382 1_655 S
C57 C58 1.387 . S
C57 H77 0.930 . S
C58 C56 1.381 1_655 S
C58 C57 1.387 . S
C58 H78 0.931 . S
C59 C56 1.487 . S
C59 C66 1.399 . S
C59 N84 1.343 . S
C60 C61 1.384 1_655 S
C60 C62 1.384 . S
C60 H79 0.931 . S
C61 C60 1.384 1_455 S
C61 C64 1.382 . S
C62 C60 1.384 . S
C62 C63 1.381 1_655 S
C62 H80 0.930 . S
C63 C62 1.381 1_455 S
C63 C65 1.381 . S
C63 C66 1.487 . S
C64 C61 1.382 . S
C64 C65 1.387 . S
C64 H81 0.930 . S
C65 C63 1.381 . S
C65 C64 1.387 . S
C65 H82 0.931 . S
C66 C59 1.399 . S
C66 C63 1.487 . S
C66 N83 1.343 . S
H67 C39 0.931 . S
H68 C41 0.930 . S
H69 C43 0.930 . S
H70 C44 0.931 . S
H71 C46 0.931 . S
H72 C48 0.930 . S
H73 C50 0.930 . S
H74 C51 0.931 . S
H75 C53 0.931 . S
H76 C55 0.930 . S
H77 C57 0.930 . S
H78 C58 0.931 . S
H79 C60 0.931 . S
H80 C62 0.930 . S
H81 C64 0.930 . S
H82 C65 0.931 . S
N83 C45 1.343 . S
N83 C66 1.343 . S
N84 C52 1.343 . S
N84 C59 1.343 . S
C85 C86 1.384 . S
C85 C87 1.384 . S
C85 H113 0.931 . S
C86 C85 1.384 . S
C86 C89 1.382 1_545 S
C87 C85 1.384 . S
C87 C88 1.381 . S
C87 H114 0.930 . S
C88 C87 1.381 . S
C88 C90 1.381 1_545 S
C88 C91 1.487 . S
C89 C86 1.382 1_565 S
C89 C90 1.387 . S
C89 H115 0.930 . S
C90 C88 1.381 1_565 S
C90 C89 1.387 . S
C90 H116 0.931 . S
C91 C88 1.487 . S
C91 C98 1.399 . S
C91 N129 1.343 . S
C92 C93 1.384 1_565 S
C92 C94 1.384 . S
C92 H117 0.931 . S
C93 C92 1.384 1_545 S
C93 C96 1.382 . S
C94 C92 1.384 . S
C94 C95 1.381 1_565 S
C94 H118 0.930 . S
C95 C94 1.381 1_545 S
C95 C97 1.381 . S
C95 C98 1.487 . S
C96 C93 1.382 . S
C96 C97 1.387 . S
C96 H119 0.930 . S
C97 C95 1.381 . S
C97 C96 1.387 . S
C97 H120 0.931 . S
C98 C91 1.399 . S
C98 C95 1.487 . S
C98 N130 1.343 . S
C99 C100 1.384 1_565 S
C99 C101 1.384 . S
C99 H121 0.931 . S
C100 C99 1.384 1_545 S
C100 C103 1.382 . S
C101 C99 1.384 . S
C101 C102 1.381 1_565 S
C101 H122 0.930 . S
C102 C101 1.381 1_545 S
C102 C104 1.381 . S
C102 C105 1.487 . S
C103 C100 1.382 . S
C103 C104 1.387 . S
C103 H123 0.930 . S
C104 C102 1.381 . S
C104 C103 1.387 . S
C104 H124 0.931 . S
C105 C102 1.487 . S
C105 C112 1.399 . S
C105 N130 1.343 . S
C106 C107 1.384 . S
C106 C108 1.384 . S
C106 H125 0.931 . S
C107 C106 1.384 . S
C107 C110 1.382 1_545 S
C108 C106 1.384 . S
C108 C109 1.381 . S
C108 H126 0.930 . S
C109 C108 1.381 . S
C109 C111 1.381 1_545 S
C109 C112 1.487 . S
C110 C107 1.382 1_565 S
C110 C111 1.387 . S
C110 H127 0.930 . S
C111 C109 1.381 1_565 S
C111 C110 1.387 . S
C111 H128 0.931 . S
C112 C105 1.399 . S
C112 C109 1.487 . S
C112 N129 1.343 . S
H113 C85 0.931 . S
H114 C87 0.930 . S
H115 C89 0.930 . S
H116 C90 0.931 . S
H117 C92 0.931 . S
H118 C94 0.930 . S
H119 C96 0.930 . S
H120 C97 0.931 . S
H121 C99 0.931 . S
H122 C101 0.930 . S
H123 C103 0.930 . S
H124 C104 0.931 . S
H125 C106 0.931 . S
H126 C108 0.930 . S
H127 C110 0.930 . S
H128 C111 0.931 . S
N129 C91 1.343 . S
N129 C112 1.343 . S
N130 C98 1.343 . S
N130 C105 1.343 . S
C131 C132 1.384 . S
C131 C133 1.384 . S
C131 H159 0.931 . S
C132 C131 1.384 . S
C132 C135 1.382 . S
C133 C131 1.384 . S
C133 C134 1.381 . S
C133 H160 0.930 . S
C134 C133 1.381 . S
C134 C136 1.381 . S
C134 C137 1.487 . S
C135 C132 1.382 . S
C135 C136 1.387 . S
C135 H161 0.930 . S
C136 C134 1.381 . S
C136 C135 1.387 . S
C136 H162 0.931 . S
C137 C134 1.487 . S
C137 C144 1.399 . S
C137 N175 1.343 . S
C138 C139 1.384 . S
C138 C140 1.384 . S
C138 H163 0.931 . S
C139 C138 1.384 . S
C139 C142 1.382 . S
C140 C138 1.384 . S
C140 C141 1.381 . S
C140 H164 0.930 . S
C141 C140 1.381 . S
C141 C143 1.381 . S
C141 C144 1.487 . S
C142 C139 1.382 . S
C142 C143 1.387 . S
C142 H165 0.930 . S
C143 C141 1.381 . S
C143 C142 1.387 . S
C143 H166 0.931 . S
C144 C137 1.399 . S
C144 C141 1.487 . S
C144 N176 1.343 . S
C145 C146 1.384 . S
C145 C147 1.384 . S
C145 H167 0.931 . S
C146 C145 1.384 . S
C146 C149 1.382 . S
C147 C145 1.384 . S
C147 C148 1.381 . S
C147 H168 0.930 . S
C148 C147 1.381 . S
C148 C150 1.381 . S
C148 C151 1.487 . S
C149 C146 1.382 . S
C149 C150 1.387 . S
C149 H169 0.930 . S
C150 C148 1.381 . S
C150 C149 1.387 . S
C150 H170 0.931 . S
C151 C148 1.487 . S
C151 C158 1.399 . S
C151 N176 1.343 . S
C152 C153 1.384 . S
C152 C154 1.384 . S
C152 H171 0.931 . S
C153 C152 1.384 . S
C153 C156 1.382 . S
C154 C152 1.384 . S
C154 C155 1.381 . S
C154 H172 0.930 . S
C155 C154 1.381 . S
C155 C157 1.381 . S
C155 C158 1.487 . S
C156 C153 1.382 . S
C156 C157 1.387 . S
C156 H173 0.930 . S
C157 C155 1.381 . S
C157 C156 1.387 . S
C157 H174 0.931 . S
C158 C151 1.399 . S
C158 C155 1.487 . S
C158 N175 1.343 . S
H159 C131 0.931 . S
H160 C133 0.930 . S
H161 C135 0.930 . S
H162 C136 0.931 . S
H163 C138 0.931 . S
H164 C140 0.930 . S
H165 C142 0.930 . S
H166 C143 0.931 . S
H167 C145 0.931 . S
H168 C147 0.930 . S
H169 C149 0.930 . S
H170 C150 0.931 . S
H171 C152 0.931 . S
H172 C154 0.930 . S
H173 C156 0.930 . S
H174 C157 0.931 . S
N175 C137 1.343 . S
N175 C158 1.343 . S
N176 C144 1.343 . S
N176 C151 1.343 . S
H177 C183 0.930 . S
H178 C186 0.930 . S
H179 C187 0.930 . S
H180 C188 0.930 . S
H181 C191 0.930 . S
H182 C192 0.930 . S
C183 H177 0.930 . S
C183 C184 1.355 1_655 S
C183 C185 1.415 . S
C184 C183 1.355 1_455 S
C184 C186 1.419 . S
C185 C183 1.415 . S
C185 C190 1.425 1_655 S
C185 C192 1.409 . S
C186 H178 0.930 . S
C186 C184 1.419 . S
C186 C187 1.362 . S
C187 H179 0.930 . S
C187 C186 1.362 . S
C187 C190 1.409 . S
C188 H180 0.930 . S
C188 C189 1.355 . S
C188 C190 1.415 . S
C189 C188 1.355 . S
C189 C191 1.419 1_455 S
C190 C185 1.425 1_455 S
C190 C187 1.409 . S
C190 C188 1.415 . S
C191 H181 0.930 . S
C191 C189 1.419 1_655 S
C191 C192 1.362 . S
C192 H182 0.930 . S
C192 C185 1.409 . S
C192 C191 1.362 . S
H193 C199 0.930 . S
H194 C202 0.930 . S
H195 C203 0.930 . S
H196 C204 0.930 . S
H197 C207 0.930 . S
H198 C208 0.930 . S
C199 H193 0.930 . S
C199 C200 1.355 . S
C199 C201 1.415 . S
C200 C199 1.355 . S
C200 C202 1.419 . S
C201 C199 1.415 . S
C201 C206 1.425 . S
C201 C208 1.409 . S
C202 H194 0.930 . S
C202 C200 1.419 . S
C202 C203 1.362 . S
C203 H195 0.930 . S
C203 C202 1.362 . S
C203 C206 1.409 . S
C204 H196 0.930 . S
C204 C205 1.355 . S
C204 C206 1.415 . S
C205 C204 1.355 . S
C205 C207 1.419 . S
C206 C201 1.425 . S
C206 C203 1.409 . S
C206 C204 1.415 . S
C207 H197 0.930 . S
C207 C205 1.419 . S
C207 C208 1.362 . S
C208 H198 0.930 . S
C208 C201 1.409 . S
C208 C207 1.362 . S
H209 C215 0.930 . S
H210 C218 0.930 . S
H211 C219 0.930 . S
H212 C220 0.930 . S
H213 C223 0.930 . S
H214 C224 0.930 . S
C215 H209 0.930 . S
C215 C216 1.355 . S
C215 C217 1.415 . S
C216 C215 1.355 . S
C216 C218 1.419 . S
C217 C215 1.415 . S
C217 C222 1.425 . S
C217 C224 1.409 . S
C218 H210 0.930 . S
C218 C216 1.419 . S
C218 C219 1.362 . S
C219 H211 0.930 . S
C219 C218 1.362 . S
C219 C222 1.409 . S
C220 H212 0.930 . S
C220 C221 1.355 . S
C220 C222 1.415 . S
C221 C220 1.355 . S
C221 C223 1.419 . S
C222 C217 1.425 . S
C222 C219 1.409 . S
C222 C220 1.415 . S
C223 H213 0.930 . S
C223 C221 1.419 . S
C223 C224 1.362 . S
C224 H214 0.930 . S
C224 C217 1.409 . S
C224 C223 1.362 . S
H225 C231 0.930 . S
H226 C234 0.930 . S
H227 C235 0.930 1_655 S
H228 C236 0.930 1_655 S
H229 C239 0.930 . S
H230 C240 0.930 . S
C231 H225 0.930 . S
C231 C232 1.355 . S
C231 C233 1.415 . S
C232 C231 1.355 . S
C232 C234 1.419 . S
C233 C231 1.415 . S
C233 C238 1.425 . S
C233 C240 1.409 . S
C234 H226 0.930 . S
C234 C232 1.419 . S
C234 C235 1.362 . S
C235 H227 0.930 1_455 S
C235 C234 1.362 . S
C235 C238 1.409 . S
C236 H228 0.930 1_455 S
C236 C237 1.355 . S
C236 C238 1.415 . S
C237 C236 1.355 . S
C237 C239 1.419 . S
C238 C233 1.425 . S
C238 C235 1.409 . S
C238 C236 1.415 . S
C239 H229 0.930 . S
C239 C237 1.419 . S
C239 C240 1.362 . S
C240 H230 0.930 . S
C240 C233 1.409 . S
C240 C239 1.362 . S
H241 C247 0.930 . S
H242 C250 0.930 . S
H243 C251 0.930 . S
H244 C252 0.930 . S
H245 C255 0.930 . S
H246 C256 0.930 . S
C247 H241 0.930 . S
C247 C248 1.355 . S
C247 C249 1.415 . S
C248 C247 1.355 . S
C248 C250 1.419 . S
C249 C247 1.415 . S
C249 C254 1.425 . S
C249 C256 1.409 . S
C250 H242 0.930 . S
C250 C248 1.419 . S
C250 C251 1.362 . S
C251 H243 0.930 . S
C251 C250 1.362 . S
C251 C254 1.409 . S
C252 H244 0.930 . S
C252 C253 1.355 . S
C252 C254 1.415 . S
C253 C252 1.355 . S
C253 C255 1.419 . S
C254 C249 1.425 . S
C254 C251 1.409 . S
C254 C252 1.415 . S
C255 H245 0.930 . S
C255 C253 1.419 . S
C255 C256 1.362 . S
C256 H246 0.930 . S
C256 C249 1.409 . S
C256 C255 1.362 . S
H257 C263 0.930 . S
H258 C266 0.930 . S
H259 C267 0.930 . S
H260 C268 0.930 . S
H261 C271 0.930 . S
H262 C272 0.930 . S
C263 H257 0.930 . S
C263 C264 1.355 . S
C263 C265 1.415 . S
C264 C263 1.355 . S
C264 C266 1.419 . S
C265 C263 1.415 . S
C265 C270 1.425 . S
C265 C272 1.409 . S
C266 H258 0.930 . S
C266 C264 1.419 . S
C266 C267 1.362 . S
C267 H259 0.930 . S
C267 C266 1.362 . S
C267 C270 1.409 . S
C268 H260 0.930 . S
C268 C269 1.355 . S
C268 C270 1.415 . S
C269 C268 1.355 . S
C269 C271 1.419 . S
C270 C265 1.425 . S
C270 C267 1.409 . S
C270 C268 1.415 . S
C271 H261 0.930 . S
C271 C269 1.419 . S
C271 C272 1.362 . S
C272 H262 0.930 . S
C272 C265 1.409 . S
C272 C271 1.362 . S
H273 C279 0.930 . S
H274 C282 0.930 . S
H275 C283 0.930 . S
H276 C284 0.930 . S
H277 C287 0.930 . S
H278 C288 0.930 . S
C279 H273 0.930 . S
C279 C280 1.355 . S
C279 C281 1.415 . S
C280 C279 1.355 . S
C280 C282 1.419 . S
C281 C279 1.415 . S
C281 C286 1.425 . S
C281 C288 1.409 . S
C282 H274 0.930 . S
C282 C280 1.419 . S
C282 C283 1.362 . S
C283 H275 0.930 . S
C283 C282 1.362 . S
C283 C286 1.409 . S
C284 H276 0.930 . S
C284 C285 1.355 . S
C284 C286 1.415 . S
C285 C284 1.355 . S
C285 C287 1.419 . S
C286 C281 1.425 . S
C286 C283 1.409 . S
C286 C284 1.415 . S
C287 H277 0.930 . S
C287 C285 1.419 . S
C287 C288 1.362 . S
C288 H278 0.930 . S
C288 C281 1.409 . S
C288 C287 1.362 . S
H289 C295 0.930 . S
H290 C298 0.930 . S
H291 C299 0.930 . S
H292 C300 0.930 . S
H293 C303 0.930 . S
H294 C304 0.930 . S
C295 H289 0.930 . S
C295 C296 1.328 1_556 S
C295 C297 1.415 . S
C296 C295 1.328 1_554 S
C296 C298 1.435 . S
C297 C295 1.415 . S
C297 C302 1.425 . S
C297 C304 1.409 . S
C298 H290 0.930 . S
C298 C296 1.435 . S
C298 C299 1.362 . S
C299 H291 0.930 . S
C299 C298 1.362 . S
C299 C302 1.409 1_554 S
C300 H292 0.930 . S
C300 C301 1.355 . S
C300 C302 1.415 . S
C301 C300 1.355 . S
C301 C303 1.419 . S
C302 C297 1.425 . S
C302 C299 1.409 1_556 S
C302 C300 1.415 . S
C303 H293 0.930 . S
C303 C301 1.419 . S
C303 C304 1.362 . S
C304 H294 0.930 . S
C304 C297 1.409 . S
C304 C303 1.362 . S
H305 C311 0.930 . S
H306 C314 0.930 . S
H307 C315 0.930 . S
H308 C316 0.930 . S
H309 C319 0.930 . S
H310 C320 0.930 . S
C311 H305 0.930 . S
C311 C312 1.355 1_655 S
C311 C313 1.415 . S
C312 C311 1.355 1_455 S
C312 C314 1.419 . S
C313 C311 1.415 . S
C313 C318 1.425 1_655 S
C313 C320 1.409 . S
C314 H306 0.930 . S
C314 C312 1.419 . S
C314 C315 1.362 . S
C315 H307 0.930 . S
C315 C314 1.362 . S
C315 C318 1.409 . S
C316 H308 0.930 . S
C316 C317 1.355 . S
C316 C318 1.415 . S
C317 C316 1.355 . S
C317 C319 1.419 1_455 S
C318 C313 1.425 1_455 S
C318 C315 1.409 . S
C318 C316 1.415 . S
C319 H309 0.930 . S
C319 C317 1.419 1_655 S
C319 C320 1.362 . S
C320 H310 0.930 . S
C320 C313 1.409 . S
C320 C319 1.362 . S
H321 C327 0.930 . S
H322 C330 0.930 . S
H323 C331 0.930 . S
H324 C332 0.930 . S
H325 C335 0.930 . S
H326 C336 0.930 1_565 S
C327 H321 0.930 . S
C327 C328 1.355 1_565 S
C327 C329 1.415 1_565 S
C328 C327 1.355 1_545 S
C328 C330 1.419 . S
C329 C327 1.415 1_545 S
C329 C334 1.425 . S
C329 C336 1.409 . S
C330 H322 0.930 . S
C330 C328 1.419 . S
C330 C331 1.362 . S
C331 H323 0.930 . S
C331 C330 1.362 . S
C331 C334 1.409 . S
C332 H324 0.930 . S
C332 C333 1.355 . S
C332 C334 1.415 . S
C333 C332 1.355 . S
C333 C335 1.419 . S
C334 C329 1.425 . S
C334 C331 1.409 . S
C334 C332 1.415 . S
C335 H325 0.930 . S
C335 C333 1.419 . S
C335 C336 1.362 . S
C336 H326 0.930 1_545 S
C336 C329 1.409 . S
C336 C335 1.362 . S
H337 C343 0.930 1_554 S
H338 C346 0.930 . S
H339 C347 0.930 . S
H340 C348 0.930 . S
H341 C351 0.930 . S
H342 C352 0.930 . S
C343 H337 0.930 1_556 S
C343 C344 1.355 . S
C343 C345 1.415 . S
C344 C343 1.355 . S
C344 C346 1.419 . S
C345 C343 1.415 . S
C345 C350 1.425 . S
C345 C352 1.409 . S
C346 H338 0.930 . S
C346 C344 1.419 . S
C346 C347 1.362 . S
C347 H339 0.930 . S
C347 C346 1.362 . S
C347 C350 1.409 . S
C348 H340 0.930 . S
C348 C349 1.355 . S
C348 C350 1.415 . S
C349 C348 1.355 . S
C349 C351 1.419 . S
C350 C345 1.425 . S
C350 C347 1.409 . S
C350 C348 1.415 . S
C351 H341 0.930 . S
C351 C349 1.419 . S
C351 C352 1.362 . S
C352 H342 0.930 . S
C352 C345 1.409 . S
C352 C351 1.362 . S
H353 C359 0.919 1_655 S
H354 C362 0.930 . S
H355 C363 0.930 . S
H356 C364 0.930 . S
H357 C367 0.930 . S
H358 C368 0.930 . S
C359 H353 0.919 1_455 S
C359 C360 1.355 . S
C359 C361 1.415 . S
C360 C359 1.355 . S
C360 C362 1.419 . S
C361 C359 1.415 . S
C361 C366 1.425 . S
C361 C368 1.409 1_455 S
C362 H354 0.930 . S
C362 C360 1.419 . S
C362 C363 1.362 . S
C363 H355 0.930 . S
C363 C362 1.362 . S
C363 C366 1.409 . S
C364 H356 0.930 . S
C364 C365 1.355 . S
C364 C366 1.415 . S
C365 C364 1.355 . S
C365 C367 1.419 1_455 S
C366 C361 1.425 . S
C366 C363 1.409 . S
C366 C364 1.415 . S
C367 H357 0.930 . S
C367 C365 1.419 1_655 S
C367 C368 1.362 . S
C368 H358 0.930 . S
C368 C361 1.409 1_655 S
C368 C367 1.362 . S
C189 C47 1.405 . S
C184 C10 1.411 1_455 S
C200 C21 1.461 . S
C205 C86 1.465 . S
C216 C31 1.421 . S
C221 C153 1.472 . S
C232 C0 1.347 . S
C237 C54 1.433 . S
C253 C107 1.454 . S
C248 C18 1.350 . S
C264 C34 1.406 . S
C269 C132 1.425 . S
C285 C93 1.399 . S
C280 C36 1.409 . S
C296 C8 1.435 . S
C301 C146 1.421 . S
C317 C61 1.412 . S
C312 C23 1.409 . S
C333 C100 1.377 . S
C328 C26 1.369 . S
C349 C139 1.469 . S
C344 C5 1.414 1_556 S
C360 C13 1.370 . S
C365 C40 1.443 . S
