# Generated by pormake.
# Topology pth, (4,4)-cn, num edge types: 1
# Building blocks:
#     Node 0, Type 0, BuildingBlock: NAHDIM_clean_sbu_0, # of connection points: 4
#     Node 1, Type 0, BuildingBlock: NAHDIM_clean_sbu_0, # of connection points: 4
#     Node 2, Type 0, BuildingBlock: NAHDIM_clean_sbu_0, # of connection points: 4
#     Node 3, Type 1, BuildingBlock: NAHDIM_clean_linker_0, # of connection points: 4
#     Node 4, Type 1, BuildingBlock: NAHDIM_clean_linker_0, # of connection points: 4
#     Node 5, Type 1, BuildingBlock: NAHDIM_clean_linker_0, # of connection points: 4
#     Edge 6, Type (0, 1), BuildingBlock: FUNLAD_clean_linker_0, # of connection points: 2
#     Edge 7, Type (0, 1), BuildingBlock: FUNLAD_clean_linker_0, # of connection points: 2
#     Edge 8, Type (0, 1), BuildingBlock: FUNLAD_clean_linker_0, # of connection points: 2
#     Edge 9, Type (0, 1), BuildingBlock: FUNLAD_clean_linker_0, # of connection points: 2
#     Edge 10, Type (0, 1), BuildingBlock: FUNLAD_clean_linker_0, # of connection points: 2
#     Edge 11, Type (0, 1), BuildingBlock: FUNLAD_clean_linker_0, # of connection points: 2
#     Edge 12, Type (0, 1), BuildingBlock: FUNLAD_clean_linker_0, # of connection points: 2
#     Edge 13, Type (0, 1), BuildingBlock: FUNLAD_clean_linker_0, # of connection points: 2
#     Edge 14, Type (0, 1), BuildingBlock: FUNLAD_clean_linker_0, # of connection points: 2
#     Edge 15, Type (0, 1), BuildingBlock: FUNLAD_clean_linker_0, # of connection points: 2
#     Edge 16, Type (0, 1), BuildingBlock: FUNLAD_clean_linker_0, # of connection points: 2
#     Edge 17, Type (0, 1), BuildingBlock: FUNLAD_clean_linker_0, # of connection points: 2
# Relax obj value: 0.059
# Max RMSD: 0.179
# Mean RMSD: 0.115
data_MOF--net-pth--node1-NAHDIM_clean_sbu_0--node2-NAHDIM_clean_linker_0--edge1-FUNLAD_clean_linker_0
_symmetry_space_group_name_H-M    P1
_symmetry_Int_Tables_number       1
_symmetry_cell_setting            triclinic
loop_
_symmetry_equiv_pos_as_xyz
'x, y, z'
_cell_length_a     35.338422
_cell_length_b     35.495145
_cell_length_c     88.475606
_cell_angle_alpha  91.616575
_cell_angle_beta   90.439318
_cell_angle_gamma 120.54492
loop_
_atom_site_label
_atom_site_type_symbol
_atom_site_fract_x
_atom_site_fract_y
_atom_site_fract_z
_atom_type_partial_charge
C0 C 0.9976 0.98686 0.07784 0.0
O1 O 0.96009 0.98589 0.07627 0.0
O2 O 0.0011 0.0883 0.07218 0.0
Zn3 Zn 0.01569 0.05224 0.05792 0.0
O4 O 0.96484 0.00907 0.04425 0.0
C5 C 0.05587 0.102 0.03202 0.0
O6 O 0.01413 0.08404 0.02812 0.0
O7 O 0.03065 0.01528 0.0708 0.0
C8 C 0.97612 0.98841 0.03511 0.0
O9 O 0.01696 0.99705 0.03567 0.0
C10 C 0.00195 0.12309 0.0685 0.0
O11 O 0.00871 0.13467 0.05436 0.0
O12 O 0.06615 0.09353 0.04478 0.0
C13 C 0.07231 0.16599 0.37438 0.0
O14 O 0.04671 0.12974 0.36642 0.0
O15 O 0.04142 0.05679 0.38259 0.0
Zn16 Zn 0.05861 0.10589 0.39811 0.0
O17 O 0.00614 0.09603 0.41009 0.0
C18 C 0.13679 0.105 0.40872 0.0
O19 O 0.14298 0.10107 0.39427 0.0
O20 O 0.08246 0.16358 0.388 0.0
C21 C 0.99739 0.07617 0.42246 0.0
O22 O 0.02159 0.06002 0.42697 0.0
C23 C 0.03589 0.0201 0.38641 0.0
O24 O 0.04063 0.0141 0.40073 0.0
O25 O 0.10415 0.10848 0.41266 0.0
C26 C 0.07159 0.99779 0.70772 0.0
O27 O 0.02954 0.97681 0.70397 0.0
O28 O 0.00045 0.04051 0.71716 0.0
Zn29 Zn 0.04568 0.03956 0.7308 0.0
O30 O 0.08213 0.09936 0.74093 0.0
C31 C 0.98624 0.99931 0.75446 0.0
O32 O 0.98516 0.03563 0.75347 0.0
O33 O 0.08544 0.02543 0.71881 0.0
C34 C 0.09786 0.10613 0.75436 0.0
O35 O 0.09028 0.07263 0.76246 0.0
C36 C 0.00891 0.0639 0.70565 0.0
O37 O 0.04997 0.08911 0.70182 0.0
O38 O 0.01196 0.99358 0.746 0.0
C39 C 0.93307 0.70972 0.28433 0.0
C40 C 0.9651 0.71295 0.29677 0.0
C41 C 0.01717 0.69704 0.28369 0.0
C42 C 0.0604 0.71555 0.27888 0.0
C43 C 0.0751 0.68998 0.27152 0.0
C44 C 0.04564 0.64466 0.26891 0.0
C45 C 0.00182 0.62556 0.27375 0.0
C46 C 0.98794 0.65192 0.28106 0.0
C47 C 0.12201 0.71138 0.26646 0.0
C48 C 0.96964 0.57726 0.27113 0.0
C49 C 0.22694 0.55153 0.32692 0.0
C50 C 0.1837 0.52233 0.31815 0.0
C51 C 0.16646 0.53657 0.29299 0.0
C52 C 0.12056 0.51548 0.29382 0.0
C53 C 0.09607 0.52534 0.28377 0.0
C54 C 0.11815 0.55753 0.2729 0.0
C55 C 0.1645 0.57837 0.27196 0.0
C56 C 0.18786 0.56672 0.28181 0.0
C57 C 0.04672 0.50173 0.28491 0.0
C58 C 0.18971 0.61386 0.2609 0.0
C59 C 0.10792 0.44782 0.17988 0.0
C60 C 0.06467 0.43267 0.18444 0.0
C61 C 0.05258 0.46186 0.19056 0.0
C62 C 0.08432 0.50701 0.19209 0.0
C63 C 0.12734 0.52253 0.18687 0.0
C64 C 0.13843 0.49267 0.1807 0.0
C65 C 0.00611 0.44444 0.19565 0.0
C66 C 0.16183 0.57052 0.18816 0.0
C67 C 0.99024 0.74173 0.17996 0.0
C68 C 0.02562 0.74474 0.16935 0.0
C69 C 0.02378 0.67563 0.17101 0.0
C70 C 0.99041 0.63241 0.17297 0.0
C71 C 0.99837 0.60376 0.18121 0.0
C72 C 0.04098 0.61871 0.18733 0.0
C73 C 0.07546 0.66165 0.18457 0.0
C74 C 0.06647 0.68966 0.17643 0.0
C75 C 0.96106 0.55807 0.18381 0.0
C76 C 0.12165 0.67828 0.19051 0.0
C77 C 0.06048 0.61712 0.26104 0.0
C78 C 0.07963 0.59869 0.26976 0.0
C79 C 0.09341 0.57156 0.26315 0.0
C80 C 0.08656 0.56125 0.24743 0.0
C81 C 0.09726 0.53183 0.24052 0.0
C82 C 0.0922 0.52346 0.22494 0.0
C83 C 0.07669 0.54457 0.21566 0.0
C84 C 0.07307 0.53767 0.19974 0.0
C85 C 0.05995 0.56113 0.19081 0.0
C86 C 0.04931 0.59075 0.19738 0.0
C87 C 0.05023 0.5961 0.2133 0.0
C88 C 0.03741 0.62382 0.2203 0.0
C89 C 0.03986 0.63006 0.23595 0.0
C90 C 0.05619 0.60963 0.24518 0.0
C91 C 0.06897 0.58131 0.23837 0.0
C92 C 0.06497 0.57372 0.22244 0.0
C93 C 0.14387 0.37249 0.18388 0.0
C94 C 0.10533 0.37749 0.17868 0.0
O95 O 0.00535 0.72404 0.29068 0.0
O96 O 0.01398 0.70309 0.16388 0.0
O97 O 0.1214 0.42036 0.1746 0.0
O98 O 0.1911 0.52876 0.30283 0.0
H99 H 0.95108 0.68095 0.3023 0.0
H100 H 0.92726 0.68382 0.27574 0.0
H101 H 0.94649 0.74127 0.27856 0.0
H102 H 0.90096 0.70125 0.28924 0.0
H103 H 0.0827 0.75035 0.28092 0.0
H104 H 0.95425 0.63691 0.28457 0.0
H105 H 0.13889 0.69598 0.27197 0.0
H106 H 0.14075 0.74712 0.26924 0.0
H107 H 0.12252 0.70611 0.25405 0.0
H108 H 0.93689 0.56713 0.27583 0.0
H109 H 0.98273 0.55804 0.27642 0.0
H110 H 0.96551 0.56894 0.25881 0.0
H111 H 0.16024 0.53273 0.32193 0.0
H112 H 0.22186 0.54769 0.33929 0.0
H113 H 0.23946 0.58638 0.32443 0.0
H114 H 0.25211 0.5431 0.32362 0.0
H115 H 0.10388 0.49122 0.30226 0.0
H116 H 0.2233 0.58248 0.28122 0.0
H117 H 0.03695 0.52442 0.28996 0.0
H118 H 0.0341 0.47273 0.29207 0.0
H119 H 0.03082 0.49095 0.27349 0.0
H120 H 0.22566 0.63177 0.26341 0.0
H121 H 0.17826 0.63779 0.26104 0.0
H122 H 0.18398 0.59905 0.24929 0.0
H123 H 0.08343 0.36949 0.18853 0.0
H124 H 0.0403 0.39817 0.1832 0.0
H125 H 0.17148 0.50408 0.1769 0.0
H126 H 0.00625 0.44954 0.20809 0.0
H127 H 0.98452 0.409 0.19274 0.0
H128 H 0.99201 0.46275 0.19034 0.0
H129 H 0.19398 0.57726 0.18378 0.0
H130 H 0.16648 0.58223 0.20018 0.0
H131 H 0.15063 0.58966 0.18173 0.0
H132 H 0.05708 0.7598 0.17601 0.0
H133 H 0.9989 0.77487 0.18435 0.0
H134 H 0.98763 0.72166 0.18974 0.0
H135 H 0.95773 0.72623 0.17397 0.0
H136 H 0.95772 0.6217 0.16848 0.0
H137 H 0.09282 0.72248 0.1743 0.0
H138 H 0.95587 0.5534 0.19614 0.0
H139 H 0.96963 0.53379 0.17942 0.0
H140 H 0.92985 0.55131 0.17823 0.0
H141 H 0.14558 0.71064 0.18604 0.0
H142 H 0.13226 0.65454 0.18745 0.0
H143 H 0.12242 0.6815 0.20304 0.0
H144 H 0.08455 0.60619 0.28184 0.0
H145 H 0.10977 0.51505 0.2471 0.0
H146 H 0.10128 0.50074 0.22025 0.0
H147 H 0.05893 0.55699 0.17858 0.0
H148 H 0.02522 0.64094 0.21376 0.0
H149 H 0.02958 0.65179 0.2407 0.0
H150 H 0.16786 0.38064 0.1747 0.0
H151 H 0.13191 0.33841 0.18727 0.0
H152 H 0.16102 0.39494 0.1938 0.0
C153 C 0.35262 0.90895 0.65519 0.0
C154 C 0.36106 0.95046 0.64748 0.0
C155 C 0.39061 0.96633 0.62237 0.0
C156 C 0.41293 0.01216 0.62281 0.0
C157 C 0.44895 0.03611 0.61354 0.0
C158 C 0.46345 0.01362 0.60392 0.0
C159 C 0.44013 0.9672 0.60323 0.0
C160 C 0.40326 0.94417 0.61224 0.0
C161 C 0.47218 0.08545 0.61436 0.0
C162 C 0.4551 0.94184 0.59349 0.0
C163 C 0.72158 0.1545 0.66734 0.0
C164 C 0.72236 0.12665 0.65396 0.0
C165 C 0.69407 0.13106 0.62939 0.0
C166 C 0.67391 0.08711 0.62434 0.0
C167 C 0.63961 0.06992 0.61344 0.0
C168 C 0.62506 0.09725 0.60759 0.0
C169 C 0.64658 0.14205 0.61226 0.0
C170 C 0.68143 0.15854 0.62293 0.0
C171 C 0.61824 0.02233 0.60842 0.0
C172 C 0.63175 0.17212 0.6064 0.0
C173 C 0.72013 0.15699 0.51415 0.0
C174 C 0.69783 0.11185 0.51654 0.0
C175 C 0.65541 0.09071 0.52241 0.0
C176 C 0.63506 0.1153 0.52597 0.0
C177 C 0.65655 0.16028 0.52278 0.0
C178 C 0.69875 0.18046 0.51675 0.0
C179 C 0.63279 0.04237 0.52519 0.0
C180 C 0.63555 0.18731 0.52626 0.0
C181 C 0.27805 0.95292 0.50648 0.0
C182 C 0.31874 0.99627 0.50263 0.0
C183 C 0.39239 0.00733 0.50635 0.0
C184 C 0.41252 0.98242 0.5078 0.0
C185 C 0.45234 0.99889 0.51598 0.0
C186 C 0.47276 0.0417 0.5226 0.0
C187 C 0.45376 0.06799 0.52046 0.0
C188 C 0.41374 0.05055 0.51231 0.0
C189 C 0.47202 0.97021 0.51789 0.0
C190 C 0.47539 0.11421 0.527 0.0
C191 C 0.50529 0.03851 0.59577 0.0
C192 C 0.54443 0.05599 0.6043 0.0
C193 C 0.5853 0.07831 0.59752 0.0
C194 C 0.58751 0.08258 0.58167 0.0
C195 C 0.62803 0.10327 0.57441 0.0
C196 C 0.62985 0.10741 0.55881 0.0
C197 C 0.5912 0.09092 0.54985 0.0
C198 C 0.59274 0.09466 0.53395 0.0
C199 C 0.55375 0.07846 0.52541 0.0
C200 C 0.51293 0.05825 0.53231 0.0
C201 C 0.51068 0.0537 0.54818 0.0
C202 C 0.47013 0.03315 0.55548 0.0
C203 C 0.46826 0.02849 0.57108 0.0
C204 C 0.50682 0.04396 0.57996 0.0
C205 C 0.5481 0.06557 0.57288 0.0
C206 C 0.54999 0.0701 0.55696 0.0
C207 C 0.83461 0.21161 0.52011 0.0
C208 C 0.7948 0.16986 0.51345 0.0
O209 O 0.35761 0.94291 0.63193 0.0
O210 O 0.35255 0.9887 0.49912 0.0
O211 O 0.76229 0.17893 0.50949 0.0
O212 O 0.72517 0.14755 0.64065 0.0
H213 H 0.39516 0.97652 0.65091 0.0
H214 H 0.37744 0.90032 0.65162 0.0
H215 H 0.3194 0.88101 0.65204 0.0
H216 H 0.35533 0.91428 0.66768 0.0
H217 H 0.40231 0.02909 0.63049 0.0
H218 H 0.38548 0.9087 0.61197 0.0
H219 H 0.50368 0.09858 0.62083 0.0
H220 H 0.45221 0.09748 0.62005 0.0
H221 H 0.47993 0.09863 0.60283 0.0
H222 H 0.43688 0.90635 0.59576 0.0
H223 H 0.49077 0.95475 0.59542 0.0
H224 H 0.44988 0.94569 0.58138 0.0
H225 H 0.69081 0.09478 0.65422 0.0
H226 H 0.71993 0.1386 0.67815 0.0
H227 H 0.69213 0.15792 0.6663 0.0
H228 H 0.75129 0.18776 0.66765 0.0
H229 H 0.6848 0.06621 0.62902 0.0
H230 H 0.69768 0.19257 0.62681 0.0
H231 H 0.61507 0.01888 0.59589 0.0
H232 H 0.58464 0.00405 0.61297 0.0
H233 H 0.63711 0.00712 0.61242 0.0
H234 H 0.65028 0.20543 0.61183 0.0
H235 H 0.59618 0.1582 0.60843 0.0
H236 H 0.63631 0.17499 0.594 0.0
H237 H 0.78362 0.14581 0.52261 0.0
H238 H 0.71358 0.09315 0.51392 0.0
H239 H 0.71598 0.21512 0.51459 0.0
H240 H 0.63004 0.03735 0.53755 0.0
H241 H 0.65091 0.02703 0.52036 0.0
H242 H 0.59894 0.02539 0.52019 0.0
H243 H 0.65656 0.22192 0.52309 0.0
H244 H 0.62898 0.18662 0.53853 0.0
H245 H 0.60348 0.173 0.52006 0.0
H246 H 0.32724 0.01802 0.51295 0.0
H247 H 0.25035 0.9581 0.50924 0.0
H248 H 0.28545 0.93933 0.51649 0.0
H249 H 0.26783 0.92858 0.49688 0.0
H250 H 0.39615 0.94939 0.50291 0.0
H251 H 0.39926 0.0707 0.51062 0.0
H252 H 0.47466 0.96523 0.5301 0.0
H253 H 0.50578 0.98667 0.51341 0.0
H254 H 0.45218 0.93773 0.51197 0.0
H255 H 0.45796 0.13138 0.52352 0.0
H256 H 0.50998 0.13315 0.52335 0.0
H257 H 0.47604 0.11367 0.53954 0.0
H258 H 0.54306 0.05211 0.61644 0.0
H259 H 0.6588 0.11639 0.58072 0.0
H260 H 0.66203 0.12374 0.55387 0.0
H261 H 0.5552 0.08154 0.51323 0.0
H262 H 0.43932 0.0203 0.54922 0.0
H263 H 0.43617 0.0125 0.57609 0.0
H264 H 0.86135 0.20524 0.52321 0.0
H265 H 0.82508 0.22279 0.5305 0.0
H266 H 0.84719 0.23829 0.51193 0.0
C267 C 0.67139 0.62898 0.79445 0.0
C268 C 0.6815 0.66407 0.80681 0.0
C269 C 0.65222 0.63344 0.83103 0.0
C270 C 0.63411 0.6586 0.836 0.0
C271 C 0.59932 0.64178 0.84612 0.0
C272 C 0.58214 0.59875 0.85121 0.0
C273 C 0.60126 0.57379 0.8465 0.0
C274 C 0.6367 0.59188 0.83665 0.0
C275 C 0.58045 0.66968 0.85116 0.0
C276 C 0.58347 0.5276 0.85152 0.0
C277 C 0.28176 0.50316 0.80315 0.0
C278 C 0.30619 0.48298 0.81057 0.0
C279 C 0.34476 0.50183 0.83488 0.0
C280 C 0.36651 0.47813 0.83374 0.0
C281 C 0.404 0.48993 0.84277 0.0
C282 C 0.4208 0.5271 0.8528 0.0
C283 C 0.39876 0.55108 0.85391 0.0
C284 C 0.36022 0.53725 0.84523 0.0
C285 C 0.42586 0.46291 0.84145 0.0
C286 C 0.41631 0.59193 0.86395 0.0
C287 C 0.35187 0.46581 0.94996 0.0
C288 C 0.36858 0.441 0.94335 0.0
C289 C 0.40803 0.46134 0.93548 0.0
C290 C 0.43098 0.50734 0.93414 0.0
C291 C 0.41506 0.53252 0.94131 0.0
C292 C 0.37587 0.51135 0.9493 0.0
C293 C 0.42492 0.43369 0.92841 0.0
C294 C 0.43892 0.58164 0.94024 0.0
C295 C 0.7929 0.66925 0.94769 0.0
C296 C 0.75458 0.67746 0.94917 0.0
C297 C 0.67664 0.62283 0.94714 0.0
C298 C 0.64989 0.57755 0.94504 0.0
C299 C 0.60856 0.55912 0.93775 0.0
C300 C 0.59323 0.58681 0.93291 0.0
C301 C 0.6191 0.63258 0.9359 0.0
C302 C 0.66085 0.65018 0.94282 0.0
C303 C 0.58179 0.51018 0.93489 0.0
C304 C 0.60298 0.66296 0.93158 0.0
C305 C 0.54256 0.57892 0.8607 0.0
C306 C 0.50168 0.56254 0.85341 0.0
C307 C 0.4627 0.5423 0.86142 0.0
C308 C 0.46436 0.53791 0.87722 0.0
C309 C 0.42583 0.51645 0.8856 0.0
C310 C 0.42787 0.51358 0.90121 0.0
C311 C 0.46853 0.5315 0.90903 0.0
C312 C 0.47097 0.529 0.92491 0.0
C313 C 0.51193 0.54746 0.93234 0.0
C314 C 0.55086 0.56805 0.92431 0.0
C315 C 0.54911 0.57041 0.90839 0.0
C316 C 0.5876 0.59023 0.89992 0.0
C317 C 0.58558 0.59322 0.88432 0.0
C318 C 0.54497 0.57602 0.87655 0.0
C319 C 0.5057 0.55542 0.88483 0.0
C320 C 0.50778 0.55242 0.90076 0.0
C321 C 0.23719 0.41524 0.95024 0.0
C322 C 0.27572 0.40762 0.95247 0.0
O323 O 0.6844 0.64848 0.82071 0.0
O324 O 0.71758 0.63909 0.95325 0.0
O325 O 0.31276 0.44687 0.95699 0.0
O326 O 0.30902 0.49147 0.82604 0.0
H327 H 0.65388 0.67071 0.80655 0.0
H328 H 0.63951 0.59903 0.79664 0.0
H329 H 0.69744 0.62023 0.79422 0.0
H330 H 0.6689 0.64083 0.7832 0.0
H331 H 0.64717 0.69134 0.83192 0.0
H332 H 0.65133 0.57298 0.83282 0.0
H333 H 0.54691 0.65584 0.84612 0.0
H334 H 0.60084 0.70409 0.84771 0.0
H335 H 0.57755 0.66945 0.86366 0.0
H336 H 0.60013 0.51159 0.84603 0.0
H337 H 0.54767 0.50764 0.84883 0.0
H338 H 0.5879 0.52788 0.86396 0.0
H339 H 0.33986 0.49936 0.80586 0.0
H340 H 0.27978 0.49755 0.79067 0.0
H341 H 0.29961 0.53903 0.80566 0.0
H342 H 0.24794 0.48872 0.80751 0.0
H343 H 0.354 0.45019 0.82588 0.0
H344 H 0.34298 0.5552 0.84601 0.0
H345 H 0.43472 0.45686 0.85283 0.0
H346 H 0.45664 0.48112 0.8351 0.0
H347 H 0.40445 0.43093 0.83539 0.0
H348 H 0.40056 0.61127 0.86123 0.0
H349 H 0.45241 0.61311 0.86285 0.0
H350 H 0.40974 0.5827 0.87593 0.0
H351 H 0.28056 0.39579 0.94125 0.0
H352 H 0.35087 0.4058 0.94435 0.0
H353 H 0.36297 0.5302 0.95466 0.0
H354 H 0.42367 0.43501 0.91591 0.0
H355 H 0.40538 0.39893 0.93158 0.0
H356 H 0.45979 0.44691 0.93193 0.0
H357 H 0.4215 0.59636 0.94607 0.0
H358 H 0.4426 0.59045 0.92818 0.0
H359 H 0.47244 0.59619 0.94537 0.0
H360 H 0.74912 0.68696 0.93781 0.0
H361 H 0.82293 0.69942 0.94422 0.0
H362 H 0.78462 0.64297 0.93893 0.0
H363 H 0.79989 0.65888 0.95859 0.0
H364 H 0.66225 0.55677 0.94863 0.0
H365 H 0.68106 0.68523 0.94488 0.0
H366 H 0.5722 0.50247 0.92271 0.0
H367 H 0.55113 0.49651 0.94139 0.0
H368 H 0.59995 0.49364 0.93824 0.0
H369 H 0.6235 0.69625 0.93688 0.0
H370 H 0.56839 0.64958 0.93497 0.0
H371 H 0.60392 0.66588 0.91911 0.0
H372 H 0.5002 0.56564 0.84128 0.0
H373 H 0.39361 0.50183 0.88019 0.0
H374 H 0.39711 0.49716 0.90707 0.0
H375 H 0.51352 0.54569 0.94453 0.0
H376 H 0.61982 0.60385 0.90525 0.0
H377 H 0.61629 0.60925 0.87841 0.0
H378 H 0.23075 0.4283 0.96086 0.0
H379 H 0.207 0.38415 0.94665 0.0
H380 H 0.24489 0.43931 0.9413 0.0
C381 C 0.00069 0.14371 0.09574 0.0
C382 C 0.0023 0.15353 0.08039 0.0
C383 C 0.00729 0.17488 0.10706 0.0
C384 C 0.01527 0.21657 0.1033 0.0
C385 C 0.01501 0.22561 0.08795 0.0
C386 C 0.00847 0.19445 0.07662 0.0
C387 C 0.02839 0.2527 0.11486 0.0
C388 C 0.02153 0.24645 0.12978 0.0
C389 C 0.04074 0.28257 0.14155 0.0
C390 C 0.02294 0.27439 0.15605 0.0
C391 C 0.0428 0.30574 0.16787 0.0
C392 C 0.08097 0.34604 0.16546 0.0
H393 H 0.09448 0.33055 0.12828 0.0
C394 C 0.09851 0.35461 0.15092 0.0
C395 C 0.07869 0.32328 0.13909 0.0
H396 H 0.12848 0.38503 0.14883 0.0
H397 H 0.99616 0.11256 0.09905 0.0
H398 H 0.0082 0.16663 0.11868 0.0
H399 H 0.02123 0.25743 0.08469 0.0
H400 H 0.00988 0.20311 0.06492 0.0
H401 H 0.04505 0.28579 0.11082 0.0
H402 H 0.00135 0.21349 0.13371 0.0
H403 H 0.99412 0.24319 0.15834 0.0
H404 H 0.029 0.29802 0.17902 0.0
C405 C 0.93721 0.09227 0.42773 0.0
C406 C 0.9635 0.0753 0.43242 0.0
C407 C 0.9081 0.09509 0.43769 0.0
C408 C 0.90506 0.08142 0.45267 0.0
C409 C 0.92993 0.06263 0.45707 0.0
C410 C 0.95879 0.0596 0.44709 0.0
C411 C 0.87783 0.08722 0.46426 0.0
C412 C 0.86156 0.11416 0.46292 0.0
C413 C 0.84025 0.12492 0.47547 0.0
C414 C 0.83699 0.16264 0.47451 0.0
C415 C 0.82084 0.17633 0.48652 0.0
C416 C 0.80759 0.15259 0.49979 0.0
H417 H 0.8247 0.06963 0.48954 0.0
C418 C 0.80885 0.11378 0.50052 0.0
C419 C 0.82461 0.09983 0.48846 0.0
H420 H 0.7983 0.09455 0.51056 0.0
H421 H 0.93962 0.1041 0.41642 0.0
H422 H 0.88856 0.10832 0.43355 0.0
H423 H 0.92802 0.05133 0.46844 0.0
H424 H 0.97831 0.04606 0.45106 0.0
H425 H 0.87454 0.07128 0.47484 0.0
H426 H 0.86724 0.13231 0.45272 0.0
H427 H 0.8482 0.18239 0.4646 0.0
H428 H 0.81986 0.20619 0.48561 0.0
C429 C 0.95021 0.92232 0.76332 0.0
C430 C 0.9547 0.96401 0.76409 0.0
C431 C 0.9171 0.88778 0.77118 0.0
C432 C 0.88796 0.89437 0.78013 0.0
C433 C 0.89357 0.93646 0.78127 0.0
C434 C 0.92654 0.97088 0.77338 0.0
C435 C 0.84912 0.85789 0.78731 0.0
C436 C 0.84389 0.81809 0.78951 0.0
C437 C 0.80242 0.78067 0.79501 0.0
C438 C 0.80363 0.74587 0.80171 0.0
C439 C 0.76484 0.70878 0.806 0.0
C440 C 0.72395 0.70569 0.80362 0.0
H441 H 0.75868 0.8027 0.78703 0.0
C442 C 0.72271 0.74046 0.79694 0.0
C443 C 0.76141 0.77751 0.79267 0.0
H444 H 0.69158 0.73851 0.79466 0.0
H445 H 0.97126 0.91589 0.7562 0.0
H446 H 0.91355 0.85581 0.76967 0.0
H447 H 0.87163 0.94257 0.78801 0.0
H448 H 0.92914 0.00261 0.77427 0.0
H449 H 0.82354 0.86435 0.79086 0.0
H450 H 0.87076 0.81237 0.78733 0.0
H451 H 0.83463 0.74711 0.80344 0.0
H452 H 0.76666 0.68208 0.81087 0.0
C453 C 0.03994 0.9552 0.08964 0.0
C454 C 0.00023 0.95463 0.08739 0.0
C455 C 0.04158 0.92425 0.0987 0.0
C456 C 0.00345 0.89221 0.1057 0.0
C457 C 0.96382 0.89145 0.10322 0.0
C458 C 0.96222 0.92232 0.09426 0.0
C459 C 0.00299 0.85864 0.11552 0.0
C460 C 0.03877 0.86317 0.12281 0.0
C461 C 0.03631 0.83122 0.13387 0.0
C462 C 0.06788 0.84606 0.14569 0.0
C463 C 0.06501 0.81782 0.1569 0.0
C464 C 0.03088 0.77385 0.1564 0.0
H465 H 0.97866 0.7737 0.12392 0.0
C466 C -0.0 0.75855 0.14432 0.0
C467 C 0.00284 0.78681 0.13311 0.0
H468 H 0.97323 0.72487 0.14369 0.0
H469 H 0.06971 0.97944 0.08439 0.0
H470 H 0.07256 0.92528 0.09998 0.0
H471 H 0.93389 0.86706 0.10837 0.0
H472 H 0.93098 0.92068 0.09271 0.0
H473 H 0.971 0.83055 0.11772 0.0
H474 H 0.07028 0.89299 0.12176 0.0
H475 H 0.09413 0.87998 0.14653 0.0
H476 H 0.08903 0.8306 0.16615 0.0
C477 C 0.20013 0.09571 0.41633 0.0
C478 C 0.16529 0.10198 0.4204 0.0
C479 C 0.22511 0.09003 0.42741 0.0
C480 C 0.21549 0.09021 0.44284 0.0
C481 C 0.18167 0.09803 0.44687 0.0
C482 C 0.15679 0.10371 0.43582 0.0
C483 C 0.23915 0.08189 0.4551 0.0
C484 C 0.2619 0.06116 0.45289 0.0
C485 C 0.28031 0.04795 0.46552 0.0
C486 C 0.28744 0.01281 0.46299 0.0
C487 C 0.3013 0.99702 0.47482 0.0
C488 C 0.30863 0.01627 0.48945 0.0
H489 H 0.28642 0.09678 0.48238 0.0
C490 C 0.30339 0.0526 0.49187 0.0
C491 C 0.28975 0.06855 0.48003 0.0
H492 H 0.30913 0.06826 0.50301 0.0
H493 H 0.20784 0.09466 0.40455 0.0
H494 H 0.25178 0.08559 0.42379 0.0
H495 H 0.17372 0.09877 0.45864 0.0
H496 H 0.13036 0.10871 0.43938 0.0
H497 H 0.23424 0.08997 0.46656 0.0
H498 H 0.26384 0.04976 0.44158 0.0
H499 H 0.28093 0.99658 0.45192 0.0
H500 H 0.30515 0.96898 0.47264 0.0
C501 C 0.13938 0.15959 0.77591 0.0
C502 C 0.12481 0.15148 0.76069 0.0
C503 C 0.16507 0.20255 0.78178 0.0
C504 C 0.17669 0.23827 0.77252 0.0
C505 C 0.16243 0.23004 0.7573 0.0
C506 C 0.13658 0.18721 0.75147 0.0
C507 C 0.20481 0.28447 0.77806 0.0
C508 C 0.20814 0.29795 0.79266 0.0
C509 C 0.23501 0.34481 0.79765 0.0
C510 C 0.22198 0.36026 0.81019 0.0
C511 C 0.24534 0.40466 0.81464 0.0
C512 C 0.28276 0.43429 0.80681 0.0
H513 H 0.28501 0.36343 0.78067 0.0
C514 C 0.29652 0.4186 0.79456 0.0
C515 C 0.27312 0.37434 0.79007 0.0
H516 H 0.32516 0.44078 0.78831 0.0
H517 H 0.13109 0.13278 0.78329 0.0
H518 H 0.17639 0.20751 0.79345 0.0
H519 H 0.17115 0.2569 0.74988 0.0
H520 H 0.12611 0.18218 0.73968 0.0
H521 H 0.22139 0.30868 0.76955 0.0
H522 H 0.18831 0.27468 0.80105 0.0
H523 H 0.19293 0.33816 0.81628 0.0
H524 H 0.23376 0.416 0.82403 0.0
C525 C 0.98103 0.0907 0.68475 0.0
C526 C 0.97267 0.06422 0.69725 0.0
C527 C 0.94676 0.09247 0.67739 0.0
C528 C 0.90339 0.06796 0.68249 0.0
C529 C 0.89507 0.04054 0.69469 0.0
C530 C 0.92919 0.03871 0.70199 0.0
C531 C 0.86578 0.07009 0.67576 0.0
C532 C 0.86986 0.10214 0.66686 0.0
C533 C 0.83178 0.10647 0.66205 0.0
C534 C 0.83933 0.1479 0.6583 0.0
C535 C 0.80417 0.15422 0.65511 0.0
C536 C 0.76066 0.11915 0.65559 0.0
H537 H 0.7809 0.03798 0.66373 0.0
C538 C 0.75313 0.07726 0.65854 0.0
C539 C 0.78825 0.07084 0.6616 0.0
H540 H 0.71994 0.04951 0.65876 0.0
H541 H 0.01412 0.11039 0.68071 0.0
H542 H 0.95464 0.11305 0.66777 0.0
H543 H 0.86205 0.02097 0.69882 0.0
H544 H 0.92145 0.01773 0.71153 0.0
H545 H 0.83337 0.0458 0.6794 0.0
H546 H 0.90229 0.12849 0.6641 0.0
H547 H 0.87248 0.17583 0.65833 0.0
H548 H 0.8109 0.18679 0.6527 0.0
C549 C 0.89947 0.93471 0.02547 0.0
C550 C 0.94515 0.95665 0.02356 0.0
C551 C 0.87095 0.90294 0.01469 0.0
C552 C 0.88782 0.89327 0.00173 0.0
C553 C 0.93331 0.91642 0.99964 0.0
C554 C 0.96169 0.94736 0.01049 0.0
C555 C 0.85948 0.85924 0.99015 0.0
C556 C 0.82249 0.82194 0.99341 0.0
C557 C 0.79989 0.78503 0.98209 0.0
C558 C 0.78078 0.74191 0.9869 0.0
C559 C 0.76444 0.70677 0.97633 0.0
C560 C 0.76613 0.71413 0.96075 0.0
H561 H 0.81285 0.82488 0.96246 0.0
C562 C 0.78309 0.75707 0.95599 0.0
C563 C 0.79956 0.79215 0.96654 0.0
H564 H 0.78481 0.76362 0.94406 0.0
H565 H 0.8859 0.94142 0.03542 0.0
H566 H 0.83591 0.88626 0.01646 0.0
H567 H 0.9471 0.90982 0.98971 0.0
H568 H 0.99672 0.96409 0.00862 0.0
H569 H 0.87253 0.86283 0.97886 0.0
H570 H 0.81178 0.81617 0.00503 0.0
H571 H 0.78044 0.73553 0.99882 0.0
H572 H 0.75187 0.67402 0.9803 0.0
C573 C 0.02345 0.94601 0.37888 0.0
C574 C 0.02596 0.98519 0.37482 0.0
C575 C 0.01553 0.91359 0.36789 0.0
C576 C 0.00949 0.91946 0.35256 0.0
C577 C 0.01202 0.95866 0.34854 0.0
C578 C 0.02004 0.99112 0.35952 0.0
C579 C 0.0026 0.88661 0.34038 0.0
C580 C 0.98791 0.84408 0.34282 0.0
C581 C 0.98217 0.81157 0.33068 0.0
C582 C 0.95428 0.76684 0.33317 0.0
C583 C 0.94878 0.73511 0.32225 0.0
C584 C 0.9716 0.74739 0.30866 0.0
H585 H 0.02767 0.85782 0.31477 0.0
C586 C 0.99934 0.79214 0.3061 0.0
C587 C 0.0049 0.82388 0.31702 0.0
H588 H 0.01702 0.80254 0.29566 0.0
H589 H 0.02829 0.94058 0.39054 0.0
H590 H 0.01531 0.88462 0.37148 0.0
H591 H 0.00788 0.96429 0.33683 0.0
H592 H 0.0219 0.02098 0.356 0.0
H593 H 0.00858 0.89795 0.3289 0.0
H594 H 0.97808 0.83183 0.35408 0.0
H595 H 0.9365 0.75636 0.3436 0.0
H596 H 0.92676 0.7009 0.32445 0.0
C597 C 0.14791 0.0136 0.70272 0.0
C598 C 0.10272 0.98986 0.69903 0.0
C599 C 0.17743 0.00629 0.69456 0.0
C600 C 0.16244 0.97517 0.68243 0.0
C601 C 0.11722 0.95112 0.67886 0.0
C602 C 0.08768 0.95852 0.687 0.0
C603 C 0.19261 0.96536 0.6738 0.0
C604 C 0.2359 0.99433 0.67254 0.0
C605 C 0.26717 0.98376 0.66509 0.0
C606 C 0.31188 0.00882 0.66932 0.0
C607 C 0.34226 0.99877 0.66332 0.0
C608 C 0.32873 0.96379 0.65273 0.0
H609 H 0.21993 0.93023 0.65017 0.0
C610 C 0.28427 0.93956 0.64806 0.0
C611 C 0.25377 0.9495 0.65412 0.0
H612 H 0.27302 0.91242 0.63991 0.0
H613 H 0.16059 0.03774 0.712 0.0
H614 H 0.21172 0.02443 0.69807 0.0
H615 H 0.10469 0.9266 0.6697 0.0
H616 H 0.05306 0.93953 0.6839 0.0
H617 H 0.17835 0.93291 0.66849 0.0
H618 H 0.24981 0.02685 0.67777 0.0
H619 H 0.32322 0.03559 0.67765 0.0
H620 H 0.37627 0.01787 0.66718 0.0
C621 C 0.1323 0.16354 0.02704 0.0
C622 C 0.08957 0.13274 0.02176 0.0
C623 C 0.16244 0.19483 0.01736 0.0
C624 C 0.1503 0.19548 0.0022 0.0
C625 C 0.1083 0.16335 0.99684 0.0
C626 C 0.07818 0.13262 0.00651 0.0
C627 C 0.17957 0.22934 0.99161 0.0
C628 C 0.21053 0.27044 0.99603 0.0
C629 C 0.23273 0.306 0.98511 0.0
C630 C 0.24625 0.34919 0.98988 0.0
C631 C 0.26201 0.38254 0.97949 0.0
C632 C 0.26492 0.37339 0.96412 0.0
H633 H 0.22989 0.265 0.96587 0.0
C634 C 0.25386 0.33075 0.9595 0.0
C635 C 0.23829 0.29747 0.96989 0.0
H636 H 0.25613 0.32288 0.94775 0.0
H637 H 0.14204 0.16421 0.03873 0.0
H638 H 0.19496 0.2184 0.02178 0.0
H639 H 0.09819 0.16278 0.9852 0.0
H640 H 0.04569 0.109 0.00204 0.0
H641 H 0.17147 0.22139 0.97964 0.0
H642 H 0.21588 0.27968 0.008 0.0
H643 H 0.24277 0.35682 0.00155 0.0
H644 H 0.27039 0.41518 0.98334 0.0
C645 C 0.07712 0.21222 0.35271 0.0
C646 C 0.08685 0.20916 0.36791 0.0
C647 C 0.08891 0.25283 0.34683 0.0
C648 C 0.11073 0.29128 0.35606 0.0
C649 C 0.1206 0.28816 0.3712 0.0
C650 C 0.10909 0.24766 0.37705 0.0
C651 C 0.12172 0.3348 0.35058 0.0
C652 C 0.12814 0.34551 0.33595 0.0
C653 C 0.13998 0.38972 0.33097 0.0
C654 C 0.16731 0.4072 0.31855 0.0
C655 C 0.18071 0.4496 0.31409 0.0
C656 C 0.16603 0.4749 0.32174 0.0
H657 H 0.10246 0.4018 0.34776 0.0
C658 C 0.13764 0.45688 0.33388 0.0
C659 C 0.12457 0.4147 0.33842 0.0
H660 H 0.12616 0.47582 0.34004 0.0
H661 H 0.05981 0.18315 0.34539 0.0
H662 H 0.07973 0.2537 0.33521 0.0
H663 H 0.13715 0.3172 0.37859 0.0
H664 H 0.11695 0.2465 0.38882 0.0
H665 H 0.12673 0.35967 0.35911 0.0
H666 H 0.12762 0.32246 0.3275 0.0
H667 H 0.17941 0.38852 0.31257 0.0
H668 H 0.20318 0.4629 0.30485 0.0
loop_
_geom_bond_atom_site_label_1
_geom_bond_atom_site_label_2
_geom_bond_distance
_geom_bond_site_symmetry_2
_ccdc_geom_bond_type
C0 O1 1.165 . S
C0 O7 1.188 . S
O1 C0 1.165 . S
O2 Zn3 1.899 . S
O2 C10 1.284 . S
Zn3 O2 1.899 . S
Zn3 O4 2.032 1_455 S
Zn3 O7 2.086 . S
Zn3 O12 1.977 . S
O4 Zn3 2.032 1_655 S
O4 C8 1.278 . S
C5 O6 1.203 . S
C5 O12 1.267 . S
O6 C5 1.203 . S
O7 C0 1.188 . S
O7 Zn3 2.086 . S
C8 O4 1.278 . S
C8 O9 1.211 . S
O9 C8 1.211 . S
C10 O2 1.284 . S
C10 O11 1.273 1_455 S
O11 C10 1.273 1_655 S
O12 Zn3 1.977 . S
O12 C5 1.267 . S
C13 O14 1.160 . S
C13 O20 1.185 . S
O14 C13 1.160 . S
O15 Zn16 1.899 . S
O15 C23 1.284 . S
Zn16 O15 1.899 . S
Zn16 O17 2.032 . S
Zn16 O20 2.086 . S
Zn16 O25 1.977 . S
O17 Zn16 2.032 . S
O17 C21 1.278 . S
C18 O19 1.203 . S
C18 O25 1.267 . S
O19 C18 1.203 . S
O20 C13 1.185 . S
O20 Zn16 2.086 . S
C21 O17 1.278 . S
C21 O22 1.211 . S
O22 C21 1.211 . S
C23 O15 1.284 . S
C23 O24 1.273 . S
O24 C23 1.273 . S
O25 Zn16 1.977 . S
O25 C18 1.267 . S
C26 O27 1.160 . S
C26 O33 1.185 . S
O27 C26 1.160 . S
O28 Zn29 1.880 1_655 S
O28 C36 1.303 . S
Zn29 O28 1.880 1_455 S
Zn29 O30 2.032 . S
Zn29 O33 2.086 . S
Zn29 O38 1.977 1_545 S
O30 Zn29 2.032 . S
O30 C34 1.278 . S
C31 O32 1.203 . S
C31 O38 1.267 1_655 S
O32 C31 1.203 . S
O33 C26 1.185 . S
O33 Zn29 2.086 . S
C34 O30 1.278 . S
C34 O35 1.211 . S
O35 C34 1.211 . S
C36 O28 1.303 . S
C36 O37 1.273 1_655 S
O37 C36 1.273 1_455 S
O38 Zn29 1.977 1_565 S
O38 C31 1.267 1_455 S
C39 C40 1.560 1_655 S
C39 H100 0.959 . S
C39 H101 0.959 . S
C39 H102 0.960 . S
C40 C39 1.560 1_455 S
C40 O95 1.426 1_455 S
C40 H99 0.980 . S
C41 C42 1.407 . S
C41 C46 1.418 1_455 S
C41 O95 1.334 1_455 S
C42 C41 1.407 . S
C42 C43 1.360 . S
C42 H103 0.929 . S
C43 C42 1.360 . S
C43 C44 1.401 . S
C43 C47 1.527 . S
C44 C43 1.401 . S
C44 C45 1.405 1_455 S
C44 C77 1.587 . S
C45 C44 1.405 1_655 S
C45 C46 1.332 . S
C45 C48 1.496 . S
C46 C41 1.418 1_655 S
C46 C45 1.332 . S
C46 H104 0.929 . S
C47 C43 1.527 . S
C47 H105 0.959 . S
C47 H106 0.961 . S
C47 H107 0.961 . S
C48 C45 1.496 . S
C48 H108 0.960 . S
C48 H109 0.960 . S
C48 H110 0.961 . S
C49 C50 1.517 . S
C49 H112 0.961 . S
C49 H113 0.960 . S
C49 H114 0.959 . S
C50 C49 1.517 . S
C50 O98 1.468 . S
C50 H111 0.980 . S
C51 C52 1.349 . S
C51 C56 1.367 . S
C51 O98 1.408 . S
C52 C51 1.349 . S
C52 C53 1.407 . S
C52 H115 0.930 . S
C53 C52 1.407 . S
C53 C54 1.449 . S
C53 C57 1.535 1_455 S
C54 C53 1.449 . S
C54 C55 1.384 . S
C54 C79 1.553 . S
C55 C54 1.384 . S
C55 C56 1.364 . S
C55 C58 1.450 . S
C56 C51 1.367 . S
C56 C55 1.364 . S
C56 H116 0.931 . S
C57 C53 1.535 1_655 S
C57 H117 0.959 . S
C57 H118 0.961 . S
C57 H119 0.959 . S
C58 C55 1.450 . S
C58 H120 0.960 . S
C58 H121 0.960 . S
C58 H122 0.960 . S
C59 C60 1.309 . S
C59 C64 1.304 . S
C59 O97 1.435 . S
C60 C59 1.309 . S
C60 C61 1.476 . S
C60 H124 0.934 . S
C61 C60 1.476 . S
C61 C62 1.400 . S
C61 C65 1.567 1_455 S
C62 C61 1.400 . S
C62 C63 1.373 . S
C62 C84 1.432 . S
C63 C62 1.373 . S
C63 C64 1.339 . S
C63 C66 1.530 . S
C64 C59 1.304 . S
C64 C63 1.339 . S
C64 H125 0.930 . S
C65 C61 1.567 1_655 S
C65 H126 0.961 . S
C65 H127 0.960 . S
C65 H128 0.958 . S
C66 C63 1.530 . S
C66 H129 0.961 . S
C66 H130 0.960 . S
C66 H131 0.960 . S
C67 C68 1.530 1_655 S
C67 H133 0.960 1_655 S
C67 H134 0.961 . S
C67 H135 0.959 . S
C68 C67 1.530 1_455 S
C68 O96 1.412 1_455 S
C68 H132 0.980 . S
C69 C70 1.288 . S
C69 C74 1.377 1_655 S
C69 O96 1.393 . S
C70 C69 1.288 . S
C70 C71 1.369 . S
C70 H136 0.932 . S
C71 C70 1.369 . S
C71 C72 1.398 1_655 S
C71 C75 1.527 . S
C72 C71 1.398 1_455 S
C72 C73 1.380 . S
C72 C86 1.497 . S
C73 C72 1.380 . S
C73 C74 1.383 . S
C73 C76 1.603 . S
C74 C69 1.377 1_455 S
C74 C73 1.383 . S
C74 H137 0.929 . S
C75 C71 1.527 . S
C75 H138 0.961 . S
C75 H139 0.959 . S
C75 H140 0.959 . S
C76 C73 1.603 . S
C76 H141 0.960 . S
C76 H142 0.962 . S
C76 H143 0.961 . S
C77 C44 1.587 . S
C77 C78 1.360 . S
C77 C90 1.412 . S
C78 C77 1.360 . S
C78 C79 1.365 . S
C78 H144 0.929 . S
C79 C54 1.553 . S
C79 C78 1.365 . S
C79 C80 1.404 . S
C80 C79 1.404 . S
C80 C81 1.395 . S
C80 C91 1.451 . S
C81 C80 1.395 . S
C81 C82 1.322 . S
C81 H145 0.930 . S
C82 C81 1.322 . S
C82 C83 1.459 . S
C82 H146 0.929 . S
C83 C82 1.459 . S
C83 C84 1.445 . S
C83 C92 1.395 . S
C84 C62 1.432 . S
C84 C83 1.445 . S
C84 C85 1.370 . S
C85 C84 1.370 . S
C85 C86 1.438 . S
C85 H147 0.930 . S
C86 C72 1.497 . S
C86 C85 1.438 . S
C86 C87 1.360 . S
C87 C86 1.360 . S
C87 C88 1.401 . S
C87 C92 1.446 . S
C88 C87 1.401 . S
C88 C89 1.347 . S
C88 H148 0.929 . S
C89 C88 1.347 . S
C89 C90 1.455 . S
C89 H149 0.930 . S
C90 C77 1.412 . S
C90 C89 1.455 . S
C90 C91 1.331 . S
C91 C80 1.451 . S
C91 C90 1.331 . S
C91 C92 1.497 . S
C92 C83 1.395 . S
C92 C87 1.446 . S
C92 C91 1.497 . S
C93 C94 1.582 . S
C93 H150 0.962 . S
C93 H151 0.959 . S
C93 H152 0.958 . S
C94 C93 1.582 . S
C94 O97 1.458 . S
C94 H123 0.980 . S
O95 C40 1.426 1_655 S
O95 C41 1.334 1_655 S
O96 C68 1.412 1_655 S
O96 C69 1.393 . S
O97 C59 1.435 . S
O97 C94 1.458 . S
O98 C50 1.468 . S
O98 C51 1.408 . S
H99 C40 0.980 . S
H100 C39 0.959 . S
H101 C39 0.959 . S
H102 C39 0.960 . S
H103 C42 0.929 . S
H104 C46 0.929 . S
H105 C47 0.959 . S
H106 C47 0.961 . S
H107 C47 0.961 . S
H108 C48 0.960 . S
H109 C48 0.960 . S
H110 C48 0.961 . S
H111 C50 0.980 . S
H112 C49 0.961 . S
H113 C49 0.960 . S
H114 C49 0.959 . S
H115 C52 0.930 . S
H116 C56 0.931 . S
H117 C57 0.959 . S
H118 C57 0.961 . S
H119 C57 0.959 . S
H120 C58 0.960 . S
H121 C58 0.960 . S
H122 C58 0.960 . S
H123 C94 0.980 . S
H124 C60 0.934 . S
H125 C64 0.930 . S
H126 C65 0.961 . S
H127 C65 0.960 . S
H128 C65 0.958 . S
H129 C66 0.961 . S
H130 C66 0.960 . S
H131 C66 0.960 . S
H132 C68 0.980 . S
H133 C67 0.960 1_455 S
H134 C67 0.961 . S
H135 C67 0.959 . S
H136 C70 0.932 . S
H137 C74 0.929 . S
H138 C75 0.961 . S
H139 C75 0.959 . S
H140 C75 0.959 . S
H141 C76 0.960 . S
H142 C76 0.962 . S
H143 C76 0.961 . S
H144 C78 0.929 . S
H145 C81 0.930 . S
H146 C82 0.929 . S
H147 C85 0.930 . S
H148 C88 0.929 . S
H149 C89 0.930 . S
H150 C93 0.962 . S
H151 C93 0.959 . S
H152 C93 0.958 . S
C153 C154 1.560 1_565 S
C153 H214 0.959 . S
C153 H215 0.959 . S
C153 H216 0.960 1_565 S
C154 C153 1.560 1_545 S
C154 O209 1.426 . S
C154 H213 0.980 . S
C155 C156 1.407 . S
C155 C160 1.418 1_545 S
C155 O209 1.334 . S
C156 C155 1.407 . S
C156 C157 1.360 . S
C156 H217 0.929 . S
C157 C156 1.360 . S
C157 C158 1.401 . S
C157 C161 1.527 . S
C158 C157 1.401 . S
C158 C159 1.405 . S
C158 C191 1.587 . S
C159 C158 1.405 . S
C159 C160 1.332 1_545 S
C159 C162 1.496 1_545 S
C160 C155 1.418 1_565 S
C160 C159 1.332 1_565 S
C160 H218 0.929 . S
C161 C157 1.527 . S
C161 H219 0.959 . S
C161 H220 0.961 . S
C161 H221 0.961 . S
C162 C159 1.496 1_565 S
C162 H222 0.960 . S
C162 H223 0.960 . S
C162 H224 0.961 . S
C163 C164 1.517 . S
C163 H226 0.961 . S
C163 H227 0.960 . S
C163 H228 0.959 . S
C164 C163 1.517 . S
C164 O212 1.468 . S
C164 H225 0.980 . S
C165 C166 1.349 . S
C165 C170 1.367 . S
C165 O212 1.408 . S
C166 C165 1.349 . S
C166 C167 1.407 . S
C166 H229 0.930 . S
C167 C166 1.407 . S
C167 C168 1.449 . S
C167 C171 1.535 . S
C168 C167 1.449 . S
C168 C169 1.384 . S
C168 C193 1.553 . S
C169 C168 1.384 . S
C169 C170 1.364 . S
C169 C172 1.450 . S
C170 C165 1.367 . S
C170 C169 1.364 . S
C170 H230 0.931 . S
C171 C167 1.535 . S
C171 H231 0.959 . S
C171 H232 0.961 1_545 S
C171 H233 0.959 1_545 S
C172 C169 1.450 . S
C172 H234 0.960 . S
C172 H235 0.960 . S
C172 H236 0.960 . S
C173 C174 1.309 . S
C173 C178 1.304 . S
C173 O211 1.435 . S
C174 C173 1.309 . S
C174 C175 1.476 . S
C174 H238 0.930 . S
C175 C174 1.476 . S
C175 C176 1.400 . S
C175 C179 1.567 . S
C176 C175 1.400 . S
C176 C177 1.373 . S
C176 C198 1.432 . S
C177 C176 1.373 . S
C177 C178 1.339 . S
C177 C180 1.530 . S
C178 C173 1.304 . S
C178 C177 1.339 . S
C178 H239 0.930 . S
C179 C175 1.567 . S
C179 H240 0.961 . S
C179 H241 0.960 1_545 S
C179 H242 0.958 1_545 S
C180 C177 1.530 . S
C180 H243 0.961 . S
C180 H244 0.960 . S
C180 H245 0.960 . S
C181 C182 1.530 . S
C181 H247 0.961 . S
C181 H248 0.961 . S
C181 H249 0.959 . S
C182 C181 1.530 . S
C182 O210 1.412 . S
C182 H246 0.980 . S
C183 C184 1.288 . S
C183 C188 1.377 . S
C183 O210 1.393 . S
C184 C183 1.288 . S
C184 C185 1.369 . S
C184 H250 0.932 1_545 S
C185 C184 1.369 . S
C185 C186 1.398 . S
C185 C189 1.527 1_545 S
C186 C185 1.398 . S
C186 C187 1.380 . S
C186 C200 1.497 . S
C187 C186 1.380 . S
C187 C188 1.383 . S
C187 C190 1.603 . S
C188 C183 1.377 . S
C188 C187 1.383 . S
C188 H251 0.929 . S
C189 C185 1.527 1_565 S
C189 H252 0.961 . S
C189 H253 0.959 . S
C189 H254 0.959 . S
C190 C187 1.603 . S
C190 H255 0.960 . S
C190 H256 0.962 . S
C190 H257 0.961 . S
C191 C158 1.587 . S
C191 C192 1.360 . S
C191 C204 1.412 . S
C192 C191 1.360 . S
C192 C193 1.365 . S
C192 H258 0.929 . S
C193 C168 1.553 . S
C193 C192 1.365 . S
C193 C194 1.404 . S
C194 C193 1.404 . S
C194 C195 1.395 . S
C194 C205 1.451 . S
C195 C194 1.395 . S
C195 C196 1.322 . S
C195 H259 0.930 . S
C196 C195 1.322 . S
C196 C197 1.459 . S
C196 H260 0.929 . S
C197 C196 1.459 . S
C197 C198 1.445 . S
C197 C206 1.395 . S
C198 C176 1.432 . S
C198 C197 1.445 . S
C198 C199 1.370 . S
C199 C198 1.370 . S
C199 C200 1.438 . S
C199 H261 0.930 . S
C200 C186 1.497 . S
C200 C199 1.438 . S
C200 C201 1.360 . S
C201 C200 1.360 . S
C201 C202 1.401 . S
C201 C206 1.446 . S
C202 C201 1.401 . S
C202 C203 1.347 . S
C202 H262 0.929 . S
C203 C202 1.347 . S
C203 C204 1.455 . S
C203 H263 0.930 . S
C204 C191 1.412 . S
C204 C203 1.455 . S
C204 C205 1.331 . S
C205 C194 1.451 . S
C205 C204 1.331 . S
C205 C206 1.497 . S
C206 C197 1.395 . S
C206 C201 1.446 . S
C206 C205 1.497 . S
C207 C208 1.582 . S
C207 H264 0.962 . S
C207 H265 0.959 . S
C207 H266 0.958 . S
C208 C207 1.582 . S
C208 O211 1.458 . S
C208 H237 0.980 . S
O209 C154 1.426 . S
O209 C155 1.334 . S
O210 C182 1.412 . S
O210 C183 1.393 . S
O211 C173 1.435 . S
O211 C208 1.458 . S
O212 C164 1.468 . S
O212 C165 1.408 . S
H213 C154 0.980 . S
H214 C153 0.959 . S
H215 C153 0.959 . S
H216 C153 0.960 1_545 S
H217 C156 0.929 . S
H218 C160 0.929 . S
H219 C161 0.959 . S
H220 C161 0.961 . S
H221 C161 0.961 . S
H222 C162 0.960 . S
H223 C162 0.960 . S
H224 C162 0.961 . S
H225 C164 0.980 . S
H226 C163 0.961 . S
H227 C163 0.960 . S
H228 C163 0.959 . S
H229 C166 0.930 . S
H230 C170 0.931 . S
H231 C171 0.959 . S
H232 C171 0.961 1_565 S
H233 C171 0.959 1_565 S
H234 C172 0.960 . S
H235 C172 0.960 . S
H236 C172 0.960 . S
H237 C208 0.980 . S
H238 C174 0.930 . S
H239 C178 0.930 . S
H240 C179 0.961 . S
H241 C179 0.960 1_565 S
H242 C179 0.958 1_565 S
H243 C180 0.961 . S
H244 C180 0.960 . S
H245 C180 0.960 . S
H246 C182 0.980 . S
H247 C181 0.961 . S
H248 C181 0.961 . S
H249 C181 0.959 . S
H250 C184 0.932 1_565 S
H251 C188 0.929 . S
H252 C189 0.961 . S
H253 C189 0.959 . S
H254 C189 0.959 . S
H255 C190 0.960 . S
H256 C190 0.962 . S
H257 C190 0.961 . S
H258 C192 0.929 . S
H259 C195 0.930 . S
H260 C196 0.929 . S
H261 C199 0.930 . S
H262 C202 0.929 . S
H263 C203 0.930 . S
H264 C207 0.962 . S
H265 C207 0.959 . S
H266 C207 0.958 . S
C267 C268 1.560 . S
C267 H328 0.959 . S
C267 H329 0.959 . S
C267 H330 0.960 . S
C268 C267 1.560 . S
C268 O323 1.426 . S
C268 H327 0.980 . S
C269 C270 1.407 . S
C269 C274 1.418 . S
C269 O323 1.334 . S
C270 C269 1.407 . S
C270 C271 1.360 . S
C270 H331 0.929 . S
C271 C270 1.360 . S
C271 C272 1.401 . S
C271 C275 1.527 . S
C272 C271 1.401 . S
C272 C273 1.405 . S
C272 C305 1.587 . S
C273 C272 1.405 . S
C273 C274 1.332 . S
C273 C276 1.496 . S
C274 C269 1.418 . S
C274 C273 1.332 . S
C274 H332 0.929 . S
C275 C271 1.527 . S
C275 H333 0.959 . S
C275 H334 0.961 . S
C275 H335 0.961 . S
C276 C273 1.496 . S
C276 H336 0.960 . S
C276 H337 0.960 . S
C276 H338 0.961 . S
C277 C278 1.517 . S
C277 H340 0.961 . S
C277 H341 0.960 . S
C277 H342 0.959 . S
C278 C277 1.517 . S
C278 O326 1.468 . S
C278 H339 0.980 . S
C279 C280 1.349 . S
C279 C284 1.367 . S
C279 O326 1.408 . S
C280 C279 1.349 . S
C280 C281 1.407 . S
C280 H343 0.930 . S
C281 C280 1.407 . S
C281 C282 1.449 . S
C281 C285 1.535 . S
C282 C281 1.449 . S
C282 C283 1.384 . S
C282 C307 1.553 . S
C283 C282 1.384 . S
C283 C284 1.364 . S
C283 C286 1.450 . S
C284 C279 1.367 . S
C284 C283 1.364 . S
C284 H344 0.931 . S
C285 C281 1.535 . S
C285 H345 0.959 . S
C285 H346 0.961 . S
C285 H347 0.959 . S
C286 C283 1.450 . S
C286 H348 0.960 . S
C286 H349 0.960 . S
C286 H350 0.960 . S
C287 C288 1.309 . S
C287 C292 1.304 . S
C287 O325 1.435 . S
C288 C287 1.309 . S
C288 C289 1.476 . S
C288 H352 0.930 . S
C289 C288 1.476 . S
C289 C290 1.400 . S
C289 C293 1.567 . S
C290 C289 1.400 . S
C290 C291 1.373 . S
C290 C312 1.432 . S
C291 C290 1.373 . S
C291 C292 1.339 . S
C291 C294 1.530 . S
C292 C287 1.304 . S
C292 C291 1.339 . S
C292 H353 0.930 . S
C293 C289 1.567 . S
C293 H354 0.961 . S
C293 H355 0.960 . S
C293 H356 0.958 . S
C294 C291 1.530 . S
C294 H357 0.961 . S
C294 H358 0.960 . S
C294 H359 0.960 . S
C295 C296 1.530 . S
C295 H361 0.961 . S
C295 H362 0.961 . S
C295 H363 0.959 . S
C296 C295 1.530 . S
C296 O324 1.412 . S
C296 H360 0.980 . S
C297 C298 1.288 . S
C297 C302 1.377 . S
C297 O324 1.393 . S
C298 C297 1.288 . S
C298 C299 1.369 . S
C298 H364 0.932 . S
C299 C298 1.369 . S
C299 C300 1.398 . S
C299 C303 1.527 . S
C300 C299 1.398 . S
C300 C301 1.380 . S
C300 C314 1.497 . S
C301 C300 1.380 . S
C301 C302 1.383 . S
C301 C304 1.603 . S
C302 C297 1.377 . S
C302 C301 1.383 . S
C302 H365 0.929 . S
C303 C299 1.527 . S
C303 H366 0.961 . S
C303 H367 0.959 . S
C303 H368 0.959 . S
C304 C301 1.603 . S
C304 H369 0.960 . S
C304 H370 0.962 . S
C304 H371 0.961 . S
C305 C272 1.587 . S
C305 C306 1.360 . S
C305 C318 1.412 . S
C306 C305 1.360 . S
C306 C307 1.365 . S
C306 H372 0.929 . S
C307 C282 1.553 . S
C307 C306 1.365 . S
C307 C308 1.404 . S
C308 C307 1.404 . S
C308 C309 1.395 . S
C308 C319 1.451 . S
C309 C308 1.395 . S
C309 C310 1.322 . S
C309 H373 0.930 . S
C310 C309 1.322 . S
C310 C311 1.459 . S
C310 H374 0.929 . S
C311 C310 1.459 . S
C311 C312 1.445 . S
C311 C320 1.395 . S
C312 C290 1.432 . S
C312 C311 1.445 . S
C312 C313 1.370 . S
C313 C312 1.370 . S
C313 C314 1.438 . S
C313 H375 0.930 . S
C314 C300 1.497 . S
C314 C313 1.438 . S
C314 C315 1.360 . S
C315 C314 1.360 . S
C315 C316 1.401 . S
C315 C320 1.446 . S
C316 C315 1.401 . S
C316 C317 1.347 . S
C316 H376 0.929 . S
C317 C316 1.347 . S
C317 C318 1.455 . S
C317 H377 0.930 . S
C318 C305 1.412 . S
C318 C317 1.455 . S
C318 C319 1.331 . S
C319 C308 1.451 . S
C319 C318 1.331 . S
C319 C320 1.497 . S
C320 C311 1.395 . S
C320 C315 1.446 . S
C320 C319 1.497 . S
C321 C322 1.582 . S
C321 H378 0.962 . S
C321 H379 0.959 . S
C321 H380 0.958 . S
C322 C321 1.582 . S
C322 O325 1.458 . S
C322 H351 0.980 . S
O323 C268 1.426 . S
O323 C269 1.334 . S
O324 C296 1.412 . S
O324 C297 1.393 . S
O325 C287 1.435 . S
O325 C322 1.458 . S
O326 C278 1.468 . S
O326 C279 1.408 . S
H327 C268 0.980 . S
H328 C267 0.959 . S
H329 C267 0.959 . S
H330 C267 0.960 . S
H331 C270 0.929 . S
H332 C274 0.929 . S
H333 C275 0.959 . S
H334 C275 0.961 . S
H335 C275 0.961 . S
H336 C276 0.960 . S
H337 C276 0.960 . S
H338 C276 0.961 . S
H339 C278 0.980 . S
H340 C277 0.961 . S
H341 C277 0.960 . S
H342 C277 0.959 . S
H343 C280 0.930 . S
H344 C284 0.931 . S
H345 C285 0.959 . S
H346 C285 0.961 . S
H347 C285 0.959 . S
H348 C286 0.960 . S
H349 C286 0.960 . S
H350 C286 0.960 . S
H351 C322 0.980 . S
H352 C288 0.930 . S
H353 C292 0.930 . S
H354 C293 0.961 . S
H355 C293 0.960 . S
H356 C293 0.958 . S
H357 C294 0.961 . S
H358 C294 0.960 . S
H359 C294 0.960 . S
H360 C296 0.980 . S
H361 C295 0.961 . S
H362 C295 0.961 . S
H363 C295 0.959 . S
H364 C298 0.932 . S
H365 C302 0.929 . S
H366 C303 0.961 . S
H367 C303 0.959 . S
H368 C303 0.959 . S
H369 C304 0.960 . S
H370 C304 0.962 . S
H371 C304 0.961 . S
H372 C306 0.929 . S
H373 C309 0.930 . S
H374 C310 0.929 . S
H375 C313 0.930 . S
H376 C316 0.929 . S
H377 C317 0.930 . S
H378 C321 0.962 . S
H379 C321 0.959 . S
H380 C321 0.958 . S
C381 C382 1.386 . S
C381 C383 1.383 . S
C381 H397 0.951 . S
C382 C381 1.386 . S
C382 C386 1.383 1_455 S
C383 C381 1.383 . S
C383 C384 1.402 . S
C383 H398 0.951 . S
C384 C383 1.402 . S
C384 C385 1.375 1_455 S
C384 C387 1.481 . S
C385 C384 1.375 1_655 S
C385 C386 1.367 . S
C385 H399 0.951 . S
C386 C382 1.383 1_655 S
C386 C385 1.367 . S
C386 H400 0.950 . S
C387 C384 1.481 . S
C387 C388 1.297 . S
C387 H401 0.950 1_455 S
C388 C387 1.297 . S
C388 C389 1.479 . S
C388 H402 0.950 . S
C389 C388 1.479 . S
C389 C390 1.375 . S
C389 C395 1.386 1_455 S
C390 C389 1.375 . S
C390 C391 1.369 . S
C390 H403 0.950 . S
C391 C390 1.369 . S
C391 C392 1.392 . S
C391 H404 0.951 . S
C392 C391 1.392 . S
C392 C394 1.384 1_455 S
H393 C395 0.957 . S
C394 C392 1.384 1_655 S
C394 C395 1.394 . S
C394 H396 0.950 . S
C395 C389 1.386 1_655 S
C395 H393 0.957 . S
C395 C394 1.394 . S
H396 C394 0.950 . S
H397 C381 0.951 . S
H398 C383 0.951 . S
H399 C385 0.951 . S
H400 C386 0.950 . S
H401 C387 0.950 1_655 S
H402 C388 0.950 . S
H403 C390 0.950 . S
H404 C391 0.951 . S
C405 C406 1.386 . S
C405 C407 1.383 . S
C405 H421 0.951 . S
C406 C405 1.386 . S
C406 C410 1.383 . S
C407 C405 1.383 . S
C407 C408 1.402 . S
C407 H422 0.951 . S
C408 C407 1.402 . S
C408 C409 1.375 . S
C408 C411 1.481 . S
C409 C408 1.375 . S
C409 C410 1.367 . S
C409 H423 0.951 1_545 S
C410 C406 1.383 . S
C410 C409 1.367 . S
C410 H424 0.950 . S
C411 C408 1.481 . S
C411 C412 1.297 . S
C411 H425 0.950 . S
C412 C411 1.297 . S
C412 C413 1.479 . S
C412 H426 0.950 . S
C413 C412 1.479 . S
C413 C414 1.375 . S
C413 C419 1.404 . S
C414 C413 1.375 . S
C414 C415 1.369 . S
C414 H427 0.950 . S
C415 C414 1.369 . S
C415 C416 1.392 . S
C415 H428 0.951 . S
C416 C415 1.392 . S
C416 C418 1.384 . S
H417 C419 0.945 1_565 S
C418 C416 1.384 . S
C418 C419 1.385 . S
C418 H420 0.934 1_545 S
C419 C413 1.404 . S
C419 H417 0.945 1_545 S
C419 C418 1.385 . S
H420 C418 0.934 1_565 S
H421 C405 0.951 . S
H422 C407 0.951 . S
H423 C409 0.951 1_565 S
H424 C410 0.950 . S
H425 C411 0.950 . S
H426 C412 0.950 . S
H427 C414 0.950 . S
H428 C415 0.951 . S
C429 C430 1.386 . S
C429 C431 1.383 . S
C429 H445 0.951 . S
C430 C429 1.386 . S
C430 C434 1.383 . S
C431 C429 1.383 . S
C431 C432 1.402 . S
C431 H446 0.951 . S
C432 C431 1.402 . S
C432 C433 1.375 . S
C432 C435 1.481 . S
C433 C432 1.375 . S
C433 C434 1.367 . S
C433 H447 0.951 . S
C434 C430 1.383 . S
C434 C433 1.367 . S
C434 H448 0.950 . S
C435 C432 1.481 . S
C435 C436 1.297 . S
C435 H449 0.950 . S
C436 C435 1.297 . S
C436 C437 1.479 . S
C436 H450 0.950 . S
C437 C436 1.479 . S
C437 C438 1.375 . S
C437 C443 1.404 . S
C438 C437 1.375 . S
C438 C439 1.369 . S
C438 H451 0.950 . S
C439 C438 1.369 . S
C439 C440 1.392 . S
C439 H452 0.951 . S
C440 C439 1.392 . S
C440 C442 1.384 . S
H441 C443 0.949 . S
C442 C440 1.384 . S
C442 C443 1.385 . S
C442 H444 0.950 . S
C443 C437 1.404 . S
C443 H441 0.949 . S
C443 C442 1.385 . S
H444 C442 0.950 . S
H445 C429 0.951 . S
H446 C431 0.951 . S
H447 C433 0.951 . S
H448 C434 0.950 . S
H449 C435 0.950 . S
H450 C436 0.950 . S
H451 C438 0.950 . S
H452 C439 0.951 . S
C453 C454 1.386 . S
C453 C455 1.383 . S
C453 H469 0.951 . S
C454 C453 1.386 . S
C454 C458 1.383 . S
C455 C453 1.383 . S
C455 C456 1.402 . S
C455 H470 0.951 . S
C456 C455 1.402 . S
C456 C457 1.375 . S
C456 C459 1.481 . S
C457 C456 1.375 . S
C457 C458 1.367 . S
C457 H471 0.951 1_455 S
C458 C454 1.383 . S
C458 C457 1.367 . S
C458 H472 0.950 1_455 S
C459 C456 1.481 . S
C459 C460 1.297 . S
C459 H473 0.950 1_455 S
C460 C459 1.297 . S
C460 C461 1.479 . S
C460 H474 0.950 . S
C461 C460 1.479 . S
C461 C462 1.375 . S
C461 C467 1.404 . S
C462 C461 1.375 . S
C462 C463 1.369 . S
C462 H475 0.950 . S
C463 C462 1.369 . S
C463 C464 1.392 . S
C463 H476 0.951 . S
C464 C463 1.392 . S
C464 C466 1.372 1_455 S
H465 C467 0.949 1_655 S
C466 C464 1.372 1_655 S
C466 C467 1.389 1_655 S
C466 H468 0.959 . S
C467 C461 1.404 . S
C467 H465 0.949 1_455 S
C467 C466 1.389 1_455 S
H468 C466 0.959 . S
H469 C453 0.951 . S
H470 C455 0.951 . S
H471 C457 0.951 1_655 S
H472 C458 0.950 1_655 S
H473 C459 0.950 1_655 S
H474 C460 0.950 . S
H475 C462 0.950 . S
H476 C463 0.951 . S
C477 C478 1.386 . S
C477 C479 1.383 . S
C477 H493 0.951 . S
C478 C477 1.386 . S
C478 C482 1.383 . S
C479 C477 1.383 . S
C479 C480 1.402 . S
C479 H494 0.951 . S
C480 C479 1.402 . S
C480 C481 1.375 . S
C480 C483 1.481 . S
C481 C480 1.375 . S
C481 C482 1.367 . S
C481 H495 0.951 . S
C482 C478 1.383 . S
C482 C481 1.367 . S
C482 H496 0.950 . S
C483 C480 1.481 . S
C483 C484 1.297 . S
C483 H497 0.950 . S
C484 C483 1.297 . S
C484 C485 1.479 . S
C484 H498 0.950 . S
C485 C484 1.479 . S
C485 C486 1.375 . S
C485 C491 1.404 . S
C486 C485 1.375 . S
C486 C487 1.369 . S
C486 H499 0.950 . S
C487 C486 1.369 . S
C487 C488 1.392 . S
C487 H500 0.951 . S
C488 C487 1.392 . S
C488 C490 1.384 . S
H489 C491 0.949 . S
C490 C488 1.384 . S
C490 C491 1.385 . S
C490 H492 0.950 . S
C491 C485 1.404 . S
C491 H489 0.949 . S
C491 C490 1.385 . S
H492 C490 0.950 . S
H493 C477 0.951 . S
H494 C479 0.951 . S
H495 C481 0.951 . S
H496 C482 0.950 . S
H497 C483 0.950 . S
H498 C484 0.950 . S
H499 C486 0.950 . S
H500 C487 0.951 . S
C501 C502 1.386 . S
C501 C503 1.383 . S
C501 H517 0.951 . S
C502 C501 1.386 . S
C502 C506 1.383 . S
C503 C501 1.383 . S
C503 C504 1.402 . S
C503 H518 0.951 . S
C504 C503 1.402 . S
C504 C505 1.375 . S
C504 C507 1.481 . S
C505 C504 1.375 . S
C505 C506 1.367 . S
C505 H519 0.951 . S
C506 C502 1.383 . S
C506 C505 1.367 . S
C506 H520 0.950 . S
C507 C504 1.481 . S
C507 C508 1.297 . S
C507 H521 0.950 . S
C508 C507 1.297 . S
C508 C509 1.479 . S
C508 H522 0.950 . S
C509 C508 1.479 . S
C509 C510 1.375 . S
C509 C515 1.404 . S
C510 C509 1.375 . S
C510 C511 1.369 . S
C510 H523 0.950 . S
C511 C510 1.369 . S
C511 C512 1.392 . S
C511 H524 0.951 . S
C512 C511 1.392 . S
C512 C514 1.384 . S
H513 C515 0.949 . S
C514 C512 1.384 . S
C514 C515 1.385 . S
C514 H516 0.950 . S
C515 C509 1.404 . S
C515 H513 0.949 . S
C515 C514 1.385 . S
H516 C514 0.950 . S
H517 C501 0.951 . S
H518 C503 0.951 . S
H519 C505 0.951 . S
H520 C506 0.950 . S
H521 C507 0.950 . S
H522 C508 0.950 . S
H523 C510 0.950 . S
H524 C511 0.951 . S
C525 C526 1.386 . S
C525 C527 1.383 . S
C525 H541 0.951 . S
C526 C525 1.386 . S
C526 C530 1.383 . S
C527 C525 1.383 . S
C527 C528 1.402 . S
C527 H542 0.951 . S
C528 C527 1.402 . S
C528 C529 1.375 . S
C528 C531 1.481 . S
C529 C528 1.375 . S
C529 C530 1.367 . S
C529 H543 0.951 1_545 S
C530 C526 1.383 . S
C530 C529 1.367 . S
C530 H544 0.950 1_545 S
C531 C528 1.481 . S
C531 C532 1.297 . S
C531 H545 0.950 . S
C532 C531 1.297 . S
C532 C533 1.479 . S
C532 H546 0.950 . S
C533 C532 1.479 . S
C533 C534 1.375 . S
C533 C539 1.404 . S
C534 C533 1.375 . S
C534 C535 1.369 . S
C534 H547 0.950 . S
C535 C534 1.369 . S
C535 C536 1.392 . S
C535 H548 0.951 . S
C536 C535 1.392 . S
C536 C538 1.384 . S
H537 C539 0.949 1_565 S
C538 C536 1.384 . S
C538 C539 1.385 . S
C538 H540 0.950 1_545 S
C539 C533 1.404 . S
C539 H537 0.949 1_545 S
C539 C538 1.385 . S
H540 C538 0.950 1_565 S
H541 C525 0.951 . S
H542 C527 0.951 . S
H543 C529 0.951 1_565 S
H544 C530 0.950 1_565 S
H545 C531 0.950 . S
H546 C532 0.950 . S
H547 C534 0.950 . S
H548 C535 0.951 . S
C549 C550 1.386 . S
C549 C551 1.383 . S
C549 H565 0.951 . S
C550 C549 1.386 . S
C550 C554 1.383 . S
C551 C549 1.383 . S
C551 C552 1.402 . S
C551 H566 0.951 . S
C552 C551 1.402 . S
C552 C553 1.375 . S
C552 C555 1.481 . S
C553 C552 1.375 . S
C553 C554 1.367 . S
C553 H567 0.951 . S
C554 C550 1.383 . S
C554 C553 1.367 . S
C554 H568 0.950 . S
C555 C552 1.481 . S
C555 C556 1.301 . S
C555 H569 0.950 1_554 S
C556 C555 1.301 . S
C556 C557 1.443 1_554 S
C556 H570 0.990 . S
C557 C556 1.443 1_556 S
C557 C558 1.375 . S
C557 C563 1.404 . S
C558 C557 1.375 . S
C558 C559 1.369 . S
C558 H571 0.950 1_556 S
C559 C558 1.369 . S
C559 C560 1.392 . S
C559 H572 0.951 . S
C560 C559 1.392 . S
C560 C562 1.384 . S
H561 C563 0.949 . S
C562 C560 1.384 . S
C562 C563 1.385 . S
C562 H564 0.950 . S
C563 C557 1.404 . S
C563 H561 0.949 . S
C563 C562 1.385 . S
H564 C562 0.950 . S
H565 C549 0.951 . S
H566 C551 0.951 . S
H567 C553 0.951 . S
H568 C554 0.950 . S
H569 C555 0.950 1_556 S
H570 C556 0.990 . S
H571 C558 0.950 1_554 S
H572 C559 0.951 . S
C573 C574 1.386 . S
C573 C575 1.383 . S
C573 H589 0.951 . S
C574 C573 1.386 . S
C574 C578 1.383 1_565 S
C575 C573 1.383 . S
C575 C576 1.402 . S
C575 H590 0.951 . S
C576 C575 1.402 . S
C576 C577 1.375 . S
C576 C579 1.481 . S
C577 C576 1.375 . S
C577 C578 1.367 1_565 S
C577 H591 0.951 . S
C578 C574 1.383 1_545 S
C578 C577 1.367 1_545 S
C578 H592 0.950 . S
C579 C576 1.481 . S
C579 C580 1.297 . S
C579 H593 0.950 . S
C580 C579 1.297 . S
C580 C581 1.479 . S
C580 H594 0.950 . S
C581 C580 1.479 . S
C581 C582 1.375 . S
C581 C587 1.404 . S
C582 C581 1.375 . S
C582 C583 1.369 . S
C582 H595 0.950 . S
C583 C582 1.369 . S
C583 C584 1.392 . S
C583 H596 0.951 . S
C584 C583 1.392 . S
C584 C586 1.384 . S
H585 C587 0.949 . S
C586 C584 1.384 . S
C586 C587 1.385 . S
C586 H588 0.950 . S
C587 C581 1.404 . S
C587 H585 0.949 . S
C587 C586 1.385 . S
H588 C586 0.950 . S
H589 C573 0.951 . S
H590 C575 0.951 . S
H591 C577 0.951 . S
H592 C578 0.950 . S
H593 C579 0.950 . S
H594 C580 0.950 . S
H595 C582 0.950 . S
H596 C583 0.951 . S
C597 C598 1.386 . S
C597 C599 1.383 . S
C597 H613 0.951 . S
C598 C597 1.386 . S
C598 C602 1.383 1_545 S
C599 C597 1.383 . S
C599 C600 1.402 . S
C599 H614 0.951 . S
C600 C599 1.402 . S
C600 C601 1.375 1_545 S
C600 C603 1.481 . S
C601 C600 1.375 1_565 S
C601 C602 1.367 . S
C601 H615 0.951 . S
C602 C598 1.383 1_565 S
C602 C601 1.367 . S
C602 H616 0.950 . S
C603 C600 1.481 . S
C603 C604 1.297 . S
C603 H617 0.950 1_545 S
C604 C603 1.297 . S
C604 C605 1.479 . S
C604 H618 0.950 . S
C605 C604 1.479 . S
C605 C606 1.375 . S
C605 C611 1.400 1_545 S
C606 C605 1.375 . S
C606 C607 1.369 . S
C606 H619 0.950 . S
C607 C606 1.369 . S
C607 C608 1.392 . S
C607 H620 0.951 . S
C608 C607 1.392 . S
C608 C610 1.384 . S
H609 C611 0.950 . S
C610 C608 1.384 . S
C610 C611 1.387 1_545 S
C610 H612 0.950 1_545 S
C611 C605 1.400 1_565 S
C611 H609 0.950 . S
C611 C610 1.387 1_565 S
H612 C610 0.950 1_565 S
H613 C597 0.951 . S
H614 C599 0.951 . S
H615 C601 0.951 . S
H616 C602 0.950 . S
H617 C603 0.950 1_565 S
H618 C604 0.950 . S
H619 C606 0.950 . S
H620 C607 0.951 . S
C621 C622 1.386 . S
C621 C623 1.383 . S
C621 H637 0.951 . S
C622 C621 1.386 . S
C622 C626 1.383 . S
C623 C621 1.383 . S
C623 C624 1.402 . S
C623 H638 0.951 . S
C624 C623 1.402 . S
C624 C625 1.375 . S
C624 C627 1.481 1_554 S
C625 C624 1.375 . S
C625 C626 1.367 . S
C625 H639 0.951 . S
C626 C622 1.383 . S
C626 C625 1.367 . S
C626 H640 0.950 . S
C627 C624 1.481 1_556 S
C627 C628 1.297 . S
C627 H641 0.950 . S
C628 C627 1.297 . S
C628 C629 1.479 . S
C628 H642 0.950 . S
C629 C628 1.479 . S
C629 C630 1.375 . S
C629 C635 1.404 . S
C630 C629 1.375 . S
C630 C631 1.369 . S
C630 H643 0.950 . S
C631 C630 1.369 . S
C631 C632 1.392 . S
C631 H644 0.951 . S
C632 C631 1.392 . S
C632 C634 1.384 . S
H633 C635 0.949 . S
C634 C632 1.384 . S
C634 C635 1.385 . S
C634 H636 0.950 . S
C635 C629 1.404 . S
C635 H633 0.949 . S
C635 C634 1.385 . S
H636 C634 0.950 . S
H637 C621 0.951 . S
H638 C623 0.951 . S
H639 C625 0.951 . S
H640 C626 0.950 . S
H641 C627 0.950 . S
H642 C628 0.950 . S
H643 C630 0.950 . S
H644 C631 0.951 . S
C645 C646 1.386 . S
C645 C647 1.383 . S
C645 H661 0.951 . S
C646 C645 1.386 . S
C646 C650 1.383 . S
C647 C645 1.383 . S
C647 C648 1.402 . S
C647 H662 0.951 . S
C648 C647 1.402 . S
C648 C649 1.375 . S
C648 C651 1.481 . S
C649 C648 1.375 . S
C649 C650 1.367 . S
C649 H663 0.951 . S
C650 C646 1.383 . S
C650 C649 1.367 . S
C650 H664 0.950 . S
C651 C648 1.481 . S
C651 C652 1.297 . S
C651 H665 0.950 . S
C652 C651 1.297 . S
C652 C653 1.479 . S
C652 H666 0.950 . S
C653 C652 1.479 . S
C653 C654 1.375 . S
C653 C659 1.404 . S
C654 C653 1.375 . S
C654 C655 1.369 . S
C654 H667 0.950 . S
C655 C654 1.369 . S
C655 C656 1.392 . S
C655 H668 0.951 . S
C656 C655 1.392 . S
C656 C658 1.384 . S
H657 C659 0.949 . S
C658 C656 1.384 . S
C658 C659 1.385 . S
C658 H660 0.950 . S
C659 C653 1.404 . S
C659 H657 0.949 . S
C659 C658 1.385 . S
H660 C658 0.950 . S
H661 C645 0.951 . S
H662 C647 0.951 . S
H663 C649 0.951 . S
H664 C650 0.950 . S
H665 C651 0.950 . S
H666 C652 0.950 . S
H667 C654 0.950 . S
H668 C655 0.951 . S
C392 C94 1.053 . S
C382 C10 1.465 . S
C406 C21 1.506 1_655 S
C416 C208 1.233 . S
C430 C31 1.157 . S
C440 C268 1.089 . S
C454 C0 1.224 1_565 S
C464 C68 1.008 . S
C488 C182 1.180 . S
C478 C18 1.298 . S
C502 C34 1.358 . S
C512 C278 1.036 . S
C536 C164 0.978 . S
C526 C36 1.370 . S
C550 C8 1.279 1_565 S
C560 C296 1.058 . S
C584 C40 0.925 . S
C574 C23 1.225 1_565 S
C608 C154 0.790 . S
C598 C26 1.125 . S
C632 C322 1.141 . S
C622 C5 1.411 . S
C646 C13 1.333 . S
C656 C50 0.934 . S
