# Generated by pormake.
# Topology pyr, (3,6)-cn, num edge types: 1
# Building blocks:
#     Node 0, Type 0, BuildingBlock: CUQRIR_clean_linker_1, # of connection points: 3
#     Node 1, Type 0, BuildingBlock: CUQRIR_clean_linker_1, # of connection points: 3
#     Node 2, Type 0, BuildingBlock: CUQRIR_clean_linker_1, # of connection points: 3
#     Node 3, Type 0, BuildingBlock: CUQRIR_clean_linker_1, # of connection points: 3
#     Node 4, Type 0, BuildingBlock: CUQRIR_clean_linker_1, # of connection points: 3
#     Node 5, Type 0, BuildingBlock: CUQRIR_clean_linker_1, # of connection points: 3
#     Node 6, Type 0, BuildingBlock: CUQRIR_clean_linker_1, # of connection points: 3
#     Node 7, Type 0, BuildingBlock: CUQRIR_clean_linker_1, # of connection points: 3
#     Node 8, Type 1, BuildingBlock: MIFKUJ_clean_sbu_0, # of connection points: 6
#     Node 9, Type 1, BuildingBlock: MIFKUJ_clean_sbu_0, # of connection points: 6
#     Node 10, Type 1, BuildingBlock: MIFKUJ_clean_sbu_0, # of connection points: 6
#     Node 11, Type 1, BuildingBlock: MIFKUJ_clean_sbu_0, # of connection points: 6
#     Edge 12, Type (0, 1), BuildingBlock: EZIPEK_clean_linker_0, # of connection points: 2
#     Edge 13, Type (0, 1), BuildingBlock: EZIPEK_clean_linker_0, # of connection points: 2
#     Edge 14, Type (0, 1), BuildingBlock: EZIPEK_clean_linker_0, # of connection points: 2
#     Edge 15, Type (0, 1), BuildingBlock: EZIPEK_clean_linker_0, # of connection points: 2
#     Edge 16, Type (0, 1), BuildingBlock: EZIPEK_clean_linker_0, # of connection points: 2
#     Edge 17, Type (0, 1), BuildingBlock: EZIPEK_clean_linker_0, # of connection points: 2
#     Edge 18, Type (0, 1), BuildingBlock: EZIPEK_clean_linker_0, # of connection points: 2
#     Edge 19, Type (0, 1), BuildingBlock: EZIPEK_clean_linker_0, # of connection points: 2
#     Edge 20, Type (0, 1), BuildingBlock: EZIPEK_clean_linker_0, # of connection points: 2
#     Edge 21, Type (0, 1), BuildingBlock: EZIPEK_clean_linker_0, # of connection points: 2
#     Edge 22, Type (0, 1), BuildingBlock: EZIPEK_clean_linker_0, # of connection points: 2
#     Edge 23, Type (0, 1), BuildingBlock: EZIPEK_clean_linker_0, # of connection points: 2
#     Edge 24, Type (0, 1), BuildingBlock: EZIPEK_clean_linker_0, # of connection points: 2
#     Edge 25, Type (0, 1), BuildingBlock: EZIPEK_clean_linker_0, # of connection points: 2
#     Edge 26, Type (0, 1), BuildingBlock: EZIPEK_clean_linker_0, # of connection points: 2
#     Edge 27, Type (0, 1), BuildingBlock: EZIPEK_clean_linker_0, # of connection points: 2
#     Edge 28, Type (0, 1), BuildingBlock: EZIPEK_clean_linker_0, # of connection points: 2
#     Edge 29, Type (0, 1), BuildingBlock: EZIPEK_clean_linker_0, # of connection points: 2
#     Edge 30, Type (0, 1), BuildingBlock: EZIPEK_clean_linker_0, # of connection points: 2
#     Edge 31, Type (0, 1), BuildingBlock: EZIPEK_clean_linker_0, # of connection points: 2
#     Edge 32, Type (0, 1), BuildingBlock: EZIPEK_clean_linker_0, # of connection points: 2
#     Edge 33, Type (0, 1), BuildingBlock: EZIPEK_clean_linker_0, # of connection points: 2
#     Edge 34, Type (0, 1), BuildingBlock: EZIPEK_clean_linker_0, # of connection points: 2
#     Edge 35, Type (0, 1), BuildingBlock: EZIPEK_clean_linker_0, # of connection points: 2
# Relax obj value: 0.106
# Max RMSD: 0.229
# Mean RMSD: 0.152
data_MOF--net-pyr--node1-MIFKUJ_clean_sbu_0--node2-CUQRIR_clean_linker_1--edge1-EZIPEK_clean_linker_0
_symmetry_space_group_name_H-M    P1
_symmetry_Int_Tables_number       1
_symmetry_cell_setting            triclinic
loop_
_symmetry_equiv_pos_as_xyz
'x, y, z'
_cell_length_a     26.626999
_cell_length_b     24.086152
_cell_length_c     24.268056
_cell_angle_alpha  81.801611
_cell_angle_beta   89.789418
_cell_angle_gamma 101.62824
loop_
_atom_site_label
_atom_site_type_symbol
_atom_site_fract_x
_atom_site_fract_y
_atom_site_fract_z
_atom_type_partial_charge
C0 C 0.18451 0.20133 0.221 0.0
N1 N 0.21472 0.16371 0.23845 0.0
N2 N 0.20775 0.24106 0.17923 0.0
C3 C 0.1331 0.20148 0.24714 0.0
C4 C 0.2532 0.22626 0.1707 0.0
N5 N 0.2578 0.17871 0.20647 0.0
C6 C 0.29169 0.25627 0.12528 0.0
H7 H 0.11476 0.15818 0.26834 0.0
H8 H 0.10714 0.21648 0.21529 0.0
H9 H 0.13864 0.23153 0.2783 0.0
H10 H 0.28995 0.30229 0.11582 0.0
H11 H 0.28259 0.23646 0.087 0.0
H12 H 0.331 0.25185 0.13739 0.0
C13 C 0.34247 0.83632 0.68002 0.0
N14 N 0.33806 0.87127 0.71779 0.0
N15 N 0.36638 0.79321 0.70126 0.0
C16 C 0.33448 0.85468 0.61906 0.0
C17 C 0.3841 0.81049 0.75036 0.0
N18 N 0.36447 0.85571 0.76179 0.0
C19 C 0.42931 0.79303 0.7809 0.0
H20 H 0.29334 0.8424 0.60967 0.0
H21 H 0.35873 0.83732 0.59145 0.0
H22 H 0.34477 0.90208 0.60931 0.0
H23 H 0.45332 0.77438 0.75423 0.0
H24 H 0.41551 0.76278 0.81927 0.0
H25 H 0.45504 0.8301 0.79489 0.0
C26 C 0.60785 0.33083 0.81127 0.0
N27 N 0.63964 0.31984 0.85305 0.0
N28 N 0.62394 0.38433 0.78374 0.0
C29 C 0.56152 0.28894 0.79714 0.0
C30 C 0.66649 0.40586 0.80992 0.0
N31 N 0.67675 0.36665 0.85185 0.0
C32 C 0.69969 0.46419 0.79212 0.0
H33 H 0.5733 0.24928 0.78856 0.0
H34 H 0.54213 0.30694 0.76046 0.0
H35 H 0.53409 0.27697 0.83344 0.0
H36 H 0.67593 0.49538 0.77574 0.0
H37 H 0.72672 0.46143 0.75819 0.0
H38 H 0.72218 0.47986 0.82724 0.0
C39 C 0.85399 0.62908 0.2771 0.0
N40 N 0.89508 0.66957 0.25542 0.0
N41 N 0.82211 0.65204 0.30577 0.0
C42 C 0.84342 0.56741 0.26789 0.0
C43 C 0.84448 0.70759 0.30165 0.0
N44 N 0.88966 0.71858 0.27235 0.0
C45 C 0.82432 0.75009 0.33098 0.0
H46 H 0.81557 0.56174 0.23422 0.0
H47 H 0.82591 0.53923 0.3062 0.0
H48 H 0.87913 0.55447 0.25571 0.0
H49 H 0.83899 0.74831 0.37379 0.0
H50 H 0.78177 0.73948 0.33418 0.0
H51 H 0.83719 0.79428 0.30868 0.0
C52 C 0.80322 0.8397 0.82647 0.0
N53 N 0.84129 0.83284 0.79255 0.0
N54 N 0.77989 0.88123 0.80249 0.0
C55 C 0.78773 0.80474 0.88265 0.0
C56 C 0.80529 0.90017 0.75282 0.0
N57 N 0.84337 0.87122 0.7466 0.0
C58 C 0.79337 0.94769 0.71115 0.0
H59 H 0.75682 0.7676 0.87736 0.0
H60 H 0.7726 0.83046 0.91077 0.0
H61 H 0.82055 0.78841 0.90218 0.0
H62 H 0.8125 0.98939 0.72313 0.0
H63 H 0.75143 0.94615 0.71123 0.0
H64 H 0.80728 0.94488 0.66868 0.0
C65 C 0.73633 0.2026 0.38301 0.0
N66 N 0.74623 0.16095 0.35444 0.0
N67 N 0.68777 0.21052 0.3752 0.0
C68 C 0.77315 0.23505 0.41976 0.0
C69 C 0.66771 0.17131 0.34254 0.0
N70 N 0.7028 0.14125 0.3293 0.0
C71 C 0.61456 0.16589 0.31954 0.0
H72 H 0.76024 0.22028 0.46387 0.0
H73 H 0.81282 0.22855 0.41497 0.0
H74 H 0.77275 0.28144 0.41081 0.0
H75 H 0.61753 0.18242 0.27433 0.0
H76 H 0.59076 0.1899 0.3407 0.0
H77 H 0.5945 0.12038 0.32493 0.0
C78 C 0.32865 0.63624 0.22066 0.0
N79 N 0.37514 0.66533 0.23425 0.0
N80 N 0.31416 0.66019 0.17111 0.0
C81 C 0.29766 0.58338 0.25489 0.0
C82 C 0.35253 0.70517 0.15467 0.0
N83 N 0.38946 0.70903 0.1929 0.0
C84 C 0.35325 0.74645 0.10164 0.0
H85 H 0.30524 0.54495 0.23866 0.0
H86 H 0.25607 0.58307 0.2513 0.0
H87 H 0.3079 0.58091 0.29934 0.0
H88 H 0.34055 0.7852 0.11138 0.0
H89 H 0.32713 0.72725 0.07081 0.0
H90 H 0.39263 0.76002 0.08286 0.0
C91 C 0.10533 0.32799 0.76404 0.0
N92 N 0.14163 0.31798 0.72981 0.0
N93 N 0.12577 0.36966 0.79432 0.0
C94 C 0.05029 0.29679 0.76797 0.0
C95 C 0.17576 0.38431 0.77738 0.0
N96 N 0.1853 0.35331 0.73787 0.0
C97 C 0.21526 0.42975 0.79832 0.0
H98 H 0.02494 0.3231 0.78319 0.0
H99 H 0.04675 0.25648 0.79755 0.0
H100 H 0.03762 0.28526 0.72684 0.0
H101 H 0.20405 0.43726 0.84028 0.0
H102 H 0.21922 0.47032 0.76903 0.0
H103 H 0.25315 0.41715 0.79986 0.0
Zn104 Zn 0.10916 0.02375 0.56941 0.0
Zn105 Zn 0.9973 0.99486 0.43903 0.0
C106 C 0.14198 0.1344 0.60413 0.0
O107 O 0.18094 0.13827 0.56951 0.0
C108 C 0.95679 0.90394 0.37588 0.0
O109 O 0.91544 0.90046 0.40685 0.0
O110 O 0.15888 0.97852 0.60835 0.0
O111 O 0.03601 0.97895 0.5655 0.0
O112 O 0.96984 0.94991 0.51482 0.0
C113 C 0.16506 0.97195 0.66067 0.0
O114 O 0.1346 0.98982 0.69376 0.0
O115 O 0.10672 0.0896 0.61102 0.0
C116 C 0.92713 0.06053 0.37109 0.0
O117 O 0.94381 0.04287 0.32706 0.0
O118 O 0.94618 0.04827 0.41838 0.0
O119 O 0.07266 0.03263 0.44319 0.0
O120 O 0.1407 0.05615 0.49297 0.0
O121 O 0.99677 0.94069 0.38254 0.0
C122 C 0.99031 0.95109 0.56218 0.0
C123 C 0.11976 0.0562 0.44601 0.0
Zn124 Zn 0.56396 0.98572 1.00295 0.0
Zn125 Zn 0.50238 0.04066 0.0871 0.0
C126 C 0.47734 0.93519 0.93981 0.0
O127 O 0.49272 0.8881 0.95999 0.0
C128 C 0.57937 0.07968 0.16539 0.0
O129 O 0.55255 0.11955 0.16734 0.0
O130 O 0.61635 0.95421 0.9619 0.0
O131 O 0.59793 0.06793 0.00624 0.0
O132 O 0.52405 0.09396 0.01389 0.0
C133 C 0.61665 0.95323 0.90957 0.0
O134 O 0.58112 0.97182 0.87929 0.0
O135 O 0.49989 0.9824 0.95458 0.0
C136 C 0.4045 0.0503 0.14193 0.0
O137 O 0.38907 0.99641 0.13536 0.0
O138 O 0.44988 0.07633 0.12582 0.0
O139 O 0.47279 0.95582 0.08636 0.0
O140 O 0.54876 0.93518 0.07769 0.0
O141 O 0.56602 0.04225 0.13349 0.0
C142 C 0.57073 0.1056 0.99657 0.0
C143 C 0.50296 0.92102 0.09711 0.0
Zn144 Zn 0.54057 0.47089 0.45886 0.0
Zn145 Zn 0.4413 0.52202 0.54897 0.0
C146 C 0.64584 0.52279 0.42906 0.0
O147 O 0.65567 0.47492 0.45557 0.0
C148 C 0.37473 0.43795 0.61725 0.0
O149 O 0.40753 0.45983 0.65257 0.0
O150 O 0.55197 0.39373 0.43959 0.0
O151 O 0.55175 0.46982 0.54054 0.0
O152 O 0.50157 0.50539 0.59153 0.0
C153 C 0.58228 0.3928 0.39917 0.0
O154 O 0.59638 0.4395 0.36315 0.0
O155 O 0.60034 0.5306 0.42762 0.0
C156 C 0.43165 0.63435 0.57949 0.0
O157 O 0.46529 0.6585 0.53911 0.0
O158 O 0.41713 0.58026 0.58876 0.0
O159 O 0.4458 0.55211 0.46675 0.0
O160 O 0.48726 0.50555 0.41467 0.0
O161 O 0.3838 0.45369 0.56534 0.0
C162 C 0.5409 0.48438 0.58656 0.0
C163 C 0.45959 0.54213 0.41946 0.0
Zn164 Zn 0.94714 0.54882 0.95512 0.0
Zn165 Zn 0.04182 0.49421 0.06007 0.0
C166 C 0.87121 0.44202 0.94411 0.0
O167 O 0.90985 0.41578 0.9499 0.0
C168 C 0.12734 0.5678 0.08371 0.0
O169 O 0.10248 0.54729 0.13146 0.0
O170 O 0.94655 0.61954 0.90049 0.0
O171 O 0.95172 0.574 0.03177 0.0
O172 O 0.99445 0.5332 0.09952 0.0
C173 C 0.90589 0.63932 0.90012 0.0
O174 O 0.86748 0.61323 0.9346 0.0
O175 O 0.87826 0.49536 0.94712 0.0
C176 C 0.1001 0.41243 0.08468 0.0
O177 O 0.10869 0.42997 0.03111 0.0
O178 O 0.06808 0.43269 0.11098 0.0
O179 O 0.01291 0.45333 0.99771 0.0
O180 O 0.00282 0.51569 0.92571 0.0
O181 O 0.10732 0.55315 0.03908 0.0
C182 C 0.96555 0.56789 0.0821 0.0
C183 C 0.02226 0.47407 0.947 0.0
C184 C 0.18115 0.07284 0.30051 0.0
C185 C 0.20753 0.13076 0.29372 0.0
C186 C 0.17897 0.13876 0.38826 0.0
C187 C 0.15197 0.08092 0.39465 0.0
N188 N 0.13931 0.98854 0.36341 0.0
N189 N 0.24038 0.21548 0.33453 0.0
C190 C 0.15688 0.04651 0.35281 0.0
C191 C 0.21043 0.16177 0.33961 0.0
N192 N 0.17644 0.04419 0.25572 0.0
N193 N 0.17101 0.17325 0.42625 0.0
H194 H 0.25932 0.23586 0.29729 0.0
H195 H 0.24908 0.23823 0.36784 0.0
H196 H 0.14626 0.15903 0.46099 0.0
H197 H 0.18508 0.21729 0.42105 0.0
H198 H 0.15211 0.00455 0.25535 0.0
H199 H 0.19532 0.06193 0.21788 0.0
H200 H 0.14611 0.96061 0.33652 0.0
H201 H 0.12206 0.9677 0.40147 0.0
C202 C 0.36201 0.87322 0.85999 0.0
C203 C 0.38301 0.89022 0.80495 0.0
C204 C 0.45234 0.95853 0.84041 0.0
C205 C 0.43801 0.93208 0.89576 0.0
N206 N 0.37638 0.86733 0.95947 0.0
N207 N 0.45484 0.94156 0.74499 0.0
C208 C 0.39144 0.89086 0.90588 0.0
C209 C 0.42934 0.93204 0.79543 0.0
N210 N 0.31446 0.83896 0.86821 0.0
N211 N 0.48864 0.00792 0.8304 0.0
H212 H 0.44146 0.91966 0.71213 0.0
H213 H 0.49163 0.96671 0.73774 0.0
H214 H 0.50499 0.02977 0.86208 0.0
H215 H 0.49764 0.03063 0.79053 0.0
H216 H 0.29464 0.82818 0.90653 0.0
H217 H 0.29315 0.82528 0.83517 0.0
H218 H 0.34649 0.83211 0.97006 0.0
H219 H 0.39526 0.88244 0.99369 0.0
C220 C 0.56996 0.44807 0.73897 0.0
C221 C 0.60428 0.41124 0.73421 0.0
C222 C 0.61157 0.4403 0.6336 0.0
C223 C 0.57127 0.47047 0.63709 0.0
N224 N 0.53528 0.52772 0.69426 0.0
N225 N 0.65542 0.36794 0.67809 0.0
C226 C 0.55656 0.48138 0.69027 0.0
C227 C 0.62446 0.40615 0.68176 0.0
N228 N 0.54982 0.45039 0.79021 0.0
N229 N 0.64144 0.44982 0.58612 0.0
H230 H 0.66572 0.34264 0.71301 0.0
H231 H 0.66701 0.35783 0.64034 0.0
H232 H 0.63925 0.48342 0.55476 0.0
H233 H 0.67349 0.43192 0.58191 0.0
H234 H 0.52028 0.47165 0.79617 0.0
H235 H 0.56011 0.4271 0.82654 0.0
H236 H 0.52636 0.54009 0.73189 0.0
H237 H 0.53444 0.55902 0.66007 0.0
C238 C 0.97003 0.65422 0.20258 0.0
C239 C 0.91986 0.6649 0.20349 0.0
C240 C 0.89982 0.61645 0.12171 0.0
C241 C 0.9501 0.60492 0.121 0.0
N242 N 0.03773 0.63549 0.14628 0.0
N243 N 0.84553 0.67706 0.15135 0.0
C244 C 0.98672 0.63054 0.15723 0.0
C245 C 0.88819 0.65393 0.15786 0.0
N246 N 1.00164 0.66586 0.24514 0.0
N247 N 0.86199 0.5885 0.09179 0.0
H248 H 0.83702 0.70486 0.17764 0.0
H249 H 0.82247 0.67371 0.11689 0.0
H250 H 0.86721 0.5569 0.06845 0.0
H251 H 0.82378 0.59204 0.09523 0.0
H252 H 0.03599 0.65158 0.2506 0.0
H253 H 0.99272 0.68907 0.27526 0.0
H254 H 0.06636 0.6573 0.16902 0.0
H255 H 0.05085 0.6246 0.10971 0.0
C256 C 0.28381 0.1123 0.14801 0.0
C257 C 0.29203 0.14113 0.19541 0.0
C258 C 0.37306 0.10727 0.21023 0.0
C259 C 0.36656 0.0825 0.16033 0.0
N260 N 0.32091 0.07187 0.0756 0.0
N261 N 0.34921 0.17521 0.26508 0.0
C262 C 0.32318 0.08765 0.12766 0.0
C263 C 0.33792 0.1409 0.22491 0.0
N264 N 0.23799 0.10867 0.12228 0.0
N265 N 0.41216 0.09767 0.24423 0.0
H266 H 0.32464 0.20066 0.27577 0.0
H267 H 0.38443 0.18209 0.28418 0.0
H268 H 0.43879 0.07386 0.23452 0.0
H269 H 0.41583 0.10945 0.28391 0.0
H270 H 0.22726 0.08355 0.09107 0.0
H271 H 0.20835 0.12606 0.1362 0.0
H272 H 0.29335 0.08057 0.04714 0.0
H273 H 0.34949 0.05504 0.05843 0.0
C274 C 0.30224 0.9586 0.69327 0.0
C275 C 0.29514 0.90015 0.717 0.0
C276 C 0.20138 0.88969 0.70763 0.0
C277 C 0.2091 0.94804 0.68363 0.0
N278 N 0.26486 0.04076 0.66076 0.0
N279 N 0.23849 0.80948 0.74811 0.0
C280 C 0.25893 0.98337 0.67912 0.0
C281 C 0.24457 0.86588 0.72549 0.0
N282 N 0.3507 0.98898 0.67959 0.0
N283 N 0.15287 0.85662 0.71062 0.0
H284 H 0.26927 0.78955 0.75771 0.0
H285 H 0.20343 0.78226 0.7596 0.0
H286 H 0.12061 0.87307 0.69841 0.0
H287 H 0.14387 0.81265 0.72344 0.0
H288 H 0.35919 0.0295 0.65598 0.0
H289 H 0.38274 0.97146 0.68844 0.0
H290 H 0.29891 0.07029 0.66313 0.0
H291 H 0.2347 0.05971 0.646 0.0
C292 C 0.77071 0.37473 0.84879 0.0
C293 C 0.72493 0.37247 0.88019 0.0
C294 C 0.77665 0.4033 0.95811 0.0
C295 C 0.82177 0.41245 0.92422 0.0
N296 N 0.86204 0.41295 0.83483 0.0
N297 N 0.68499 0.3971 0.95965 0.0
C298 C 0.81908 0.39876 0.86918 0.0
C299 C 0.72802 0.38919 0.93395 0.0
N300 N 0.76762 0.35658 0.79791 0.0
N301 N 0.7803 0.40858 0.01333 0.0
H302 H 0.64992 0.3924 0.9405 0.0
H303 H 0.68527 0.41452 0.99657 0.0
H304 H 0.81546 0.41941 0.03205 0.0
H305 H 0.74891 0.39702 0.04132 0.0
H306 H 0.79902 0.34988 0.77599 0.0
H307 H 0.73298 0.34544 0.77861 0.0
H308 H 0.86154 0.41089 0.79229 0.0
H309 H 0.89819 0.43111 0.84768 0.0
C310 C 0.77858 0.6076 0.39502 0.0
C311 C 0.77633 0.62345 0.33697 0.0
C312 C 0.68496 0.58152 0.33935 0.0
C313 C 0.68743 0.56515 0.39794 0.0
N314 N 0.7313 0.57864 0.4831 0.0
N315 N 0.72776 0.63791 0.25512 0.0
C316 C 0.73274 0.58316 0.42631 0.0
C317 C 0.72948 0.61424 0.30951 0.0
N318 N 0.82489 0.61448 0.41978 0.0
N319 N 0.64125 0.56412 0.31171 0.0
H320 H 0.76035 0.66124 0.23233 0.0
H321 H 0.6939 0.63841 0.23392 0.0
H322 H 0.60612 0.54465 0.33132 0.0
H323 H 0.64002 0.56732 0.26852 0.0
H324 H 0.82976 0.59833 0.46111 0.0
H325 H 0.85913 0.63252 0.39752 0.0
H326 H 0.76217 0.5957 0.50596 0.0
H327 H 0.69734 0.56345 0.5069 0.0
C328 C 0.19097 0.33843 0.17552 0.0
C329 C 0.18674 0.28767 0.15132 0.0
C330 C 0.1203 0.31532 0.09056 0.0
C331 C 0.12667 0.36802 0.11197 0.0
N332 N 0.17267 0.43362 0.16982 0.0
N333 N 0.15514 0.23181 0.07994 0.0
C334 C 0.1632 0.3807 0.1533 0.0
C335 C 0.15396 0.27766 0.10669 0.0
N336 N 0.22078 0.34525 0.22067 0.0
N337 N 0.08023 0.29998 0.0571 0.0
H338 H 0.17953 0.20367 0.09143 0.0
H339 H 0.13584 0.22485 0.04352 0.0
H340 H 0.05319 0.32532 0.04709 0.0
H341 H 0.07055 0.25985 0.04427 0.0
H342 H 0.22099 0.37766 0.2449 0.0
H343 H 0.24377 0.31641 0.23538 0.0
H344 H 0.20294 0.44782 0.19475 0.0
H345 H 0.15217 0.46502 0.15565 0.0
C346 C 0.64438 0.21829 0.88134 0.0
C347 C 0.62999 0.26863 0.894 0.0
C348 C 0.58383 0.21347 0.97833 0.0
C349 C 0.59276 0.16186 0.96216 0.0
N350 N 0.62181 0.11501 0.88987 0.0
N351 N 0.57136 0.30868 0.94466 0.0
C352 C 0.62106 0.16413 0.9117 0.0
C353 C 0.59586 0.2649 0.93999 0.0
N354 N 0.67839 0.22194 0.83829 0.0
N355 N 0.56462 0.21396 0.03046 0.0
H356 H 0.57596 0.34529 0.91494 0.0
H357 H 0.54235 0.30568 0.97456 0.0
H358 H 0.55703 0.17767 0.06064 0.0
H359 H 0.56165 0.25173 0.04536 0.0
H360 H 0.69511 0.18806 0.83078 0.0
H361 H 0.69218 0.26019 0.81236 0.0
H362 H 0.63768 0.11456 0.8507 0.0
H363 H 0.60134 0.07499 0.90774 0.0
C364 C 0.94913 0.75484 0.34175 0.0
C365 C 0.9308 0.7625 0.28677 0.0
C366 C 0.95256 0.86662 0.28417 0.0
C367 C 0.9595 0.85783 0.34241 0.0
N368 N 0.97394 0.79675 0.42562 0.0
N369 N 0.92236 0.82329 0.20226 0.0
C370 C 0.96203 0.80287 0.37055 0.0
C371 C 0.93667 0.81803 0.25634 0.0
N372 N 0.94992 0.70075 0.3674 0.0
N373 N 0.95969 0.92121 0.25639 0.0
H374 H 0.91166 0.78743 0.18205 0.0
H375 H 0.92047 0.86195 0.1779 0.0
H376 H 0.9713 0.957 0.27642 0.0
H377 H 0.95757 0.93122 0.21346 0.0
H378 H 0.9647 0.69112 0.40636 0.0
H379 H 0.93798 0.66469 0.34799 0.0
H380 H 0.97197 0.75772 0.45096 0.0
H381 H 0.98573 0.83174 0.44674 0.0
C382 C 0.39492 0.69871 0.70405 0.0
C383 C 0.37085 0.74167 0.67696 0.0
C384 C 0.37033 0.69843 0.59198 0.0
C385 C 0.40905 0.66962 0.61379 0.0
N386 N 0.45463 0.6374 0.69441 0.0
N387 N 0.29721 0.73401 0.61982 0.0
C388 C 0.42008 0.66779 0.67119 0.0
C389 C 0.3467 0.72847 0.62729 0.0
N390 N 0.3847 0.67953 0.75924 0.0
N391 N 0.35537 0.69657 0.53845 0.0
H392 H 0.27626 0.74607 0.65096 0.0
H393 H 0.27579 0.7197 0.58684 0.0
H394 H 0.37038 0.67314 0.51181 0.0
H395 H 0.33009 0.72113 0.52013 0.0
H396 H 0.39742 0.64426 0.78014 0.0
H397 H 0.3577 0.69451 0.78133 0.0
H398 H 0.46642 0.63911 0.7352 0.0
H399 H 0.4738 0.61405 0.67166 0.0
C400 C 0.91766 0.94247 0.70072 0.0
C401 C 0.88445 0.88786 0.70404 0.0
C402 C 0.92849 0.87072 0.6207 0.0
C403 C 0.95727 0.92789 0.61361 0.0
N404 N 0.97031 0.02226 0.64142 0.0
N405 N 0.85088 0.80593 0.65958 0.0
C406 C 0.94988 0.96481 0.65245 0.0
C407 C 0.88815 0.85326 0.66221 0.0
N408 N 0.91808 0.97342 0.74375 0.0
N409 N 0.93986 0.83294 0.58798 0.0
H410 H 0.81884 0.79539 0.68643 0.0
H411 H 0.84867 0.78151 0.6272 0.0
H412 H 0.96944 0.84413 0.55763 0.0
H413 H 0.92334 0.78937 0.59462 0.0
H414 H 0.94525 0.01054 0.74662 0.0
H415 H 0.89446 0.95896 0.77933 0.0
H416 H 0.96118 0.05195 0.66503 0.0
H417 H 0.9921 0.04161 0.60553 0.0
C418 C 0.65712 0.05579 0.29206 0.0
C419 C 0.69496 0.10738 0.28385 0.0
C420 C 0.66774 0.12748 0.18775 0.0
C421 C 0.62587 0.08055 0.19904 0.0
N422 N 0.59131 0.98864 0.25269 0.0
N423 N 0.74898 0.1773 0.21758 0.0
C424 C 0.6248 0.04024 0.24774 0.0
C425 C 0.70491 0.13748 0.22903 0.0
N426 N 0.64751 0.02618 0.34439 0.0
N427 N 0.67067 0.16364 0.13851 0.0
H428 H 0.77664 0.18252 0.24719 0.0
H429 H 0.7606 0.19931 0.17806 0.0
H430 H 0.64563 0.15511 0.10635 0.0
H431 H 0.69654 0.20268 0.13017 0.0
H432 H 0.61616 0.99276 0.35557 0.0
H433 H 0.66968 0.03797 0.37748 0.0
H434 H 0.59156 0.95559 0.28535 0.0
H435 H 0.56643 0.97694 0.22134 0.0
C436 C 0.4208 0.66556 0.32441 0.0
C437 C 0.4075 0.64116 0.2754 0.0
C438 C 0.42793 0.55077 0.32048 0.0
C439 C 0.44463 0.57655 0.36813 0.0
N440 N 0.47451 0.66556 0.40441 0.0
N441 N 0.41493 0.56669 0.22137 0.0
C442 C 0.44666 0.63625 0.3667 0.0
C443 C 0.41724 0.58596 0.27163 0.0
N444 N 0.40624 0.71479 0.33251 0.0
N445 N 0.41848 0.4926 0.32256 0.0
H446 H 0.40816 0.5923 0.18493 0.0
H447 H 0.42532 0.52848 0.21528 0.0
H448 H 0.42159 0.46446 0.35859 0.0
H449 H 0.40168 0.47202 0.29021 0.0
H450 H 0.4109 0.73147 0.36996 0.0
H451 H 0.38478 0.73517 0.30383 0.0
H452 H 0.48 0.70993 0.40219 0.0
H453 H 0.49731 0.64672 0.43323 0.0
C454 C 0.0994 0.45419 0.82274 0.0
C455 C 0.10001 0.39515 0.83325 0.0
C456 C 0.04508 0.38514 0.91614 0.0
C457 C 0.05052 0.44592 0.90989 0.0
N458 N 0.09804 0.53823 0.86524 0.0
N459 N 0.08485 0.30749 0.8977 0.0
C460 C 0.08219 0.48058 0.8655 0.0
C461 C 0.07646 0.36152 0.88249 0.0
N462 N 0.11398 0.48481 0.77153 0.0
N463 N 0.00833 0.3494 0.95109 0.0
H464 H 0.10912 0.28989 0.87459 0.0
H465 H 0.07196 0.2829 0.93588 0.0
H466 H 0.98211 0.36332 0.9748 0.0
H467 H 1.00053 0.30506 0.95215 0.0
H468 H 0.11022 0.52722 0.76066 0.0
H469 H 0.12445 0.46586 0.73845 0.0
H470 H 0.12434 0.56393 0.83554 0.0
H471 H 0.09032 0.55893 0.89827 0.0
C472 C 0.7502 0.94735 0.8578 0.0
C473 C 0.73866 0.90149 0.82646 0.0
C474 C 0.64757 0.88623 0.8534 0.0
C475 C 0.65873 0.93474 0.8818 0.0
N476 N 0.71887 0.0178 0.90284 0.0
N477 N 0.67754 0.83066 0.78861 0.0
C478 C 0.70961 0.96706 0.88187 0.0
C479 C 0.68752 0.872 0.82247 0.0
N480 N 0.80026 0.9707 0.86598 0.0
N481 N 0.59931 0.85266 0.85786 0.0
H482 H 0.70653 0.81923 0.76634 0.0
H483 H 0.64077 0.81069 0.77938 0.0
H484 H 0.5693 0.86154 0.88059 0.0
H485 H 0.5897 0.81374 0.84267 0.0
H486 H 0.81162 -9e-05 0.89355 0.0
H487 H 0.83068 0.95736 0.84825 0.0
H488 H 0.75416 0.04629 0.89847 0.0
H489 H 0.6902 0.03398 0.92065 0.0
C490 C 0.84055 0.16956 0.3352 0.0
C491 C 0.79242 0.13694 0.35828 0.0
C492 C 0.83313 0.05576 0.38975 0.0
C493 C 0.88126 0.08772 0.36706 0.0
N494 N 0.93322 0.17778 0.32583 0.0
N495 N 0.75099 0.06121 0.42858 0.0
C496 C 0.88566 0.14553 0.34175 0.0
C497 C 0.79086 0.08326 0.39126 0.0
N498 N 0.84312 0.22393 0.30822 0.0
N499 N 0.82726 0.99868 0.40916 0.0
H500 H 0.74977 0.0245 0.45749 0.0
H501 H 0.72239 0.08375 0.43502 0.0
H502 H 0.85725 0.97677 0.40928 0.0
H503 H 0.79157 0.97235 0.42056 0.0
H504 H 0.87528 0.24873 0.28595 0.0
H505 H 0.81158 0.24366 0.30575 0.0
H506 H 0.94056 0.22154 0.31161 0.0
H507 H 0.96654 0.16121 0.32998 0.0
C508 C 0.26812 0.5956 0.10944 0.0
C509 C 0.26933 0.64104 0.14081 0.0
C510 C 0.18602 0.65382 0.10642 0.0
C511 C 0.18007 0.60133 0.08532 0.0
N512 N 0.2166 0.52439 0.06053 0.0
N513 N 0.22989 0.7133 0.17114 0.0
C514 C 0.22187 0.57325 0.08416 0.0
C515 C 0.22853 0.67058 0.13944 0.0
N516 N 0.31157 0.57496 0.10313 0.0
N517 N 0.15156 0.68804 0.09315 0.0
H518 H 0.26076 0.72609 0.19598 0.0
H519 H 0.19896 0.73284 0.17598 0.0
H520 H 0.12288 0.67778 0.06491 0.0
H521 H 0.15518 0.7288 0.10434 0.0
H522 H 0.3148 0.54491 0.07717 0.0
H523 H 0.34597 0.59171 0.12057 0.0
H524 H 0.24268 0.49727 0.06486 0.0
H525 H 0.18506 0.51061 0.03714 0.0
C526 C 0.23367 0.41476 0.65755 0.0
C527 C 0.22984 0.36783 0.70077 0.0
C528 C 0.3165 0.35768 0.67683 0.0
C529 C 0.32267 0.40906 0.6386 0.0
N530 N 0.28914 0.49135 0.59756 0.0
N531 N 0.2691 0.29967 0.75763 0.0
C532 C 0.28151 0.43842 0.62932 0.0
C533 C 0.27146 0.34007 0.71167 0.0
N534 N 0.19172 0.43803 0.64492 0.0
N535 N 0.35392 0.3261 0.67985 0.0
H536 H 0.23742 0.28847 0.78518 0.0
H537 H 0.29995 0.28134 0.77115 0.0
H538 H 0.38727 0.33823 0.65459 0.0
H539 H 0.34984 0.2857 0.70344 0.0
H540 H 0.18974 0.46717 0.60931 0.0
H541 H 0.15754 0.42538 0.66838 0.0
H542 H 0.26268 0.51798 0.59569 0.0
H543 H 0.32337 0.51134 0.57612 0.0
C544 C 0.91447 0.79253 0.8297 0.0
C545 C 0.86714 0.78527 0.80243 0.0
C546 C 0.85803 0.68104 0.82287 0.0
C547 C 0.89954 0.68872 0.85898 0.0
N548 N 0.96876 0.75116 0.89722 0.0
N549 N 0.79026 0.72219 0.77895 0.0
C550 C 0.92919 0.74424 0.86142 0.0
C551 C 0.83851 0.72928 0.79939 0.0
N552 N 0.94376 0.84616 0.82765 0.0
N553 N 0.8369 0.62737 0.81172 0.0
H554 H 0.77355 0.75648 0.76322 0.0
H555 H 0.76515 0.68258 0.782 0.0
H556 H 0.85087 0.5912 0.82827 0.0
H557 H 0.80934 0.61969 0.78184 0.0
H558 H 0.981 0.85464 0.84177 0.0
H559 H 0.93168 0.88212 0.80806 0.0
H560 H 0.98812 0.79079 0.90599 0.0
H561 H 0.98082 0.71687 0.92079 0.0
C562 C 0.41731 0.81129 0.20061 0.0
C563 C 0.43017 0.75902 0.19083 0.0
C564 C 0.49775 0.81304 0.12401 0.0
C565 C 0.4849 0.86543 0.13459 0.0
N566 N 0.44831 0.91236 0.20175 0.0
N567 N 0.49232 0.71184 0.15718 0.0
C568 C 0.45028 0.86385 0.17955 0.0
C569 C 0.47471 0.76095 0.15834 0.0
N570 N 0.37072 0.81138 0.22418 0.0
N571 N 0.52772 0.81141 0.07867 0.0
H572 H 0.47474 0.67353 0.18134 0.0
H573 H 0.52683 0.71077 0.13739 0.0
H574 H 0.54337 0.84706 0.04998 0.0
H575 H 0.53314 0.77328 0.06635 0.0
H576 H 0.35765 0.849 0.22662 0.0
H577 H 0.34344 0.77394 0.23642 0.0
H578 H 0.42552 0.91194 0.23693 0.0
H579 H 0.47378 0.95117 0.18905 0.0
C580 C 0.12224 0.27627 0.64297 0.0
C581 C 0.13729 0.27047 0.69899 0.0
C582 C 0.15401 0.17541 0.69313 0.0
C583 C 0.13995 0.18125 0.63663 0.0
N584 N 0.10651 0.23352 0.55792 0.0
N585 N 0.15347 0.21023 0.78185 0.0
C586 C 0.12298 0.23086 0.61141 0.0
C587 C 0.14908 0.2187 0.72536 0.0
N588 N 0.10599 0.32474 0.62104 0.0
N589 N 0.17398 0.12949 0.71538 0.0
H590 H 0.15005 0.24135 0.8066 0.0
H591 H 0.15632 0.17108 0.80477 0.0
H592 H 0.17722 0.09632 0.69334 0.0
H593 H 0.19083 0.12621 0.75404 0.0
H594 H 0.09844 0.33542 0.57933 0.0
H595 H 0.09883 0.35437 0.64584 0.0
H596 H 0.09166 0.26705 0.53704 0.0
H597 H 0.10621 0.20062 0.53419 0.0
C598 C 0.64741 0.26393 0.43721 0.0
C599 C 0.66645 0.25928 0.38405 0.0
C600 C 0.62169 0.33283 0.34192 0.0
C601 C 0.60773 0.34332 0.39554 0.0
N602 N 0.62151 0.32726 0.49531 0.0
N603 N 0.68361 0.30021 0.288 0.0
C604 C 0.62435 0.3112 0.44381 0.0
C605 C 0.65778 0.2978 0.33723 0.0
N606 N 0.65032 0.22262 0.48109 0.0
N607 N 0.59845 0.35347 0.29554 0.0
H608 H 0.71102 0.27547 0.28385 0.0
H609 H 0.68161 0.33084 0.25353 0.0
H610 H 0.56808 0.37461 0.29744 0.0
H611 H 0.60479 0.34303 0.25621 0.0
H612 H 0.63252 0.22087 0.51982 0.0
H613 H 0.66687 0.18759 0.47706 0.0
H614 H 0.63748 0.30774 0.53016 0.0
H615 H 0.60902 0.36384 0.50259 0.0
loop_
_geom_bond_atom_site_label_1
_geom_bond_atom_site_label_2
_geom_bond_distance
_geom_bond_site_symmetry_2
_ccdc_geom_bond_type
C0 N1 1.317 . S
C0 N2 1.348 . S
C0 C3 1.485 . S
N1 C0 1.317 . S
N1 N5 1.370 . S
N2 C0 1.348 . S
N2 C4 1.346 . S
C3 C0 1.485 . S
C3 H7 0.960 . S
C3 H8 0.961 . S
C3 H9 0.960 . S
C4 N2 1.346 . S
C4 N5 1.307 . S
C4 C6 1.486 . S
N5 N1 1.370 . S
N5 C4 1.307 . S
C6 C4 1.486 . S
C6 H10 0.960 . S
C6 H11 0.960 . S
C6 H12 0.959 . S
H7 C3 0.960 . S
H8 C3 0.961 . S
H9 C3 0.960 . S
H10 C6 0.960 . S
H11 C6 0.960 . S
H12 C6 0.959 . S
C13 N14 1.317 . S
C13 N15 1.348 . S
C13 C16 1.485 . S
N14 C13 1.317 . S
N14 N18 1.370 . S
N15 C13 1.348 . S
N15 C17 1.346 . S
C16 C13 1.485 . S
C16 H20 0.960 . S
C16 H21 0.961 . S
C16 H22 0.960 . S
C17 N15 1.346 . S
C17 N18 1.307 . S
C17 C19 1.486 . S
N18 N14 1.370 . S
N18 C17 1.307 . S
C19 C17 1.486 . S
C19 H23 0.960 . S
C19 H24 0.960 . S
C19 H25 0.959 . S
H20 C16 0.960 . S
H21 C16 0.961 . S
H22 C16 0.960 . S
H23 C19 0.960 . S
H24 C19 0.960 . S
H25 C19 0.959 . S
C26 N27 1.317 . S
C26 N28 1.348 . S
C26 C29 1.485 . S
N27 C26 1.317 . S
N27 N31 1.370 . S
N28 C26 1.348 . S
N28 C30 1.346 . S
C29 C26 1.485 . S
C29 H33 0.960 . S
C29 H34 0.961 . S
C29 H35 0.960 . S
C30 N28 1.346 . S
C30 N31 1.307 . S
C30 C32 1.486 . S
N31 N27 1.370 . S
N31 C30 1.307 . S
C32 C30 1.486 . S
C32 H36 0.960 . S
C32 H37 0.960 . S
C32 H38 0.959 . S
H33 C29 0.960 . S
H34 C29 0.961 . S
H35 C29 0.960 . S
H36 C32 0.960 . S
H37 C32 0.960 . S
H38 C32 0.959 . S
C39 N40 1.317 . S
C39 N41 1.348 . S
C39 C42 1.485 . S
N40 C39 1.317 . S
N40 N44 1.370 . S
N41 C39 1.348 . S
N41 C43 1.346 . S
C42 C39 1.485 . S
C42 H46 0.960 . S
C42 H47 0.961 . S
C42 H48 0.960 . S
C43 N41 1.346 . S
C43 N44 1.307 . S
C43 C45 1.486 . S
N44 N40 1.370 . S
N44 C43 1.307 . S
C45 C43 1.486 . S
C45 H49 0.960 . S
C45 H50 0.960 . S
C45 H51 0.959 . S
H46 C42 0.960 . S
H47 C42 0.961 . S
H48 C42 0.960 . S
H49 C45 0.960 . S
H50 C45 0.960 . S
H51 C45 0.959 . S
C52 N53 1.317 . S
C52 N54 1.348 . S
C52 C55 1.485 . S
N53 C52 1.317 . S
N53 N57 1.370 . S
N54 C52 1.348 . S
N54 C56 1.346 . S
C55 C52 1.485 . S
C55 H59 0.960 . S
C55 H60 0.961 . S
C55 H61 0.960 . S
C56 N54 1.346 . S
C56 N57 1.307 . S
C56 C58 1.486 . S
N57 N53 1.370 . S
N57 C56 1.307 . S
C58 C56 1.486 . S
C58 H62 0.960 . S
C58 H63 0.960 . S
C58 H64 0.959 . S
H59 C55 0.960 . S
H60 C55 0.961 . S
H61 C55 0.960 . S
H62 C58 0.960 . S
H63 C58 0.960 . S
H64 C58 0.959 . S
C65 N66 1.317 . S
C65 N67 1.348 . S
C65 C68 1.485 . S
N66 C65 1.317 . S
N66 N70 1.370 . S
N67 C65 1.348 . S
N67 C69 1.346 . S
C68 C65 1.485 . S
C68 H72 0.960 . S
C68 H73 0.961 . S
C68 H74 0.960 . S
C69 N67 1.346 . S
C69 N70 1.307 . S
C69 C71 1.486 . S
N70 N66 1.370 . S
N70 C69 1.307 . S
C71 C69 1.486 . S
C71 H75 0.960 . S
C71 H76 0.960 . S
C71 H77 0.959 . S
H72 C68 0.960 . S
H73 C68 0.961 . S
H74 C68 0.960 . S
H75 C71 0.960 . S
H76 C71 0.960 . S
H77 C71 0.959 . S
C78 N79 1.317 . S
C78 N80 1.348 . S
C78 C81 1.485 . S
N79 C78 1.317 . S
N79 N83 1.370 . S
N80 C78 1.348 . S
N80 C82 1.346 . S
C81 C78 1.485 . S
C81 H85 0.960 . S
C81 H86 0.961 . S
C81 H87 0.960 . S
C82 N80 1.346 . S
C82 N83 1.307 . S
C82 C84 1.486 . S
N83 N79 1.370 . S
N83 C82 1.307 . S
C84 C82 1.486 . S
C84 H88 0.960 . S
C84 H89 0.960 . S
C84 H90 0.959 . S
H85 C81 0.960 . S
H86 C81 0.961 . S
H87 C81 0.960 . S
H88 C84 0.960 . S
H89 C84 0.960 . S
H90 C84 0.959 . S
C91 N92 1.317 . S
C91 N93 1.348 . S
C91 C94 1.485 . S
N92 C91 1.317 . S
N92 N96 1.370 . S
N93 C91 1.348 . S
N93 C95 1.346 . S
C94 C91 1.485 . S
C94 H98 0.960 . S
C94 H99 0.961 . S
C94 H100 0.960 . S
C95 N93 1.346 . S
C95 N96 1.307 . S
C95 C97 1.486 . S
N96 N92 1.370 . S
N96 C95 1.307 . S
C97 C95 1.486 . S
C97 H101 0.960 . S
C97 H102 0.960 . S
C97 H103 0.959 . S
H98 C94 0.960 . S
H99 C94 0.961 . S
H100 C94 0.960 . S
H101 C97 0.960 . S
H102 C97 0.960 . S
H103 C97 0.959 . S
Zn104 O110 1.969 1_545 S
Zn104 O111 1.965 1_545 S
Zn104 O115 2.024 . S
Zn104 O120 1.969 . S
Zn105 O112 1.969 . S
Zn105 O118 1.969 1_565 S
Zn105 O119 1.965 1_665 S
Zn105 O121 2.024 . S
C106 O107 1.229 . S
C106 O115 1.058 . S
O107 C106 1.229 . S
C108 O109 1.229 . S
C108 O121 1.058 . S
O109 C108 1.229 . S
O110 Zn104 1.969 1_565 S
O110 C113 1.267 . S
O111 Zn104 1.965 1_565 S
O111 C122 1.275 . S
O112 Zn105 1.969 . S
O112 C122 1.247 1_655 S
C113 O110 1.267 . S
C113 O114 1.228 . S
O114 C113 1.228 . S
O115 Zn104 2.024 . S
O115 C106 1.058 . S
C116 O117 1.228 . S
C116 O118 1.267 . S
O117 C116 1.228 . S
O118 Zn105 1.969 1_545 S
O118 C116 1.267 . S
O119 Zn105 1.965 1_445 S
O119 C123 1.260 . S
O120 Zn104 1.969 . S
O120 C123 1.258 . S
O121 Zn105 2.024 . S
O121 C108 1.058 . S
C122 O111 1.275 . S
C122 O112 1.247 1_455 S
C123 O119 1.260 . S
C123 O120 1.258 . S
Zn124 O130 1.969 . S
Zn124 O131 1.965 1_565 S
Zn124 O135 2.024 . S
Zn124 O140 1.969 1_556 S
Zn125 O132 1.969 . S
Zn125 O138 1.969 . S
Zn125 O139 1.965 1_545 S
Zn125 O141 2.024 . S
C126 O127 1.229 . S
C126 O135 1.058 . S
O127 C126 1.229 . S
C128 O129 1.229 . S
C128 O141 1.058 . S
O129 C128 1.229 . S
O130 Zn124 1.969 . S
O130 C133 1.267 . S
O131 Zn124 1.965 1_545 S
O131 C142 1.260 . S
O132 Zn125 1.969 . S
O132 C142 1.258 1_554 S
C133 O130 1.267 . S
C133 O134 1.228 . S
O134 C133 1.228 . S
O135 Zn124 2.024 . S
O135 C126 1.058 . S
C136 O137 1.228 . S
C136 O138 1.267 . S
O137 C136 1.228 . S
O138 Zn125 1.969 . S
O138 C136 1.267 . S
O139 Zn125 1.965 1_565 S
O139 C143 1.260 . S
O140 Zn124 1.969 1_554 S
O140 C143 1.258 . S
O141 Zn125 2.024 . S
O141 C128 1.058 . S
C142 O131 1.260 . S
C142 O132 1.258 1_556 S
C143 O139 1.260 . S
C143 O140 1.258 . S
Zn144 O150 1.969 . S
Zn144 O151 1.965 . S
Zn144 O155 2.024 . S
Zn144 O160 1.969 . S
Zn145 O152 1.969 . S
Zn145 O158 1.969 . S
Zn145 O159 1.965 . S
Zn145 O161 2.024 . S
C146 O147 1.229 . S
C146 O155 1.058 . S
O147 C146 1.229 . S
C148 O149 1.229 . S
C148 O161 1.058 . S
O149 C148 1.229 . S
O150 Zn144 1.969 . S
O150 C153 1.267 . S
O151 Zn144 1.965 . S
O151 C162 1.260 . S
O152 Zn145 1.969 . S
O152 C162 1.258 . S
C153 O150 1.267 . S
C153 O154 1.228 . S
O154 C153 1.228 . S
O155 Zn144 2.024 . S
O155 C146 1.058 . S
C156 O157 1.228 . S
C156 O158 1.267 . S
O157 C156 1.228 . S
O158 Zn145 1.969 . S
O158 C156 1.267 . S
O159 Zn145 1.965 . S
O159 C163 1.260 . S
O160 Zn144 1.969 . S
O160 C163 1.258 . S
O161 Zn145 2.024 . S
O161 C148 1.058 . S
C162 O151 1.260 . S
C162 O152 1.258 . S
C163 O159 1.260 . S
C163 O160 1.258 . S
Zn164 O170 1.969 . S
Zn164 O171 1.965 1_556 S
Zn164 O175 2.024 . S
Zn164 O180 1.969 1_655 S
Zn165 O172 1.969 . S
Zn165 O178 1.969 . S
Zn165 O179 1.965 1_554 S
Zn165 O181 2.024 . S
C166 O167 1.229 . S
C166 O175 1.058 . S
O167 C166 1.229 . S
C168 O169 1.229 . S
C168 O181 1.058 . S
O169 C168 1.229 . S
O170 Zn164 1.969 . S
O170 C173 1.267 . S
O171 Zn164 1.965 1_554 S
O171 C182 1.260 . S
O172 Zn165 1.969 . S
O172 C182 1.258 1_455 S
C173 O170 1.267 . S
C173 O174 1.228 . S
O174 C173 1.228 . S
O175 Zn164 2.024 . S
O175 C166 1.058 . S
C176 O177 1.228 . S
C176 O178 1.267 . S
O177 C176 1.228 . S
O178 Zn165 1.969 . S
O178 C176 1.267 . S
O179 Zn165 1.965 1_556 S
O179 C183 1.260 . S
O180 Zn164 1.969 1_455 S
O180 C183 1.258 . S
O181 Zn165 2.024 . S
O181 C168 1.058 . S
C182 O171 1.260 . S
C182 O172 1.258 1_655 S
C183 O179 1.260 . S
C183 O180 1.258 . S
C184 C185 1.363 . S
C184 C190 1.379 . S
C184 N192 1.356 . S
C185 C184 1.363 . S
C185 C191 1.363 . S
C186 C187 1.363 . S
C186 C191 1.379 . S
C186 N193 1.356 . S
C187 C186 1.363 . S
C187 C190 1.363 . S
N188 C190 1.356 . S
N188 H200 0.984 . S
N188 H201 0.985 . S
N189 C191 1.356 . S
N189 H194 0.984 . S
N189 H195 0.985 . S
C190 C184 1.379 . S
C190 C187 1.363 . S
C190 N188 1.356 . S
C191 C185 1.363 . S
C191 C186 1.379 . S
C191 N189 1.356 . S
N192 C184 1.356 . S
N192 H198 0.984 . S
N192 H199 0.984 . S
N193 C186 1.356 . S
N193 H196 0.984 . S
N193 H197 0.985 . S
H194 N189 0.984 . S
H195 N189 0.985 . S
H196 N193 0.984 . S
H197 N193 0.985 . S
H198 N192 0.984 . S
H199 N192 0.984 . S
H200 N188 0.984 . S
H201 N188 0.985 . S
C202 C203 1.363 . S
C202 C208 1.379 . S
C202 N210 1.356 . S
C203 C202 1.363 . S
C203 C209 1.363 . S
C204 C205 1.363 . S
C204 C209 1.379 . S
C204 N211 1.356 . S
C205 C204 1.363 . S
C205 C208 1.363 . S
N206 C208 1.356 . S
N206 H218 0.984 . S
N206 H219 0.985 . S
N207 C209 1.356 . S
N207 H212 0.984 . S
N207 H213 0.985 . S
C208 C202 1.379 . S
C208 C205 1.363 . S
C208 N206 1.356 . S
C209 C203 1.363 . S
C209 C204 1.379 . S
C209 N207 1.356 . S
N210 C202 1.356 . S
N210 H216 0.984 . S
N210 H217 0.984 . S
N211 C204 1.356 . S
N211 H214 0.984 . S
N211 H215 0.985 . S
H212 N207 0.984 . S
H213 N207 0.985 . S
H214 N211 0.984 . S
H215 N211 0.985 . S
H216 N210 0.984 . S
H217 N210 0.984 . S
H218 N206 0.984 . S
H219 N206 0.985 . S
C220 C221 1.363 . S
C220 C226 1.379 . S
C220 N228 1.356 . S
C221 C220 1.363 . S
C221 C227 1.363 . S
C222 C223 1.363 . S
C222 C227 1.379 . S
C222 N229 1.356 . S
C223 C222 1.363 . S
C223 C226 1.363 . S
N224 C226 1.356 . S
N224 H236 0.984 . S
N224 H237 0.985 . S
N225 C227 1.356 . S
N225 H230 0.984 . S
N225 H231 0.985 . S
C226 C220 1.379 . S
C226 C223 1.363 . S
C226 N224 1.356 . S
C227 C221 1.363 . S
C227 C222 1.379 . S
C227 N225 1.356 . S
N228 C220 1.356 . S
N228 H234 0.984 . S
N228 H235 0.984 . S
N229 C222 1.356 . S
N229 H232 0.984 . S
N229 H233 0.985 . S
H230 N225 0.984 . S
H231 N225 0.985 . S
H232 N229 0.984 . S
H233 N229 0.985 . S
H234 N228 0.984 . S
H235 N228 0.984 . S
H236 N224 0.984 . S
H237 N224 0.985 . S
C238 C239 1.363 . S
C238 C244 1.379 . S
C238 N246 1.356 . S
C239 C238 1.363 . S
C239 C245 1.363 . S
C240 C241 1.363 . S
C240 C245 1.379 . S
C240 N247 1.356 . S
C241 C240 1.363 . S
C241 C244 1.363 . S
N242 C244 1.356 1_455 S
N242 H254 0.984 . S
N242 H255 0.985 . S
N243 C245 1.356 . S
N243 H248 0.984 . S
N243 H249 0.985 . S
C244 C238 1.379 . S
C244 C241 1.363 . S
C244 N242 1.356 1_655 S
C245 C239 1.363 . S
C245 C240 1.379 . S
C245 N243 1.356 . S
N246 C238 1.356 . S
N246 H252 0.984 1_655 S
N246 H253 0.984 . S
N247 C240 1.356 . S
N247 H250 0.984 . S
N247 H251 0.985 . S
H248 N243 0.984 . S
H249 N243 0.985 . S
H250 N247 0.984 . S
H251 N247 0.985 . S
H252 N246 0.984 1_455 S
H253 N246 0.984 . S
H254 N242 0.984 . S
H255 N242 0.985 . S
C256 C257 1.363 . S
C256 C262 1.379 . S
C256 N264 1.356 . S
C257 C256 1.363 . S
C257 C263 1.363 . S
C258 C259 1.363 . S
C258 C263 1.379 . S
C258 N265 1.356 . S
C259 C258 1.363 . S
C259 C262 1.363 . S
N260 C262 1.356 . S
N260 H272 0.984 . S
N260 H273 0.985 . S
N261 C263 1.356 . S
N261 H266 0.984 . S
N261 H267 0.985 . S
C262 C256 1.379 . S
C262 C259 1.363 . S
C262 N260 1.356 . S
C263 C257 1.363 . S
C263 C258 1.379 . S
C263 N261 1.356 . S
N264 C256 1.356 . S
N264 H270 0.984 . S
N264 H271 0.984 . S
N265 C258 1.356 . S
N265 H268 0.984 . S
N265 H269 0.985 . S
H266 N261 0.984 . S
H267 N261 0.985 . S
H268 N265 0.984 . S
H269 N265 0.985 . S
H270 N264 0.984 . S
H271 N264 0.984 . S
H272 N260 0.984 . S
H273 N260 0.985 . S
C274 C275 1.363 . S
C274 C280 1.379 . S
C274 N282 1.356 . S
C275 C274 1.363 . S
C275 C281 1.363 . S
C276 C277 1.363 . S
C276 C281 1.379 . S
C276 N283 1.356 . S
C277 C276 1.363 . S
C277 C280 1.363 . S
N278 C280 1.356 1_545 S
N278 H290 0.984 . S
N278 H291 0.985 . S
N279 C281 1.356 . S
N279 H284 0.984 . S
N279 H285 0.985 . S
C280 C274 1.379 . S
C280 C277 1.363 . S
C280 N278 1.356 1_565 S
C281 C275 1.363 . S
C281 C276 1.379 . S
C281 N279 1.356 . S
N282 C274 1.356 . S
N282 H288 0.984 . S
N282 H289 0.984 . S
N283 C276 1.356 . S
N283 H286 0.984 . S
N283 H287 0.985 . S
H284 N279 0.984 . S
H285 N279 0.985 . S
H286 N283 0.984 . S
H287 N283 0.985 . S
H288 N282 0.984 . S
H289 N282 0.984 . S
H290 N278 0.984 . S
H291 N278 0.985 . S
C292 C293 1.363 . S
C292 C298 1.379 . S
C292 N300 1.356 . S
C293 C292 1.363 . S
C293 C299 1.363 . S
C294 C295 1.363 . S
C294 C299 1.379 . S
C294 N301 1.356 . S
C295 C294 1.363 . S
C295 C298 1.363 . S
N296 C298 1.356 . S
N296 H308 0.984 . S
N296 H309 0.985 . S
N297 C299 1.356 . S
N297 H302 0.984 . S
N297 H303 0.985 . S
C298 C292 1.379 . S
C298 C295 1.363 . S
C298 N296 1.356 . S
C299 C293 1.363 . S
C299 C294 1.379 . S
C299 N297 1.356 . S
N300 C292 1.356 . S
N300 H306 0.984 . S
N300 H307 0.984 . S
N301 C294 1.356 . S
N301 H304 0.984 . S
N301 H305 0.985 1_556 S
H302 N297 0.984 . S
H303 N297 0.985 . S
H304 N301 0.984 . S
H305 N301 0.985 1_554 S
H306 N300 0.984 . S
H307 N300 0.984 . S
H308 N296 0.984 . S
H309 N296 0.985 . S
C310 C311 1.363 . S
C310 C316 1.379 . S
C310 N318 1.356 . S
C311 C310 1.363 . S
C311 C317 1.363 . S
C312 C313 1.363 . S
C312 C317 1.379 . S
C312 N319 1.356 . S
C313 C312 1.363 . S
C313 C316 1.363 . S
N314 C316 1.356 . S
N314 H326 0.984 . S
N314 H327 0.985 . S
N315 C317 1.356 . S
N315 H320 0.984 . S
N315 H321 0.985 . S
C316 C310 1.379 . S
C316 C313 1.363 . S
C316 N314 1.356 . S
C317 C311 1.363 . S
C317 C312 1.379 . S
C317 N315 1.356 . S
N318 C310 1.356 . S
N318 H324 0.984 . S
N318 H325 0.984 . S
N319 C312 1.356 . S
N319 H322 0.984 . S
N319 H323 0.985 . S
H320 N315 0.984 . S
H321 N315 0.985 . S
H322 N319 0.984 . S
H323 N319 0.985 . S
H324 N318 0.984 . S
H325 N318 0.984 . S
H326 N314 0.984 . S
H327 N314 0.985 . S
C328 C329 1.363 . S
C328 C334 1.379 . S
C328 N336 1.356 . S
C329 C328 1.363 . S
C329 C335 1.363 . S
C330 C331 1.363 . S
C330 C335 1.379 . S
C330 N337 1.356 . S
C331 C330 1.363 . S
C331 C334 1.363 . S
N332 C334 1.356 . S
N332 H344 0.984 . S
N332 H345 0.985 . S
N333 C335 1.356 . S
N333 H338 0.984 . S
N333 H339 0.985 . S
C334 C328 1.379 . S
C334 C331 1.363 . S
C334 N332 1.356 . S
C335 C329 1.363 . S
C335 C330 1.379 . S
C335 N333 1.356 . S
N336 C328 1.356 . S
N336 H342 0.984 . S
N336 H343 0.984 . S
N337 C330 1.356 . S
N337 H340 0.984 . S
N337 H341 0.985 . S
H338 N333 0.984 . S
H339 N333 0.985 . S
H340 N337 0.984 . S
H341 N337 0.985 . S
H342 N336 0.984 . S
H343 N336 0.984 . S
H344 N332 0.984 . S
H345 N332 0.985 . S
C346 C347 1.363 . S
C346 C352 1.379 . S
C346 N354 1.356 . S
C347 C346 1.363 . S
C347 C353 1.363 . S
C348 C349 1.363 . S
C348 C353 1.379 . S
C348 N355 1.356 1_556 S
C349 C348 1.363 . S
C349 C352 1.363 . S
N350 C352 1.356 . S
N350 H362 0.984 . S
N350 H363 0.985 . S
N351 C353 1.356 . S
N351 H356 0.984 . S
N351 H357 0.985 . S
C352 C346 1.379 . S
C352 C349 1.363 . S
C352 N350 1.356 . S
C353 C347 1.363 . S
C353 C348 1.379 . S
C353 N351 1.356 . S
N354 C346 1.356 . S
N354 H360 0.984 . S
N354 H361 0.984 . S
N355 C348 1.356 1_554 S
N355 H358 0.984 . S
N355 H359 0.985 . S
H356 N351 0.984 . S
H357 N351 0.985 . S
H358 N355 0.984 . S
H359 N355 0.985 . S
H360 N354 0.984 . S
H361 N354 0.984 . S
H362 N350 0.984 . S
H363 N350 0.985 . S
C364 C365 1.363 . S
C364 C370 1.379 . S
C364 N372 1.356 . S
C365 C364 1.363 . S
C365 C371 1.363 . S
C366 C367 1.363 . S
C366 C371 1.379 . S
C366 N373 1.356 . S
C367 C366 1.363 . S
C367 C370 1.363 . S
N368 C370 1.356 . S
N368 H380 0.984 . S
N368 H381 0.985 . S
N369 C371 1.356 . S
N369 H374 0.984 . S
N369 H375 0.985 . S
C370 C364 1.379 . S
C370 C367 1.363 . S
C370 N368 1.356 . S
C371 C365 1.363 . S
C371 C366 1.379 . S
C371 N369 1.356 . S
N372 C364 1.356 . S
N372 H378 0.984 . S
N372 H379 0.984 . S
N373 C366 1.356 . S
N373 H376 0.984 . S
N373 H377 0.985 . S
H374 N369 0.984 . S
H375 N369 0.985 . S
H376 N373 0.984 . S
H377 N373 0.985 . S
H378 N372 0.984 . S
H379 N372 0.984 . S
H380 N368 0.984 . S
H381 N368 0.985 . S
C382 C383 1.363 . S
C382 C388 1.379 . S
C382 N390 1.356 . S
C383 C382 1.363 . S
C383 C389 1.363 . S
C384 C385 1.363 . S
C384 C389 1.379 . S
C384 N391 1.356 . S
C385 C384 1.363 . S
C385 C388 1.363 . S
N386 C388 1.356 . S
N386 H398 0.984 . S
N386 H399 0.985 . S
N387 C389 1.356 . S
N387 H392 0.984 . S
N387 H393 0.985 . S
C388 C382 1.379 . S
C388 C385 1.363 . S
C388 N386 1.356 . S
C389 C383 1.363 . S
C389 C384 1.379 . S
C389 N387 1.356 . S
N390 C382 1.356 . S
N390 H396 0.984 . S
N390 H397 0.984 . S
N391 C384 1.356 . S
N391 H394 0.984 . S
N391 H395 0.985 . S
H392 N387 0.984 . S
H393 N387 0.985 . S
H394 N391 0.984 . S
H395 N391 0.985 . S
H396 N390 0.984 . S
H397 N390 0.984 . S
H398 N386 0.984 . S
H399 N386 0.985 . S
C400 C401 1.363 . S
C400 C406 1.379 . S
C400 N408 1.356 . S
C401 C400 1.363 . S
C401 C407 1.363 . S
C402 C403 1.363 . S
C402 C407 1.379 . S
C402 N409 1.356 . S
C403 C402 1.363 . S
C403 C406 1.363 . S
N404 C406 1.356 1_545 S
N404 H416 0.984 . S
N404 H417 0.985 . S
N405 C407 1.356 . S
N405 H410 0.984 . S
N405 H411 0.985 . S
C406 C400 1.379 . S
C406 C403 1.363 . S
C406 N404 1.356 1_565 S
C407 C401 1.363 . S
C407 C402 1.379 . S
C407 N405 1.356 . S
N408 C400 1.356 . S
N408 H414 0.984 . S
N408 H415 0.984 . S
N409 C402 1.356 . S
N409 H412 0.984 1_655 S
N409 H413 0.985 . S
H410 N405 0.984 . S
H411 N405 0.985 . S
H412 N409 0.984 1_455 S
H413 N409 0.985 . S
H414 N408 0.984 . S
H415 N408 0.984 . S
H416 N404 0.984 . S
H417 N404 0.985 . S
C418 C419 1.363 . S
C418 C424 1.379 . S
C418 N426 1.356 . S
C419 C418 1.363 . S
C419 C425 1.363 . S
C420 C421 1.363 . S
C420 C425 1.379 . S
C420 N427 1.356 . S
C421 C420 1.363 . S
C421 C424 1.363 . S
N422 C424 1.356 . S
N422 H434 0.990 . S
N422 H435 0.985 . S
N423 C425 1.356 . S
N423 H428 0.984 . S
N423 H429 0.985 . S
C424 C418 1.379 . S
C424 C421 1.363 . S
C424 N422 1.356 . S
C425 C419 1.363 . S
C425 C420 1.379 . S
C425 N423 1.356 . S
N426 C418 1.356 . S
N426 H432 0.984 . S
N426 H433 0.984 . S
N427 C420 1.356 . S
N427 H430 0.984 . S
N427 H431 0.985 . S
H428 N423 0.984 . S
H429 N423 0.985 . S
H430 N427 0.984 . S
H431 N427 0.985 . S
H432 N426 0.984 . S
H433 N426 0.984 . S
H434 N422 0.990 . S
H435 N422 0.985 . S
C436 C437 1.363 . S
C436 C442 1.379 . S
C436 N444 1.356 . S
C437 C436 1.363 . S
C437 C443 1.363 . S
C438 C439 1.363 . S
C438 C443 1.379 . S
C438 N445 1.356 . S
C439 C438 1.363 . S
C439 C442 1.363 . S
N440 C442 1.356 . S
N440 H452 0.984 . S
N440 H453 0.985 . S
N441 C443 1.356 . S
N441 H446 0.984 . S
N441 H447 0.985 . S
C442 C436 1.379 . S
C442 C439 1.363 . S
C442 N440 1.356 . S
C443 C437 1.363 . S
C443 C438 1.379 . S
C443 N441 1.356 . S
N444 C436 1.356 . S
N444 H450 0.984 . S
N444 H451 0.984 . S
N445 C438 1.356 . S
N445 H448 0.984 . S
N445 H449 0.985 . S
H446 N441 0.984 . S
H447 N441 0.985 . S
H448 N445 0.984 . S
H449 N445 0.985 . S
H450 N444 0.984 . S
H451 N444 0.984 . S
H452 N440 0.984 . S
H453 N440 0.985 . S
C454 C455 1.363 . S
C454 C460 1.379 . S
C454 N462 1.356 . S
C455 C454 1.363 . S
C455 C461 1.363 . S
C456 C457 1.363 . S
C456 C461 1.379 . S
C456 N463 1.356 . S
C457 C456 1.363 . S
C457 C460 1.363 . S
N458 C460 1.356 . S
N458 H470 0.984 . S
N458 H471 0.985 . S
N459 C461 1.356 . S
N459 H464 0.984 . S
N459 H465 0.985 . S
C460 C454 1.379 . S
C460 C457 1.363 . S
C460 N458 1.356 . S
C461 C455 1.363 . S
C461 C456 1.379 . S
C461 N459 1.356 . S
N462 C454 1.356 . S
N462 H468 0.984 . S
N462 H469 0.984 . S
N463 C456 1.356 . S
N463 H466 0.984 . S
N463 H467 0.985 1_455 S
H464 N459 0.984 . S
H465 N459 0.985 . S
H466 N463 0.984 . S
H467 N463 0.985 1_655 S
H468 N462 0.984 . S
H469 N462 0.984 . S
H470 N458 0.984 . S
H471 N458 0.985 . S
C472 C473 1.363 . S
C472 C478 1.379 . S
C472 N480 1.356 . S
C473 C472 1.363 . S
C473 C479 1.363 . S
C474 C475 1.363 . S
C474 C479 1.379 . S
C474 N481 1.356 . S
C475 C474 1.363 . S
C475 C478 1.363 . S
N476 C478 1.356 . S
N476 H488 0.984 1_565 S
N476 H489 0.987 . S
N477 C479 1.356 . S
N477 H482 0.984 . S
N477 H483 0.985 . S
C478 C472 1.379 . S
C478 C475 1.363 . S
C478 N476 1.356 . S
C479 C473 1.363 . S
C479 C474 1.379 . S
C479 N477 1.356 . S
N480 C472 1.356 . S
N480 H486 0.984 . S
N480 H487 0.984 . S
N481 C474 1.356 . S
N481 H484 0.984 . S
N481 H485 0.985 . S
H482 N477 0.984 . S
H483 N477 0.985 . S
H484 N481 0.984 . S
H485 N481 0.985 . S
H486 N480 0.984 . S
H487 N480 0.984 . S
H488 N476 0.984 1_545 S
H489 N476 0.987 . S
C490 C491 1.363 . S
C490 C496 1.379 . S
C490 N498 1.356 . S
C491 C490 1.363 . S
C491 C497 1.363 . S
C492 C493 1.363 . S
C492 C497 1.379 . S
C492 N499 1.356 . S
C493 C492 1.363 . S
C493 C496 1.363 . S
N494 C496 1.356 . S
N494 H506 0.984 . S
N494 H507 0.985 . S
N495 C497 1.356 . S
N495 H500 0.984 . S
N495 H501 0.985 . S
C496 C490 1.379 . S
C496 C493 1.363 . S
C496 N494 1.356 . S
C497 C491 1.363 . S
C497 C492 1.379 . S
C497 N495 1.356 . S
N498 C490 1.356 . S
N498 H504 0.984 . S
N498 H505 0.984 . S
N499 C492 1.356 . S
N499 H502 0.984 . S
N499 H503 0.985 . S
H500 N495 0.984 . S
H501 N495 0.985 . S
H502 N499 0.984 . S
H503 N499 0.985 . S
H504 N498 0.984 . S
H505 N498 0.984 . S
H506 N494 0.984 . S
H507 N494 0.985 . S
C508 C509 1.363 . S
C508 C514 1.379 . S
C508 N516 1.356 . S
C509 C508 1.363 . S
C509 C515 1.363 . S
C510 C511 1.363 . S
C510 C515 1.379 . S
C510 N517 1.356 . S
C511 C510 1.363 . S
C511 C514 1.363 . S
N512 C514 1.356 . S
N512 H524 0.984 . S
N512 H525 0.985 . S
N513 C515 1.356 . S
N513 H518 0.984 . S
N513 H519 0.985 . S
C514 C508 1.379 . S
C514 C511 1.363 . S
C514 N512 1.356 . S
C515 C509 1.363 . S
C515 C510 1.379 . S
C515 N513 1.356 . S
N516 C508 1.356 . S
N516 H522 0.984 . S
N516 H523 0.984 . S
N517 C510 1.356 . S
N517 H520 0.984 . S
N517 H521 0.985 . S
H518 N513 0.984 . S
H519 N513 0.985 . S
H520 N517 0.984 . S
H521 N517 0.985 . S
H522 N516 0.984 . S
H523 N516 0.984 . S
H524 N512 0.984 . S
H525 N512 0.985 . S
C526 C527 1.363 . S
C526 C532 1.379 . S
C526 N534 1.356 . S
C527 C526 1.363 . S
C527 C533 1.363 . S
C528 C529 1.363 . S
C528 C533 1.379 . S
C528 N535 1.356 . S
C529 C528 1.363 . S
C529 C532 1.363 . S
N530 C532 1.356 . S
N530 H542 0.984 . S
N530 H543 0.985 . S
N531 C533 1.356 . S
N531 H536 0.984 . S
N531 H537 0.985 . S
C532 C526 1.379 . S
C532 C529 1.363 . S
C532 N530 1.356 . S
C533 C527 1.363 . S
C533 C528 1.379 . S
C533 N531 1.356 . S
N534 C526 1.356 . S
N534 H540 0.984 . S
N534 H541 0.984 . S
N535 C528 1.356 . S
N535 H538 0.984 . S
N535 H539 0.985 . S
H536 N531 0.984 . S
H537 N531 0.985 . S
H538 N535 0.984 . S
H539 N535 0.985 . S
H540 N534 0.984 . S
H541 N534 0.984 . S
H542 N530 0.984 . S
H543 N530 0.985 . S
C544 C545 1.363 . S
C544 C550 1.379 . S
C544 N552 1.356 . S
C545 C544 1.363 . S
C545 C551 1.363 . S
C546 C547 1.363 . S
C546 C551 1.379 . S
C546 N553 1.356 . S
C547 C546 1.363 . S
C547 C550 1.363 . S
N548 C550 1.356 . S
N548 H560 0.984 1_655 S
N548 H561 0.985 . S
N549 C551 1.356 . S
N549 H554 0.984 . S
N549 H555 0.985 . S
C550 C544 1.379 . S
C550 C547 1.363 . S
C550 N548 1.356 . S
C551 C545 1.363 . S
C551 C546 1.379 . S
C551 N549 1.356 . S
N552 C544 1.356 . S
N552 H558 0.984 . S
N552 H559 0.984 . S
N553 C546 1.356 . S
N553 H556 0.984 . S
N553 H557 0.985 . S
H554 N549 0.984 . S
H555 N549 0.985 . S
H556 N553 0.984 . S
H557 N553 0.985 . S
H558 N552 0.984 . S
H559 N552 0.984 . S
H560 N548 0.984 1_455 S
H561 N548 0.985 . S
C562 C563 1.363 . S
C562 C568 1.379 . S
C562 N570 1.356 . S
C563 C562 1.363 . S
C563 C569 1.363 . S
C564 C565 1.363 . S
C564 C569 1.379 . S
C564 N571 1.356 . S
C565 C564 1.363 . S
C565 C568 1.363 . S
N566 C568 1.356 . S
N566 H578 0.984 . S
N566 H579 0.985 . S
N567 C569 1.356 . S
N567 H572 0.984 . S
N567 H573 0.985 . S
C568 C562 1.379 . S
C568 C565 1.363 . S
C568 N566 1.356 . S
C569 C563 1.363 . S
C569 C564 1.379 . S
C569 N567 1.356 . S
N570 C562 1.356 . S
N570 H576 0.984 . S
N570 H577 0.984 . S
N571 C564 1.356 . S
N571 H574 0.984 . S
N571 H575 0.985 . S
H572 N567 0.984 . S
H573 N567 0.985 . S
H574 N571 0.984 . S
H575 N571 0.985 . S
H576 N570 0.984 . S
H577 N570 0.984 . S
H578 N566 0.984 . S
H579 N566 0.985 . S
C580 C581 1.363 . S
C580 C586 1.379 . S
C580 N588 1.356 . S
C581 C580 1.363 . S
C581 C587 1.363 . S
C582 C583 1.363 . S
C582 C587 1.379 . S
C582 N589 1.356 . S
C583 C582 1.363 . S
C583 C586 1.363 . S
N584 C586 1.356 . S
N584 H596 0.984 . S
N584 H597 0.985 . S
N585 C587 1.356 . S
N585 H590 0.984 . S
N585 H591 0.985 . S
C586 C580 1.379 . S
C586 C583 1.363 . S
C586 N584 1.356 . S
C587 C581 1.363 . S
C587 C582 1.379 . S
C587 N585 1.356 . S
N588 C580 1.356 . S
N588 H594 0.984 . S
N588 H595 0.984 . S
N589 C582 1.356 . S
N589 H592 0.984 . S
N589 H593 0.985 . S
H590 N585 0.984 . S
H591 N585 0.985 . S
H592 N589 0.984 . S
H593 N589 0.985 . S
H594 N588 0.984 . S
H595 N588 0.984 . S
H596 N584 0.984 . S
H597 N584 0.985 . S
C598 C599 1.363 . S
C598 C604 1.379 . S
C598 N606 1.356 . S
C599 C598 1.363 . S
C599 C605 1.363 . S
C600 C601 1.363 . S
C600 C605 1.379 . S
C600 N607 1.356 . S
C601 C600 1.363 . S
C601 C604 1.363 . S
N602 C604 1.356 . S
N602 H614 0.984 . S
N602 H615 0.985 . S
N603 C605 1.356 . S
N603 H608 0.984 . S
N603 H609 0.985 . S
C604 C598 1.379 . S
C604 C601 1.363 . S
C604 N602 1.356 . S
C605 C599 1.363 . S
C605 C600 1.379 . S
C605 N603 1.356 . S
N606 C598 1.356 . S
N606 H612 0.984 . S
N606 H613 0.984 . S
N607 C600 1.356 . S
N607 H610 0.984 . S
N607 H611 0.985 . S
H608 N603 0.984 . S
H609 N603 0.985 . S
H610 N607 0.984 . S
H611 N607 0.985 . S
H612 N606 0.984 . S
H613 N606 0.984 . S
H614 N602 0.984 . S
H615 N602 0.985 . S
C185 N1 1.402 . S
C187 C123 1.414 . S
C203 N18 1.452 . S
C205 C126 1.449 . S
C223 C162 1.488 . S
C221 N28 1.505 . S
C239 N40 1.816 . S
C241 C182 1.836 . S
C259 C136 1.845 . S
C257 N5 1.844 . S
C277 C113 1.525 . S
C275 N14 1.513 . S
C295 C166 1.599 . S
C293 N31 1.676 . S
C313 C146 1.181 . S
C311 N41 1.247 . S
C329 N2 1.337 . S
C331 C176 1.250 . S
C349 C142 1.742 . S
C347 N27 1.741 . S
C365 N44 1.685 . S
C367 C108 1.703 . S
C383 N15 1.227 . S
C385 C156 1.208 . S
C403 C122 1.687 1_655 S
C401 N57 1.719 . S
C419 N70 1.180 . S
C421 C128 1.205 . S
C437 N79 1.698 . S
C439 C163 1.689 . S
C455 N93 1.685 . S
C457 C183 1.653 . S
C473 N54 1.547 . S
C475 C133 1.504 . S
C493 C116 1.847 . S
C491 N66 1.845 . S
C511 C168 1.243 . S
C509 N80 1.377 . S
C529 C148 1.348 . S
C527 N96 1.455 . S
C545 N53 1.345 . S
C547 C173 1.315 . S
C565 C143 1.626 . S
C563 N83 1.610 . S
C583 C106 1.774 . S
C581 N92 1.798 . S
C599 N67 1.303 . S
C601 C153 1.216 . S
