# Generated by pormake.
# Topology eea, (3,6)-cn, num edge types: 1
# Building blocks:
#     Node 0, Type 0, BuildingBlock: BETDIP_clean_linker_0, # of connection points: 3
#     Node 1, Type 0, BuildingBlock: BETDIP_clean_linker_0, # of connection points: 3
#     Node 2, Type 0, BuildingBlock: BETDIP_clean_linker_0, # of connection points: 3
#     Node 3, Type 0, BuildingBlock: BETDIP_clean_linker_0, # of connection points: 3
#     Node 4, Type 0, BuildingBlock: BETDIP_clean_linker_0, # of connection points: 3
#     Node 5, Type 0, BuildingBlock: BETDIP_clean_linker_0, # of connection points: 3
#     Node 6, Type 0, BuildingBlock: BETDIP_clean_linker_0, # of connection points: 3
#     Node 7, Type 0, BuildingBlock: BETDIP_clean_linker_0, # of connection points: 3
#     Node 8, Type 0, BuildingBlock: BETDIP_clean_linker_0, # of connection points: 3
#     Node 9, Type 0, BuildingBlock: BETDIP_clean_linker_0, # of connection points: 3
#     Node 10, Type 0, BuildingBlock: BETDIP_clean_linker_0, # of connection points: 3
#     Node 11, Type 0, BuildingBlock: BETDIP_clean_linker_0, # of connection points: 3
#     Node 12, Type 0, BuildingBlock: BETDIP_clean_linker_0, # of connection points: 3
#     Node 13, Type 0, BuildingBlock: BETDIP_clean_linker_0, # of connection points: 3
#     Node 14, Type 0, BuildingBlock: BETDIP_clean_linker_0, # of connection points: 3
#     Node 15, Type 0, BuildingBlock: BETDIP_clean_linker_0, # of connection points: 3
#     Node 16, Type 0, BuildingBlock: BETDIP_clean_linker_0, # of connection points: 3
#     Node 17, Type 0, BuildingBlock: BETDIP_clean_linker_0, # of connection points: 3
#     Node 18, Type 1, BuildingBlock: KUMBOL_clean_sbu_0, # of connection points: 6
#     Node 19, Type 1, BuildingBlock: KUMBOL_clean_sbu_0, # of connection points: 6
#     Node 20, Type 1, BuildingBlock: KUMBOL_clean_sbu_0, # of connection points: 6
#     Node 21, Type 1, BuildingBlock: KUMBOL_clean_sbu_0, # of connection points: 6
#     Node 22, Type 1, BuildingBlock: KUMBOL_clean_sbu_0, # of connection points: 6
#     Node 23, Type 1, BuildingBlock: KUMBOL_clean_sbu_0, # of connection points: 6
#     Node 24, Type 1, BuildingBlock: KUMBOL_clean_sbu_0, # of connection points: 6
#     Node 25, Type 1, BuildingBlock: KUMBOL_clean_sbu_0, # of connection points: 6
#     Node 26, Type 1, BuildingBlock: KUMBOL_clean_sbu_0, # of connection points: 6
#     Edge 27, Type (0, 1), BuildingBlock: XIVTED_clean_linker_0, # of connection points: 2
#     Edge 28, Type (0, 1), BuildingBlock: XIVTED_clean_linker_0, # of connection points: 2
#     Edge 29, Type (0, 1), BuildingBlock: XIVTED_clean_linker_0, # of connection points: 2
#     Edge 30, Type (0, 1), BuildingBlock: XIVTED_clean_linker_0, # of connection points: 2
#     Edge 31, Type (0, 1), BuildingBlock: XIVTED_clean_linker_0, # of connection points: 2
#     Edge 32, Type (0, 1), BuildingBlock: XIVTED_clean_linker_0, # of connection points: 2
#     Edge 33, Type (0, 1), BuildingBlock: XIVTED_clean_linker_0, # of connection points: 2
#     Edge 34, Type (0, 1), BuildingBlock: XIVTED_clean_linker_0, # of connection points: 2
#     Edge 35, Type (0, 1), BuildingBlock: XIVTED_clean_linker_0, # of connection points: 2
#     Edge 36, Type (0, 1), BuildingBlock: XIVTED_clean_linker_0, # of connection points: 2
#     Edge 37, Type (0, 1), BuildingBlock: XIVTED_clean_linker_0, # of connection points: 2
#     Edge 38, Type (0, 1), BuildingBlock: XIVTED_clean_linker_0, # of connection points: 2
#     Edge 39, Type (0, 1), BuildingBlock: XIVTED_clean_linker_0, # of connection points: 2
#     Edge 40, Type (0, 1), BuildingBlock: XIVTED_clean_linker_0, # of connection points: 2
#     Edge 41, Type (0, 1), BuildingBlock: XIVTED_clean_linker_0, # of connection points: 2
#     Edge 42, Type (0, 1), BuildingBlock: XIVTED_clean_linker_0, # of connection points: 2
#     Edge 43, Type (0, 1), BuildingBlock: XIVTED_clean_linker_0, # of connection points: 2
#     Edge 44, Type (0, 1), BuildingBlock: XIVTED_clean_linker_0, # of connection points: 2
#     Edge 45, Type (0, 1), BuildingBlock: XIVTED_clean_linker_0, # of connection points: 2
#     Edge 46, Type (0, 1), BuildingBlock: XIVTED_clean_linker_0, # of connection points: 2
#     Edge 47, Type (0, 1), BuildingBlock: XIVTED_clean_linker_0, # of connection points: 2
#     Edge 48, Type (0, 1), BuildingBlock: XIVTED_clean_linker_0, # of connection points: 2
#     Edge 49, Type (0, 1), BuildingBlock: XIVTED_clean_linker_0, # of connection points: 2
#     Edge 50, Type (0, 1), BuildingBlock: XIVTED_clean_linker_0, # of connection points: 2
#     Edge 51, Type (0, 1), BuildingBlock: XIVTED_clean_linker_0, # of connection points: 2
#     Edge 52, Type (0, 1), BuildingBlock: XIVTED_clean_linker_0, # of connection points: 2
#     Edge 53, Type (0, 1), BuildingBlock: XIVTED_clean_linker_0, # of connection points: 2
#     Edge 54, Type (0, 1), BuildingBlock: XIVTED_clean_linker_0, # of connection points: 2
#     Edge 55, Type (0, 1), BuildingBlock: XIVTED_clean_linker_0, # of connection points: 2
#     Edge 56, Type (0, 1), BuildingBlock: XIVTED_clean_linker_0, # of connection points: 2
#     Edge 57, Type (0, 1), BuildingBlock: XIVTED_clean_linker_0, # of connection points: 2
#     Edge 58, Type (0, 1), BuildingBlock: XIVTED_clean_linker_0, # of connection points: 2
#     Edge 59, Type (0, 1), BuildingBlock: XIVTED_clean_linker_0, # of connection points: 2
#     Edge 60, Type (0, 1), BuildingBlock: XIVTED_clean_linker_0, # of connection points: 2
#     Edge 61, Type (0, 1), BuildingBlock: XIVTED_clean_linker_0, # of connection points: 2
#     Edge 62, Type (0, 1), BuildingBlock: XIVTED_clean_linker_0, # of connection points: 2
#     Edge 63, Type (0, 1), BuildingBlock: XIVTED_clean_linker_0, # of connection points: 2
#     Edge 64, Type (0, 1), BuildingBlock: XIVTED_clean_linker_0, # of connection points: 2
#     Edge 65, Type (0, 1), BuildingBlock: XIVTED_clean_linker_0, # of connection points: 2
#     Edge 66, Type (0, 1), BuildingBlock: XIVTED_clean_linker_0, # of connection points: 2
#     Edge 67, Type (0, 1), BuildingBlock: XIVTED_clean_linker_0, # of connection points: 2
#     Edge 68, Type (0, 1), BuildingBlock: XIVTED_clean_linker_0, # of connection points: 2
#     Edge 69, Type (0, 1), BuildingBlock: XIVTED_clean_linker_0, # of connection points: 2
#     Edge 70, Type (0, 1), BuildingBlock: XIVTED_clean_linker_0, # of connection points: 2
#     Edge 71, Type (0, 1), BuildingBlock: XIVTED_clean_linker_0, # of connection points: 2
#     Edge 72, Type (0, 1), BuildingBlock: XIVTED_clean_linker_0, # of connection points: 2
#     Edge 73, Type (0, 1), BuildingBlock: XIVTED_clean_linker_0, # of connection points: 2
#     Edge 74, Type (0, 1), BuildingBlock: XIVTED_clean_linker_0, # of connection points: 2
#     Edge 75, Type (0, 1), BuildingBlock: XIVTED_clean_linker_0, # of connection points: 2
#     Edge 76, Type (0, 1), BuildingBlock: XIVTED_clean_linker_0, # of connection points: 2
#     Edge 77, Type (0, 1), BuildingBlock: XIVTED_clean_linker_0, # of connection points: 2
#     Edge 78, Type (0, 1), BuildingBlock: XIVTED_clean_linker_0, # of connection points: 2
#     Edge 79, Type (0, 1), BuildingBlock: XIVTED_clean_linker_0, # of connection points: 2
#     Edge 80, Type (0, 1), BuildingBlock: XIVTED_clean_linker_0, # of connection points: 2
# Relax obj value: 0.025
# Max RMSD: 0.166
# Mean RMSD: 0.120
data_MOF--net-eea--node1-KUMBOL_clean_sbu_0--node2-BETDIP_clean_linker_0--edge1-XIVTED_clean_linker_0
_symmetry_space_group_name_H-M    P1
_symmetry_Int_Tables_number       1
_symmetry_cell_setting            triclinic
loop_
_symmetry_equiv_pos_as_xyz
'x, y, z'
_cell_length_a     54.501076
_cell_length_b     56.078344
_cell_length_c     67.053076
_cell_angle_alpha  90.07452
_cell_angle_beta   89.802775
_cell_angle_gamma 120.03385
loop_
_atom_site_label
_atom_site_type_symbol
_atom_site_fract_x
_atom_site_fract_y
_atom_site_fract_z
_atom_type_partial_charge
H0 H 0.21905 0.09278 0.38875 0.0
H1 H 0.26535 0.15552 0.43249 0.0
H2 H 0.27332 0.08322 0.43048 0.0
H3 H 0.22568 0.15877 0.43139 0.0
C4 C 0.222 0.15802 0.41543 0.0
C5 C 0.234 0.10065 0.40098 0.0
C6 C 0.24588 0.08525 0.40834 0.0
C7 C 0.24006 0.12547 0.4101 0.0
C8 C 0.25942 0.13569 0.426 0.0
C9 C 0.27147 0.12056 0.43352 0.0
C10 C 0.26457 0.09536 0.42457 0.0
N11 N 0.22625 0.13967 0.40322 0.0
H12 H 0.93124 0.12755 0.38517 0.0
H13 H 0.87188 0.10273 0.43388 0.0
H14 H 0.94001 0.18618 0.43028 0.0
H15 H 0.868 0.06193 0.42838 0.0
C16 C 0.86737 0.0608 0.4122 0.0
C17 C 0.92412 0.13247 0.39887 0.0
C18 C 0.93853 0.15955 0.40642 0.0
C19 C 0.90032 0.11166 0.40884 0.0
C20 C 0.89062 0.1183 0.42631 0.0
C21 C 0.90491 0.14503 0.43422 0.0
C22 C 0.92889 0.16549 0.42422 0.0
N23 N 0.88584 0.0845 0.40073 0.0
H24 H 0.88642 0.80414 0.38296 0.0
H25 H 0.91556 0.77424 0.43126 0.0
H26 H 0.83356 0.76727 0.43465 0.0
H27 H 0.93156 0.76076 0.40186 0.0
C28 C 0.94311 0.7815 0.39576 0.0
C29 C 0.88304 0.79476 0.39758 0.0
C30 C 0.85723 0.78611 0.40776 0.0
C31 C 0.90388 0.78984 0.40572 0.0
C32 C 0.89928 0.77733 0.42462 0.0
C33 C 0.87411 0.76942 0.43526 0.0
C34 C 0.85325 0.77383 0.42667 0.0
N35 N 0.92927 0.79734 0.39481 0.0
H36 H 0.09417 0.20342 0.64655 0.0
H37 H 0.15042 0.22546 0.59619 0.0
H38 H 0.08062 0.24079 0.59478 0.0
H39 H 0.14129 0.17709 0.60982 0.0
C40 C 0.15162 0.18861 0.62324 0.0
C41 C 0.10011 0.21184 0.63164 0.0
C42 C 0.08404 0.22154 0.62165 0.0
C43 C 0.12393 0.21301 0.6224 0.0
C44 C 0.13191 0.22432 0.60318 0.0
C45 C 0.11659 0.23466 0.59312 0.0
C46 C 0.09259 0.23294 0.60244 0.0
N47 N 0.14058 0.20396 0.63282 0.0
H48 H 0.79922 0.88298 0.64046 0.0
H49 H 0.75889 0.90605 0.59583 0.0
H50 H 0.75601 0.82853 0.59102 0.0
H51 H 0.74758 0.92206 0.6249 0.0
C52 C 0.76902 0.93341 0.63075 0.0
C53 C 0.78684 0.87797 0.62692 0.0
C54 C 0.77867 0.85309 0.61673 0.0
C55 C 0.77885 0.89658 0.61988 0.0
C56 C 0.76418 0.89124 0.60178 0.0
C57 C 0.75625 0.8669 0.59123 0.0
C58 C 0.76294 0.84764 0.59899 0.0
N59 N 0.78601 0.92075 0.63103 0.0
H60 H 0.13048 0.90945 0.63944 0.0
H61 H 0.10319 0.85202 0.59089 0.0
H62 H 0.18366 0.92718 0.58756 0.0
H63 H 0.05859 0.8562 0.60316 0.0
C64 C 0.06112 0.84903 0.61765 0.0
C65 C 0.13437 0.90401 0.62473 0.0
C66 C 0.15977 0.92159 0.61456 0.0
C67 C 0.11365 0.8794 0.61599 0.0
C68 C 0.11875 0.87164 0.59716 0.0
C69 C 0.14445 0.88835 0.58702 0.0
C70 C 0.16446 0.91354 0.5957 0.0
N71 N 0.0883 0.86208 0.62673 0.0
H72 H 0.90064 0.43433 0.71383 0.0
H73 H 0.93406 0.49 0.76358 0.0
H74 H 0.93146 0.41239 0.76572 0.0
H75 H 0.94681 0.52142 0.73776 0.0
C76 C 0.92662 0.51209 0.73001 0.0
C77 C 0.90988 0.43908 0.7286 0.0
C78 C 0.91542 0.42027 0.73864 0.0
C79 C 0.9172 0.46455 0.73725 0.0
C80 C 0.92931 0.47086 0.7564 0.0
C81 C 0.93438 0.45206 0.76673 0.0
C82 C 0.92742 0.42689 0.75776 0.0
N83 N 0.91147 0.48319 0.7267 0.0
H84 H 0.60003 0.46002 0.71722 0.0
H85 H 0.53876 0.43625 0.76462 0.0
H86 H 0.60881 0.51877 0.76228 0.0
H87 H 0.53347 0.39499 0.75939 0.0
C88 C 0.53363 0.39391 0.74322 0.0
C89 C 0.59267 0.46508 0.73074 0.0
C90 C 0.60745 0.4921 0.73846 0.0
C91 C 0.56811 0.44457 0.74027 0.0
C92 C 0.55808 0.45149 0.75743 0.0
C93 C 0.57272 0.47808 0.76554 0.0
C94 C 0.59745 0.49819 0.75605 0.0
N95 N 0.55322 0.41746 0.73202 0.0
H96 H 0.56024 0.13762 0.71573 0.0
H97 H 0.58796 0.10795 0.76503 0.0
H98 H 0.50648 0.10229 0.76722 0.0
H99 H 0.60225 0.09228 0.73581 0.0
C100 C 0.61472 0.11278 0.72944 0.0
C101 C 0.55661 0.12864 0.7305 0.0
C102 C 0.53074 0.12051 0.74043 0.0
C103 C 0.57706 0.12345 0.73906 0.0
C104 C 0.57201 0.11132 0.75813 0.0
C105 C 0.54676 0.10393 0.7685 0.0
C106 C 0.52631 0.10857 0.7595 0.0
N107 N 0.60228 0.12986 0.72827 0.0
H108 H 0.75385 0.53327 0.97694 0.0
H109 H 0.81441 0.5668 0.92884 0.0
H110 H 0.74306 0.57924 0.92965 0.0
H111 H 0.82036 0.53141 0.93563 0.0
C112 C 0.82104 0.53171 0.95182 0.0
C113 C 0.76084 0.5445 0.96301 0.0
C114 C 0.7454 0.55601 0.9545 0.0
C115 C 0.78563 0.54785 0.95371 0.0
C116 C 0.795 0.56324 0.9359 0.0
C117 C 0.77965 0.57434 0.927 0.0
C118 C 0.75488 0.57054 0.93638 0.0
N119 N 0.80148 0.53666 0.96274 0.0
H120 H 0.46172 0.21492 0.97468 0.0
H121 H 0.42631 0.23847 0.92666 0.0
H122 H 0.42794 0.16294 0.92285 0.0
H123 H 0.41318 0.25541 0.95388 0.0
C124 C 0.43384 0.26632 0.96098 0.0
C125 C 0.4519 0.21074 0.9601 0.0
C126 C 0.44564 0.18645 0.94984 0.0
C127 C 0.44443 0.22924 0.95206 0.0
C128 C 0.43161 0.22398 0.9332 0.0
C129 C 0.42537 0.19998 0.92269 0.0
C130 C 0.43234 0.18127 0.93112 0.0
N131 N 0.45018 0.25315 0.96305 0.0
H132 H 0.78601 0.24773 0.97406 0.0
H133 H 0.77143 0.18693 0.92948 0.0
H134 H 0.84729 0.2658 0.92719 0.0
H135 H 0.75472 0.15979 0.95902 0.0
C136 C 0.74085 0.16732 0.96407 0.0
C137 C 0.79306 0.24177 0.96082 0.0
C138 C 0.81898 0.26046 0.9516 0.0
C139 C 0.77622 0.21501 0.95327 0.0
C140 C 0.78466 0.20728 0.93568 0.0
C141 C 0.81021 0.22566 0.92612 0.0
C142 C 0.8273 0.25193 0.93435 0.0
N143 N 0.75091 0.19614 0.96353 0.0
H144 H 0.53793 0.75149 0.06141 0.0
H145 H 0.58758 0.81743 0.10211 0.0
H146 H 0.59907 0.74733 0.09971 0.0
H147 H 0.54818 0.82127 0.10151 0.0
C148 C 0.54385 0.81951 0.0856 0.0
C149 C 0.55422 0.76038 0.07273 0.0
C150 C 0.56783 0.74613 0.07938 0.0
C151 C 0.56072 0.78577 0.08114 0.0
C152 C 0.58155 0.79735 0.09605 0.0
C153 C 0.59517 0.78341 0.10301 0.0
C154 C 0.58843 0.75803 0.09442 0.0
N155 N 0.5464 0.79948 0.07417 0.0
H156 H 0.26058 0.79957 0.04657 0.0
H157 H 0.20529 0.76914 0.09744 0.0
H158 H 0.27497 0.85248 0.09715 0.0
H159 H 0.21472 0.72966 0.08542 0.0
C160 C 0.20464 0.73025 0.07161 0.0
C161 C 0.25487 0.80296 0.06137 0.0
C162 C 0.27103 0.82866 0.07079 0.0
C163 C 0.23142 0.78141 0.07106 0.0
C164 C 0.22362 0.78576 0.09011 0.0
C165 C 0.23899 0.81145 0.09956 0.0
C166 C 0.26283 0.83269 0.08986 0.0
N167 N 0.21521 0.75567 0.06131 0.0
H168 H 0.22024 0.46938 0.04866 0.0
H169 H 0.24579 0.43634 0.09717 0.0
H170 H 0.1646 0.43141 0.09879 0.0
H171 H 0.26097 0.42248 0.0676 0.0
C172 C 0.27378 0.44324 0.06172 0.0
C173 C 0.21602 0.45947 0.06312 0.0
C174 C 0.18971 0.45066 0.07261 0.0
C175 C 0.23618 0.45385 0.07171 0.0
C176 C 0.23035 0.44057 0.09042 0.0
C177 C 0.20447 0.43219 0.10025 0.0
C178 C 0.18449 0.43749 0.09122 0.0
N179 N 0.26173 0.4607 0.06118 0.0
H180 H 0.42635 0.8735 0.31258 0.0
H181 H 0.48592 0.90778 0.26416 0.0
H182 H 0.41064 0.91438 0.26405 0.0
H183 H 0.5156 0.92186 0.29365 0.0
C184 C 0.50717 0.90085 0.29894 0.0
C185 C 0.43252 0.88413 0.29837 0.0
C186 C 0.41523 0.89309 0.28928 0.0
C187 C 0.45861 0.89034 0.28973 0.0
C188 C 0.46645 0.9041 0.27127 0.0
C189 C 0.44928 0.91273 0.26175 0.0
C190 C 0.4238 0.90732 0.271 0.0
N191 N 0.47717 0.88329 0.29978 0.0
H192 H 0.13591 0.54856 0.30764 0.0
H193 H 0.09804 0.57538 0.26373 0.0
H194 H 0.08089 0.49204 0.2626 0.0
H195 H 0.1434 0.61486 0.26805 0.0
C196 C 0.14123 0.61562 0.28414 0.0
C197 C 0.12192 0.54376 0.29499 0.0
C198 C 0.10877 0.51733 0.28629 0.0
C199 C 0.11846 0.56478 0.28678 0.0
C200 C 0.1013 0.55935 0.26991 0.0
C201 C 0.08805 0.53328 0.26099 0.0
C202 C 0.09137 0.51222 0.26947 0.0
N203 N 0.13243 0.59137 0.29557 0.0
H204 H 0.4516 0.58367 0.30539 0.0
H205 H 0.43484 0.52053 0.26231 0.0
H206 H 0.51166 0.59834 0.25825 0.0
H207 H 0.4196 0.49521 0.29287 0.0
C208 C 0.40573 0.5029 0.29758 0.0
C209 C 0.45817 0.57691 0.29232 0.0
C210 C 0.48404 0.59482 0.28267 0.0
C211 C 0.44077 0.54986 0.28543 0.0
C212 C 0.44852 0.54109 0.26804 0.0
C213 C 0.47398 0.55865 0.25809 0.0
C214 C 0.4917 0.58518 0.2657 0.0
N215 N 0.41569 0.53165 0.29621 0.0
Gd216 Gd 0.51219 0.02315 0.03879 0.0
Gd217 Gd 0.48856 0.98709 0.99003 0.0
C218 C 0.40205 0.91004 0.98093 0.0
C219 C 0.41494 0.87512 0.97414 0.0
C220 C 0.45147 0.9226 0.98017 0.0
C221 C 0.431 0.9299 0.98291 0.0
C222 C 0.44376 0.89528 0.97525 0.0
C223 C 0.39411 0.88249 0.97701 0.0
C224 C 0.38202 0.91862 0.98235 0.0
C225 C 0.39116 0.94654 0.98491 0.0
N226 N 0.43948 0.95674 0.98643 0.0
C227 C 0.42014 0.96547 0.98663 0.0
H228 H 0.42682 0.98692 0.98871 0.0
C229 C 0.50006 0.93719 0.97606 0.0
N230 N 0.47905 0.94265 0.98115 0.0
C231 C 0.4935 0.91039 0.97115 0.0
C232 C 0.46523 0.88924 0.97101 0.0
H233 H 0.52196 0.95339 0.97624 0.0
H234 H 0.37196 0.86689 0.97563 0.0
H235 H 0.57288 0.02158 0.042 0.0
H236 H 0.35957 0.90401 0.98098 0.0
H237 H 0.3759 0.9535 0.98563 0.0
H238 H 0.40856 0.85395 0.97058 0.0
H239 H 0.47988 0.05863 0.05042 0.0
H240 H 0.64141 0.10409 0.04894 0.0
H241 H 0.62397 0.0542 0.04556 0.0
H242 H 0.59442 0.15662 0.0557 0.0
H243 H 0.51024 0.90605 0.96753 0.0
H244 H 0.46019 0.86851 0.96715 0.0
H245 H 0.63019 0.14228 0.05241 0.0
H246 H 0.49263 0.10675 0.05753 0.0
N247 N 0.56131 0.05264 0.04273 0.0
C248 C 0.6189 0.08984 0.04735 0.0
C249 C 0.60913 0.0617 0.0455 0.0
C250 C 0.59941 0.09916 0.04775 0.0
C251 C 0.57036 0.07976 0.04554 0.0
C252 C 0.58008 0.04324 0.04348 0.0
N253 N 0.52259 0.06823 0.04635 0.0
C254 C 0.55033 0.08784 0.04737 0.0
C255 C 0.50908 0.10174 0.05461 0.0
C256 C 0.53755 0.12241 0.05478 0.0
C257 C 0.50193 0.07452 0.05065 0.0
C258 C 0.55863 0.11552 0.05147 0.0
H259 H 0.54305 0.14345 0.05796 0.0
O260 O 0.48984 0.01613 0.067 0.0
O261 O 0.47782 0.98895 0.02172 0.0
O262 O 0.47641 0.02006 0.99467 0.0
O263 O 0.50956 0.05205 0.01674 0.0
O264 O 0.46542 0.00888 0.04165 0.0
O265 O 0.52457 0.00798 0.06443 0.0
O266 O 0.51176 0.99705 0.962 0.0
O267 O 0.52313 0.02105 0.00723 0.0
O268 O 0.52327 0.98925 0.03486 0.0
O269 O 0.49192 0.95794 0.01144 0.0
O270 O 0.53516 0.00084 0.98725 0.0
O271 O 0.47484 0.00174 0.96478 0.0
C272 C 0.45648 0.98887 0.02909 0.0
C273 C 0.58759 0.13519 0.05274 0.0
C274 C 0.60796 0.12703 0.05088 0.0
C275 C 0.50613 0.009 0.07633 0.0
C276 C 0.51665 0.02178 0.09595 0.0
C277 C 0.5365 0.04993 0.09743 0.0
C278 C 0.50675 0.00574 0.1134 0.0
C279 C 0.51678 0.01775 0.1323 0.0
C280 C 0.54638 0.06201 0.11604 0.0
C281 C 0.53664 0.04612 0.13336 0.0
C282 C 0.49048 0.04515 1.00246 0.0
C283 C 0.54428 0.02062 1.0 0.0
C284 C 0.49439 0.00294 0.95288 0.0
C285 C 0.48517 0.9909 0.93291 0.0
C286 C 0.46604 0.96267 0.93065 0.0
C287 C 0.49616 0.00767 0.9159 0.0
C288 C 0.4884 0.99623 0.89664 0.0
C289 C 0.45815 0.95123 0.91164 0.0
C290 C 0.46929 0.96781 0.89474 0.0
C291 C 0.50975 0.9644 0.02657 0.0
H292 H 0.54434 0.06257 0.08422 0.0
H293 H 0.49162 0.98391 0.11221 0.0
H294 H 0.56162 0.0838 0.11706 0.0
H295 H 0.54445 0.05614 0.14761 0.0
H296 H 0.45731 0.94948 0.94354 0.0
H297 H 0.51113 0.02947 0.91766 0.0
H298 H 0.44337 0.92941 0.91 0.0
H299 H 0.46264 0.95845 0.88016 0.0
Gd300 Gd 0.98819 0.49335 0.03943 0.0
Gd301 Gd 0.02556 0.49902 0.99197 0.0
C302 C 0.10365 0.48906 0.98892 0.0
C303 C 0.14109 0.53573 0.98153 0.0
C304 C 0.0923 0.52538 0.9849 0.0
C305 C 0.08375 0.49816 0.98902 0.0
C306 C 0.12096 0.54436 0.9807 0.0
C307 C 0.13244 0.50812 0.98562 0.0
C308 C 0.09391 0.46099 0.99167 0.0
C309 C 0.06491 0.44269 0.99384 0.0
N310 N 0.05574 0.48027 0.99205 0.0
C311 C 0.04598 0.45268 0.99378 0.0
H312 H 0.02365 0.43829 0.99557 0.0
C313 C 0.07908 0.55863 0.97744 0.0
N314 N 0.07226 0.53292 0.98393 0.0
C315 C 0.10728 0.5783 0.97335 0.0
C316 C 0.12838 0.57124 0.97521 0.0
H317 H 0.0628 0.56416 0.97608 0.0
H318 H 0.14808 0.50158 0.98574 0.0
H319 H 0.98688 0.55216 0.03339 0.0
H320 H 0.10852 0.4532 0.99176 0.0
H321 H 0.05711 0.42088 0.99566 0.0
H322 H 0.16327 0.55007 0.97853 0.0
H323 H 0.95487 0.43056 0.05965 0.0
H324 H 0.90101 0.53413 0.03839 0.0
H325 H 0.95176 0.56757 0.03261 0.0
H326 H 0.85111 0.43918 0.05799 0.0
H327 H 0.11272 0.59886 0.96873 0.0
H328 H 0.1502 0.58646 0.97191 0.0
H329 H 0.86346 0.48597 0.04756 0.0
H330 H 0.90652 0.39588 0.07046 0.0
N331 N 0.9563 0.51013 0.03884 0.0
C332 C 0.91634 0.52721 0.0387 0.0
C333 C 0.94497 0.54615 0.03549 0.0
C334 C 0.90798 0.49975 0.04295 0.0
C335 C 0.92877 0.49179 0.04303 0.0
C336 C 0.96484 0.53731 0.03594 0.0
N337 N 0.94277 0.45925 0.04985 0.0
C338 C 0.92179 0.46549 0.04878 0.0
C339 C 0.91048 0.41531 0.06427 0.0
C340 C 0.8883 0.42084 0.06226 0.0
C341 C 0.93782 0.43499 0.05816 0.0
C342 C 0.89388 0.44636 0.05474 0.0
H343 H 0.86715 0.4056 0.06704 0.0
O344 O 0.99761 0.48571 0.06939 0.0
O345 O 0.02364 0.49191 0.02442 0.0
O346 O 0.99028 0.45495 0.99814 0.0
O347 O 0.95837 0.45682 0.02067 0.0
O348 O 1.00428 0.464 0.04703 0.0
O349 O 1.0011 0.52498 0.06213 0.0
O350 O 0.01962 0.51003 0.96211 0.0
O351 O 0.98948 0.49988 0.0067 0.0
O352 O 0.0225 0.53771 0.0322 0.0
O353 O 0.05505 0.53324 0.01225 0.0
O354 O 0.01036 0.52902 0.98492 0.0
O355 O 0.01239 0.46894 0.96815 0.0
C356 C 0.02448 0.47311 0.03408 0.0
C357 C 0.87276 0.45369 0.05369 0.0
C358 C 0.87979 0.48034 0.04776 0.0
C359 C 1.00169 0.5092 0.07617 0.0
C360 C 0.98699 0.50794 0.09488 0.0
C361 C 0.9593 0.50359 0.0949 0.0
C362 C 1.00068 0.51045 0.11305 0.0
C363 C 0.98686 0.50855 0.13124 0.0
C364 C 0.94536 0.50144 0.11288 0.0
C365 C 0.95899 0.50383 0.13099 0.0
C366 C 0.96486 0.44411 0.00669 0.0
C367 C 0.98922 0.51909 0.99714 0.0
C368 C 0.01392 0.48634 0.9546 0.0
C369 C 0.02886 0.48751 0.93607 0.0
C370 C 0.05696 0.49304 0.93627 0.0
C371 C 0.01493 0.48369 0.91784 0.0
C372 C 0.02896 0.48557 0.89977 0.0
C373 C 0.07106 0.49501 0.9184 0.0
C374 C 0.05722 0.49139 0.90021 0.0
C375 C 0.04839 0.54739 0.02473 0.0
H376 H 0.94848 0.50188 0.08109 0.0
H377 H 0.02199 0.51359 0.11301 0.0
H378 H 0.92399 0.49805 0.11278 0.0
H379 H 0.94793 0.50249 0.14477 0.0
H380 H 0.06799 0.49588 0.95014 0.0
H381 H 0.99328 0.47966 0.91772 0.0
H382 H 0.09276 0.49931 0.91865 0.0
H383 H 0.06845 0.49273 0.88652 0.0
Gd384 Gd 0.50334 0.51985 0.98682 0.0
Gd385 Gd 0.52762 0.50715 0.03515 0.0
C386 C 0.61424 0.51365 0.04122 0.0
C387 C 0.60135 0.46603 0.04722 0.0
C388 C 0.56477 0.4783 0.04286 0.0
C389 C 0.58525 0.50552 0.04003 0.0
C390 C 0.57254 0.45833 0.04701 0.0
C391 C 0.62217 0.49366 0.04431 0.0
C392 C 0.63433 0.5417 0.03984 0.0
C393 C 0.62526 0.56088 0.03804 0.0
N394 N 0.5768 0.5243 0.03729 0.0
C395 C 0.59626 0.5518 0.03705 0.0
H396 H 0.58963 0.56689 0.03558 0.0
C397 C 0.51639 0.44595 0.04843 0.0
N398 N 0.53721 0.47171 0.04289 0.0
C399 C 0.523 0.42536 0.05251 0.0
C400 C 0.55117 0.43147 0.05153 0.0
H401 H 0.49457 0.44113 0.04909 0.0
H402 H 0.64433 0.49945 0.04503 0.0
H403 H 0.43955 0.46227 0.98572 0.0
H404 H 0.6568 0.54878 0.04061 0.0
H405 H 0.6406 0.58266 0.03734 0.0
H406 H 0.60776 0.45095 0.05018 0.0
H407 H 0.54027 0.58583 0.97267 0.0
H408 H 0.37607 0.48505 0.97853 0.0
H409 H 0.38933 0.44914 0.98284 0.0
H410 H 0.43035 0.58257 0.96794 0.0
H411 H 0.50637 0.4048 0.05639 0.0
H412 H 0.55626 0.41552 0.0548 0.0
H413 H 0.39159 0.53502 0.9733 0.0
H414 H 0.53153 0.62367 0.96386 0.0
N415 N 0.4548 0.50532 0.98381 0.0
C416 C 0.39821 0.49096 0.97986 0.0
C417 C 0.40561 0.47064 0.98222 0.0
C418 C 0.41954 0.5186 0.97853 0.0
C419 C 0.44801 0.52517 0.98044 0.0
C420 C 0.43418 0.4782 0.98386 0.0
N421 N 0.49678 0.55691 0.97808 0.0
C422 C 0.46973 0.55184 0.97739 0.0
C423 C 0.51396 0.6036 0.96773 0.0
C424 C 0.48631 0.59904 0.96785 0.0
C425 C 0.51883 0.5821 0.9727 0.0
C426 C 0.46372 0.57281 0.97242 0.0
H427 H 0.48258 0.6157 0.96394 0.0
O428 O 0.52495 0.53113 0.95817 0.0
O429 O 0.53749 0.51759 0.00321 0.0
O430 O 0.53994 0.55216 0.03074 0.0
O431 O 0.5078 0.55275 0.00809 0.0
O432 O 0.55059 0.54907 0.98296 0.0
O433 O 0.48713 0.49129 0.96194 0.0
O434 O 0.50662 0.49404 0.06392 0.0
O435 O 0.49307 0.50874 0.0188 0.0
O436 O 0.48867 0.47453 0.9919 0.0
O437 O 0.52117 0.47338 0.01389 0.0
O438 O 0.48075 0.47742 0.03937 0.0
O439 O 0.54284 0.53503 0.06046 0.0
C440 C 0.55917 0.53737 0.9954 0.0
C441 C 0.43541 0.56669 0.97154 0.0
C442 C 0.41334 0.53962 0.97461 0.0
C443 C 0.50617 0.50853 0.94947 0.0
C444 C 0.49583 0.51194 0.93006 0.0
C445 C 0.47464 0.5191 0.92896 0.0
C446 C 0.5075 0.5083 0.91239 0.0
C447 C 0.49799 0.51165 0.89364 0.0
C448 C 0.46524 0.52265 0.91048 0.0
C449 C 0.47679 0.51897 0.89293 0.0
C450 C 0.52642 0.56399 0.0227 0.0
C451 C 0.47174 0.48866 0.02683 0.0
C452 C 0.52459 0.5168 0.07284 0.0
C453 C 0.53589 0.51362 0.09192 0.0
C454 C 0.55658 0.50576 0.09232 0.0
C455 C 0.52567 0.51818 0.10994 0.0
C456 C 0.53607 0.51494 0.12837 0.0
C457 C 0.56683 0.5023 0.11046 0.0
C458 C 0.55667 0.5068 0.12837 0.0
C459 C 0.50136 0.46198 1.00004 0.0
H460 H 0.46536 0.52194 0.94234 0.0
H461 H 0.52366 0.50246 0.91329 0.0
H462 H 0.44896 0.5283 0.90976 0.0
H463 H 0.4693 0.52213 0.87879 0.0
H464 H 0.56479 0.50228 0.07866 0.0
H465 H 0.50996 0.52464 0.10957 0.0
H466 H 0.58269 0.49607 0.11064 0.0
H467 H 0.56479 0.50365 0.14224 0.0
Gd468 Gd 0.17839 0.3537 0.37207 0.0
Gd469 Gd 0.15466 0.31915 0.32275 0.0
C470 C 0.06794 0.24216 0.3144 0.0
C471 C 0.08065 0.20718 0.30732 0.0
C472 C 0.11734 0.25465 0.31311 0.0
C473 C 0.09694 0.262 0.31613 0.0
C474 C 0.10949 0.22733 0.30812 0.0
C475 C 0.0599 0.21459 0.31049 0.0
C476 C 0.04798 0.25079 0.31607 0.0
C477 C 0.05719 0.27873 0.31863 0.0
N478 N 0.10552 0.28888 0.31962 0.0
C479 C 0.08621 0.29765 0.3201 0.0
H480 H 0.09295 0.31913 0.32215 0.0
C481 C 0.1658 0.2693 0.3081 0.0
N482 N 0.14494 0.27471 0.31373 0.0
C483 C 0.15912 0.24249 0.30312 0.0
C484 C 0.13086 0.22131 0.30341 0.0
H485 H 0.18769 0.28557 0.30797 0.0
H486 H 0.03772 0.19899 0.30932 0.0
H487 H 0.24049 0.35464 0.37368 0.0
H488 H 0.0255 0.23619 0.31491 0.0
H489 H 0.04196 0.28572 0.31955 0.0
H490 H 0.07417 0.186 0.30372 0.0
H491 H 0.14411 0.38583 0.38735 0.0
H492 H 0.30691 0.43779 0.38211 0.0
H493 H 0.29125 0.3885 0.37715 0.0
H494 H 0.2566 0.48635 0.39355 0.0
H495 H 0.17575 0.23816 0.29911 0.0
H496 H 0.12571 0.20057 0.29948 0.0
H497 H 0.29377 0.47433 0.38792 0.0
H498 H 0.15503 0.43261 0.39716 0.0
N499 N 0.22732 0.38447 0.37587 0.0
C500 C 0.28454 0.42301 0.38052 0.0
C501 C 0.27578 0.3952 0.37779 0.0
C502 C 0.26423 0.43123 0.38196 0.0
C503 C 0.2354 0.41115 0.37969 0.0
C504 C 0.2469 0.37604 0.37582 0.0
N505 N 0.18717 0.39757 0.38184 0.0
C506 C 0.2146 0.41794 0.38282 0.0
C507 C 0.17199 0.4288 0.39307 0.0
C508 C 0.20009 0.45032 0.39317 0.0
C509 C 0.16589 0.40233 0.38754 0.0
C510 C 0.22187 0.44495 0.38833 0.0
H511 H 0.20478 0.47079 0.39751 0.0
O512 O 0.15644 0.34409 0.40063 0.0
O513 O 0.1442 0.3199 0.35461 0.0
O514 O 0.14257 0.35205 0.32803 0.0
O515 O 0.17416 0.38307 0.35143 0.0
O516 O 0.13143 0.33836 0.37546 0.0
O517 O 0.19185 0.33733 0.39634 0.0
O518 O 0.17691 0.32848 0.29434 0.0
O519 O 0.18908 0.35313 0.34011 0.0
O520 O 0.19117 0.32138 0.36647 0.0
O521 O 0.15896 0.28998 0.34358 0.0
O522 O 0.20134 0.33382 0.31938 0.0
O523 O 0.14064 0.33407 0.29785 0.0
C524 C 0.1227 0.31902 0.36237 0.0
C525 C 0.25057 0.4654 0.38955 0.0
C526 C 0.27173 0.45855 0.38634 0.0
C527 C 0.17336 0.33691 0.40893 0.0
C528 C 0.18412 0.34839 0.42884 0.0
C529 C 0.20418 0.37637 0.43111 0.0
C530 C 0.17447 0.33119 0.44573 0.0
C531 C 0.18497 0.34185 0.46486 0.0
C532 C 0.21453 0.38711 0.44998 0.0
C533 C 0.20506 0.37005 0.46674 0.0
C534 C 0.15573 0.37662 0.33671 0.0
C535 C 0.2103 0.35331 0.33237 0.0
C536 C 0.15947 0.33457 0.28554 0.0
C537 C 0.14902 0.32189 0.26587 0.0
C538 C 0.13029 0.29349 0.26428 0.0
C539 C 0.15788 0.33821 0.24851 0.0
C540 C 0.14793 0.32618 0.2296 0.0
C541 C 0.1206 0.2814 0.24566 0.0
C542 C 0.12933 0.29753 0.22844 0.0
C543 C 0.17749 0.29655 0.35823 0.0
H544 H 0.21185 0.38988 0.41833 0.0
H545 H 0.15917 0.30949 0.44391 0.0
H546 H 0.22994 0.40876 0.45163 0.0
H547 H 0.21324 0.37903 0.48123 0.0
H548 H 0.12318 0.28065 0.2774 0.0
H549 H 0.17209 0.36023 0.24978 0.0
H550 H 0.10627 0.25941 0.24456 0.0
H551 H 0.12168 0.2875 0.21417 0.0
Gd552 Gd 0.65626 0.8265 0.36891 0.0
Gd553 Gd 0.69488 0.8333 0.32175 0.0
C554 C 0.77232 0.82215 0.32053 0.0
C555 C 0.81015 0.86821 0.31209 0.0
C556 C 0.76159 0.85865 0.31516 0.0
C557 C 0.75272 0.8316 0.32006 0.0
C558 C 0.79026 0.87708 0.31054 0.0
C559 C 0.80119 0.84079 0.3171 0.0
C560 C 0.76217 0.79409 0.32374 0.0
C561 C 0.73305 0.77609 0.3256 0.0
N562 N 0.7246 0.81407 0.32293 0.0
C563 C 0.71443 0.78643 0.32487 0.0
H564 H 0.69198 0.7723 0.3264 0.0
C565 C 0.74871 0.89153 0.30576 0.0
N566 N 0.74175 0.86636 0.31348 0.0
C567 C 0.7769 0.9106 0.30104 0.0
C568 C 0.79786 0.9035 0.30375 0.0
H569 H 0.73256 0.89711 0.30375 0.0
H570 H 0.81662 0.83399 0.31765 0.0
H571 H 0.6564 0.88637 0.36623 0.0
H572 H 0.77654 0.78602 0.32428 0.0
H573 H 0.72492 0.75426 0.32767 0.0
H574 H 0.83234 0.88215 0.30882 0.0
H575 H 0.62136 0.76214 0.38646 0.0
H576 H 0.57093 0.86951 0.3713 0.0
H577 H 0.62205 0.90273 0.36697 0.0
H578 H 0.51891 0.77298 0.38607 0.0
H579 H 0.78245 0.93075 0.29537 0.0
H580 H 0.81966 0.91826 0.30001 0.0
H581 H 0.53244 0.82084 0.37801 0.0
H582 H 0.57251 0.72726 0.396 0.0
N583 N 0.62505 0.84408 0.36943 0.0
C584 C 0.58592 0.86216 0.37094 0.0
C585 C 0.61476 0.88099 0.36856 0.0
C586 C 0.5769 0.83422 0.37358 0.0
C587 C 0.59728 0.82575 0.3729 0.0
C588 C 0.63418 0.87159 0.36812 0.0
N589 N 0.6103 0.79212 0.37808 0.0
C590 C 0.58966 0.79888 0.37743 0.0
C591 C 0.577 0.74727 0.39069 0.0
C592 C 0.55522 0.75342 0.3891 0.0
C593 C 0.60465 0.76708 0.3853 0.0
C594 C 0.56148 0.77965 0.38273 0.0
H595 H 0.53384 0.73808 0.39335 0.0
O596 O 0.66435 0.81668 0.3986 0.0
O597 O 0.69223 0.82547 0.35422 0.0
O598 O 0.65849 0.78937 0.3271 0.0
O599 O 0.62628 0.79213 0.34874 0.0
O600 O 0.67101 0.79601 0.37564 0.0
O601 O 0.66949 0.85692 0.39253 0.0
O602 O 0.68897 0.84405 0.29175 0.0
O603 O 0.65923 0.83491 0.33642 0.0
O604 O 0.69101 0.87082 0.3628 0.0
O605 O 0.72397 0.86861 0.34164 0.0
O606 O 0.6806 0.86395 0.31454 0.0
O607 O 0.68251 0.80332 0.29788 0.0
C608 C 0.69217 0.80592 0.36347 0.0
C609 C 0.54075 0.78754 0.38227 0.0
C610 C 0.54845 0.81479 0.37768 0.0
C611 C 0.6693 0.84014 0.40606 0.0
C612 C 0.65471 0.83856 0.42487 0.0
C613 C 0.62656 0.83288 0.42512 0.0
C614 C 0.66899 0.84202 0.44291 0.0
C615 C 0.65524 0.8396 0.46121 0.0
C616 C 0.61274 0.83036 0.44321 0.0
C617 C 0.62691 0.83359 0.4612 0.0
C618 C 0.6327 0.77918 0.33494 0.0
C619 C 0.65976 0.8546 0.32698 0.0
C620 C 0.68428 0.82069 0.28424 0.0
C621 C 0.70051 0.82262 0.26616 0.0
C622 C 0.72763 0.82573 0.26736 0.0
C623 C 0.68886 0.82188 0.24743 0.0
C624 C 0.70423 0.82444 0.22984 0.0
C625 C 0.74312 0.8285 0.25005 0.0
C626 C 0.73159 0.82795 0.23139 0.0
C627 C 0.71691 0.88147 0.3551 0.0
H628 H 0.61527 0.83035 0.4114 0.0
H629 H 0.69069 0.84617 0.4427 0.0
H630 H 0.59099 0.82593 0.4433 0.0
H631 H 0.61589 0.83181 0.47508 0.0
H632 H 0.73684 0.82596 0.28158 0.0
H633 H 0.66763 0.81886 0.24661 0.0
H634 H 0.76413 0.83108 0.25111 0.0
H635 H 0.74416 0.83041 0.2182 0.0
Gd636 Gd 0.17482 0.85253 0.32327 0.0
Gd637 Gd 0.19402 0.8405 0.37309 0.0
C638 C 0.28103 0.89675 0.40065 0.0
C639 C 0.30954 0.8788 0.38634 0.0
C640 C 0.25942 0.85766 0.37832 0.0
C641 C 0.25736 0.87691 0.38989 0.0
C642 C 0.28535 0.85784 0.37691 0.0
C643 C 0.30738 0.89825 0.39822 0.0
C644 C 0.27712 0.91342 0.41436 0.0
C645 C 0.24983 0.9088 0.41796 0.0
N646 N 0.23152 0.87446 0.3922 0.0
C647 C 0.22703 0.88853 0.40711 0.0
H648 H 0.20581 0.88435 0.41031 0.0
C649 C 0.23575 0.81588 0.36045 0.0
N650 N 0.23556 0.83759 0.36958 0.0
C651 C 0.26089 0.81499 0.3588 0.0
C652 C 0.28594 0.83636 0.36671 0.0
H653 H 0.21678 0.79932 0.35406 0.0
H654 H 0.32591 0.91361 0.40612 0.0
H655 H 0.11498 0.79144 0.32418 0.0
H656 H 0.29473 0.92887 0.42295 0.0
H657 H 0.24629 0.92059 0.42923 0.0
H658 H 0.32973 0.87953 0.38517 0.0
H659 H 0.20394 0.91703 0.30643 0.0
H660 H 0.0445 0.80463 0.31875 0.0
H661 H 0.06343 0.77293 0.32226 0.0
H662 H 0.0886 0.90204 0.30818 0.0
H663 H 0.26097 0.79798 0.35122 0.0
H664 H 0.30542 0.83572 0.3653 0.0
H665 H 0.0541 0.85309 0.31418 0.0
H666 H 0.18954 0.95148 0.29873 0.0
N667 N 0.12533 0.83329 0.32181 0.0
C668 C 0.06719 0.81288 0.31947 0.0
C669 C 0.07781 0.79492 0.32139 0.0
C670 C 0.08604 0.84122 0.31793 0.0
C671 C 0.11538 0.85087 0.31896 0.0
C672 C 0.1071 0.80553 0.32247 0.0
N673 N 0.16257 0.88615 0.31523 0.0
C674 C 0.13468 0.87831 0.31577 0.0
C675 C 0.17391 0.93106 0.30371 0.0
C676 C 0.14551 0.9239 0.30566 0.0
C677 C 0.182 0.91158 0.30807 0.0
C678 C 0.12535 0.89702 0.31122 0.0
H679 H 0.13922 0.93891 0.30204 0.0
O680 O 0.198 0.86678 0.29523 0.0
O681 O 0.20695 0.84807 0.34109 0.0
O682 O 0.21033 0.88621 0.36951 0.0
O683 O 0.18496 0.88954 0.34244 0.0
O684 O 0.22169 0.88228 0.3226 0.0
O685 O 0.16015 0.827 0.29672 0.0
O686 O 0.18827 0.80522 0.3903 0.0
O687 O 0.15831 0.83447 0.3533 0.0
O688 O 0.16639 0.80907 0.3246 0.0
O689 O 0.17287 0.79942 0.35733 0.0
O690 O 0.16073 0.8512 0.38143 0.0
O691 O 0.17215 0.83065 0.4017 0.0
C692 C 0.2291 0.86925 0.33475 0.0
C693 C 0.0962 0.88792 0.31138 0.0
C694 C 0.07655 0.86004 0.31474 0.0
C695 C 0.17993 0.84522 0.28528 0.0
C696 C 0.17069 0.85026 0.26595 0.0
C697 C 0.15134 0.85978 0.26499 0.0
C698 C 0.18079 0.84481 0.24822 0.0
C699 C 0.1715 0.84867 0.22954 0.0
C700 C 0.14234 0.86403 0.24657 0.0
C701 C 0.15228 0.8585 0.22895 0.0
C702 C 0.20124 0.89975 0.35837 0.0
C703 C 0.14635 0.8432 0.36517 0.0
C704 C 0.17796 0.81138 0.40573 0.0
C705 C 0.19129 0.81326 0.42536 0.0
C706 C 0.21249 0.80612 0.42733 0.0
C707 C 0.18319 0.82273 0.44227 0.0
C708 C 0.19633 0.8254 0.46087 0.0
C709 C 0.22533 0.80842 0.44572 0.0
C710 C 0.21738 0.81795 0.46236 0.0
C711 C 0.16562 0.79215 0.33857 0.0
H712 H 0.14303 0.86373 0.27842 0.0
H713 H 0.19535 0.83696 0.249 0.0
H714 H 0.12749 0.87149 0.24595 0.0
H715 H 0.14504 0.86207 0.21484 0.0
H716 H 0.21927 0.79883 0.41466 0.0
H717 H 0.1671 0.82859 0.44083 0.0
H718 H 0.24158 0.8028 0.44709 0.0
H719 H 0.22757 0.81923 0.47647 0.0
Gd720 Gd 0.84689 0.69041 0.70635 0.0
Gd721 Gd 0.82453 0.65563 0.6572 0.0
C722 C 0.73917 0.57715 0.6486 0.0
C723 C 0.75336 0.54315 0.64192 0.0
C724 C 0.78896 0.59103 0.64765 0.0
C725 C 0.76793 0.5976 0.65046 0.0
C726 C 0.78198 0.56388 0.64283 0.0
C727 C 0.73198 0.54977 0.64482 0.0
C728 C 0.71857 0.58501 0.64997 0.0
C729 C 0.72695 0.61279 0.65235 0.0
N730 N 0.77567 0.62431 0.65385 0.0
C731 C 0.75577 0.63232 0.65399 0.0
H732 H 0.76188 0.65368 0.65591 0.0
C733 C 0.83776 0.60696 0.64296 0.0
N734 N 0.81631 0.61164 0.64835 0.0
C735 C 0.83195 0.58034 0.63821 0.0
C736 C 0.80395 0.55861 0.63842 0.0
H737 H 0.85945 0.62369 0.6429 0.0
H738 H 0.71 0.53372 0.64356 0.0
H739 H 0.9111 0.69581 0.70644 0.0
H740 H 0.69624 0.56993 0.64868 0.0
H741 H 0.71123 0.61917 0.65301 0.0
H742 H 0.74755 0.52209 0.63844 0.0
H743 H 0.80967 0.71914 0.72273 0.0
H744 H 0.97391 0.78067 0.71342 0.0
H745 H 0.96124 0.73207 0.70868 0.0
H746 H 0.91871 0.82388 0.72659 0.0
H747 H 0.84905 0.57659 0.63444 0.0
H748 H 0.79948 0.53803 0.63465 0.0
H749 H 0.95781 0.81492 0.71983 0.0
H750 H 0.8179 0.76502 0.73255 0.0
N751 N 0.89534 0.72354 0.70918 0.0
C752 C 0.95182 0.76481 0.71239 0.0
C753 C 0.94475 0.7374 0.70979 0.0
C754 C 0.93024 0.77126 0.71444 0.0
C755 C 0.90184 0.74984 0.71289 0.0
C756 C 0.91623 0.71686 0.70854 0.0
N757 N 0.85307 0.73335 0.71624 0.0
C758 C 0.87996 0.75491 0.71664 0.0
C759 C 0.83554 0.76249 0.728 0.0
C760 C 0.86298 0.78518 0.72754 0.0
C761 C 0.83096 0.73652 0.72245 0.0
C762 C 0.88569 0.78149 0.72211 0.0
H763 H 0.86649 0.80526 0.73188 0.0
O764 O 0.82471 0.67903 0.73483 0.0
O765 O 0.81349 0.65552 0.68904 0.0
O766 O 0.81115 0.68784 0.66191 0.0
O767 O 0.84125 0.71902 0.68588 0.0
O768 O 0.7997 0.67361 0.70952 0.0
O769 O 0.86309 0.67709 0.73089 0.0
O770 O 0.84716 0.66528 0.62895 0.0
O771 O 0.85788 0.69044 0.67444 0.0
O772 O 0.86196 0.65971 0.70089 0.0
O773 O 0.83057 0.62752 0.67804 0.0
O774 O 0.87175 0.67231 0.65404 0.0
O775 O 0.80986 0.66936 0.63197 0.0
C776 C 0.79162 0.65416 0.69658 0.0
C777 C 0.91387 0.80324 0.72264 0.0
C778 C 0.93613 0.79813 0.71878 0.0
C779 C 0.84359 0.67474 0.74337 0.0
C780 C 0.85339 0.68737 0.76313 0.0
C781 C 0.8732 0.71551 0.76486 0.0
C782 C 0.84285 0.67117 0.78045 0.0
C783 C 0.85221 0.68299 0.79947 0.0
C784 C 0.88239 0.7274 0.78361 0.0
C785 C 0.87203 0.71133 0.8008 0.0
C786 C 0.82346 0.71235 0.67073 0.0
C787 C 0.87982 0.69194 0.66686 0.0
C788 C 0.82931 0.67061 0.61992 0.0
C789 C 0.81978 0.65811 0.60012 0.0
C790 C 0.80117 0.62972 0.59816 0.0
C791 C 0.8299 0.67465 0.58294 0.0
C792 C 0.82179 0.66284 0.56382 0.0
C793 C 0.79296 0.6179 0.57928 0.0
C794 C 0.80323 0.63427 0.56221 0.0
C795 C 0.84991 0.63514 0.69222 0.0
H796 H 0.8816 0.72827 0.75175 0.0
H797 H 0.82776 0.64935 0.77906 0.0
H798 H 0.8976 0.74917 0.78483 0.0
H799 H 0.87934 0.72118 0.81517 0.0
H800 H 0.79308 0.61671 0.61117 0.0
H801 H 0.84445 0.69658 0.58447 0.0
H802 H 0.77858 0.59596 0.57788 0.0
H803 H 0.79633 0.62462 0.54774 0.0
Gd804 Gd 0.32574 0.15414 0.70052 0.0
Gd805 Gd 0.36601 0.16541 0.65359 0.0
C806 C 0.44913 0.16419 0.65165 0.0
C807 C 0.48328 0.21183 0.64364 0.0
C808 C 0.43324 0.19711 0.64693 0.0
C809 C 0.42728 0.17073 0.65153 0.0
C810 C 0.46119 0.2178 0.64241 0.0
C811 C 0.47726 0.18506 0.64827 0.0
C812 C 0.44191 0.1367 0.65434 0.0
C813 C 0.41342 0.11641 0.656 0.0
N814 N 0.3998 0.15097 0.65426 0.0
C815 C 0.39249 0.1239 0.6556 0.0
H816 H 0.37056 0.10802 0.65693 0.0
C817 C 0.41557 0.2266 0.63836 0.0
N818 N 0.41134 0.20201 0.64555 0.0
C819 C 0.44293 0.24782 0.63375 0.0
C820 C 0.46591 0.24354 0.63606 0.0
H821 H 0.39787 0.23002 0.63666 0.0
H822 H 0.49438 0.18051 0.64855 0.0
H823 H 0.32286 0.2126 0.69909 0.0
H824 H 0.45807 0.13083 0.65459 0.0
H825 H 0.40754 0.095 0.65763 0.0
H826 H 0.50495 0.22753 0.64044 0.0
H827 H 0.29207 0.08832 0.71517 0.0
H828 H 0.23594 0.19165 0.70189 0.0
H829 H 0.28678 0.22676 0.69947 0.0
H830 H 0.1867 0.09403 0.71248 0.0
H831 H 0.44628 0.26746 0.62847 0.0
H832 H 0.48707 0.25998 0.63241 0.0
H833 H 0.19865 0.14193 0.70634 0.0
H834 H 0.24304 0.05101 0.72183 0.0
N835 N 0.29286 0.16973 0.70093 0.0
C836 C 0.25171 0.18528 0.70178 0.0
C837 C 0.28039 0.20516 0.70047 0.0
C838 C 0.2438 0.15748 0.70358 0.0
C839 C 0.26518 0.15031 0.70331 0.0
C840 C 0.30081 0.19701 0.70026 0.0
N841 N 0.27987 0.11778 0.70776 0.0
C842 C 0.25845 0.12343 0.70681 0.0
C843 C 0.24706 0.07125 0.71753 0.0
C844 C 0.22461 0.0764 0.71565 0.0
C845 C 0.27478 0.09241 0.71381 0.0
C846 C 0.23018 0.10287 0.71058 0.0
H847 H 0.20317 0.06001 0.71865 0.0
O848 O 0.33263 0.14272 0.72999 0.0
O849 O 0.36352 0.15643 0.68599 0.0
O850 O 0.33296 0.12003 0.6586 0.0
O851 O 0.29842 0.11997 0.67928 0.0
O852 O 0.34282 0.12541 0.70658 0.0
O853 O 0.3366 0.18278 0.72516 0.0
O854 O 0.35916 0.17533 0.62357 0.0
O855 O 0.32874 0.16351 0.66836 0.0
O856 O 0.3591 0.19951 0.69578 0.0
O857 O 0.39332 0.20052 0.67414 0.0
O858 O 0.34755 0.19312 0.64678 0.0
O859 O 0.35576 0.13579 0.62972 0.0
C860 C 0.36439 0.13702 0.6948 0.0
C861 C 0.2086 0.10959 0.70982 0.0
C862 C 0.2154 0.13687 0.70633 0.0
C863 C 0.33649 0.16544 0.73817 0.0
C864 C 0.32101 0.16224 0.75683 0.0
C865 C 0.29208 0.15386 0.75682 0.0
C866 C 0.33535 0.1669 0.77498 0.0
C867 C 0.32091 0.16302 0.79317 0.0
C868 C 0.27758 0.14995 0.77482 0.0
C869 C 0.29184 0.15438 0.79293 0.0
C870 C 0.30676 0.10806 0.66594 0.0
C871 C 0.3269 0.18223 0.65936 0.0
C872 C 0.35634 0.15263 0.61607 0.0
C873 C 0.37328 0.15581 0.59812 0.0
C874 C 0.40105 0.16058 0.59953 0.0
C875 C 0.36161 0.15444 0.57928 0.0
C876 C 0.37757 0.15798 0.56184 0.0
C877 C 0.41711 0.16436 0.58236 0.0
C878 C 0.40554 0.16314 0.5636 0.0
C879 C 0.38508 0.2119 0.68799 0.0
H880 H 0.28072 0.15028 0.74299 0.0
H881 H 0.35766 0.17308 0.77493 0.0
H882 H 0.25524 0.14345 0.77473 0.0
H883 H 0.28024 0.15142 0.80672 0.0
H884 H 0.41032 0.16131 0.61381 0.0
H885 H 0.33993 0.15014 0.57827 0.0
H886 H 0.43859 0.16822 0.5836 0.0
H887 H 0.41853 0.16639 0.55051 0.0
Gd888 Gd 0.84231 0.18711 0.65631 0.0
Gd889 Gd 0.8695 0.17656 0.70423 0.0
C890 C 0.95566 0.18176 0.70934 0.0
C891 C 0.94222 0.13431 0.71664 0.0
C892 C 0.90607 0.14717 0.71233 0.0
C893 C 0.92675 0.17406 0.70863 0.0
C894 C 0.91354 0.12708 0.71684 0.0
C895 C 0.96325 0.16162 0.71288 0.0
C896 C 0.97603 0.20958 0.70699 0.0
C897 C 0.96736 0.22899 0.7047 0.0
N898 N 0.91862 0.19298 0.70543 0.0
C899 C 0.93843 0.22033 0.70421 0.0
H900 H 0.93211 0.23558 0.70234 0.0
C901 C 0.85773 0.11564 0.71881 0.0
N902 N 0.87866 0.14104 0.71268 0.0
C903 C 0.86403 0.09493 0.72326 0.0
C904 C 0.89202 0.10056 0.72202 0.0
H905 H 0.83603 0.11114 0.71967 0.0
H906 H 0.98534 0.16708 0.71326 0.0
H907 H 0.77882 0.12917 0.65576 0.0
H908 H 0.99845 0.21634 0.70736 0.0
H909 H 0.98294 0.25062 0.70322 0.0
H910 H 0.94839 0.11912 0.71988 0.0
H911 H 0.87827 0.25338 0.64267 0.0
H912 H 0.7145 0.15117 0.65043 0.0
H913 H 0.72838 0.11557 0.65373 0.0
H914 H 0.76761 0.24893 0.64072 0.0
H915 H 0.8473 0.07465 0.72762 0.0
H916 H 0.89687 0.08453 0.72557 0.0
H917 H 0.72936 0.2011 0.6459 0.0
H918 H 0.86879 0.29116 0.63525 0.0
N919 N 0.79358 0.17215 0.65421 0.0
C920 C 0.73673 0.15728 0.65133 0.0
C921 C 0.74448 0.13713 0.65313 0.0
C922 C 0.75781 0.18501 0.65003 0.0
C923 C 0.78643 0.19185 0.65136 0.0
C924 C 0.77317 0.14495 0.65428 0.0
N925 N 0.83502 0.22399 0.64841 0.0
C926 C 0.80785 0.21865 0.64831 0.0
C927 C 0.85146 0.27089 0.63897 0.0
C928 C 0.8237 0.26601 0.63968 0.0
C929 C 0.85674 0.24943 0.64312 0.0
C930 C 0.80142 0.23953 0.64407 0.0
H931 H 0.81964 0.28263 0.63637 0.0
O932 O 0.86193 0.19829 0.62701 0.0
O933 O 0.87741 0.18557 0.67191 0.0
O934 O 0.88248 0.22143 0.69828 0.0
O935 O 0.84742 0.22008 0.67774 0.0
O936 O 0.88931 0.21596 0.65084 0.0
O937 O 0.82538 0.1578 0.63191 0.0
O938 O 0.8497 0.16572 0.7335 0.0
O939 O 0.83399 0.17709 0.6885 0.0
O940 O 0.82828 0.14203 0.66208 0.0
O941 O 0.86184 0.14179 0.68359 0.0
O942 O 0.82287 0.14711 0.71001 0.0
O943 O 0.88628 0.20609 0.72853 0.0
C944 C 0.89861 0.20485 0.66324 0.0
C945 C 0.77299 0.23313 0.64378 0.0
C946 C 0.75121 0.2059 0.64674 0.0
C947 C 0.84318 0.17516 0.61888 0.0
C948 C 0.83115 0.17752 0.59989 0.0
C949 C 0.80934 0.18388 0.59957 0.0
C950 C 0.84184 0.17368 0.58183 0.0
C951 C 0.83074 0.17605 0.56346 0.0
C952 C 0.79832 0.18639 0.58147 0.0
C953 C 0.80889 0.18251 0.56351 0.0
C954 C 0.86804 0.23266 0.69086 0.0
C955 C 0.81316 0.15749 0.69731 0.0
C956 C 0.86834 0.18891 0.74158 0.0
C957 C 0.88017 0.18668 0.76071 0.0
C958 C 0.90151 0.17969 0.76123 0.0
C959 C 0.86967 0.1911 0.77867 0.0
C960 C 0.88046 0.18862 0.79716 0.0
C961 C 0.91219 0.17702 0.77944 0.0
C962 C 0.90177 0.1814 0.79729 0.0
C963 C 0.84138 0.12983 0.67021 0.0
H964 H 0.80084 0.18691 0.61326 0.0
H965 H 0.85851 0.16849 0.58213 0.0
H966 H 0.78155 0.19141 0.58135 0.0
H967 H 0.80017 0.18488 0.54966 0.0
H968 H 0.90987 0.17624 0.74761 0.0
H969 H 0.8534 0.19681 0.77819 0.0
H970 H 0.92856 0.17147 0.77973 0.0
H971 H 0.91022 0.17884 0.8112 0.0
H972 H 0.31363 0.82563 0.05099 0.0
H973 H 0.4077 0.98913 0.03592 0.0
H974 H 0.28694 0.88329 0.06833 0.0
H975 H 0.44042 0.93394 0.02783 0.0
H976 H 0.36087 0.94956 0.04303 0.0
H977 H 0.3576 0.86398 0.0375 0.0
C978 C 0.31686 0.84631 0.05175 0.0
C979 C 0.29669 0.85129 0.06099 0.0
C980 C 0.37818 0.94602 0.03947 0.0
C981 C 0.347 0.89525 0.04572 0.0
C982 C 0.40485 0.96858 0.03537 0.0
C983 C 0.42776 0.96472 0.03096 0.0
C984 C 0.37444 0.91934 0.03946 0.0
C985 C 0.42315 0.93775 0.03074 0.0
C986 C 0.34203 0.86819 0.04416 0.0
C987 C 0.3021 0.87853 0.06166 0.0
N988 N 0.39701 0.91606 0.03497 0.0
N989 N 0.32674 0.89944 0.05423 0.0
H990 H 0.13469 0.41076 0.06765 0.0
H991 H 0.08078 0.51334 0.03267 0.0
H992 H 0.19181 0.49703 0.05646 0.0
H993 H 0.02575 0.42679 0.0439 0.0
H994 H 0.12195 0.50795 0.03932 0.0
H995 H 0.09518 0.41611 0.05651 0.0
C996 C 0.13892 0.43086 0.06269 0.0
C997 C 0.16658 0.45355 0.06319 0.0
C998 C 0.10091 0.49008 0.04017 0.0
C999 C 0.12113 0.45996 0.05048 0.0
C1000 C 0.07739 0.49311 0.03622 0.0
C1001 C 0.04984 0.47028 0.03711 0.0
C1002 C 0.09684 0.46406 0.04536 0.0
C1003 C 0.04665 0.4448 0.04267 0.0
C1004 C 0.11631 0.43392 0.05633 0.0
C1005 C 0.17084 0.47901 0.05631 0.0
N1006 N 0.06981 0.44235 0.04647 0.0
N1007 N 0.14831 0.4816 0.05044 0.0
H1008 H 0.56514 0.70186 0.09908 0.0
H1009 H 0.50366 0.59553 0.01054 0.0
H1010 H 0.55296 0.72713 0.04081 0.0
H1011 H 0.56176 0.5938 0.05338 0.0
H1012 H 0.51376 0.64014 0.02371 0.0
H1013 H 0.55585 0.65812 0.08492 0.0
C1014 C 0.56077 0.69844 0.08328 0.0
C1015 C 0.56038 0.71864 0.07109 0.0
C1016 C 0.52439 0.63 0.03007 0.0
C1017 C 0.54864 0.66795 0.05503 0.0
C1018 C 0.51882 0.60461 0.0225 0.0
C1019 C 0.53233 0.59105 0.03053 0.0
C1020 C 0.54294 0.64154 0.04621 0.0
C1021 C 0.551 0.60351 0.04656 0.0
C1022 C 0.55529 0.67333 0.07528 0.0
C1023 C 0.55335 0.71225 0.05086 0.0
N1024 N 0.55559 0.62797 0.05398 0.0
N1025 N 0.54767 0.6874 0.04347 0.0
H1026 H 0.8536 0.30868 0.93133 0.0
H1027 H 0.91122 0.41104 0.02209 0.0
H1028 H 0.82801 0.27698 0.99115 0.0
H1029 H 0.96649 0.4149 0.97439 0.0
H1030 H 0.87442 0.36629 0.00951 0.0
H1031 H 0.88878 0.35283 0.94529 0.0
C1032 C 0.85531 0.3108 0.94739 0.0
C1033 C 0.83805 0.28854 0.96002 0.0
C1034 C 0.89473 0.37698 1.00196 0.0
C1035 C 0.87772 0.33977 0.976 0.0
C1036 C 0.91585 0.40245 0.00918 0.0
C1037 C 0.94235 0.41668 0.9996 0.0
C1038 C 0.89979 0.36612 0.98461 0.0
C1039 C 0.9466 0.40471 0.98246 0.0
C1040 C 0.87534 0.33615 0.9553 0.0
C1041 C 0.84064 0.29335 0.98074 0.0
N1042 N 0.92547 0.3803 0.97541 0.0
N1043 N 0.86012 0.31846 0.98809 0.0
H1044 H 0.73281 0.59676 0.96096 0.0
H1045 H 0.57236 0.49584 0.99584 0.0
H1046 H 0.69894 0.50973 0.97008 0.0
H1047 H 0.6094 0.5834 0.98778 0.0
H1048 H 0.61873 0.50022 0.98879 0.0
H1049 H 0.6885 0.5922 0.97323 0.0
C1050 C 0.71603 0.57665 0.96565 0.0
C1051 C 0.71954 0.55354 0.96426 0.0
C1052 C 0.61679 0.51852 0.98876 0.0
C1053 C 0.66828 0.54805 0.97835 0.0
C1054 C 0.59036 0.51604 0.99291 0.0
C1055 C 0.58722 0.53942 0.99286 0.0
C1056 C 0.64014 0.54451 0.98419 0.0
C1057 C 0.61101 0.56493 0.98826 0.0
C1058 C 0.69067 0.57404 0.9727 0.0
C1059 C 0.69717 0.52809 0.9709 0.0
N1060 N 0.63638 0.56679 0.98416 0.0
N1061 N 0.67239 0.52596 0.97745 0.0
H1062 H 0.49341 0.19643 0.97048 0.0
H1063 H 0.44545 0.03683 0.97963 0.0
H1064 H 0.41326 0.13021 0.9495 0.0
H1065 H 0.51997 0.10108 0.00866 0.0
H1066 H 0.4344 0.07129 0.96765 0.0
H1067 H 0.50429 0.16233 0.98417 0.0
C1068 C 0.47803 0.17476 0.96886 0.0
C1069 C 0.45246 0.16619 0.95869 0.0
C1070 C 0.45312 0.07789 0.97671 0.0
C1071 C 0.46493 0.12712 0.9741 0.0
C1072 C 0.45951 0.05819 0.98353 0.0
C1073 C 0.48362 0.06603 0.99527 0.0
C1074 C 0.47105 0.10574 0.9815 0.0
C1075 C 0.501 0.09407 0.99982 0.0
C1076 C 0.48432 0.15531 0.9766 0.0
C1077 C 0.43347 0.13781 0.95686 0.0
N1078 N 0.49441 0.11295 0.99288 0.0
N1079 N 0.44013 0.11934 0.96442 0.0
H1080 H 0.72102 0.11329 0.9705 0.0
H1081 H 0.56334 0.07637 1.00031 0.0
H1082 H 0.69654 0.17518 0.97592 0.0
H1083 H 0.59161 0.01726 0.99573 0.0
H1084 H 0.6122 0.11361 0.99407 0.0
H1085 H 0.67415 0.07861 0.98217 0.0
C1086 C 0.70573 0.11957 0.97425 0.0
C1087 C 0.71263 0.14708 0.97217 0.0
C1088 C 0.60776 0.09252 0.99467 0.0
C1089 C 0.65857 0.10735 0.98546 0.0
C1090 C 0.57995 0.07133 0.99839 0.0
C1091 C 0.57367 0.04381 0.99891 0.0
C1092 C 0.6292 0.086 0.99116 0.0
C1093 C 0.59571 0.03825 0.99568 0.0
C1094 C 0.67893 0.09975 0.98094 0.0
C1095 C 0.69205 0.15415 0.97729 0.0
N1096 N 0.62241 0.0591 0.99194 0.0
N1097 N 0.66582 0.13434 0.98358 0.0
H1098 H 0.82387 0.51004 0.98841 0.0
H1099 H 0.98866 0.5638 0.98251 0.0
H1100 H 0.8731 0.55126 0.93614 0.0
H1101 H 0.93247 0.48008 1.00114 0.0
H1102 H 0.94731 0.56779 0.97331 0.0
H1103 H 0.86471 0.50689 1.00135 0.0
C1104 C 0.84334 0.51871 0.97983 0.0
C1105 C 0.84526 0.53095 0.9612 0.0
C1106 C 0.9441 0.54872 0.97972 0.0
C1107 C 0.89167 0.52791 0.97594 0.0
C1108 C 0.9676 0.54641 0.98496 0.0
C1109 C 0.96399 0.52182 0.99309 0.0
C1110 C 0.9167 0.52636 0.98275 0.0
C1111 C 0.93619 0.49969 0.99553 0.0
C1112 C 0.86643 0.51675 0.98712 0.0
C1113 C 0.8708 0.54164 0.95054 0.0
N1114 N 0.91353 0.50254 0.99056 0.0
N1115 N 0.89307 0.54013 0.95813 0.0
H1116 H 0.48414 0.30137 0.97991 0.0
H1117 H 0.4537 0.42698 0.9792 0.0
H1118 H 0.40771 0.29613 0.95705 0.0
H1119 H 0.52737 0.43165 0.00696 0.0
H1120 H 0.43749 0.37936 0.97015 0.0
H1121 H 0.50106 0.34929 0.98952 0.0
C1122 C 0.47089 0.31029 0.97699 0.0
C1123 C 0.44448 0.29488 0.96769 0.0
C1124 C 0.45717 0.39074 0.97827 0.0
C1125 C 0.46371 0.34953 0.97849 0.0
C1126 C 0.46651 0.41802 0.9834 0.0
C1127 C 0.49181 0.4333 0.99404 0.0
C1128 C 0.47329 0.37858 0.9837 0.0
C1129 C 0.5075 0.42052 0.99903 0.0
C1130 C 0.48056 0.33762 0.98245 0.0
C1131 C 0.42819 0.30739 0.96421 0.0
N1132 N 0.49798 0.39387 0.99382 0.0
N1133 N 0.43808 0.33399 0.96957 0.0
H1134 H 0.16067 0.72228 0.04729 0.0
H1135 H 0.10485 0.56519 0.02611 0.0
H1136 H 0.19662 0.67907 0.07742 0.0
H1137 H 0.04445 0.59218 0.03709 0.0
H1138 H 0.14301 0.61031 0.03682 0.0
H1139 H 0.12164 0.67774 0.03542 0.0
C1140 C 0.16049 0.70345 0.05118 0.0
C1141 C 0.18185 0.70418 0.06324 0.0
C1142 C 0.12139 0.6063 0.03683 0.0
C1143 C 0.1379 0.65374 0.04958 0.0
C1144 C 0.09961 0.58064 0.0307 0.0
C1145 C 0.07139 0.57488 0.03087 0.0
C1146 C 0.11508 0.62664 0.04266 0.0
C1147 C 0.0659 0.59574 0.03693 0.0
C1148 C 0.1382 0.67818 0.04456 0.0
C1149 C 0.18053 0.67927 0.06811 0.0
N1150 N 0.08763 0.62088 0.04244 0.0
N1151 N 0.15908 0.65505 0.06108 0.0
H1152 H 0.29507 0.40961 0.05641 0.0
H1153 H 0.45282 0.52623 0.02622 0.0
H1154 H 0.31768 0.49457 0.04926 0.0
H1155 H 0.42424 0.43967 0.03163 0.0
H1156 H 0.40387 0.51616 0.03251 0.0
H1157 H 0.34227 0.42106 0.04541 0.0
C1158 C 0.31003 0.43075 0.0524 0.0
C1159 C 0.30239 0.45112 0.05379 0.0
C1160 C 0.4083 0.49937 0.0321 0.0
C1161 C 0.35715 0.4647 0.04126 0.0
C1162 C 0.43615 0.5051 0.02836 0.0
C1163 C 0.44239 0.48363 0.02804 0.0
C1164 C 0.38676 0.47206 0.03578 0.0
C1165 C 0.42025 0.45675 0.03152 0.0
C1166 C 0.33709 0.43733 0.0461 0.0
C1167 C 0.32269 0.4782 0.04838 0.0
N1168 N 0.39358 0.45177 0.03521 0.0
N1169 N 0.34926 0.48427 0.04247 0.0
H1170 H 0.52391 0.81882 0.0477 0.0
H1171 H 0.54472 0.96924 0.05741 0.0
H1172 H 0.54956 0.86583 0.10226 0.0
H1173 H 0.48641 0.91024 0.01495 0.0
H1174 H 0.55233 0.93345 0.07146 0.0
H1175 H 0.51524 0.85398 0.03287 0.0
C1176 C 0.52768 0.83651 0.05654 0.0
C1177 C 0.53749 0.83957 0.07621 0.0
C1178 C 0.53794 0.92839 0.05901 0.0
C1179 C 0.52802 0.87974 0.05934 0.0
C1180 C 0.53361 0.94884 0.05091 0.0
C1181 C 0.51505 0.94289 0.03479 0.0
C1182 C 0.52389 0.9018 0.05085 0.0
C1183 C 0.50125 0.91595 0.02712 0.0
C1184 C 0.52267 0.85647 0.0481 0.0
C1185 C 0.54197 0.86278 0.08704 0.0
N1186 N 0.50605 0.8964 0.03516 0.0
N1187 N 0.53742 0.88209 0.07842 0.0
H1188 H 0.95019 0.21205 0.39873 0.0
H1189 H 0.10849 0.2646 0.36079 0.0
H1190 H 0.98426 0.15792 0.39042 0.0
H1191 H 0.07307 0.3174 0.36972 0.0
H1192 H 0.062 0.22446 0.36802 0.0
H1193 H 0.9936 0.2499 0.38472 0.0
C1194 C 0.96682 0.20812 0.39389 0.0
C1195 C 0.96373 0.18186 0.396 0.0
C1196 C 0.06429 0.24478 0.36816 0.0
C1197 C 0.0137 0.22524 0.37987 0.0
C1198 C 0.09077 0.26767 0.36387 0.0
C1199 C 0.09441 0.29427 0.36428 0.0
C1200 C 0.04144 0.24861 0.37323 0.0
C1201 C 0.071 0.29718 0.36903 0.0
C1202 C 0.9916 0.22974 0.38581 0.0
C1203 C 0.98575 0.17784 0.38907 0.0
N1204 N 0.04556 0.27467 0.37335 0.0
N1205 N 0.00994 0.19937 0.38151 0.0
H1206 H 0.80139 0.74666 0.40576 0.0
H1207 H 0.74842 0.84648 0.36295 0.0
H1208 H 0.85914 0.83094 0.38909 0.0
H1209 H 0.69327 0.76017 0.37511 0.0
H1210 H 0.78939 0.84161 0.37164 0.0
H1211 H 0.76193 0.75139 0.39364 0.0
C1212 C 0.80577 0.76622 0.39951 0.0
C1213 C 0.83363 0.78854 0.39867 0.0
C1214 C 0.76837 0.82369 0.37226 0.0
C1215 C 0.78826 0.79417 0.38467 0.0
C1216 C 0.74498 0.82642 0.36718 0.0
C1217 C 0.71748 0.80348 0.36777 0.0
C1218 C 0.76417 0.79791 0.37834 0.0
C1219 C 0.71416 0.77824 0.37413 0.0
C1220 C 0.78319 0.76889 0.39252 0.0
C1221 C 0.83802 0.8132 0.39004 0.0
N1222 N 0.73718 0.77611 0.37909 0.0
N1223 N 0.81555 0.81545 0.38353 0.0
H1224 H 0.24351 0.07049 0.36902 0.0
H1225 H 0.19378 0.91367 0.39555 0.0
H1226 H 0.22957 0.03777 0.4288 0.0
H1227 H 0.22156 0.94739 0.33673 0.0
H1228 H 0.20384 0.95869 0.40739 0.0
H1229 H 0.23184 0.025 0.35606 0.0
C1230 C 0.23784 0.05368 0.37937 0.0
C1231 C 0.23774 0.05786 0.39999 0.0
C1232 C 0.20793 0.9564 0.39189 0.0
C1233 C 0.22448 0.00612 0.38539 0.0
C1234 C 0.20256 0.93076 0.38523 0.0
C1235 C 0.20752 0.92706 0.3653 0.0
C1236 C 0.21812 0.97854 0.37845 0.0
C1237 C 0.21741 0.94949 0.35221 0.0
C1238 C 0.23135 0.02784 0.372 0.0
C1239 C 0.23035 0.03552 0.4128 0.0
N1240 N 0.2225 0.97442 0.35903 0.0
N1241 N 0.22405 0.01066 0.4053 0.0
H1242 H 0.51968 0.64171 0.26128 0.0
H1243 H 0.57766 0.74907 0.34836 0.0
H1244 H 0.49366 0.61337 0.32176 0.0
H1245 H 0.63482 0.74776 0.30421 0.0
H1246 H 0.54054 0.70419 0.33643 0.0
H1247 H 0.55582 0.68614 0.27427 0.0
C1248 C 0.52149 0.6446 0.27728 0.0
C1249 C 0.50377 0.62318 0.2904 0.0
C1250 C 0.56131 0.71376 0.32951 0.0
C1251 C 0.5445 0.67478 0.3052 0.0
C1252 C 0.58265 0.73929 0.3364 0.0
C1253 C 0.60981 0.75204 0.32771 0.0
C1254 C 0.5668 0.70137 0.31329 0.0
C1255 C 0.61441 0.73869 0.31159 0.0
C1256 C 0.54207 0.67012 0.28462 0.0
C1257 C 0.50656 0.62904 0.31097 0.0
N1258 N 0.59305 0.71421 0.30477 0.0
N1259 N 0.52652 0.65432 0.31774 0.0
H1260 H 0.3693 0.84438 0.30155 0.0
H1261 H 0.28099 0.91297 0.3433 0.0
H1262 H 0.40069 0.93174 0.29887 0.0
H1263 H 0.24042 0.83162 0.31781 0.0
H1264 H 0.32746 0.91852 0.33441 0.0
H1265 H 0.32411 0.83761 0.31504 0.0
C1266 C 0.36677 0.86212 0.30403 0.0
C1267 C 0.38864 0.88863 0.29898 0.0
C1268 C 0.30839 0.89931 0.33104 0.0
C1269 C 0.33735 0.88111 0.31452 0.0
C1270 C 0.28198 0.8961 0.3362 0.0
C1271 C 0.25704 0.87142 0.33195 0.0
C1272 C 0.30979 0.87775 0.32138 0.0
C1273 C 0.25929 0.85055 0.32203 0.0
C1274 C 0.34101 0.85825 0.3116 0.0
C1275 C 0.38425 0.91094 0.30241 0.0
N1276 N 0.2852 0.85407 0.31721 0.0
N1277 N 0.35918 0.90671 0.31 0.0
H1278 H 0.11286 0.47742 0.26501 0.0
H1279 H 0.17659 0.42958 0.35033 0.0
H1280 H 0.11855 0.50786 0.32511 0.0
H1281 H 0.11971 0.37189 0.30663 0.0
H1282 H 0.16358 0.46319 0.33897 0.0
H1283 H 0.12306 0.44268 0.27773 0.0
C1284 C 0.11584 0.47671 0.2809 0.0
C1285 C 0.11452 0.49567 0.29398 0.0
C1286 C 0.15387 0.44305 0.33205 0.0
C1287 C 0.1275 0.45652 0.30839 0.0
C1288 C 0.16112 0.42378 0.33857 0.0
C1289 C 0.14875 0.39756 0.32979 0.0
C1290 C 0.13484 0.43635 0.31619 0.0
C1291 C 0.12964 0.3917 0.31401 0.0
C1292 C 0.12193 0.45696 0.28807 0.0
C1293 C 0.11973 0.49409 0.31435 0.0
N1294 N 0.12344 0.41103 0.30762 0.0
N1295 N 0.12624 0.475 0.32091 0.0
H1296 H 0.3617 0.51124 0.30946 0.0
H1297 H 0.25742 0.3498 0.3281 0.0
H1298 H 0.38551 0.44886 0.30409 0.0
H1299 H 0.22954 0.40912 0.33359 0.0
H1300 H 0.30568 0.38721 0.32233 0.0
H1301 H 0.3144 0.47572 0.32107 0.0
C1302 C 0.35704 0.49015 0.31086 0.0
C1303 C 0.37746 0.48288 0.30573 0.0
C1304 C 0.28919 0.39225 0.32499 0.0
C1305 C 0.32365 0.44233 0.31891 0.0
C1306 C 0.26166 0.37085 0.32835 0.0
C1307 C 0.23969 0.37647 0.33164 0.0
C1308 C 0.29485 0.4196 0.32443 0.0
C1309 C 0.24611 0.40405 0.3315 0.0
C1310 C 0.33008 0.4699 0.31747 0.0
C1311 C 0.37035 0.4553 0.30781 0.0
N1312 N 0.27315 0.42466 0.32783 0.0
N1313 N 0.34411 0.4361 0.31414 0.0
H1314 H 0.49771 0.84944 0.31133 0.0
H1315 H 0.66478 0.90394 0.31909 0.0
H1316 H 0.56388 0.9328 0.29965 0.0
H1317 H 0.60194 0.81871 0.3282 0.0
H1318 H 0.62706 0.9145 0.31332 0.0
H1319 H 0.5343 0.83727 0.31926 0.0
C1320 C 0.51987 0.86517 0.31053 0.0
C1321 C 0.52783 0.89219 0.3048 0.0
C1322 C 0.62133 0.89346 0.3167 0.0
C1323 C 0.5696 0.87846 0.3137 0.0
C1324 C 0.64292 0.88748 0.32002 0.0
C1325 C 0.63643 0.86062 0.32468 0.0
C1326 C 0.59282 0.87232 0.31765 0.0
C1327 C 0.60777 0.83987 0.32523 0.0
C1328 C 0.54072 0.85822 0.315 0.0
C1329 C 0.5568 0.91173 0.30398 0.0
N1330 N 0.58696 0.84615 0.32182 0.0
N1331 N 0.57651 0.9045 0.30832 0.0
H1332 H 0.14901 0.66068 0.26446 0.0
H1333 H 0.16568 0.75083 0.36081 0.0
H1334 H 0.1404 0.62811 0.32393 0.0
H1335 H 0.14891 0.76945 0.30159 0.0
H1336 H 0.1586 0.70669 0.34833 0.0
H1337 H 0.1525 0.70243 0.27842 0.0
C1338 C 0.14796 0.66243 0.2805 0.0
C1339 C 0.14441 0.64104 0.29306 0.0
C1340 C 0.15626 0.72042 0.33818 0.0
C1341 C 0.1483 0.68867 0.30922 0.0
C1342 C 0.16022 0.74558 0.34528 0.0
C1343 C 0.15817 0.76406 0.3322 0.0
C1344 C 0.15045 0.71392 0.31788 0.0
C1345 C 0.15103 0.7561 0.31224 0.0
C1346 C 0.14978 0.68617 0.28847 0.0
C1347 C 0.1431 0.6442 0.31374 0.0
N1348 N 0.14769 0.7318 0.30569 0.0
N1349 N 0.14516 0.66771 0.32123 0.0
H1350 H 0.8201 0.02096 0.42992 0.0
H1351 H 0.77302 0.91085 0.34393 0.0
H1352 H 0.86451 0.04214 0.37362 0.0
H1353 H 0.71202 0.91453 0.38318 0.0
H1354 H 0.80943 0.95566 0.35645 0.0
H1355 H 0.78288 0.97807 0.41521 0.0
C1356 C 0.82198 0.0165 0.41444 0.0
C1357 C 0.84527 0.03505 0.40293 0.0
C1358 C 0.78798 0.94671 0.36212 0.0
C1359 C 0.8031 0.98597 0.38613 0.0
C1360 C 0.76708 0.92118 0.3549 0.0
C1361 C 0.73915 0.90897 0.36218 0.0
C1362 C 0.78114 0.95979 0.37718 0.0
C1363 C 0.73314 0.92309 0.37699 0.0
C1364 C 0.80072 0.99215 0.40606 0.0
C1365 C 0.84677 0.02839 0.38295 0.0
N1366 N 0.75401 0.94759 0.38412 0.0
N1367 N 0.82604 0.00417 0.3752 0.0
H1368 H 0.98331 0.83385 0.38279 0.0
H1369 H 0.10255 0.79086 0.36775 0.0
H1370 H 0.96987 0.75219 0.39258 0.0
H1371 H 0.1216 0.87516 0.36602 0.0
H1372 H 0.05247 0.776 0.37324 0.0
H1373 H 0.03263 0.8492 0.37299 0.0
C1374 C 0.99066 0.81913 0.38273 0.0
C1375 C 0.97252 0.7917 0.38854 0.0
C1376 C 0.06744 0.79776 0.37142 0.0
C1377 C 0.02873 0.80906 0.37742 0.0
C1378 C 0.09596 0.80616 0.36812 0.0
C1379 C 0.11587 0.83412 0.36571 0.0
C1380 C 0.05878 0.81751 0.37268 0.0
C1381 C 0.1066 0.85332 0.36723 0.0
C1382 C 0.0188 0.82791 0.3772 0.0
C1383 C 0.98317 0.77353 0.38824 0.0
N1384 N 0.07866 0.84467 0.3705 0.0
N1385 N 0.01046 0.7825 0.38283 0.0
H1386 H 0.22473 0.20217 0.43361 0.0
H1387 H 0.15377 0.24236 0.3467 0.0
H1388 H 0.2013 0.1577 0.37793 0.0
H1389 H 0.21438 0.30202 0.38779 0.0
H1390 H 0.16416 0.2078 0.36011 0.0
H1391 H 0.21337 0.23567 0.41944 0.0
C1392 C 0.21707 0.19946 0.41841 0.0
C1393 C 0.2141 0.17738 0.40685 0.0
C1394 C 0.17524 0.22854 0.36603 0.0
C1395 C 0.20089 0.21528 0.39066 0.0
C1396 C 0.16947 0.24834 0.35833 0.0
C1397 C 0.18354 0.27532 0.36587 0.0
C1398 C 0.19465 0.23566 0.38169 0.0
C1399 C 0.20307 0.28158 0.3814 0.0
C1400 C 0.21073 0.21858 0.41033 0.0
C1401 C 0.20407 0.17463 0.38726 0.0
N1402 N 0.20791 0.26186 0.38886 0.0
N1403 N 0.19767 0.19338 0.37975 0.0
H1404 H 0.65302 0.48969 0.72272 0.0
H1405 H 0.74178 0.65241 0.70256 0.0
H1406 H 0.6206 0.54515 0.73117 0.0
H1407 H 0.77758 0.59963 0.6956 0.0
H1408 H 0.69562 0.612 0.70946 0.0
H1409 H 0.69698 0.5281 0.70905 0.0
C1410 C 0.655 0.50984 0.72149 0.0
C1411 C 0.63322 0.51427 0.72837 0.0
C1412 C 0.71341 0.60909 0.70621 0.0
C1413 C 0.68346 0.55829 0.71289 0.0
C1414 C 0.73974 0.63218 0.70223 0.0
C1415 C 0.76333 0.62927 0.69819 0.0
C1416 C 0.71067 0.5828 0.70661 0.0
C1417 C 0.75974 0.60267 0.69825 0.0
C1418 C 0.68015 0.53177 0.71379 0.0
C1419 C 0.63702 0.54085 0.72646 0.0
N1420 N 0.7339 0.58042 0.70249 0.0
N1421 N 0.66162 0.56178 0.71904 0.0
H1422 H 0.47543 0.08044 0.73725 0.0
H1423 H 0.42021 0.17888 0.69527 0.0
H1424 H 0.53247 0.16538 0.72188 0.0
H1425 H 0.36697 0.09162 0.70487 0.0
H1426 H 0.46184 0.17502 0.70409 0.0
H1427 H 0.43591 0.08454 0.72447 0.0
C1428 C 0.47963 0.1 0.73111 0.0
C1429 C 0.50728 0.12268 0.73084 0.0
C1430 C 0.44109 0.15668 0.7041 0.0
C1431 C 0.46183 0.12764 0.71613 0.0
C1432 C 0.41736 0.15886 0.69896 0.0
C1433 C 0.39021 0.13537 0.69887 0.0
C1434 C 0.43753 0.13092 0.70954 0.0
C1435 C 0.38758 0.11013 0.70447 0.0
C1436 C 0.45702 0.10233 0.72376 0.0
C1437 C 0.51149 0.14739 0.72239 0.0
N1438 N 0.41087 0.10857 0.70952 0.0
N1439 N 0.48896 0.14931 0.71555 0.0
H1440 H 0.86797 0.38383 0.71774 0.0
H1441 H 0.91557 0.27021 0.71083 0.0
H1442 H 0.94851 0.3964 0.73842 0.0
H1443 H 0.83802 0.25929 0.68519 0.0
H1444 H 0.92792 0.3167 0.72086 0.0
H1445 H 0.85686 0.33861 0.70484 0.0
C1446 C 0.88341 0.37719 0.71939 0.0
C1447 C 0.90906 0.39376 0.72936 0.0
C1448 C 0.90825 0.3042 0.71295 0.0
C1449 C 0.8964 0.34204 0.7149 0.0
C1450 C 0.90114 0.27758 0.70728 0.0
C1451 C 0.87579 0.26085 0.69706 0.0
C1452 C 0.8898 0.31414 0.70851 0.0
C1453 C 0.85793 0.27156 0.69286 0.0
C1454 C 0.87701 0.35134 0.71214 0.0
C1455 C 0.92822 0.38407 0.7312 0.0
N1456 N 0.86526 0.29751 0.69864 0.0
N1457 N 0.92144 0.35882 0.72416 0.0
H1458 H 0.15096 0.95866 0.63585 0.0
H1459 H 0.316 0.07163 0.64422 0.0
H1460 H 0.21794 0.94604 0.61343 0.0
H1461 H 0.24915 0.08071 0.67129 0.0
H1462 H 0.28048 0.0258 0.63252 0.0
H1463 H 0.18666 0.00331 0.64906 0.0
C1464 C 0.17315 0.96511 0.63384 0.0
C1465 C 0.18133 0.94846 0.62341 0.0
C1466 C 0.27361 0.03778 0.64111 0.0
C1467 C 0.2225 -2e-05 0.63829 0.0
C1468 C 0.2939 0.064 0.64776 0.0
C1469 C 0.28565 0.08006 0.65889 0.0
C1470 C 0.24479 0.02754 0.64548 0.0
C1471 C 0.25663 0.06902 0.66299 0.0
C1472 C 0.19356 0.99075 0.64129 0.0
C1473 C 0.21052 0.95828 0.62104 0.0
N1474 N 0.23731 0.04354 0.65627 0.0
N1475 N 0.22998 0.98335 0.62836 0.0
H1476 H 0.06983 0.26192 0.62331 0.0
H1477 H 0.9125 0.16386 0.66494 0.0
H1478 H 0.03953 0.17782 0.64103 0.0
H1479 H 0.94812 0.25059 0.65356 0.0
H1480 H 0.95874 0.16827 0.65741 0.0
H1481 H 0.02573 0.25812 0.63545 0.0
C1482 C 0.05389 0.24263 0.62983 0.0
C1483 C 0.05836 0.22008 0.63097 0.0
C1484 C 0.95654 0.1864 0.65675 0.0
C1485 C 0.00741 0.21549 0.64493 0.0
C1486 C 0.93018 0.18392 0.66118 0.0
C1487 C 0.92668 0.20706 0.66035 0.0
C1488 C 0.97943 0.21213 0.65105 0.0
C1489 C 0.95004 0.23233 0.65466 0.0
C1490 C 0.02869 0.24049 0.63683 0.0
C1491 C 0.03706 0.19575 0.63989 0.0
N1492 N 0.97533 0.23419 0.65025 0.0
N1493 N 0.01241 0.194 0.64634 0.0
H1494 H 0.79079 0.81798 0.59553 0.0
H1495 H 0.84138 0.76418 0.68549 0.0
H1496 H 0.78413 0.84142 0.65593 0.0
H1497 H 0.7919 0.70916 0.63796 0.0
H1498 H 0.83015 0.79839 0.67279 0.0
H1499 H 0.80081 0.78326 0.60878 0.0
C1500 C 0.7912 0.81584 0.61155 0.0
C1501 C 0.78623 0.83269 0.62457 0.0
C1502 C 0.82166 0.77871 0.66529 0.0
C1503 C 0.79891 0.79362 0.63967 0.0
C1504 C 0.82786 0.75906 0.67258 0.0
C1505 C 0.817 0.73339 0.66313 0.0
C1506 C 0.8053 0.77303 0.64801 0.0
C1507 C 0.8005 0.72849 0.64592 0.0
C1508 C 0.79713 0.7961 0.61904 0.0
C1509 C 0.78818 0.82936 0.64521 0.0
N1510 N 0.79533 0.74824 0.6388 0.0
N1511 N 0.79454 0.81033 0.65211 0.0
H1512 H 0.05743 0.8129 0.64679 0.0
H1513 H 0.89109 0.74537 0.66484 0.0
H1514 H 0.00684 0.83751 0.61273 0.0
H1515 H 0.9311 0.69579 0.66233 0.0
H1516 H 0.93656 0.78602 0.65565 0.0
H1517 H 0.0138 0.7761 0.66229 0.0
C1518 C 0.0372 0.81081 0.64281 0.0
C1519 C 0.0356 0.82812 0.62843 0.0
C1520 C 0.93538 0.76628 0.65745 0.0
C1521 C 0.98605 0.78672 0.64632 0.0
C1522 C 0.90959 0.74319 0.66283 0.0
C1523 C 0.90754 0.71732 0.66451 0.0
C1524 C 0.95925 0.76346 0.65405 0.0
C1525 C 0.93197 0.71547 0.66127 0.0
C1526 C 0.01241 0.78983 0.65159 0.0
C1527 C 0.00888 0.82445 0.62369 0.0
N1528 N 0.95689 0.73826 0.65628 0.0
N1529 N 0.98512 0.80423 0.63268 0.0
H1530 H 0.16272 0.1471 0.61762 0.0
H1531 H 0.32197 0.22767 0.65319 0.0
H1532 H 0.1962 0.22602 0.64643 0.0
H1533 H 0.27222 0.13925 0.65734 0.0
H1534 H 0.27831 0.22916 0.6466 0.0
H1535 H 0.20463 0.145 0.62826 0.0
C1536 C 0.17883 0.16388 0.62635 0.0
C1537 C 0.17592 0.18665 0.63129 0.0
C1538 C 0.27698 0.20949 0.64918 0.0
C1539 C 0.22432 0.18479 0.64297 0.0
C1540 C 0.30182 0.20862 0.65286 0.0
C1541 C 0.30057 0.18337 0.65637 0.0
C1542 C 0.25086 0.18482 0.64819 0.0
C1543 C 0.27404 0.1592 0.65531 0.0
C1544 C 0.20269 0.16266 0.63242 0.0
C1545 C 0.19751 0.20796 0.6425 0.0
N1546 N 0.25028 0.16049 0.65118 0.0
N1547 N 0.22103 0.20671 0.64772 0.0
H1548 H 0.74147 0.96207 0.62956 0.0
H1549 H 0.86776 0.09981 0.6771 0.0
H1550 H 0.82103 0.96954 0.64726 0.0
H1551 H 0.79286 0.09398 0.65057 0.0
H1552 H 0.85032 0.05155 0.66839 0.0
H1553 H 0.75913 0.0098 0.6395 0.0
C1554 C 0.76266 0.97382 0.63563 0.0
C1555 C 0.77983 0.96196 0.63757 0.0
C1556 C 0.83775 0.06089 0.66449 0.0
C1557 C 0.80031 0.01661 0.64894 0.0
C1558 C 0.84761 0.08839 0.66953 0.0
C1559 C 0.83165 0.10094 0.66469 0.0
C1560 C 0.81172 0.04585 0.65458 0.0
C1561 C 0.80592 0.08525 0.65461 0.0
C1562 C 0.77278 0.00107 0.64124 0.0
C1563 C 0.80713 0.97797 0.6455 0.0
N1564 N 0.79674 0.05855 0.64996 0.0
N1565 N 0.81657 0.00457 0.65091 0.0
H1566 H 0.5321 0.37526 0.70477 0.0
H1567 H 0.37793 0.24329 0.71648 0.0
H1568 H 0.48556 0.3541 0.76021 0.0
H1569 H 0.44092 0.24385 0.67695 0.0
H1570 H 0.41376 0.28845 0.7291 0.0
H1571 H 0.49519 0.33137 0.69051 0.0
C1572 C 0.51406 0.36147 0.71387 0.0
C1573 C 0.51181 0.36816 0.73369 0.0
C1574 C 0.41956 0.27869 0.71752 0.0
C1575 C 0.46958 0.31848 0.71749 0.0
C1576 C 0.39913 0.25294 0.71026 0.0
C1577 C 0.4062 0.23975 0.69536 0.0
C1578 C 0.44718 0.2916 0.70965 0.0
C1579 C 0.43419 0.25335 0.68805 0.0
C1580 C 0.49311 0.33647 0.70578 0.0
C1581 C 0.48807 0.34957 0.74488 0.0
N1582 N 0.45359 0.27856 0.69517 0.0
N1583 N 0.46779 0.32567 0.7366 0.0
H1584 H 0.65734 0.16376 0.71553 0.0
H1585 H 0.76646 0.10785 0.70185 0.0
H1586 H 0.6379 0.08038 0.72663 0.0
H1587 H 0.79299 0.19399 0.69673 0.0
H1588 H 0.71788 0.0975 0.70751 0.0
H1589 H 0.70569 0.17547 0.70532 0.0
C1590 C 0.66316 0.14791 0.71567 0.0
C1591 C 0.64361 0.12103 0.72197 0.0
C1592 C 0.73414 0.1187 0.70498 0.0
C1593 C 0.69863 0.13423 0.7104 0.0
C1594 C 0.76188 0.12456 0.70168 0.0
C1595 C 0.78357 0.15167 0.69837 0.0
C1596 C 0.72791 0.14019 0.70543 0.0
C1597 C 0.77666 0.17269 0.69872 0.0
C1598 C 0.69074 0.1546 0.7099 0.0
C1599 C 0.65228 0.10135 0.72192 0.0
N1600 N 0.74938 0.16653 0.70221 0.0
N1601 N 0.679 0.10832 0.7163 0.0
H1602 H 0.95054 0.56688 0.73586 0.0
H1603 H 0.82598 0.58005 0.68346 0.0
H1604 H 0.87695 0.4977 0.70997 0.0
H1605 H 0.89683 0.64662 0.71402 0.0
H1606 H 0.84456 0.54964 0.69192 0.0
H1607 H 0.93164 0.59667 0.72667 0.0
C1608 C 0.93042 0.55802 0.72815 0.0
C1609 C 0.91529 0.52988 0.72366 0.0
C1610 C 0.85601 0.57091 0.69676 0.0
C1611 C 0.89337 0.56372 0.71315 0.0
C1612 C 0.84549 0.58832 0.69186 0.0
C1613 C 0.86002 0.61604 0.69784 0.0
C1614 C 0.88122 0.58131 0.70773 0.0
C1615 C 0.8849 0.62546 0.70903 0.0
C1616 C 0.91958 0.57499 0.72296 0.0
C1617 C 0.88929 0.51934 0.71371 0.0
N1618 N 0.89472 0.60817 0.71354 0.0
N1619 N 0.87912 0.5363 0.70878 0.0
H1620 H 0.41676 0.90714 0.22876 0.0
H1621 H 0.54828 0.02034 0.16484 0.0
H1622 H 0.50265 0.9528 0.25047 0.0
H1623 H 0.46271 0.977 0.14237 0.0
H1624 H 0.53164 0.99478 0.19601 0.0
H1625 H 0.43273 0.9318 0.19694 0.0
C1626 C 0.43893 0.92243 0.2269 0.0
C1627 C 0.45838 0.92779 0.24236 0.0
C1628 C 0.51644 0.99078 0.18429 0.0
C1629 C 0.47685 0.95591 0.20586 0.0
C1630 C 0.52593 0.0055 0.16647 0.0
C1631 C 0.50686 0.00104 0.15095 0.0
C1632 C 0.48757 0.97134 0.18677 0.0
C1633 C 0.47823 0.98103 0.15385 0.0
C1634 C 0.44806 0.93638 0.20867 0.0
C1635 C 0.48692 0.94761 0.23894 0.0
N1636 N 0.46944 0.96702 0.17143 0.0
N1637 N 0.49524 0.96088 0.22113 0.0
H1638 H 0.03616 0.48952 0.25063 0.0
H1639 H 0.04122 0.54717 0.14063 0.0
H1640 H 0.10426 0.56662 0.22833 0.0
H1641 H 0.96638 0.47775 0.16539 0.0
H1642 H 0.06566 0.55262 0.17217 0.0
H1643 H 0.01109 0.48285 0.21896 0.0
C1644 C 0.04582 0.50499 0.23906 0.0
C1645 C 0.07222 0.52873 0.24212 0.0
C1646 C 0.04388 0.53619 0.17075 0.0
C1647 C 0.04382 0.52127 0.20599 0.0
C1648 C 0.02999 0.53297 0.1527 0.0
C1649 C 1.00176 0.51195 0.15039 0.0
C1650 C 0.02953 0.51817 0.18663 0.0
C1651 C 0.98808 0.49439 0.16662 0.0
C1652 C 0.03148 0.50125 0.22105 0.0
C1653 C 0.08375 0.54822 0.22671 0.0
N1654 N 1.00213 0.49784 0.18406 0.0
N1655 N 0.06952 0.54403 0.20932 0.0
H1656 H 0.52608 0.56569 0.24856 0.0
H1657 H 0.4817 0.50145 0.13888 0.0
H1658 H 0.44109 0.53118 0.2257 0.0
H1659 H 0.56712 0.54068 0.16168 0.0
H1660 H 0.46571 0.51037 0.17076 0.0
H1661 H 0.54064 0.55425 0.21725 0.0
C1662 C 0.51046 0.55569 0.23693 0.0
C1663 C 0.48237 0.54963 0.2397 0.0
C1664 C 0.48793 0.51696 0.16877 0.0
C1665 C 0.4989 0.53629 0.20371 0.0
C1666 C 0.49712 0.51204 0.15053 0.0
C1667 C 0.52582 0.52027 0.14756 0.0
C1668 C 0.50758 0.53024 0.18417 0.0
C1669 C 0.54474 0.53356 0.16333 0.0
C1670 C 0.51877 0.54908 0.21905 0.0
C1671 C 0.46293 0.53612 0.22424 0.0
N1672 N 0.53529 0.53813 0.18089 0.0
N1673 N 0.47159 0.53005 0.20685 0.0
H1674 H 0.98072 0.49976 0.77926 0.0
H1675 H 0.97536 0.44508 0.89026 0.0
H1676 H 0.91725 0.41922 0.79983 0.0
H1677 H 0.04857 0.51631 0.86565 0.0
H1678 H 0.9511 0.43806 0.85836 0.0
H1679 H 1.00316 0.50907 0.81214 0.0
C1680 C 0.97139 0.48416 0.79077 0.0
C1681 C 0.94722 0.45864 0.78684 0.0
C1682 C 0.97246 0.45524 0.85994 0.0
C1683 C 0.97274 0.46904 0.82432 0.0
C1684 C 0.98625 0.45933 0.87816 0.0
C1685 C 0.01402 0.48127 0.88055 0.0
C1686 C 0.98647 0.47334 0.84404 0.0
C1687 C 0.02727 0.49896 0.86433 0.0
C1688 C 0.98428 0.48939 0.80945 0.0
C1689 C 0.93608 0.43903 0.80219 0.0
N1690 N 0.01335 0.49464 0.84675 0.0
N1691 N 0.94894 0.44463 0.82026 0.0
H1692 H 0.51805 0.4639 0.77459 0.0
H1693 H 0.55351 0.52777 0.88479 0.0
H1694 H 0.60281 0.50701 0.7985 0.0
H1695 H 0.46947 0.48563 0.85959 0.0
H1696 H 0.57226 0.52063 0.8535 0.0
H1697 H 0.50021 0.47234 0.80564 0.0
C1698 C 0.53292 0.47512 0.78641 0.0
C1699 C 0.56196 0.4846 0.78398 0.0
C1700 C 0.54973 0.51299 0.85482 0.0
C1701 C 0.54165 0.49453 0.81965 0.0
C1702 C 0.53898 0.5169 0.87273 0.0
C1703 C 0.50985 0.50734 0.87484 0.0
C1704 C 0.53122 0.49933 0.83891 0.0
C1705 C 0.4921 0.49372 0.85858 0.0
C1706 C 0.52273 0.48004 0.80413 0.0
C1707 C 0.58029 0.49948 0.79968 0.0
N1708 N 0.50305 0.49012 0.84137 0.0
N1709 N 0.56982 0.50387 0.81689 0.0
H1710 H 0.52452 0.1145 0.80191 0.0
H1711 H 0.50914 0.9852 0.86276 0.0
H1712 H 0.55569 0.06205 0.7803 0.0
H1713 H 0.49402 0.0469 0.88912 0.0
H1714 H 0.52559 0.01275 0.83227 0.0
H1715 H 0.51254 0.08981 0.83376 0.0
C1716 C 0.5289 0.09782 0.80389 0.0
C1717 C 0.54105 0.09028 0.78838 0.0
C1718 C 0.51883 0.02038 0.84475 0.0
C1719 C 0.52733 0.06187 0.82482 0.0
C1720 C 0.5093 0.00458 0.86213 0.0
C1721 C 0.50002 0.01368 0.87849 0.0
C1722 C 0.51886 0.0454 0.84355 0.0
C1723 C 0.5011 0.03916 0.87691 0.0
C1724 C 0.52218 0.08382 0.82211 0.0
C1725 C 0.54656 0.06871 0.79187 0.0
N1726 N 0.5101 0.05401 0.85971 0.0
N1727 N 0.53945 0.05514 0.80964 0.0
H1728 H 0.08432 0.23026 0.56028 0.0
H1729 H 0.21687 0.34144 0.49623 0.0
H1730 H 0.17096 0.27029 0.58064 0.0
H1731 H 0.1308 0.30132 0.47473 0.0
H1732 H 0.20034 0.31405 0.52668 0.0
H1733 H 0.10074 0.25464 0.52845 0.0
C1734 C 0.10679 0.24417 0.55808 0.0
C1735 C 0.12625 0.24823 0.57325 0.0
C1736 C 0.18502 0.31112 0.5153 0.0
C1737 C 0.14524 0.27612 0.53672 0.0
C1738 C 0.19445 0.32688 0.49791 0.0
C1739 C 0.17518 0.3239 0.48291 0.0
C1740 C 0.15603 0.29218 0.51787 0.0
C1741 C 0.14645 0.30424 0.48582 0.0
C1742 C 0.11617 0.25798 0.53985 0.0
C1743 C 0.15516 0.26621 0.56937 0.0
N1744 N 0.13773 0.28927 0.503 0.0
N1745 N 0.16372 0.27953 0.55157 0.0
H1746 H 0.70856 0.82014 0.57882 0.0
H1747 H 0.70872 0.88029 0.47071 0.0
H1748 H 0.77006 0.90231 0.55986 0.0
H1749 H 0.63651 0.80772 0.49487 0.0
H1750 H 0.73372 0.88641 0.50218 0.0
H1751 H 0.68395 0.81286 0.54691 0.0
C1752 C 0.71693 0.83656 0.56788 0.0
C1753 C 0.74128 0.86188 0.57195 0.0
C1754 C 0.71239 0.86916 0.50061 0.0
C1755 C 0.71337 0.85377 0.53557 0.0
C1756 C 0.6982 0.86558 0.48263 0.0
C1757 C 0.67052 0.84348 0.48022 0.0
C1758 C 0.69892 0.85036 0.51624 0.0
C1759 C 0.65774 0.82518 0.49621 0.0
C1760 C 0.70282 0.83248 0.54976 0.0
C1761 C 0.75115 0.88259 0.55737 0.0
N1762 N 0.67208 0.82897 0.51354 0.0
N1763 N 0.7372 0.87806 0.53981 0.0
H1764 H 0.10869 0.86074 0.55551 0.0
H1765 H 0.23162 0.86086 0.48943 0.0
H1766 H 0.19546 0.89491 0.57463 0.0
H1767 H 0.14329 0.81465 0.47309 0.0
H1768 H 0.21866 0.87632 0.51955 0.0
H1769 H 0.12073 0.846 0.52432 0.0
C1770 C 0.13023 0.86511 0.55322 0.0
C1771 C 0.1511 0.87928 0.56778 0.0
C1772 C 0.20205 0.8628 0.50941 0.0
C1773 C 0.16507 0.86272 0.53197 0.0
C1774 C 0.20944 0.85383 0.4922 0.0
C1775 C 0.18851 0.83611 0.47874 0.0
C1776 C 0.17346 0.85416 0.51331 0.0
C1777 C 0.16018 0.82838 0.48296 0.0
C1778 C 0.1371 0.85679 0.53536 0.0
C1779 C 0.17872 0.88458 0.56378 0.0
N1780 N 0.15347 0.83736 0.4999 0.0
N1781 N 0.18485 0.87635 0.54633 0.0
H1782 H 0.64507 0.78313 0.10824 0.0
H1783 H 0.67078 0.84583 0.21839 0.0
H1784 H 0.59076 0.80862 0.13677 0.0
H1785 H 0.70842 0.79917 0.19596 0.0
H1786 H 0.64712 0.83975 0.18637 0.0
H1787 H 0.67452 0.79662 0.13815 0.0
C1788 C 0.63938 0.79165 0.12075 0.0
C1789 C 0.61517 0.79442 0.12005 0.0
C1790 C 0.6607 0.831 0.18845 0.0
C1791 C 0.64901 0.81021 0.1542 0.0
C1792 C 0.67409 0.83431 0.20676 0.0
C1793 C 0.6914 0.82274 0.21 0.0
C1794 C 0.66476 0.81615 0.17319 0.0
C1795 C 0.69547 0.80865 0.19415 0.0
C1796 C 0.65626 0.79943 0.13778 0.0
C1797 C 0.60928 0.80624 0.13654 0.0
N1798 N 0.68213 0.80564 0.17648 0.0
N1799 N 0.62598 0.81354 0.15298 0.0
H1800 H 0.27168 0.8387 0.13213 0.0
H1801 H 0.13998 0.82198 0.1967 0.0
H1802 H 0.18497 0.79535 0.11188 0.0
H1803 H 0.22532 0.86018 0.21946 0.0
H1804 H 0.15645 0.81239 0.16546 0.0
H1805 H 0.25555 0.84719 0.16412 0.0
C1806 C 0.24926 0.83102 0.13439 0.0
C1807 C 0.22965 0.81628 0.11928 0.0
C1808 C 0.17161 0.82283 0.17727 0.0
C1809 C 0.21103 0.8258 0.15588 0.0
C1810 C 0.16224 0.82846 0.19509 0.0
C1811 C 0.18132 0.84207 0.2107 0.0
C1812 C 0.20037 0.83093 0.17491 0.0
C1813 C 0.20983 0.84949 0.20788 0.0
C1814 C 0.24006 0.83574 0.15269 0.0
C1815 C 0.20082 0.80651 0.12316 0.0
N1816 N 0.21852 0.84395 0.1903 0.0
N1817 N 0.19243 0.81152 0.14101 0.0
H1818 H 0.23893 0.44177 0.13294 0.0
H1819 H 0.11464 0.32172 0.19777 0.0
H1820 H 0.15409 0.38762 0.11161 0.0
H1821 H 0.20058 0.36935 0.21905 0.0
H1822 H 0.12899 0.34745 0.16663 0.0
H1823 H 0.22584 0.41688 0.16484 0.0
C1824 C 0.21762 0.4246 0.1349 0.0
C1825 C 0.19753 0.41697 0.11957 0.0
C1826 C 0.14479 0.35236 0.17807 0.0
C1827 C 0.18234 0.3886 0.15609 0.0
C1828 C 0.13661 0.33754 0.19587 0.0
C1829 C 0.15647 0.34312 0.21104 0.0
C1830 C 0.17312 0.37309 0.17524 0.0
C1831 C 0.18451 0.36441 0.20783 0.0
C1832 C 0.21013 0.41051 0.15316 0.0
C1833 C 0.17017 0.39466 0.12307 0.0
N1834 N 0.19203 0.37855 0.19026 0.0
N1835 N 0.16343 0.38139 0.14089 0.0
H1836 H 0.7483 0.57158 0.89411 0.0
H1837 H 0.88259 0.6849 0.83251 0.0
H1838 H 0.83397 0.61307 0.91645 0.0
H1839 H 0.79777 0.6424 0.80865 0.0
H1840 H 0.86484 0.65855 0.86331 0.0
H1841 H 0.76558 0.59731 0.86283 0.0
C1842 C 0.77072 0.5862 0.89249 0.0
C1843 C 0.7897 0.5901 0.90797 0.0
C1844 C 0.85006 0.65491 0.85135 0.0
C1845 C 0.80967 0.61947 0.87209 0.0
C1846 C 0.86018 0.67007 0.83376 0.0
C1847 C 0.84163 0.66603 0.81796 0.0
C1848 C 0.8211 0.63549 0.85331 0.0
C1849 C 0.81289 0.64609 0.82036 0.0
C1850 C 0.78059 0.60076 0.87457 0.0
C1851 C 0.81858 0.60908 0.90488 0.0
N1852 N 0.80349 0.63166 0.83772 0.0
N1853 N 0.82763 0.62302 0.88736 0.0
H1854 H 0.43833 0.23523 0.89117 0.0
H1855 H 0.30398 0.13069 0.82664 0.0
H1856 H 0.37982 0.15196 0.90976 0.0
H1857 H 0.37267 0.20651 0.80316 0.0
H1858 H 0.32986 0.13921 0.85804 0.0
H1859 H 0.41311 0.2261 0.85947 0.0
C1860 C 0.42016 0.21502 0.88854 0.0
C1861 C 0.41109 0.19433 0.90308 0.0
C1862 C 0.33929 0.15394 0.846 0.0
C1863 C 0.38212 0.18373 0.86692 0.0
C1864 C 0.32445 0.14919 0.82815 0.0
C1865 C 0.33622 0.16793 0.81231 0.0
C1866 C 0.36595 0.17776 0.84808 0.0
C1867 C 0.36296 0.19141 0.81495 0.0
C1868 C 0.40585 0.20978 0.87044 0.0
C1869 C 0.38762 0.16841 0.89886 0.0
N1870 N 0.37688 0.19571 0.83252 0.0
N1871 N 0.37382 0.16389 0.8812 0.0
H1872 H 0.77802 0.19829 0.8934 0.0
H1873 H 0.91111 0.21537 0.83038 0.0
H1874 H 0.8632 0.2351 0.91629 0.0
H1875 H 0.82561 0.17355 0.80766 0.0
H1876 H 0.89349 0.22259 0.86193 0.0
H1877 H 0.79441 0.18832 0.86206 0.0
C1878 C 0.8001 0.20404 0.89191 0.0
C1879 C 0.81929 0.21775 0.90747 0.0
C1880 C 0.87852 0.21178 0.85008 0.0
C1881 C 0.83828 0.20672 0.87157 0.0
C1882 C 0.88857 0.20753 0.83205 0.0
C1883 C 0.86983 0.19369 0.8163 0.0
C1884 C 0.84945 0.20222 0.85252 0.0
C1885 C 0.84091 0.18456 0.81928 0.0
C1886 C 0.80948 0.19851 0.87397 0.0
C1887 C 0.84773 0.22496 0.90461 0.0
N1888 N 0.8316 0.18896 0.83703 0.0
N1889 N 0.85633 0.21945 0.88703 0.0
H1890 H 0.26518 0.14495 0.46709 0.0
H1891 H 0.3838 0.13361 0.5282 0.0
H1892 H 0.31954 0.1178 0.44091 0.0
H1893 H 0.34216 0.17689 0.54997 0.0
H1894 H 0.36087 0.12805 0.49601 0.0
H1895 H 0.29352 0.15741 0.4974 0.0
C1896 C 0.28332 0.14197 0.46758 0.0
C1897 C 0.28989 0.13018 0.45142 0.0
C1898 C 0.35691 0.13893 0.50779 0.0
C1899 C 0.32209 0.14388 0.48631 0.0
C1900 C 0.37011 0.14224 0.52617 0.0
C1901 C 0.36482 0.15564 0.54189 0.0
C1902 C 0.33808 0.14887 0.50512 0.0
C1903 C 0.34646 0.16596 0.53842 0.0
C1904 C 0.2994 0.14894 0.48497 0.0
C1905 C 0.31337 0.12636 0.45312 0.0
N1906 N 0.33361 0.16221 0.52045 0.0
N1907 N 0.32849 0.133 0.4703 0.0
H1908 H 0.93634 0.17527 0.46629 0.0
H1909 H 0.80042 0.14837 0.5304 0.0
H1910 H 0.85027 0.12901 0.44502 0.0
H1911 H 0.88599 0.19369 0.55275 0.0
H1912 H 0.81865 0.14204 0.49877 0.0
H1913 H 0.91873 0.18354 0.49769 0.0
C1914 C 0.91376 0.16705 0.46816 0.0
C1915 C 0.89474 0.15132 0.45303 0.0
C1916 C 0.83348 0.15339 0.51057 0.0
C1917 C 0.87442 0.16046 0.48899 0.0
C1918 C 0.82308 0.15713 0.52862 0.0
C1919 C 0.84169 0.17167 0.54427 0.0
C1920 C 0.86277 0.16426 0.50803 0.0
C1921 C 0.87083 0.18211 0.54119 0.0
C1922 C 0.90371 0.17162 0.48614 0.0
C1923 C 0.86568 0.1409 0.45637 0.0
N1924 N 0.88047 0.17824 0.52342 0.0
N1925 N 0.85644 0.14562 0.47397 0.0
H1926 H 0.8524 0.7796 0.4691 0.0
H1927 H 0.84199 0.65207 0.52955 0.0
H1928 H 0.88413 0.72806 0.44652 0.0
H1929 H 0.82572 0.71279 0.55634 0.0
H1930 H 0.85686 0.67928 0.49887 0.0
H1931 H 0.84182 0.75514 0.50099 0.0
C1932 C 0.85717 0.76315 0.47087 0.0
C1933 C 0.86907 0.7558 0.45508 0.0
C1934 C 0.8502 0.68677 0.51148 0.0
C1935 C 0.857 0.72768 0.49157 0.0
C1936 C 0.84156 0.67116 0.52897 0.0
C1937 C 0.83243 0.68008 0.54551 0.0
C1938 C 0.84947 0.71142 0.51037 0.0
C1939 C 0.83273 0.7052 0.544 0.0
C1940 C 0.85126 0.74929 0.48911 0.0
C1941 C 0.87515 0.73455 0.45831 0.0
N1942 N 0.84087 0.71987 0.52669 0.0
N1943 N 0.86885 0.72112 0.47612 0.0
loop_
_geom_bond_atom_site_label_1
_geom_bond_atom_site_label_2
_geom_bond_distance
_geom_bond_site_symmetry_2
_ccdc_geom_bond_type
H0 C5 0.930 . S
H1 C8 0.930 . S
H2 C10 0.930 . S
H3 C4 1.016 . S
C4 H3 1.016 . S
C4 N11 1.286 . S
C5 H0 0.930 . S
C5 C6 1.397 . S
C5 C7 1.361 . S
C6 C5 1.397 . S
C6 C10 1.390 . S
C7 C5 1.361 . S
C7 C8 1.393 . S
C7 N11 1.413 . S
C8 H1 0.930 . S
C8 C7 1.393 . S
C8 C9 1.399 . S
C9 C8 1.399 . S
C9 C10 1.381 . S
C10 H2 0.930 . S
C10 C6 1.390 . S
C10 C9 1.381 . S
N11 C4 1.286 . S
N11 C7 1.413 . S
H12 C17 0.930 . S
H13 C20 0.930 . S
H14 C22 0.930 . S
H15 C16 1.016 . S
C16 H15 1.016 . S
C16 N23 1.286 . S
C17 H12 0.930 . S
C17 C18 1.397 . S
C17 C19 1.361 . S
C18 C17 1.397 . S
C18 C22 1.390 . S
C19 C17 1.361 . S
C19 C20 1.393 . S
C19 N23 1.413 . S
C20 H13 0.930 . S
C20 C19 1.393 . S
C20 C21 1.399 . S
C21 C20 1.399 . S
C21 C22 1.381 . S
C22 H14 0.930 . S
C22 C18 1.390 . S
C22 C21 1.381 . S
N23 C16 1.286 . S
N23 C19 1.413 . S
H24 C29 0.930 . S
H25 C32 0.930 . S
H26 C34 0.930 . S
H27 C28 1.016 . S
C28 H27 1.016 . S
C28 N35 1.286 . S
C29 H24 0.930 . S
C29 C30 1.397 . S
C29 C31 1.361 . S
C30 C29 1.397 . S
C30 C34 1.390 . S
C31 C29 1.361 . S
C31 C32 1.393 . S
C31 N35 1.413 . S
C32 H25 0.930 . S
C32 C31 1.393 . S
C32 C33 1.399 . S
C33 C32 1.399 . S
C33 C34 1.381 . S
C34 H26 0.930 . S
C34 C30 1.390 . S
C34 C33 1.381 . S
N35 C28 1.286 . S
N35 C31 1.413 . S
H36 C41 0.930 . S
H37 C44 0.930 . S
H38 C46 0.930 . S
H39 C40 1.016 . S
C40 H39 1.016 . S
C40 N47 1.286 . S
C41 H36 0.930 . S
C41 C42 1.397 . S
C41 C43 1.361 . S
C42 C41 1.397 . S
C42 C46 1.390 . S
C43 C41 1.361 . S
C43 C44 1.393 . S
C43 N47 1.413 . S
C44 H37 0.930 . S
C44 C43 1.393 . S
C44 C45 1.399 . S
C45 C44 1.399 . S
C45 C46 1.381 . S
C46 H38 0.930 . S
C46 C42 1.390 . S
C46 C45 1.381 . S
N47 C40 1.286 . S
N47 C43 1.413 . S
H48 C53 0.930 . S
H49 C56 0.930 . S
H50 C58 0.930 . S
H51 C52 1.016 . S
C52 H51 1.016 . S
C52 N59 1.286 . S
C53 H48 0.930 . S
C53 C54 1.397 . S
C53 C55 1.361 . S
C54 C53 1.397 . S
C54 C58 1.390 . S
C55 C53 1.361 . S
C55 C56 1.393 . S
C55 N59 1.413 . S
C56 H49 0.930 . S
C56 C55 1.393 . S
C56 C57 1.399 . S
C57 C56 1.399 . S
C57 C58 1.381 . S
C58 H50 0.930 . S
C58 C54 1.390 . S
C58 C57 1.381 . S
N59 C52 1.286 . S
N59 C55 1.413 . S
H60 C65 0.930 . S
H61 C68 0.930 . S
H62 C70 0.930 . S
H63 C64 1.016 . S
C64 H63 1.016 . S
C64 N71 1.286 . S
C65 H60 0.930 . S
C65 C66 1.397 . S
C65 C67 1.361 . S
C66 C65 1.397 . S
C66 C70 1.390 . S
C67 C65 1.361 . S
C67 C68 1.393 . S
C67 N71 1.413 . S
C68 H61 0.930 . S
C68 C67 1.393 . S
C68 C69 1.399 . S
C69 C68 1.399 . S
C69 C70 1.381 . S
C70 H62 0.930 . S
C70 C66 1.390 . S
C70 C69 1.381 . S
N71 C64 1.286 . S
N71 C67 1.413 . S
H72 C77 0.930 . S
H73 C80 0.930 . S
H74 C82 0.930 . S
H75 C76 1.016 . S
C76 H75 1.016 . S
C76 N83 1.286 . S
C77 H72 0.930 . S
C77 C78 1.397 . S
C77 C79 1.361 . S
C78 C77 1.397 . S
C78 C82 1.390 . S
C79 C77 1.361 . S
C79 C80 1.393 . S
C79 N83 1.413 . S
C80 H73 0.930 . S
C80 C79 1.393 . S
C80 C81 1.399 . S
C81 C80 1.399 . S
C81 C82 1.381 . S
C82 H74 0.930 . S
C82 C78 1.390 . S
C82 C81 1.381 . S
N83 C76 1.286 . S
N83 C79 1.413 . S
H84 C89 0.930 . S
H85 C92 0.930 . S
H86 C94 0.930 . S
H87 C88 1.016 . S
C88 H87 1.016 . S
C88 N95 1.286 . S
C89 H84 0.930 . S
C89 C90 1.397 . S
C89 C91 1.361 . S
C90 C89 1.397 . S
C90 C94 1.390 . S
C91 C89 1.361 . S
C91 C92 1.393 . S
C91 N95 1.413 . S
C92 H85 0.930 . S
C92 C91 1.393 . S
C92 C93 1.399 . S
C93 C92 1.399 . S
C93 C94 1.381 . S
C94 H86 0.930 . S
C94 C90 1.390 . S
C94 C93 1.381 . S
N95 C88 1.286 . S
N95 C91 1.413 . S
H96 C101 0.930 . S
H97 C104 0.930 . S
H98 C106 0.930 . S
H99 C100 1.016 . S
C100 H99 1.016 . S
C100 N107 1.286 . S
C101 H96 0.930 . S
C101 C102 1.397 . S
C101 C103 1.361 . S
C102 C101 1.397 . S
C102 C106 1.390 . S
C103 C101 1.361 . S
C103 C104 1.393 . S
C103 N107 1.413 . S
C104 H97 0.930 . S
C104 C103 1.393 . S
C104 C105 1.399 . S
C105 C104 1.399 . S
C105 C106 1.381 . S
C106 H98 0.930 . S
C106 C102 1.390 . S
C106 C105 1.381 . S
N107 C100 1.286 . S
N107 C103 1.413 . S
H108 C113 0.930 . S
H109 C116 0.930 . S
H110 C118 0.930 . S
H111 C112 1.016 . S
C112 H111 1.016 . S
C112 N119 1.286 . S
C113 H108 0.930 . S
C113 C114 1.397 . S
C113 C115 1.361 . S
C114 C113 1.397 . S
C114 C118 1.390 . S
C115 C113 1.361 . S
C115 C116 1.393 . S
C115 N119 1.413 . S
C116 H109 0.930 . S
C116 C115 1.393 . S
C116 C117 1.399 . S
C117 C116 1.399 . S
C117 C118 1.381 . S
C118 H110 0.930 . S
C118 C114 1.390 . S
C118 C117 1.381 . S
N119 C112 1.286 . S
N119 C115 1.413 . S
H120 C125 0.930 . S
H121 C128 0.930 . S
H122 C130 0.930 . S
H123 C124 1.016 . S
C124 H123 1.016 . S
C124 N131 1.286 . S
C125 H120 0.930 . S
C125 C126 1.397 . S
C125 C127 1.361 . S
C126 C125 1.397 . S
C126 C130 1.390 . S
C127 C125 1.361 . S
C127 C128 1.393 . S
C127 N131 1.413 . S
C128 H121 0.930 . S
C128 C127 1.393 . S
C128 C129 1.399 . S
C129 C128 1.399 . S
C129 C130 1.381 . S
C130 H122 0.930 . S
C130 C126 1.390 . S
C130 C129 1.381 . S
N131 C124 1.286 . S
N131 C127 1.413 . S
H132 C137 0.930 . S
H133 C140 0.930 . S
H134 C142 0.930 . S
H135 C136 1.016 . S
C136 H135 1.016 . S
C136 N143 1.286 . S
C137 H132 0.930 . S
C137 C138 1.397 . S
C137 C139 1.361 . S
C138 C137 1.397 . S
C138 C142 1.390 . S
C139 C137 1.361 . S
C139 C140 1.393 . S
C139 N143 1.413 . S
C140 H133 0.930 . S
C140 C139 1.393 . S
C140 C141 1.399 . S
C141 C140 1.399 . S
C141 C142 1.381 . S
C142 H134 0.930 . S
C142 C138 1.390 . S
C142 C141 1.381 . S
N143 C136 1.286 . S
N143 C139 1.413 . S
H144 C149 0.930 . S
H145 C152 0.930 . S
H146 C154 0.930 . S
H147 C148 1.016 . S
C148 H147 1.016 . S
C148 N155 1.286 . S
C149 H144 0.930 . S
C149 C150 1.397 . S
C149 C151 1.361 . S
C150 C149 1.397 . S
C150 C154 1.390 . S
C151 C149 1.361 . S
C151 C152 1.393 . S
C151 N155 1.413 . S
C152 H145 0.930 . S
C152 C151 1.393 . S
C152 C153 1.399 . S
C153 C152 1.399 . S
C153 C154 1.381 . S
C154 H146 0.930 . S
C154 C150 1.390 . S
C154 C153 1.381 . S
N155 C148 1.286 . S
N155 C151 1.413 . S
H156 C161 0.930 . S
H157 C164 0.930 . S
H158 C166 0.930 . S
H159 C160 1.016 . S
C160 H159 1.016 . S
C160 N167 1.286 . S
C161 H156 0.930 . S
C161 C162 1.397 . S
C161 C163 1.361 . S
C162 C161 1.397 . S
C162 C166 1.390 . S
C163 C161 1.361 . S
C163 C164 1.393 . S
C163 N167 1.413 . S
C164 H157 0.930 . S
C164 C163 1.393 . S
C164 C165 1.399 . S
C165 C164 1.399 . S
C165 C166 1.381 . S
C166 H158 0.930 . S
C166 C162 1.390 . S
C166 C165 1.381 . S
N167 C160 1.286 . S
N167 C163 1.413 . S
H168 C173 0.930 . S
H169 C176 0.930 . S
H170 C178 0.930 . S
H171 C172 1.016 . S
C172 H171 1.016 . S
C172 N179 1.286 . S
C173 H168 0.930 . S
C173 C174 1.397 . S
C173 C175 1.361 . S
C174 C173 1.397 . S
C174 C178 1.390 . S
C175 C173 1.361 . S
C175 C176 1.393 . S
C175 N179 1.413 . S
C176 H169 0.930 . S
C176 C175 1.393 . S
C176 C177 1.399 . S
C177 C176 1.399 . S
C177 C178 1.381 . S
C178 H170 0.930 . S
C178 C174 1.390 . S
C178 C177 1.381 . S
N179 C172 1.286 . S
N179 C175 1.413 . S
H180 C185 0.930 . S
H181 C188 0.930 . S
H182 C190 0.930 . S
H183 C184 1.016 . S
C184 H183 1.016 . S
C184 N191 1.286 . S
C185 H180 0.930 . S
C185 C186 1.397 . S
C185 C187 1.361 . S
C186 C185 1.397 . S
C186 C190 1.390 . S
C187 C185 1.361 . S
C187 C188 1.393 . S
C187 N191 1.413 . S
C188 H181 0.930 . S
C188 C187 1.393 . S
C188 C189 1.399 . S
C189 C188 1.399 . S
C189 C190 1.381 . S
C190 H182 0.930 . S
C190 C186 1.390 . S
C190 C189 1.381 . S
N191 C184 1.286 . S
N191 C187 1.413 . S
H192 C197 0.930 . S
H193 C200 0.930 . S
H194 C202 0.930 . S
H195 C196 1.016 . S
C196 H195 1.016 . S
C196 N203 1.286 . S
C197 H192 0.930 . S
C197 C198 1.397 . S
C197 C199 1.361 . S
C198 C197 1.397 . S
C198 C202 1.390 . S
C199 C197 1.361 . S
C199 C200 1.393 . S
C199 N203 1.413 . S
C200 H193 0.930 . S
C200 C199 1.393 . S
C200 C201 1.399 . S
C201 C200 1.399 . S
C201 C202 1.381 . S
C202 H194 0.930 . S
C202 C198 1.390 . S
C202 C201 1.381 . S
N203 C196 1.286 . S
N203 C199 1.413 . S
H204 C209 0.930 . S
H205 C212 0.930 . S
H206 C214 0.930 . S
H207 C208 1.016 . S
C208 H207 1.016 . S
C208 N215 1.286 . S
C209 H204 0.930 . S
C209 C210 1.397 . S
C209 C211 1.361 . S
C210 C209 1.397 . S
C210 C214 1.390 . S
C211 C209 1.361 . S
C211 C212 1.393 . S
C211 N215 1.413 . S
C212 H205 0.930 . S
C212 C211 1.393 . S
C212 C213 1.399 . S
C213 C212 1.399 . S
C213 C214 1.381 . S
C214 H206 0.930 . S
C214 C210 1.390 . S
C214 C213 1.381 . S
N215 C208 1.286 . S
N215 C211 1.413 . S
Gd216 N247 2.661 . S
Gd216 N253 2.601 . S
Gd216 O260 2.545 . S
Gd216 O261 2.606 1_545 S
Gd216 O263 2.429 . S
Gd216 O264 2.545 1_545 S
Gd216 O265 2.412 1_545 S
Gd216 O267 2.362 . S
Gd216 O268 2.324 1_545 S
Gd216 C275 2.828 . S
Gd217 N226 2.661 . S
Gd217 N230 2.601 . S
Gd217 O261 2.362 1_556 S
Gd217 O262 2.324 1_565 S
Gd217 O266 2.545 . S
Gd217 O267 2.606 1_566 S
Gd217 O269 2.432 . S
Gd217 O270 2.545 1_565 S
Gd217 O271 2.412 1_565 S
Gd217 C284 2.828 1_565 S
C218 C221 1.417 . S
C218 C223 1.431 . S
C218 C224 1.412 . S
C219 C222 1.437 . S
C219 C223 1.317 . S
C219 H238 0.929 . S
C220 C221 1.426 . S
C220 C222 1.413 . S
C220 N230 1.359 . S
C221 C218 1.417 . S
C221 C220 1.426 . S
C221 N226 1.350 . S
C222 C219 1.437 . S
C222 C220 1.413 . S
C222 C232 1.391 . S
C223 C218 1.431 . S
C223 C219 1.317 . S
C223 H234 0.930 . S
C224 C218 1.412 . S
C224 C225 1.355 . S
C224 H236 0.930 . S
C225 C224 1.355 . S
C225 C227 1.402 . S
C225 H237 0.930 . S
N226 Gd217 2.661 . S
N226 C221 1.350 . S
N226 C227 1.307 . S
C227 C225 1.402 . S
C227 N226 1.307 . S
C227 H228 0.930 . S
H228 C227 0.930 . S
C229 N230 1.334 . S
C229 C231 1.394 . S
C229 H233 0.930 . S
N230 Gd217 2.601 . S
N230 C220 1.359 . S
N230 C229 1.334 . S
C231 C229 1.394 . S
C231 C232 1.359 . S
C231 H243 0.930 . S
C232 C222 1.391 . S
C232 C231 1.359 . S
C232 H244 0.929 . S
H233 C229 0.930 . S
H234 C223 0.930 . S
H235 C252 0.930 . S
H236 C224 0.930 . S
H237 C225 0.930 . S
H238 C219 0.929 . S
H239 C257 0.930 . S
H240 C248 0.930 . S
H241 C249 0.930 . S
H242 C273 0.929 . S
H243 C231 0.930 . S
H244 C232 0.929 . S
H245 C274 0.930 . S
H246 C255 0.930 . S
N247 Gd216 2.661 . S
N247 C251 1.350 . S
N247 C252 1.307 . S
C248 H240 0.930 . S
C248 C249 1.355 . S
C248 C250 1.412 . S
C249 H241 0.930 . S
C249 C248 1.355 . S
C249 C252 1.402 . S
C250 C248 1.412 . S
C250 C251 1.417 . S
C250 C274 1.431 . S
C251 N247 1.350 . S
C251 C250 1.417 . S
C251 C254 1.426 . S
C252 H235 0.930 . S
C252 N247 1.307 . S
C252 C249 1.402 . S
N253 Gd216 2.601 . S
N253 C254 1.359 . S
N253 C257 1.334 . S
C254 C251 1.426 . S
C254 N253 1.359 . S
C254 C258 1.413 . S
C255 H246 0.930 . S
C255 C256 1.359 . S
C255 C257 1.394 . S
C256 C255 1.359 . S
C256 C258 1.391 . S
C256 H259 0.929 . S
C257 H239 0.930 . S
C257 N253 1.334 . S
C257 C255 1.394 . S
C258 C254 1.413 . S
C258 C256 1.391 . S
C258 C273 1.437 . S
H259 C256 0.929 . S
O260 Gd216 2.545 . S
O260 C275 1.258 . S
O261 Gd216 2.606 1_565 S
O261 Gd217 2.362 1_554 S
O261 C272 1.284 . S
O262 Gd217 2.324 1_545 S
O262 C282 1.254 1_556 S
O263 Gd216 2.429 . S
O263 C282 1.268 . S
O264 Gd216 2.545 1_565 S
O264 C272 1.250 . S
O265 Gd216 2.412 1_565 S
O265 C275 1.252 1_565 S
O266 Gd217 2.545 . S
O266 C284 1.250 1_565 S
O267 Gd216 2.362 . S
O267 Gd217 2.606 1_544 S
O267 C283 1.284 1_554 S
O268 Gd216 2.324 1_565 S
O268 C291 1.254 . S
O269 Gd217 2.432 . S
O269 C291 1.262 1_556 S
O270 Gd217 2.545 1_545 S
O270 C283 1.250 . S
O271 Gd217 2.412 1_545 S
O271 C284 1.258 . S
C272 O261 1.284 . S
C272 O264 1.250 . S
C273 H242 0.929 . S
C273 C258 1.437 . S
C273 C274 1.317 . S
C274 H245 0.930 . S
C274 C250 1.431 . S
C274 C273 1.317 . S
C275 Gd216 2.828 . S
C275 O260 1.258 . S
C275 O265 1.252 1_545 S
C275 C276 1.497 . S
C276 C275 1.497 . S
C276 C277 1.395 . S
C276 C278 1.380 1_545 S
C277 C276 1.395 . S
C277 C280 1.398 . S
C277 H292 0.930 . S
C278 C276 1.380 1_565 S
C278 C279 1.391 . S
C278 H293 0.930 . S
C279 C278 1.391 . S
C279 C281 1.387 . S
C280 C277 1.398 . S
C280 C281 1.380 1_545 S
C280 H294 0.930 . S
C281 C279 1.387 . S
C281 C280 1.380 1_565 S
C281 H295 0.930 . S
C282 O262 1.254 1_554 S
C282 O263 1.268 . S
C283 O267 1.284 1_556 S
C283 O270 1.250 . S
C284 Gd217 2.828 1_545 S
C284 O266 1.250 1_545 S
C284 O271 1.258 . S
C284 C285 1.498 . S
C285 C284 1.498 . S
C285 C286 1.395 1_545 S
C285 C287 1.380 . S
C286 C285 1.395 1_565 S
C286 C289 1.398 . S
C286 H296 0.930 . S
C287 C285 1.380 . S
C287 C288 1.391 . S
C287 H297 0.930 . S
C288 C287 1.391 . S
C288 C290 1.387 . S
C289 C286 1.398 . S
C289 C290 1.380 1_565 S
C289 H298 0.930 . S
C290 C288 1.387 . S
C290 C289 1.380 1_545 S
C290 H299 0.930 . S
C291 O268 1.254 . S
C291 O269 1.262 1_554 S
H292 C277 0.930 . S
H293 C278 0.930 . S
H294 C280 0.930 . S
H295 C281 0.930 . S
H296 C286 0.930 . S
H297 C287 0.930 . S
H298 C289 0.930 . S
H299 C290 0.930 . S
Gd300 N331 2.661 . S
Gd300 N337 2.601 . S
Gd300 O344 2.545 . S
Gd300 O345 2.606 1_655 S
Gd300 O347 2.429 . S
Gd300 O348 2.545 1_655 S
Gd300 O349 2.412 1_655 S
Gd300 O351 2.362 . S
Gd300 O352 2.324 1_655 S
Gd300 C359 2.828 . S
Gd301 N310 2.661 . S
Gd301 N314 2.601 . S
Gd301 O345 2.362 1_556 S
Gd301 O346 2.324 1_455 S
Gd301 O350 2.545 . S
Gd301 O351 2.606 1_456 S
Gd301 O353 2.407 1_556 S
Gd301 O354 2.545 1_455 S
Gd301 O355 2.416 . S
Gd301 C368 2.828 . S
C302 C305 1.417 . S
C302 C307 1.431 . S
C302 C308 1.412 . S
C303 C306 1.437 . S
C303 C307 1.317 . S
C303 H322 0.929 . S
C304 C305 1.426 . S
C304 C306 1.413 . S
C304 N314 1.359 . S
C305 C302 1.417 . S
C305 C304 1.426 . S
C305 N310 1.350 . S
C306 C303 1.437 . S
C306 C304 1.413 . S
C306 C316 1.391 . S
C307 C302 1.431 . S
C307 C303 1.317 . S
C307 H318 0.930 . S
C308 C302 1.412 . S
C308 C309 1.355 . S
C308 H320 0.930 . S
C309 C308 1.355 . S
C309 C311 1.402 . S
C309 H321 0.930 . S
N310 Gd301 2.661 . S
N310 C305 1.350 . S
N310 C311 1.307 . S
C311 C309 1.402 . S
C311 N310 1.307 . S
C311 H312 0.930 . S
H312 C311 0.930 . S
C313 N314 1.334 . S
C313 C315 1.394 . S
C313 H317 0.930 . S
N314 Gd301 2.601 . S
N314 C304 1.359 . S
N314 C313 1.334 . S
C315 C313 1.394 . S
C315 C316 1.359 . S
C315 H327 0.930 . S
C316 C306 1.391 . S
C316 C315 1.359 . S
C316 H328 0.929 . S
H317 C313 0.930 . S
H318 C307 0.930 . S
H319 C336 0.930 . S
H320 C308 0.930 . S
H321 C309 0.930 . S
H322 C303 0.929 . S
H323 C341 0.930 . S
H324 C332 0.930 . S
H325 C333 0.930 . S
H326 C357 0.929 . S
H327 C315 0.930 . S
H328 C316 0.929 . S
H329 C358 0.930 . S
H330 C339 0.930 . S
N331 Gd300 2.661 . S
N331 C335 1.350 . S
N331 C336 1.307 . S
C332 H324 0.930 . S
C332 C333 1.355 . S
C332 C334 1.412 . S
C333 H325 0.930 . S
C333 C332 1.355 . S
C333 C336 1.402 . S
C334 C332 1.412 . S
C334 C335 1.417 . S
C334 C358 1.431 . S
C335 N331 1.350 . S
C335 C334 1.417 . S
C335 C338 1.426 . S
C336 H319 0.930 . S
C336 N331 1.307 . S
C336 C333 1.402 . S
N337 Gd300 2.601 . S
N337 C338 1.359 . S
N337 C341 1.334 . S
C338 C335 1.426 . S
C338 N337 1.359 . S
C338 C342 1.413 . S
C339 H330 0.930 . S
C339 C340 1.359 . S
C339 C341 1.394 . S
C340 C339 1.359 . S
C340 C342 1.391 . S
C340 H343 0.929 . S
C341 H323 0.930 . S
C341 N337 1.334 . S
C341 C339 1.394 . S
C342 C338 1.413 . S
C342 C340 1.391 . S
C342 C357 1.437 . S
H343 C340 0.929 . S
O344 Gd300 2.545 . S
O344 C359 1.258 . S
O345 Gd300 2.606 1_455 S
O345 Gd301 2.362 1_554 S
O345 C356 1.284 . S
O346 Gd301 2.324 1_655 S
O346 C366 1.254 1_556 S
O347 Gd300 2.429 . S
O347 C366 1.268 . S
O348 Gd300 2.545 1_455 S
O348 C356 1.250 . S
O349 Gd300 2.412 1_455 S
O349 C359 1.252 1_455 S
O350 Gd301 2.545 . S
O350 C368 1.258 . S
O351 Gd300 2.362 . S
O351 Gd301 2.606 1_654 S
O351 C367 1.284 1_554 S
O352 Gd300 2.324 1_455 S
O352 C375 1.254 . S
O353 Gd301 2.407 1_554 S
O353 C375 1.311 . S
O354 Gd301 2.545 1_655 S
O354 C367 1.250 . S
O355 Gd301 2.416 . S
O355 C368 1.251 . S
C356 O345 1.284 . S
C356 O348 1.250 . S
C357 H326 0.929 . S
C357 C342 1.437 . S
C357 C358 1.317 . S
C358 H329 0.930 . S
C358 C334 1.431 . S
C358 C357 1.317 . S
C359 Gd300 2.828 . S
C359 O344 1.258 . S
C359 O349 1.252 1_655 S
C359 C360 1.497 1_655 S
C360 C359 1.497 1_455 S
C360 C361 1.395 1_455 S
C360 C362 1.380 . S
C361 C360 1.395 1_655 S
C361 C364 1.398 . S
C361 H376 0.930 . S
C362 C360 1.380 . S
C362 C363 1.391 . S
C362 H377 0.930 . S
C363 C362 1.391 . S
C363 C365 1.387 . S
C364 C361 1.398 . S
C364 C365 1.380 1_655 S
C364 H378 0.930 . S
C365 C363 1.387 . S
C365 C364 1.380 1_455 S
C365 H379 0.930 . S
C366 O346 1.254 1_554 S
C366 O347 1.268 . S
C367 O351 1.284 1_556 S
C367 O354 1.250 . S
C368 Gd301 2.828 . S
C368 O350 1.258 . S
C368 O355 1.251 . S
C368 C369 1.497 . S
C369 C368 1.497 . S
C369 C370 1.395 . S
C369 C371 1.380 1_455 S
C370 C369 1.395 . S
C370 C373 1.398 . S
C370 H380 0.930 . S
C371 C369 1.380 1_655 S
C371 C372 1.391 . S
C371 H381 0.930 . S
C372 C371 1.391 . S
C372 C374 1.387 . S
C373 C370 1.398 . S
C373 C374 1.380 1_455 S
C373 H382 0.930 . S
C374 C372 1.387 . S
C374 C373 1.380 1_655 S
C374 H383 0.930 . S
C375 O352 1.254 . S
C375 O353 1.311 . S
H376 C361 0.930 . S
H377 C362 0.930 . S
H378 C364 0.930 . S
H379 C365 0.930 . S
H380 C370 0.930 . S
H381 C371 0.930 . S
H382 C373 0.930 . S
H383 C374 0.930 . S
Gd384 N415 2.661 . S
Gd384 N421 2.601 . S
Gd384 O428 2.545 . S
Gd384 O429 2.606 1_556 S
Gd384 O431 2.429 1_556 S
Gd384 O432 2.545 . S
Gd384 O433 2.412 . S
Gd384 O435 2.362 1_556 S
Gd384 O436 2.324 . S
Gd384 C443 2.828 . S
Gd385 N394 2.661 . S
Gd385 N398 2.601 . S
Gd385 O429 2.362 . S
Gd385 O430 2.324 . S
Gd385 O434 2.545 . S
Gd385 O435 2.606 . S
Gd385 O437 2.429 . S
Gd385 O438 2.545 . S
Gd385 O439 2.412 . S
Gd385 C452 2.828 . S
C386 C389 1.417 . S
C386 C391 1.431 . S
C386 C392 1.412 . S
C387 C390 1.437 . S
C387 C391 1.317 . S
C387 H406 0.929 . S
C388 C389 1.426 . S
C388 C390 1.413 . S
C388 N398 1.359 . S
C389 C386 1.417 . S
C389 C388 1.426 . S
C389 N394 1.350 . S
C390 C387 1.437 . S
C390 C388 1.413 . S
C390 C400 1.391 . S
C391 C386 1.431 . S
C391 C387 1.317 . S
C391 H402 0.930 . S
C392 C386 1.412 . S
C392 C393 1.355 . S
C392 H404 0.930 . S
C393 C392 1.355 . S
C393 C395 1.402 . S
C393 H405 0.930 . S
N394 Gd385 2.661 . S
N394 C389 1.350 . S
N394 C395 1.307 . S
C395 C393 1.402 . S
C395 N394 1.307 . S
C395 H396 0.930 . S
H396 C395 0.930 . S
C397 N398 1.334 . S
C397 C399 1.394 . S
C397 H401 0.930 . S
N398 Gd385 2.601 . S
N398 C388 1.359 . S
N398 C397 1.334 . S
C399 C397 1.394 . S
C399 C400 1.359 . S
C399 H411 0.930 . S
C400 C390 1.391 . S
C400 C399 1.359 . S
C400 H412 0.929 . S
H401 C397 0.930 . S
H402 C391 0.930 . S
H403 C420 0.930 . S
H404 C392 0.930 . S
H405 C393 0.930 . S
H406 C387 0.929 . S
H407 C425 0.930 . S
H408 C416 0.930 . S
H409 C417 0.930 . S
H410 C441 0.929 . S
H411 C399 0.930 . S
H412 C400 0.929 . S
H413 C442 0.930 . S
H414 C423 0.930 . S
N415 Gd384 2.661 . S
N415 C419 1.350 . S
N415 C420 1.307 . S
C416 H408 0.930 . S
C416 C417 1.355 . S
C416 C418 1.412 . S
C417 H409 0.930 . S
C417 C416 1.355 . S
C417 C420 1.402 . S
C418 C416 1.412 . S
C418 C419 1.417 . S
C418 C442 1.431 . S
C419 N415 1.350 . S
C419 C418 1.417 . S
C419 C422 1.426 . S
C420 H403 0.930 . S
C420 N415 1.307 . S
C420 C417 1.402 . S
N421 Gd384 2.601 . S
N421 C422 1.359 . S
N421 C425 1.334 . S
C422 C419 1.426 . S
C422 N421 1.359 . S
C422 C426 1.413 . S
C423 H414 0.930 . S
C423 C424 1.359 . S
C423 C425 1.394 . S
C424 C423 1.359 . S
C424 C426 1.391 . S
C424 H427 0.929 . S
C425 H407 0.930 . S
C425 N421 1.334 . S
C425 C423 1.394 . S
C426 C422 1.413 . S
C426 C424 1.391 . S
C426 C441 1.437 . S
H427 C424 0.929 . S
O428 Gd384 2.545 . S
O428 C443 1.258 . S
O429 Gd384 2.606 1_554 S
O429 Gd385 2.362 . S
O429 C440 1.284 1_554 S
O430 Gd385 2.324 . S
O430 C450 1.254 . S
O431 Gd384 2.429 1_554 S
O431 C450 1.268 . S
O432 Gd384 2.545 . S
O432 C440 1.250 . S
O433 Gd384 2.412 . S
O433 C443 1.252 . S
O434 Gd385 2.545 . S
O434 C452 1.258 . S
O435 Gd384 2.362 1_554 S
O435 Gd385 2.606 . S
O435 C451 1.284 . S
O436 Gd384 2.324 . S
O436 C459 1.254 1_556 S
O437 Gd385 2.429 . S
O437 C459 1.268 . S
O438 Gd385 2.545 . S
O438 C451 1.250 . S
O439 Gd385 2.412 . S
O439 C452 1.252 . S
C440 O429 1.284 1_556 S
C440 O432 1.250 . S
C441 H410 0.929 . S
C441 C426 1.437 . S
C441 C442 1.317 . S
C442 H413 0.930 . S
C442 C418 1.431 . S
C442 C441 1.317 . S
C443 Gd384 2.828 . S
C443 O428 1.258 . S
C443 O433 1.252 . S
C443 C444 1.497 . S
C444 C443 1.497 . S
C444 C445 1.395 . S
C444 C446 1.380 . S
C445 C444 1.395 . S
C445 C448 1.398 . S
C445 H460 0.930 . S
C446 C444 1.380 . S
C446 C447 1.391 . S
C446 H461 0.930 . S
C447 C446 1.391 . S
C447 C449 1.387 . S
C448 C445 1.398 . S
C448 C449 1.380 . S
C448 H462 0.930 . S
C449 C447 1.387 . S
C449 C448 1.380 . S
C449 H463 0.930 . S
C450 O430 1.254 . S
C450 O431 1.268 . S
C451 O435 1.284 . S
C451 O438 1.250 . S
C452 Gd385 2.828 . S
C452 O434 1.258 . S
C452 O439 1.252 . S
C452 C453 1.497 . S
C453 C452 1.497 . S
C453 C454 1.395 . S
C453 C455 1.380 . S
C454 C453 1.395 . S
C454 C457 1.398 . S
C454 H464 0.930 . S
C455 C453 1.380 . S
C455 C456 1.391 . S
C455 H465 0.930 . S
C456 C455 1.391 . S
C456 C458 1.387 . S
C457 C454 1.398 . S
C457 C458 1.380 . S
C457 H466 0.930 . S
C458 C456 1.387 . S
C458 C457 1.380 . S
C458 H467 0.930 . S
C459 O436 1.254 1_554 S
C459 O437 1.268 . S
H460 C445 0.930 . S
H461 C446 0.930 . S
H462 C448 0.930 . S
H463 C449 0.930 . S
H464 C454 0.930 . S
H465 C455 0.930 . S
H466 C457 0.930 . S
H467 C458 0.930 . S
Gd468 N499 2.661 . S
Gd468 N505 2.601 . S
Gd468 O512 2.545 . S
Gd468 O513 2.606 . S
Gd468 O515 2.429 . S
Gd468 O516 2.545 . S
Gd468 O517 2.412 . S
Gd468 O519 2.362 . S
Gd468 O520 2.324 . S
Gd468 C527 2.828 . S
Gd469 N478 2.661 . S
Gd469 N482 2.601 . S
Gd469 O513 2.362 . S
Gd469 O514 2.324 . S
Gd469 O518 2.545 . S
Gd469 O519 2.606 . S
Gd469 O521 2.429 . S
Gd469 O522 2.545 . S
Gd469 O523 2.412 . S
Gd469 C536 2.828 . S
C470 C473 1.417 . S
C470 C475 1.431 . S
C470 C476 1.412 . S
C471 C474 1.437 . S
C471 C475 1.317 . S
C471 H490 0.929 . S
C472 C473 1.426 . S
C472 C474 1.413 . S
C472 N482 1.359 . S
C473 C470 1.417 . S
C473 C472 1.426 . S
C473 N478 1.350 . S
C474 C471 1.437 . S
C474 C472 1.413 . S
C474 C484 1.391 . S
C475 C470 1.431 . S
C475 C471 1.317 . S
C475 H486 0.945 . S
C476 C470 1.412 . S
C476 C477 1.355 . S
C476 H488 0.886 1_455 S
C477 C476 1.355 . S
C477 C479 1.402 . S
C477 H489 0.930 . S
N478 Gd469 2.661 . S
N478 C473 1.350 . S
N478 C479 1.307 . S
C479 C477 1.402 . S
C479 N478 1.307 . S
C479 H480 0.930 . S
H480 C479 0.930 . S
C481 N482 1.334 . S
C481 C483 1.394 . S
C481 H485 0.930 . S
N482 Gd469 2.601 . S
N482 C472 1.359 . S
N482 C481 1.334 . S
C483 C481 1.394 . S
C483 C484 1.359 . S
C483 H495 0.930 . S
C484 C474 1.391 . S
C484 C483 1.359 . S
C484 H496 0.929 . S
H485 C481 0.930 . S
H486 C475 0.945 . S
H487 C504 0.930 . S
H488 C476 0.886 1_655 S
H489 C477 0.930 . S
H490 C471 0.929 . S
H491 C509 0.930 . S
H492 C500 0.930 . S
H493 C501 0.930 . S
H494 C525 0.929 . S
H495 C483 0.930 . S
H496 C484 0.929 . S
H497 C526 0.930 . S
H498 C507 0.930 . S
N499 Gd468 2.661 . S
N499 C503 1.350 . S
N499 C504 1.307 . S
C500 H492 0.930 . S
C500 C501 1.355 . S
C500 C502 1.412 . S
C501 H493 0.930 . S
C501 C500 1.355 . S
C501 C504 1.402 . S
C502 C500 1.412 . S
C502 C503 1.417 . S
C502 C526 1.431 . S
C503 N499 1.350 . S
C503 C502 1.417 . S
C503 C506 1.426 . S
C504 H487 0.930 . S
C504 N499 1.307 . S
C504 C501 1.402 . S
N505 Gd468 2.601 . S
N505 C506 1.359 . S
N505 C509 1.334 . S
C506 C503 1.426 . S
C506 N505 1.359 . S
C506 C510 1.413 . S
C507 H498 0.930 . S
C507 C508 1.359 . S
C507 C509 1.394 . S
C508 C507 1.359 . S
C508 C510 1.391 . S
C508 H511 0.929 . S
C509 H491 0.930 . S
C509 N505 1.334 . S
C509 C507 1.394 . S
C510 C506 1.413 . S
C510 C508 1.391 . S
C510 C525 1.437 . S
H511 C508 0.929 . S
O512 Gd468 2.545 . S
O512 C527 1.258 . S
O513 Gd468 2.606 . S
O513 Gd469 2.362 . S
O513 C524 1.284 . S
O514 Gd469 2.324 . S
O514 C534 1.254 . S
O515 Gd468 2.429 . S
O515 C534 1.268 . S
O516 Gd468 2.545 . S
O516 C524 1.250 . S
O517 Gd468 2.412 . S
O517 C527 1.252 . S
O518 Gd469 2.545 . S
O518 C536 1.258 . S
O519 Gd468 2.362 . S
O519 Gd469 2.606 . S
O519 C535 1.284 . S
O520 Gd468 2.324 . S
O520 C543 1.254 . S
O521 Gd469 2.429 . S
O521 C543 1.268 . S
O522 Gd469 2.545 . S
O522 C535 1.250 . S
O523 Gd469 2.412 . S
O523 C536 1.252 . S
C524 O513 1.284 . S
C524 O516 1.250 . S
C525 H494 0.929 . S
C525 C510 1.437 . S
C525 C526 1.317 . S
C526 H497 0.930 . S
C526 C502 1.431 . S
C526 C525 1.317 . S
C527 Gd468 2.828 . S
C527 O512 1.258 . S
C527 O517 1.252 . S
C527 C528 1.497 . S
C528 C527 1.497 . S
C528 C529 1.395 . S
C528 C530 1.380 . S
C529 C528 1.395 . S
C529 C532 1.398 . S
C529 H544 0.930 . S
C530 C528 1.380 . S
C530 C531 1.391 . S
C530 H545 0.930 . S
C531 C530 1.391 . S
C531 C533 1.387 . S
C532 C529 1.398 . S
C532 C533 1.380 . S
C532 H546 0.930 . S
C533 C531 1.387 . S
C533 C532 1.380 . S
C533 H547 0.930 . S
C534 O514 1.254 . S
C534 O515 1.268 . S
C535 O519 1.284 . S
C535 O522 1.250 . S
C536 Gd469 2.828 . S
C536 O518 1.258 . S
C536 O523 1.252 . S
C536 C537 1.497 . S
C537 C536 1.497 . S
C537 C538 1.395 . S
C537 C539 1.380 . S
C538 C537 1.395 . S
C538 C541 1.398 . S
C538 H548 0.930 . S
C539 C537 1.380 . S
C539 C540 1.391 . S
C539 H549 0.930 . S
C540 C539 1.391 . S
C540 C542 1.387 . S
C541 C538 1.398 . S
C541 C542 1.380 . S
C541 H550 0.930 . S
C542 C540 1.387 . S
C542 C541 1.380 . S
C542 H551 0.930 . S
C543 O520 1.254 . S
C543 O521 1.268 . S
H544 C529 0.930 . S
H545 C530 0.930 . S
H546 C532 0.930 . S
H547 C533 0.930 . S
H548 C538 0.930 . S
H549 C539 0.930 . S
H550 C541 0.930 . S
H551 C542 0.930 . S
Gd552 N583 2.661 . S
Gd552 N589 2.601 . S
Gd552 O596 2.545 . S
Gd552 O597 2.606 . S
Gd552 O599 2.429 . S
Gd552 O600 2.545 . S
Gd552 O601 2.412 . S
Gd552 O603 2.362 . S
Gd552 O604 2.324 . S
Gd552 C611 2.828 . S
Gd553 N562 2.661 . S
Gd553 N566 2.601 . S
Gd553 O597 2.362 . S
Gd553 O598 2.324 . S
Gd553 O602 2.545 . S
Gd553 O603 2.606 . S
Gd553 O605 2.429 . S
Gd553 O606 2.545 . S
Gd553 O607 2.412 . S
Gd553 C620 2.828 . S
C554 C557 1.417 . S
C554 C559 1.431 . S
C554 C560 1.412 . S
C555 C558 1.437 . S
C555 C559 1.317 . S
C555 H574 0.929 . S
C556 C557 1.426 . S
C556 C558 1.413 . S
C556 N566 1.359 . S
C557 C554 1.417 . S
C557 C556 1.426 . S
C557 N562 1.350 . S
C558 C555 1.437 . S
C558 C556 1.413 . S
C558 C568 1.391 . S
C559 C554 1.431 . S
C559 C555 1.317 . S
C559 H570 0.930 . S
C560 C554 1.412 . S
C560 C561 1.355 . S
C560 H572 0.930 . S
C561 C560 1.355 . S
C561 C563 1.402 . S
C561 H573 0.930 . S
N562 Gd553 2.661 . S
N562 C557 1.350 . S
N562 C563 1.307 . S
C563 C561 1.402 . S
C563 N562 1.307 . S
C563 H564 0.930 . S
H564 C563 0.930 . S
C565 N566 1.334 . S
C565 C567 1.394 . S
C565 H569 0.930 . S
N566 Gd553 2.601 . S
N566 C556 1.359 . S
N566 C565 1.334 . S
C567 C565 1.394 . S
C567 C568 1.359 . S
C567 H579 0.930 . S
C568 C558 1.391 . S
C568 C567 1.359 . S
C568 H580 0.929 . S
H569 C565 0.930 . S
H570 C559 0.930 . S
H571 C588 0.930 . S
H572 C560 0.930 . S
H573 C561 0.930 . S
H574 C555 0.929 . S
H575 C593 0.930 . S
H576 C584 0.930 . S
H577 C585 0.930 . S
H578 C609 0.929 . S
H579 C567 0.930 . S
H580 C568 0.929 . S
H581 C610 0.930 . S
H582 C591 0.930 . S
N583 Gd552 2.661 . S
N583 C587 1.350 . S
N583 C588 1.307 . S
C584 H576 0.930 . S
C584 C585 1.355 . S
C584 C586 1.412 . S
C585 H577 0.930 . S
C585 C584 1.355 . S
C585 C588 1.402 . S
C586 C584 1.412 . S
C586 C587 1.417 . S
C586 C610 1.431 . S
C587 N583 1.350 . S
C587 C586 1.417 . S
C587 C590 1.426 . S
C588 H571 0.930 . S
C588 N583 1.307 . S
C588 C585 1.402 . S
N589 Gd552 2.601 . S
N589 C590 1.359 . S
N589 C593 1.334 . S
C590 C587 1.426 . S
C590 N589 1.359 . S
C590 C594 1.413 . S
C591 H582 0.930 . S
C591 C592 1.359 . S
C591 C593 1.394 . S
C592 C591 1.359 . S
C592 C594 1.391 . S
C592 H595 0.929 . S
C593 H575 0.930 . S
C593 N589 1.334 . S
C593 C591 1.394 . S
C594 C590 1.413 . S
C594 C592 1.391 . S
C594 C609 1.437 . S
H595 C592 0.929 . S
O596 Gd552 2.545 . S
O596 C611 1.258 . S
O597 Gd552 2.606 . S
O597 Gd553 2.362 . S
O597 C608 1.284 . S
O598 Gd553 2.324 . S
O598 C618 1.254 . S
O599 Gd552 2.429 . S
O599 C618 1.268 . S
O600 Gd552 2.545 . S
O600 C608 1.250 . S
O601 Gd552 2.412 . S
O601 C611 1.252 . S
O602 Gd553 2.545 . S
O602 C620 1.258 . S
O603 Gd552 2.362 . S
O603 Gd553 2.606 . S
O603 C619 1.284 . S
O604 Gd552 2.324 . S
O604 C627 1.254 . S
O605 Gd553 2.429 . S
O605 C627 1.268 . S
O606 Gd553 2.545 . S
O606 C619 1.250 . S
O607 Gd553 2.412 . S
O607 C620 1.252 . S
C608 O597 1.284 . S
C608 O600 1.250 . S
C609 H578 0.929 . S
C609 C594 1.437 . S
C609 C610 1.317 . S
C610 H581 0.930 . S
C610 C586 1.431 . S
C610 C609 1.317 . S
C611 Gd552 2.828 . S
C611 O596 1.258 . S
C611 O601 1.252 . S
C611 C612 1.497 . S
C612 C611 1.497 . S
C612 C613 1.395 . S
C612 C614 1.380 . S
C613 C612 1.395 . S
C613 C616 1.398 . S
C613 H628 0.930 . S
C614 C612 1.380 . S
C614 C615 1.391 . S
C614 H629 0.930 . S
C615 C614 1.391 . S
C615 C617 1.387 . S
C616 C613 1.398 . S
C616 C617 1.380 . S
C616 H630 0.930 . S
C617 C615 1.387 . S
C617 C616 1.380 . S
C617 H631 0.930 . S
C618 O598 1.254 . S
C618 O599 1.268 . S
C619 O603 1.284 . S
C619 O606 1.250 . S
C620 Gd553 2.828 . S
C620 O602 1.258 . S
C620 O607 1.252 . S
C620 C621 1.497 . S
C621 C620 1.497 . S
C621 C622 1.395 . S
C621 C623 1.380 . S
C622 C621 1.395 . S
C622 C625 1.398 . S
C622 H632 0.930 . S
C623 C621 1.380 . S
C623 C624 1.391 . S
C623 H633 0.930 . S
C624 C623 1.391 . S
C624 C626 1.387 . S
C625 C622 1.398 . S
C625 C626 1.380 . S
C625 H634 0.930 . S
C626 C624 1.387 . S
C626 C625 1.380 . S
C626 H635 0.930 . S
C627 O604 1.254 . S
C627 O605 1.268 . S
H628 C613 0.930 . S
H629 C614 0.930 . S
H630 C616 0.930 . S
H631 C617 0.930 . S
H632 C622 0.930 . S
H633 C623 0.930 . S
H634 C625 0.930 . S
H635 C626 0.930 . S
Gd636 N667 2.661 . S
Gd636 N673 2.601 . S
Gd636 O680 2.545 . S
Gd636 O681 2.606 . S
Gd636 O683 2.429 . S
Gd636 O684 2.545 . S
Gd636 O685 2.412 . S
Gd636 O687 2.362 . S
Gd636 O688 2.324 . S
Gd636 C695 2.828 . S
Gd637 N646 2.661 . S
Gd637 N650 2.601 . S
Gd637 O681 2.362 . S
Gd637 O682 2.324 . S
Gd637 O686 2.545 . S
Gd637 O687 2.606 . S
Gd637 O689 2.429 . S
Gd637 O690 2.545 . S
Gd637 O691 2.412 . S
Gd637 C704 2.828 . S
C638 C641 1.417 . S
C638 C643 1.431 . S
C638 C644 1.412 . S
C639 C642 1.437 . S
C639 C643 1.317 . S
C639 H658 0.929 . S
C640 C641 1.426 . S
C640 C642 1.413 . S
C640 N650 1.359 . S
C641 C638 1.417 . S
C641 C640 1.426 . S
C641 N646 1.350 . S
C642 C639 1.437 . S
C642 C640 1.413 . S
C642 C652 1.391 . S
C643 C638 1.431 . S
C643 C639 1.317 . S
C643 H654 0.930 . S
C644 C638 1.412 . S
C644 C645 1.355 . S
C644 H656 0.930 . S
C645 C644 1.355 . S
C645 C647 1.402 . S
C645 H657 0.930 . S
N646 Gd637 2.661 . S
N646 C641 1.350 . S
N646 C647 1.307 . S
C647 C645 1.402 . S
C647 N646 1.307 . S
C647 H648 0.930 . S
H648 C647 0.930 . S
C649 N650 1.334 . S
C649 C651 1.394 . S
C649 H653 0.930 . S
N650 Gd637 2.601 . S
N650 C640 1.359 . S
N650 C649 1.334 . S
C651 C649 1.394 . S
C651 C652 1.359 . S
C651 H663 0.930 . S
C652 C642 1.391 . S
C652 C651 1.359 . S
C652 H664 0.929 . S
H653 C649 0.930 . S
H654 C643 0.930 . S
H655 C672 0.930 . S
H656 C644 0.930 . S
H657 C645 0.930 . S
H658 C639 0.929 . S
H659 C677 0.930 . S
H660 C668 0.930 . S
H661 C669 0.930 . S
H662 C693 0.929 . S
H663 C651 0.930 . S
H664 C652 0.929 . S
H665 C694 0.930 . S
H666 C675 0.930 . S
N667 Gd636 2.661 . S
N667 C671 1.350 . S
N667 C672 1.307 . S
C668 H660 0.930 . S
C668 C669 1.355 . S
C668 C670 1.412 . S
C669 H661 0.930 . S
C669 C668 1.355 . S
C669 C672 1.402 . S
C670 C668 1.412 . S
C670 C671 1.417 . S
C670 C694 1.431 . S
C671 N667 1.350 . S
C671 C670 1.417 . S
C671 C674 1.426 . S
C672 H655 0.930 . S
C672 N667 1.307 . S
C672 C669 1.402 . S
N673 Gd636 2.601 . S
N673 C674 1.359 . S
N673 C677 1.334 . S
C674 C671 1.426 . S
C674 N673 1.359 . S
C674 C678 1.413 . S
C675 H666 0.930 . S
C675 C676 1.359 . S
C675 C677 1.394 . S
C676 C675 1.359 . S
C676 C678 1.391 . S
C676 H679 0.929 . S
C677 H659 0.930 . S
C677 N673 1.334 . S
C677 C675 1.394 . S
C678 C674 1.413 . S
C678 C676 1.391 . S
C678 C693 1.437 . S
H679 C676 0.929 . S
O680 Gd636 2.545 . S
O680 C695 1.258 . S
O681 Gd636 2.606 . S
O681 Gd637 2.362 . S
O681 C692 1.284 . S
O682 Gd637 2.324 . S
O682 C702 1.254 . S
O683 Gd636 2.429 . S
O683 C702 1.268 . S
O684 Gd636 2.545 . S
O684 C692 1.250 . S
O685 Gd636 2.412 . S
O685 C695 1.252 . S
O686 Gd637 2.545 . S
O686 C704 1.258 . S
O687 Gd636 2.362 . S
O687 Gd637 2.606 . S
O687 C703 1.284 . S
O688 Gd636 2.324 . S
O688 C711 1.254 . S
O689 Gd637 2.429 . S
O689 C711 1.268 . S
O690 Gd637 2.545 . S
O690 C703 1.250 . S
O691 Gd637 2.412 . S
O691 C704 1.252 . S
C692 O681 1.284 . S
C692 O684 1.250 . S
C693 H662 0.929 . S
C693 C678 1.437 . S
C693 C694 1.317 . S
C694 H665 0.930 . S
C694 C670 1.431 . S
C694 C693 1.317 . S
C695 Gd636 2.828 . S
C695 O680 1.258 . S
C695 O685 1.252 . S
C695 C696 1.497 . S
C696 C695 1.497 . S
C696 C697 1.395 . S
C696 C698 1.380 . S
C697 C696 1.395 . S
C697 C700 1.398 . S
C697 H712 0.930 . S
C698 C696 1.380 . S
C698 C699 1.391 . S
C698 H713 0.930 . S
C699 C698 1.391 . S
C699 C701 1.387 . S
C700 C697 1.398 . S
C700 C701 1.380 . S
C700 H714 0.930 . S
C701 C699 1.387 . S
C701 C700 1.380 . S
C701 H715 0.930 . S
C702 O682 1.254 . S
C702 O683 1.268 . S
C703 O687 1.284 . S
C703 O690 1.250 . S
C704 Gd637 2.828 . S
C704 O686 1.258 . S
C704 O691 1.252 . S
C704 C705 1.497 . S
C705 C704 1.497 . S
C705 C706 1.395 . S
C705 C707 1.380 . S
C706 C705 1.395 . S
C706 C709 1.398 . S
C706 H716 0.930 . S
C707 C705 1.380 . S
C707 C708 1.391 . S
C707 H717 0.930 . S
C708 C707 1.391 . S
C708 C710 1.387 . S
C709 C706 1.398 . S
C709 C710 1.380 . S
C709 H718 0.930 . S
C710 C708 1.387 . S
C710 C709 1.380 . S
C710 H719 0.930 . S
C711 O688 1.254 . S
C711 O689 1.268 . S
H712 C697 0.930 . S
H713 C698 0.930 . S
H714 C700 0.930 . S
H715 C701 0.930 . S
H716 C706 0.930 . S
H717 C707 0.930 . S
H718 C709 0.930 . S
H719 C710 0.930 . S
Gd720 N751 2.661 . S
Gd720 N757 2.601 . S
Gd720 O764 2.545 . S
Gd720 O765 2.606 . S
Gd720 O767 2.429 . S
Gd720 O768 2.545 . S
Gd720 O769 2.412 . S
Gd720 O771 2.362 . S
Gd720 O772 2.324 . S
Gd720 C779 2.828 . S
Gd721 N730 2.661 . S
Gd721 N734 2.601 . S
Gd721 O765 2.362 . S
Gd721 O766 2.324 . S
Gd721 O770 2.545 . S
Gd721 O771 2.606 . S
Gd721 O773 2.429 . S
Gd721 O774 2.545 . S
Gd721 O775 2.412 . S
Gd721 C788 2.828 . S
C722 C725 1.417 . S
C722 C727 1.431 . S
C722 C728 1.412 . S
C723 C726 1.437 . S
C723 C727 1.317 . S
C723 H742 0.929 . S
C724 C725 1.426 . S
C724 C726 1.413 . S
C724 N734 1.359 . S
C725 C722 1.417 . S
C725 C724 1.426 . S
C725 N730 1.350 . S
C726 C723 1.437 . S
C726 C724 1.413 . S
C726 C736 1.391 . S
C727 C722 1.431 . S
C727 C723 1.317 . S
C727 H738 0.930 . S
C728 C722 1.412 . S
C728 C729 1.355 . S
C728 H740 0.930 . S
C729 C728 1.355 . S
C729 C731 1.402 . S
C729 H741 0.930 . S
N730 Gd721 2.661 . S
N730 C725 1.350 . S
N730 C731 1.307 . S
C731 C729 1.402 . S
C731 N730 1.307 . S
C731 H732 0.930 . S
H732 C731 0.930 . S
C733 N734 1.334 . S
C733 C735 1.394 . S
C733 H737 0.930 . S
N734 Gd721 2.601 . S
N734 C724 1.359 . S
N734 C733 1.334 . S
C735 C733 1.394 . S
C735 C736 1.359 . S
C735 H747 0.930 . S
C736 C726 1.391 . S
C736 C735 1.359 . S
C736 H748 0.929 . S
H737 C733 0.930 . S
H738 C727 0.930 . S
H739 C756 0.930 . S
H740 C728 0.930 . S
H741 C729 0.930 . S
H742 C723 0.929 . S
H743 C761 0.930 . S
H744 C752 0.930 . S
H745 C753 0.930 . S
H746 C777 0.929 . S
H747 C735 0.930 . S
H748 C736 0.929 . S
H749 C778 0.930 . S
H750 C759 0.930 . S
N751 Gd720 2.661 . S
N751 C755 1.350 . S
N751 C756 1.307 . S
C752 H744 0.930 . S
C752 C753 1.355 . S
C752 C754 1.412 . S
C753 H745 0.930 . S
C753 C752 1.355 . S
C753 C756 1.402 . S
C754 C752 1.412 . S
C754 C755 1.417 . S
C754 C778 1.431 . S
C755 N751 1.350 . S
C755 C754 1.417 . S
C755 C758 1.426 . S
C756 H739 0.930 . S
C756 N751 1.307 . S
C756 C753 1.402 . S
N757 Gd720 2.601 . S
N757 C758 1.359 . S
N757 C761 1.334 . S
C758 C755 1.426 . S
C758 N757 1.359 . S
C758 C762 1.413 . S
C759 H750 0.930 . S
C759 C760 1.359 . S
C759 C761 1.394 . S
C760 C759 1.359 . S
C760 C762 1.391 . S
C760 H763 0.929 . S
C761 H743 0.930 . S
C761 N757 1.334 . S
C761 C759 1.394 . S
C762 C758 1.413 . S
C762 C760 1.391 . S
C762 C777 1.437 . S
H763 C760 0.929 . S
O764 Gd720 2.545 . S
O764 C779 1.258 . S
O765 Gd720 2.606 . S
O765 Gd721 2.362 . S
O765 C776 1.284 . S
O766 Gd721 2.324 . S
O766 C786 1.254 . S
O767 Gd720 2.429 . S
O767 C786 1.268 . S
O768 Gd720 2.545 . S
O768 C776 1.250 . S
O769 Gd720 2.412 . S
O769 C779 1.252 . S
O770 Gd721 2.545 . S
O770 C788 1.258 . S
O771 Gd720 2.362 . S
O771 Gd721 2.606 . S
O771 C787 1.284 . S
O772 Gd720 2.324 . S
O772 C795 1.254 . S
O773 Gd721 2.429 . S
O773 C795 1.268 . S
O774 Gd721 2.545 . S
O774 C787 1.250 . S
O775 Gd721 2.412 . S
O775 C788 1.252 . S
C776 O765 1.284 . S
C776 O768 1.250 . S
C777 H746 0.929 . S
C777 C762 1.437 . S
C777 C778 1.317 . S
C778 H749 0.930 . S
C778 C754 1.431 . S
C778 C777 1.317 . S
C779 Gd720 2.828 . S
C779 O764 1.258 . S
C779 O769 1.252 . S
C779 C780 1.497 . S
C780 C779 1.497 . S
C780 C781 1.395 . S
C780 C782 1.380 . S
C781 C780 1.395 . S
C781 C784 1.398 . S
C781 H796 0.930 . S
C782 C780 1.380 . S
C782 C783 1.391 . S
C782 H797 0.930 . S
C783 C782 1.391 . S
C783 C785 1.387 . S
C784 C781 1.398 . S
C784 C785 1.380 . S
C784 H798 0.930 . S
C785 C783 1.387 . S
C785 C784 1.380 . S
C785 H799 0.930 . S
C786 O766 1.254 . S
C786 O767 1.268 . S
C787 O771 1.284 . S
C787 O774 1.250 . S
C788 Gd721 2.828 . S
C788 O770 1.258 . S
C788 O775 1.252 . S
C788 C789 1.497 . S
C789 C788 1.497 . S
C789 C790 1.395 . S
C789 C791 1.380 . S
C790 C789 1.395 . S
C790 C793 1.398 . S
C790 H800 0.930 . S
C791 C789 1.380 . S
C791 C792 1.391 . S
C791 H801 0.930 . S
C792 C791 1.391 . S
C792 C794 1.387 . S
C793 C790 1.398 . S
C793 C794 1.380 . S
C793 H802 0.930 . S
C794 C792 1.387 . S
C794 C793 1.380 . S
C794 H803 0.930 . S
C795 O772 1.254 . S
C795 O773 1.268 . S
H796 C781 0.930 . S
H797 C782 0.930 . S
H798 C784 0.930 . S
H799 C785 0.930 . S
H800 C790 0.930 . S
H801 C791 0.930 . S
H802 C793 0.930 . S
H803 C794 0.930 . S
Gd804 N835 2.661 . S
Gd804 N841 2.601 . S
Gd804 O848 2.545 . S
Gd804 O849 2.606 . S
Gd804 O851 2.429 . S
Gd804 O852 2.545 . S
Gd804 O853 2.412 . S
Gd804 O855 2.362 . S
Gd804 O856 2.324 . S
Gd804 C863 2.828 . S
Gd805 N814 2.661 . S
Gd805 N818 2.601 . S
Gd805 O849 2.362 . S
Gd805 O850 2.324 . S
Gd805 O854 2.545 . S
Gd805 O855 2.606 . S
Gd805 O857 2.429 . S
Gd805 O858 2.545 . S
Gd805 O859 2.412 . S
Gd805 C872 2.828 . S
C806 C809 1.417 . S
C806 C811 1.431 . S
C806 C812 1.412 . S
C807 C810 1.437 . S
C807 C811 1.317 . S
C807 H826 0.929 . S
C808 C809 1.426 . S
C808 C810 1.413 . S
C808 N818 1.359 . S
C809 C806 1.417 . S
C809 C808 1.426 . S
C809 N814 1.350 . S
C810 C807 1.437 . S
C810 C808 1.413 . S
C810 C820 1.391 . S
C811 C806 1.431 . S
C811 C807 1.317 . S
C811 H822 0.930 . S
C812 C806 1.412 . S
C812 C813 1.355 . S
C812 H824 0.930 . S
C813 C812 1.355 . S
C813 C815 1.402 . S
C813 H825 0.930 . S
N814 Gd805 2.661 . S
N814 C809 1.350 . S
N814 C815 1.307 . S
C815 C813 1.402 . S
C815 N814 1.307 . S
C815 H816 0.930 . S
H816 C815 0.930 . S
C817 N818 1.334 . S
C817 C819 1.394 . S
C817 H821 0.930 . S
N818 Gd805 2.601 . S
N818 C808 1.359 . S
N818 C817 1.334 . S
C819 C817 1.394 . S
C819 C820 1.359 . S
C819 H831 0.930 . S
C820 C810 1.391 . S
C820 C819 1.359 . S
C820 H832 0.929 . S
H821 C817 0.930 . S
H822 C811 0.930 . S
H823 C840 0.930 . S
H824 C812 0.930 . S
H825 C813 0.930 . S
H826 C807 0.929 . S
H827 C845 0.930 . S
H828 C836 0.930 . S
H829 C837 0.930 . S
H830 C861 0.929 . S
H831 C819 0.930 . S
H832 C820 0.929 . S
H833 C862 0.930 . S
H834 C843 0.930 . S
N835 Gd804 2.661 . S
N835 C839 1.350 . S
N835 C840 1.307 . S
C836 H828 0.930 . S
C836 C837 1.355 . S
C836 C838 1.412 . S
C837 H829 0.930 . S
C837 C836 1.355 . S
C837 C840 1.402 . S
C838 C836 1.412 . S
C838 C839 1.417 . S
C838 C862 1.431 . S
C839 N835 1.350 . S
C839 C838 1.417 . S
C839 C842 1.426 . S
C840 H823 0.930 . S
C840 N835 1.307 . S
C840 C837 1.402 . S
N841 Gd804 2.601 . S
N841 C842 1.359 . S
N841 C845 1.334 . S
C842 C839 1.426 . S
C842 N841 1.359 . S
C842 C846 1.413 . S
C843 H834 0.930 . S
C843 C844 1.359 . S
C843 C845 1.394 . S
C844 C843 1.359 . S
C844 C846 1.391 . S
C844 H847 0.929 . S
C845 H827 0.930 . S
C845 N841 1.334 . S
C845 C843 1.394 . S
C846 C842 1.413 . S
C846 C844 1.391 . S
C846 C861 1.437 . S
H847 C844 0.929 . S
O848 Gd804 2.545 . S
O848 C863 1.258 . S
O849 Gd804 2.606 . S
O849 Gd805 2.362 . S
O849 C860 1.284 . S
O850 Gd805 2.324 . S
O850 C870 1.254 . S
O851 Gd804 2.429 . S
O851 C870 1.268 . S
O852 Gd804 2.545 . S
O852 C860 1.250 . S
O853 Gd804 2.412 . S
O853 C863 1.252 . S
O854 Gd805 2.545 . S
O854 C872 1.258 . S
O855 Gd804 2.362 . S
O855 Gd805 2.606 . S
O855 C871 1.284 . S
O856 Gd804 2.324 . S
O856 C879 1.254 . S
O857 Gd805 2.429 . S
O857 C879 1.268 . S
O858 Gd805 2.545 . S
O858 C871 1.250 . S
O859 Gd805 2.412 . S
O859 C872 1.252 . S
C860 O849 1.284 . S
C860 O852 1.250 . S
C861 H830 0.929 . S
C861 C846 1.437 . S
C861 C862 1.317 . S
C862 H833 0.930 . S
C862 C838 1.431 . S
C862 C861 1.317 . S
C863 Gd804 2.828 . S
C863 O848 1.258 . S
C863 O853 1.252 . S
C863 C864 1.497 . S
C864 C863 1.497 . S
C864 C865 1.395 . S
C864 C866 1.380 . S
C865 C864 1.395 . S
C865 C868 1.398 . S
C865 H880 0.930 . S
C866 C864 1.380 . S
C866 C867 1.391 . S
C866 H881 0.930 . S
C867 C866 1.391 . S
C867 C869 1.387 . S
C868 C865 1.398 . S
C868 C869 1.380 . S
C868 H882 0.930 . S
C869 C867 1.387 . S
C869 C868 1.380 . S
C869 H883 0.930 . S
C870 O850 1.254 . S
C870 O851 1.268 . S
C871 O855 1.284 . S
C871 O858 1.250 . S
C872 Gd805 2.828 . S
C872 O854 1.258 . S
C872 O859 1.252 . S
C872 C873 1.497 . S
C873 C872 1.497 . S
C873 C874 1.395 . S
C873 C875 1.380 . S
C874 C873 1.395 . S
C874 C877 1.398 . S
C874 H884 0.930 . S
C875 C873 1.380 . S
C875 C876 1.391 . S
C875 H885 0.930 . S
C876 C875 1.391 . S
C876 C878 1.387 . S
C877 C874 1.398 . S
C877 C878 1.380 . S
C877 H886 0.930 . S
C878 C876 1.387 . S
C878 C877 1.380 . S
C878 H887 0.930 . S
C879 O856 1.254 . S
C879 O857 1.268 . S
H880 C865 0.930 . S
H881 C866 0.930 . S
H882 C868 0.930 . S
H883 C869 0.930 . S
H884 C874 0.930 . S
H885 C875 0.930 . S
H886 C877 0.930 . S
H887 C878 0.930 . S
Gd888 N919 2.661 . S
Gd888 N925 2.601 . S
Gd888 O932 2.545 . S
Gd888 O933 2.606 . S
Gd888 O935 2.429 . S
Gd888 O936 2.545 . S
Gd888 O937 2.412 . S
Gd888 O939 2.362 . S
Gd888 O940 2.324 . S
Gd888 C947 2.828 . S
Gd889 N898 2.661 . S
Gd889 N902 2.601 . S
Gd889 O933 2.362 . S
Gd889 O934 2.324 . S
Gd889 O938 2.545 . S
Gd889 O939 2.606 . S
Gd889 O941 2.429 . S
Gd889 O942 2.545 . S
Gd889 O943 2.412 . S
Gd889 C956 2.828 . S
C890 C893 1.417 . S
C890 C895 1.431 . S
C890 C896 1.412 . S
C891 C894 1.437 . S
C891 C895 1.317 . S
C891 H910 0.929 . S
C892 C893 1.426 . S
C892 C894 1.413 . S
C892 N902 1.359 . S
C893 C890 1.417 . S
C893 C892 1.426 . S
C893 N898 1.350 . S
C894 C891 1.437 . S
C894 C892 1.413 . S
C894 C904 1.391 . S
C895 C890 1.431 . S
C895 C891 1.317 . S
C895 H906 0.930 1_655 S
C896 C890 1.412 . S
C896 C897 1.355 . S
C896 H908 0.930 1_655 S
C897 C896 1.355 . S
C897 C899 1.402 . S
C897 H909 0.930 . S
N898 Gd889 2.661 . S
N898 C893 1.350 . S
N898 C899 1.307 . S
C899 C897 1.402 . S
C899 N898 1.307 . S
C899 H900 0.930 . S
H900 C899 0.930 . S
C901 N902 1.334 . S
C901 C903 1.394 . S
C901 H905 0.930 . S
N902 Gd889 2.601 . S
N902 C892 1.359 . S
N902 C901 1.334 . S
C903 C901 1.394 . S
C903 C904 1.359 . S
C903 H915 0.930 . S
C904 C894 1.391 . S
C904 C903 1.359 . S
C904 H916 0.929 . S
H905 C901 0.930 . S
H906 C895 0.930 1_455 S
H907 C924 0.930 . S
H908 C896 0.930 1_455 S
H909 C897 0.930 . S
H910 C891 0.929 . S
H911 C929 0.930 . S
H912 C920 0.930 . S
H913 C921 0.930 . S
H914 C945 0.929 . S
H915 C903 0.930 . S
H916 C904 0.929 . S
H917 C946 0.930 . S
H918 C927 0.930 . S
N919 Gd888 2.661 . S
N919 C923 1.350 . S
N919 C924 1.307 . S
C920 H912 0.930 . S
C920 C921 1.355 . S
C920 C922 1.412 . S
C921 H913 0.930 . S
C921 C920 1.355 . S
C921 C924 1.402 . S
C922 C920 1.412 . S
C922 C923 1.417 . S
C922 C946 1.431 . S
C923 N919 1.350 . S
C923 C922 1.417 . S
C923 C926 1.426 . S
C924 H907 0.930 . S
C924 N919 1.307 . S
C924 C921 1.402 . S
N925 Gd888 2.601 . S
N925 C926 1.359 . S
N925 C929 1.334 . S
C926 C923 1.426 . S
C926 N925 1.359 . S
C926 C930 1.413 . S
C927 H918 0.930 . S
C927 C928 1.359 . S
C927 C929 1.394 . S
C928 C927 1.359 . S
C928 C930 1.391 . S
C928 H931 0.929 . S
C929 H911 0.930 . S
C929 N925 1.334 . S
C929 C927 1.394 . S
C930 C926 1.413 . S
C930 C928 1.391 . S
C930 C945 1.437 . S
H931 C928 0.929 . S
O932 Gd888 2.545 . S
O932 C947 1.258 . S
O933 Gd888 2.606 . S
O933 Gd889 2.362 . S
O933 C944 1.284 . S
O934 Gd889 2.324 . S
O934 C954 1.254 . S
O935 Gd888 2.429 . S
O935 C954 1.268 . S
O936 Gd888 2.545 . S
O936 C944 1.250 . S
O937 Gd888 2.412 . S
O937 C947 1.252 . S
O938 Gd889 2.545 . S
O938 C956 1.258 . S
O939 Gd888 2.362 . S
O939 Gd889 2.606 . S
O939 C955 1.284 . S
O940 Gd888 2.324 . S
O940 C963 1.254 . S
O941 Gd889 2.429 . S
O941 C963 1.268 . S
O942 Gd889 2.545 . S
O942 C955 1.250 . S
O943 Gd889 2.412 . S
O943 C956 1.252 . S
C944 O933 1.284 . S
C944 O936 1.250 . S
C945 H914 0.929 . S
C945 C930 1.437 . S
C945 C946 1.317 . S
C946 H917 0.930 . S
C946 C922 1.431 . S
C946 C945 1.317 . S
C947 Gd888 2.828 . S
C947 O932 1.258 . S
C947 O937 1.252 . S
C947 C948 1.497 . S
C948 C947 1.497 . S
C948 C949 1.395 . S
C948 C950 1.380 . S
C949 C948 1.395 . S
C949 C952 1.398 . S
C949 H964 0.930 . S
C950 C948 1.380 . S
C950 C951 1.391 . S
C950 H965 0.930 . S
C951 C950 1.391 . S
C951 C953 1.387 . S
C952 C949 1.398 . S
C952 C953 1.380 . S
C952 H966 0.930 . S
C953 C951 1.387 . S
C953 C952 1.380 . S
C953 H967 0.930 . S
C954 O934 1.254 . S
C954 O935 1.268 . S
C955 O939 1.284 . S
C955 O942 1.250 . S
C956 Gd889 2.828 . S
C956 O938 1.258 . S
C956 O943 1.252 . S
C956 C957 1.497 . S
C957 C956 1.497 . S
C957 C958 1.395 . S
C957 C959 1.380 . S
C958 C957 1.395 . S
C958 C961 1.398 . S
C958 H968 0.930 . S
C959 C957 1.380 . S
C959 C960 1.391 . S
C959 H969 0.930 . S
C960 C959 1.391 . S
C960 C962 1.387 . S
C961 C958 1.398 . S
C961 C962 1.380 . S
C961 H970 0.930 . S
C962 C960 1.387 . S
C962 C961 1.380 . S
C962 H971 0.930 . S
C963 O940 1.254 . S
C963 O941 1.268 . S
H964 C949 0.930 . S
H965 C950 0.930 . S
H966 C952 0.930 . S
H967 C953 0.930 . S
H968 C958 0.930 . S
H969 C959 0.930 . S
H970 C961 0.930 . S
H971 C962 0.930 . S
H972 C978 0.930 . S
H973 C982 0.892 1_556 S
H974 C987 0.929 . S
H975 C985 0.929 . S
H976 C980 0.929 . S
H977 C986 0.929 . S
C978 H972 0.930 . S
C978 C979 1.367 . S
C978 C986 1.378 . S
C979 C978 1.367 . S
C979 C987 1.433 . S
C980 H976 0.929 . S
C980 C982 1.378 . S
C980 C984 1.350 . S
C981 C984 1.463 . S
C981 C986 1.350 . S
C981 N989 1.427 . S
C982 H973 0.892 1_554 S
C982 C980 1.378 . S
C982 C983 1.367 . S
C983 C982 1.367 . S
C983 C985 1.433 . S
C984 C980 1.350 . S
C984 C981 1.463 . S
C984 N988 1.427 . S
C985 H975 0.929 . S
C985 C983 1.433 . S
C985 N988 1.384 . S
C986 H977 0.929 . S
C986 C978 1.378 . S
C986 C981 1.350 . S
C987 H974 0.929 . S
C987 C979 1.433 . S
C987 N989 1.384 . S
N988 C984 1.427 . S
N988 C985 1.384 . S
N989 C981 1.427 . S
N989 C987 1.384 . S
H990 C996 0.930 . S
H991 C1000 0.930 . S
H992 C1005 0.929 . S
H993 C1003 0.986 . S
H994 C998 0.929 . S
H995 C1004 0.929 . S
C996 H990 0.930 . S
C996 C997 1.367 . S
C996 C1004 1.378 . S
C997 C996 1.367 . S
C997 C1005 1.433 . S
C998 H994 0.929 . S
C998 C1000 1.378 . S
C998 C1002 1.350 . S
C999 C1002 1.463 . S
C999 C1004 1.350 . S
C999 N1007 1.427 . S
C1000 H991 0.930 . S
C1000 C998 1.378 . S
C1000 C1001 1.367 . S
C1001 C1000 1.367 . S
C1001 C1003 1.433 . S
C1002 C998 1.350 . S
C1002 C999 1.463 . S
C1002 N1006 1.427 . S
C1003 H993 0.986 . S
C1003 C1001 1.433 . S
C1003 N1006 1.384 . S
C1004 H995 0.929 . S
C1004 C996 1.378 . S
C1004 C999 1.350 . S
C1005 H992 0.929 . S
C1005 C997 1.433 . S
C1005 N1007 1.384 . S
N1006 C1002 1.427 . S
N1006 C1003 1.384 . S
N1007 C999 1.427 . S
N1007 C1005 1.384 . S
H1008 C1014 0.930 . S
H1009 C1018 0.930 1_556 S
H1010 C1023 0.929 . S
H1011 C1021 0.929 . S
H1012 C1016 0.929 . S
H1013 C1022 0.929 . S
C1014 H1008 0.930 . S
C1014 C1015 1.367 . S
C1014 C1022 1.378 . S
C1015 C1014 1.367 . S
C1015 C1023 1.433 . S
C1016 H1012 0.929 . S
C1016 C1018 1.378 . S
C1016 C1020 1.350 . S
C1017 C1020 1.463 . S
C1017 C1022 1.350 . S
C1017 N1025 1.427 . S
C1018 H1009 0.930 1_554 S
C1018 C1016 1.378 . S
C1018 C1019 1.367 . S
C1019 C1018 1.367 . S
C1019 C1021 1.433 . S
C1020 C1016 1.350 . S
C1020 C1017 1.463 . S
C1020 N1024 1.427 . S
C1021 H1011 0.929 . S
C1021 C1019 1.433 . S
C1021 N1024 1.384 . S
C1022 H1013 0.929 . S
C1022 C1014 1.378 . S
C1022 C1017 1.350 . S
C1023 H1010 0.929 . S
C1023 C1015 1.433 . S
C1023 N1025 1.384 . S
N1024 C1020 1.427 . S
N1024 C1021 1.384 . S
N1025 C1017 1.427 . S
N1025 C1023 1.384 . S
H1026 C1032 0.930 . S
H1027 C1036 0.930 . S
H1028 C1041 0.929 . S
H1029 C1039 0.929 . S
H1030 C1034 0.945 . S
H1031 C1040 0.929 . S
C1032 H1026 0.930 . S
C1032 C1033 1.367 . S
C1032 C1040 1.378 . S
C1033 C1032 1.367 . S
C1033 C1041 1.433 . S
C1034 H1030 0.945 . S
C1034 C1036 1.386 . S
C1034 C1038 1.326 1_554 S
C1035 C1038 1.463 . S
C1035 C1040 1.350 . S
C1035 N1043 1.427 . S
C1036 H1027 0.930 . S
C1036 C1034 1.386 . S
C1036 C1037 1.367 1_554 S
C1037 C1036 1.367 1_556 S
C1037 C1039 1.433 . S
C1038 C1034 1.326 1_556 S
C1038 C1035 1.463 . S
C1038 N1042 1.427 . S
C1039 H1029 0.929 . S
C1039 C1037 1.433 . S
C1039 N1042 1.384 . S
C1040 H1031 0.929 . S
C1040 C1032 1.378 . S
C1040 C1035 1.350 . S
C1041 H1028 0.929 . S
C1041 C1033 1.433 . S
C1041 N1043 1.384 . S
N1042 C1038 1.427 . S
N1042 C1039 1.384 . S
N1043 C1035 1.427 . S
N1043 C1041 1.384 . S
H1044 C1050 0.930 . S
H1045 C1054 0.930 . S
H1046 C1059 0.929 . S
H1047 C1057 0.929 . S
H1048 C1052 0.929 . S
H1049 C1058 0.929 . S
C1050 H1044 0.930 . S
C1050 C1051 1.367 . S
C1050 C1058 1.378 . S
C1051 C1050 1.367 . S
C1051 C1059 1.433 . S
C1052 H1048 0.929 . S
C1052 C1054 1.378 . S
C1052 C1056 1.350 . S
C1053 C1056 1.463 . S
C1053 C1058 1.350 . S
C1053 N1061 1.427 . S
C1054 H1045 0.930 . S
C1054 C1052 1.378 . S
C1054 C1055 1.367 . S
C1055 C1054 1.367 . S
C1055 C1057 1.433 . S
C1056 C1052 1.350 . S
C1056 C1053 1.463 . S
C1056 N1060 1.427 . S
C1057 H1047 0.929 . S
C1057 C1055 1.433 . S
C1057 N1060 1.384 . S
C1058 H1049 0.929 . S
C1058 C1050 1.378 . S
C1058 C1053 1.350 . S
C1059 H1046 0.929 . S
C1059 C1051 1.433 . S
C1059 N1061 1.384 . S
N1060 C1056 1.427 . S
N1060 C1057 1.384 . S
N1061 C1053 1.427 . S
N1061 C1059 1.384 . S
H1062 C1068 0.930 . S
H1063 C1072 0.930 . S
H1064 C1077 0.929 . S
H1065 C1075 0.929 . S
H1066 C1070 0.929 . S
H1067 C1076 0.929 1_554 S
C1068 H1062 0.930 . S
C1068 C1069 1.367 . S
C1068 C1076 1.378 . S
C1069 C1068 1.367 . S
C1069 C1077 1.433 . S
C1070 H1066 0.929 . S
C1070 C1072 1.378 . S
C1070 C1074 1.350 . S
C1071 C1074 1.463 . S
C1071 C1076 1.350 . S
C1071 N1079 1.427 . S
C1072 H1063 0.930 . S
C1072 C1070 1.378 . S
C1072 C1073 1.367 . S
C1073 C1072 1.367 . S
C1073 C1075 1.433 1_556 S
C1074 C1070 1.350 . S
C1074 C1071 1.463 . S
C1074 N1078 1.427 1_556 S
C1075 H1065 0.929 . S
C1075 C1073 1.433 1_554 S
C1075 N1078 1.384 . S
C1076 H1067 0.929 1_556 S
C1076 C1068 1.378 . S
C1076 C1071 1.350 . S
C1077 H1064 0.929 . S
C1077 C1069 1.433 . S
C1077 N1079 1.384 . S
N1078 C1074 1.427 1_554 S
N1078 C1075 1.384 . S
N1079 C1071 1.427 . S
N1079 C1077 1.384 . S
H1080 C1086 0.930 . S
H1081 C1090 0.930 . S
H1082 C1095 0.929 . S
H1083 C1093 0.929 . S
H1084 C1088 0.929 1_554 S
H1085 C1094 0.929 . S
C1086 H1080 0.930 . S
C1086 C1087 1.367 . S
C1086 C1094 1.378 . S
C1087 C1086 1.367 . S
C1087 C1095 1.433 . S
C1088 H1084 0.929 1_556 S
C1088 C1090 1.378 1_556 S
C1088 C1092 1.350 . S
C1089 C1092 1.463 . S
C1089 C1094 1.350 . S
C1089 N1097 1.427 . S
C1090 H1081 0.930 . S
C1090 C1088 1.378 1_554 S
C1090 C1091 1.367 1_554 S
C1091 C1090 1.367 1_556 S
C1091 C1093 1.433 . S
C1092 C1088 1.350 . S
C1092 C1089 1.463 . S
C1092 N1096 1.427 . S
C1093 H1083 0.929 . S
C1093 C1091 1.433 . S
C1093 N1096 1.384 . S
C1094 H1085 0.929 . S
C1094 C1086 1.378 . S
C1094 C1089 1.350 . S
C1095 H1082 0.929 . S
C1095 C1087 1.433 . S
C1095 N1097 1.384 . S
N1096 C1092 1.427 . S
N1096 C1093 1.384 . S
N1097 C1089 1.427 . S
N1097 C1095 1.384 . S
H1098 C1104 0.930 . S
H1099 C1108 0.930 . S
H1100 C1113 0.929 . S
H1101 C1111 0.929 . S
H1102 C1106 0.929 . S
H1103 C1112 0.929 1_554 S
C1104 H1098 0.930 . S
C1104 C1105 1.367 . S
C1104 C1112 1.378 . S
C1105 C1104 1.367 . S
C1105 C1113 1.433 . S
C1106 H1102 0.929 . S
C1106 C1108 1.378 . S
C1106 C1110 1.350 . S
C1107 C1110 1.463 . S
C1107 C1112 1.350 . S
C1107 N1115 1.427 . S
C1108 H1099 0.930 . S
C1108 C1106 1.378 . S
C1108 C1109 1.367 . S
C1109 C1108 1.367 . S
C1109 C1111 1.433 1_556 S
C1110 C1106 1.350 . S
C1110 C1107 1.463 . S
C1110 N1114 1.427 1_556 S
C1111 H1101 0.929 . S
C1111 C1109 1.433 1_554 S
C1111 N1114 1.384 . S
C1112 H1103 0.929 1_556 S
C1112 C1104 1.378 . S
C1112 C1107 1.350 . S
C1113 H1100 0.929 . S
C1113 C1105 1.433 . S
C1113 N1115 1.384 . S
N1114 C1110 1.427 1_554 S
N1114 C1111 1.384 . S
N1115 C1107 1.427 . S
N1115 C1113 1.384 . S
H1116 C1122 0.930 . S
H1117 C1126 0.930 . S
H1118 C1131 0.929 . S
H1119 C1129 0.929 . S
H1120 C1124 0.929 . S
H1121 C1130 0.929 1_554 S
C1122 H1116 0.930 . S
C1122 C1123 1.367 . S
C1122 C1130 1.378 . S
C1123 C1122 1.367 . S
C1123 C1131 1.433 . S
C1124 H1120 0.929 . S
C1124 C1126 1.378 . S
C1124 C1128 1.350 . S
C1125 C1128 1.463 . S
C1125 C1130 1.350 . S
C1125 N1133 1.427 . S
C1126 H1117 0.930 . S
C1126 C1124 1.378 . S
C1126 C1127 1.367 . S
C1127 C1126 1.367 . S
C1127 C1129 1.433 1_556 S
C1128 C1124 1.350 . S
C1128 C1125 1.463 . S
C1128 N1132 1.427 1_556 S
C1129 H1119 0.929 . S
C1129 C1127 1.433 1_554 S
C1129 N1132 1.384 . S
C1130 H1121 0.929 1_556 S
C1130 C1122 1.378 . S
C1130 C1125 1.350 . S
C1131 H1118 0.929 . S
C1131 C1123 1.433 . S
C1131 N1133 1.384 . S
N1132 C1128 1.427 1_554 S
N1132 C1129 1.384 . S
N1133 C1125 1.427 . S
N1133 C1131 1.384 . S
H1134 C1140 0.930 . S
H1135 C1144 0.930 . S
H1136 C1149 0.929 . S
H1137 C1147 0.929 . S
H1138 C1142 0.929 . S
H1139 C1148 0.929 . S
C1140 H1134 0.930 . S
C1140 C1141 1.367 . S
C1140 C1148 1.378 . S
C1141 C1140 1.367 . S
C1141 C1149 1.433 . S
C1142 H1138 0.929 . S
C1142 C1144 1.378 . S
C1142 C1146 1.350 . S
C1143 C1146 1.463 . S
C1143 C1148 1.350 . S
C1143 N1151 1.427 . S
C1144 H1135 0.930 . S
C1144 C1142 1.378 . S
C1144 C1145 1.367 . S
C1145 C1144 1.367 . S
C1145 C1147 1.433 . S
C1146 C1142 1.350 . S
C1146 C1143 1.463 . S
C1146 N1150 1.427 . S
C1147 H1137 0.929 . S
C1147 C1145 1.433 . S
C1147 N1150 1.384 . S
C1148 H1139 0.929 . S
C1148 C1140 1.378 . S
C1148 C1143 1.350 . S
C1149 H1136 0.929 . S
C1149 C1141 1.433 . S
C1149 N1151 1.384 . S
N1150 C1146 1.427 . S
N1150 C1147 1.384 . S
N1151 C1143 1.427 . S
N1151 C1149 1.384 . S
H1152 C1158 0.930 . S
H1153 C1162 0.930 . S
H1154 C1167 0.929 . S
H1155 C1165 0.929 . S
H1156 C1160 0.929 . S
H1157 C1166 0.929 . S
C1158 H1152 0.930 . S
C1158 C1159 1.367 . S
C1158 C1166 1.378 . S
C1159 C1158 1.367 . S
C1159 C1167 1.433 . S
C1160 H1156 0.929 . S
C1160 C1162 1.378 . S
C1160 C1164 1.350 . S
C1161 C1164 1.463 . S
C1161 C1166 1.350 . S
C1161 N1169 1.427 . S
C1162 H1153 0.930 . S
C1162 C1160 1.378 . S
C1162 C1163 1.367 . S
C1163 C1162 1.367 . S
C1163 C1165 1.433 . S
C1164 C1160 1.350 . S
C1164 C1161 1.463 . S
C1164 N1168 1.427 . S
C1165 H1155 0.929 . S
C1165 C1163 1.433 . S
C1165 N1168 1.384 . S
C1166 H1157 0.929 . S
C1166 C1158 1.378 . S
C1166 C1161 1.350 . S
C1167 H1154 0.929 . S
C1167 C1159 1.433 . S
C1167 N1169 1.384 . S
N1168 C1164 1.427 . S
N1168 C1165 1.384 . S
N1169 C1161 1.427 . S
N1169 C1167 1.384 . S
H1170 C1176 0.930 . S
H1171 C1180 0.930 . S
H1172 C1185 0.929 . S
H1173 C1183 0.929 1_556 S
H1174 C1178 0.929 . S
H1175 C1184 0.929 . S
C1176 H1170 0.930 . S
C1176 C1177 1.367 . S
C1176 C1184 1.378 . S
C1177 C1176 1.367 . S
C1177 C1185 1.433 . S
C1178 H1174 0.929 . S
C1178 C1180 1.378 . S
C1178 C1182 1.350 . S
C1179 C1182 1.463 . S
C1179 C1184 1.350 . S
C1179 N1187 1.427 . S
C1180 H1171 0.930 . S
C1180 C1178 1.378 . S
C1180 C1181 1.367 . S
C1181 C1180 1.367 . S
C1181 C1183 1.433 . S
C1182 C1178 1.350 . S
C1182 C1179 1.463 . S
C1182 N1186 1.427 . S
C1183 H1173 0.929 1_554 S
C1183 C1181 1.433 . S
C1183 N1186 1.384 . S
C1184 H1175 0.929 . S
C1184 C1176 1.378 . S
C1184 C1179 1.350 . S
C1185 H1172 0.929 . S
C1185 C1177 1.433 . S
C1185 N1187 1.384 . S
N1186 C1182 1.427 . S
N1186 C1183 1.384 . S
N1187 C1179 1.427 . S
N1187 C1185 1.384 . S
H1188 C1194 0.930 . S
H1189 C1198 0.930 . S
H1190 C1203 0.929 . S
H1191 C1201 0.929 . S
H1192 C1196 0.929 . S
H1193 C1202 0.929 . S
C1194 H1188 0.930 . S
C1194 C1195 1.367 . S
C1194 C1202 1.378 . S
C1195 C1194 1.367 . S
C1195 C1203 1.433 . S
C1196 H1192 0.929 . S
C1196 C1198 1.378 . S
C1196 C1200 1.350 . S
C1197 C1200 1.463 1_655 S
C1197 C1202 1.350 . S
C1197 N1205 1.427 . S
C1198 H1189 0.930 . S
C1198 C1196 1.378 . S
C1198 C1199 1.367 . S
C1199 C1198 1.367 . S
C1199 C1201 1.433 . S
C1200 C1196 1.350 . S
C1200 C1197 1.463 1_455 S
C1200 N1204 1.427 . S
C1201 H1191 0.929 . S
C1201 C1199 1.433 . S
C1201 N1204 1.384 . S
C1202 H1193 0.929 . S
C1202 C1194 1.378 . S
C1202 C1197 1.350 . S
C1203 H1190 0.929 . S
C1203 C1195 1.433 . S
C1203 N1205 1.384 . S
N1204 C1200 1.427 . S
N1204 C1201 1.384 . S
N1205 C1197 1.427 . S
N1205 C1203 1.384 . S
H1206 C1212 0.930 . S
H1207 C1216 0.930 . S
H1208 C1221 0.929 . S
H1209 C1219 0.929 . S
H1210 C1214 0.929 . S
H1211 C1220 0.929 . S
C1212 H1206 0.930 . S
C1212 C1213 1.367 . S
C1212 C1220 1.378 . S
C1213 C1212 1.367 . S
C1213 C1221 1.433 . S
C1214 H1210 0.929 . S
C1214 C1216 1.378 . S
C1214 C1218 1.350 . S
C1215 C1218 1.463 . S
C1215 C1220 1.350 . S
C1215 N1223 1.427 . S
C1216 H1207 0.930 . S
C1216 C1214 1.378 . S
C1216 C1217 1.367 . S
C1217 C1216 1.367 . S
C1217 C1219 1.433 . S
C1218 C1214 1.350 . S
C1218 C1215 1.463 . S
C1218 N1222 1.427 . S
C1219 H1209 0.929 . S
C1219 C1217 1.433 . S
C1219 N1222 1.384 . S
C1220 H1211 0.929 . S
C1220 C1212 1.378 . S
C1220 C1215 1.350 . S
C1221 H1208 0.929 . S
C1221 C1213 1.433 . S
C1221 N1223 1.384 . S
N1222 C1218 1.427 . S
N1222 C1219 1.384 . S
N1223 C1215 1.427 . S
N1223 C1221 1.384 . S
H1224 C1230 0.930 . S
H1225 C1234 0.930 . S
H1226 C1239 0.929 . S
H1227 C1237 0.929 . S
H1228 C1232 0.929 . S
H1229 C1238 0.929 . S
C1230 H1224 0.930 . S
C1230 C1231 1.367 . S
C1230 C1238 1.378 . S
C1231 C1230 1.367 . S
C1231 C1239 1.433 . S
C1232 H1228 0.929 . S
C1232 C1234 1.378 . S
C1232 C1236 1.350 . S
C1233 C1236 1.463 1_545 S
C1233 C1238 1.350 . S
C1233 N1241 1.427 . S
C1234 H1225 0.930 . S
C1234 C1232 1.378 . S
C1234 C1235 1.367 . S
C1235 C1234 1.367 . S
C1235 C1237 1.433 . S
C1236 C1232 1.350 . S
C1236 C1233 1.463 1_565 S
C1236 N1240 1.427 . S
C1237 H1227 0.929 . S
C1237 C1235 1.433 . S
C1237 N1240 1.384 . S
C1238 H1229 0.929 . S
C1238 C1230 1.378 . S
C1238 C1233 1.350 . S
C1239 H1226 0.929 . S
C1239 C1231 1.433 . S
C1239 N1241 1.384 . S
N1240 C1236 1.427 . S
N1240 C1237 1.384 . S
N1241 C1233 1.427 . S
N1241 C1239 1.384 . S
H1242 C1248 0.930 . S
H1243 C1252 0.930 . S
H1244 C1257 0.929 . S
H1245 C1255 0.929 . S
H1246 C1250 0.929 . S
H1247 C1256 0.929 . S
C1248 H1242 0.930 . S
C1248 C1249 1.367 . S
C1248 C1256 1.378 . S
C1249 C1248 1.367 . S
C1249 C1257 1.433 . S
C1250 H1246 0.929 . S
C1250 C1252 1.378 . S
C1250 C1254 1.350 . S
C1251 C1254 1.463 . S
C1251 C1256 1.350 . S
C1251 N1259 1.427 . S
C1252 H1243 0.930 . S
C1252 C1250 1.378 . S
C1252 C1253 1.367 . S
C1253 C1252 1.367 . S
C1253 C1255 1.433 . S
C1254 C1250 1.350 . S
C1254 C1251 1.463 . S
C1254 N1258 1.427 . S
C1255 H1245 0.929 . S
C1255 C1253 1.433 . S
C1255 N1258 1.384 . S
C1256 H1247 0.929 . S
C1256 C1248 1.378 . S
C1256 C1251 1.350 . S
C1257 H1244 0.929 . S
C1257 C1249 1.433 . S
C1257 N1259 1.384 . S
N1258 C1254 1.427 . S
N1258 C1255 1.384 . S
N1259 C1251 1.427 . S
N1259 C1257 1.384 . S
H1260 C1266 0.930 . S
H1261 C1270 0.930 . S
H1262 C1275 0.929 . S
H1263 C1273 0.929 . S
H1264 C1268 0.929 . S
H1265 C1274 0.929 . S
C1266 H1260 0.930 . S
C1266 C1267 1.367 . S
C1266 C1274 1.378 . S
C1267 C1266 1.367 . S
C1267 C1275 1.433 . S
C1268 H1264 0.929 . S
C1268 C1270 1.378 . S
C1268 C1272 1.350 . S
C1269 C1272 1.463 . S
C1269 C1274 1.350 . S
C1269 N1277 1.427 . S
C1270 H1261 0.930 . S
C1270 C1268 1.378 . S
C1270 C1271 1.367 . S
C1271 C1270 1.367 . S
C1271 C1273 1.433 . S
C1272 C1268 1.350 . S
C1272 C1269 1.463 . S
C1272 N1276 1.427 . S
C1273 H1263 0.929 . S
C1273 C1271 1.433 . S
C1273 N1276 1.384 . S
C1274 H1265 0.929 . S
C1274 C1266 1.378 . S
C1274 C1269 1.350 . S
C1275 H1262 0.929 . S
C1275 C1267 1.433 . S
C1275 N1277 1.384 . S
N1276 C1272 1.427 . S
N1276 C1273 1.384 . S
N1277 C1269 1.427 . S
N1277 C1275 1.384 . S
H1278 C1284 0.930 . S
H1279 C1288 0.930 . S
H1280 C1293 0.929 . S
H1281 C1291 0.929 . S
H1282 C1286 0.929 . S
H1283 C1292 0.929 . S
C1284 H1278 0.930 . S
C1284 C1285 1.367 . S
C1284 C1292 1.378 . S
C1285 C1284 1.367 . S
C1285 C1293 1.433 . S
C1286 H1282 0.929 . S
C1286 C1288 1.378 . S
C1286 C1290 1.350 . S
C1287 C1290 1.463 . S
C1287 C1292 1.350 . S
C1287 N1295 1.427 . S
C1288 H1279 0.930 . S
C1288 C1286 1.378 . S
C1288 C1289 1.367 . S
C1289 C1288 1.367 . S
C1289 C1291 1.433 . S
C1290 C1286 1.350 . S
C1290 C1287 1.463 . S
C1290 N1294 1.427 . S
C1291 H1281 0.929 . S
C1291 C1289 1.433 . S
C1291 N1294 1.384 . S
C1292 H1283 0.929 . S
C1292 C1284 1.378 . S
C1292 C1287 1.350 . S
C1293 H1280 0.929 . S
C1293 C1285 1.433 . S
C1293 N1295 1.384 . S
N1294 C1290 1.427 . S
N1294 C1291 1.384 . S
N1295 C1287 1.427 . S
N1295 C1293 1.384 . S
H1296 C1302 0.930 . S
H1297 C1306 0.930 . S
H1298 C1311 0.929 . S
H1299 C1309 0.929 . S
H1300 C1304 0.929 . S
H1301 C1310 0.929 . S
C1302 H1296 0.930 . S
C1302 C1303 1.367 . S
C1302 C1310 1.378 . S
C1303 C1302 1.367 . S
C1303 C1311 1.433 . S
C1304 H1300 0.929 . S
C1304 C1306 1.378 . S
C1304 C1308 1.350 . S
C1305 C1308 1.463 . S
C1305 C1310 1.350 . S
C1305 N1313 1.427 . S
C1306 H1297 0.930 . S
C1306 C1304 1.378 . S
C1306 C1307 1.367 . S
C1307 C1306 1.367 . S
C1307 C1309 1.433 . S
C1308 C1304 1.350 . S
C1308 C1305 1.463 . S
C1308 N1312 1.427 . S
C1309 H1299 0.929 . S
C1309 C1307 1.433 . S
C1309 N1312 1.384 . S
C1310 H1301 0.929 . S
C1310 C1302 1.378 . S
C1310 C1305 1.350 . S
C1311 H1298 0.929 . S
C1311 C1303 1.433 . S
C1311 N1313 1.384 . S
N1312 C1308 1.427 . S
N1312 C1309 1.384 . S
N1313 C1305 1.427 . S
N1313 C1311 1.384 . S
H1314 C1320 0.930 . S
H1315 C1324 0.930 . S
H1316 C1329 0.929 . S
H1317 C1327 0.929 . S
H1318 C1322 0.929 . S
H1319 C1328 0.929 . S
C1320 H1314 0.930 . S
C1320 C1321 1.367 . S
C1320 C1328 1.378 . S
C1321 C1320 1.367 . S
C1321 C1329 1.433 . S
C1322 H1318 0.929 . S
C1322 C1324 1.378 . S
C1322 C1326 1.350 . S
C1323 C1326 1.463 . S
C1323 C1328 1.350 . S
C1323 N1331 1.427 . S
C1324 H1315 0.930 . S
C1324 C1322 1.378 . S
C1324 C1325 1.367 . S
C1325 C1324 1.367 . S
C1325 C1327 1.433 . S
C1326 C1322 1.350 . S
C1326 C1323 1.463 . S
C1326 N1330 1.427 . S
C1327 H1317 0.929 . S
C1327 C1325 1.433 . S
C1327 N1330 1.384 . S
C1328 H1319 0.929 . S
C1328 C1320 1.378 . S
C1328 C1323 1.350 . S
C1329 H1316 0.929 . S
C1329 C1321 1.433 . S
C1329 N1331 1.384 . S
N1330 C1326 1.427 . S
N1330 C1327 1.384 . S
N1331 C1323 1.427 . S
N1331 C1329 1.384 . S
H1332 C1338 0.930 . S
H1333 C1342 0.930 . S
H1334 C1347 0.929 . S
H1335 C1345 0.929 . S
H1336 C1340 0.929 . S
H1337 C1346 0.929 . S
C1338 H1332 0.930 . S
C1338 C1339 1.367 . S
C1338 C1346 1.378 . S
C1339 C1338 1.367 . S
C1339 C1347 1.433 . S
C1340 H1336 0.929 . S
C1340 C1342 1.378 . S
C1340 C1344 1.350 . S
C1341 C1344 1.463 . S
C1341 C1346 1.350 . S
C1341 N1349 1.427 . S
C1342 H1333 0.930 . S
C1342 C1340 1.378 . S
C1342 C1343 1.367 . S
C1343 C1342 1.367 . S
C1343 C1345 1.433 . S
C1344 C1340 1.350 . S
C1344 C1341 1.463 . S
C1344 N1348 1.427 . S
C1345 H1335 0.929 . S
C1345 C1343 1.433 . S
C1345 N1348 1.384 . S
C1346 H1337 0.929 . S
C1346 C1338 1.378 . S
C1346 C1341 1.350 . S
C1347 H1334 0.929 . S
C1347 C1339 1.433 . S
C1347 N1349 1.384 . S
N1348 C1344 1.427 . S
N1348 C1345 1.384 . S
N1349 C1341 1.427 . S
N1349 C1347 1.384 . S
H1350 C1356 0.930 . S
H1351 C1360 0.930 . S
H1352 C1365 0.929 . S
H1353 C1363 0.929 . S
H1354 C1358 0.929 . S
H1355 C1364 0.929 . S
C1356 H1350 0.930 . S
C1356 C1357 1.367 . S
C1356 C1364 1.378 1_545 S
C1357 C1356 1.367 . S
C1357 C1365 1.433 . S
C1358 H1354 0.929 . S
C1358 C1360 1.378 . S
C1358 C1362 1.350 . S
C1359 C1362 1.463 . S
C1359 C1364 1.350 . S
C1359 N1367 1.427 . S
C1360 H1351 0.930 . S
C1360 C1358 1.378 . S
C1360 C1361 1.367 . S
C1361 C1360 1.367 . S
C1361 C1363 1.433 . S
C1362 C1358 1.350 . S
C1362 C1359 1.463 . S
C1362 N1366 1.427 . S
C1363 H1353 0.929 . S
C1363 C1361 1.433 . S
C1363 N1366 1.384 . S
C1364 H1355 0.929 . S
C1364 C1356 1.378 1_565 S
C1364 C1359 1.350 . S
C1365 H1352 0.929 . S
C1365 C1357 1.433 . S
C1365 N1367 1.384 1_545 S
N1366 C1362 1.427 . S
N1366 C1363 1.384 . S
N1367 C1359 1.427 . S
N1367 C1365 1.384 1_565 S
H1368 C1374 0.930 . S
H1369 C1378 0.930 . S
H1370 C1383 0.927 1_655 S
H1371 C1381 0.929 . S
H1372 C1376 0.929 . S
H1373 C1382 0.929 . S
C1374 H1368 0.930 . S
C1374 C1375 1.367 1_455 S
C1374 C1382 1.378 . S
C1375 C1374 1.367 1_655 S
C1375 C1383 1.433 1_655 S
C1376 H1372 0.929 . S
C1376 C1378 1.378 . S
C1376 C1380 1.350 . S
C1377 C1380 1.463 . S
C1377 C1382 1.350 . S
C1377 N1385 1.427 . S
C1378 H1369 0.930 . S
C1378 C1376 1.378 . S
C1378 C1379 1.367 . S
C1379 C1378 1.367 . S
C1379 C1381 1.433 . S
C1380 C1376 1.350 . S
C1380 C1377 1.463 . S
C1380 N1384 1.427 . S
C1381 H1371 0.929 . S
C1381 C1379 1.433 . S
C1381 N1384 1.384 . S
C1382 H1373 0.929 . S
C1382 C1374 1.378 . S
C1382 C1377 1.350 . S
C1383 H1370 0.927 1_455 S
C1383 C1375 1.433 1_455 S
C1383 N1385 1.384 . S
N1384 C1380 1.427 . S
N1384 C1381 1.384 . S
N1385 C1377 1.427 . S
N1385 C1383 1.384 . S
H1386 C1392 0.930 . S
H1387 C1396 0.930 . S
H1388 C1401 0.929 . S
H1389 C1399 0.929 . S
H1390 C1394 0.929 . S
H1391 C1400 0.929 . S
C1392 H1386 0.930 . S
C1392 C1393 1.367 . S
C1392 C1400 1.378 . S
C1393 C1392 1.367 . S
C1393 C1401 1.433 . S
C1394 H1390 0.929 . S
C1394 C1396 1.378 . S
C1394 C1398 1.350 . S
C1395 C1398 1.463 . S
C1395 C1400 1.350 . S
C1395 N1403 1.427 . S
C1396 H1387 0.930 . S
C1396 C1394 1.378 . S
C1396 C1397 1.367 . S
C1397 C1396 1.367 . S
C1397 C1399 1.433 . S
C1398 C1394 1.350 . S
C1398 C1395 1.463 . S
C1398 N1402 1.427 . S
C1399 H1389 0.929 . S
C1399 C1397 1.433 . S
C1399 N1402 1.384 . S
C1400 H1391 0.929 . S
C1400 C1392 1.378 . S
C1400 C1395 1.350 . S
C1401 H1388 0.929 . S
C1401 C1393 1.433 . S
C1401 N1403 1.384 . S
N1402 C1398 1.427 . S
N1402 C1399 1.384 . S
N1403 C1395 1.427 . S
N1403 C1401 1.384 . S
H1404 C1410 0.930 . S
H1405 C1414 0.930 . S
H1406 C1419 0.929 . S
H1407 C1417 0.929 . S
H1408 C1412 0.929 . S
H1409 C1418 0.929 . S
C1410 H1404 0.930 . S
C1410 C1411 1.367 . S
C1410 C1418 1.378 . S
C1411 C1410 1.367 . S
C1411 C1419 1.433 . S
C1412 H1408 0.929 . S
C1412 C1414 1.378 . S
C1412 C1416 1.350 . S
C1413 C1416 1.463 . S
C1413 C1418 1.350 . S
C1413 N1421 1.427 . S
C1414 H1405 0.930 . S
C1414 C1412 1.378 . S
C1414 C1415 1.367 . S
C1415 C1414 1.367 . S
C1415 C1417 1.433 . S
C1416 C1412 1.350 . S
C1416 C1413 1.463 . S
C1416 N1420 1.427 . S
C1417 H1407 0.929 . S
C1417 C1415 1.433 . S
C1417 N1420 1.384 . S
C1418 H1409 0.929 . S
C1418 C1410 1.378 . S
C1418 C1413 1.350 . S
C1419 H1406 0.929 . S
C1419 C1411 1.433 . S
C1419 N1421 1.384 . S
N1420 C1416 1.427 . S
N1420 C1417 1.384 . S
N1421 C1413 1.427 . S
N1421 C1419 1.384 . S
H1422 C1428 0.930 . S
H1423 C1432 0.930 . S
H1424 C1437 0.929 . S
H1425 C1435 0.929 . S
H1426 C1430 0.929 . S
H1427 C1436 0.929 . S
C1428 H1422 0.930 . S
C1428 C1429 1.367 . S
C1428 C1436 1.378 . S
C1429 C1428 1.367 . S
C1429 C1437 1.433 . S
C1430 H1426 0.929 . S
C1430 C1432 1.378 . S
C1430 C1434 1.350 . S
C1431 C1434 1.463 . S
C1431 C1436 1.350 . S
C1431 N1439 1.427 . S
C1432 H1423 0.930 . S
C1432 C1430 1.378 . S
C1432 C1433 1.367 . S
C1433 C1432 1.367 . S
C1433 C1435 1.433 . S
C1434 C1430 1.350 . S
C1434 C1431 1.463 . S
C1434 N1438 1.427 . S
C1435 H1425 0.929 . S
C1435 C1433 1.433 . S
C1435 N1438 1.384 . S
C1436 H1427 0.929 . S
C1436 C1428 1.378 . S
C1436 C1431 1.350 . S
C1437 H1424 0.929 . S
C1437 C1429 1.433 . S
C1437 N1439 1.384 . S
N1438 C1434 1.427 . S
N1438 C1435 1.384 . S
N1439 C1431 1.427 . S
N1439 C1437 1.384 . S
H1440 C1446 0.930 . S
H1441 C1450 0.930 . S
H1442 C1455 0.929 . S
H1443 C1453 0.929 . S
H1444 C1448 0.929 . S
H1445 C1454 0.929 . S
C1446 H1440 0.930 . S
C1446 C1447 1.367 . S
C1446 C1454 1.378 . S
C1447 C1446 1.367 . S
C1447 C1455 1.433 . S
C1448 H1444 0.929 . S
C1448 C1450 1.378 . S
C1448 C1452 1.350 . S
C1449 C1452 1.463 . S
C1449 C1454 1.350 . S
C1449 N1457 1.427 . S
C1450 H1441 0.930 . S
C1450 C1448 1.378 . S
C1450 C1451 1.367 . S
C1451 C1450 1.367 . S
C1451 C1453 1.433 . S
C1452 C1448 1.350 . S
C1452 C1449 1.463 . S
C1452 N1456 1.427 . S
C1453 H1443 0.929 . S
C1453 C1451 1.433 . S
C1453 N1456 1.384 . S
C1454 H1445 0.929 . S
C1454 C1446 1.378 . S
C1454 C1449 1.350 . S
C1455 H1442 0.929 . S
C1455 C1447 1.433 . S
C1455 N1457 1.384 . S
N1456 C1452 1.427 . S
N1456 C1453 1.384 . S
N1457 C1449 1.427 . S
N1457 C1455 1.384 . S
H1458 C1464 0.930 . S
H1459 C1468 0.930 . S
H1460 C1473 0.929 . S
H1461 C1471 0.929 . S
H1462 C1466 0.929 . S
H1463 C1472 0.929 1_545 S
C1464 H1458 0.930 . S
C1464 C1465 1.367 . S
C1464 C1472 1.378 . S
C1465 C1464 1.367 . S
C1465 C1473 1.433 . S
C1466 H1462 0.929 . S
C1466 C1468 1.378 . S
C1466 C1470 1.350 . S
C1467 C1470 1.463 1_565 S
C1467 C1472 1.350 . S
C1467 N1475 1.427 . S
C1468 H1459 0.930 . S
C1468 C1466 1.378 . S
C1468 C1469 1.367 . S
C1469 C1468 1.367 . S
C1469 C1471 1.433 . S
C1470 C1466 1.350 . S
C1470 C1467 1.463 1_545 S
C1470 N1474 1.427 . S
C1471 H1461 0.929 . S
C1471 C1469 1.433 . S
C1471 N1474 1.384 . S
C1472 H1463 0.929 1_565 S
C1472 C1464 1.378 . S
C1472 C1467 1.350 . S
C1473 H1460 0.929 . S
C1473 C1465 1.433 . S
C1473 N1475 1.384 . S
N1474 C1470 1.427 . S
N1474 C1471 1.384 . S
N1475 C1467 1.427 . S
N1475 C1473 1.384 . S
H1476 C1482 0.930 . S
H1477 C1486 0.930 . S
H1478 C1491 0.929 . S
H1479 C1489 0.929 . S
H1480 C1484 0.929 . S
H1481 C1490 0.929 . S
C1482 H1476 0.930 . S
C1482 C1483 1.367 . S
C1482 C1490 1.378 . S
C1483 C1482 1.367 . S
C1483 C1491 1.433 . S
C1484 H1480 0.929 . S
C1484 C1486 1.378 . S
C1484 C1488 1.350 . S
C1485 C1488 1.463 1_455 S
C1485 C1490 1.350 . S
C1485 N1493 1.427 . S
C1486 H1477 0.930 . S
C1486 C1484 1.378 . S
C1486 C1487 1.367 . S
C1487 C1486 1.367 . S
C1487 C1489 1.433 . S
C1488 C1484 1.350 . S
C1488 C1485 1.463 1_655 S
C1488 N1492 1.427 . S
C1489 H1479 0.929 . S
C1489 C1487 1.433 . S
C1489 N1492 1.384 . S
C1490 H1481 0.929 . S
C1490 C1482 1.378 . S
C1490 C1485 1.350 . S
C1491 H1478 0.929 . S
C1491 C1483 1.433 . S
C1491 N1493 1.384 . S
N1492 C1488 1.427 . S
N1492 C1489 1.384 . S
N1493 C1485 1.427 . S
N1493 C1491 1.384 . S
H1494 C1500 0.930 . S
H1495 C1504 0.930 . S
H1496 C1509 0.929 . S
H1497 C1507 0.929 . S
H1498 C1502 0.929 . S
H1499 C1508 0.929 . S
C1500 H1494 0.930 . S
C1500 C1501 1.367 . S
C1500 C1508 1.378 . S
C1501 C1500 1.367 . S
C1501 C1509 1.433 . S
C1502 H1498 0.929 . S
C1502 C1504 1.378 . S
C1502 C1506 1.350 . S
C1503 C1506 1.463 . S
C1503 C1508 1.350 . S
C1503 N1511 1.427 . S
C1504 H1495 0.930 . S
C1504 C1502 1.378 . S
C1504 C1505 1.367 . S
C1505 C1504 1.367 . S
C1505 C1507 1.433 . S
C1506 C1502 1.350 . S
C1506 C1503 1.463 . S
C1506 N1510 1.427 . S
C1507 H1497 0.929 . S
C1507 C1505 1.433 . S
C1507 N1510 1.384 . S
C1508 H1499 0.929 . S
C1508 C1500 1.378 . S
C1508 C1503 1.350 . S
C1509 H1496 0.929 . S
C1509 C1501 1.433 . S
C1509 N1511 1.384 . S
N1510 C1506 1.427 . S
N1510 C1507 1.384 . S
N1511 C1503 1.427 . S
N1511 C1509 1.384 . S
H1512 C1518 0.930 . S
H1513 C1522 0.930 . S
H1514 C1527 0.930 1_455 S
H1515 C1525 0.929 . S
H1516 C1520 0.929 . S
H1517 C1526 0.929 . S
C1518 H1512 0.930 . S
C1518 C1519 1.367 . S
C1518 C1526 1.378 1_455 S
C1519 C1518 1.367 . S
C1519 C1527 1.433 1_455 S
C1520 H1516 0.929 . S
C1520 C1522 1.378 . S
C1520 C1524 1.350 . S
C1521 C1524 1.463 . S
C1521 C1526 1.350 . S
C1521 N1529 1.427 . S
C1522 H1513 0.930 . S
C1522 C1520 1.378 . S
C1522 C1523 1.367 . S
C1523 C1522 1.367 . S
C1523 C1525 1.433 . S
C1524 C1520 1.350 . S
C1524 C1521 1.463 . S
C1524 N1528 1.427 . S
C1525 H1515 0.929 . S
C1525 C1523 1.433 . S
C1525 N1528 1.384 . S
C1526 H1517 0.929 . S
C1526 C1518 1.378 1_655 S
C1526 C1521 1.350 . S
C1527 H1514 0.930 1_655 S
C1527 C1519 1.433 1_655 S
C1527 N1529 1.384 . S
N1528 C1524 1.427 . S
N1528 C1525 1.384 . S
N1529 C1521 1.427 . S
N1529 C1527 1.384 . S
H1530 C1536 0.930 . S
H1531 C1540 0.930 . S
H1532 C1545 0.929 . S
H1533 C1543 0.929 . S
H1534 C1538 0.929 . S
H1535 C1544 0.929 . S
C1536 H1530 0.930 . S
C1536 C1537 1.367 . S
C1536 C1544 1.378 . S
C1537 C1536 1.367 . S
C1537 C1545 1.433 . S
C1538 H1534 0.929 . S
C1538 C1540 1.378 . S
C1538 C1542 1.350 . S
C1539 C1542 1.463 . S
C1539 C1544 1.350 . S
C1539 N1547 1.427 . S
C1540 H1531 0.930 . S
C1540 C1538 1.378 . S
C1540 C1541 1.367 . S
C1541 C1540 1.367 . S
C1541 C1543 1.433 . S
C1542 C1538 1.350 . S
C1542 C1539 1.463 . S
C1542 N1546 1.427 . S
C1543 H1533 0.929 . S
C1543 C1541 1.433 . S
C1543 N1546 1.384 . S
C1544 H1535 0.929 . S
C1544 C1536 1.378 . S
C1544 C1539 1.350 . S
C1545 H1532 0.929 . S
C1545 C1537 1.433 . S
C1545 N1547 1.384 . S
N1546 C1542 1.427 . S
N1546 C1543 1.384 . S
N1547 C1539 1.427 . S
N1547 C1545 1.384 . S
H1548 C1554 0.930 1_565 S
H1549 C1558 0.930 . S
H1550 C1563 0.929 1_565 S
H1551 C1561 0.929 . S
H1552 C1556 0.929 . S
H1553 C1562 0.929 . S
C1554 H1548 0.930 1_545 S
C1554 C1555 1.367 1_545 S
C1554 C1562 1.378 . S
C1555 C1554 1.367 1_565 S
C1555 C1563 1.433 1_565 S
C1556 H1552 0.929 . S
C1556 C1558 1.378 . S
C1556 C1560 1.350 . S
C1557 C1560 1.463 . S
C1557 C1562 1.350 . S
C1557 N1565 1.427 . S
C1558 H1549 0.930 . S
C1558 C1556 1.378 . S
C1558 C1559 1.367 . S
C1559 C1558 1.367 . S
C1559 C1561 1.433 . S
C1560 C1556 1.350 . S
C1560 C1557 1.463 . S
C1560 N1564 1.427 . S
C1561 H1551 0.929 . S
C1561 C1559 1.433 . S
C1561 N1564 1.384 . S
C1562 H1553 0.929 . S
C1562 C1554 1.378 . S
C1562 C1557 1.350 . S
C1563 H1550 0.929 1_545 S
C1563 C1555 1.433 1_545 S
C1563 N1565 1.384 . S
N1564 C1560 1.427 . S
N1564 C1561 1.384 . S
N1565 C1557 1.427 . S
N1565 C1563 1.384 . S
H1566 C1572 0.930 . S
H1567 C1576 0.930 . S
H1568 C1581 0.929 . S
H1569 C1579 0.929 . S
H1570 C1574 0.929 . S
H1571 C1580 0.929 . S
C1572 H1566 0.930 . S
C1572 C1573 1.367 . S
C1572 C1580 1.378 . S
C1573 C1572 1.367 . S
C1573 C1581 1.433 . S
C1574 H1570 0.929 . S
C1574 C1576 1.378 . S
C1574 C1578 1.350 . S
C1575 C1578 1.463 . S
C1575 C1580 1.350 . S
C1575 N1583 1.427 . S
C1576 H1567 0.930 . S
C1576 C1574 1.378 . S
C1576 C1577 1.367 . S
C1577 C1576 1.367 . S
C1577 C1579 1.433 . S
C1578 C1574 1.350 . S
C1578 C1575 1.463 . S
C1578 N1582 1.427 . S
C1579 H1569 0.929 . S
C1579 C1577 1.433 . S
C1579 N1582 1.384 . S
C1580 H1571 0.929 . S
C1580 C1572 1.378 . S
C1580 C1575 1.350 . S
C1581 H1568 0.929 . S
C1581 C1573 1.433 . S
C1581 N1583 1.384 . S
N1582 C1578 1.427 . S
N1582 C1579 1.384 . S
N1583 C1575 1.427 . S
N1583 C1581 1.384 . S
H1584 C1590 0.930 . S
H1585 C1594 0.930 . S
H1586 C1599 0.929 . S
H1587 C1597 0.929 . S
H1588 C1592 0.929 . S
H1589 C1598 0.929 . S
C1590 H1584 0.930 . S
C1590 C1591 1.367 . S
C1590 C1598 1.378 . S
C1591 C1590 1.367 . S
C1591 C1599 1.433 . S
C1592 H1588 0.929 . S
C1592 C1594 1.378 . S
C1592 C1596 1.350 . S
C1593 C1596 1.463 . S
C1593 C1598 1.350 . S
C1593 N1601 1.427 . S
C1594 H1585 0.930 . S
C1594 C1592 1.378 . S
C1594 C1595 1.367 . S
C1595 C1594 1.367 . S
C1595 C1597 1.433 . S
C1596 C1592 1.350 . S
C1596 C1593 1.463 . S
C1596 N1600 1.427 . S
C1597 H1587 0.929 . S
C1597 C1595 1.433 . S
C1597 N1600 1.384 . S
C1598 H1589 0.929 . S
C1598 C1590 1.378 . S
C1598 C1593 1.350 . S
C1599 H1586 0.929 . S
C1599 C1591 1.433 . S
C1599 N1601 1.384 . S
N1600 C1596 1.427 . S
N1600 C1597 1.384 . S
N1601 C1593 1.427 . S
N1601 C1599 1.384 . S
H1602 C1608 0.930 . S
H1603 C1612 0.930 . S
H1604 C1617 0.929 . S
H1605 C1615 0.929 . S
H1606 C1610 0.929 . S
H1607 C1616 0.929 . S
C1608 H1602 0.930 . S
C1608 C1609 1.367 . S
C1608 C1616 1.378 . S
C1609 C1608 1.367 . S
C1609 C1617 1.433 . S
C1610 H1606 0.929 . S
C1610 C1612 1.378 . S
C1610 C1614 1.350 . S
C1611 C1614 1.463 . S
C1611 C1616 1.350 . S
C1611 N1619 1.427 . S
C1612 H1603 0.930 . S
C1612 C1610 1.378 . S
C1612 C1613 1.367 . S
C1613 C1612 1.367 . S
C1613 C1615 1.433 . S
C1614 C1610 1.350 . S
C1614 C1611 1.463 . S
C1614 N1618 1.427 . S
C1615 H1605 0.929 . S
C1615 C1613 1.433 . S
C1615 N1618 1.384 . S
C1616 H1607 0.929 . S
C1616 C1608 1.378 . S
C1616 C1611 1.350 . S
C1617 H1604 0.929 . S
C1617 C1609 1.433 . S
C1617 N1619 1.384 . S
N1618 C1614 1.427 . S
N1618 C1615 1.384 . S
N1619 C1611 1.427 . S
N1619 C1617 1.384 . S
H1620 C1626 0.930 . S
H1621 C1630 0.930 . S
H1622 C1635 0.929 . S
H1623 C1633 0.929 . S
H1624 C1628 0.929 . S
H1625 C1634 0.929 . S
C1626 H1620 0.930 . S
C1626 C1627 1.367 . S
C1626 C1634 1.378 . S
C1627 C1626 1.367 . S
C1627 C1635 1.433 . S
C1628 H1624 0.929 . S
C1628 C1630 1.378 . S
C1628 C1632 1.350 . S
C1629 C1632 1.463 . S
C1629 C1634 1.350 . S
C1629 N1637 1.427 . S
C1630 H1621 0.930 . S
C1630 C1628 1.378 . S
C1630 C1631 1.367 . S
C1631 C1630 1.367 . S
C1631 C1633 1.433 . S
C1632 C1628 1.350 . S
C1632 C1629 1.463 . S
C1632 N1636 1.427 . S
C1633 H1623 0.929 . S
C1633 C1631 1.433 . S
C1633 N1636 1.384 . S
C1634 H1625 0.929 . S
C1634 C1626 1.378 . S
C1634 C1629 1.350 . S
C1635 H1622 0.929 . S
C1635 C1627 1.433 . S
C1635 N1637 1.384 . S
N1636 C1632 1.427 . S
N1636 C1633 1.384 . S
N1637 C1629 1.427 . S
N1637 C1635 1.384 . S
H1638 C1644 0.930 . S
H1639 C1648 0.930 . S
H1640 C1653 0.929 . S
H1641 C1651 0.929 . S
H1642 C1646 0.929 . S
H1643 C1652 0.929 . S
C1644 H1638 0.930 . S
C1644 C1645 1.367 . S
C1644 C1652 1.378 . S
C1645 C1644 1.367 . S
C1645 C1653 1.433 . S
C1646 H1642 0.929 . S
C1646 C1648 1.378 . S
C1646 C1650 1.350 . S
C1647 C1650 1.463 . S
C1647 C1652 1.350 . S
C1647 N1655 1.427 . S
C1648 H1639 0.930 . S
C1648 C1646 1.378 . S
C1648 C1649 1.367 . S
C1649 C1648 1.367 . S
C1649 C1651 1.433 . S
C1650 C1646 1.350 . S
C1650 C1647 1.463 . S
C1650 N1654 1.427 . S
C1651 H1641 0.929 . S
C1651 C1649 1.433 . S
C1651 N1654 1.384 . S
C1652 H1643 0.929 . S
C1652 C1644 1.378 . S
C1652 C1647 1.350 . S
C1653 H1640 0.929 . S
C1653 C1645 1.433 . S
C1653 N1655 1.384 . S
N1654 C1650 1.427 . S
N1654 C1651 1.384 . S
N1655 C1647 1.427 . S
N1655 C1653 1.384 . S
H1656 C1662 0.930 . S
H1657 C1666 0.930 . S
H1658 C1671 0.929 . S
H1659 C1669 0.929 . S
H1660 C1664 0.929 . S
H1661 C1670 0.929 . S
C1662 H1656 0.930 . S
C1662 C1663 1.367 . S
C1662 C1670 1.378 . S
C1663 C1662 1.367 . S
C1663 C1671 1.433 . S
C1664 H1660 0.929 . S
C1664 C1666 1.378 . S
C1664 C1668 1.350 . S
C1665 C1668 1.463 . S
C1665 C1670 1.350 . S
C1665 N1673 1.427 . S
C1666 H1657 0.930 . S
C1666 C1664 1.378 . S
C1666 C1667 1.367 . S
C1667 C1666 1.367 . S
C1667 C1669 1.433 . S
C1668 C1664 1.350 . S
C1668 C1665 1.463 . S
C1668 N1672 1.427 . S
C1669 H1659 0.929 . S
C1669 C1667 1.433 . S
C1669 N1672 1.384 . S
C1670 H1661 0.929 . S
C1670 C1662 1.378 . S
C1670 C1665 1.350 . S
C1671 H1658 0.929 . S
C1671 C1663 1.433 . S
C1671 N1673 1.384 . S
N1672 C1668 1.427 . S
N1672 C1669 1.384 . S
N1673 C1665 1.427 . S
N1673 C1671 1.384 . S
H1674 C1680 0.930 . S
H1675 C1684 0.930 . S
H1676 C1689 0.929 . S
H1677 C1687 0.929 . S
H1678 C1682 0.929 . S
H1679 C1688 0.929 . S
C1680 H1674 0.930 . S
C1680 C1681 1.367 . S
C1680 C1688 1.378 . S
C1681 C1680 1.367 . S
C1681 C1689 1.433 . S
C1682 H1678 0.929 . S
C1682 C1684 1.378 . S
C1682 C1686 1.350 . S
C1683 C1686 1.463 . S
C1683 C1688 1.350 . S
C1683 N1691 1.427 . S
C1684 H1675 0.930 . S
C1684 C1682 1.378 . S
C1684 C1685 1.367 . S
C1685 C1684 1.367 . S
C1685 C1687 1.433 . S
C1686 C1682 1.350 . S
C1686 C1683 1.463 . S
C1686 N1690 1.427 . S
C1687 H1677 0.929 . S
C1687 C1685 1.433 . S
C1687 N1690 1.384 . S
C1688 H1679 0.929 . S
C1688 C1680 1.378 . S
C1688 C1683 1.350 . S
C1689 H1676 0.929 . S
C1689 C1681 1.433 . S
C1689 N1691 1.384 . S
N1690 C1686 1.427 . S
N1690 C1687 1.384 . S
N1691 C1683 1.427 . S
N1691 C1689 1.384 . S
H1692 C1698 0.930 . S
H1693 C1702 0.930 . S
H1694 C1707 0.929 . S
H1695 C1705 0.929 . S
H1696 C1700 0.929 . S
H1697 C1706 0.929 . S
C1698 H1692 0.930 . S
C1698 C1699 1.367 . S
C1698 C1706 1.378 . S
C1699 C1698 1.367 . S
C1699 C1707 1.433 . S
C1700 H1696 0.929 . S
C1700 C1702 1.378 . S
C1700 C1704 1.350 . S
C1701 C1704 1.463 . S
C1701 C1706 1.350 . S
C1701 N1709 1.427 . S
C1702 H1693 0.930 . S
C1702 C1700 1.378 . S
C1702 C1703 1.367 . S
C1703 C1702 1.367 . S
C1703 C1705 1.433 . S
C1704 C1700 1.350 . S
C1704 C1701 1.463 . S
C1704 N1708 1.427 . S
C1705 H1695 0.929 . S
C1705 C1703 1.433 . S
C1705 N1708 1.384 . S
C1706 H1697 0.929 . S
C1706 C1698 1.378 . S
C1706 C1701 1.350 . S
C1707 H1694 0.929 . S
C1707 C1699 1.433 . S
C1707 N1709 1.384 . S
N1708 C1704 1.427 . S
N1708 C1705 1.384 . S
N1709 C1701 1.427 . S
N1709 C1707 1.384 . S
H1710 C1716 0.930 . S
H1711 C1720 0.930 . S
H1712 C1725 0.929 . S
H1713 C1723 0.929 . S
H1714 C1718 0.929 . S
H1715 C1724 0.929 . S
C1716 H1710 0.930 . S
C1716 C1717 1.367 . S
C1716 C1724 1.378 . S
C1717 C1716 1.367 . S
C1717 C1725 1.433 . S
C1718 H1714 0.929 . S
C1718 C1720 1.378 . S
C1718 C1722 1.350 . S
C1719 C1722 1.463 . S
C1719 C1724 1.350 . S
C1719 N1727 1.427 . S
C1720 H1711 0.930 . S
C1720 C1718 1.378 . S
C1720 C1721 1.367 . S
C1721 C1720 1.367 . S
C1721 C1723 1.433 . S
C1722 C1718 1.350 . S
C1722 C1719 1.463 . S
C1722 N1726 1.427 . S
C1723 H1713 0.929 . S
C1723 C1721 1.433 . S
C1723 N1726 1.384 . S
C1724 H1715 0.929 . S
C1724 C1716 1.378 . S
C1724 C1719 1.350 . S
C1725 H1712 0.929 . S
C1725 C1717 1.433 . S
C1725 N1727 1.384 . S
N1726 C1722 1.427 . S
N1726 C1723 1.384 . S
N1727 C1719 1.427 . S
N1727 C1725 1.384 . S
H1728 C1734 0.930 . S
H1729 C1738 0.930 . S
H1730 C1743 0.929 . S
H1731 C1741 0.929 . S
H1732 C1736 0.929 . S
H1733 C1742 0.929 . S
C1734 H1728 0.930 . S
C1734 C1735 1.367 . S
C1734 C1742 1.378 . S
C1735 C1734 1.367 . S
C1735 C1743 1.433 . S
C1736 H1732 0.929 . S
C1736 C1738 1.378 . S
C1736 C1740 1.350 . S
C1737 C1740 1.463 . S
C1737 C1742 1.350 . S
C1737 N1745 1.427 . S
C1738 H1729 0.930 . S
C1738 C1736 1.378 . S
C1738 C1739 1.367 . S
C1739 C1738 1.367 . S
C1739 C1741 1.433 . S
C1740 C1736 1.350 . S
C1740 C1737 1.463 . S
C1740 N1744 1.427 . S
C1741 H1731 0.929 . S
C1741 C1739 1.433 . S
C1741 N1744 1.384 . S
C1742 H1733 0.929 . S
C1742 C1734 1.378 . S
C1742 C1737 1.350 . S
C1743 H1730 0.929 . S
C1743 C1735 1.433 . S
C1743 N1745 1.384 . S
N1744 C1740 1.427 . S
N1744 C1741 1.384 . S
N1745 C1737 1.427 . S
N1745 C1743 1.384 . S
H1746 C1752 0.930 . S
H1747 C1756 0.930 . S
H1748 C1761 0.929 . S
H1749 C1759 0.929 . S
H1750 C1754 0.929 . S
H1751 C1760 0.929 . S
C1752 H1746 0.930 . S
C1752 C1753 1.367 . S
C1752 C1760 1.378 . S
C1753 C1752 1.367 . S
C1753 C1761 1.433 . S
C1754 H1750 0.929 . S
C1754 C1756 1.378 . S
C1754 C1758 1.350 . S
C1755 C1758 1.463 . S
C1755 C1760 1.350 . S
C1755 N1763 1.427 . S
C1756 H1747 0.930 . S
C1756 C1754 1.378 . S
C1756 C1757 1.367 . S
C1757 C1756 1.367 . S
C1757 C1759 1.433 . S
C1758 C1754 1.350 . S
C1758 C1755 1.463 . S
C1758 N1762 1.427 . S
C1759 H1749 0.929 . S
C1759 C1757 1.433 . S
C1759 N1762 1.384 . S
C1760 H1751 0.929 . S
C1760 C1752 1.378 . S
C1760 C1755 1.350 . S
C1761 H1748 0.929 . S
C1761 C1753 1.433 . S
C1761 N1763 1.384 . S
N1762 C1758 1.427 . S
N1762 C1759 1.384 . S
N1763 C1755 1.427 . S
N1763 C1761 1.384 . S
H1764 C1770 0.930 . S
H1765 C1774 0.930 . S
H1766 C1779 0.929 . S
H1767 C1777 0.929 . S
H1768 C1772 0.929 . S
H1769 C1778 0.929 . S
C1770 H1764 0.930 . S
C1770 C1771 1.367 . S
C1770 C1778 1.378 . S
C1771 C1770 1.367 . S
C1771 C1779 1.433 . S
C1772 H1768 0.929 . S
C1772 C1774 1.378 . S
C1772 C1776 1.350 . S
C1773 C1776 1.463 . S
C1773 C1778 1.350 . S
C1773 N1781 1.427 . S
C1774 H1765 0.930 . S
C1774 C1772 1.378 . S
C1774 C1775 1.367 . S
C1775 C1774 1.367 . S
C1775 C1777 1.433 . S
C1776 C1772 1.350 . S
C1776 C1773 1.463 . S
C1776 N1780 1.427 . S
C1777 H1767 0.929 . S
C1777 C1775 1.433 . S
C1777 N1780 1.384 . S
C1778 H1769 0.929 . S
C1778 C1770 1.378 . S
C1778 C1773 1.350 . S
C1779 H1766 0.929 . S
C1779 C1771 1.433 . S
C1779 N1781 1.384 . S
N1780 C1776 1.427 . S
N1780 C1777 1.384 . S
N1781 C1773 1.427 . S
N1781 C1779 1.384 . S
H1782 C1788 0.930 . S
H1783 C1792 0.930 . S
H1784 C1797 0.929 . S
H1785 C1795 0.929 . S
H1786 C1790 0.929 . S
H1787 C1796 0.929 . S
C1788 H1782 0.930 . S
C1788 C1789 1.367 . S
C1788 C1796 1.378 . S
C1789 C1788 1.367 . S
C1789 C1797 1.433 . S
C1790 H1786 0.929 . S
C1790 C1792 1.378 . S
C1790 C1794 1.350 . S
C1791 C1794 1.463 . S
C1791 C1796 1.350 . S
C1791 N1799 1.427 . S
C1792 H1783 0.930 . S
C1792 C1790 1.378 . S
C1792 C1793 1.367 . S
C1793 C1792 1.367 . S
C1793 C1795 1.433 . S
C1794 C1790 1.350 . S
C1794 C1791 1.463 . S
C1794 N1798 1.427 . S
C1795 H1785 0.929 . S
C1795 C1793 1.433 . S
C1795 N1798 1.384 . S
C1796 H1787 0.929 . S
C1796 C1788 1.378 . S
C1796 C1791 1.350 . S
C1797 H1784 0.929 . S
C1797 C1789 1.433 . S
C1797 N1799 1.384 . S
N1798 C1794 1.427 . S
N1798 C1795 1.384 . S
N1799 C1791 1.427 . S
N1799 C1797 1.384 . S
H1800 C1806 0.930 . S
H1801 C1810 0.930 . S
H1802 C1815 0.929 . S
H1803 C1813 0.929 . S
H1804 C1808 0.929 . S
H1805 C1814 0.929 . S
C1806 H1800 0.930 . S
C1806 C1807 1.367 . S
C1806 C1814 1.378 . S
C1807 C1806 1.367 . S
C1807 C1815 1.433 . S
C1808 H1804 0.929 . S
C1808 C1810 1.378 . S
C1808 C1812 1.350 . S
C1809 C1812 1.463 . S
C1809 C1814 1.350 . S
C1809 N1817 1.427 . S
C1810 H1801 0.930 . S
C1810 C1808 1.378 . S
C1810 C1811 1.367 . S
C1811 C1810 1.367 . S
C1811 C1813 1.433 . S
C1812 C1808 1.350 . S
C1812 C1809 1.463 . S
C1812 N1816 1.427 . S
C1813 H1803 0.929 . S
C1813 C1811 1.433 . S
C1813 N1816 1.384 . S
C1814 H1805 0.929 . S
C1814 C1806 1.378 . S
C1814 C1809 1.350 . S
C1815 H1802 0.929 . S
C1815 C1807 1.433 . S
C1815 N1817 1.384 . S
N1816 C1812 1.427 . S
N1816 C1813 1.384 . S
N1817 C1809 1.427 . S
N1817 C1815 1.384 . S
H1818 C1824 0.930 . S
H1819 C1828 0.930 . S
H1820 C1833 0.929 . S
H1821 C1831 0.929 . S
H1822 C1826 0.929 . S
H1823 C1832 0.929 . S
C1824 H1818 0.930 . S
C1824 C1825 1.367 . S
C1824 C1832 1.378 . S
C1825 C1824 1.367 . S
C1825 C1833 1.433 . S
C1826 H1822 0.929 . S
C1826 C1828 1.378 . S
C1826 C1830 1.350 . S
C1827 C1830 1.463 . S
C1827 C1832 1.350 . S
C1827 N1835 1.427 . S
C1828 H1819 0.930 . S
C1828 C1826 1.378 . S
C1828 C1829 1.367 . S
C1829 C1828 1.367 . S
C1829 C1831 1.433 . S
C1830 C1826 1.350 . S
C1830 C1827 1.463 . S
C1830 N1834 1.427 . S
C1831 H1821 0.929 . S
C1831 C1829 1.433 . S
C1831 N1834 1.384 . S
C1832 H1823 0.929 . S
C1832 C1824 1.378 . S
C1832 C1827 1.350 . S
C1833 H1820 0.929 . S
C1833 C1825 1.433 . S
C1833 N1835 1.384 . S
N1834 C1830 1.427 . S
N1834 C1831 1.384 . S
N1835 C1827 1.427 . S
N1835 C1833 1.384 . S
H1836 C1842 0.930 . S
H1837 C1846 0.930 . S
H1838 C1851 0.929 . S
H1839 C1849 0.929 . S
H1840 C1844 0.929 . S
H1841 C1850 0.929 . S
C1842 H1836 0.930 . S
C1842 C1843 1.367 . S
C1842 C1850 1.378 . S
C1843 C1842 1.367 . S
C1843 C1851 1.433 . S
C1844 H1840 0.929 . S
C1844 C1846 1.378 . S
C1844 C1848 1.350 . S
C1845 C1848 1.463 . S
C1845 C1850 1.350 . S
C1845 N1853 1.427 . S
C1846 H1837 0.930 . S
C1846 C1844 1.378 . S
C1846 C1847 1.367 . S
C1847 C1846 1.367 . S
C1847 C1849 1.433 . S
C1848 C1844 1.350 . S
C1848 C1845 1.463 . S
C1848 N1852 1.427 . S
C1849 H1839 0.929 . S
C1849 C1847 1.433 . S
C1849 N1852 1.384 . S
C1850 H1841 0.929 . S
C1850 C1842 1.378 . S
C1850 C1845 1.350 . S
C1851 H1838 0.929 . S
C1851 C1843 1.433 . S
C1851 N1853 1.384 . S
N1852 C1848 1.427 . S
N1852 C1849 1.384 . S
N1853 C1845 1.427 . S
N1853 C1851 1.384 . S
H1854 C1860 0.930 . S
H1855 C1864 0.930 . S
H1856 C1869 0.929 . S
H1857 C1867 0.929 . S
H1858 C1862 0.929 . S
H1859 C1868 0.929 . S
C1860 H1854 0.930 . S
C1860 C1861 1.367 . S
C1860 C1868 1.378 . S
C1861 C1860 1.367 . S
C1861 C1869 1.433 . S
C1862 H1858 0.929 . S
C1862 C1864 1.378 . S
C1862 C1866 1.350 . S
C1863 C1866 1.463 . S
C1863 C1868 1.350 . S
C1863 N1871 1.427 . S
C1864 H1855 0.930 . S
C1864 C1862 1.378 . S
C1864 C1865 1.367 . S
C1865 C1864 1.367 . S
C1865 C1867 1.433 . S
C1866 C1862 1.350 . S
C1866 C1863 1.463 . S
C1866 N1870 1.427 . S
C1867 H1857 0.929 . S
C1867 C1865 1.433 . S
C1867 N1870 1.384 . S
C1868 H1859 0.929 . S
C1868 C1860 1.378 . S
C1868 C1863 1.350 . S
C1869 H1856 0.929 . S
C1869 C1861 1.433 . S
C1869 N1871 1.384 . S
N1870 C1866 1.427 . S
N1870 C1867 1.384 . S
N1871 C1863 1.427 . S
N1871 C1869 1.384 . S
H1872 C1878 0.930 . S
H1873 C1882 0.930 . S
H1874 C1887 0.929 . S
H1875 C1885 0.929 . S
H1876 C1880 0.929 . S
H1877 C1886 0.929 . S
C1878 H1872 0.930 . S
C1878 C1879 1.367 . S
C1878 C1886 1.378 . S
C1879 C1878 1.367 . S
C1879 C1887 1.433 . S
C1880 H1876 0.929 . S
C1880 C1882 1.378 . S
C1880 C1884 1.350 . S
C1881 C1884 1.463 . S
C1881 C1886 1.350 . S
C1881 N1889 1.427 . S
C1882 H1873 0.930 . S
C1882 C1880 1.378 . S
C1882 C1883 1.367 . S
C1883 C1882 1.367 . S
C1883 C1885 1.433 . S
C1884 C1880 1.350 . S
C1884 C1881 1.463 . S
C1884 N1888 1.427 . S
C1885 H1875 0.929 . S
C1885 C1883 1.433 . S
C1885 N1888 1.384 . S
C1886 H1877 0.929 . S
C1886 C1878 1.378 . S
C1886 C1881 1.350 . S
C1887 H1874 0.929 . S
C1887 C1879 1.433 . S
C1887 N1889 1.384 . S
N1888 C1884 1.427 . S
N1888 C1885 1.384 . S
N1889 C1881 1.427 . S
N1889 C1887 1.384 . S
H1890 C1896 0.930 . S
H1891 C1900 0.930 . S
H1892 C1905 0.929 . S
H1893 C1903 0.929 . S
H1894 C1898 0.929 . S
H1895 C1904 0.929 . S
C1896 H1890 0.930 . S
C1896 C1897 1.367 . S
C1896 C1904 1.378 . S
C1897 C1896 1.367 . S
C1897 C1905 1.433 . S
C1898 H1894 0.929 . S
C1898 C1900 1.378 . S
C1898 C1902 1.350 . S
C1899 C1902 1.463 . S
C1899 C1904 1.350 . S
C1899 N1907 1.427 . S
C1900 H1891 0.930 . S
C1900 C1898 1.378 . S
C1900 C1901 1.367 . S
C1901 C1900 1.367 . S
C1901 C1903 1.433 . S
C1902 C1898 1.350 . S
C1902 C1899 1.463 . S
C1902 N1906 1.427 . S
C1903 H1893 0.929 . S
C1903 C1901 1.433 . S
C1903 N1906 1.384 . S
C1904 H1895 0.929 . S
C1904 C1896 1.378 . S
C1904 C1899 1.350 . S
C1905 H1892 0.929 . S
C1905 C1897 1.433 . S
C1905 N1907 1.384 . S
N1906 C1902 1.427 . S
N1906 C1903 1.384 . S
N1907 C1899 1.427 . S
N1907 C1905 1.384 . S
H1908 C1914 0.930 . S
H1909 C1918 0.930 . S
H1910 C1923 0.929 . S
H1911 C1921 0.929 . S
H1912 C1916 0.929 . S
H1913 C1922 0.929 . S
C1914 H1908 0.930 . S
C1914 C1915 1.367 . S
C1914 C1922 1.378 . S
C1915 C1914 1.367 . S
C1915 C1923 1.433 . S
C1916 H1912 0.929 . S
C1916 C1918 1.378 . S
C1916 C1920 1.350 . S
C1917 C1920 1.463 . S
C1917 C1922 1.350 . S
C1917 N1925 1.427 . S
C1918 H1909 0.930 . S
C1918 C1916 1.378 . S
C1918 C1919 1.367 . S
C1919 C1918 1.367 . S
C1919 C1921 1.433 . S
C1920 C1916 1.350 . S
C1920 C1917 1.463 . S
C1920 N1924 1.427 . S
C1921 H1911 0.929 . S
C1921 C1919 1.433 . S
C1921 N1924 1.384 . S
C1922 H1913 0.929 . S
C1922 C1914 1.378 . S
C1922 C1917 1.350 . S
C1923 H1910 0.929 . S
C1923 C1915 1.433 . S
C1923 N1925 1.384 . S
N1924 C1920 1.427 . S
N1924 C1921 1.384 . S
N1925 C1917 1.427 . S
N1925 C1923 1.384 . S
H1926 C1932 0.930 . S
H1927 C1936 0.930 . S
H1928 C1941 0.929 . S
H1929 C1939 0.929 . S
H1930 C1934 0.929 . S
H1931 C1940 0.929 . S
C1932 H1926 0.930 . S
C1932 C1933 1.367 . S
C1932 C1940 1.378 . S
C1933 C1932 1.367 . S
C1933 C1941 1.433 . S
C1934 H1930 0.929 . S
C1934 C1936 1.378 . S
C1934 C1938 1.350 . S
C1935 C1938 1.463 . S
C1935 C1940 1.350 . S
C1935 N1943 1.427 . S
C1936 H1927 0.930 . S
C1936 C1934 1.378 . S
C1936 C1937 1.367 . S
C1937 C1936 1.367 . S
C1937 C1939 1.433 . S
C1938 C1934 1.350 . S
C1938 C1935 1.463 . S
C1938 N1942 1.427 . S
C1939 H1929 0.929 . S
C1939 C1937 1.433 . S
C1939 N1942 1.384 . S
C1940 H1931 0.929 . S
C1940 C1932 1.378 . S
C1940 C1935 1.350 . S
C1941 H1928 0.929 . S
C1941 C1933 1.433 . S
C1941 N1943 1.384 . S
N1942 C1938 1.427 . S
N1942 C1939 1.384 . S
N1943 C1935 1.427 . S
N1943 C1941 1.384 . S
C979 C162 1.449 . S
C983 C272 1.400 . S
C997 C174 1.477 . S
C1001 C356 1.414 . S
C1015 C150 1.444 . S
C1019 C450 1.439 . S
C1033 C138 1.429 . S
C1037 C366 1.423 1_556 S
C1055 C440 1.379 . S
C1051 C114 1.434 . S
C1069 C126 1.410 . S
C1073 C282 1.402 1_556 S
C1091 C283 1.451 . S
C1087 C136 1.494 . S
C1109 C367 1.461 . S
C1105 C112 1.525 . S
C1123 C124 1.515 . S
C1127 C459 1.479 1_556 S
C1141 C160 1.488 . S
C1145 C375 1.463 . S
C1159 C172 1.470 . S
C1163 C451 1.426 . S
C1181 C291 1.435 . S
C1177 C148 1.469 . S
C1199 C524 1.387 . S
C1195 C18 1.451 . S
C1213 C30 1.475 . S
C1217 C608 1.421 . S
C1231 C6 1.446 . S
C1235 C702 1.444 . S
C1249 C210 1.429 . S
C1253 C618 1.423 . S
C1267 C186 1.438 . S
C1271 C692 1.374 . S
C1285 C198 1.407 . S
C1289 C534 1.397 . S
C1303 C208 1.501 . S
C1307 C535 1.435 . S
C1321 C184 1.523 . S
C1325 C619 1.461 . S
C1343 C711 1.474 . S
C1339 C196 1.509 . S
C1357 C16 1.481 . S
C1361 C627 1.457 . S
C1379 C703 1.409 . S
C1375 C28 1.476 . S
C1393 C4 1.459 . S
C1397 C543 1.433 . S
C1415 C776 1.398 . S
C1411 C90 1.451 . S
C1429 C102 1.475 . S
C1433 C860 1.420 . S
C1451 C954 1.439 . S
C1447 C78 1.449 . S
C1469 C870 1.424 . S
C1465 C66 1.432 . S
C1487 C944 1.381 . S
C1483 C42 1.433 . S
C1501 C54 1.407 . S
C1505 C786 1.398 . S
C1519 C64 1.496 . S
C1523 C787 1.448 . S
C1537 C40 1.518 . S
C1541 C871 1.468 . S
C1559 C963 1.484 . S
C1555 C52 1.508 . S
C1573 C88 1.490 . S
C1577 C879 1.459 . S
C1591 C100 1.476 . S
C1595 C955 1.409 . S
C1609 C76 1.462 . S
C1613 C795 1.439 . S
C1627 C189 1.566 . S
C1631 C279 1.447 . S
C1649 C363 1.491 . S
C1645 C201 1.623 . S
C1663 C213 1.572 . S
C1667 C456 1.396 . S
C1681 C81 1.599 . S
C1685 C372 1.409 . S
C1699 C93 1.590 . S
C1703 C447 1.457 . S
C1721 C288 1.359 . S
C1717 C105 1.539 . S
C1735 C45 1.567 . S
C1739 C531 1.446 . S
C1753 C57 1.622 . S
C1757 C615 1.489 . S
C1771 C69 1.579 . S
C1775 C708 1.395 . S
C1789 C153 1.593 . S
C1793 C624 1.396 . S
C1811 C699 1.441 . S
C1807 C165 1.589 . S
C1825 C177 1.543 . S
C1829 C540 1.365 . S
C1843 C117 1.570 . S
C1847 C783 1.439 . S
C1861 C129 1.629 . S
C1865 C867 1.476 . S
C1883 C960 1.382 . S
C1879 C141 1.577 . S
C1897 C9 1.595 . S
C1901 C876 1.388 . S
C1915 C21 1.586 . S
C1919 C951 1.445 . S
C1933 C33 1.538 . S
C1937 C792 1.360 . S
