# Generated by pormake.
# Topology ant, (3,6)-cn, num edge types: 1
# Building blocks:
#     Node 0, Type 0, BuildingBlock: MIDCAF_clean_linker_0, # of connection points: 3
#     Node 1, Type 0, BuildingBlock: MIDCAF_clean_linker_0, # of connection points: 3
#     Node 2, Type 0, BuildingBlock: MIDCAF_clean_linker_0, # of connection points: 3
#     Node 3, Type 0, BuildingBlock: MIDCAF_clean_linker_0, # of connection points: 3
#     Node 4, Type 0, BuildingBlock: MIDCAF_clean_linker_0, # of connection points: 3
#     Node 5, Type 0, BuildingBlock: MIDCAF_clean_linker_0, # of connection points: 3
#     Node 6, Type 0, BuildingBlock: MIDCAF_clean_linker_0, # of connection points: 3
#     Node 7, Type 0, BuildingBlock: MIDCAF_clean_linker_0, # of connection points: 3
#     Node 8, Type 1, BuildingBlock: MIDCAF_clean_sbu_0, # of connection points: 6
#     Node 9, Type 1, BuildingBlock: MIDCAF_clean_sbu_0, # of connection points: 6
#     Node 10, Type 1, BuildingBlock: MIDCAF_clean_sbu_0, # of connection points: 6
#     Node 11, Type 1, BuildingBlock: MIDCAF_clean_sbu_0, # of connection points: 6
#     Edge 12, Type (0, 1), BuildingBlock: TEMPAE_clean_linker_10, # of connection points: 2
#     Edge 13, Type (0, 1), BuildingBlock: TEMPAE_clean_linker_10, # of connection points: 2
#     Edge 14, Type (0, 1), BuildingBlock: TEMPAE_clean_linker_10, # of connection points: 2
#     Edge 15, Type (0, 1), BuildingBlock: TEMPAE_clean_linker_10, # of connection points: 2
#     Edge 16, Type (0, 1), BuildingBlock: TEMPAE_clean_linker_10, # of connection points: 2
#     Edge 17, Type (0, 1), BuildingBlock: TEMPAE_clean_linker_10, # of connection points: 2
#     Edge 18, Type (0, 1), BuildingBlock: TEMPAE_clean_linker_10, # of connection points: 2
#     Edge 19, Type (0, 1), BuildingBlock: TEMPAE_clean_linker_10, # of connection points: 2
#     Edge 20, Type (0, 1), BuildingBlock: TEMPAE_clean_linker_10, # of connection points: 2
#     Edge 21, Type (0, 1), BuildingBlock: TEMPAE_clean_linker_10, # of connection points: 2
#     Edge 22, Type (0, 1), BuildingBlock: TEMPAE_clean_linker_10, # of connection points: 2
#     Edge 23, Type (0, 1), BuildingBlock: TEMPAE_clean_linker_10, # of connection points: 2
#     Edge 24, Type (0, 1), BuildingBlock: TEMPAE_clean_linker_10, # of connection points: 2
#     Edge 25, Type (0, 1), BuildingBlock: TEMPAE_clean_linker_10, # of connection points: 2
#     Edge 26, Type (0, 1), BuildingBlock: TEMPAE_clean_linker_10, # of connection points: 2
#     Edge 27, Type (0, 1), BuildingBlock: TEMPAE_clean_linker_10, # of connection points: 2
#     Edge 28, Type (0, 1), BuildingBlock: TEMPAE_clean_linker_10, # of connection points: 2
#     Edge 29, Type (0, 1), BuildingBlock: TEMPAE_clean_linker_10, # of connection points: 2
#     Edge 30, Type (0, 1), BuildingBlock: TEMPAE_clean_linker_10, # of connection points: 2
#     Edge 31, Type (0, 1), BuildingBlock: TEMPAE_clean_linker_10, # of connection points: 2
#     Edge 32, Type (0, 1), BuildingBlock: TEMPAE_clean_linker_10, # of connection points: 2
#     Edge 33, Type (0, 1), BuildingBlock: TEMPAE_clean_linker_10, # of connection points: 2
#     Edge 34, Type (0, 1), BuildingBlock: TEMPAE_clean_linker_10, # of connection points: 2
#     Edge 35, Type (0, 1), BuildingBlock: TEMPAE_clean_linker_10, # of connection points: 2
# Relax obj value: 0.104
# Max RMSD: 0.159
# Mean RMSD: 0.105
data_MOF--net-ant--node1-MIDCAF_clean_sbu_0--node2-MIDCAF_clean_linker_0--edge1-TEMPAE_clean_linker_10
_symmetry_space_group_name_H-M    P1
_symmetry_Int_Tables_number       1
_symmetry_cell_setting            triclinic
loop_
_symmetry_equiv_pos_as_xyz
'x, y, z'
_cell_length_a     34.439855
_cell_length_b     34.205419
_cell_length_c     93.784285
_cell_angle_alpha  90.235386
_cell_angle_beta   93.593248
_cell_angle_gamma 90.061707
loop_
_atom_site_label
_atom_site_type_symbol
_atom_site_fract_x
_atom_site_fract_y
_atom_site_fract_z
_atom_type_partial_charge
C0 C 0.20509 0.35831 0.05729 0.0
C1 C 0.21641 0.372 0.07107 0.0
C2 C 0.23219 0.34522 0.08121 0.0
C3 C 0.23675 0.30576 0.07763 0.0
H4 H 0.23255 0.17953 0.09355 0.0
H5 H 0.24424 0.12262 0.10911 0.0
H6 H 0.30945 0.06767 0.07672 0.0
H7 H 0.29708 0.12377 0.06112 0.0
H8 H 0.22554 0.12628 0.03091 0.0
H9 H 0.20551 0.1061 0.00649 0.0
H10 H 0.18369 0.22674 0.99524 0.0
H11 H 0.20396 0.247 0.01937 0.0
H12 H 0.20089 0.30969 0.04292 0.0
H13 H 0.19317 0.37817 0.04919 0.0
H14 H 0.24071 0.3547 0.09199 0.0
H15 H 0.24905 0.28606 0.08571 0.0
N16 N 0.24473 0.22361 0.06958 0.0
N17 N 0.24156 0.17477 0.05184 0.0
N18 N 0.22257 0.23869 0.04607 0.0
C19 C 0.25026 0.18578 0.0656 0.0
C20 C 0.2275 0.20096 0.04201 0.0
C21 C 0.23118 0.25041 0.05977 0.0
C22 C 0.26359 0.1558 0.07609 0.0
C23 C 0.25026 0.15573 0.08995 0.0
C24 C 0.25689 0.12324 0.09882 0.0
C25 C 0.2778 0.09086 0.09411 0.0
C26 C 0.29365 0.0924 0.08069 0.0
C27 C 0.28628 0.12436 0.07172 0.0
C28 C 0.21651 0.18835 0.02714 0.0
C29 C 0.21673 0.14854 0.0232 0.0
C30 C 0.20509 0.13688 0.00923 0.0
C31 C 0.19338 0.16481 -0.00108 0.0
C32 C 0.19328 0.20452 0.00287 0.0
C33 C 0.20469 0.21614 0.01677 0.0
C34 C 0.22574 0.29211 0.0638 0.0
C35 C 0.20976 0.31894 0.05369 0.0
C36 C 0.20471 0.80345 0.32736 0.0
C37 C 0.20968 0.82574 0.33993 0.0
C38 C 0.17824 0.84781 0.34443 0.0
C39 C 0.14227 0.8473 0.33645 0.0
H40 H 0.01356 0.83032 0.33909 0.0
H41 H 0.94879 0.82556 0.34817 0.0
H42 H 0.89829 0.81652 0.30494 0.0
H43 H 0.96236 0.82232 0.29587 0.0
H44 H 0.01398 0.83271 0.26954 0.0
H45 H 0.01995 0.82527 0.24385 0.0
H46 H 0.14178 0.79729 0.25162 0.0
H47 H 0.13621 0.80595 0.27704 0.0
H48 H 0.16681 0.78654 0.30951 0.0
H49 H 0.22858 0.78638 0.32363 0.0
H50 H 0.18149 0.86523 0.35411 0.0
H51 H 0.11844 0.86467 0.34003 0.0
N52 N 0.06573 0.82856 0.31987 0.0
N53 N 0.03598 0.82541 0.29662 0.0
N54 N 0.10376 0.82412 0.3 0.0
C55 C 0.03276 0.82766 0.31099 0.0
C56 C 0.07132 0.82376 0.29104 0.0
C57 C 0.10138 0.82675 0.31436 0.0
C58 C 0.99343 0.8267 0.31673 0.0
C59 C 0.98863 0.82761 0.33152 0.0
C60 C 0.95148 0.82458 0.33673 0.0
C61 C 0.91824 0.82052 0.32729 0.0
C62 C 0.92307 0.82014 0.31253 0.0
C63 C 0.96005 0.82327 0.30733 0.0
C64 C 0.07463 0.82003 0.27539 0.0
C65 C 0.04209 0.8252 0.26574 0.0
C66 C 0.04546 0.82079 0.25101 0.0
C67 C 0.08139 0.81091 0.24562 0.0
C68 C 0.11383 0.80582 0.25531 0.0
C69 C 0.11056 0.81052 0.26996 0.0
C70 C 0.13776 0.82562 0.32366 0.0
C71 C 0.16937 0.80367 0.31927 0.0
C72 C 0.69234 0.85866 0.56249 0.0
C73 C 0.7112 0.87083 0.57545 0.0
C74 C 0.73027 0.84259 0.58425 0.0
C75 C 0.73026 0.80308 0.58018 0.0
H76 H 0.73161 0.67367 0.59542 0.0
H77 H 0.7494 0.61356 0.60851 0.0
H78 H 0.78412 0.56074 0.5694 0.0
H79 H 0.76552 0.61986 0.55639 0.0
H80 H 0.66559 0.62995 0.53569 0.0
H81 H 0.63365 0.61368 0.51242 0.0
H82 H 0.64613 0.73392 0.49932 0.0
H83 H 0.67594 0.75028 0.52261 0.0
H84 H 0.67751 0.81139 0.5483 0.0
H85 H 0.6778 0.87965 0.55538 0.0
H86 H 0.74472 0.85094 0.59439 0.0
H87 H 0.74507 0.78214 0.58722 0.0
N88 N 0.72825 0.72071 0.57094 0.0
N89 N 0.71015 0.67379 0.55334 0.0
N90 N 0.69337 0.73929 0.54971 0.0
C91 C 0.72813 0.68292 0.56623 0.0
C92 C 0.69259 0.70172 0.54505 0.0
C93 C 0.711 0.74921 0.5626 0.0
C94 C 0.74646 0.65106 0.57486 0.0
C95 C 0.74398 0.6495 0.58974 0.0
C96 C 0.75426 0.61517 0.59723 0.0
C97 C 0.76743 0.58218 0.58991 0.0
C98 C 0.77324 0.58534 0.57527 0.0
C99 C 0.76261 0.61922 0.56782 0.0
C100 C 0.67314 0.69147 0.53102 0.0
C101 C 0.66118 0.65288 0.52783 0.0
C102 C 0.64296 0.64352 0.51447 0.0
C103 C 0.63675 0.67249 0.50398 0.0
C104 C 0.64912 0.71097 0.50723 0.0
C105 C 0.66666 0.72039 0.52059 0.0
C106 C 0.71126 0.79094 0.5672 0.0
C107 C 0.69238 0.81935 0.55841 0.0
C108 C 0.70271 0.35603 0.82962 0.0
C109 C 0.70659 0.34271 0.84378 0.0
C110 C 0.67297 0.33049 0.85035 0.0
C111 C 0.63662 0.32999 0.84268 0.0
H112 H 0.51108 0.32619 0.84453 0.0
H113 H 0.44699 0.31911 0.85404 0.0
H114 H 0.39423 0.31354 0.81108 0.0
H115 H 0.45771 0.32121 0.80157 0.0
H116 H 0.51306 0.33779 0.77394 0.0
H117 H 0.52063 0.32581 0.74852 0.0
H118 H 0.63563 0.27911 0.75887 0.0
H119 H 0.62884 0.29329 0.78387 0.0
H120 H 0.66524 0.36446 0.81091 0.0
H121 H 0.72793 0.36515 0.82413 0.0
H122 H 0.67498 0.32028 0.86129 0.0
H123 H 0.61152 0.3191 0.84784 0.0
N124 N 0.5615 0.3333 0.82493 0.0
N125 N 0.53163 0.32297 0.80196 0.0
N126 N 0.5991 0.33062 0.80494 0.0
C127 C 0.52861 0.32734 0.81628 0.0
C128 C 0.56679 0.32435 0.79625 0.0
C129 C 0.59687 0.33544 0.81923 0.0
C130 C 0.48976 0.32425 0.82227 0.0
C131 C 0.48582 0.32367 0.83711 0.0
C132 C 0.4491 0.31935 0.84256 0.0
C133 C 0.41549 0.31571 0.83331 0.0
C134 C 0.41943 0.31672 0.8185 0.0
C135 C 0.45601 0.32089 0.81306 0.0
C136 C 0.57052 0.31689 0.78086 0.0
C137 C 0.53998 0.32521 0.77069 0.0
C138 C 0.54428 0.31811 0.75614 0.0
C139 C 0.57894 0.30185 0.75153 0.0
C140 C 0.60899 0.29283 0.76185 0.0
C141 C 0.60502 0.3007 0.77627 0.0
C142 C 0.6334 0.3412 0.82825 0.0
C143 C 0.66669 0.35521 0.82196 0.0
C144 C 0.97 0.62533 0.89222 0.0
C145 C 0.99246 0.59106 0.89361 0.0
C146 C 0.02383 0.58995 0.90392 0.0
C147 C 0.03214 0.6218 0.91285 0.0
H148 H 1.00091 0.78872 0.90305 0.0
H149 H 0.00498 0.85786 0.89677 0.0
H150 H 0.05433 0.88423 0.93916 0.0
H151 H 0.0506 0.81559 0.94546 0.0
H152 H 0.05629 0.75294 0.96879 0.0
H153 H 0.07682 0.73436 0.99304 0.0
H154 H 0.06734 0.61234 0.98132 0.0
H155 H 0.04726 0.63083 0.95683 0.0
H156 H 0.96095 0.68378 0.90003 0.0
H157 H 0.94554 0.62679 0.8844 0.0
H158 H 0.0413 0.56378 0.90541 0.0
H159 H 0.05607 0.61946 0.92088 0.0
N160 N 0.01535 0.72595 0.91863 0.0
N161 N 0.03586 0.74324 0.9422 0.0
N162 N 0.02857 0.67739 0.93592 0.0
C163 C 0.02489 0.75412 0.9286 0.0
C164 C 0.0376 0.705 0.94597 0.0
C165 C 0.01732 0.68745 0.92229 0.0
C166 C 0.02548 0.79632 0.92475 0.0
C167 C 0.01248 0.80923 0.91106 0.0
C168 C 0.01464 0.84891 0.90747 0.0
C169 C 0.03011 0.87652 0.91746 0.0
C170 C 0.0427 0.86368 0.93117 0.0
C171 C 0.0403 0.82419 0.93479 0.0
C172 C 0.04994 0.69346 0.96081 0.0
C173 C 0.05845 0.72212 0.97131 0.0
C174 C 0.06999 0.71144 0.98528 0.0
C175 C 0.07328 0.67183 0.98915 0.0
C176 C 0.06516 0.64307 0.97866 0.0
C177 C 0.05349 0.65376 0.96464 0.0
C178 C 0.00964 0.65592 0.91166 0.0
C179 C 0.97891 0.65784 0.90107 0.0
C180 C 0.55716 0.8497 0.16813 0.0
C181 C 0.5493 0.82682 0.1558 0.0
C182 C 0.5803 0.80675 0.14995 0.0
C183 C 0.61764 0.8075 0.15682 0.0
H184 H 0.7457 0.80552 0.15268 0.0
H185 H 0.80929 0.79358 0.14321 0.0
H186 H 0.85857 0.7725 0.18595 0.0
H187 H 0.79587 0.78467 0.19542 0.0
H188 H 0.74025 0.77814 0.2207 0.0
H189 H 0.73354 0.77173 0.24619 0.0
H190 H 0.63778 0.85366 0.24342 0.0
H191 H 0.6432 0.8582 0.2177 0.0
H192 H 0.59875 0.86666 0.1849 0.0
H193 H 0.53428 0.86637 0.17273 0.0
H194 H 0.5753 0.78865 0.14051 0.0
H195 H 0.64041 0.79016 0.15246 0.0
N196 N 0.69516 0.81319 0.17254 0.0
N197 N 0.72673 0.80875 0.19539 0.0
N198 N 0.661 0.82591 0.19299 0.0
C199 C 0.72811 0.80635 0.18098 0.0
C200 C 0.69346 0.81856 0.20147 0.0
C201 C 0.66148 0.82317 0.17854 0.0
C202 C 0.7656 0.79653 0.17483 0.0
C203 C 0.77003 0.79808 0.16004 0.0
C204 C 0.80641 0.79109 0.15461 0.0
C205 C 0.83899 0.7825 0.16387 0.0
C206 C 0.8342 0.77977 0.17857 0.0
C207 C 0.79806 0.78666 0.18398 0.0
C208 C 0.69195 0.81834 0.21717 0.0
C209 C 0.718 0.79509 0.22556 0.0
C210 C 0.7143 0.79163 0.24023 0.0
C211 C 0.6849 0.81193 0.24693 0.0
C212 C 0.66015 0.8368 0.2386 0.0
C213 C 0.66335 0.83962 0.22386 0.0
C214 C 0.62455 0.82799 0.16975 0.0
C215 C 0.5942 0.85004 0.17507 0.0
C216 C 0.4719 0.10346 0.41669 0.0
C217 C 0.47992 0.10085 0.40222 0.0
C218 C 0.49734 0.13304 0.3958 0.0
C219 C 0.50828 0.16631 0.4039 0.0
H220 H 0.5223 0.29512 0.40523 0.0
H221 H 0.52811 0.36311 0.39774 0.0
H222 H 0.57563 0.39432 0.43995 0.0
H223 H 0.56945 0.32691 0.44752 0.0
H224 H 0.57505 0.26688 0.47195 0.0
H225 H 0.59839 0.25003 0.49616 0.0
H226 H 0.57994 0.1276 0.48664 0.0
H227 H 0.55661 0.14427 0.46226 0.0
H228 H 0.47833 0.13647 0.43609 0.0
H229 H 0.459 0.07905 0.42201 0.0
H230 H 0.50385 0.13184 0.38466 0.0
H231 H 0.52311 0.18998 0.39886 0.0
N232 N 0.52458 0.23605 0.42306 0.0
N233 N 0.55337 0.25441 0.44547 0.0
N234 N 0.53264 0.18996 0.44153 0.0
C235 C 0.54102 0.26415 0.43189 0.0
C236 C 0.5495 0.2174 0.45036 0.0
C237 C 0.52006 0.1989 0.42792 0.0
C238 C 0.54525 0.30528 0.42701 0.0
C239 C 0.53404 0.31642 0.41292 0.0
C240 C 0.53758 0.35541 0.4086 0.0
C241 C 0.55227 0.38424 0.41826 0.0
C242 C 0.56373 0.37303 0.43228 0.0
C243 C 0.56034 0.33416 0.43659 0.0
C244 C 0.56375 0.207 0.46513 0.0
C245 C 0.5759 0.23634 0.47495 0.0
C246 C 0.5891 0.2267 0.48887 0.0
C247 C 0.59071 0.1875 0.49332 0.0
C248 C 0.57912 0.15803 0.48349 0.0
C249 C 0.56556 0.16768 0.46955 0.0
C250 C 0.50268 0.16754 0.41861 0.0
C251 C 0.48337 0.13625 0.4248 0.0
C252 C 0.05832 0.34686 0.67102 0.0
C253 C 0.05364 0.32833 0.65763 0.0
C254 C 0.08654 0.31249 0.65159 0.0
C255 C 0.12302 0.31367 0.65907 0.0
H256 H 0.24308 0.29269 0.65601 0.0
H257 H 0.30431 0.27517 0.64586 0.0
H258 H 0.36455 0.28961 0.68736 0.0
H259 H 0.30368 0.30601 0.69755 0.0
H260 H 0.24485 0.28621 0.72402 0.0
H261 H 0.23829 0.28098 0.74956 0.0
H262 H 0.14193 0.36217 0.7463 0.0
H263 H 0.14717 0.36539 0.72054 0.0
H264 H 0.0968 0.36102 0.68907 0.0
H265 H 0.03349 0.35899 0.67604 0.0
H266 H 0.08384 0.29824 0.64123 0.0
H267 H 0.14751 0.30004 0.65432 0.0
N268 N 0.19797 0.31689 0.67566 0.0
N269 N 0.23054 0.31511 0.69838 0.0
N270 N 0.16433 0.33081 0.6961 0.0
C271 C 0.23134 0.3114 0.68398 0.0
C272 C 0.19728 0.32488 0.70451 0.0
C273 C 0.16434 0.3268 0.68167 0.0
C274 C 0.2683 0.30078 0.67761 0.0
C275 C 0.26937 0.29204 0.66297 0.0
C276 C 0.3045 0.28211 0.65714 0.0
C277 C 0.33936 0.28084 0.66581 0.0
C278 C 0.3382 0.28955 0.68042 0.0
C279 C 0.30318 0.29927 0.68625 0.0
C280 C 0.1962 0.32584 0.72025 0.0
C281 C 0.22253 0.30328 0.72878 0.0
C282 C 0.21891 0.30052 0.7435 0.0
C283 C 0.18933 0.32087 0.75008 0.0
C284 C 0.16443 0.34524 0.74159 0.0
C285 C 0.16753 0.34732 0.72683 0.0
C286 C 0.12722 0.33027 0.67283 0.0
C287 C 0.09461 0.34769 0.67855 0.0
Zn288 Zn 0.21914 0.6851 0.13645 0.0
Zn289 Zn 0.15184 0.77845 0.10083 0.0
Zn290 Zn 0.1881 0.73327 0.1185 0.0
C291 C 0.16715 0.7125 0.08542 0.0
C292 C 0.21738 0.81938 0.11022 0.0
O293 O 0.15542 0.73511 0.13818 0.0
O294 O 0.19217 0.70056 0.1536 0.0
C295 C 0.19578 0.63918 0.11375 0.0
O296 O 0.17713 0.70031 0.09811 0.0
O297 O 0.15726 0.7476 0.08341 0.0
O298 O 0.18525 0.82434 0.10329 0.0
O299 O 0.22565 0.78618 0.11617 0.0
O300 O 0.20411 0.63528 0.12696 0.0
O301 O 0.19153 0.67374 0.10837 0.0
O302 O 0.24769 0.75642 0.12337 0.0
O303 O 0.27306 0.70462 0.13442 0.0
C304 C 0.27749 0.73795 0.12898 0.0
O305 O 0.13095 0.74887 0.12694 0.0
O306 O 0.10047 0.78036 0.10903 0.0
C307 C 0.16325 0.7226 0.15099 0.0
C308 C 0.10009 0.76557 0.12132 0.0
Zn309 Zn 0.53465 0.70453 0.35424 0.0
Zn310 Zn 0.61144 0.79141 0.39242 0.0
Zn311 Zn 0.57201 0.74927 0.37395 0.0
C312 C 0.54122 0.83 0.38761 0.0
C313 C 0.65758 0.78965 0.36986 0.0
O314 O 0.56559 0.68853 0.38259 0.0
O315 O 0.53265 0.65562 0.36542 0.0
C316 C 0.48522 0.76735 0.36045 0.0
O317 O 0.53555 0.80124 0.37878 0.0
O318 O 0.57234 0.8319 0.39543 0.0
O319 O 0.65679 0.80598 0.38191 0.0
O320 O 0.62877 0.76786 0.3652 0.0
O321 O 0.4874 0.73783 0.3524 0.0
O322 O 0.51388 0.77635 0.36938 0.0
O323 O 0.60413 0.75011 0.35433 0.0
O324 O 0.57248 0.70946 0.33926 0.0
C325 C 0.59997 0.73331 0.34199 0.0
O326 O 0.58379 0.71242 0.39319 0.0
O327 O 0.62015 0.75171 0.40724 0.0
C328 C 0.54947 0.65657 0.37777 0.0
C329 C 0.6038 0.71906 0.40503 0.0
Zn330 Zn 0.65548 0.27004 0.60896 0.0
Zn331 Zn 0.72582 0.18454 0.64452 0.0
Zn332 Zn 0.69235 0.23029 0.62508 0.0
C333 C 0.77923 0.24429 0.63804 0.0
C334 C 0.70824 0.13819 0.62023 0.0
O335 O 0.63432 0.24365 0.63311 0.0
O336 O 0.60126 0.25455 0.61261 0.0
C337 C 0.71002 0.31899 0.62115 0.0
O338 O 0.7502 0.2566 0.62996 0.0
O339 O 0.77626 0.21347 0.64528 0.0
O340 O 0.71981 0.13558 0.63323 0.0
O341 O 0.69841 0.1717 0.61488 0.0
O342 O 0.67447 0.32065 0.61705 0.0
O343 O 0.72632 0.28529 0.62292 0.0
O344 O 0.68397 0.19845 0.60438 0.0
O345 O 0.67714 0.25124 0.59112 0.0
C346 C 0.68232 0.21482 0.59201 0.0
O347 O 0.65831 0.23016 0.64453 0.0
O348 O 0.69119 0.19292 0.66028 0.0
C349 C 0.60164 0.24855 0.62586 0.0
C350 C 0.66286 0.2153 0.65716 0.0
Zn351 Zn 0.03445 0.19524 0.85319 0.0
Zn352 Zn 0.09826 0.28352 0.89436 0.0
Zn353 Zn 0.06632 0.24005 0.87428 0.0
C354 C 0.08576 0.2116 0.90663 0.0
C355 C 0.03175 0.32285 0.88525 0.0
O356 O 0.10219 0.24449 0.85556 0.0
O357 O 0.07152 0.2086 0.83866 0.0
C358 C 0.05099 0.14603 0.87641 0.0
O359 O 0.07626 0.20266 0.89352 0.0
O360 O 0.09456 0.24631 0.91007 0.0
O361 O 0.0615 0.3271 0.89366 0.0
O362 O 0.02766 0.29165 0.87752 0.0
O363 O 0.04055 0.14455 0.86327 0.0
O364 O 0.0601 0.17911 0.88241 0.0
O365 O 0.00766 0.26385 0.86893 0.0
O366 O 0.98298 0.22249 0.85254 0.0
C367 C 0.97908 0.25211 0.86043 0.0
O368 O 0.12415 0.25962 0.86751 0.0
O369 O 0.14961 0.29166 0.88636 0.0
C370 C 0.09903 0.23135 0.84263 0.0
C371 C 0.15286 0.27826 0.87393 0.0
C372 C 0.17775 0.43451 0.0706 0.0
C373 C 0.21184 0.41403 0.07487 0.0
C374 C 0.17238 0.47355 0.07482 0.0
C375 C 0.20181 0.49259 0.08349 0.0
C376 C 0.23691 0.47259 0.08732 0.0
C377 C 0.24145 0.43362 0.083 0.0
C378 C 0.13472 0.494 0.07042 0.0
C379 C 0.26919 0.49192 0.09645 0.0
C380 C 0.20516 0.60214 0.09104 0.0
C381 C 0.19183 0.60344 0.10484 0.0
C382 C 0.20626 0.56658 0.08345 0.0
C383 C 0.19452 0.53155 0.09 0.0
C384 C 0.17923 0.53322 0.10366 0.0
C385 C 0.17815 0.56907 0.11089 0.0
C386 C 0.22209 0.56633 0.06882 0.0
C387 C 0.16589 0.49678 0.11099 0.0
H388 H 0.15467 0.41959 0.06434 0.0
H389 H 0.2682 0.41832 0.08607 0.0
H390 H 0.11871 0.50091 0.08002 0.0
H391 H 0.14079 0.52213 0.06515 0.0
H392 H 0.11564 0.47598 0.063 0.0
H393 H 0.29577 0.47353 0.09756 0.0
H394 H 0.27691 0.52043 0.09178 0.0
H395 H 0.25917 0.49783 0.10727 0.0
H396 H 0.21647 0.6285 0.08645 0.0
H397 H 0.16761 0.57002 0.12154 0.0
H398 H 0.20497 0.54646 0.06146 0.0
H399 H 0.25249 0.55548 0.06967 0.0
H400 H 0.22198 0.59605 0.06407 0.0
H401 H 0.14519 0.48004 0.10377 0.0
H402 H 0.1516 0.50353 0.12101 0.0
H403 H 0.19127 0.4776 0.11365 0.0
C404 C 0.87299 0.79285 0.34473 0.0
C405 C 0.87869 0.81608 0.33274 0.0
C406 C 0.83585 0.78823 0.3499 0.0
C407 C 0.80339 0.80691 0.34285 0.0
C408 C 0.80888 0.83019 0.33067 0.0
C409 C 0.8464 0.83463 0.32583 0.0
C410 C 0.83147 0.7639 0.3631 0.0
C411 C 0.77579 0.85174 0.32287 0.0
C412 C 0.70479 0.76676 0.35217 0.0
C413 C 0.6927 0.79526 0.3617 0.0
C414 C 0.73979 0.77101 0.34535 0.0
C415 C 0.76427 0.80358 0.34873 0.0
C416 C 0.75206 0.83249 0.3583 0.0
C417 C 0.71633 0.8282 0.36451 0.0
C418 C 0.75077 0.73971 0.33496 0.0
C419 C 0.77727 0.86747 0.36233 0.0
H420 H 0.89758 0.77795 0.35003 0.0
H421 H 0.85046 0.85324 0.31672 0.0
H422 H 0.81774 0.78157 0.37137 0.0
H423 H 0.81207 0.73865 0.36047 0.0
H424 H 0.8598 0.75268 0.3677 0.0
H425 H 0.77919 0.85125 0.31117 0.0
H426 H 0.74688 0.83957 0.32496 0.0
H427 H 0.77658 0.88283 0.3263 0.0
H428 H 0.68749 0.74057 0.35031 0.0
H429 H 0.70729 0.85036 0.37191 0.0
H430 H 0.76593 0.71572 0.34097 0.0
H431 H 0.77037 0.75087 0.32696 0.0
H432 H 0.72442 0.72707 0.32924 0.0
H433 H 0.80647 0.85766 0.36656 0.0
H434 H 0.76446 0.88627 0.3705 0.0
H435 H 0.78141 0.88541 0.35272 0.0
C436 C 0.78741 0.5378 0.61058 0.0
C437 C 0.76975 0.54313 0.59683 0.0
C438 C 0.78694 0.50095 0.61726 0.0
C439 C 0.76749 0.46922 0.61014 0.0
C440 C 0.75061 0.47437 0.59612 0.0
C441 C 0.75206 0.51108 0.58966 0.0
C442 C 0.80622 0.49633 0.63205 0.0
C443 C 0.72926 0.44156 0.58811 0.0
C444 C 0.76841 0.3608 0.61746 0.0
C445 C 0.73154 0.3563 0.62273 0.0
C446 C 0.7834 0.39833 0.61502 0.0
C447 C 0.76042 0.43171 0.61759 0.0
C448 C 0.72529 0.42718 0.62446 0.0
C449 C 0.7114 0.38953 0.627 0.0
C450 C 0.82178 0.40186 0.60824 0.0
C451 C 0.69977 0.46174 0.6275 0.0
H452 H 0.80136 0.56242 0.61612 0.0
H453 H 0.7378 0.51509 0.57914 0.0
H454 H 0.7837 0.49574 0.63999 0.0
H455 H 0.82243 0.46833 0.63294 0.0
H456 H 0.82657 0.52079 0.63486 0.0
H457 H 0.71888 0.4501 0.57711 0.0
H458 H 0.74852 0.41576 0.58739 0.0
H459 H 0.70372 0.43247 0.59395 0.0
H460 H 0.78387 0.33533 0.614 0.0
H461 H 0.68305 0.38609 0.63127 0.0
H462 H 0.83695 0.42949 0.61141 0.0
H463 H 0.81659 0.40168 0.59644 0.0
H464 H 0.84108 0.37687 0.61125 0.0
H465 H 0.7173 0.48618 0.6323 0.0
H466 H 0.67679 0.45403 0.6348 0.0
H467 H 0.68543 0.47235 0.61731 0.0
C468 C 0.75614 0.30226 0.85771 0.0
C469 C 0.74625 0.33751 0.85082 0.0
C470 C 0.79509 0.29305 0.86157 0.0
C471 C 0.8249 0.31966 0.85843 0.0
C472 C 0.81484 0.35678 0.85272 0.0
C473 C 0.77561 0.36526 0.84897 0.0
C474 C 0.80454 0.25339 0.86788 0.0
C475 C 0.84569 0.38634 0.84955 0.0
C476 C 0.92826 0.29261 0.87169 0.0
C477 C 0.94115 0.2726 0.85979 0.0
C478 C 0.8911 0.30978 0.87129 0.0
C479 C 0.86601 0.30597 0.8588 0.0
C480 C 0.87937 0.28662 0.84666 0.0
C481 C 0.91668 0.27022 0.84731 0.0
C482 C 0.87832 0.33056 0.88442 0.0
C483 C 0.85382 0.28222 0.83304 0.0
H484 H 0.73377 0.28058 0.85917 0.0
H485 H 0.76811 0.39294 0.84393 0.0
H486 H 0.81756 0.23475 0.85972 0.0
H487 H 0.82622 0.25613 0.87709 0.0
H488 H 0.77828 0.23838 0.87147 0.0
H489 H 0.83312 0.4157 0.84723 0.0
H490 H 0.8677 0.38888 0.85867 0.0
H491 H 0.86107 0.37648 0.84013 0.0
H492 H 0.94672 0.29387 0.88147 0.0
H493 H 0.92656 0.25498 0.83805 0.0
H494 H 0.85865 0.31114 0.89009 0.0
H495 H 0.86193 0.35758 0.88151 0.0
H496 H 0.90347 0.33839 0.89189 0.0
H497 H 0.82781 0.26444 0.83512 0.0
H498 H 0.86922 0.26792 0.82437 0.0
H499 H 0.84341 0.31128 0.82925 0.0
C500 C 0.01299 0.53431 0.87928 0.0
C501 C 0.98288 0.55498 0.88526 0.0
C502 C 0.00879 0.49465 0.87576 0.0
C503 C 0.97333 0.47533 0.87812 0.0
C504 C 0.94092 0.49763 0.88195 0.0
C505 C 0.94617 0.53732 0.88568 0.0
C506 C 0.04403 0.47248 0.87133 0.0
C507 C 0.90181 0.47886 0.88355 0.0
C508 C 0.98806 0.36792 0.8705 0.0
C509 C 0.00437 0.35605 0.88386 0.0
C510 C 0.97232 0.40572 0.86869 0.0
C511 C 0.9744 0.43221 0.88039 0.0
C512 C 0.98646 0.41842 0.89419 0.0
C513 C 1.00091 0.3804 0.89574 0.0
C514 C 0.95676 0.41807 0.85403 0.0
C515 C 0.98862 0.44509 0.90711 0.0
H516 H 0.04109 0.5483 0.87859 0.0
H517 H 0.92253 0.55337 0.89007 0.0
H518 H 0.05486 0.45309 0.88017 0.0
H519 H 0.03627 0.45379 0.8619 0.0
H520 H 0.06806 0.49234 0.86868 0.0
H521 H 0.87797 0.50022 0.88129 0.0
H522 H 0.89724 0.45327 0.87631 0.0
H523 H 0.89998 0.46867 0.8947 0.0
H524 H 0.99024 0.34902 0.86128 0.0
H525 H 0.0127 0.37086 0.90614 0.0
H526 H 0.98115 0.42835 0.84782 0.0
H527 H 0.93528 0.44211 0.85456 0.0
H528 H 0.94282 0.39295 0.84815 0.0
H529 H 0.01091 0.46806 0.90582 0.0
H530 H 0.99634 0.42908 0.91717 0.0
H531 H 0.96036 0.4599 0.9082 0.0
C532 C 0.88374 0.75546 0.14614 0.0
C533 C 0.87828 0.77785 0.15841 0.0
C534 C 0.92083 0.75149 0.14086 0.0
C535 C 0.95308 0.77063 0.14796 0.0
C536 C 0.94779 0.79271 0.16047 0.0
C537 C 0.9105 0.79611 0.16552 0.0
C538 C 0.92543 0.72735 0.12757 0.0
C539 C 0.98133 0.81364 0.16832 0.0
C540 C 0.05497 0.73954 0.13905 0.0
C541 C 0.06377 0.76767 0.12892 0.0
C542 C 0.01939 0.74053 0.14563 0.0
C543 C 0.99176 0.76989 0.14173 0.0
C544 C 1.00081 0.79865 0.13166 0.0
C545 C 0.03664 0.79717 0.12539 0.0
C546 C 0.01106 0.70948 0.15641 0.0
C547 C 0.97242 0.83076 0.12734 0.0
H548 H 0.85902 0.7409 0.14071 0.0
H549 H 0.90641 0.81387 0.17491 0.0
H550 H 0.93536 0.74627 0.11893 0.0
H551 H 0.94801 0.70464 0.1297 0.0
H552 H 0.89786 0.71281 0.12371 0.0
H553 H 0.97377 0.82445 0.17898 0.0
H554 H 0.00676 0.79393 0.16973 0.0
H555 H 0.9902 0.83896 0.16191 0.0
H556 H 0.07549 0.71624 0.14162 0.0
H557 H 0.04334 0.81911 0.11759 0.0
H558 H 0.99069 0.68765 0.15133 0.0
H559 H 0.99694 0.72223 0.16566 0.0
H560 H 0.03797 0.69408 0.16039 0.0
H561 H 0.94511 0.81784 0.12248 0.0
H562 H 0.98425 0.85133 0.11956 0.0
H563 H 0.96475 0.84759 0.1369 0.0
C564 C 0.56867 0.43565 0.40049 0.0
C565 C 0.55511 0.42595 0.41382 0.0
C566 C 0.57027 0.47475 0.39599 0.0
C567 C 0.55772 0.50502 0.40498 0.0
C568 C 0.54496 0.49553 0.41861 0.0
C569 C 0.54388 0.45619 0.42287 0.0
C570 C 0.58449 0.48358 0.38145 0.0
C571 C 0.53158 0.52687 0.42855 0.0
C572 C 0.58393 0.60918 0.39461 0.0
C573 C 0.55055 0.62016 0.38629 0.0
C574 C 0.58621 0.57245 0.40136 0.0
C575 C 0.55456 0.54594 0.39951 0.0
C576 C 0.52031 0.55761 0.39152 0.0
C577 C 0.51882 0.59442 0.38497 0.0
C578 C 0.62313 0.56145 0.4099 0.0
C579 C 0.48562 0.53066 0.38945 0.0
H580 H 0.57808 0.41258 0.39354 0.0
H581 H 0.53316 0.44901 0.43316 0.0
H582 H 0.56031 0.4958 0.37447 0.0
H583 H 0.60787 0.50596 0.38237 0.0
H584 H 0.59581 0.45716 0.37618 0.0
H585 H 0.52269 0.51476 0.43882 0.0
H586 H 0.55534 0.54831 0.43086 0.0
H587 H 0.50661 0.54299 0.42336 0.0
H588 H 0.60882 0.62865 0.3954 0.0
H589 H 0.49292 0.60284 0.37856 0.0
H590 H 0.63931 0.53962 0.40381 0.0
H591 H 0.61648 0.54779 0.42017 0.0
H592 H 0.64229 0.58716 0.41219 0.0
H593 H 0.49356 0.50461 0.38317 0.0
H594 H 0.46029 0.54512 0.38376 0.0
H595 H 0.47672 0.52016 0.39993 0.0
C596 C 0.9861 0.35196 0.65053 0.0
C597 C 0.01392 0.32196 0.65086 0.0
C598 C 0.94691 0.34435 0.64633 0.0
C599 C 0.93526 0.30574 0.64261 0.0
C600 C 0.96367 0.27595 0.64205 0.0
C601 C 0.00266 0.28446 0.64613 0.0
C602 C 0.91762 0.37707 0.64676 0.0
C603 C 0.95252 0.23433 0.63822 0.0
C604 C 0.83713 0.26821 0.65249 0.0
C605 C 0.81664 0.26542 0.63916 0.0
C606 C 0.87511 0.28301 0.65378 0.0
C607 C 0.89324 0.29507 0.64139 0.0
C608 C 0.87213 0.29373 0.62793 0.0
C609 C 0.83397 0.27873 0.62696 0.0
C610 C 0.89646 0.28393 0.66836 0.0
C611 C 0.8905 0.30617 0.61448 0.0
H612 H 0.99478 0.38113 0.654 0.0
H613 H 0.02391 0.26108 0.64647 0.0
H614 H 0.89759 0.37658 0.63702 0.0
H615 H 0.89971 0.37307 0.65607 0.0
H616 H 0.93187 0.4062 0.64769 0.0
H617 H 0.97834 0.21573 0.63664 0.0
H618 H 0.93622 0.2215 0.64691 0.0
H619 H 0.93313 0.23343 0.62832 0.0
H620 H 0.82369 0.25778 0.66192 0.0
H621 H 0.81847 0.27552 0.6166 0.0
H622 H 0.90827 0.31361 0.6707 0.0
H623 H 0.92147 0.26347 0.66854 0.0
H624 H 0.87747 0.27557 0.677 0.0
H625 H 0.90518 0.33489 0.61608 0.0
H626 H 0.8688 0.30824 0.60524 0.0
H627 H 0.91303 0.28464 0.61183 0.0
C628 C 0.40495 0.24852 0.66725 0.0
C629 C 0.3771 0.27164 0.65965 0.0
C630 C 0.44179 0.24206 0.66207 0.0
C631 C 0.45082 0.25865 0.64889 0.0
C632 C 0.42248 0.28101 0.64096 0.0
C633 C 0.38604 0.28735 0.64646 0.0
C634 C 0.47105 0.2176 0.67074 0.0
C635 C 0.43112 0.29933 0.62688 0.0
C636 C 0.55624 0.27956 0.64201 0.0
C637 C 0.56468 0.24885 0.63284 0.0
C638 C 0.51942 0.2827 0.64751 0.0
C639 C 0.49052 0.25437 0.6437 0.0
C640 C 0.49921 0.22296 0.63455 0.0
C641 C 0.53621 0.22079 0.62911 0.0
C642 C 0.51118 0.31666 0.6572 0.0
C643 C 0.46913 0.19232 0.63022 0.0
H644 H 0.39802 0.23558 0.67731 0.0
H645 H 0.36495 0.30565 0.6406 0.0
H646 H 0.47563 0.18961 0.66508 0.0
H647 H 0.4996 0.23271 0.67192 0.0
H648 H 0.46134 0.21095 0.68154 0.0
H649 H 0.40527 0.31406 0.62166 0.0
H650 H 0.45477 0.32122 0.62861 0.0
H651 H 0.44144 0.27677 0.61948 0.0
H652 H 0.57792 0.302 0.64441 0.0
H653 H 0.54281 0.19743 0.6218 0.0
H654 H 0.50648 0.30561 0.66806 0.0
H655 H 0.48422 0.33198 0.6533 0.0
H656 H 0.53533 0.33823 0.65794 0.0
H657 H 0.45776 0.17877 0.63984 0.0
H658 H 0.48103 0.16893 0.6235 0.0
H659 H 0.44415 0.20617 0.62414 0.0
C660 C 0.47875 0.81566 0.15943 0.0
C661 C 0.50841 0.82084 0.15 0.0
C662 C 0.44065 0.80645 0.15441 0.0
C663 C 0.43181 0.80187 0.13956 0.0
C664 C 0.46108 0.80862 0.12991 0.0
C665 C 0.4991 0.81794 0.13524 0.0
C666 C 0.41024 0.79983 0.16508 0.0
C667 C 0.45247 0.80478 0.11399 0.0
C668 C 0.34956 0.73007 0.1316 0.0
C669 C 0.31727 0.75489 0.12962 0.0
C670 C 0.38729 0.74511 0.13401 0.0
C671 C 0.39304 0.78609 0.13445 0.0
C672 C 0.3609 0.81132 0.13162 0.0
C673 C 0.32339 0.7953 0.12934 0.0
C674 C 0.4207 0.71706 0.13687 0.0
C675 C 0.3654 0.85521 0.13188 0.0
H676 H 0.4856 0.8172 0.17086 0.0
H677 H 0.52164 0.82247 0.12785 0.0
H678 H 0.38406 0.81775 0.16227 0.0
H679 H 0.40107 0.7687 0.16478 0.0
H680 H 0.42107 0.80722 0.17618 0.0
H681 H 0.47735 0.81431 0.10786 0.0
H682 H 0.44564 0.77386 0.11122 0.0
H683 H 0.42653 0.82243 0.11058 0.0
H684 H 0.34526 0.69867 0.13168 0.0
H685 H 0.29873 0.81445 0.12806 0.0
H686 H 0.43203 0.71991 0.14817 0.0
H687 H 0.44491 0.7242 0.13006 0.0
H688 H 0.41193 0.68616 0.13487 0.0
H689 H 0.3637 0.86589 0.14301 0.0
H690 H 0.34182 0.86953 0.12518 0.0
H691 H 0.39384 0.86445 0.12807 0.0
C692 C 0.37128 0.28483 0.85036 0.0
C693 C 0.37642 0.31044 0.83899 0.0
C694 C 0.33444 0.27917 0.85567 0.0
C695 C 0.30187 0.29948 0.84942 0.0
C696 C 0.30686 0.32537 0.83793 0.0
C697 C 0.34405 0.33059 0.83289 0.0
C698 C 0.33045 0.25174 0.86806 0.0
C699 C 0.27346 0.34869 0.83114 0.0
C700 C 0.20189 0.25876 0.85647 0.0
C701 C 0.19005 0.28427 0.86708 0.0
C702 C 0.23764 0.26404 0.85027 0.0
C703 C 0.26292 0.29456 0.85527 0.0
C704 C 0.25121 0.32021 0.86606 0.0
C705 C 0.21488 0.31492 0.87175 0.0
C706 C 0.24851 0.23629 0.83862 0.0
C707 C 0.27727 0.35302 0.87172 0.0
H708 H 0.39605 0.26884 0.85503 0.0
H709 H 0.34783 0.35097 0.82426 0.0
H710 H 0.31814 0.26765 0.87708 0.0
H711 H 0.30995 0.22778 0.86487 0.0
H712 H 0.35871 0.23869 0.87188 0.0
H713 H 0.27798 0.35496 0.81975 0.0
H714 H 0.24518 0.33352 0.8318 0.0
H715 H 0.27171 0.37712 0.8368 0.0
H716 H 0.18361 0.23416 0.85318 0.0
H717 H 0.20603 0.33474 0.87999 0.0
H718 H 0.26802 0.21332 0.84333 0.0
H719 H 0.26432 0.25161 0.83034 0.0
H720 H 0.22247 0.22174 0.83339 0.0
H721 H 0.30586 0.34116 0.87575 0.0
H722 H 0.26446 0.36955 0.8805 0.0
H723 H 0.28273 0.37365 0.86297 0.0
C724 C 0.27072 0.86003 0.34906 0.0
C725 C 0.24827 0.82581 0.34788 0.0
C726 C 0.31052 0.85845 0.35355 0.0
C727 C 0.3279 0.82183 0.35694 0.0
C728 C 0.30428 0.78788 0.35702 0.0
C729 C 0.26486 0.79026 0.35237 0.0
C730 C 0.33452 0.89537 0.35348 0.0
C731 C 0.32131 0.74832 0.3608 0.0
C732 C 0.42792 0.79343 0.34631 0.0
C733 C 0.44854 0.78987 0.35958 0.0
C734 C 0.38956 0.80714 0.34525 0.0
C735 C 0.37107 0.81718 0.35782 0.0
C736 C 0.39285 0.81682 0.37117 0.0
C737 C 0.43148 0.80302 0.37191 0.0
C738 C 0.3679 0.80781 0.33073 0.0
C739 C 0.37465 0.82803 0.38481 0.0
H740 H 0.25789 0.88754 0.34553 0.0
H741 H 0.24737 0.76386 0.35154 0.0
H742 H 0.35612 0.89634 0.36277 0.0
H743 H 0.35087 0.89605 0.34366 0.0
H744 H 0.316 0.92192 0.35365 0.0
H745 H 0.29842 0.72595 0.36214 0.0
H746 H 0.33974 0.73839 0.3522 0.0
H747 H 0.34009 0.75014 0.37083 0.0
H748 H 0.44127 0.78372 0.33674 0.0
H749 H 0.44737 0.80025 0.3822 0.0
H750 H 0.35238 0.83597 0.32906 0.0
H751 H 0.34576 0.78416 0.33009 0.0
H752 H 0.38761 0.80354 0.32192 0.0
H753 H 0.35434 0.85296 0.38309 0.0
H754 H 0.39708 0.83593 0.39337 0.0
H755 H 0.35772 0.80286 0.38855 0.0
C756 C 0.74391 0.93091 0.58604 0.0
C757 C 0.7104 0.91274 0.57984 0.0
C758 C 0.74305 0.96988 0.59081 0.0
C759 C 0.70778 0.99122 0.58943 0.0
C760 C 0.67423 0.97356 0.58269 0.0
C761 C 0.67593 0.93457 0.57799 0.0
C762 C 0.77956 0.9877 0.59785 0.0
C763 C 0.63603 0.9952 0.58107 0.0
C764 C 0.69617 0.06677 0.61849 0.0
C765 C 0.70511 0.10174 0.61167 0.0
C766 C 0.69589 0.03094 0.61122 0.0
C767 C 0.7049 0.02986 0.59671 0.0
C768 C 0.71282 0.06524 0.58959 0.0
C769 C 0.71312 0.10083 0.59722 0.0
C770 C 0.68688 0.99408 0.61922 0.0
C771 C 0.72214 0.06539 0.57408 0.0
H772 H 0.77083 0.91453 0.58725 0.0
H773 H 0.64981 0.92073 0.5733 0.0
H774 H 0.78536 0.01656 0.59305 0.0
H775 H 0.77559 0.99263 0.60937 0.0
H776 H 0.80541 0.96872 0.59685 0.0
H777 H 0.61399 0.97917 0.57413 0.0
H778 H 0.62436 0.9994 0.59173 0.0
H779 H 0.64028 0.02464 0.57649 0.0
H780 H 0.68976 0.06735 0.62967 0.0
H781 H 0.72109 0.12764 0.59205 0.0
H782 H 0.71268 0.97461 0.61979 0.0
H783 H 0.66272 0.97788 0.61347 0.0
H784 H 0.67866 1.0002 0.63027 0.0
H785 H 0.75015 0.05011 0.57287 0.0
H786 H 0.72439 0.09552 0.56982 0.0
H787 H 0.69943 0.04932 0.56751 0.0
C788 C 0.31197 0.03148 0.10435 0.0
C789 C 0.27766 0.05313 0.10183 0.0
C790 C 0.31065 0.99236 0.10888 0.0
C791 C 0.27412 0.97427 0.11033 0.0
C792 C 0.23967 0.99692 0.10873 0.0
C793 C 0.24196 0.0362 0.10467 0.0
C794 C 0.34809 0.96976 0.1112 0.0
C795 C 0.20001 0.97884 0.11003 0.0
C796 C 0.25352 0.87057 0.09837 0.0
C797 C 0.24388 0.85312 0.11114 0.0
C798 C 0.26667 0.90929 0.09814 0.0
C799 C 0.27077 0.93092 0.11107 0.0
C800 C 0.26491 0.91204 0.12419 0.0
C801 C 0.25053 0.87352 0.12404 0.0
C802 C 0.272 0.92818 0.08385 0.0
C803 C 0.27079 0.93332 0.13827 0.0
H804 H 0.33966 0.04469 0.10226 0.0
H805 H 0.2154 0.05279 0.10261 0.0
H806 H 0.34706 0.95035 0.12062 0.0
H807 H 0.35232 0.95097 0.10175 0.0
H808 H 0.37362 0.98954 0.11276 0.0
H809 H 0.17636 1.00094 0.1093 0.0
H810 H 0.19429 0.95699 0.10136 0.0
H811 H 0.19889 0.9633 0.12034 0.0
H812 H 0.24762 0.8549 0.08839 0.0
H813 H 0.24236 0.86023 0.1339 0.0
H814 H 0.3003 0.94366 0.08398 0.0
H815 H 0.24877 0.95021 0.08164 0.0
H816 H 0.2707 0.90656 0.07496 0.0
H817 H 0.29536 0.95432 0.13815 0.0
H818 H 0.2765 0.91253 0.14722 0.0
H819 H 0.24411 0.95003 0.14032 0.0
C820 C 0.44233 0.03919 0.39618 0.0
C821 C 0.47546 0.0625 0.39474 0.0
C822 C 0.44205 0.99943 0.39227 0.0
C823 C 0.47605 0.9825 0.38718 0.0
C824 C 0.50797 0.00686 0.38435 0.0
C825 C 0.50719 0.04659 0.38809 0.0
C826 C 0.40665 0.97497 0.39473 0.0
C827 C 0.54471 0.99021 0.37877 0.0
C828 C 0.51391 0.88541 0.40071 0.0
C829 C 0.51418 0.86349 0.38806 0.0
C830 C 0.49846 0.9232 0.40076 0.0
C831 C 0.48212 0.93936 0.38787 0.0
C832 C 0.47799 0.91557 0.37544 0.0
C833 C 0.4947 0.87797 0.37561 0.0
C834 C 0.50324 0.9471 0.41436 0.0
C835 C 0.45882 0.93064 0.36166 0.0
H836 H 0.41737 0.05154 0.40107 0.0
H837 H 0.53289 0.06435 0.38694 0.0
H838 H 0.40199 0.95228 0.38629 0.0
H839 H 0.41089 0.95982 0.40514 0.0
H840 H 0.38007 0.99327 0.39498 0.0
H841 H 0.56514 0.01344 0.37572 0.0
H842 H 0.55971 0.97182 0.38715 0.0
H843 H 0.53769 0.97129 0.36933 0.0
H844 H 0.52846 0.87405 0.41041 0.0
H845 H 0.49493 0.86128 0.36578 0.0
H846 H 0.47518 0.96055 0.41685 0.0
H847 H 0.5243 0.97116 0.41295 0.0
H848 H 0.514 0.92929 0.42367 0.0
H849 H 0.4359 0.95245 0.36361 0.0
H850 H 0.44566 0.90628 0.35512 0.0
H851 H 0.48104 0.9449 0.35536 0.0
C852 C 0.06833 0.93915 0.9172 0.0
C853 C 0.03386 0.91845 0.91353 0.0
C854 C 0.07302 0.97813 0.91292 0.0
C855 C 0.04244 0.99697 0.90484 0.0
C856 C 0.00703 0.97673 0.90161 0.0
C857 C 0.00326 0.93769 0.90591 0.0
C858 C 0.11119 0.99868 0.91658 0.0
C859 C 0.9735 0.99593 0.89319 0.0
C860 C 0.04098 0.1071 0.89854 0.0
C861 C 0.05279 0.10905 0.88454 0.0
C862 C 0.03906 0.071 0.90563 0.0
C863 C 0.0487 0.03613 0.89842 0.0
C864 C 0.06204 0.0383 0.88446 0.0
C865 C 0.06372 0.07464 0.87769 0.0
C866 C 0.02497 0.07011 0.92053 0.0
C867 C 0.07333 1.00203 0.87646 0.0
H868 H 0.09218 0.92443 0.92304 0.0
H869 H 0.97632 0.92211 0.90326 0.0
H870 H 0.1256 0.00558 0.90663 0.0
H871 H 0.10603 0.02682 0.92206 0.0
H872 H 0.13135 0.98074 0.92356 0.0
H873 H 0.94687 0.9775 0.89263 0.0
H874 H 0.96664 0.0245 0.89808 0.0
H875 H 0.98173 1.00172 0.88214 0.0
H876 H 0.03166 0.13354 0.90372 0.0
H877 H 0.07305 0.0761 0.86688 0.0
H878 H 0.04336 0.05054 0.92751 0.0
H879 H 0.99487 0.05838 0.92011 0.0
H880 H 0.02497 0.0997 0.92547 0.0
H881 H 0.09499 0.98482 0.88305 0.0
H882 H 0.0858 0.00902 0.86613 0.0
H883 H 0.04738 0.98319 0.87428 0.0
C884 C 0.19203 0.1757 0.97265 0.0
C885 C 0.18029 0.15335 0.98409 0.0
C886 C 0.17422 0.17117 0.95892 0.0
C887 C 0.14421 0.14304 0.95649 0.0
C888 C 0.13543 0.11725 0.96762 0.0
C889 C 0.15337 0.12293 0.98138 0.0
C890 C 0.18513 0.19913 0.94738 0.0
C891 C 0.10512 0.08559 0.96539 0.0
C892 C 0.07285 0.19187 0.93101 0.0
C893 C 0.08851 0.18231 0.91805 0.0
C894 C 0.08704 0.17452 0.94376 0.0
C895 C 0.11771 0.14705 0.94343 0.0
C896 C 0.12881 0.13257 0.9301 0.0
C897 C 0.11435 0.15086 0.91745 0.0
C898 C 0.07315 0.18991 0.95767 0.0
C899 C 0.15917 0.10111 0.9293 0.0
H900 H 0.21379 0.19834 0.97461 0.0
H901 H 0.14451 0.10512 0.99014 0.0
H902 H 0.19193 0.18281 0.93761 0.0
H903 H 0.16024 0.21877 0.94451 0.0
H904 H 0.2107 0.2175 0.95079 0.0
H905 H 0.11307 0.05969 0.97205 0.0
H906 H 0.07682 0.09658 0.96878 0.0
H907 H 0.10125 0.07629 0.95404 0.0
H908 H 0.05233 0.21585 0.93136 0.0
H909 H 0.12607 0.14313 0.90735 0.0
H910 H 0.09608 0.20868 0.963 0.0
H911 H 0.06746 0.16548 0.96498 0.0
H912 H 0.04616 0.20752 0.95602 0.0
H913 H 0.18855 0.11443 0.93065 0.0
H914 H 0.15668 0.08588 0.91879 0.0
H915 H 0.15654 0.07932 0.93792 0.0
C916 C 0.05632 0.78443 0.22168 0.0
C917 C 0.08525 0.80443 0.23005 0.0
C918 C 0.06208 0.77376 0.20748 0.0
C919 C 0.09791 0.78272 0.2016 0.0
C920 C 0.12622 0.80491 0.20971 0.0
C921 C 0.11934 0.81584 0.22374 0.0
C922 C 0.03044 0.7509 0.19929 0.0
C923 C 0.16488 0.81503 0.20389 0.0
C924 C 0.14142 0.71323 0.17553 0.0
C925 C 0.14054 0.73557 0.16302 0.0
C926 C 0.12568 0.72751 0.18793 0.0
C927 C 0.10832 0.76501 0.18783 0.0
C928 C 0.10488 0.78659 0.17494 0.0
C929 C 0.12149 0.77179 0.16272 0.0
C930 C 0.12961 0.70332 0.20138 0.0
C931 C 0.08583 0.82627 0.17413 0.0
H932 H 0.02981 0.77539 0.22639 0.0
H933 H 0.14136 0.83234 0.22996 0.0
H934 H 0.03428 0.74983 0.18766 0.0
H935 H 0.03023 0.72051 0.20339 0.0
H936 H 0.00155 0.76383 0.20105 0.0
H937 H 0.18337 0.83325 0.21144 0.0
H938 H 0.18091 0.78779 0.20163 0.0
H939 H 0.16023 0.83109 0.19368 0.0
H940 H 0.15579 0.68503 0.17578 0.0
H941 H 0.12103 0.78945 0.15314 0.0
H942 H 0.10052 0.6982 0.20548 0.0
H943 H 0.14737 0.71939 0.20979 0.0
H944 H 0.14349 0.67454 0.19963 0.0
H945 H 0.06368 0.82974 0.18213 0.0
H946 H 0.07182 0.83137 0.1633 0.0
H947 H 0.10836 0.84916 0.17615 0.0
C948 C 0.59664 0.69109 0.48189 0.0
C949 C 0.61938 0.66305 0.4894 0.0
C950 C 0.5884 0.68777 0.46714 0.0
C951 C 0.60163 0.65456 0.45979 0.0
C952 C 0.61904 0.62328 0.46765 0.0
C953 C 0.62858 0.62819 0.48236 0.0
C954 C 0.56932 0.7219 0.45929 0.0
C955 C 0.63058 0.58596 0.46043 0.0
C956 C 0.5736 0.67002 0.42072 0.0
C957 C 0.6064 0.69065 0.41679 0.0
C958 C 0.5732 0.6527 0.43429 0.0
C959 C 0.60574 0.65769 0.44415 0.0
C960 C 0.64036 0.6745 0.43951 0.0
C961 C 0.6403 0.69036 0.42582 0.0
C962 C 0.53677 0.6323 0.4384 0.0
C963 C 0.67608 0.68019 0.44953 0.0
H964 H 0.58749 0.71712 0.48739 0.0
H965 H 0.64537 0.60574 0.48804 0.0
H966 H 0.59016 0.73533 0.45218 0.0
H967 H 0.54377 0.71183 0.45249 0.0
H968 H 0.55955 0.74484 0.46667 0.0
H969 H 0.62827 0.56067 0.46772 0.0
H970 H 0.6122 0.58026 0.45048 0.0
H971 H 0.66134 0.58802 0.45764 0.0
H972 H 0.54738 0.66991 0.41369 0.0
H973 H 0.66592 0.70569 0.42261 0.0
H974 H 0.51643 0.65404 0.44257 0.0
H975 H 0.54324 0.61003 0.44679 0.0
H976 H 0.5217 0.61801 0.42893 0.0
H977 H 0.66928 0.7004 0.45832 0.0
H978 H 0.70097 0.6925 0.44403 0.0
H979 H 0.6853 0.65198 0.45439 0.0
C980 C 0.55301 0.28035 0.72694 0.0
C981 C 0.58411 0.29369 0.73612 0.0
C982 C 0.55882 0.26946 0.71275 0.0
C983 C 0.59671 0.27106 0.70775 0.0
C984 C 0.62786 0.28575 0.71678 0.0
C985 C 0.62102 0.29755 0.73071 0.0
C986 C 0.52468 0.25542 0.70321 0.0
C987 C 0.66891 0.28751 0.71197 0.0
C988 C 0.63242 0.2018 0.67998 0.0
C989 C 0.63781 0.22723 0.66861 0.0
C990 C 0.61616 0.21506 0.69245 0.0
C991 C 0.60501 0.25475 0.69354 0.0
C992 C 0.60781 0.27984 0.68167 0.0
C993 C 0.62446 0.2658 0.66935 0.0
C994 C 0.61411 0.18741 0.70489 0.0
C995 C 0.59599 0.32223 0.68241 0.0
H996 H 0.52435 0.27718 0.73094 0.0
H997 H 0.645 0.30914 0.73748 0.0
H998 H 0.52155 0.274 0.69355 0.0
H999 H 0.52977 0.22507 0.69958 0.0
H1000 H 0.49695 0.25622 0.70866 0.0
H1001 H 0.68971 0.30041 0.72022 0.0
H1002 H 0.67895 0.25759 0.70943 0.0
H1003 H 0.66983 0.30508 0.70209 0.0
H1004 H 0.64282 0.17195 0.67942 0.0
H1005 H 0.62972 0.28578 0.66076 0.0
H1006 H 0.58503 0.18872 0.70933 0.0
H1007 H 0.63587 0.1963 0.71353 0.0
H1008 H 0.62007 0.15668 0.70184 0.0
H1009 H 0.56578 0.32456 0.68579 0.0
H1010 H 0.59796 0.33728 0.67201 0.0
H1011 H 0.61505 0.33785 0.69053 0.0
C1012 C 0.07069 0.68215 0.0154 0.0
C1013 C 0.08562 0.66126 0.0041 0.0
C1014 C 0.08648 0.67786 0.02941 0.0
C1015 C 0.11778 0.65157 0.03227 0.0
C1016 C 0.1303 0.6274 0.02116 0.0
C1017 C 0.11425 0.63275 0.00713 0.0
C1018 C 0.07173 0.70401 0.04092 0.0
C1019 C 0.16248 0.59794 0.0238 0.0
C1020 C 0.1822 0.70008 0.06058 0.0
C1021 C 0.1657 0.6866 0.07288 0.0
C1022 C 0.1704 0.68492 0.04713 0.0
C1023 C 0.14126 0.65564 0.04606 0.0
C1024 C 0.1288 0.63802 0.05864 0.0
C1025 C 0.14082 0.65418 0.07202 0.0
C1026 C 0.18532 0.70401 0.03405 0.0
C1027 C 0.09973 0.60502 0.05795 0.0
H1028 H 0.04767 0.70327 0.01317 0.0
H1029 H 0.12569 0.61614 -0.00153 0.0
H1030 H 0.06453 0.68646 0.05032 0.0
H1031 H 0.09477 0.72518 0.04454 0.0
H1032 H 0.04544 0.72071 0.03714 0.0
H1033 H 0.15891 0.573 0.0162 0.0
H1034 H 0.19083 0.61204 0.02212 0.0
H1035 H 0.1635 0.58653 0.03488 0.0
H1036 H 0.20176 0.725 0.06135 0.0
H1037 H 0.12819 0.64369 0.0816 0.0
H1038 H 0.16209 0.72253 0.02887 0.0
H1039 H 0.19324 0.6816 0.02618 0.0
H1040 H 0.21117 0.72272 0.03672 0.0
H1041 H 0.06996 0.61709 0.05609 0.0
H1042 H 0.10089 0.58826 0.06809 0.0
H1043 H 0.10502 0.58479 0.04899 0.0
C1044 C 0.7096 0.79763 0.27224 0.0
C1045 C 0.67831 0.80484 0.26225 0.0
C1046 C 0.70321 0.78712 0.28637 0.0
C1047 C 0.66465 0.78426 0.29065 0.0
C1048 C 0.63306 0.79307 0.28081 0.0
C1049 C 0.64024 0.80284 0.26673 0.0
C1050 C 0.73767 0.77753 0.29646 0.0
C1051 C 0.59146 0.79083 0.28501 0.0
C1052 C 0.63201 0.71784 0.31962 0.0
C1053 C 0.62414 0.74489 0.3303 0.0
C1054 C 0.64845 0.72988 0.30707 0.0
C1055 C 0.65655 0.77001 0.3051 0.0
C1056 C 0.65141 0.79695 0.31632 0.0
C1057 C 0.63499 0.78407 0.32879 0.0
C1058 C 0.65457 0.70008 0.29551 0.0
C1059 C 0.66017 0.83989 0.31478 0.0
H1060 H 0.73918 0.79965 0.269 0.0
H1061 H 0.61575 0.80753 0.25911 0.0
H1062 H 0.76493 0.7908 0.29296 0.0
H1063 H 0.73296 0.78762 0.30745 0.0
H1064 H 0.74159 0.74535 0.29683 0.0
H1065 H 0.57037 0.80088 0.27635 0.0
H1066 H 0.58423 0.76023 0.28771 0.0
H1067 H 0.58774 0.80899 0.29466 0.0
H1068 H 0.62386 0.68746 0.32084 0.0
H1069 H 0.62863 0.80513 0.33699 0.0
H1070 H 0.68394 0.70348 0.29143 0.0
H1071 H 0.63297 0.70486 0.2864 0.0
H1072 H 0.65138 0.66964 0.29936 0.0
H1073 H 0.68614 0.84458 0.30856 0.0
H1074 H 0.66505 0.85439 0.32536 0.0
H1075 H 0.63505 0.85423 0.30895 0.0
C1076 C 0.63226 0.14879 0.51122 0.0
C1077 C 0.60428 0.17796 0.50824 0.0
C1078 C 0.6484 0.1431 0.52523 0.0
C1079 C 0.6363 0.16727 0.53641 0.0
C1080 C 0.60616 0.19487 0.53355 0.0
C1081 C 0.59059 0.19983 0.51953 0.0
C1082 C 0.67995 0.11294 0.52781 0.0
C1083 C 0.59187 0.22097 0.54516 0.0
C1084 C 0.65531 0.16097 0.57637 0.0
C1085 C 0.68119 0.19234 0.57858 0.0
C1086 C 0.64378 0.14849 0.56243 0.0
C1087 C 0.65812 0.1684 0.55062 0.0
C1088 C 0.68807 0.19652 0.55296 0.0
C1089 C 0.69911 0.20825 0.56694 0.0
C1090 C 0.61319 0.11708 0.5604 0.0
C1091 C 0.70499 0.21784 0.54071 0.0
H1092 H 0.64286 0.13167 0.50252 0.0
H1093 H 0.56829 0.22172 0.51731 0.0
H1094 H 0.70876 0.12729 0.52743 0.0
H1095 H 0.67859 0.09924 0.53848 0.0
H1096 H 0.67796 0.08967 0.5195 0.0
H1097 H 0.56634 0.23878 0.54137 0.0
H1098 H 0.58367 0.20318 0.55437 0.0
H1099 H 0.61553 0.24111 0.54906 0.0
H1100 H 0.64147 0.1486 0.5854 0.0
H1101 H 0.71942 0.23231 0.5687 0.0
H1102 H 0.61826 0.09865 0.55093 0.0
H1103 H 0.58419 0.13094 0.55861 0.0
H1104 H 0.61262 0.09807 0.56996 0.0
H1105 H 0.71189 0.19709 0.53212 0.0
H1106 H 0.73184 0.2342 0.54419 0.0
H1107 H 0.68327 0.23898 0.53611 0.0
C1108 C 0.21356 0.3066 0.77549 0.0
C1109 C 0.18247 0.31401 0.76542 0.0
C1110 C 0.20687 0.29539 0.78952 0.0
C1111 C 0.16821 0.29201 0.79366 0.0
C1112 C 0.13684 0.30155 0.78381 0.0
C1113 C 0.14431 0.31201 0.76982 0.0
C1114 C 0.24122 0.28522 0.79959 0.0
C1115 C 0.09512 0.29883 0.78784 0.0
C1116 C 0.13394 0.2203 0.82059 0.0
C1117 C 0.12493 0.24526 0.83178 0.0
C1118 C 0.15159 0.23469 0.80863 0.0
C1119 C 0.15964 0.27515 0.80772 0.0
C1120 C 0.15365 0.29988 0.81953 0.0
C1121 C 0.13627 0.28459 0.83147 0.0
C1122 C 0.15887 0.20707 0.79649 0.0
C1123 C 0.16243 0.34304 0.81911 0.0
H1124 H 0.24323 0.30872 0.77234 0.0
H1125 H 0.11994 0.31692 0.76218 0.0
H1126 H 0.26792 0.30089 0.79675 0.0
H1127 H 0.23552 0.2922 0.8108 0.0
H1128 H 0.24686 0.25336 0.7989 0.0
H1129 H 0.07432 0.31043 0.77936 0.0
H1130 H 0.08759 0.26784 0.78979 0.0
H1131 H 0.09128 0.31531 0.79787 0.0
H1132 H 0.12562 0.18975 0.82093 0.0
H1133 H 0.12929 0.30396 0.84012 0.0
H1134 H 0.18856 0.21152 0.79282 0.0
H1135 H 0.13786 0.21321 0.78731 0.0
H1136 H 0.15565 0.17597 0.79957 0.0
H1137 H 0.18914 0.34887 0.81343 0.0
H1138 H 0.16608 0.35573 0.83004 0.0
H1139 H 0.1379 0.35825 0.81325 0.0
loop_
_geom_bond_atom_site_label_1
_geom_bond_atom_site_label_2
_geom_bond_distance
_geom_bond_site_symmetry_2
_ccdc_geom_bond_type
C0 C1 1.384 . S
C0 H13 0.947 . S
C0 C35 1.382 . S
C1 C0 1.384 . S
C1 C2 1.378 . S
C2 C1 1.378 . S
C2 C3 1.378 . S
C2 H14 0.952 . S
C3 C2 1.378 . S
C3 H15 0.950 . S
C3 C34 1.383 . S
H4 C23 0.947 . S
H5 C24 0.946 . S
H6 C26 0.953 . S
H7 C27 0.945 . S
H8 C29 0.952 . S
H9 C30 0.949 . S
H10 C32 0.950 . S
H11 C33 0.948 . S
H12 C35 0.951 . S
H13 C0 0.947 . S
H14 C2 0.952 . S
H15 C3 0.950 . S
N16 C19 1.382 . S
N16 C21 1.363 . S
N17 C19 1.371 . S
N17 C20 1.372 . S
N18 C20 1.361 . S
N18 C21 1.377 . S
C19 N16 1.382 . S
C19 N17 1.371 . S
C19 C22 1.480 . S
C20 N17 1.372 . S
C20 N18 1.361 . S
C20 C28 1.457 . S
C21 N16 1.363 . S
C21 N18 1.377 . S
C21 C34 1.479 . S
C22 C19 1.480 . S
C22 C23 1.383 . S
C22 C27 1.385 . S
C23 H4 0.947 . S
C23 C22 1.383 . S
C23 C24 1.388 . S
C24 H5 0.946 . S
C24 C23 1.388 . S
C24 C25 1.384 . S
C25 C24 1.384 . S
C25 C26 1.377 . S
C26 H6 0.953 . S
C26 C25 1.377 . S
C26 C27 1.369 . S
C27 H7 0.945 . S
C27 C22 1.385 . S
C27 C26 1.369 . S
C28 C20 1.457 . S
C28 C29 1.372 . S
C28 C33 1.364 . S
C29 H8 0.952 . S
C29 C28 1.372 . S
C29 C30 1.389 . S
C30 H9 0.949 . S
C30 C29 1.389 . S
C30 C31 1.387 . S
C31 C30 1.387 . S
C31 C32 1.372 . S
C32 H10 0.950 . S
C32 C31 1.372 . S
C32 C33 1.379 . S
C33 H11 0.948 . S
C33 C28 1.364 . S
C33 C32 1.379 . S
C34 C3 1.383 . S
C34 C21 1.479 . S
C34 C35 1.398 . S
C35 C0 1.382 . S
C35 H12 0.951 . S
C35 C34 1.398 . S
C36 C37 1.384 . S
C36 H49 0.947 . S
C36 C71 1.382 . S
C37 C36 1.384 . S
C37 C38 1.378 . S
C38 C37 1.378 . S
C38 C39 1.378 . S
C38 H50 0.952 . S
C39 C38 1.378 . S
C39 H51 0.950 . S
C39 C70 1.383 . S
H40 C59 0.947 . S
H41 C60 0.946 . S
H42 C62 0.953 . S
H43 C63 0.945 . S
H44 C65 0.952 . S
H45 C66 0.949 . S
H46 C68 0.950 . S
H47 C69 0.948 . S
H48 C71 0.951 . S
H49 C36 0.947 . S
H50 C38 0.952 . S
H51 C39 0.950 . S
N52 C55 1.382 . S
N52 C57 1.363 . S
N53 C55 1.371 . S
N53 C56 1.372 . S
N54 C56 1.361 . S
N54 C57 1.377 . S
C55 N52 1.382 . S
C55 N53 1.371 . S
C55 C58 1.480 . S
C56 N53 1.372 . S
C56 N54 1.361 . S
C56 C64 1.457 . S
C57 N52 1.363 . S
C57 N54 1.377 . S
C57 C70 1.479 . S
C58 C55 1.480 . S
C58 C59 1.383 . S
C58 C63 1.385 . S
C59 H40 0.947 . S
C59 C58 1.383 . S
C59 C60 1.388 . S
C60 H41 0.946 . S
C60 C59 1.388 . S
C60 C61 1.384 1_455 S
C61 C60 1.384 1_655 S
C61 C62 1.377 . S
C62 H42 0.953 . S
C62 C61 1.377 . S
C62 C63 1.369 1_655 S
C63 H43 0.945 . S
C63 C58 1.385 . S
C63 C62 1.369 1_455 S
C64 C56 1.457 . S
C64 C65 1.372 . S
C64 C69 1.364 . S
C65 H44 0.952 . S
C65 C64 1.372 . S
C65 C66 1.389 . S
C66 H45 0.949 . S
C66 C65 1.389 . S
C66 C67 1.387 . S
C67 C66 1.387 . S
C67 C68 1.372 . S
C68 H46 0.950 . S
C68 C67 1.372 . S
C68 C69 1.379 . S
C69 H47 0.948 . S
C69 C64 1.364 . S
C69 C68 1.379 . S
C70 C39 1.383 . S
C70 C57 1.479 . S
C70 C71 1.398 . S
C71 C36 1.382 . S
C71 H48 0.951 . S
C71 C70 1.398 . S
C72 C73 1.384 . S
C72 H85 0.947 . S
C72 C107 1.382 . S
C73 C72 1.384 . S
C73 C74 1.378 . S
C74 C73 1.378 . S
C74 C75 1.378 . S
C74 H86 0.952 . S
C75 C74 1.378 . S
C75 H87 0.950 . S
C75 C106 1.383 . S
H76 C95 0.947 . S
H77 C96 0.946 . S
H78 C98 0.953 . S
H79 C99 0.945 . S
H80 C101 0.952 . S
H81 C102 0.949 . S
H82 C104 0.950 . S
H83 C105 0.948 . S
H84 C107 0.951 . S
H85 C72 0.947 . S
H86 C74 0.952 . S
H87 C75 0.950 . S
N88 C91 1.382 . S
N88 C93 1.363 . S
N89 C91 1.371 . S
N89 C92 1.372 . S
N90 C92 1.361 . S
N90 C93 1.377 . S
C91 N88 1.382 . S
C91 N89 1.371 . S
C91 C94 1.480 . S
C92 N89 1.372 . S
C92 N90 1.361 . S
C92 C100 1.457 . S
C93 N88 1.363 . S
C93 N90 1.377 . S
C93 C106 1.479 . S
C94 C91 1.480 . S
C94 C95 1.383 . S
C94 C99 1.385 . S
C95 H76 0.947 . S
C95 C94 1.383 . S
C95 C96 1.388 . S
C96 H77 0.946 . S
C96 C95 1.388 . S
C96 C97 1.384 . S
C97 C96 1.384 . S
C97 C98 1.377 . S
C98 H78 0.953 . S
C98 C97 1.377 . S
C98 C99 1.369 . S
C99 H79 0.945 . S
C99 C94 1.385 . S
C99 C98 1.369 . S
C100 C92 1.457 . S
C100 C101 1.372 . S
C100 C105 1.364 . S
C101 H80 0.952 . S
C101 C100 1.372 . S
C101 C102 1.389 . S
C102 H81 0.949 . S
C102 C101 1.389 . S
C102 C103 1.387 . S
C103 C102 1.387 . S
C103 C104 1.372 . S
C104 H82 0.950 . S
C104 C103 1.372 . S
C104 C105 1.379 . S
C105 H83 0.948 . S
C105 C100 1.364 . S
C105 C104 1.379 . S
C106 C75 1.383 . S
C106 C93 1.479 . S
C106 C107 1.398 . S
C107 C72 1.382 . S
C107 H84 0.951 . S
C107 C106 1.398 . S
C108 C109 1.384 . S
C108 H121 0.947 . S
C108 C143 1.382 . S
C109 C108 1.384 . S
C109 C110 1.378 . S
C110 C109 1.378 . S
C110 C111 1.378 . S
C110 H122 0.952 . S
C111 C110 1.378 . S
C111 H123 0.950 . S
C111 C142 1.383 . S
H112 C131 0.947 . S
H113 C132 0.946 . S
H114 C134 0.953 . S
H115 C135 0.945 . S
H116 C137 0.952 . S
H117 C138 0.949 . S
H118 C140 0.950 . S
H119 C141 0.948 . S
H120 C143 0.951 . S
H121 C108 0.947 . S
H122 C110 0.952 . S
H123 C111 0.950 . S
N124 C127 1.382 . S
N124 C129 1.363 . S
N125 C127 1.371 . S
N125 C128 1.372 . S
N126 C128 1.361 . S
N126 C129 1.377 . S
C127 N124 1.382 . S
C127 N125 1.371 . S
C127 C130 1.480 . S
C128 N125 1.372 . S
C128 N126 1.361 . S
C128 C136 1.457 . S
C129 N124 1.363 . S
C129 N126 1.377 . S
C129 C142 1.479 . S
C130 C127 1.480 . S
C130 C131 1.383 . S
C130 C135 1.385 . S
C131 H112 0.947 . S
C131 C130 1.383 . S
C131 C132 1.388 . S
C132 H113 0.946 . S
C132 C131 1.388 . S
C132 C133 1.384 . S
C133 C132 1.384 . S
C133 C134 1.377 . S
C134 H114 0.953 . S
C134 C133 1.377 . S
C134 C135 1.369 . S
C135 H115 0.945 . S
C135 C130 1.385 . S
C135 C134 1.369 . S
C136 C128 1.457 . S
C136 C137 1.372 . S
C136 C141 1.364 . S
C137 H116 0.952 . S
C137 C136 1.372 . S
C137 C138 1.389 . S
C138 H117 0.949 . S
C138 C137 1.389 . S
C138 C139 1.387 . S
C139 C138 1.387 . S
C139 C140 1.372 . S
C140 H118 0.950 . S
C140 C139 1.372 . S
C140 C141 1.379 . S
C141 H119 0.948 . S
C141 C136 1.364 . S
C141 C140 1.379 . S
C142 C111 1.383 . S
C142 C129 1.479 . S
C142 C143 1.398 . S
C143 C108 1.382 . S
C143 H120 0.951 . S
C143 C142 1.398 . S
C144 C145 1.384 . S
C144 H157 0.947 . S
C144 C179 1.382 . S
C145 C144 1.384 . S
C145 C146 1.378 . S
C146 C145 1.378 . S
C146 C147 1.378 . S
C146 H158 0.952 . S
C147 C146 1.378 . S
C147 H159 0.950 . S
C147 C178 1.383 . S
H148 C167 0.947 . S
H149 C168 0.946 . S
H150 C170 0.953 . S
H151 C171 0.945 . S
H152 C173 0.952 . S
H153 C174 0.949 . S
H154 C176 0.950 . S
H155 C177 0.948 . S
H156 C179 0.951 . S
H157 C144 0.947 . S
H158 C146 0.952 . S
H159 C147 0.950 . S
N160 C163 1.382 . S
N160 C165 1.363 . S
N161 C163 1.371 . S
N161 C164 1.372 . S
N162 C164 1.361 . S
N162 C165 1.377 . S
C163 N160 1.382 . S
C163 N161 1.371 . S
C163 C166 1.480 . S
C164 N161 1.372 . S
C164 N162 1.361 . S
C164 C172 1.457 . S
C165 N160 1.363 . S
C165 N162 1.377 . S
C165 C178 1.479 . S
C166 C163 1.480 . S
C166 C167 1.383 . S
C166 C171 1.385 . S
C167 H148 0.947 . S
C167 C166 1.383 . S
C167 C168 1.388 . S
C168 H149 0.946 . S
C168 C167 1.388 . S
C168 C169 1.384 . S
C169 C168 1.384 . S
C169 C170 1.377 . S
C170 H150 0.953 . S
C170 C169 1.377 . S
C170 C171 1.369 . S
C171 H151 0.945 . S
C171 C166 1.385 . S
C171 C170 1.369 . S
C172 C164 1.457 . S
C172 C173 1.372 . S
C172 C177 1.364 . S
C173 H152 0.952 . S
C173 C172 1.372 . S
C173 C174 1.389 . S
C174 H153 0.949 . S
C174 C173 1.389 . S
C174 C175 1.387 . S
C175 C174 1.387 . S
C175 C176 1.372 . S
C176 H154 0.950 . S
C176 C175 1.372 . S
C176 C177 1.379 . S
C177 H155 0.948 . S
C177 C172 1.364 . S
C177 C176 1.379 . S
C178 C147 1.383 . S
C178 C165 1.479 . S
C178 C179 1.398 . S
C179 C144 1.382 . S
C179 H156 0.951 . S
C179 C178 1.398 . S
C180 C181 1.384 . S
C180 H193 0.947 . S
C180 C215 1.382 . S
C181 C180 1.384 . S
C181 C182 1.378 . S
C182 C181 1.378 . S
C182 C183 1.378 . S
C182 H194 0.952 . S
C183 C182 1.378 . S
C183 H195 0.950 . S
C183 C214 1.383 . S
H184 C203 0.947 . S
H185 C204 0.946 . S
H186 C206 0.953 . S
H187 C207 0.945 . S
H188 C209 0.952 . S
H189 C210 0.949 . S
H190 C212 0.950 . S
H191 C213 0.948 . S
H192 C215 0.951 . S
H193 C180 0.947 . S
H194 C182 0.952 . S
H195 C183 0.950 . S
N196 C199 1.382 . S
N196 C201 1.363 . S
N197 C199 1.371 . S
N197 C200 1.372 . S
N198 C200 1.361 . S
N198 C201 1.377 . S
C199 N196 1.382 . S
C199 N197 1.371 . S
C199 C202 1.480 . S
C200 N197 1.372 . S
C200 N198 1.361 . S
C200 C208 1.457 . S
C201 N196 1.363 . S
C201 N198 1.377 . S
C201 C214 1.479 . S
C202 C199 1.480 . S
C202 C203 1.383 . S
C202 C207 1.385 . S
C203 H184 0.947 . S
C203 C202 1.383 . S
C203 C204 1.388 . S
C204 H185 0.946 . S
C204 C203 1.388 . S
C204 C205 1.384 . S
C205 C204 1.384 . S
C205 C206 1.377 . S
C206 H186 0.953 . S
C206 C205 1.377 . S
C206 C207 1.369 . S
C207 H187 0.945 . S
C207 C202 1.385 . S
C207 C206 1.369 . S
C208 C200 1.457 . S
C208 C209 1.372 . S
C208 C213 1.364 . S
C209 H188 0.952 . S
C209 C208 1.372 . S
C209 C210 1.389 . S
C210 H189 0.949 . S
C210 C209 1.389 . S
C210 C211 1.387 . S
C211 C210 1.387 . S
C211 C212 1.372 . S
C212 H190 0.950 . S
C212 C211 1.372 . S
C212 C213 1.379 . S
C213 H191 0.948 . S
C213 C208 1.364 . S
C213 C212 1.379 . S
C214 C183 1.383 . S
C214 C201 1.479 . S
C214 C215 1.398 . S
C215 C180 1.382 . S
C215 H192 0.951 . S
C215 C214 1.398 . S
C216 C217 1.384 . S
C216 H229 0.947 . S
C216 C251 1.382 . S
C217 C216 1.384 . S
C217 C218 1.378 . S
C218 C217 1.378 . S
C218 C219 1.378 . S
C218 H230 0.952 . S
C219 C218 1.378 . S
C219 H231 0.950 . S
C219 C250 1.383 . S
H220 C239 0.947 . S
H221 C240 0.946 . S
H222 C242 0.953 . S
H223 C243 0.945 . S
H224 C245 0.952 . S
H225 C246 0.949 . S
H226 C248 0.950 . S
H227 C249 0.948 . S
H228 C251 0.951 . S
H229 C216 0.947 . S
H230 C218 0.952 . S
H231 C219 0.950 . S
N232 C235 1.382 . S
N232 C237 1.363 . S
N233 C235 1.371 . S
N233 C236 1.372 . S
N234 C236 1.361 . S
N234 C237 1.377 . S
C235 N232 1.382 . S
C235 N233 1.371 . S
C235 C238 1.480 . S
C236 N233 1.372 . S
C236 N234 1.361 . S
C236 C244 1.457 . S
C237 N232 1.363 . S
C237 N234 1.377 . S
C237 C250 1.479 . S
C238 C235 1.480 . S
C238 C239 1.383 . S
C238 C243 1.385 . S
C239 H220 0.947 . S
C239 C238 1.383 . S
C239 C240 1.388 . S
C240 H221 0.946 . S
C240 C239 1.388 . S
C240 C241 1.384 . S
C241 C240 1.384 . S
C241 C242 1.377 . S
C242 H222 0.953 . S
C242 C241 1.377 . S
C242 C243 1.369 . S
C243 H223 0.945 . S
C243 C238 1.385 . S
C243 C242 1.369 . S
C244 C236 1.457 . S
C244 C245 1.372 . S
C244 C249 1.364 . S
C245 H224 0.952 . S
C245 C244 1.372 . S
C245 C246 1.389 . S
C246 H225 0.949 . S
C246 C245 1.389 . S
C246 C247 1.387 . S
C247 C246 1.387 . S
C247 C248 1.372 . S
C248 H226 0.950 . S
C248 C247 1.372 . S
C248 C249 1.379 . S
C249 H227 0.948 . S
C249 C244 1.364 . S
C249 C248 1.379 . S
C250 C219 1.383 . S
C250 C237 1.479 . S
C250 C251 1.398 . S
C251 C216 1.382 . S
C251 H228 0.951 . S
C251 C250 1.398 . S
C252 C253 1.384 . S
C252 H265 0.947 . S
C252 C287 1.382 1_655 S
C253 C252 1.384 . S
C253 C254 1.378 1_655 S
C254 C253 1.378 1_455 S
C254 C255 1.378 . S
C254 H266 0.952 . S
C255 C254 1.378 . S
C255 H267 0.950 . S
C255 C286 1.383 . S
H256 C275 0.947 . S
H257 C276 0.946 . S
H258 C278 0.953 . S
H259 C279 0.945 . S
H260 C281 0.952 . S
H261 C282 0.949 . S
H262 C284 0.950 . S
H263 C285 0.948 . S
H264 C287 0.951 . S
H265 C252 0.947 . S
H266 C254 0.952 . S
H267 C255 0.950 . S
N268 C271 1.382 . S
N268 C273 1.363 . S
N269 C271 1.371 . S
N269 C272 1.372 . S
N270 C272 1.361 . S
N270 C273 1.377 . S
C271 N268 1.382 . S
C271 N269 1.371 . S
C271 C274 1.480 . S
C272 N269 1.372 . S
C272 N270 1.361 . S
C272 C280 1.457 . S
C273 N268 1.363 . S
C273 N270 1.377 . S
C273 C286 1.479 . S
C274 C271 1.480 . S
C274 C275 1.383 . S
C274 C279 1.385 . S
C275 H256 0.947 . S
C275 C274 1.383 . S
C275 C276 1.388 . S
C276 H257 0.946 . S
C276 C275 1.388 . S
C276 C277 1.384 . S
C277 C276 1.384 . S
C277 C278 1.377 . S
C278 H258 0.953 . S
C278 C277 1.377 . S
C278 C279 1.369 . S
C279 H259 0.945 . S
C279 C274 1.385 . S
C279 C278 1.369 . S
C280 C272 1.457 . S
C280 C281 1.372 . S
C280 C285 1.364 . S
C281 H260 0.952 . S
C281 C280 1.372 . S
C281 C282 1.389 . S
C282 H261 0.949 . S
C282 C281 1.389 . S
C282 C283 1.387 . S
C283 C282 1.387 . S
C283 C284 1.372 . S
C284 H262 0.950 . S
C284 C283 1.372 . S
C284 C285 1.379 . S
C285 H263 0.948 . S
C285 C280 1.364 . S
C285 C284 1.379 . S
C286 C255 1.383 . S
C286 C273 1.479 . S
C286 C287 1.398 . S
C287 C252 1.382 1_455 S
C287 H264 0.951 . S
C287 C286 1.398 . S
Zn288 O294 1.920 . S
Zn288 O300 1.898 . S
Zn288 O303 1.905 . S
Zn289 O297 1.905 . S
Zn289 O298 1.898 . S
Zn289 O306 1.920 . S
Zn290 O293 2.080 . S
Zn290 O296 2.114 . S
Zn290 O299 2.120 . S
Zn290 O301 2.120 . S
Zn290 O302 2.114 . S
Zn290 O305 2.080 . S
C291 O296 1.166 . S
C291 O297 1.182 . S
C292 O298 1.167 . S
C292 O299 1.299 . S
O293 Zn290 2.080 . S
O293 C307 1.305 . S
O294 Zn288 1.920 . S
O294 C307 1.234 . S
C295 O300 1.167 . S
C295 O301 1.299 . S
O296 Zn290 2.114 . S
O296 C291 1.166 . S
O297 Zn289 1.905 . S
O297 C291 1.182 . S
O298 Zn289 1.898 . S
O298 C292 1.167 . S
O299 Zn290 2.120 . S
O299 C292 1.299 . S
O300 Zn288 1.898 . S
O300 C295 1.167 . S
O301 Zn290 2.120 . S
O301 C295 1.299 . S
O302 Zn290 2.114 . S
O302 C304 1.166 . S
O303 Zn288 1.905 . S
O303 C304 1.182 . S
C304 O302 1.166 . S
C304 O303 1.182 . S
O305 Zn290 2.080 . S
O305 C308 1.305 . S
O306 Zn289 1.920 . S
O306 C308 1.234 . S
C307 O293 1.305 . S
C307 O294 1.234 . S
C308 O305 1.305 . S
C308 O306 1.234 . S
Zn309 O315 1.920 . S
Zn309 O321 1.898 . S
Zn309 O324 1.905 . S
Zn310 O318 1.905 . S
Zn310 O319 1.898 . S
Zn310 O327 1.920 . S
Zn311 O314 2.080 . S
Zn311 O317 2.114 . S
Zn311 O320 2.120 . S
Zn311 O322 2.120 . S
Zn311 O323 2.114 . S
Zn311 O326 2.080 . S
C312 O317 1.166 . S
C312 O318 1.182 . S
C313 O319 1.167 . S
C313 O320 1.299 . S
O314 Zn311 2.080 . S
O314 C328 1.305 . S
O315 Zn309 1.920 . S
O315 C328 1.234 . S
C316 O321 1.167 . S
C316 O322 1.299 . S
O317 Zn311 2.114 . S
O317 C312 1.166 . S
O318 Zn310 1.905 . S
O318 C312 1.182 . S
O319 Zn310 1.898 . S
O319 C313 1.167 . S
O320 Zn311 2.120 . S
O320 C313 1.299 . S
O321 Zn309 1.898 . S
O321 C316 1.167 . S
O322 Zn311 2.120 . S
O322 C316 1.299 . S
O323 Zn311 2.114 . S
O323 C325 1.166 . S
O324 Zn309 1.905 . S
O324 C325 1.182 . S
C325 O323 1.166 . S
C325 O324 1.182 . S
O326 Zn311 2.080 . S
O326 C329 1.305 . S
O327 Zn310 1.920 . S
O327 C329 1.234 . S
C328 O314 1.305 . S
C328 O315 1.234 . S
C329 O326 1.305 . S
C329 O327 1.234 . S
Zn330 O336 1.920 . S
Zn330 O342 1.898 . S
Zn330 O345 1.905 . S
Zn331 O339 1.905 . S
Zn331 O340 1.898 . S
Zn331 O348 1.920 . S
Zn332 O335 2.080 . S
Zn332 O338 2.114 . S
Zn332 O341 2.120 . S
Zn332 O343 2.120 . S
Zn332 O344 2.114 . S
Zn332 O347 2.080 . S
C333 O338 1.166 . S
C333 O339 1.182 . S
C334 O340 1.167 . S
C334 O341 1.299 . S
O335 Zn332 2.080 . S
O335 C349 1.305 . S
O336 Zn330 1.920 . S
O336 C349 1.234 . S
C337 O342 1.167 . S
C337 O343 1.299 . S
O338 Zn332 2.114 . S
O338 C333 1.166 . S
O339 Zn331 1.905 . S
O339 C333 1.182 . S
O340 Zn331 1.898 . S
O340 C334 1.167 . S
O341 Zn332 2.120 . S
O341 C334 1.299 . S
O342 Zn330 1.898 . S
O342 C337 1.167 . S
O343 Zn332 2.120 . S
O343 C337 1.299 . S
O344 Zn332 2.114 . S
O344 C346 1.166 . S
O345 Zn330 1.905 . S
O345 C346 1.182 . S
C346 O344 1.166 . S
C346 O345 1.182 . S
O347 Zn332 2.080 . S
O347 C350 1.305 . S
O348 Zn331 1.920 . S
O348 C350 1.234 . S
C349 O335 1.305 . S
C349 O336 1.234 . S
C350 O347 1.305 . S
C350 O348 1.234 . S
Zn351 O357 1.920 . S
Zn351 O363 1.898 . S
Zn351 O366 1.905 . S
Zn352 O360 1.905 . S
Zn352 O361 1.898 . S
Zn352 O369 1.920 . S
Zn353 O356 2.080 . S
Zn353 O359 2.114 . S
Zn353 O362 2.120 . S
Zn353 O364 2.120 . S
Zn353 O365 2.114 . S
Zn353 O368 2.080 . S
C354 O359 1.166 . S
C354 O360 1.182 . S
C355 O361 1.167 . S
C355 O362 1.299 . S
O356 Zn353 2.080 . S
O356 C370 1.305 . S
O357 Zn351 1.920 . S
O357 C370 1.234 . S
C358 O363 1.167 . S
C358 O364 1.299 . S
O359 Zn353 2.114 . S
O359 C354 1.166 . S
O360 Zn352 1.905 . S
O360 C354 1.182 . S
O361 Zn352 1.898 . S
O361 C355 1.167 . S
O362 Zn353 2.120 . S
O362 C355 1.299 . S
O363 Zn351 1.898 . S
O363 C358 1.167 . S
O364 Zn353 2.120 . S
O364 C358 1.299 . S
O365 Zn353 2.114 . S
O365 C367 1.166 . S
O366 Zn351 1.905 . S
O366 C367 1.182 . S
C367 O365 1.166 . S
C367 O366 1.182 . S
O368 Zn353 2.080 . S
O368 C371 1.305 . S
O369 Zn352 1.920 . S
O369 C371 1.234 . S
C370 O356 1.305 . S
C370 O357 1.234 . S
C371 O368 1.305 . S
C371 O369 1.234 . S
C372 C373 1.391 . S
C372 C374 1.394 . S
C372 H388 0.931 . S
C373 C372 1.391 . S
C373 C377 1.376 . S
C374 C372 1.394 . S
C374 C375 1.369 . S
C374 C378 1.531 . S
C375 C374 1.369 . S
C375 C376 1.410 . S
C375 C383 1.503 . S
C376 C375 1.410 . S
C376 C377 1.392 . S
C376 C379 1.511 . S
C377 C373 1.376 . S
C377 C376 1.392 . S
C377 H389 0.929 . S
C378 C374 1.531 . S
C378 H390 0.960 . S
C378 H391 0.962 . S
C378 H392 0.960 . S
C379 C376 1.511 . S
C379 H393 0.961 . S
C379 H394 0.961 . S
C379 H395 0.961 . S
C380 C381 1.370 . S
C380 C382 1.363 . S
C380 H396 0.931 . S
C381 C380 1.370 . S
C381 C385 1.408 . S
C382 C380 1.363 . S
C382 C383 1.370 . S
C382 C386 1.524 . S
C383 C375 1.503 . S
C383 C382 1.370 . S
C383 C384 1.403 . S
C384 C383 1.403 . S
C384 C385 1.404 . S
C384 C387 1.539 . S
C385 C381 1.408 . S
C385 C384 1.404 . S
C385 H397 0.930 . S
C386 C382 1.524 . S
C386 H398 0.956 . S
C386 H399 0.961 . S
C386 H400 0.961 . S
C387 C384 1.539 . S
C387 H401 0.958 . S
C387 H402 0.961 . S
C387 H403 0.960 . S
H388 C372 0.931 . S
H389 C377 0.929 . S
H390 C378 0.960 . S
H391 C378 0.962 . S
H392 C378 0.960 . S
H393 C379 0.961 . S
H394 C379 0.961 . S
H395 C379 0.961 . S
H396 C380 0.931 . S
H397 C385 0.930 . S
H398 C386 0.956 . S
H399 C386 0.961 . S
H400 C386 0.961 . S
H401 C387 0.958 . S
H402 C387 0.961 . S
H403 C387 0.960 . S
C404 C405 1.391 . S
C404 C406 1.394 . S
C404 H420 0.931 . S
C405 C404 1.391 . S
C405 C409 1.376 . S
C406 C404 1.394 . S
C406 C407 1.369 . S
C406 C410 1.531 . S
C407 C406 1.369 . S
C407 C408 1.410 . S
C407 C415 1.503 . S
C408 C407 1.410 . S
C408 C409 1.392 . S
C408 C411 1.511 . S
C409 C405 1.376 . S
C409 C408 1.392 . S
C409 H421 0.929 . S
C410 C406 1.531 . S
C410 H422 0.960 . S
C410 H423 0.962 . S
C410 H424 0.960 . S
C411 C408 1.511 . S
C411 H425 0.961 . S
C411 H426 0.961 . S
C411 H427 0.961 . S
C412 C413 1.370 . S
C412 C414 1.363 . S
C412 H428 0.931 . S
C413 C412 1.370 . S
C413 C417 1.408 . S
C414 C412 1.363 . S
C414 C415 1.370 . S
C414 C418 1.524 . S
C415 C407 1.503 . S
C415 C414 1.370 . S
C415 C416 1.403 . S
C416 C415 1.403 . S
C416 C417 1.404 . S
C416 C419 1.539 . S
C417 C413 1.408 . S
C417 C416 1.404 . S
C417 H429 0.930 . S
C418 C414 1.524 . S
C418 H430 0.956 . S
C418 H431 0.961 . S
C418 H432 0.961 . S
C419 C416 1.539 . S
C419 H433 0.958 . S
C419 H434 0.961 . S
C419 H435 0.960 . S
H420 C404 0.931 . S
H421 C409 0.929 . S
H422 C410 0.960 . S
H423 C410 0.962 . S
H424 C410 0.960 . S
H425 C411 0.961 . S
H426 C411 0.961 . S
H427 C411 0.961 . S
H428 C412 0.931 . S
H429 C417 0.930 . S
H430 C418 0.956 . S
H431 C418 0.961 . S
H432 C418 0.961 . S
H433 C419 0.958 . S
H434 C419 0.961 . S
H435 C419 0.960 . S
C436 C437 1.391 . S
C436 C438 1.394 . S
C436 H452 0.931 . S
C437 C436 1.391 . S
C437 C441 1.376 . S
C438 C436 1.394 . S
C438 C439 1.369 . S
C438 C442 1.531 . S
C439 C438 1.369 . S
C439 C440 1.410 . S
C439 C447 1.503 . S
C440 C439 1.410 . S
C440 C441 1.392 . S
C440 C443 1.511 . S
C441 C437 1.376 . S
C441 C440 1.392 . S
C441 H453 0.929 . S
C442 C438 1.531 . S
C442 H454 0.960 . S
C442 H455 0.962 . S
C442 H456 0.960 . S
C443 C440 1.511 . S
C443 H457 0.961 . S
C443 H458 0.961 . S
C443 H459 0.961 . S
C444 C445 1.370 . S
C444 C446 1.363 . S
C444 H460 0.931 . S
C445 C444 1.370 . S
C445 C449 1.408 . S
C446 C444 1.363 . S
C446 C447 1.370 . S
C446 C450 1.524 . S
C447 C439 1.503 . S
C447 C446 1.370 . S
C447 C448 1.403 . S
C448 C447 1.403 . S
C448 C449 1.404 . S
C448 C451 1.539 . S
C449 C445 1.408 . S
C449 C448 1.404 . S
C449 H461 0.930 . S
C450 C446 1.524 . S
C450 H462 0.956 . S
C450 H463 0.961 . S
C450 H464 0.961 . S
C451 C448 1.539 . S
C451 H465 0.958 . S
C451 H466 0.961 . S
C451 H467 0.960 . S
H452 C436 0.931 . S
H453 C441 0.929 . S
H454 C442 0.960 . S
H455 C442 0.962 . S
H456 C442 0.960 . S
H457 C443 0.961 . S
H458 C443 0.961 . S
H459 C443 0.961 . S
H460 C444 0.931 . S
H461 C449 0.930 . S
H462 C450 0.956 . S
H463 C450 0.961 . S
H464 C450 0.961 . S
H465 C451 0.958 . S
H466 C451 0.961 . S
H467 C451 0.960 . S
C468 C469 1.391 . S
C468 C470 1.394 . S
C468 H484 0.931 . S
C469 C468 1.391 . S
C469 C473 1.376 . S
C470 C468 1.394 . S
C470 C471 1.369 . S
C470 C474 1.531 . S
C471 C470 1.369 . S
C471 C472 1.410 . S
C471 C479 1.503 . S
C472 C471 1.410 . S
C472 C473 1.392 . S
C472 C475 1.511 . S
C473 C469 1.376 . S
C473 C472 1.392 . S
C473 H485 0.929 . S
C474 C470 1.531 . S
C474 H486 0.960 . S
C474 H487 0.962 . S
C474 H488 0.960 . S
C475 C472 1.511 . S
C475 H489 0.961 . S
C475 H490 0.961 . S
C475 H491 0.961 . S
C476 C477 1.370 1_655 S
C476 C478 1.363 . S
C476 H492 0.931 . S
C477 C476 1.370 1_455 S
C477 C481 1.408 1_455 S
C478 C476 1.363 . S
C478 C479 1.370 . S
C478 C482 1.524 . S
C479 C471 1.503 . S
C479 C478 1.370 . S
C479 C480 1.403 . S
C480 C479 1.403 . S
C480 C481 1.404 . S
C480 C483 1.539 . S
C481 C477 1.408 1_655 S
C481 C480 1.404 . S
C481 H493 0.913 1_655 S
C482 C478 1.524 . S
C482 H494 0.956 . S
C482 H495 0.961 . S
C482 H496 0.961 . S
C483 C480 1.539 . S
C483 H497 0.958 . S
C483 H498 0.961 . S
C483 H499 0.960 . S
H484 C468 0.931 . S
H485 C473 0.929 . S
H486 C474 0.960 . S
H487 C474 0.962 . S
H488 C474 0.960 . S
H489 C475 0.961 . S
H490 C475 0.961 . S
H491 C475 0.961 . S
H492 C476 0.931 . S
H493 C481 0.913 1_455 S
H494 C482 0.956 . S
H495 C482 0.961 . S
H496 C482 0.961 . S
H497 C483 0.958 . S
H498 C483 0.961 . S
H499 C483 0.960 . S
C500 C501 1.391 . S
C500 C502 1.394 . S
C500 H516 0.931 . S
C501 C500 1.391 . S
C501 C505 1.376 . S
C502 C500 1.394 . S
C502 C503 1.369 . S
C502 C506 1.531 . S
C503 C502 1.369 . S
C503 C504 1.410 . S
C503 C511 1.503 . S
C504 C503 1.410 . S
C504 C505 1.392 . S
C504 C507 1.511 . S
C505 C501 1.376 . S
C505 C504 1.392 . S
C505 H517 0.929 . S
C506 C502 1.531 . S
C506 H518 0.960 . S
C506 H519 0.962 . S
C506 H520 0.960 . S
C507 C504 1.511 . S
C507 H521 0.961 . S
C507 H522 0.961 . S
C507 H523 0.961 . S
C508 C509 1.370 . S
C508 C510 1.363 . S
C508 H524 0.931 . S
C509 C508 1.370 . S
C509 C513 1.408 . S
C510 C508 1.363 . S
C510 C511 1.370 . S
C510 C514 1.524 . S
C511 C503 1.503 . S
C511 C510 1.370 . S
C511 C512 1.403 . S
C512 C511 1.403 . S
C512 C513 1.404 . S
C512 C515 1.539 . S
C513 C509 1.408 . S
C513 C512 1.404 . S
C513 H525 0.930 . S
C514 C510 1.524 . S
C514 H526 0.956 . S
C514 H527 0.961 . S
C514 H528 0.945 1_455 S
C515 C512 1.539 . S
C515 H529 0.958 . S
C515 H530 0.961 . S
C515 H531 0.960 . S
H516 C500 0.931 . S
H517 C505 0.929 . S
H518 C506 0.960 . S
H519 C506 0.962 . S
H520 C506 0.960 . S
H521 C507 0.961 . S
H522 C507 0.961 . S
H523 C507 0.961 . S
H524 C508 0.931 . S
H525 C513 0.930 . S
H526 C514 0.956 . S
H527 C514 0.961 . S
H528 C514 0.945 1_655 S
H529 C515 0.958 . S
H530 C515 0.961 . S
H531 C515 0.960 . S
C532 C533 1.391 . S
C532 C534 1.394 . S
C532 H548 0.931 . S
C533 C532 1.391 . S
C533 C537 1.376 . S
C534 C532 1.394 . S
C534 C535 1.369 . S
C534 C538 1.531 . S
C535 C534 1.369 . S
C535 C536 1.410 . S
C535 C543 1.503 . S
C536 C535 1.410 . S
C536 C537 1.392 . S
C536 C539 1.511 . S
C537 C533 1.376 . S
C537 C536 1.392 . S
C537 H549 0.929 . S
C538 C534 1.531 . S
C538 H550 0.960 . S
C538 H551 0.962 . S
C538 H552 0.960 . S
C539 C536 1.511 . S
C539 H553 0.961 . S
C539 H554 0.961 . S
C539 H555 0.961 . S
C540 C541 1.370 1_655 S
C540 C542 1.363 . S
C540 H556 0.931 1_655 S
C541 C540 1.370 1_455 S
C541 C545 1.408 1_455 S
C542 C540 1.363 . S
C542 C543 1.370 . S
C542 C546 1.524 . S
C543 C535 1.503 . S
C543 C542 1.370 . S
C543 C544 1.403 . S
C544 C543 1.403 . S
C544 C545 1.404 . S
C544 C547 1.539 . S
C545 C541 1.408 1_655 S
C545 C544 1.404 . S
C545 H557 0.930 . S
C546 C542 1.524 . S
C546 H558 0.956 . S
C546 H559 0.961 . S
C546 H560 0.961 . S
C547 C544 1.539 . S
C547 H561 0.958 . S
C547 H562 0.961 . S
C547 H563 0.960 . S
H548 C532 0.931 . S
H549 C537 0.929 . S
H550 C538 0.960 . S
H551 C538 0.962 . S
H552 C538 0.960 . S
H553 C539 0.961 . S
H554 C539 0.961 . S
H555 C539 0.961 . S
H556 C540 0.931 1_455 S
H557 C545 0.930 . S
H558 C546 0.956 . S
H559 C546 0.961 . S
H560 C546 0.961 . S
H561 C547 0.958 . S
H562 C547 0.961 . S
H563 C547 0.960 . S
C564 C565 1.391 . S
C564 C566 1.394 . S
C564 H580 0.931 . S
C565 C564 1.391 . S
C565 C569 1.376 . S
C566 C564 1.394 . S
C566 C567 1.369 . S
C566 C570 1.531 . S
C567 C566 1.369 . S
C567 C568 1.410 . S
C567 C575 1.503 . S
C568 C567 1.410 . S
C568 C569 1.392 . S
C568 C571 1.511 . S
C569 C565 1.376 . S
C569 C568 1.392 . S
C569 H581 0.929 . S
C570 C566 1.531 . S
C570 H582 0.960 . S
C570 H583 0.962 . S
C570 H584 0.960 . S
C571 C568 1.511 . S
C571 H585 0.961 . S
C571 H586 0.961 . S
C571 H587 0.961 . S
C572 C573 1.370 . S
C572 C574 1.363 . S
C572 H588 0.931 . S
C573 C572 1.370 . S
C573 C577 1.408 . S
C574 C572 1.363 . S
C574 C575 1.370 . S
C574 C578 1.524 . S
C575 C567 1.503 . S
C575 C574 1.370 . S
C575 C576 1.403 . S
C576 C575 1.403 . S
C576 C577 1.404 . S
C576 C579 1.539 . S
C577 C573 1.408 . S
C577 C576 1.404 . S
C577 H589 0.930 . S
C578 C574 1.524 . S
C578 H590 0.956 . S
C578 H591 0.961 . S
C578 H592 0.961 . S
C579 C576 1.539 . S
C579 H593 0.958 . S
C579 H594 0.961 . S
C579 H595 0.960 . S
H580 C564 0.931 . S
H581 C569 0.929 . S
H582 C570 0.960 . S
H583 C570 0.962 . S
H584 C570 0.960 . S
H585 C571 0.961 . S
H586 C571 0.961 . S
H587 C571 0.961 . S
H588 C572 0.931 . S
H589 C577 0.930 . S
H590 C578 0.956 . S
H591 C578 0.961 . S
H592 C578 0.961 . S
H593 C579 0.958 . S
H594 C579 0.961 . S
H595 C579 0.960 . S
C596 C597 1.391 . S
C596 C598 1.394 . S
C596 H612 0.931 . S
C597 C596 1.391 . S
C597 C601 1.376 . S
C598 C596 1.394 . S
C598 C599 1.369 . S
C598 C602 1.531 . S
C599 C598 1.369 . S
C599 C600 1.410 . S
C599 C607 1.503 . S
C600 C599 1.410 . S
C600 C601 1.392 . S
C600 C603 1.511 . S
C601 C597 1.376 . S
C601 C600 1.392 . S
C601 H613 0.929 . S
C602 C598 1.531 . S
C602 H614 0.960 . S
C602 H615 0.962 . S
C602 H616 0.960 . S
C603 C600 1.511 . S
C603 H617 0.961 . S
C603 H618 0.961 . S
C603 H619 0.961 . S
C604 C605 1.370 . S
C604 C606 1.363 . S
C604 H620 0.931 . S
C605 C604 1.370 . S
C605 C609 1.408 . S
C606 C604 1.363 . S
C606 C607 1.370 . S
C606 C610 1.524 . S
C607 C599 1.503 . S
C607 C606 1.370 . S
C607 C608 1.403 . S
C608 C607 1.403 . S
C608 C609 1.404 . S
C608 C611 1.539 . S
C609 C605 1.408 . S
C609 C608 1.404 . S
C609 H621 0.930 . S
C610 C606 1.524 . S
C610 H622 0.956 . S
C610 H623 0.961 . S
C610 H624 0.961 . S
C611 C608 1.539 . S
C611 H625 0.958 . S
C611 H626 0.961 . S
C611 H627 0.960 . S
H612 C596 0.931 . S
H613 C601 0.929 . S
H614 C602 0.960 . S
H615 C602 0.962 . S
H616 C602 0.960 . S
H617 C603 0.961 . S
H618 C603 0.961 . S
H619 C603 0.961 . S
H620 C604 0.931 . S
H621 C609 0.930 . S
H622 C610 0.956 . S
H623 C610 0.961 . S
H624 C610 0.961 . S
H625 C611 0.958 . S
H626 C611 0.961 . S
H627 C611 0.960 . S
C628 C629 1.391 . S
C628 C630 1.394 . S
C628 H644 0.931 . S
C629 C628 1.391 . S
C629 C633 1.376 . S
C630 C628 1.394 . S
C630 C631 1.369 . S
C630 C634 1.531 . S
C631 C630 1.369 . S
C631 C632 1.410 . S
C631 C639 1.503 . S
C632 C631 1.410 . S
C632 C633 1.392 . S
C632 C635 1.511 . S
C633 C629 1.376 . S
C633 C632 1.392 . S
C633 H645 0.929 . S
C634 C630 1.531 . S
C634 H646 0.960 . S
C634 H647 0.962 . S
C634 H648 0.960 . S
C635 C632 1.511 . S
C635 H649 0.961 . S
C635 H650 0.961 . S
C635 H651 0.961 . S
C636 C637 1.370 . S
C636 C638 1.363 . S
C636 H652 0.931 . S
C637 C636 1.370 . S
C637 C641 1.408 . S
C638 C636 1.363 . S
C638 C639 1.370 . S
C638 C642 1.524 . S
C639 C631 1.503 . S
C639 C638 1.370 . S
C639 C640 1.403 . S
C640 C639 1.403 . S
C640 C641 1.404 . S
C640 C643 1.539 . S
C641 C637 1.408 . S
C641 C640 1.404 . S
C641 H653 0.930 . S
C642 C638 1.524 . S
C642 H654 0.956 . S
C642 H655 0.961 . S
C642 H656 0.961 . S
C643 C640 1.539 . S
C643 H657 0.958 . S
C643 H658 0.961 . S
C643 H659 0.960 . S
H644 C628 0.931 . S
H645 C633 0.929 . S
H646 C634 0.960 . S
H647 C634 0.962 . S
H648 C634 0.960 . S
H649 C635 0.961 . S
H650 C635 0.961 . S
H651 C635 0.961 . S
H652 C636 0.931 . S
H653 C641 0.930 . S
H654 C642 0.956 . S
H655 C642 0.961 . S
H656 C642 0.961 . S
H657 C643 0.958 . S
H658 C643 0.961 . S
H659 C643 0.960 . S
C660 C661 1.391 . S
C660 C662 1.394 . S
C660 H676 0.931 . S
C661 C660 1.391 . S
C661 C665 1.376 . S
C662 C660 1.394 . S
C662 C663 1.369 . S
C662 C666 1.531 . S
C663 C662 1.369 . S
C663 C664 1.410 . S
C663 C671 1.503 . S
C664 C663 1.410 . S
C664 C665 1.392 . S
C664 C667 1.511 . S
C665 C661 1.376 . S
C665 C664 1.392 . S
C665 H677 0.929 . S
C666 C662 1.531 . S
C666 H678 0.960 . S
C666 H679 0.962 . S
C666 H680 0.960 . S
C667 C664 1.511 . S
C667 H681 0.961 . S
C667 H682 0.961 . S
C667 H683 0.961 . S
C668 C669 1.370 . S
C668 C670 1.363 . S
C668 H684 0.931 . S
C669 C668 1.370 . S
C669 C673 1.408 . S
C670 C668 1.363 . S
C670 C671 1.370 . S
C670 C674 1.524 . S
C671 C663 1.503 . S
C671 C670 1.370 . S
C671 C672 1.403 . S
C672 C671 1.403 . S
C672 C673 1.404 . S
C672 C675 1.539 . S
C673 C669 1.408 . S
C673 C672 1.404 . S
C673 H685 0.930 . S
C674 C670 1.524 . S
C674 H686 0.956 . S
C674 H687 0.961 . S
C674 H688 0.961 . S
C675 C672 1.539 . S
C675 H689 0.958 . S
C675 H690 0.961 . S
C675 H691 0.960 . S
H676 C660 0.931 . S
H677 C665 0.929 . S
H678 C666 0.960 . S
H679 C666 0.962 . S
H680 C666 0.960 . S
H681 C667 0.961 . S
H682 C667 0.961 . S
H683 C667 0.961 . S
H684 C668 0.931 . S
H685 C673 0.930 . S
H686 C674 0.956 . S
H687 C674 0.961 . S
H688 C674 0.961 . S
H689 C675 0.958 . S
H690 C675 0.961 . S
H691 C675 0.960 . S
C692 C693 1.391 . S
C692 C694 1.394 . S
C692 H708 0.931 . S
C693 C692 1.391 . S
C693 C697 1.376 . S
C694 C692 1.394 . S
C694 C695 1.369 . S
C694 C698 1.531 . S
C695 C694 1.369 . S
C695 C696 1.410 . S
C695 C703 1.503 . S
C696 C695 1.410 . S
C696 C697 1.392 . S
C696 C699 1.511 . S
C697 C693 1.376 . S
C697 C696 1.392 . S
C697 H709 0.929 . S
C698 C694 1.531 . S
C698 H710 0.960 . S
C698 H711 0.962 . S
C698 H712 0.960 . S
C699 C696 1.511 . S
C699 H713 0.961 . S
C699 H714 0.961 . S
C699 H715 0.961 . S
C700 C701 1.370 . S
C700 C702 1.363 . S
C700 H716 0.931 . S
C701 C700 1.370 . S
C701 C705 1.408 . S
C702 C700 1.363 . S
C702 C703 1.370 . S
C702 C706 1.524 . S
C703 C695 1.503 . S
C703 C702 1.370 . S
C703 C704 1.403 . S
C704 C703 1.403 . S
C704 C705 1.404 . S
C704 C707 1.539 . S
C705 C701 1.408 . S
C705 C704 1.404 . S
C705 H717 0.930 . S
C706 C702 1.524 . S
C706 H718 0.956 . S
C706 H719 0.961 . S
C706 H720 0.961 . S
C707 C704 1.539 . S
C707 H721 0.958 . S
C707 H722 0.961 . S
C707 H723 0.960 . S
H708 C692 0.931 . S
H709 C697 0.929 . S
H710 C698 0.960 . S
H711 C698 0.962 . S
H712 C698 0.960 . S
H713 C699 0.961 . S
H714 C699 0.961 . S
H715 C699 0.961 . S
H716 C700 0.931 . S
H717 C705 0.930 . S
H718 C706 0.956 . S
H719 C706 0.961 . S
H720 C706 0.961 . S
H721 C707 0.958 . S
H722 C707 0.961 . S
H723 C707 0.960 . S
C724 C725 1.391 . S
C724 C726 1.394 . S
C724 H740 0.931 . S
C725 C724 1.391 . S
C725 C729 1.376 . S
C726 C724 1.394 . S
C726 C727 1.369 . S
C726 C730 1.531 . S
C727 C726 1.369 . S
C727 C728 1.410 . S
C727 C735 1.503 . S
C728 C727 1.410 . S
C728 C729 1.392 . S
C728 C731 1.511 . S
C729 C725 1.376 . S
C729 C728 1.392 . S
C729 H741 0.929 . S
C730 C726 1.531 . S
C730 H742 0.960 . S
C730 H743 0.962 . S
C730 H744 0.960 . S
C731 C728 1.511 . S
C731 H745 0.961 . S
C731 H746 0.961 . S
C731 H747 0.961 . S
C732 C733 1.370 . S
C732 C734 1.363 . S
C732 H748 0.931 . S
C733 C732 1.370 . S
C733 C737 1.408 . S
C734 C732 1.363 . S
C734 C735 1.370 . S
C734 C738 1.524 . S
C735 C727 1.503 . S
C735 C734 1.370 . S
C735 C736 1.403 . S
C736 C735 1.403 . S
C736 C737 1.404 . S
C736 C739 1.539 . S
C737 C733 1.408 . S
C737 C736 1.404 . S
C737 H749 0.930 . S
C738 C734 1.524 . S
C738 H750 0.956 . S
C738 H751 0.961 . S
C738 H752 0.961 . S
C739 C736 1.539 . S
C739 H753 0.958 . S
C739 H754 0.961 . S
C739 H755 0.960 . S
H740 C724 0.931 . S
H741 C729 0.929 . S
H742 C730 0.960 . S
H743 C730 0.962 . S
H744 C730 0.960 . S
H745 C731 0.961 . S
H746 C731 0.961 . S
H747 C731 0.961 . S
H748 C732 0.931 . S
H749 C737 0.930 . S
H750 C738 0.956 . S
H751 C738 0.961 . S
H752 C738 0.961 . S
H753 C739 0.958 . S
H754 C739 0.961 . S
H755 C739 0.960 . S
C756 C757 1.391 . S
C756 C758 1.394 . S
C756 H772 0.931 . S
C757 C756 1.391 . S
C757 C761 1.376 . S
C758 C756 1.394 . S
C758 C759 1.369 . S
C758 C762 1.531 . S
C759 C758 1.369 . S
C759 C760 1.410 . S
C759 C767 1.503 1_565 S
C760 C759 1.410 . S
C760 C761 1.392 . S
C760 C763 1.511 1_565 S
C761 C757 1.376 . S
C761 C760 1.392 . S
C761 H773 0.929 . S
C762 C758 1.531 . S
C762 H774 0.960 1_565 S
C762 H775 0.962 . S
C762 H776 0.960 . S
C763 C760 1.511 1_545 S
C763 H777 0.961 1_545 S
C763 H778 0.961 . S
C763 H779 0.961 . S
C764 C765 1.370 . S
C764 C766 1.363 . S
C764 H780 0.931 . S
C765 C764 1.370 . S
C765 C769 1.408 . S
C766 C764 1.363 . S
C766 C767 1.370 . S
C766 C770 1.524 . S
C767 C759 1.503 1_545 S
C767 C766 1.370 . S
C767 C768 1.403 . S
C768 C767 1.403 . S
C768 C769 1.404 . S
C768 C771 1.539 . S
C769 C765 1.408 . S
C769 C768 1.404 . S
C769 H781 0.930 . S
C770 C766 1.524 . S
C770 H782 0.956 1_545 S
C770 H783 0.961 1_545 S
C770 H784 0.961 . S
C771 C768 1.539 . S
C771 H785 0.958 . S
C771 H786 0.961 . S
C771 H787 0.960 . S
H772 C756 0.931 . S
H773 C761 0.929 . S
H774 C762 0.960 1_545 S
H775 C762 0.962 . S
H776 C762 0.960 . S
H777 C763 0.961 1_565 S
H778 C763 0.961 . S
H779 C763 0.961 . S
H780 C764 0.931 . S
H781 C769 0.930 . S
H782 C770 0.956 1_565 S
H783 C770 0.961 1_565 S
H784 C770 0.961 . S
H785 C771 0.958 . S
H786 C771 0.961 . S
H787 C771 0.960 . S
C788 C789 1.391 . S
C788 C790 1.394 . S
C788 H804 0.931 . S
C789 C788 1.391 . S
C789 C793 1.376 . S
C790 C788 1.394 . S
C790 C791 1.369 1_545 S
C790 C794 1.531 1_545 S
C791 C790 1.369 1_565 S
C791 C792 1.410 1_565 S
C791 C799 1.503 . S
C792 C791 1.410 1_545 S
C792 C793 1.392 . S
C792 C795 1.511 1_545 S
C793 C789 1.376 . S
C793 C792 1.392 . S
C793 H805 0.929 . S
C794 C790 1.531 1_565 S
C794 H806 0.960 . S
C794 H807 0.962 . S
C794 H808 0.960 . S
C795 C792 1.511 1_565 S
C795 H809 0.961 1_565 S
C795 H810 0.961 . S
C795 H811 0.964 . S
C796 C797 1.370 . S
C796 C798 1.363 . S
C796 H812 0.931 . S
C797 C796 1.370 . S
C797 C801 1.408 . S
C798 C796 1.363 . S
C798 C799 1.370 . S
C798 C802 1.524 . S
C799 C791 1.503 . S
C799 C798 1.370 . S
C799 C800 1.403 . S
C800 C799 1.403 . S
C800 C801 1.404 . S
C800 C803 1.539 . S
C801 C797 1.408 . S
C801 C800 1.404 . S
C801 H813 0.930 . S
C802 C798 1.524 . S
C802 H814 0.956 . S
C802 H815 0.961 . S
C802 H816 0.961 . S
C803 C800 1.539 . S
C803 H817 0.958 . S
C803 H818 0.961 . S
C803 H819 0.960 . S
H804 C788 0.931 . S
H805 C793 0.929 . S
H806 C794 0.960 . S
H807 C794 0.962 . S
H808 C794 0.960 . S
H809 C795 0.961 1_545 S
H810 C795 0.961 . S
H811 C795 0.964 . S
H812 C796 0.931 . S
H813 C801 0.930 . S
H814 C802 0.956 . S
H815 C802 0.961 . S
H816 C802 0.961 . S
H817 C803 0.958 . S
H818 C803 0.961 . S
H819 C803 0.960 . S
C820 C821 1.391 . S
C820 C822 1.394 1_545 S
C820 H836 0.931 . S
C821 C820 1.391 . S
C821 C825 1.376 . S
C822 C820 1.394 1_565 S
C822 C823 1.369 . S
C822 C826 1.531 . S
C823 C822 1.369 . S
C823 C824 1.410 1_565 S
C823 C831 1.503 . S
C824 C823 1.410 1_545 S
C824 C825 1.392 . S
C824 C827 1.511 . S
C825 C821 1.376 . S
C825 C824 1.392 . S
C825 H837 0.929 . S
C826 C822 1.531 . S
C826 H838 0.960 . S
C826 H839 0.962 . S
C826 H840 0.960 . S
C827 C824 1.511 . S
C827 H841 0.961 . S
C827 H842 0.961 1_545 S
C827 H843 0.961 . S
C828 C829 1.370 . S
C828 C830 1.363 . S
C828 H844 0.931 . S
C829 C828 1.370 . S
C829 C833 1.408 . S
C830 C828 1.363 . S
C830 C831 1.370 . S
C830 C834 1.524 . S
C831 C823 1.503 . S
C831 C830 1.370 . S
C831 C832 1.403 . S
C832 C831 1.403 . S
C832 C833 1.404 . S
C832 C835 1.539 . S
C833 C829 1.408 . S
C833 C832 1.404 . S
C833 H845 0.930 . S
C834 C830 1.524 . S
C834 H846 0.956 . S
C834 H847 0.961 . S
C834 H848 0.961 . S
C835 C832 1.539 . S
C835 H849 0.958 . S
C835 H850 0.961 . S
C835 H851 0.960 . S
H836 C820 0.931 . S
H837 C825 0.929 . S
H838 C826 0.960 . S
H839 C826 0.962 . S
H840 C826 0.960 . S
H841 C827 0.961 . S
H842 C827 0.961 1_565 S
H843 C827 0.961 . S
H844 C828 0.931 . S
H845 C833 0.930 . S
H846 C834 0.956 . S
H847 C834 0.961 . S
H848 C834 0.961 . S
H849 C835 0.958 . S
H850 C835 0.961 . S
H851 C835 0.960 . S
C852 C853 1.391 . S
C852 C854 1.394 . S
C852 H868 0.931 . S
C853 C852 1.391 . S
C853 C857 1.376 . S
C854 C852 1.394 . S
C854 C855 1.369 . S
C854 C858 1.531 1_565 S
C855 C854 1.369 . S
C855 C856 1.410 . S
C855 C863 1.503 1_565 S
C856 C855 1.410 . S
C856 C857 1.392 . S
C856 C859 1.511 . S
C857 C853 1.376 . S
C857 C856 1.392 . S
C857 H869 0.929 . S
C858 C854 1.531 1_545 S
C858 H870 0.960 . S
C858 H871 0.962 . S
C858 H872 0.960 1_545 S
C859 C856 1.511 . S
C859 H873 0.961 . S
C859 H874 0.961 1_565 S
C859 H875 0.961 . S
C860 C861 1.370 . S
C860 C862 1.363 . S
C860 H876 0.931 . S
C861 C860 1.370 . S
C861 C865 1.408 . S
C862 C860 1.363 . S
C862 C863 1.370 . S
C862 C866 1.524 . S
C863 C855 1.503 1_545 S
C863 C862 1.370 . S
C863 C864 1.403 . S
C864 C863 1.403 . S
C864 C865 1.404 . S
C864 C867 1.539 . S
C865 C861 1.408 . S
C865 C864 1.404 . S
C865 H877 0.930 . S
C866 C862 1.524 . S
C866 H878 0.956 . S
C866 H879 0.961 . S
C866 H880 0.961 . S
C867 C864 1.539 . S
C867 H881 0.958 . S
C867 H882 0.961 . S
C867 H883 0.960 1_545 S
H868 C852 0.931 . S
H869 C857 0.929 . S
H870 C858 0.960 . S
H871 C858 0.962 . S
H872 C858 0.960 1_565 S
H873 C859 0.961 . S
H874 C859 0.961 1_545 S
H875 C859 0.961 . S
H876 C860 0.931 . S
H877 C865 0.930 . S
H878 C866 0.956 . S
H879 C866 0.961 . S
H880 C866 0.961 . S
H881 C867 0.958 . S
H882 C867 0.961 . S
H883 C867 0.960 1_565 S
C884 C885 1.391 . S
C884 C886 1.394 . S
C884 H900 0.931 . S
C885 C884 1.391 . S
C885 C889 1.376 . S
C886 C884 1.394 . S
C886 C887 1.369 . S
C886 C890 1.531 . S
C887 C886 1.369 . S
C887 C888 1.410 . S
C887 C895 1.503 . S
C888 C887 1.410 . S
C888 C889 1.392 . S
C888 C891 1.511 . S
C889 C885 1.376 . S
C889 C888 1.392 . S
C889 H901 0.929 . S
C890 C886 1.531 . S
C890 H902 0.960 . S
C890 H903 0.962 . S
C890 H904 0.960 . S
C891 C888 1.511 . S
C891 H905 0.961 . S
C891 H906 0.961 . S
C891 H907 0.961 . S
C892 C893 1.370 . S
C892 C894 1.363 . S
C892 H908 0.931 . S
C893 C892 1.370 . S
C893 C897 1.408 . S
C894 C892 1.363 . S
C894 C895 1.370 . S
C894 C898 1.524 . S
C895 C887 1.503 . S
C895 C894 1.370 . S
C895 C896 1.403 . S
C896 C895 1.403 . S
C896 C897 1.404 . S
C896 C899 1.539 . S
C897 C893 1.408 . S
C897 C896 1.404 . S
C897 H909 0.930 . S
C898 C894 1.524 . S
C898 H910 0.956 . S
C898 H911 0.961 . S
C898 H912 0.961 . S
C899 C896 1.539 . S
C899 H913 0.958 . S
C899 H914 0.961 . S
C899 H915 0.960 . S
H900 C884 0.931 . S
H901 C889 0.929 . S
H902 C890 0.960 . S
H903 C890 0.962 . S
H904 C890 0.960 . S
H905 C891 0.961 . S
H906 C891 0.961 . S
H907 C891 0.961 . S
H908 C892 0.931 . S
H909 C897 0.930 . S
H910 C898 0.956 . S
H911 C898 0.961 . S
H912 C898 0.961 . S
H913 C899 0.958 . S
H914 C899 0.961 . S
H915 C899 0.960 . S
C916 C917 1.391 . S
C916 C918 1.394 . S
C916 H932 0.931 . S
C917 C916 1.391 . S
C917 C921 1.376 . S
C918 C916 1.394 . S
C918 C919 1.369 . S
C918 C922 1.531 . S
C919 C918 1.369 . S
C919 C920 1.410 . S
C919 C927 1.503 . S
C920 C919 1.410 . S
C920 C921 1.392 . S
C920 C923 1.511 . S
C921 C917 1.376 . S
C921 C920 1.392 . S
C921 H933 0.929 . S
C922 C918 1.531 . S
C922 H934 0.960 . S
C922 H935 0.962 . S
C922 H936 0.960 . S
C923 C920 1.511 . S
C923 H937 0.961 . S
C923 H938 0.961 . S
C923 H939 0.961 . S
C924 C925 1.370 . S
C924 C926 1.363 . S
C924 H940 0.931 . S
C925 C924 1.370 . S
C925 C929 1.408 . S
C926 C924 1.363 . S
C926 C927 1.370 . S
C926 C930 1.524 . S
C927 C919 1.503 . S
C927 C926 1.370 . S
C927 C928 1.403 . S
C928 C927 1.403 . S
C928 C929 1.404 . S
C928 C931 1.539 . S
C929 C925 1.408 . S
C929 C928 1.404 . S
C929 H941 0.930 . S
C930 C926 1.524 . S
C930 H942 0.956 . S
C930 H943 0.961 . S
C930 H944 0.961 . S
C931 C928 1.539 . S
C931 H945 0.958 . S
C931 H946 0.961 . S
C931 H947 0.960 . S
H932 C916 0.931 . S
H933 C921 0.929 . S
H934 C922 0.960 . S
H935 C922 0.962 . S
H936 C922 0.960 . S
H937 C923 0.961 . S
H938 C923 0.961 . S
H939 C923 0.961 . S
H940 C924 0.931 . S
H941 C929 0.930 . S
H942 C930 0.956 . S
H943 C930 0.961 . S
H944 C930 0.961 . S
H945 C931 0.958 . S
H946 C931 0.961 . S
H947 C931 0.960 . S
C948 C949 1.391 . S
C948 C950 1.394 . S
C948 H964 0.931 . S
C949 C948 1.391 . S
C949 C953 1.376 . S
C950 C948 1.394 . S
C950 C951 1.369 . S
C950 C954 1.531 . S
C951 C950 1.369 . S
C951 C952 1.410 . S
C951 C959 1.503 . S
C952 C951 1.410 . S
C952 C953 1.392 . S
C952 C955 1.511 . S
C953 C949 1.376 . S
C953 C952 1.392 . S
C953 H965 0.929 . S
C954 C950 1.531 . S
C954 H966 0.960 . S
C954 H967 0.962 . S
C954 H968 0.960 . S
C955 C952 1.511 . S
C955 H969 0.961 . S
C955 H970 0.961 . S
C955 H971 0.961 . S
C956 C957 1.370 . S
C956 C958 1.363 . S
C956 H972 0.931 . S
C957 C956 1.370 . S
C957 C961 1.408 . S
C958 C956 1.363 . S
C958 C959 1.370 . S
C958 C962 1.524 . S
C959 C951 1.503 . S
C959 C958 1.370 . S
C959 C960 1.403 . S
C960 C959 1.403 . S
C960 C961 1.404 . S
C960 C963 1.539 . S
C961 C957 1.408 . S
C961 C960 1.404 . S
C961 H973 0.930 . S
C962 C958 1.524 . S
C962 H974 0.956 . S
C962 H975 0.961 . S
C962 H976 0.961 . S
C963 C960 1.539 . S
C963 H977 0.958 . S
C963 H978 0.961 . S
C963 H979 0.960 . S
H964 C948 0.931 . S
H965 C953 0.929 . S
H966 C954 0.960 . S
H967 C954 0.962 . S
H968 C954 0.960 . S
H969 C955 0.961 . S
H970 C955 0.961 . S
H971 C955 0.961 . S
H972 C956 0.931 . S
H973 C961 0.930 . S
H974 C962 0.956 . S
H975 C962 0.961 . S
H976 C962 0.961 . S
H977 C963 0.958 . S
H978 C963 0.961 . S
H979 C963 0.960 . S
C980 C981 1.391 . S
C980 C982 1.394 . S
C980 H996 0.931 . S
C981 C980 1.391 . S
C981 C985 1.376 . S
C982 C980 1.394 . S
C982 C983 1.369 . S
C982 C986 1.531 . S
C983 C982 1.369 . S
C983 C984 1.410 . S
C983 C991 1.503 . S
C984 C983 1.410 . S
C984 C985 1.392 . S
C984 C987 1.511 . S
C985 C981 1.376 . S
C985 C984 1.392 . S
C985 H997 0.929 . S
C986 C982 1.531 . S
C986 H998 0.960 . S
C986 H999 0.962 . S
C986 H1000 0.960 . S
C987 C984 1.511 . S
C987 H1001 0.961 . S
C987 H1002 0.961 . S
C987 H1003 0.961 . S
C988 C989 1.370 . S
C988 C990 1.363 . S
C988 H1004 0.931 . S
C989 C988 1.370 . S
C989 C993 1.408 . S
C990 C988 1.363 . S
C990 C991 1.370 . S
C990 C994 1.524 . S
C991 C983 1.503 . S
C991 C990 1.370 . S
C991 C992 1.403 . S
C992 C991 1.403 . S
C992 C993 1.404 . S
C992 C995 1.539 . S
C993 C989 1.408 . S
C993 C992 1.404 . S
C993 H1005 0.930 . S
C994 C990 1.524 . S
C994 H1006 0.956 . S
C994 H1007 0.961 . S
C994 H1008 0.961 . S
C995 C992 1.539 . S
C995 H1009 0.958 . S
C995 H1010 0.961 . S
C995 H1011 0.960 . S
H996 C980 0.931 . S
H997 C985 0.929 . S
H998 C986 0.960 . S
H999 C986 0.962 . S
H1000 C986 0.960 . S
H1001 C987 0.961 . S
H1002 C987 0.961 . S
H1003 C987 0.961 . S
H1004 C988 0.931 . S
H1005 C993 0.930 . S
H1006 C994 0.956 . S
H1007 C994 0.961 . S
H1008 C994 0.961 . S
H1009 C995 0.958 . S
H1010 C995 0.961 . S
H1011 C995 0.960 . S
C1012 C1013 1.391 . S
C1012 C1014 1.394 . S
C1012 H1028 0.931 1_455 S
C1013 C1012 1.391 . S
C1013 C1017 1.376 . S
C1014 C1012 1.394 . S
C1014 C1015 1.369 . S
C1014 C1018 1.531 1_455 S
C1015 C1014 1.369 . S
C1015 C1016 1.410 . S
C1015 C1023 1.503 . S
C1016 C1015 1.410 . S
C1016 C1017 1.392 . S
C1016 C1019 1.511 . S
C1017 C1013 1.376 . S
C1017 C1016 1.392 . S
C1017 H1029 0.929 . S
C1018 C1014 1.531 1_655 S
C1018 H1030 0.960 1_655 S
C1018 H1031 0.962 . S
C1018 H1032 0.961 . S
C1019 C1016 1.511 . S
C1019 H1033 0.961 . S
C1019 H1034 0.961 . S
C1019 H1035 0.961 . S
C1020 C1021 1.370 . S
C1020 C1022 1.363 . S
C1020 H1036 0.931 . S
C1021 C1020 1.370 . S
C1021 C1025 1.408 . S
C1022 C1020 1.363 . S
C1022 C1023 1.370 . S
C1022 C1026 1.524 . S
C1023 C1015 1.503 . S
C1023 C1022 1.370 . S
C1023 C1024 1.403 . S
C1024 C1023 1.403 . S
C1024 C1025 1.404 . S
C1024 C1027 1.539 . S
C1025 C1021 1.408 . S
C1025 C1024 1.404 . S
C1025 H1037 0.930 . S
C1026 C1022 1.524 . S
C1026 H1038 0.956 . S
C1026 H1039 0.961 . S
C1026 H1040 0.961 . S
C1027 C1024 1.539 . S
C1027 H1041 0.958 . S
C1027 H1042 0.961 . S
C1027 H1043 0.960 . S
H1028 C1012 0.931 1_655 S
H1029 C1017 0.929 . S
H1030 C1018 0.960 1_455 S
H1031 C1018 0.962 . S
H1032 C1018 0.961 . S
H1033 C1019 0.961 . S
H1034 C1019 0.961 . S
H1035 C1019 0.961 . S
H1036 C1020 0.931 . S
H1037 C1025 0.930 . S
H1038 C1026 0.956 . S
H1039 C1026 0.961 . S
H1040 C1026 0.961 . S
H1041 C1027 0.958 . S
H1042 C1027 0.961 . S
H1043 C1027 0.960 . S
C1044 C1045 1.391 . S
C1044 C1046 1.394 . S
C1044 H1060 0.931 . S
C1045 C1044 1.391 . S
C1045 C1049 1.376 . S
C1046 C1044 1.394 . S
C1046 C1047 1.369 . S
C1046 C1050 1.531 . S
C1047 C1046 1.369 . S
C1047 C1048 1.410 . S
C1047 C1055 1.503 . S
C1048 C1047 1.410 . S
C1048 C1049 1.392 . S
C1048 C1051 1.511 . S
C1049 C1045 1.376 . S
C1049 C1048 1.392 . S
C1049 H1061 0.929 . S
C1050 C1046 1.531 . S
C1050 H1062 0.960 . S
C1050 H1063 0.962 . S
C1050 H1064 0.960 . S
C1051 C1048 1.511 . S
C1051 H1065 0.961 . S
C1051 H1066 0.961 . S
C1051 H1067 0.961 . S
C1052 C1053 1.370 . S
C1052 C1054 1.363 . S
C1052 H1068 0.931 . S
C1053 C1052 1.370 . S
C1053 C1057 1.408 . S
C1054 C1052 1.363 . S
C1054 C1055 1.370 . S
C1054 C1058 1.524 . S
C1055 C1047 1.503 . S
C1055 C1054 1.370 . S
C1055 C1056 1.403 . S
C1056 C1055 1.403 . S
C1056 C1057 1.404 . S
C1056 C1059 1.539 . S
C1057 C1053 1.408 . S
C1057 C1056 1.404 . S
C1057 H1069 0.930 . S
C1058 C1054 1.524 . S
C1058 H1070 0.956 . S
C1058 H1071 0.961 . S
C1058 H1072 0.961 . S
C1059 C1056 1.539 . S
C1059 H1073 0.958 . S
C1059 H1074 0.961 . S
C1059 H1075 0.960 . S
H1060 C1044 0.931 . S
H1061 C1049 0.929 . S
H1062 C1050 0.960 . S
H1063 C1050 0.962 . S
H1064 C1050 0.960 . S
H1065 C1051 0.961 . S
H1066 C1051 0.961 . S
H1067 C1051 0.961 . S
H1068 C1052 0.931 . S
H1069 C1057 0.930 . S
H1070 C1058 0.956 . S
H1071 C1058 0.961 . S
H1072 C1058 0.961 . S
H1073 C1059 0.958 . S
H1074 C1059 0.961 . S
H1075 C1059 0.960 . S
C1076 C1077 1.391 . S
C1076 C1078 1.394 . S
C1076 H1092 0.931 . S
C1077 C1076 1.391 . S
C1077 C1081 1.376 . S
C1078 C1076 1.394 . S
C1078 C1079 1.369 . S
C1078 C1082 1.531 . S
C1079 C1078 1.369 . S
C1079 C1080 1.410 . S
C1079 C1087 1.503 . S
C1080 C1079 1.410 . S
C1080 C1081 1.392 . S
C1080 C1083 1.511 . S
C1081 C1077 1.376 . S
C1081 C1080 1.392 . S
C1081 H1093 0.929 . S
C1082 C1078 1.531 . S
C1082 H1094 0.960 . S
C1082 H1095 0.962 . S
C1082 H1096 0.960 . S
C1083 C1080 1.511 . S
C1083 H1097 0.961 . S
C1083 H1098 0.961 . S
C1083 H1099 0.961 . S
C1084 C1085 1.370 . S
C1084 C1086 1.363 . S
C1084 H1100 0.931 . S
C1085 C1084 1.370 . S
C1085 C1089 1.408 . S
C1086 C1084 1.363 . S
C1086 C1087 1.370 . S
C1086 C1090 1.524 . S
C1087 C1079 1.503 . S
C1087 C1086 1.370 . S
C1087 C1088 1.403 . S
C1088 C1087 1.403 . S
C1088 C1089 1.404 . S
C1088 C1091 1.539 . S
C1089 C1085 1.408 . S
C1089 C1088 1.404 . S
C1089 H1101 0.930 . S
C1090 C1086 1.524 . S
C1090 H1102 0.956 . S
C1090 H1103 0.961 . S
C1090 H1104 0.961 . S
C1091 C1088 1.539 . S
C1091 H1105 0.958 . S
C1091 H1106 0.961 . S
C1091 H1107 0.960 . S
H1092 C1076 0.931 . S
H1093 C1081 0.929 . S
H1094 C1082 0.960 . S
H1095 C1082 0.962 . S
H1096 C1082 0.960 . S
H1097 C1083 0.961 . S
H1098 C1083 0.961 . S
H1099 C1083 0.961 . S
H1100 C1084 0.931 . S
H1101 C1089 0.930 . S
H1102 C1090 0.956 . S
H1103 C1090 0.961 . S
H1104 C1090 0.961 . S
H1105 C1091 0.958 . S
H1106 C1091 0.961 . S
H1107 C1091 0.960 . S
C1108 C1109 1.391 . S
C1108 C1110 1.394 . S
C1108 H1124 0.931 . S
C1109 C1108 1.391 . S
C1109 C1113 1.376 . S
C1110 C1108 1.394 . S
C1110 C1111 1.369 . S
C1110 C1114 1.531 . S
C1111 C1110 1.369 . S
C1111 C1112 1.410 . S
C1111 C1119 1.503 . S
C1112 C1111 1.410 . S
C1112 C1113 1.392 . S
C1112 C1115 1.511 . S
C1113 C1109 1.376 . S
C1113 C1112 1.392 . S
C1113 H1125 0.929 . S
C1114 C1110 1.531 . S
C1114 H1126 0.960 . S
C1114 H1127 0.962 . S
C1114 H1128 0.960 . S
C1115 C1112 1.511 . S
C1115 H1129 0.961 . S
C1115 H1130 0.961 . S
C1115 H1131 0.961 . S
C1116 C1117 1.370 . S
C1116 C1118 1.363 . S
C1116 H1132 0.931 . S
C1117 C1116 1.370 . S
C1117 C1121 1.408 . S
C1118 C1116 1.363 . S
C1118 C1119 1.370 . S
C1118 C1122 1.524 . S
C1119 C1111 1.503 . S
C1119 C1118 1.370 . S
C1119 C1120 1.403 . S
C1120 C1119 1.403 . S
C1120 C1121 1.404 . S
C1120 C1123 1.539 . S
C1121 C1117 1.408 . S
C1121 C1120 1.404 . S
C1121 H1133 0.930 . S
C1122 C1118 1.524 . S
C1122 H1134 0.956 . S
C1122 H1135 0.961 . S
C1122 H1136 0.961 . S
C1123 C1120 1.539 . S
C1123 H1137 0.958 . S
C1123 H1138 0.961 . S
C1123 H1139 0.960 . S
H1124 C1108 0.931 . S
H1125 C1113 0.929 . S
H1126 C1114 0.960 . S
H1127 C1114 0.962 . S
H1128 C1114 0.960 . S
H1129 C1115 0.961 . S
H1130 C1115 0.961 . S
H1131 C1115 0.961 . S
H1132 C1116 0.931 . S
H1133 C1121 0.930 . S
H1134 C1122 0.956 . S
H1135 C1122 0.961 . S
H1136 C1122 0.961 . S
H1137 C1123 0.958 . S
H1138 C1123 0.961 . S
H1139 C1123 0.960 . S
C381 C295 1.490 . S
C373 C1 1.680 . S
C413 C313 1.293 . S
C405 C61 1.395 . S
C437 C97 1.394 . S
C445 C337 1.302 . S
C477 C367 1.301 . S
C469 C109 1.440 . S
C509 C355 1.307 . S
C501 C145 1.375 . S
C533 C205 1.397 . S
C541 C308 1.318 . S
C565 C241 1.623 . S
C573 C328 1.495 . S
C597 C253 1.474 . S
C605 C333 1.344 . S
C629 C277 1.389 . S
C637 C349 1.307 . S
C661 C181 1.467 . S
C669 C304 1.340 . S
C701 C371 1.309 . S
C693 C133 1.389 . S
C733 C316 1.311 . S
C725 C37 1.464 . S
C757 C73 1.664 . S
C765 C334 1.498 . S
C789 C25 1.423 . S
C797 C292 1.325 . S
C829 C312 1.338 . S
C821 C217 1.414 . S
C861 C358 1.519 . S
C853 C169 1.600 . S
C893 C354 1.334 . S
C885 C31 1.516 1_556 S
C925 C307 1.363 . S
C917 C67 1.450 . S
C949 C103 1.496 . S
C957 C329 1.283 . S
C981 C139 1.468 . S
C989 C350 1.376 . S
C1021 C291 1.351 . S
C1013 C175 1.478 1_554 S
C1045 C211 1.485 . S
C1053 C325 1.388 . S
C1085 C346 1.332 . S
C1077 C247 1.489 . S
C1117 C370 1.363 . S
C1109 C283 1.461 . S
