# Generated by pormake.
# Topology wbl, (4,4)-cn, num edge types: 1
# Building blocks:
#     Node 0, Type 0, BuildingBlock: MUDLON_clean_linker_0, # of connection points: 4
#     Node 1, Type 0, BuildingBlock: MUDLON_clean_linker_0, # of connection points: 4
#     Node 2, Type 0, BuildingBlock: MUDLON_clean_linker_0, # of connection points: 4
#     Node 3, Type 0, BuildingBlock: MUDLON_clean_linker_0, # of connection points: 4
#     Node 4, Type 0, BuildingBlock: MUDLON_clean_linker_0, # of connection points: 4
#     Node 5, Type 0, BuildingBlock: MUDLON_clean_linker_0, # of connection points: 4
#     Node 6, Type 0, BuildingBlock: MUDLON_clean_linker_0, # of connection points: 4
#     Node 7, Type 0, BuildingBlock: MUDLON_clean_linker_0, # of connection points: 4
#     Node 8, Type 1, BuildingBlock: QUQFOY_clean_sbu_3, # of connection points: 4
#     Node 9, Type 1, BuildingBlock: QUQFOY_clean_sbu_3, # of connection points: 4
#     Node 10, Type 1, BuildingBlock: QUQFOY_clean_sbu_3, # of connection points: 4
#     Node 11, Type 1, BuildingBlock: QUQFOY_clean_sbu_3, # of connection points: 4
#     Node 12, Type 1, BuildingBlock: QUQFOY_clean_sbu_3, # of connection points: 4
#     Node 13, Type 1, BuildingBlock: QUQFOY_clean_sbu_3, # of connection points: 4
#     Node 14, Type 1, BuildingBlock: QUQFOY_clean_sbu_3, # of connection points: 4
#     Node 15, Type 1, BuildingBlock: QUQFOY_clean_sbu_3, # of connection points: 4
#     Edge 16, Type (0, 1), BuildingBlock: XIVTED_clean_linker_0, # of connection points: 2
#     Edge 17, Type (0, 1), BuildingBlock: XIVTED_clean_linker_0, # of connection points: 2
#     Edge 18, Type (0, 1), BuildingBlock: XIVTED_clean_linker_0, # of connection points: 2
#     Edge 19, Type (0, 1), BuildingBlock: XIVTED_clean_linker_0, # of connection points: 2
#     Edge 20, Type (0, 1), BuildingBlock: XIVTED_clean_linker_0, # of connection points: 2
#     Edge 21, Type (0, 1), BuildingBlock: XIVTED_clean_linker_0, # of connection points: 2
#     Edge 22, Type (0, 1), BuildingBlock: XIVTED_clean_linker_0, # of connection points: 2
#     Edge 23, Type (0, 1), BuildingBlock: XIVTED_clean_linker_0, # of connection points: 2
#     Edge 24, Type (0, 1), BuildingBlock: XIVTED_clean_linker_0, # of connection points: 2
#     Edge 25, Type (0, 1), BuildingBlock: XIVTED_clean_linker_0, # of connection points: 2
#     Edge 26, Type (0, 1), BuildingBlock: XIVTED_clean_linker_0, # of connection points: 2
#     Edge 27, Type (0, 1), BuildingBlock: XIVTED_clean_linker_0, # of connection points: 2
#     Edge 28, Type (0, 1), BuildingBlock: XIVTED_clean_linker_0, # of connection points: 2
#     Edge 29, Type (0, 1), BuildingBlock: XIVTED_clean_linker_0, # of connection points: 2
#     Edge 30, Type (0, 1), BuildingBlock: XIVTED_clean_linker_0, # of connection points: 2
#     Edge 31, Type (0, 1), BuildingBlock: XIVTED_clean_linker_0, # of connection points: 2
#     Edge 32, Type (0, 1), BuildingBlock: XIVTED_clean_linker_0, # of connection points: 2
#     Edge 33, Type (0, 1), BuildingBlock: XIVTED_clean_linker_0, # of connection points: 2
#     Edge 34, Type (0, 1), BuildingBlock: XIVTED_clean_linker_0, # of connection points: 2
#     Edge 35, Type (0, 1), BuildingBlock: XIVTED_clean_linker_0, # of connection points: 2
#     Edge 36, Type (0, 1), BuildingBlock: XIVTED_clean_linker_0, # of connection points: 2
#     Edge 37, Type (0, 1), BuildingBlock: XIVTED_clean_linker_0, # of connection points: 2
#     Edge 38, Type (0, 1), BuildingBlock: XIVTED_clean_linker_0, # of connection points: 2
#     Edge 39, Type (0, 1), BuildingBlock: XIVTED_clean_linker_0, # of connection points: 2
#     Edge 40, Type (0, 1), BuildingBlock: XIVTED_clean_linker_0, # of connection points: 2
#     Edge 41, Type (0, 1), BuildingBlock: XIVTED_clean_linker_0, # of connection points: 2
#     Edge 42, Type (0, 1), BuildingBlock: XIVTED_clean_linker_0, # of connection points: 2
#     Edge 43, Type (0, 1), BuildingBlock: XIVTED_clean_linker_0, # of connection points: 2
#     Edge 44, Type (0, 1), BuildingBlock: XIVTED_clean_linker_0, # of connection points: 2
#     Edge 45, Type (0, 1), BuildingBlock: XIVTED_clean_linker_0, # of connection points: 2
#     Edge 46, Type (0, 1), BuildingBlock: XIVTED_clean_linker_0, # of connection points: 2
#     Edge 47, Type (0, 1), BuildingBlock: XIVTED_clean_linker_0, # of connection points: 2
# Relax obj value: 0.125
# Max RMSD: 0.148
# Mean RMSD: 0.132
data_MOF--net-wbl--node1-QUQFOY_clean_sbu_3--node2-MUDLON_clean_linker_0--edge1-XIVTED_clean_linker_0
_symmetry_space_group_name_H-M    P1
_symmetry_Int_Tables_number       1
_symmetry_cell_setting            triclinic
loop_
_symmetry_equiv_pos_as_xyz
'x, y, z'
_cell_length_a     54.130627
_cell_length_b     54.61645
_cell_length_c     77.234098
_cell_angle_alpha  90.73722
_cell_angle_beta   90.294736
_cell_angle_gamma 89.994179
loop_
_atom_site_label
_atom_site_type_symbol
_atom_site_fract_x
_atom_site_fract_y
_atom_site_fract_z
_atom_type_partial_charge
H0 H 0.11677 0.94479 0.31136 0.0
N1 N 0.07365 0.93883 0.29264 0.0
H2 H 0.12357 0.9341 0.34148 0.0
H3 H 0.04153 0.9191 0.31444 0.0
H4 H 0.0482 0.90903 0.34505 0.0
H5 H 0.08059 0.89576 0.27712 0.0
H6 H 0.11715 0.88193 0.26125 0.0
H7 H 0.11194 0.96819 0.28159 0.0
H8 H 0.14848 0.95447 0.26649 0.0
H9 H 0.08963 0.98316 0.3055 0.0
H10 H 0.03116 0.9478 0.27652 0.0
H11 H 0.06714 0.02166 0.30487 0.0
H12 H 0.00769 0.98612 0.27663 0.0
H13 H 0.97629 0.13304 0.31918 0.0
H14 H 0.96242 0.14059 0.34898 0.0
H15 H 0.9361 0.06598 0.35136 0.0
H16 H 0.95074 0.05845 0.32206 0.0
H17 H 0.93656 0.05711 0.29368 0.0
H18 H 0.89667 0.0645 0.28003 0.0
H19 H 0.91895 0.1386 0.26888 0.0
H20 H 0.95874 0.1312 0.28314 0.0
H21 H 0.00701 0.07377 0.32265 0.0
H22 H 0.03265 0.03804 0.31889 0.0
H23 H 0.00387 0.02763 0.26706 0.0
N24 N 0.97224 0.09169 0.30058 0.0
H25 H 0.97725 0.06304 0.271 0.0
C26 C 0.07861 0.93229 0.31042 0.0
C27 C 0.10173 0.93661 0.31838 0.0
C28 C 0.10565 0.93053 0.33567 0.0
C29 C 0.08646 0.92061 0.34551 0.0
C30 C 0.06329 0.91665 0.3377 0.0
C31 C 0.05949 0.92229 0.32027 0.0
C32 C 0.09333 0.9329 0.2807 0.0
C33 C 0.0951 0.90879 0.2744 0.0
C34 C 0.11612 0.90088 0.26549 0.0
C35 C 0.13598 0.91698 0.26278 0.0
C36 C 0.13352 0.94157 0.26815 0.0
C37 C 0.11244 0.94948 0.27695 0.0
C38 C 0.06212 0.96253 0.29089 0.0
C39 C 0.07207 0.98373 0.29877 0.0
C40 C 0.05897 0.00575 0.2986 0.0
C41 C 0.03538 0.00701 0.2909 0.0
C42 C 0.02588 0.98597 0.28252 0.0
C43 C 0.03919 0.96401 0.28249 0.0
C44 C 0.9646 0.09529 0.31837 0.0
C45 C 0.96768 0.11835 0.32625 0.0
C46 C 0.95958 0.12264 0.34319 0.0
C47 C 0.94817 0.10387 0.35256 0.0
C48 C 0.94513 0.08074 0.34463 0.0
C49 C 0.95324 0.07648 0.32775 0.0
C50 C 0.95071 0.09372 0.28951 0.0
C51 C 0.93306 0.07484 0.28811 0.0
C52 C 0.91025 0.07906 0.28015 0.0
C53 C 0.9045 0.10223 0.27349 0.0
C54 C 0.92265 0.12066 0.27411 0.0
C55 C 0.94548 0.11641 0.28206 0.0
C56 C 0.98812 0.07035 0.29778 0.0
C57 C 0.00546 0.06359 0.31057 0.0
C58 C 0.0207 0.04326 0.30827 0.0
C59 C 0.02006 0.02956 0.29277 0.0
C60 C 0.00422 0.03724 0.27941 0.0
C61 C 0.98876 0.05756 0.28176 0.0
H62 H 0.95673 0.41861 0.56115 0.0
N63 N 0.93349 0.45501 0.54297 0.0
H64 H 0.95063 0.40875 0.59137 0.0
H65 H 0.9045 0.47797 0.56566 0.0
H66 H 0.89826 0.46809 0.59627 0.0
H67 H 0.88926 0.44634 0.5294 0.0
H68 H 0.87532 0.40906 0.51446 0.0
H69 H 0.96364 0.41822 0.53048 0.0
H70 H 0.94982 0.3806 0.51656 0.0
H71 H 0.98304 0.44639 0.54857 0.0
H72 H 0.93096 0.4985 0.52816 0.0
H73 H 0.01657 0.47496 0.5439 0.0
H74 H 0.96483 0.52748 0.52337 0.0
H75 H 0.09992 0.54618 0.56266 0.0
H76 H 0.10714 0.55912 0.59286 0.0
H77 H 0.06359 0.62411 0.58428 0.0
H78 H 0.05618 0.6111 0.5545 0.0
H79 H 0.04447 0.60459 0.52374 0.0
H80 H 0.05813 0.64117 0.50915 0.0
H81 H 0.13316 0.61397 0.50967 0.0
H82 H 0.11934 0.57783 0.52523 0.0
H83 H 0.07533 0.52547 0.52422 0.0
H84 H 0.04074 0.4966 0.52183 0.0
H85 H 0.99186 0.5517 0.54306 0.0
N86 N 0.07493 0.56999 0.53833 0.0
H87 H 0.02625 0.58028 0.54529 0.0
C88 C 0.93112 0.44925 0.56107 0.0
C89 C 0.94416 0.42979 0.56864 0.0
C90 C 0.94069 0.42415 0.58602 0.0
C91 C 0.92402 0.43768 0.59622 0.0
C92 C 0.91109 0.45721 0.58869 0.0
C93 C 0.91471 0.46296 0.57129 0.0
C94 C 0.92734 0.43509 0.53128 0.0
C95 C 0.90265 0.43229 0.52614 0.0
C96 C 0.89469 0.41084 0.5178 0.0
C97 C 0.91131 0.3915 0.51461 0.0
C98 C 0.93645 0.39506 0.51869 0.0
C99 C 0.94442 0.41667 0.52684 0.0
C100 C 0.95428 0.47025 0.53864 0.0
C101 C 0.97875 0.46374 0.54273 0.0
C102 C -0.00193 0.48016 0.54 0.0
C103 C 0.99338 0.50351 0.53326 0.0
C104 C 0.96901 0.5097 0.5287 0.0
C105 C 0.9497 0.49316 0.53133 0.0
C106 C 0.07788 0.5777 0.55618 0.0
C107 C 0.09185 0.56313 0.56738 0.0
C108 C 0.09586 0.57048 0.58458 0.0
C109 C 0.08609 0.59272 0.59082 0.0
C110 C 0.07164 0.60707 0.57972 0.0
C111 C 0.0674 0.59958 0.56263 0.0
C112 C 0.08101 0.58852 0.5259 0.0
C113 C 0.06376 0.60612 0.52044 0.0
C114 C 0.07166 0.62714 0.51194 0.0
C115 C 0.09689 0.63087 0.5085 0.0
C116 C 0.1137 0.61209 0.51252 0.0
C117 C 0.10581 0.59126 0.52122 0.0
C118 C 0.0535 0.55499 0.53488 0.0
C119 C 0.05702 0.53141 0.528 0.0
C120 C 0.03731 0.51494 0.52676 0.0
C121 C 0.01359 0.52183 0.53235 0.0
C122 C 0.00983 0.5459 0.53846 0.0
C123 C 0.02958 0.56231 0.53977 0.0
H124 H 0.60191 0.5115 0.82655 0.0
N125 N 0.59143 0.48327 0.79923 0.0
H126 H 0.60786 0.49893 0.8566 0.0
H127 H 0.58851 0.43638 0.81148 0.0
H128 H 0.59345 0.4238 0.84136 0.0
H129 H 0.5836 0.44091 0.78042 0.0
H130 H 0.61441 0.41947 0.76272 0.0
H131 H 0.63525 0.49961 0.78999 0.0
H132 H 0.6661 0.47845 0.77239 0.0
H133 H 0.57545 0.52462 0.78539 0.0
H134 H 0.55071 0.45351 0.80149 0.0
H135 H 0.53259 0.53697 0.78038 0.0
H136 H 0.50812 0.46602 0.79777 0.0
H137 H 0.41881 0.57989 0.80883 0.0
H138 H 0.40957 0.59726 0.83714 0.0
H139 H 0.39458 0.52484 0.85636 0.0
H140 H 0.40432 0.50738 0.82776 0.0
H141 H 0.37327 0.51162 0.78993 0.0
H142 H 0.3411 0.52989 0.77193 0.0
H143 H 0.38944 0.5907 0.76119 0.0
H144 H 0.42191 0.57178 0.77885 0.0
H145 H 0.45675 0.56128 0.80123 0.0
H146 H 0.4993 0.54862 0.79743 0.0
H147 H 0.4745 0.47671 0.78081 0.0
N148 N 0.41594 0.53139 0.79917 0.0
H149 H 0.43178 0.48924 0.78595 0.0
C150 C 0.59477 0.47503 0.81676 0.0
C151 C 0.60013 0.49233 0.82976 0.0
C152 C 0.60334 0.48511 0.84692 0.0
C153 C 0.60108 0.46032 0.85144 0.0
C154 C 0.59569 0.44298 0.83834 0.0
C155 C 0.59266 0.45021 0.82119 0.0
C156 C 0.6073 0.47185 0.7866 0.0
C157 C 0.60142 0.44938 0.77848 0.0
C158 C 0.61907 0.4371 0.76841 0.0
C159 C 0.64274 0.44721 0.76618 0.0
C160 C 0.64798 0.47028 0.77361 0.0
C161 C 0.63044 0.48239 0.78373 0.0
C162 C 0.56634 0.4884 0.7941 0.0
C163 C 0.56075 0.51162 0.78769 0.0
C164 C 0.53622 0.5187 0.78504 0.0
C165 C 0.51669 0.50272 0.78899 0.0
C166 C 0.5225 0.47886 0.79442 0.0
C167 C 0.54704 0.47169 0.79678 0.0
C168 C 0.41221 0.54218 0.81611 0.0
C169 C 0.41373 0.56761 0.81906 0.0
C170 C 0.40826 0.57761 0.83529 0.0
C171 C 0.40111 0.56246 0.84896 0.0
C172 C 0.4002 0.53699 0.84613 0.0
C173 C 0.40568 0.52699 0.82983 0.0
C174 C 0.39974 0.54043 0.78589 0.0
C175 C 0.37714 0.5285 0.78325 0.0
C176 C 0.35885 0.53897 0.77297 0.0
C177 C 0.36274 0.56181 0.76528 0.0
C178 C 0.38592 0.57318 0.76712 0.0
C179 C 0.40445 0.5624 0.77719 0.0
C180 C 0.44102 0.52592 0.79433 0.0
C181 C 0.46034 0.54283 0.79674 0.0
C182 C 0.48485 0.53557 0.79431 0.0
C183 C 0.49056 0.51143 0.78904 0.0
C184 C 0.47097 0.4952 0.78536 0.0
C185 C 0.44651 0.50237 0.78811 0.0
H186 H 0.49011 0.88615 0.07164 0.0
N187 N 0.48799 0.92328 0.04993 0.0
H188 H 0.47053 0.88305 0.10007 0.0
H189 H 0.46069 0.95898 0.06608 0.0
H190 H 0.44172 0.95631 0.09486 0.0
H191 H 0.44016 0.92946 0.03959 0.0
H192 H 0.41606 0.90002 0.02217 0.0
H193 H 0.50585 0.88666 0.03105 0.0
H194 H 0.48219 0.85715 0.01378 0.0
H195 H 0.53463 0.93174 0.05815 0.0
H196 H 0.47217 0.96318 0.03184 0.0
H197 H 0.55891 0.96829 0.05255 0.0
H198 H 0.49668 -0.00027 0.02537 0.0
H199 H 0.63544 0.08596 0.0497 0.0
H200 H 0.64716 0.09933 0.07885 0.0
H201 H 0.57298 0.08411 0.09636 0.0
H202 H 0.56109 0.07289 0.06713 0.0
H203 H 0.56013 0.1114 0.0437 0.0
H204 H 0.56324 0.15098 0.02956 0.0
H205 H 0.61813 0.12109 0.99476 0.0
H206 H 0.61532 0.08171 0.00939 0.0
H207 H 0.60507 0.02693 0.03175 0.0
H208 H 0.57938 0.99019 0.03114 0.0
H209 H 0.51445 0.03507 0.03895 0.0
N210 N 0.59103 0.07247 0.03831 0.0
H211 H 0.54027 0.07173 0.03846 0.0
C212 C 0.47714 0.92282 0.0669 0.0
C213 C 0.4796 0.90152 0.07666 0.0
C214 C 0.46832 0.89974 0.09278 0.0
C215 C 0.45463 0.91944 0.09955 0.0
C216 C 0.4523 0.94094 0.08988 0.0
C217 C 0.46319 0.94251 0.07352 0.0
C218 C 0.47477 0.91002 0.03663 0.0
C219 C 0.4495 0.9141 0.03351 0.0
C220 C 0.43575 0.89716 0.02369 0.0
C221 C 0.44713 0.87608 0.01672 0.0
C222 C 0.47282 0.87326 0.01876 0.0
C223 C 0.48644 0.89007 0.02864 0.0
C224 C 0.50181 0.94469 0.04531 0.0
C225 C 0.52636 0.94648 0.05087 0.0
C226 C 0.54024 0.96735 0.0475 0.0
C227 C 0.52993 0.98697 0.03828 0.0
C228 C 0.50521 0.98507 0.03257 0.0
C229 C 0.49121 0.96413 0.03613 0.0
C230 C 0.59756 0.07806 0.0561 0.0
C231 C 0.62181 0.08543 0.0599 0.0
C232 C 0.62848 0.09292 0.07665 0.0
C233 C 0.61108 0.09283 0.09015 0.0
C234 C 0.58685 0.08496 0.08635 0.0
C235 C 0.58006 0.07805 0.06951 0.0
C236 C 0.5877 0.09366 0.02764 0.0
C237 C 0.57225 0.11315 0.03269 0.0
C238 C 0.57406 0.13582 0.02455 0.0
C239 C 0.59128 0.13936 0.01121 0.0
C240 C 0.60508 0.11915 0.00524 0.0
C241 C 0.60332 0.09657 0.01342 0.0
C242 C 0.57472 0.05195 0.0354 0.0
C243 C 0.58522 0.02879 0.03293 0.0
C244 C 0.57049 0.00783 0.03279 0.0
C245 C 0.54484 0.00953 0.03547 0.0
C246 C 0.53409 0.03297 0.03683 0.0
C247 C 0.54888 0.05402 0.03664 0.0
H248 H 0.0941 0.56946 0.93535 0.0
N249 N 0.05349 0.58802 0.95195 0.0
H250 H 0.1044 0.57413 0.90483 0.0
H251 H 0.02756 0.6115 0.92791 0.0
H252 H 0.03797 0.61657 0.89725 0.0
H253 H 0.0743 0.63207 0.95378 0.0
H254 H 0.11214 0.64388 0.96873 0.0
H255 H 0.0781 0.56071 0.9772 0.0
H256 H 0.11508 0.57281 0.99264 0.0
H257 H 0.06948 0.54043 0.94878 0.0
H258 H 0.0069 0.58531 0.96247 0.0
H259 H 0.04464 0.50377 0.95192 0.0
H260 H 0.98133 0.54855 0.96492 0.0
H261 H 0.94769 0.39441 0.9393 0.0
H262 H 0.93496 0.38329 0.90971 0.0
H263 H 0.91648 0.45891 0.90016 0.0
H264 H 0.92953 0.46986 0.92953 0.0
H265 H 0.9077 0.47074 0.95602 0.0
H266 H 0.8684 0.4638 0.97043 0.0
H267 H 0.89676 0.39629 0.99127 0.0
H268 H 0.93608 0.40325 0.97649 0.0
H269 H 0.98687 0.44783 0.93543 0.0
H270 H 0.0134 0.48348 0.93653 0.0
H271 H 0.97247 0.51185 0.98028 0.0
N272 N 0.94654 0.43857 0.95435 0.0
H273 H 0.9453 0.47663 0.97884 0.0
C274 C 0.05984 0.58999 0.93387 0.0
C275 C 0.08151 0.5794 0.92709 0.0
C276 C 0.08742 0.58213 0.90964 0.0
C277 C 0.07197 0.59568 0.89866 0.0
C278 C 0.05031 0.60619 0.90545 0.0
C279 C 0.04428 0.60324 0.92288 0.0
C280 C 0.07354 0.59518 0.96355 0.0
C281 C 0.083 0.61906 0.96235 0.0
C282 C 0.10462 0.62587 0.97107 0.0
C283 C 0.11711 0.60913 0.98167 0.0
C284 C 0.1065 0.58591 0.9841 0.0
C285 C 0.08507 0.57894 0.97513 0.0
C286 C 0.04006 0.56578 0.9555 0.0
C287 C 0.05037 0.54244 0.95251 0.0
C288 C 0.03601 0.5214 0.95421 0.0
C289 C 0.01083 0.52312 0.95848 0.0
C290 C 0.00071 0.54644 0.96184 0.0
C291 C 0.01524 0.5675 0.96039 0.0
C292 C 0.93967 0.43286 0.93662 0.0
C293 C 0.941 0.40853 0.93075 0.0
C294 C 0.93358 0.40223 0.91392 0.0
C295 C 0.92472 0.42024 0.90262 0.0
C296 C 0.92349 0.44467 0.90849 0.0
C297 C 0.93077 0.45093 0.92534 0.0
C298 C 0.92493 0.43747 0.96524 0.0
C299 C 0.90565 0.45466 0.96392 0.0
C300 C 0.8832 0.45073 0.97226 0.0
C301 C 0.87942 0.42941 0.98193 0.0
C302 C 0.89903 0.41276 0.98378 0.0
C303 C 0.92155 0.4168 0.97551 0.0
C304 C 0.96271 0.45984 0.95618 0.0
C305 C 0.9832 0.46185 0.94512 0.0
C306 C -0.00128 0.48219 0.94595 0.0
C307 C 0.99491 0.50085 0.95834 0.0
C308 C 0.97547 0.49823 0.97019 0.0
C309 C 0.95971 0.47791 0.96926 0.0
H310 H 0.51582 0.37114 0.1828 0.0
N311 N 0.51953 0.40874 0.20472 0.0
H312 H 0.53565 0.36631 0.1545 0.0
H313 H 0.5481 0.44292 0.18867 0.0
H314 H 0.56778 0.43835 0.16031 0.0
H315 H 0.56651 0.42083 0.21501 0.0
H316 H 0.59395 0.39497 0.2321 0.0
H317 H 0.5063 0.37102 0.22371 0.0
H318 H 0.53358 0.34469 0.2404 0.0
H319 H 0.47338 0.41684 0.19537 0.0
H320 H 0.53482 0.45031 0.22229 0.0
H321 H 0.44995 0.45467 0.19811 0.0
H322 H 0.51107 0.48803 0.22599 0.0
H323 H 0.38028 0.57453 0.18928 0.0
H324 H 0.3733 0.58707 0.15938 0.0
H325 H 0.45038 0.57369 0.14822 0.0
H326 H 0.45735 0.56263 0.1781 0.0
H327 H 0.45773 0.59894 0.20045 0.0
H328 H 0.45639 0.63963 0.21373 0.0
H329 H 0.39384 0.61771 0.24444 0.0
H330 H 0.39501 0.57708 0.2307 0.0
H331 H 0.4053 0.5193 0.21178 0.0
H332 H 0.42846 0.48147 0.216 0.0
H333 H 0.49681 0.52143 0.20988 0.0
N334 N 0.42291 0.56305 0.20426 0.0
H335 H 0.47345 0.55927 0.20697 0.0
C336 C 0.53027 0.40737 0.18772 0.0
C337 C 0.527 0.38591 0.17787 0.0
C338 C 0.53845 0.38314 0.16182 0.0
C339 C 0.55327 0.40195 0.15526 0.0
C340 C 0.55627 0.42367 0.16501 0.0
C341 C 0.54504 0.42629 0.1812 0.0
C342 C 0.53429 0.39775 0.2181 0.0
C343 C 0.55898 0.40474 0.22107 0.0
C344 C 0.57474 0.38975 0.23069 0.0
C345 C 0.56612 0.36752 0.23743 0.0
C346 C 0.54089 0.36174 0.23559 0.0
C347 C 0.5252 0.37675 0.22603 0.0
C348 C 0.50568 0.43061 0.20868 0.0
C349 C 0.48154 0.43225 0.20228 0.0
C350 C 0.46812 0.45392 0.204 0.0
C351 C 0.47847 0.47455 0.21239 0.0
C352 C 0.50256 0.47267 0.21927 0.0
C353 C 0.51613 0.45095 0.21733 0.0
C354 C 0.41917 0.56738 0.18602 0.0
C355 C 0.39555 0.57405 0.18027 0.0
C356 C 0.39162 0.58113 0.16315 0.0
C357 C 0.4113 0.58152 0.15132 0.0
C358 C 0.43485 0.57409 0.157 0.0
C359 C 0.43882 0.56735 0.17417 0.0
C360 C 0.42629 0.58499 0.21455 0.0
C361 C 0.44419 0.60261 0.21039 0.0
C362 C 0.4434 0.62595 0.21803 0.0
C363 C 0.42475 0.63205 0.22995 0.0
C364 C 0.40813 0.61374 0.23504 0.0
C365 C 0.40891 0.59046 0.22737 0.0
C366 C 0.43751 0.54197 0.20874 0.0
C367 C 0.4253 0.51987 0.21171 0.0
C368 C 0.43862 0.49825 0.21393 0.0
C369 C 0.46458 0.49816 0.21287 0.0
C370 C 0.47688 0.52067 0.21086 0.0
C371 C 0.46349 0.54241 0.209 0.0
H372 H 0.40121 0.9646 0.43951 0.0
N373 N 0.44011 0.94876 0.45921 0.0
H374 H 0.39202 0.95278 0.40957 0.0
H375 H 0.46549 0.91796 0.43905 0.0
H376 H 0.45592 0.90546 0.40906 0.0
H377 H 0.4212 0.90583 0.46761 0.0
H378 H 0.38162 0.89793 0.48113 0.0
H379 H 0.41167 0.98334 0.47715 0.0
H380 H 0.37293 0.97547 0.4914 0.0
H381 H 0.4271 0.99535 0.44948 0.0
H382 H 0.4858 0.95247 0.47175 0.0
H383 H 0.45405 0.03075 0.4486 0.0
H384 H 0.51347 0.98791 0.47033 0.0
H385 H 0.55206 0.13235 0.42804 0.0
H386 H 0.56598 0.13829 0.39825 0.0
H387 H 0.58713 0.06202 0.39515 0.0
H388 H 0.57228 0.05613 0.42451 0.0
H389 H 0.5907 0.0575 0.4518 0.0
H390 H 0.63075 0.06518 0.46528 0.0
H391 H 0.60743 0.13857 0.47904 0.0
H392 H 0.56754 0.1309 0.46486 0.0
H393 H 0.51604 0.07609 0.42644 0.0
H394 H 0.48794 0.04255 0.43141 0.0
H395 H 0.52306 0.0291 0.4807 0.0
N396 N 0.55423 0.09152 0.44651 0.0
H397 H 0.55179 0.0623 0.47562 0.0
C398 C 0.43434 0.94238 0.44144 0.0
C399 C 0.41356 0.95208 0.43289 0.0
C400 C 0.40825 0.94525 0.41581 0.0
C401 C 0.42331 0.92829 0.40704 0.0
C402 C 0.44397 0.9185 0.41559 0.0
C403 C 0.4495 0.92565 0.43262 0.0
C404 C 0.41944 0.94512 0.47076 0.0
C405 C 0.41093 0.9211 0.47304 0.0
C406 C 0.38825 0.91662 0.48089 0.0
C407 C 0.37364 0.93611 0.48709 0.0
C408 C 0.38319 0.96004 0.48623 0.0
C409 C 0.4057 0.96457 0.47805 0.0
C410 C 0.45437 0.97107 0.46081 0.0
C411 C 0.44572 0.99352 0.45437 0.0
C412 C 0.46131 0.01382 0.45372 0.0
C413 C 0.48608 0.01212 0.45915 0.0
C414 C 0.49445 0.98996 0.46618 0.0
C415 C 0.4787 0.96967 0.46699 0.0
C416 C 0.56115 0.09393 0.42853 0.0
C417 C 0.55945 0.11693 0.4208 0.0
C418 C 0.56762 0.12029 0.40386 0.0
C419 C 0.57781 0.10065 0.39431 0.0
C420 C 0.57914 0.07749 0.40201 0.0
C421 C 0.57089 0.07413 0.41891 0.0
C422 C 0.5761 0.09376 0.45724 0.0
C423 C 0.59406 0.07514 0.45787 0.0
C424 C 0.61695 0.07952 0.46574 0.0
C425 C 0.62241 0.10259 0.47312 0.0
C426 C 0.60397 0.12073 0.47323 0.0
C427 C 0.58108 0.11633 0.46533 0.0
C428 C 0.53767 0.07105 0.44991 0.0
C429 C 0.51832 0.06567 0.43817 0.0
C430 C 0.5018 0.04664 0.44118 0.0
C431 C 0.5034 0.03286 0.45638 0.0
C432 C 0.52177 0.03889 0.46862 0.0
C433 C 0.53844 0.05795 0.46558 0.0
H434 H 0.06432 0.90677 0.69523 0.0
N435 N 0.07275 0.95246 0.70945 0.0
H436 H 0.07095 0.89417 0.66553 0.0
H437 H 0.0858 0.98056 0.68304 0.0
H438 H 0.08993 0.96879 0.65264 0.0
H439 H 0.1182 0.93498 0.71365 0.0
H440 H 0.1303 0.89777 0.7284 0.0
H441 H 0.04424 0.92771 0.73373 0.0
H442 H 0.05659 0.89163 0.74922 0.0
H443 H 0.02605 0.93501 0.70349 0.0
H444 H 0.06717 -0.00196 0.72137 0.0
H445 H 0.98776 0.95841 0.70516 0.0
H446 H 0.02897 0.02203 0.72251 0.0
H447 H 0.87599 0.05354 0.68978 0.0
H448 H 0.866 0.06757 0.66052 0.0
H449 H 0.94299 0.08458 0.65234 0.0
H450 H 0.95282 0.07021 0.6813 0.0
H451 H 0.95455 0.09126 0.70812 0.0
H452 H 0.94802 0.13215 0.72014 0.0
H453 H 0.87578 0.1104 0.73788 0.0
H454 H 0.88231 0.06945 0.72536 0.0
H455 H 0.93309 0.01572 0.68595 0.0
H456 H 0.96914 0.9899 0.68894 0.0
H457 H 0.98932 0.02848 0.73607 0.0
N458 N 0.91982 0.05479 0.70568 0.0
H459 H 0.95359 0.05486 0.73292 0.0
C460 C 0.07533 0.9446 0.69155 0.0
C461 C 0.07034 0.92038 0.68611 0.0
C462 C 0.07373 0.91326 0.66887 0.0
C463 C 0.08113 0.93033 0.65639 0.0
C464 C 0.08499 0.9548 0.66179 0.0
C465 C 0.08241 0.96172 0.67918 0.0
C466 C 0.08014 0.93398 0.72184 0.0
C467 C 0.10475 0.92582 0.72163 0.0
C468 C 0.11167 0.9045 0.7302 0.0
C469 C 0.09425 0.89113 0.73967 0.0
C470 C 0.07028 0.90081 0.74146 0.0
C471 C 0.06319 0.9218 0.73255 0.0
C472 C 0.04952 0.96484 0.71238 0.0
C473 C 0.02678 0.95387 0.70793 0.0
C474 C 0.00491 0.96736 0.70877 0.0
C475 C 0.00527 0.99222 0.71377 0.0
C476 C 0.02793 0.00287 0.71879 0.0
C477 C 0.0498 0.98926 0.7181 0.0
C478 C 0.91505 0.06072 0.68775 0.0
C479 C 0.8907 0.05996 0.68153 0.0
C480 C 0.88503 0.06817 0.66491 0.0
C481 C 0.90371 0.07727 0.65416 0.0
C482 C 0.92823 0.07744 0.66023 0.0
C483 C 0.93385 0.06936 0.67685 0.0
C484 C 0.91883 0.0772 0.71585 0.0
C485 C 0.9375 0.09509 0.71487 0.0
C486 C 0.93378 0.11849 0.72186 0.0
C487 C 0.91128 0.12461 0.72985 0.0
C488 C 0.89318 0.10635 0.73159 0.0
C489 C 0.89696 0.0829 0.72465 0.0
C490 C 0.94124 0.03895 0.70829 0.0
C491 C 0.94545 0.01916 0.69677 0.0
C492 C 0.96597 0.00398 0.69867 0.0
C493 C 0.98249 0.0074 0.71257 0.0
C494 C 0.97744 0.02589 0.72487 0.0
C495 C 0.95691 0.04121 0.72293 0.0
C496 C 0.38558 0.64027 0.02983 0.0
O497 O 0.40414 0.64054 0.01984 0.0
Cd498 Cd 0.4019 0.65076 0.98974 0.0
O499 O 0.36423 0.64616 0.02423 0.0
Cd500 Cd 0.34526 0.65992 -0.00334 0.0
C501 C 0.38183 0.71006 0.99291 0.0
O502 O 0.36645 0.63016 0.97809 0.0
O503 O 0.34565 0.658 0.96489 0.0
O504 O 0.30947 0.63545 0.00422 0.0
C505 C 0.35813 0.63839 0.96396 0.0
O506 O 0.3986 0.69511 0.98816 0.0
C507 C 0.29359 0.65222 0.00205 0.0
O508 O 0.36099 0.70229 -0.00185 0.0
O509 O 0.30176 0.6731 -0.00218 0.0
C510 C 0.40493 0.88612 0.22087 0.0
O511 O 0.42257 0.88674 0.23176 0.0
Cd512 Cd 0.41972 0.87039 0.26025 0.0
O513 O 0.38381 0.87782 0.2251 0.0
Cd514 Cd 0.36341 0.86241 0.25172 0.0
C515 C 0.39952 0.81184 0.2514 0.0
O516 O 0.38397 0.88887 0.27309 0.0
O517 O 0.3644 0.85792 0.28329 0.0
O518 O 0.32722 0.88724 0.24469 0.0
C519 C 0.37616 0.87761 0.28621 0.0
O520 O 0.41688 0.82565 0.25696 0.0
C521 C 0.31166 0.87002 0.24619 0.0
O522 O 0.37849 0.82076 0.24754 0.0
O523 O 0.32021 0.84907 0.24989 0.0
C524 C 0.12373 0.89747 0.47135 0.0
O525 O 0.12194 0.91595 0.48144 0.0
Cd526 Cd 0.13516 0.91665 0.51119 0.0
O527 O 0.13181 0.87706 0.47689 0.0
Cd528 Cd 0.14567 0.85815 0.50442 0.0
C529 C 0.19534 0.89667 0.50675 0.0
O530 O 0.11734 0.88075 0.52306 0.0
O531 O 0.14258 0.85664 0.53616 0.0
O532 O 0.12259 0.82186 0.49503 0.0
C533 C 0.12515 0.87205 0.53718 0.0
O534 O 0.18017 0.91388 0.51019 0.0
C535 C 0.14007 0.80684 0.49771 0.0
O536 O 0.18773 0.87496 0.50362 0.0
O537 O 0.16038 0.81577 0.50318 0.0
C538 C 0.12351 0.62281 0.77567 0.0
O539 O 0.12323 0.60489 0.76501 0.0
Cd540 Cd 0.13584 0.60731 0.73526 0.0
O541 O 0.13066 0.64392 0.77092 0.0
Cd542 Cd 0.14599 0.66447 0.74455 0.0
C543 C 0.19585 0.62692 0.74101 0.0
O544 O 0.11848 0.64379 0.72389 0.0
O545 O 0.1469 0.66646 0.71297 0.0
O546 O 0.12056 0.69937 0.75261 0.0
C547 C 0.12839 0.65263 0.71051 0.0
O548 O 0.18061 0.6106 0.73585 0.0
C549 C 0.1377 0.71518 0.75211 0.0
O550 O 0.18831 0.64787 0.74623 0.0
O551 O 0.1592 0.70736 0.74846 0.0
C552 C 0.87833 0.12524 0.472 0.0
O553 O 0.87632 0.10664 0.48159 0.0
Cd554 Cd 0.85908 0.10735 0.51007 0.0
O555 O 0.8713 0.14629 0.47734 0.0
Cd556 Cd 0.85342 0.16517 0.50398 0.0
C557 C 0.80138 0.13043 0.50119 0.0
O558 O 0.87801 0.1416 0.52433 0.0
O559 O 0.84899 0.1634 0.53563 0.0
O560 O 0.87964 0.20058 0.49832 0.0
C561 C 0.86719 0.14916 0.53786 0.0
O562 O 0.8145 0.11258 0.50639 0.0
C563 C 0.86261 0.21638 0.5001 0.0
O564 O 0.81116 0.15116 0.49821 0.0
O565 O 0.84117 0.20834 0.50348 0.0
C566 C 0.8978 0.37892 0.7174 0.0
O567 O 0.91596 0.37684 0.72774 0.0
Cd568 Cd 0.91223 0.36181 0.75666 0.0
O569 O 0.87607 0.37319 0.72217 0.0
Cd570 Cd 0.85475 0.35808 0.74839 0.0
C571 C 0.88702 0.30496 0.74854 0.0
O572 O 0.87797 0.3827 0.76958 0.0
O573 O 0.85424 0.35485 0.77995 0.0
O574 O 0.8222 0.38647 0.74032 0.0
C575 C 0.86869 0.37272 0.78277 0.0
O576 O 0.90511 0.3178 0.75409 0.0
C577 C 0.80443 0.37167 0.74234 0.0
O578 O 0.86669 0.31506 0.74425 0.0
O579 O 0.81 0.35005 0.74682 0.0
C580 C 0.63095 0.4101 0.97439 0.0
O581 O 0.63159 0.42703 0.98581 0.0
Cd582 Cd 0.6442 0.42149 0.01525 0.0
O583 O 0.63623 0.3881 0.97833 0.0
Cd584 Cd 0.64805 0.36503 0.00476 0.0
C585 C 0.70181 0.39705 0.00841 0.0
O586 O 0.62162 0.38694 0.0253 0.0
O587 O 0.64841 0.3624 0.03643 0.0
O588 O 0.6203 0.33145 -0.00364 0.0
C589 C 0.63011 0.37656 0.03864 0.0
O590 O 0.68879 0.41487 0.01398 0.0
C591 C 0.63663 0.31481 -0.00284 0.0
O592 O 0.69164 0.37713 0.0034 0.0
O593 O 0.65847 0.32165 0.00087 0.0
C594 C 0.64899 0.12103 0.27543 0.0
O595 O 0.65071 0.10283 0.26513 0.0
Cd596 Cd 0.66841 0.1066 0.2369 0.0
O597 O 0.65584 0.14222 0.27069 0.0
Cd598 Cd 0.67206 0.1629 0.24463 0.0
C599 C 0.72541 0.13132 0.24691 0.0
O600 O 0.64792 0.14005 0.22299 0.0
O601 O 0.6782 0.16134 0.21316 0.0
O602 O 0.64251 0.19436 0.25286 0.0
C603 C 0.65934 0.14825 0.21002 0.0
O604 O 0.71281 0.11329 0.24106 0.0
C605 C 0.65673 0.21247 0.25061 0.0
O606 O 0.71499 0.15164 0.25057 0.0
O607 O 0.67859 0.20769 0.24568 0.0
H608 H 0.16872 0.94003 0.24116 0.0
H609 H 0.27383 0.83844 0.2532 0.0
H610 H 0.15854 0.87306 0.26939 0.0
H611 H 0.28827 0.91202 0.23621 0.0
H612 H 0.22965 0.84782 0.25384 0.0
H613 H 0.21069 0.92692 0.23403 0.0
C614 C 0.17518 0.9225 0.24575 0.0
C615 C 0.16006 0.90779 0.25608 0.0
C616 C 0.24248 0.86184 0.24982 0.0
C617 C 0.20805 0.89259 0.2478 0.0
C618 C 0.26769 0.85648 0.24941 0.0
C619 C 0.28478 0.87457 0.24482 0.0
C620 C 0.23428 0.88542 0.24554 0.0
C621 C 0.27576 0.8976 0.23998 0.0
C622 C 0.19913 0.91501 0.24162 0.0
C623 C 0.16933 0.88499 0.26129 0.0
N624 N 0.25114 0.90242 0.24058 0.0
N625 N 0.19276 0.8782 0.25722 0.0
H626 H 0.07485 0.66299 0.48579 0.0
H627 H 0.17214 0.77009 0.50618 0.0
H628 H 0.1393 0.65481 0.51843 0.0
H629 H 0.09961 0.78272 0.48459 0.0
H630 H 0.16397 0.72607 0.50548 0.0
H631 H 0.08727 0.70522 0.48018 0.0
C632 C 0.09169 0.66992 0.49167 0.0
C633 C 0.10588 0.65523 0.50275 0.0
C634 C 0.14993 0.73847 0.50075 0.0
C635 C 0.12032 0.70351 0.4962 0.0
C636 C 0.1546 0.7636 0.50111 0.0
C637 C 0.13642 0.78012 0.49561 0.0
C638 C 0.12695 0.72976 0.4948 0.0
C639 C 0.11406 0.77064 0.48911 0.0
C640 C 0.09881 0.69402 0.4884 0.0
C641 C 0.12783 0.66518 0.50966 0.0
N642 N 0.10989 0.74609 0.48898 0.0
N643 N 0.13424 0.68869 0.50638 0.0
H644 H 0.32967 0.54321 0.74171 0.0
H645 H 0.2343 0.65315 0.7557 0.0
H646 H 0.34751 0.60905 0.77054 0.0
H647 H 0.21825 0.5866 0.72702 0.0
H648 H 0.27755 0.64021 0.75807 0.0
H649 H 0.29079 0.56183 0.73263 0.0
C650 C 0.32552 0.56175 0.7459 0.0
C651 C 0.34168 0.57453 0.75701 0.0
C652 C 0.26457 0.62859 0.75112 0.0
C653 C 0.29702 0.59589 0.74694 0.0
C654 C 0.23988 0.63596 0.74977 0.0
C655 C 0.22251 0.62078 0.74138 0.0
C656 C 0.27188 0.60591 0.744 0.0
C657 C 0.23085 0.59876 0.73384 0.0
C658 C 0.30331 0.57239 0.74075 0.0
C659 C 0.33556 0.59861 0.76193 0.0
N660 N 0.25483 0.59194 0.73546 0.0
N661 N 0.31352 0.6084 0.75708 0.0
H662 H 0.40295 0.85816 0.02831 0.0
H663 H 0.41896 0.73328 0.97593 0.0
H664 H 0.45765 0.84671 0.98856 0.0
H665 H 0.35748 0.74734 0.01001 0.0
H666 H 0.43075 0.7762 0.97836 0.0
H667 H 0.38304 0.81981 0.01954 0.0
C668 C 0.41046 0.84791 0.01746 0.0
C669 C 0.43224 0.85556 0.00931 0.0
C670 C 0.41452 0.77004 0.98519 0.0
C671 C 0.40981 0.81127 -0.00052 0.0
C672 C 0.40781 0.74545 0.98385 0.0
C673 C 0.38738 0.73661 0.99297 0.0
C674 C 0.40094 0.78596 0.99592 0.0
C675 C 0.37346 0.75334 0.00284 0.0
C676 C 0.39916 0.82587 0.01255 0.0
C677 C 0.44121 0.84129 0.99546 0.0
N678 N 0.3807 0.77716 0.00425 0.0
N679 N 0.43018 0.81971 0.99115 0.0
H680 H 0.15664 0.57825 0.98592 0.0
H681 H 0.25479 0.68436 -0.00092 0.0
H682 H 0.13499 0.65379 0.99348 0.0
H683 H 0.27144 0.60805 0.00717 0.0
H684 H 0.21076 0.67406 -0.00245 0.0
H685 H 0.19852 0.58899 0.99448 0.0
C686 C 0.16047 0.59704 0.98969 0.0
C687 C 0.14205 0.61513 0.98884 0.0
C688 C 0.22405 0.65965 -0.00011 0.0
C689 C 0.19056 0.6277 -0.00182 0.0
C690 C 0.24918 0.6655 0.00073 0.0
C691 C 0.26683 0.647 0.0031 0.0
C692 C 0.21661 0.63509 0.00119 0.0
C693 C 0.25851 0.62289 0.00522 0.0
C694 C 0.18456 0.60319 0.99446 0.0
C695 C 0.14858 0.63927 0.99354 0.0
N696 N 0.23405 0.6176 0.00401 0.0
N697 N 0.17235 0.6449 -0.00221 0.0
H698 H 0.38104 0.65669 0.23297 0.0
H699 H 0.44289 0.78638 0.25559 0.0
H700 H 0.45973 0.66665 0.23908 0.0
H701 H 0.36573 0.77633 0.2429 0.0
H702 H 0.44923 0.74224 0.25207 0.0
H703 H 0.37491 0.69995 0.23957 0.0
C704 C 0.39705 0.66788 0.23598 0.0
C705 C 0.42096 0.65794 0.23551 0.0
C706 C 0.43092 0.74972 0.25008 0.0
C707 C 0.41406 0.70784 0.24272 0.0
C708 C 0.42726 0.77493 0.25209 0.0
C709 C 0.40374 0.78514 0.24947 0.0
C710 C 0.41089 0.73459 0.2455 0.0
C711 C 0.38421 0.76935 0.24498 0.0
C712 C 0.39353 0.6927 0.23958 0.0
C713 C 0.44099 0.67357 0.23914 0.0
N714 N 0.38823 0.74491 0.24314 0.0
N715 N 0.4371 0.69777 0.24255 0.0
H716 H 0.33306 0.96566 0.48271 0.0
H717 H 0.23447 0.86458 0.50635 0.0
H718 H 0.35467 0.89616 0.50426 0.0
H719 H 0.21712 0.94172 0.50521 0.0
H720 H 0.27842 0.87476 0.50386 0.0
H721 H 0.2903 0.95658 0.48958 0.0
C722 C 0.32901 0.94867 0.48917 0.0
C723 C 0.34777 0.93168 0.49286 0.0
C724 C 0.26495 0.88942 0.50429 0.0
C725 C 0.29835 0.92082 0.50021 0.0
C726 C 0.23988 0.88363 0.50562 0.0
C727 C 0.22206 0.90232 0.50592 0.0
C728 C 0.27218 0.91401 0.50296 0.0
C729 C 0.23016 0.9267 0.50504 0.0
C730 C 0.30445 0.94342 0.49295 0.0
C731 C 0.34093 0.90966 0.50083 0.0
N732 N 0.25458 0.93181 0.50343 0.0
N733 N 0.31676 0.90475 0.50405 0.0
H734 H 0.06336 0.85137 0.74129 0.0
H735 H 0.17021 0.75388 0.75194 0.0
H736 H 0.13884 0.87297 0.75183 0.0
H737 H 0.09282 0.73665 0.75732 0.0
H738 H 0.15976 0.79758 0.75252 0.0
H739 H 0.07408 0.8095 0.74805 0.0
C740 C 0.08211 0.84755 0.74538 0.0
C741 C 0.10019 0.86602 0.7459 0.0
C742 C 0.14514 0.7842 0.7538 0.0
C743 C 0.11281 0.8174 0.75309 0.0
C744 C 0.15108 0.75927 0.75344 0.0
C745 C 0.13233 0.74158 0.75441 0.0
C746 C 0.12027 0.79141 0.75493 0.0
C747 C 0.10787 0.74961 0.7564 0.0
C748 C 0.08826 0.82342 0.7491 0.0
C749 C 0.12432 0.8594 0.75086 0.0
N750 N 0.10254 0.77389 0.75639 0.0
N751 N 0.13 0.83559 0.75404 0.0
H752 H 0.65359 0.39844 0.76946 0.0
H753 H 0.78752 0.41485 0.72942 0.0
H754 H 0.67794 0.46376 0.74373 0.0
H755 H 0.76237 0.34763 0.75221 0.0
H756 H 0.74552 0.43086 0.73088 0.0
H757 H 0.69077 0.37733 0.75945 0.0
C758 C 0.66647 0.4082 0.76137 0.0
C759 C 0.66279 0.43304 0.75763 0.0
C760 C 0.74906 0.41249 0.73537 0.0
C761 C 0.70567 0.40909 0.74643 0.0
C762 C 0.77308 0.40333 0.73455 0.0
C763 C 0.77851 0.37999 0.74092 0.0
C764 C 0.73033 0.39833 0.74281 0.0
C765 C 0.75902 0.3658 0.74727 0.0
C766 C 0.68781 0.39617 0.75577 0.0
C767 C 0.68027 0.44477 0.74724 0.0
N768 N 0.73584 0.37533 0.74829 0.0
N769 N 0.70107 0.4328 0.7422 0.0
H770 H 0.55909 0.17732 0.00457 0.0
H771 H 0.66788 0.27542 -0.00327 0.0
H772 H 0.63665 0.15892 0.00441 0.0
H773 H 0.59061 0.29439 0.99353 0.0
H774 H 0.65655 0.23216 -0.00309 0.0
H775 H 0.56989 0.21976 -0.00192 0.0
C776 C 0.57836 0.18213 0.00302 0.0
C777 C 0.59697 0.16447 0.00509 0.0
C778 C 0.64205 0.24575 0.996 0.0
C779 C 0.60947 0.21303 -0.0023 0.0
C780 C 0.64853 0.27048 0.99588 0.0
C781 C 0.63016 0.28857 0.99525 0.0
C782 C 0.61699 0.23899 0.99563 0.0
C783 C 0.60538 0.28106 0.9941 0.0
C784 C 0.58451 0.20635 -0.00075 0.0
C785 C 0.62161 0.17174 0.00273 0.0
N786 N 0.5995 0.25686 0.99451 0.0
N787 N 0.62713 0.19544 -0.00068 0.0
H788 H 0.87374 0.07288 0.25383 0.0
H789 H 0.75846 0.16454 0.26067 0.0
H790 H 0.87708 0.14374 0.27915 0.0
H791 H 0.75397 0.09132 0.23911 0.0
H792 H 0.80273 0.15861 0.26547 0.0
H793 H 0.83063 0.08072 0.24617 0.0
C794 C 0.86545 0.09013 0.25773 0.0
C795 C 0.87908 0.10762 0.26722 0.0
C796 C 0.79205 0.14387 0.25965 0.0
C797 C 0.82969 0.11677 0.25844 0.0
C798 C 0.76676 0.14725 0.2569 0.0
C799 C 0.75239 0.12836 0.24956 0.0
C800 C 0.80311 0.12147 0.25499 0.0
C801 C 0.76423 0.10637 0.24489 0.0
C802 C 0.84084 0.09463 0.25331 0.0
C803 C 0.86744 0.12982 0.27166 0.0
N804 N 0.78884 0.10352 0.24772 0.0
N805 N 0.84341 0.13369 0.26733 0.0
H806 H 0.93391 0.35782 0.49291 0.0
H807 H 0.83155 0.25448 0.50784 0.0
H808 H 0.86799 0.36881 0.52335 0.0
H809 H 0.90548 0.23872 0.49022 0.0
H810 H 0.84164 0.29813 0.50846 0.0
H811 H 0.92071 0.31571 0.48687 0.0
C812 C 0.91661 0.35151 0.49824 0.0
C813 C 0.90219 0.36698 0.50879 0.0
C814 C 0.8556 0.28512 0.50434 0.0
C815 C 0.88686 0.31885 0.50171 0.0
C816 C 0.84984 0.26021 0.50395 0.0
C817 C 0.86778 0.24292 0.49913 0.0
C818 C 0.87943 0.29283 0.49979 0.0
C819 C 0.89115 0.25141 0.49417 0.0
C820 C 0.90906 0.32749 0.49472 0.0
C821 C 0.87966 0.35782 0.51499 0.0
N822 N 0.89634 0.27576 0.49469 0.0
N823 N 0.87279 0.33437 0.51144 0.0
H824 H 0.64893 0.14483 0.46893 0.0
H825 H 0.77384 0.08954 0.50781 0.0
H826 H 0.65407 0.07301 0.49139 0.0
H827 H 0.76751 0.16317 0.48853 0.0
H828 H 0.72973 0.08364 0.50271 0.0
H829 H 0.69178 0.15256 0.4772 0.0
C830 C 0.65892 0.1308 0.47584 0.0
C831 C 0.64781 0.10819 0.47943 0.0
C832 C 0.73796 0.10112 0.49965 0.0
C833 C 0.6972 0.11678 0.48863 0.0
C834 C 0.76319 0.10451 0.50252 0.0
C835 C 0.77449 0.12687 0.49851 0.0
C836 C 0.72383 0.12018 0.49264 0.0
C837 C 0.75965 0.1456 0.49177 0.0
C838 C 0.6835 0.13517 0.48044 0.0
C839 C 0.66194 0.09056 0.48812 0.0
N840 N 0.73512 0.14179 0.48898 0.0
N841 N 0.68591 0.09519 0.49234 0.0
H842 H 0.86842 0.15046 0.72523 0.0
H843 H 0.92732 0.2775 0.75737 0.0
H844 H 0.94239 0.15772 0.7458 0.0
H845 H 0.85333 0.2709 0.73663 0.0
H846 H 0.9322 0.2333 0.75466 0.0
H847 H 0.86143 0.19392 0.73117 0.0
C848 C 0.88308 0.16109 0.73125 0.0
C849 C 0.90607 0.1504 0.73498 0.0
C850 C 0.91486 0.24147 0.75074 0.0
C851 C 0.89832 0.20035 0.74151 0.0
C852 C 0.91205 0.26678 0.75225 0.0
C853 C 0.8899 0.27803 0.74714 0.0
C854 C 0.89542 0.22718 0.74402 0.0
C855 C 0.87077 0.26307 0.74068 0.0
C856 C 0.87913 0.18598 0.7345 0.0
C857 C 0.9245 0.16524 0.74249 0.0
N858 N 0.87401 0.23843 0.73925 0.0
N859 N 0.92026 0.18945 0.74543 0.0
H860 H 0.84698 0.46052 -0.00171 0.0
H861 H 0.73612 0.36364 -0.00319 0.0
H862 H 0.85499 0.38551 0.98099 0.0
H863 H 0.72943 0.43762 0.01665 0.0
H864 H 0.78033 0.3704 0.99266 0.0
H865 H 0.80451 0.45167 0.00682 0.0
C866 C 0.83984 0.44215 -0.00362 0.0
C867 C 0.85453 0.42377 0.98884 0.0
C868 C 0.7692 0.3851 -0.00197 0.0
C869 C 0.80589 0.41348 -0.00146 0.0
C870 C 0.74393 0.38125 0.0004 0.0
C871 C 0.72893 0.40014 0.00697 0.0
C872 C 0.77956 0.40804 0.00218 0.0
C873 C 0.74018 0.42254 0.01145 0.0
C874 C 0.81562 0.43708 0.0013 0.0
C875 C 0.84442 0.4002 0.98689 0.0
N876 N 0.76474 0.4259 0.00887 0.0
N877 N 0.82068 0.39579 0.99156 0.0
H878 H 0.55965 0.33574 0.26444 0.0
H879 H 0.67782 0.25499 0.23919 0.0
H880 H 0.61243 0.35618 0.22546 0.0
H881 H 0.61456 0.2276 0.26667 0.0
H882 H 0.65927 0.29598 0.23975 0.0
H883 H 0.58506 0.30005 0.27112 0.0
C884 C 0.57672 0.33294 0.25744 0.0
C885 C 0.58364 0.34884 0.24416 0.0
C886 C 0.64963 0.28103 0.24584 0.0
C887 C 0.61288 0.30806 0.25182 0.0
C888 C 0.66022 0.25767 0.24556 0.0
C889 C 0.64754 0.23782 0.25269 0.0
C890 C 0.62633 0.28454 0.25343 0.0
C891 C 0.62483 0.24233 0.26082 0.0
C892 C 0.59123 0.31257 0.26128 0.0
C893 C 0.60631 0.34455 0.23583 0.0
N894 N 0.61488 0.26516 0.26086 0.0
N895 N 0.61994 0.32441 0.23965 0.0
H896 H 0.12386 0.89381 0.35964 0.0
H897 H 0.09426 0.93235 0.4567 0.0
H898 H 0.05871 0.93504 0.37327 0.0
H899 H 0.13708 0.86793 0.44404 0.0
H900 H 0.08371 0.9365 0.42602 0.0
H901 H 0.1318 0.88677 0.39046 0.0
C902 C 0.11121 0.90129 0.36916 0.0
C903 C 0.09062 0.91501 0.36398 0.0
C904 C 0.09529 0.92139 0.43 0.0
C905 C 0.0997 0.90732 0.39913 0.0
C906 C 0.10142 0.91907 0.44747 0.0
C907 C 0.11662 0.89979 0.45293 0.0
C908 C 0.10479 0.90459 0.41785 0.0
C909 C 0.12527 0.88304 0.44041 0.0
C910 C 0.11567 0.89719 0.38669 0.0
C911 C 0.07469 0.92423 0.37677 0.0
N912 N 0.11943 0.88596 0.42342 0.0
N913 N 0.07971 0.92044 0.39379 0.0
H914 H 0.08291 0.567 0.62095 0.0
H915 H 0.14082 0.6735 0.67983 0.0
H916 H 0.10159 0.63812 0.6012 0.0
H917 H 0.09897 0.61387 0.70114 0.0
H918 H 0.1298 0.65914 0.65068 0.0
H919 H 0.09216 0.582 0.65037 0.0
C920 C 0.08901 0.58574 0.62283 0.0
C921 C 0.09145 0.60138 0.60868 0.0
C922 C 0.12292 0.64929 0.66174 0.0
C923 C 0.1021 0.61859 0.64213 0.0
C924 C 0.12924 0.65745 0.67837 0.0
C925 C 0.12078 0.64487 0.6929 0.0
C926 C 0.10835 0.62818 0.65963 0.0
C927 C 0.1058 0.62417 0.69026 0.0
C928 C 0.09412 0.59433 0.63958 0.0
C929 C 0.09924 0.62555 0.6118 0.0
N930 N 0.10021 0.61634 0.67393 0.0
N931 N 0.10443 0.63338 0.62817 0.0
H932 H 0.37321 0.60342 0.85504 0.0
H933 H 0.38524 0.59684 0.95823 0.0
H934 H 0.41286 0.54633 0.88152 0.0
H935 H 0.34448 0.65295 0.9315 0.0
H936 H 0.39528 0.57782 0.93033 0.0
H937 H 0.3624 0.62167 0.88298 0.0
C938 C 0.37976 0.59479 0.86675 0.0
C939 C 0.3941 0.57338 0.86593 0.0
C940 C 0.38411 0.59427 0.93056 0.0
C941 C 0.38153 0.59407 0.89803 0.0
C942 C 0.37837 0.60515 0.94649 0.0
C943 C 0.36403 0.62654 0.94718 0.0
C944 C 0.37548 0.60488 0.91521 0.0
C945 C 0.35562 0.63649 0.93157 0.0
C946 C 0.37345 0.60514 0.88271 0.0
C947 C 0.40163 0.56273 0.88154 0.0
N948 N 0.3615 0.62559 0.91622 0.0
N949 N 0.39532 0.57323 0.89695 0.0
H950 H 0.42359 0.8838 0.11078 0.0
H951 H 0.44085 0.91715 0.20966 0.0
H952 H 0.46031 0.9501 0.12749 0.0
H953 H 0.37919 0.87369 0.19142 0.0
H954 H 0.44985 0.92817 0.17976 0.0
H955 H 0.40835 0.87828 0.14031 0.0
C956 C 0.42822 0.89729 0.12068 0.0
C957 C 0.44324 0.91738 0.11681 0.0
C958 C 0.43419 0.91644 0.18233 0.0
C959 C 0.42629 0.91103 0.15052 0.0
C960 C 0.42912 0.91004 0.19936 0.0
C961 C 0.40933 0.89436 0.203 0.0
C962 C 0.4197 0.90668 0.1688 0.0
C963 C 0.39462 0.88583 0.18918 0.0
C964 C 0.41947 0.8942 0.13747 0.0
C965 C 0.44868 0.93443 0.13 0.0
N966 N 0.40032 0.89182 0.17263 0.0
N967 N 0.44051 0.93068 0.14638 0.0
H968 H 0.08876 0.56136 0.87542 0.0
H969 H 0.11436 0.65774 0.80063 0.0
H970 H 0.0708 0.6381 0.88017 0.0
H971 H 0.11432 0.57947 0.79196 0.0
H972 H 0.10121 0.65115 0.83045 0.0
H973 H 0.10104 0.56788 0.84538 0.0
C974 C 0.08744 0.57958 0.87012 0.0
C975 C 0.07875 0.59922 0.88028 0.0
C976 C 0.10402 0.63544 0.822 0.0
C977 C 0.09279 0.60683 0.84596 0.0
C978 C 0.11161 0.63917 0.80498 0.0
C979 C 0.11546 0.61913 0.79375 0.0
C980 C 0.10048 0.61149 0.8279 0.0
C981 C 0.11152 0.59548 0.80012 0.0
C982 C 0.09433 0.58327 0.85297 0.0
C983 C 0.07717 0.62242 0.87273 0.0
N984 N 0.10436 0.59232 0.81679 0.0
N985 N 0.08426 0.62561 0.85605 0.0
H986 H 0.44317 0.6086 0.13168 0.0
H987 H 0.34972 0.62679 0.05277 0.0
H988 H 0.37076 0.57532 0.12994 0.0
H989 H 0.42865 0.63588 0.04823 0.0
H990 H 0.35567 0.61267 0.08246 0.0
H991 H 0.43681 0.62312 0.10229 0.0
C992 C 0.42601 0.6041 0.12511 0.0
C993 C 0.40756 0.59047 0.13336 0.0
C994 C 0.37165 0.61777 0.07494 0.0
C995 C 0.39996 0.60773 0.09976 0.0
C996 C 0.36828 0.62594 0.05803 0.0
C997 C 0.38873 0.63248 0.04798 0.0
C998 C 0.3956 0.61646 0.08192 0.0
C999 C 0.41236 0.63092 0.05547 0.0
C1000 C 0.42235 0.61258 0.10834 0.0
C1001 C 0.38543 0.58595 0.12425 0.0
N1002 N 0.41514 0.62315 0.072 0.0
N1003 N 0.38223 0.59461 0.10796 0.0
H1004 H 0.42017 0.88169 0.39395 0.0
H1005 H 0.39416 0.92211 0.29676 0.0
H1006 H 0.41227 0.95732 0.37951 0.0
H1007 H 0.37361 0.85113 0.31595 0.0
H1008 H 0.40606 0.93461 0.32621 0.0
H1009 H 0.4086 0.86924 0.36439 0.0
C1010 C 0.41615 0.89564 0.3845 0.0
C1011 C 0.41713 0.92054 0.38911 0.0
C1012 C 0.39888 0.91633 0.32395 0.0
C1013 C 0.40397 0.90651 0.35541 0.0
C1014 C 0.39215 0.90917 0.30718 0.0
C1015 C 0.38286 0.88557 0.30395 0.0
C1016 C 0.39668 0.89963 0.33752 0.0
C1017 C 0.3806 0.86954 0.3179 0.0
C1018 C 0.4094 0.88855 0.36771 0.0
C1019 C 0.41154 0.93793 0.37646 0.0
N1020 N 0.38762 0.87681 0.33408 0.0
N1021 N 0.40531 0.93059 0.36014 0.0
H1022 H 0.05858 0.89266 0.63783 0.0
H1023 H 0.11176 0.91866 0.54593 0.0
H1024 H 0.11325 0.94989 0.63244 0.0
H1025 H 0.11863 0.84599 0.56662 0.0
H1026 H 0.09953 0.93384 0.57481 0.0
H1027 H 0.06827 0.87833 0.60859 0.0
C1028 C 0.07264 0.90226 0.63069 0.0
C1029 C 0.08531 0.92247 0.63799 0.0
C1030 C 0.10354 0.91456 0.57288 0.0
C1031 C 0.09528 0.90671 0.6041 0.0
C1032 C 0.11035 0.9059 0.5565 0.0
C1033 C 0.1162 0.8811 0.55403 0.0
C1034 C 0.1018 0.89811 0.5866 0.0
C1035 C 0.11434 0.86527 0.56811 0.0
C1036 C 0.0779 0.89413 0.61392 0.0
C1037 C 0.10261 0.93454 0.62752 0.0
N1038 N 0.10704 0.874 0.58383 0.0
N1039 N 0.10698 0.92656 0.61108 0.0
H1040 H 0.5859 0.48419 0.88104 0.0
H1041 H 0.6351 0.38101 0.94528 0.0
H1042 H 0.62352 0.41872 0.86359 0.0
H1043 H 0.61295 0.45341 0.96214 0.0
H1044 H 0.62678 0.39262 0.91531 0.0
H1045 H 0.59197 0.47145 0.91093 0.0
C1046 C 0.59556 0.4672 0.88346 0.0
C1047 C 0.60431 0.45259 0.86971 0.0
C1048 C 0.6237 0.40592 0.9256 0.0
C1049 C 0.61092 0.43767 0.90398 0.0
C1050 C 0.62835 0.39929 0.94271 0.0
C1051 C 0.62481 0.41629 0.95626 0.0
C1052 C 0.61528 0.42966 0.92201 0.0
C1053 C 0.61607 0.43973 0.95213 0.0
C1054 C 0.59888 0.45987 0.90055 0.0
C1055 C 0.61619 0.43046 0.87372 0.0
N1056 N 0.61162 0.44571 0.93539 0.0
N1057 N 0.61915 0.4237 0.89047 0.0
H1058 H 0.58195 0.11654 0.11432 0.0
H1059 H 0.68879 0.14686 0.18139 0.0
H1060 H 0.65609 0.08894 0.10691 0.0
H1061 H 0.6143 0.13276 0.19821 0.0
H1062 H 0.67713 0.13331 0.15205 0.0
H1063 H 0.59353 0.1298 0.14352 0.0
C1064 C 0.60058 0.11301 0.11877 0.0
C1065 C 0.61797 0.10134 0.10798 0.0
C1066 C 0.6634 0.13323 0.1622 0.0
C1067 C 0.63146 0.11748 0.14128 0.0
C1068 C 0.66996 0.14106 0.17887 0.0
C1069 C 0.65246 0.14085 0.1922 0.0
C1070 C 0.63904 0.12575 0.15879 0.0
C1071 C 0.62835 0.13306 0.18829 0.0
C1072 C 0.60717 0.1208 0.13543 0.0
C1073 C 0.64208 0.09816 0.1145 0.0
N1074 N 0.62227 0.12599 0.17188 0.0
N1075 N 0.64814 0.10632 0.13067 0.0
H1076 H 0.92481 0.14469 0.36574 0.0
H1077 H 0.89919 0.08418 0.45763 0.0
H1078 H 0.95095 0.0731 0.38025 0.0
H1079 H 0.88243 0.15971 0.44656 0.0
H1080 H 0.91715 0.07964 0.42891 0.0
H1081 H 0.90862 0.15063 0.395 0.0
C1082 C 0.92735 0.13031 0.3751 0.0
C1083 C 0.93917 0.1083 0.37047 0.0
C1084 C 0.9096 0.09724 0.43276 0.0
C1085 C 0.92034 0.11485 0.4039 0.0
C1086 C 0.89926 0.09984 0.44916 0.0
C1087 C 0.88923 0.12237 0.45454 0.0
C1088 C 0.90984 0.11726 0.42154 0.0
C1089 C 0.88994 0.142 0.44298 0.0
C1090 C 0.91797 0.13366 0.39178 0.0
C1091 C 0.9416 0.09018 0.38311 0.0
N1092 N 0.90001 0.13897 0.427 0.0
N1093 N 0.9322 0.09383 0.39919 0.0
H1094 H 0.87994 0.4344 0.61337 0.0
H1095 H 0.94184 0.38978 0.70194 0.0
H1096 H 0.95848 0.42533 0.62068 0.0
H1097 H 0.86311 0.38968 0.69259 0.0
H1098 H 0.9482 0.40541 0.67285 0.0
H1099 H 0.87335 0.42109 0.64312 0.0
C1100 C 0.89581 0.42984 0.62129 0.0
C1101 C 0.91979 0.4309 0.61452 0.0
C1102 C 0.92953 0.40197 0.67715 0.0
C1103 C 0.91238 0.41543 0.64851 0.0
C1104 C 0.92587 0.39305 0.69379 0.0
C1105 C 0.90189 0.38833 0.69974 0.0
C1106 C 0.90908 0.40634 0.66636 0.0
C1107 C 0.88193 0.39295 0.68855 0.0
C1108 C 0.89203 0.42207 0.63823 0.0
C1109 C 0.93965 0.42447 0.6253 0.0
N1110 N 0.88597 0.40171 0.67242 0.0
N1111 N 0.93551 0.41701 0.64174 0.0
H1112 H 0.60361 0.14009 0.38211 0.0
H1113 H 0.62807 0.07974 0.28887 0.0
H1114 H 0.57459 0.06968 0.36606 0.0
H1115 H 0.64581 0.15487 0.30186 0.0
H1116 H 0.61025 0.07498 0.31762 0.0
H1117 H 0.62055 0.14532 0.35317 0.0
C1118 C 0.60057 0.12581 0.37248 0.0
C1119 C 0.58761 0.10439 0.37658 0.0
C1120 C 0.61802 0.09251 0.31417 0.0
C1121 C 0.60742 0.11011 0.34345 0.0
C1122 C 0.62828 0.09523 0.29776 0.0
C1123 C 0.63847 0.11775 0.29292 0.0
C1124 C 0.61806 0.1124 0.32588 0.0
C1125 C 0.63814 0.13718 0.30501 0.0
C1126 C 0.61041 0.12875 0.35597 0.0
C1127 C 0.58475 0.08633 0.3636 0.0
N1128 N 0.62815 0.13404 0.32093 0.0
N1129 N 0.59462 0.08958 0.34766 0.0
H1130 H 0.86494 0.107 0.64549 0.0
H1131 H 0.90447 0.11761 0.54611 0.0
H1132 H 0.92876 0.07094 0.62366 0.0
H1133 H 0.8438 0.1579 0.56871 0.0
H1134 H 0.91326 0.09984 0.57433 0.0
H1135 H 0.85609 0.12481 0.61726 0.0
C1136 C 0.87697 0.10265 0.63471 0.0
C1137 C 0.89761 0.08743 0.63693 0.0
C1138 C 0.89806 0.11262 0.57314 0.0
C1139 C 0.88778 0.10803 0.60464 0.0
C1140 C 0.89305 0.12279 0.55703 0.0
C1141 C 0.87335 0.13924 0.55506 0.0
C1142 C 0.88323 0.11885 0.5874 0.0
C1143 C 0.85917 0.14529 0.56966 0.0
C1144 C 0.87202 0.11299 0.61864 0.0
C1145 C 0.9128 0.08277 0.62258 0.0
N1146 N 0.86434 0.13504 0.5852 0.0
N1147 N 0.90757 0.09302 0.60705 0.0
H1148 H 0.93404 0.44448 0.8725 0.0
H1149 H 0.85501 0.35176 0.81322 0.0
H1150 H 0.89669 0.38092 0.89221 0.0
H1151 H 0.89926 0.4103 0.79274 0.0
H1152 H 0.86841 0.36344 0.84243 0.0
H1153 H 0.91983 0.43348 0.84333 0.0
C1154 C 0.92277 0.42825 0.87069 0.0
C1155 C 0.91654 0.41358 0.88481 0.0
C1156 C 0.87518 0.37374 0.83155 0.0
C1157 C 0.90031 0.40082 0.85145 0.0
C1158 C 0.8675 0.36712 0.81487 0.0
C1159 C 0.87608 0.38006 0.80052 0.0
C1160 C 0.8915 0.39351 0.83392 0.0
C1161 C 0.89223 0.3998 0.80343 0.0
C1162 C 0.91476 0.42192 0.85403 0.0
C1163 C 0.90216 0.39259 0.88168 0.0
N1164 N 0.89942 0.40592 0.81981 0.0
N1165 N 0.89449 0.38687 0.86535 0.0
H1166 H 0.57968 0.36236 0.14389 0.0
H1167 H 0.59697 0.412 0.0481 0.0
H1168 H 0.55528 0.43403 0.12835 0.0
H1169 H 0.63929 0.35186 0.06857 0.0
H1170 H 0.57912 0.41896 0.07678 0.0
H1171 H 0.59927 0.35666 0.11566 0.0
C1172 C 0.57843 0.37687 0.1345 0.0
C1173 C 0.56579 0.39866 0.1384 0.0
C1174 C 0.59239 0.40432 0.075 0.0
C1175 C 0.58811 0.39228 0.10611 0.0
C1176 C 0.60252 0.40028 0.05864 0.0
C1177 C 0.61961 0.3813 0.05596 0.0
C1178 C 0.59916 0.38907 0.08873 0.0
C1179 C 0.6262 0.36672 0.07008 0.0
C1180 C 0.58973 0.37368 0.11844 0.0
C1181 C 0.56498 0.41701 0.12586 0.0
N1182 N 0.61585 0.37081 0.08584 0.0
N1183 N 0.57584 0.41334 0.11021 0.0
loop_
_geom_bond_atom_site_label_1
_geom_bond_atom_site_label_2
_geom_bond_distance
_geom_bond_site_symmetry_2
_ccdc_geom_bond_type
H0 C27 0.929 . S
N1 C26 1.433 . S
N1 C32 1.435 . S
N1 C38 1.423 . S
H2 C28 0.930 . S
H3 C31 0.931 . S
H4 C30 0.929 . S
H5 C33 0.930 . S
H6 C34 0.932 . S
H7 C37 0.929 . S
H8 C36 0.931 . S
H9 C39 0.929 . S
H10 C43 0.932 . S
H11 C40 0.931 . S
H12 C42 0.929 . S
H13 C45 0.929 . S
H14 C46 0.930 . S
H15 C48 0.929 . S
H16 C49 0.931 . S
H17 C51 0.930 . S
H18 C52 0.932 . S
H19 C54 0.931 . S
H20 C55 0.929 . S
H21 C57 0.929 . S
H22 C58 0.931 . S
H23 C60 0.929 . S
N24 C44 1.433 . S
N24 C50 1.435 . S
N24 C56 1.423 . S
H25 C61 0.932 . S
C26 N1 1.433 . S
C26 C27 1.363 . S
C26 C31 1.370 . S
C27 H0 0.929 . S
C27 C26 1.363 . S
C27 C28 1.385 . S
C28 H2 0.930 . S
C28 C27 1.385 . S
C28 C29 1.357 . S
C29 C28 1.357 . S
C29 C30 1.406 . S
C30 H4 0.929 . S
C30 C29 1.406 . S
C30 C31 1.391 . S
C31 H3 0.931 . S
C31 C26 1.370 . S
C31 C30 1.391 . S
C32 N1 1.435 . S
C32 C33 1.358 . S
C32 C37 1.371 . S
C33 H5 0.930 . S
C33 C32 1.358 . S
C33 C34 1.405 . S
C34 H6 0.932 . S
C34 C33 1.405 . S
C34 C35 1.383 . S
C35 C34 1.383 . S
C35 C36 1.393 . S
C36 H8 0.931 . S
C36 C35 1.393 . S
C36 C37 1.382 . S
C37 H7 0.929 . S
C37 C32 1.371 . S
C37 C36 1.382 . S
C38 N1 1.423 . S
C38 C39 1.362 1_565 S
C38 C43 1.388 . S
C39 H9 0.929 . S
C39 C38 1.362 1_545 S
C39 C40 1.376 . S
C40 H11 0.931 . S
C40 C39 1.376 . S
C40 C41 1.396 . S
C41 C40 1.396 . S
C41 C42 1.348 1_545 S
C41 C59 1.472 . S
C42 H12 0.929 . S
C42 C41 1.348 1_565 S
C42 C43 1.443 . S
C43 H10 0.932 . S
C43 C38 1.388 . S
C43 C42 1.443 . S
C44 N24 1.433 . S
C44 C45 1.363 . S
C44 C49 1.370 . S
C45 H13 0.929 . S
C45 C44 1.363 . S
C45 C46 1.385 . S
C46 H14 0.930 . S
C46 C45 1.385 . S
C46 C47 1.357 . S
C47 C46 1.357 . S
C47 C48 1.406 . S
C48 H15 0.929 . S
C48 C47 1.406 . S
C48 C49 1.391 . S
C49 H16 0.931 . S
C49 C44 1.370 . S
C49 C48 1.391 . S
C50 N24 1.435 . S
C50 C51 1.358 . S
C50 C55 1.371 . S
C51 H17 0.930 . S
C51 C50 1.358 . S
C51 C52 1.405 . S
C52 H18 0.932 . S
C52 C51 1.405 . S
C52 C53 1.383 . S
C53 C52 1.383 . S
C53 C54 1.393 . S
C54 H19 0.931 . S
C54 C53 1.393 . S
C54 C55 1.382 . S
C55 H20 0.929 . S
C55 C50 1.371 . S
C55 C54 1.382 . S
C56 N24 1.423 . S
C56 C57 1.362 . S
C56 C61 1.388 . S
C57 H21 0.929 . S
C57 C56 1.362 . S
C57 C58 1.376 1_655 S
C58 H22 0.931 . S
C58 C57 1.376 1_455 S
C58 C59 1.396 . S
C59 C41 1.472 . S
C59 C58 1.396 . S
C59 C60 1.348 1_455 S
C60 H23 0.929 . S
C60 C59 1.348 1_655 S
C60 C61 1.443 . S
C61 H25 0.932 . S
C61 C56 1.388 . S
C61 C60 1.443 . S
H62 C89 0.929 . S
N63 C88 1.433 . S
N63 C94 1.435 . S
N63 C100 1.423 . S
H64 C90 0.930 . S
H65 C93 0.931 . S
H66 C92 0.929 . S
H67 C95 0.930 . S
H68 C96 0.932 . S
H69 C99 0.929 . S
H70 C98 0.931 . S
H71 C101 0.929 . S
H72 C105 0.932 . S
H73 C102 0.931 . S
H74 C104 0.929 . S
H75 C107 0.929 . S
H76 C108 0.930 . S
H77 C110 0.929 . S
H78 C111 0.931 . S
H79 C113 0.930 . S
H80 C114 0.932 . S
H81 C116 0.931 . S
H82 C117 0.929 . S
H83 C119 0.929 . S
H84 C120 0.931 . S
H85 C122 0.929 . S
N86 C106 1.433 . S
N86 C112 1.435 . S
N86 C118 1.423 . S
H87 C123 0.932 . S
C88 N63 1.433 . S
C88 C89 1.363 . S
C88 C93 1.370 . S
C89 H62 0.929 . S
C89 C88 1.363 . S
C89 C90 1.385 . S
C90 H64 0.930 . S
C90 C89 1.385 . S
C90 C91 1.357 . S
C91 C90 1.357 . S
C91 C92 1.406 . S
C92 H66 0.929 . S
C92 C91 1.406 . S
C92 C93 1.391 . S
C93 H65 0.931 . S
C93 C88 1.370 . S
C93 C92 1.391 . S
C94 N63 1.435 . S
C94 C95 1.358 . S
C94 C99 1.371 . S
C95 H67 0.930 . S
C95 C94 1.358 . S
C95 C96 1.405 . S
C96 H68 0.932 . S
C96 C95 1.405 . S
C96 C97 1.383 . S
C97 C96 1.383 . S
C97 C98 1.393 . S
C98 H70 0.931 . S
C98 C97 1.393 . S
C98 C99 1.382 . S
C99 H69 0.929 . S
C99 C94 1.371 . S
C99 C98 1.382 . S
C100 N63 1.423 . S
C100 C101 1.362 1_655 S
C100 C105 1.388 . S
C101 H71 0.929 . S
C101 C100 1.362 1_455 S
C101 C102 1.376 . S
C102 H73 0.931 . S
C102 C101 1.376 . S
C102 C103 1.396 . S
C103 C102 1.396 . S
C103 C104 1.348 1_455 S
C103 C121 1.472 . S
C104 H74 0.929 . S
C104 C103 1.348 1_655 S
C104 C105 1.443 . S
C105 H72 0.932 . S
C105 C100 1.388 . S
C105 C104 1.443 . S
C106 N86 1.433 . S
C106 C107 1.363 . S
C106 C111 1.370 . S
C107 H75 0.929 . S
C107 C106 1.363 . S
C107 C108 1.385 . S
C108 H76 0.930 . S
C108 C107 1.385 . S
C108 C109 1.357 . S
C109 C108 1.357 . S
C109 C110 1.406 . S
C110 H77 0.929 . S
C110 C109 1.406 . S
C110 C111 1.391 . S
C111 H78 0.931 . S
C111 C106 1.370 . S
C111 C110 1.391 . S
C112 N86 1.435 . S
C112 C113 1.358 . S
C112 C117 1.371 . S
C113 H79 0.930 . S
C113 C112 1.358 . S
C113 C114 1.405 . S
C114 H80 0.932 . S
C114 C113 1.405 . S
C114 C115 1.383 . S
C115 C114 1.383 . S
C115 C116 1.393 . S
C116 H81 0.931 . S
C116 C115 1.393 . S
C116 C117 1.382 . S
C117 H82 0.929 . S
C117 C112 1.371 . S
C117 C116 1.382 . S
C118 N86 1.423 . S
C118 C119 1.362 . S
C118 C123 1.388 . S
C119 H83 0.929 . S
C119 C118 1.362 . S
C119 C120 1.376 . S
C120 H84 0.931 . S
C120 C119 1.376 . S
C120 C121 1.396 . S
C121 C103 1.472 . S
C121 C120 1.396 . S
C121 C122 1.348 . S
C122 H85 0.929 . S
C122 C121 1.348 . S
C122 C123 1.443 . S
C123 H87 0.932 . S
C123 C118 1.388 . S
C123 C122 1.443 . S
H124 C151 0.929 . S
N125 C150 1.433 . S
N125 C156 1.435 . S
N125 C162 1.423 . S
H126 C152 0.930 . S
H127 C155 0.931 . S
H128 C154 0.929 . S
H129 C157 0.930 . S
H130 C158 0.932 . S
H131 C161 0.929 . S
H132 C160 0.931 . S
H133 C163 0.929 . S
H134 C167 0.932 . S
H135 C164 0.931 . S
H136 C166 0.929 . S
H137 C169 0.929 . S
H138 C170 0.930 . S
H139 C172 0.929 . S
H140 C173 0.931 . S
H141 C175 0.930 . S
H142 C176 0.932 . S
H143 C178 0.931 . S
H144 C179 0.929 . S
H145 C181 0.929 . S
H146 C182 0.931 . S
H147 C184 0.929 . S
N148 C168 1.433 . S
N148 C174 1.435 . S
N148 C180 1.423 . S
H149 C185 0.932 . S
C150 N125 1.433 . S
C150 C151 1.363 . S
C150 C155 1.370 . S
C151 H124 0.929 . S
C151 C150 1.363 . S
C151 C152 1.385 . S
C152 H126 0.930 . S
C152 C151 1.385 . S
C152 C153 1.357 . S
C153 C152 1.357 . S
C153 C154 1.406 . S
C154 H128 0.929 . S
C154 C153 1.406 . S
C154 C155 1.391 . S
C155 H127 0.931 . S
C155 C150 1.370 . S
C155 C154 1.391 . S
C156 N125 1.435 . S
C156 C157 1.358 . S
C156 C161 1.371 . S
C157 H129 0.930 . S
C157 C156 1.358 . S
C157 C158 1.405 . S
C158 H130 0.932 . S
C158 C157 1.405 . S
C158 C159 1.383 . S
C159 C158 1.383 . S
C159 C160 1.393 . S
C160 H132 0.931 . S
C160 C159 1.393 . S
C160 C161 1.382 . S
C161 H131 0.929 . S
C161 C156 1.371 . S
C161 C160 1.382 . S
C162 N125 1.423 . S
C162 C163 1.362 . S
C162 C167 1.388 . S
C163 H133 0.929 . S
C163 C162 1.362 . S
C163 C164 1.376 . S
C164 H135 0.931 . S
C164 C163 1.376 . S
C164 C165 1.396 . S
C165 C164 1.396 . S
C165 C166 1.348 . S
C165 C183 1.472 . S
C166 H136 0.929 . S
C166 C165 1.348 . S
C166 C167 1.443 . S
C167 H134 0.932 . S
C167 C162 1.388 . S
C167 C166 1.443 . S
C168 N148 1.433 . S
C168 C169 1.363 . S
C168 C173 1.370 . S
C169 H137 0.929 . S
C169 C168 1.363 . S
C169 C170 1.385 . S
C170 H138 0.930 . S
C170 C169 1.385 . S
C170 C171 1.357 . S
C171 C170 1.357 . S
C171 C172 1.406 . S
C172 H139 0.929 . S
C172 C171 1.406 . S
C172 C173 1.391 . S
C173 H140 0.931 . S
C173 C168 1.370 . S
C173 C172 1.391 . S
C174 N148 1.435 . S
C174 C175 1.358 . S
C174 C179 1.371 . S
C175 H141 0.930 . S
C175 C174 1.358 . S
C175 C176 1.405 . S
C176 H142 0.932 . S
C176 C175 1.405 . S
C176 C177 1.383 . S
C177 C176 1.383 . S
C177 C178 1.393 . S
C178 H143 0.931 . S
C178 C177 1.393 . S
C178 C179 1.382 . S
C179 H144 0.929 . S
C179 C174 1.371 . S
C179 C178 1.382 . S
C180 N148 1.423 . S
C180 C181 1.362 . S
C180 C185 1.388 . S
C181 H145 0.929 . S
C181 C180 1.362 . S
C181 C182 1.376 . S
C182 H146 0.931 . S
C182 C181 1.376 . S
C182 C183 1.396 . S
C183 C165 1.472 . S
C183 C182 1.396 . S
C183 C184 1.348 . S
C184 H147 0.929 . S
C184 C183 1.348 . S
C184 C185 1.443 . S
C185 H149 0.932 . S
C185 C180 1.388 . S
C185 C184 1.443 . S
H186 C213 0.929 . S
N187 C212 1.433 . S
N187 C218 1.435 . S
N187 C224 1.423 . S
H188 C214 0.930 . S
H189 C217 0.931 . S
H190 C216 0.929 . S
H191 C219 0.930 . S
H192 C220 0.932 . S
H193 C223 0.929 . S
H194 C222 0.931 . S
H195 C225 0.929 . S
H196 C229 0.932 . S
H197 C226 0.931 . S
H198 C228 0.929 . S
H199 C231 0.929 . S
H200 C232 0.930 . S
H201 C234 0.929 . S
H202 C235 0.931 . S
H203 C237 0.930 . S
H204 C238 0.932 . S
H205 C240 0.931 . S
H206 C241 0.929 . S
H207 C243 0.929 . S
H208 C244 0.931 1_565 S
H209 C246 0.929 . S
N210 C230 1.433 . S
N210 C236 1.435 . S
N210 C242 1.423 . S
H211 C247 0.932 . S
C212 N187 1.433 . S
C212 C213 1.363 . S
C212 C217 1.370 . S
C213 H186 0.929 . S
C213 C212 1.363 . S
C213 C214 1.385 . S
C214 H188 0.930 . S
C214 C213 1.385 . S
C214 C215 1.357 . S
C215 C214 1.357 . S
C215 C216 1.406 . S
C216 H190 0.929 . S
C216 C215 1.406 . S
C216 C217 1.391 . S
C217 H189 0.931 . S
C217 C212 1.370 . S
C217 C216 1.391 . S
C218 N187 1.435 . S
C218 C219 1.358 . S
C218 C223 1.371 . S
C219 H191 0.930 . S
C219 C218 1.358 . S
C219 C220 1.405 . S
C220 H192 0.932 . S
C220 C219 1.405 . S
C220 C221 1.383 . S
C221 C220 1.383 . S
C221 C222 1.393 . S
C222 H194 0.931 . S
C222 C221 1.393 . S
C222 C223 1.382 . S
C223 H193 0.929 . S
C223 C218 1.371 . S
C223 C222 1.382 . S
C224 N187 1.423 . S
C224 C225 1.362 . S
C224 C229 1.388 . S
C225 H195 0.929 . S
C225 C224 1.362 . S
C225 C226 1.376 . S
C226 H197 0.931 . S
C226 C225 1.376 . S
C226 C227 1.396 . S
C227 C226 1.396 . S
C227 C228 1.348 . S
C227 C245 1.472 1_565 S
C228 H198 0.929 . S
C228 C227 1.348 . S
C228 C229 1.443 . S
C229 H196 0.932 . S
C229 C224 1.388 . S
C229 C228 1.443 . S
C230 N210 1.433 . S
C230 C231 1.363 . S
C230 C235 1.370 . S
C231 H199 0.929 . S
C231 C230 1.363 . S
C231 C232 1.385 . S
C232 H200 0.930 . S
C232 C231 1.385 . S
C232 C233 1.357 . S
C233 C232 1.357 . S
C233 C234 1.406 . S
C234 H201 0.929 . S
C234 C233 1.406 . S
C234 C235 1.391 . S
C235 H202 0.931 . S
C235 C230 1.370 . S
C235 C234 1.391 . S
C236 N210 1.435 . S
C236 C237 1.358 . S
C236 C241 1.371 . S
C237 H203 0.930 . S
C237 C236 1.358 . S
C237 C238 1.405 . S
C238 H204 0.932 . S
C238 C237 1.405 . S
C238 C239 1.383 . S
C239 C238 1.383 . S
C239 C240 1.393 . S
C240 H205 0.931 . S
C240 C239 1.393 . S
C240 C241 1.382 . S
C241 H206 0.929 . S
C241 C236 1.371 . S
C241 C240 1.382 . S
C242 N210 1.423 . S
C242 C243 1.362 . S
C242 C247 1.388 . S
C243 H207 0.929 . S
C243 C242 1.362 . S
C243 C244 1.376 . S
C244 H208 0.931 1_545 S
C244 C243 1.376 . S
C244 C245 1.396 . S
C245 C227 1.472 1_545 S
C245 C244 1.396 . S
C245 C246 1.348 . S
C246 H209 0.929 . S
C246 C245 1.348 . S
C246 C247 1.443 . S
C247 H211 0.932 . S
C247 C242 1.388 . S
C247 C246 1.443 . S
H248 C275 0.929 . S
N249 C274 1.433 . S
N249 C280 1.435 . S
N249 C286 1.423 . S
H250 C276 0.930 . S
H251 C279 0.931 . S
H252 C278 0.929 . S
H253 C281 0.930 . S
H254 C282 0.932 . S
H255 C285 0.929 . S
H256 C284 0.931 . S
H257 C287 0.929 . S
H258 C291 0.932 . S
H259 C288 0.931 . S
H260 C290 0.929 . S
H261 C293 0.929 . S
H262 C294 0.930 . S
H263 C296 0.929 . S
H264 C297 0.931 . S
H265 C299 0.930 . S
H266 C300 0.932 . S
H267 C302 0.931 . S
H268 C303 0.929 . S
H269 C305 0.929 . S
H270 C306 0.931 1_455 S
H271 C308 0.929 . S
N272 C292 1.433 . S
N272 C298 1.435 . S
N272 C304 1.423 . S
H273 C309 0.932 . S
C274 N249 1.433 . S
C274 C275 1.363 . S
C274 C279 1.370 . S
C275 H248 0.929 . S
C275 C274 1.363 . S
C275 C276 1.385 . S
C276 H250 0.930 . S
C276 C275 1.385 . S
C276 C277 1.357 . S
C277 C276 1.357 . S
C277 C278 1.406 . S
C278 H252 0.929 . S
C278 C277 1.406 . S
C278 C279 1.391 . S
C279 H251 0.931 . S
C279 C274 1.370 . S
C279 C278 1.391 . S
C280 N249 1.435 . S
C280 C281 1.358 . S
C280 C285 1.371 . S
C281 H253 0.930 . S
C281 C280 1.358 . S
C281 C282 1.405 . S
C282 H254 0.932 . S
C282 C281 1.405 . S
C282 C283 1.383 . S
C283 C282 1.383 . S
C283 C284 1.393 . S
C284 H256 0.931 . S
C284 C283 1.393 . S
C284 C285 1.382 . S
C285 H255 0.929 . S
C285 C280 1.371 . S
C285 C284 1.382 . S
C286 N249 1.423 . S
C286 C287 1.362 . S
C286 C291 1.388 . S
C287 H257 0.929 . S
C287 C286 1.362 . S
C287 C288 1.376 . S
C288 H259 0.931 . S
C288 C287 1.376 . S
C288 C289 1.396 . S
C289 C288 1.396 . S
C289 C290 1.348 . S
C289 C307 1.506 . S
C290 H260 0.929 . S
C290 C289 1.348 . S
C290 C291 1.443 . S
C291 H258 0.932 . S
C291 C286 1.388 . S
C291 C290 1.443 . S
C292 N272 1.433 . S
C292 C293 1.363 . S
C292 C297 1.370 . S
C293 H261 0.929 . S
C293 C292 1.363 . S
C293 C294 1.385 . S
C294 H262 0.930 . S
C294 C293 1.385 . S
C294 C295 1.357 . S
C295 C294 1.357 . S
C295 C296 1.406 . S
C296 H263 0.929 . S
C296 C295 1.406 . S
C296 C297 1.391 . S
C297 H264 0.931 . S
C297 C292 1.370 . S
C297 C296 1.391 . S
C298 N272 1.435 . S
C298 C299 1.358 . S
C298 C303 1.371 . S
C299 H265 0.930 . S
C299 C298 1.358 . S
C299 C300 1.405 . S
C300 H266 0.932 . S
C300 C299 1.405 . S
C300 C301 1.383 . S
C301 C300 1.383 . S
C301 C302 1.393 . S
C302 H267 0.931 . S
C302 C301 1.393 . S
C302 C303 1.382 . S
C303 H268 0.929 . S
C303 C298 1.371 . S
C303 C302 1.382 . S
C304 N272 1.423 . S
C304 C305 1.362 . S
C304 C309 1.388 . S
C305 H269 0.929 . S
C305 C304 1.362 . S
C305 C306 1.376 . S
C306 H270 0.931 1_655 S
C306 C305 1.376 . S
C306 C307 1.392 1_655 S
C307 C289 1.506 . S
C307 C306 1.392 1_455 S
C307 C308 1.316 1_455 S
C308 H271 0.929 . S
C308 C307 1.316 1_655 S
C308 C309 1.443 . S
C309 H273 0.932 . S
C309 C304 1.388 . S
C309 C308 1.443 . S
H310 C337 0.929 . S
N311 C336 1.433 . S
N311 C342 1.435 . S
N311 C348 1.423 . S
H312 C338 0.930 . S
H313 C341 0.931 . S
H314 C340 0.929 . S
H315 C343 0.930 . S
H316 C344 0.932 . S
H317 C347 0.929 . S
H318 C346 0.931 . S
H319 C349 0.929 . S
H320 C353 0.932 . S
H321 C350 0.931 . S
H322 C352 0.929 . S
H323 C355 0.929 . S
H324 C356 0.930 . S
H325 C358 0.929 . S
H326 C359 0.931 . S
H327 C361 0.930 . S
H328 C362 0.932 . S
H329 C364 0.931 . S
H330 C365 0.929 . S
H331 C367 0.929 . S
H332 C368 0.931 . S
H333 C370 0.929 . S
N334 C354 1.433 . S
N334 C360 1.435 . S
N334 C366 1.423 . S
H335 C371 0.932 . S
C336 N311 1.433 . S
C336 C337 1.363 . S
C336 C341 1.370 . S
C337 H310 0.929 . S
C337 C336 1.363 . S
C337 C338 1.385 . S
C338 H312 0.930 . S
C338 C337 1.385 . S
C338 C339 1.357 . S
C339 C338 1.357 . S
C339 C340 1.406 . S
C340 H314 0.929 . S
C340 C339 1.406 . S
C340 C341 1.391 . S
C341 H313 0.931 . S
C341 C336 1.370 . S
C341 C340 1.391 . S
C342 N311 1.435 . S
C342 C343 1.358 . S
C342 C347 1.371 . S
C343 H315 0.930 . S
C343 C342 1.358 . S
C343 C344 1.405 . S
C344 H316 0.932 . S
C344 C343 1.405 . S
C344 C345 1.383 . S
C345 C344 1.383 . S
C345 C346 1.393 . S
C346 H318 0.931 . S
C346 C345 1.393 . S
C346 C347 1.382 . S
C347 H317 0.929 . S
C347 C342 1.371 . S
C347 C346 1.382 . S
C348 N311 1.423 . S
C348 C349 1.362 . S
C348 C353 1.388 . S
C349 H319 0.929 . S
C349 C348 1.362 . S
C349 C350 1.376 . S
C350 H321 0.931 . S
C350 C349 1.376 . S
C350 C351 1.396 . S
C351 C350 1.396 . S
C351 C352 1.348 . S
C351 C369 1.472 . S
C352 H322 0.929 . S
C352 C351 1.348 . S
C352 C353 1.443 . S
C353 H320 0.932 . S
C353 C348 1.388 . S
C353 C352 1.443 . S
C354 N334 1.433 . S
C354 C355 1.363 . S
C354 C359 1.370 . S
C355 H323 0.929 . S
C355 C354 1.363 . S
C355 C356 1.385 . S
C356 H324 0.930 . S
C356 C355 1.385 . S
C356 C357 1.357 . S
C357 C356 1.357 . S
C357 C358 1.406 . S
C358 H325 0.929 . S
C358 C357 1.406 . S
C358 C359 1.391 . S
C359 H326 0.931 . S
C359 C354 1.370 . S
C359 C358 1.391 . S
C360 N334 1.435 . S
C360 C361 1.358 . S
C360 C365 1.371 . S
C361 H327 0.930 . S
C361 C360 1.358 . S
C361 C362 1.405 . S
C362 H328 0.932 . S
C362 C361 1.405 . S
C362 C363 1.383 . S
C363 C362 1.383 . S
C363 C364 1.393 . S
C364 H329 0.931 . S
C364 C363 1.393 . S
C364 C365 1.382 . S
C365 H330 0.929 . S
C365 C360 1.371 . S
C365 C364 1.382 . S
C366 N334 1.423 . S
C366 C367 1.362 . S
C366 C371 1.388 . S
C367 H331 0.929 . S
C367 C366 1.362 . S
C367 C368 1.376 . S
C368 H332 0.931 . S
C368 C367 1.376 . S
C368 C369 1.396 . S
C369 C351 1.472 . S
C369 C368 1.396 . S
C369 C370 1.348 . S
C370 H333 0.929 . S
C370 C369 1.348 . S
C370 C371 1.443 . S
C371 H335 0.932 . S
C371 C366 1.388 . S
C371 C370 1.443 . S
H372 C399 0.929 . S
N373 C398 1.433 . S
N373 C404 1.435 . S
N373 C410 1.423 . S
H374 C400 0.930 . S
H375 C403 0.931 . S
H376 C402 0.929 . S
H377 C405 0.930 . S
H378 C406 0.932 . S
H379 C409 0.929 . S
H380 C408 0.931 . S
H381 C411 0.929 . S
H382 C415 0.932 . S
H383 C412 0.931 . S
H384 C414 0.929 . S
H385 C417 0.929 . S
H386 C418 0.930 . S
H387 C420 0.929 . S
H388 C421 0.931 . S
H389 C423 0.930 . S
H390 C424 0.932 . S
H391 C426 0.931 . S
H392 C427 0.929 . S
H393 C429 0.929 . S
H394 C430 0.931 . S
H395 C432 0.929 . S
N396 C416 1.433 . S
N396 C422 1.435 . S
N396 C428 1.423 . S
H397 C433 0.932 . S
C398 N373 1.433 . S
C398 C399 1.363 . S
C398 C403 1.370 . S
C399 H372 0.929 . S
C399 C398 1.363 . S
C399 C400 1.385 . S
C400 H374 0.930 . S
C400 C399 1.385 . S
C400 C401 1.357 . S
C401 C400 1.357 . S
C401 C402 1.406 . S
C402 H376 0.929 . S
C402 C401 1.406 . S
C402 C403 1.391 . S
C403 H375 0.931 . S
C403 C398 1.370 . S
C403 C402 1.391 . S
C404 N373 1.435 . S
C404 C405 1.358 . S
C404 C409 1.371 . S
C405 H377 0.930 . S
C405 C404 1.358 . S
C405 C406 1.405 . S
C406 H378 0.932 . S
C406 C405 1.405 . S
C406 C407 1.383 . S
C407 C406 1.383 . S
C407 C408 1.393 . S
C408 H380 0.931 . S
C408 C407 1.393 . S
C408 C409 1.382 . S
C409 H379 0.929 . S
C409 C404 1.371 . S
C409 C408 1.382 . S
C410 N373 1.423 . S
C410 C411 1.362 1_565 S
C410 C415 1.388 . S
C411 H381 0.929 . S
C411 C410 1.362 1_545 S
C411 C412 1.376 . S
C412 H383 0.931 . S
C412 C411 1.376 . S
C412 C413 1.396 . S
C413 C412 1.396 . S
C413 C414 1.348 1_545 S
C413 C431 1.472 . S
C414 H384 0.929 . S
C414 C413 1.348 1_565 S
C414 C415 1.443 . S
C415 H382 0.932 . S
C415 C410 1.388 . S
C415 C414 1.443 . S
C416 N396 1.433 . S
C416 C417 1.363 . S
C416 C421 1.370 . S
C417 H385 0.929 . S
C417 C416 1.363 . S
C417 C418 1.385 . S
C418 H386 0.930 . S
C418 C417 1.385 . S
C418 C419 1.357 . S
C419 C418 1.357 . S
C419 C420 1.406 . S
C420 H387 0.929 . S
C420 C419 1.406 . S
C420 C421 1.391 . S
C421 H388 0.931 . S
C421 C416 1.370 . S
C421 C420 1.391 . S
C422 N396 1.435 . S
C422 C423 1.358 . S
C422 C427 1.371 . S
C423 H389 0.930 . S
C423 C422 1.358 . S
C423 C424 1.405 . S
C424 H390 0.932 . S
C424 C423 1.405 . S
C424 C425 1.383 . S
C425 C424 1.383 . S
C425 C426 1.393 . S
C426 H391 0.931 . S
C426 C425 1.393 . S
C426 C427 1.382 . S
C427 H392 0.929 . S
C427 C422 1.371 . S
C427 C426 1.382 . S
C428 N396 1.423 . S
C428 C429 1.362 . S
C428 C433 1.388 . S
C429 H393 0.929 . S
C429 C428 1.362 . S
C429 C430 1.376 . S
C430 H394 0.931 . S
C430 C429 1.376 . S
C430 C431 1.396 . S
C431 C413 1.472 . S
C431 C430 1.396 . S
C431 C432 1.348 . S
C432 H395 0.929 . S
C432 C431 1.348 . S
C432 C433 1.443 . S
C433 H397 0.932 . S
C433 C428 1.388 . S
C433 C432 1.443 . S
H434 C461 0.929 . S
N435 C460 1.433 . S
N435 C466 1.435 . S
N435 C472 1.423 . S
H436 C462 0.930 . S
H437 C465 0.931 . S
H438 C464 0.929 . S
H439 C467 0.930 . S
H440 C468 0.932 . S
H441 C471 0.929 . S
H442 C470 0.931 . S
H443 C473 0.929 . S
H444 C477 0.932 . S
H445 C474 0.931 1_655 S
H446 C476 0.929 1_545 S
H447 C479 0.929 . S
H448 C480 0.930 . S
H449 C482 0.929 . S
H450 C483 0.931 . S
H451 C485 0.930 . S
H452 C486 0.932 . S
H453 C488 0.931 . S
H454 C489 0.929 . S
H455 C491 0.929 . S
H456 C492 0.931 . S
H457 C494 0.929 1_455 S
N458 C478 1.433 . S
N458 C484 1.435 . S
N458 C490 1.423 . S
H459 C495 0.932 . S
C460 N435 1.433 . S
C460 C461 1.363 . S
C460 C465 1.370 . S
C461 H434 0.929 . S
C461 C460 1.363 . S
C461 C462 1.385 . S
C462 H436 0.930 . S
C462 C461 1.385 . S
C462 C463 1.357 . S
C463 C462 1.357 . S
C463 C464 1.406 . S
C464 H438 0.929 . S
C464 C463 1.406 . S
C464 C465 1.391 . S
C465 H437 0.931 . S
C465 C460 1.370 . S
C465 C464 1.391 . S
C466 N435 1.435 . S
C466 C467 1.358 . S
C466 C471 1.371 . S
C467 H439 0.930 . S
C467 C466 1.358 . S
C467 C468 1.405 . S
C468 H440 0.932 . S
C468 C467 1.405 . S
C468 C469 1.383 . S
C469 C468 1.383 . S
C469 C470 1.393 . S
C470 H442 0.931 . S
C470 C469 1.393 . S
C470 C471 1.382 . S
C471 H441 0.929 . S
C471 C466 1.371 . S
C471 C470 1.382 . S
C472 N435 1.423 . S
C472 C473 1.362 . S
C472 C477 1.388 . S
C473 H443 0.929 . S
C473 C472 1.362 . S
C473 C474 1.376 . S
C474 H445 0.931 1_455 S
C474 C473 1.376 . S
C474 C475 1.364 1_565 S
C475 C474 1.364 1_545 S
C475 C476 1.344 1_545 S
C475 C493 1.507 1_455 S
C476 H446 0.929 1_565 S
C476 C475 1.344 1_565 S
C476 C477 1.443 . S
C477 H444 0.932 . S
C477 C472 1.388 . S
C477 C476 1.443 . S
C478 N458 1.433 . S
C478 C479 1.363 . S
C478 C483 1.370 . S
C479 H447 0.929 . S
C479 C478 1.363 . S
C479 C480 1.385 . S
C480 H448 0.930 . S
C480 C479 1.385 . S
C480 C481 1.357 . S
C481 C480 1.357 . S
C481 C482 1.406 . S
C482 H449 0.929 . S
C482 C481 1.406 . S
C482 C483 1.391 . S
C483 H450 0.931 . S
C483 C478 1.370 . S
C483 C482 1.391 . S
C484 N458 1.435 . S
C484 C485 1.358 . S
C484 C489 1.371 . S
C485 H451 0.930 . S
C485 C484 1.358 . S
C485 C486 1.405 . S
C486 H452 0.932 . S
C486 C485 1.405 . S
C486 C487 1.383 . S
C487 C486 1.383 . S
C487 C488 1.393 . S
C488 H453 0.931 . S
C488 C487 1.393 . S
C488 C489 1.382 . S
C489 H454 0.929 . S
C489 C484 1.371 . S
C489 C488 1.382 . S
C490 N458 1.423 . S
C490 C491 1.362 . S
C490 C495 1.388 . S
C491 H455 0.929 . S
C491 C490 1.362 . S
C491 C492 1.376 . S
C492 H456 0.931 . S
C492 C491 1.376 . S
C492 C493 1.396 . S
C493 C475 1.507 1_655 S
C493 C492 1.396 . S
C493 C494 1.348 . S
C494 H457 0.929 1_655 S
C494 C493 1.348 . S
C494 C495 1.443 . S
C495 H459 0.932 . S
C495 C490 1.388 . S
C495 C494 1.443 . S
C496 O497 1.306 . S
C496 O499 1.160 . S
O497 C496 1.306 . S
O497 Cd498 2.228 . S
Cd498 O497 2.228 . S
Cd498 O502 2.273 1_554 S
Cd498 O506 2.277 . S
O499 C496 1.160 . S
O499 Cd500 2.203 . S
Cd500 O499 2.203 . S
Cd500 O502 2.411 1_554 S
Cd500 O503 2.333 1_554 S
Cd500 O504 2.352 . S
Cd500 O508 2.277 . S
Cd500 O509 2.353 1_554 S
C501 O506 1.209 . S
C501 O508 1.226 . S
O502 Cd498 2.273 1_556 S
O502 Cd500 2.411 1_556 S
O502 C505 1.320 . S
O503 Cd500 2.333 1_556 S
O503 C505 1.214 . S
O504 Cd500 2.352 . S
O504 C507 1.265 . S
C505 O502 1.320 . S
C505 O503 1.214 . S
O506 Cd498 2.277 . S
O506 C501 1.209 . S
C507 O504 1.265 . S
C507 O509 1.279 1_554 S
O508 Cd500 2.277 . S
O508 C501 1.226 . S
O509 Cd500 2.353 1_556 S
O509 C507 1.279 1_556 S
C510 O511 1.306 . S
C510 O513 1.160 . S
O511 C510 1.306 . S
O511 Cd512 2.228 . S
Cd512 O511 2.228 . S
Cd512 O516 2.273 . S
Cd512 O520 2.277 . S
O513 C510 1.160 . S
O513 Cd514 2.203 . S
Cd514 O513 2.203 . S
Cd514 O516 2.411 . S
Cd514 O517 2.333 . S
Cd514 O518 2.352 . S
Cd514 O522 2.277 . S
Cd514 O523 2.356 . S
C515 O520 1.209 . S
C515 O522 1.226 . S
O516 Cd512 2.273 . S
O516 Cd514 2.411 . S
O516 C519 1.320 . S
O517 Cd514 2.333 . S
O517 C519 1.214 . S
O518 Cd514 2.352 . S
O518 C521 1.258 . S
C519 O516 1.320 . S
C519 O517 1.214 . S
O520 Cd512 2.277 . S
O520 C515 1.209 . S
C521 O518 1.258 . S
C521 O523 1.282 . S
O522 Cd514 2.277 . S
O522 C515 1.226 . S
O523 Cd514 2.356 . S
O523 C521 1.282 . S
C524 O525 1.306 . S
C524 O527 1.160 . S
O525 C524 1.306 . S
O525 Cd526 2.228 . S
Cd526 O525 2.228 . S
Cd526 O530 2.273 . S
Cd526 O534 2.277 . S
O527 C524 1.160 . S
O527 Cd528 2.203 . S
Cd528 O527 2.203 . S
Cd528 O530 2.411 . S
Cd528 O531 2.333 . S
Cd528 O532 2.352 . S
Cd528 O536 2.277 . S
Cd528 O537 2.356 . S
C529 O534 1.209 . S
C529 O536 1.226 . S
O530 Cd526 2.273 . S
O530 Cd528 2.411 . S
O530 C533 1.320 . S
O531 Cd528 2.333 . S
O531 C533 1.214 . S
O532 Cd528 2.352 . S
O532 C535 1.258 . S
C533 O530 1.320 . S
C533 O531 1.214 . S
O534 Cd526 2.277 . S
O534 C529 1.209 . S
C535 O532 1.258 . S
C535 O537 1.282 . S
O536 Cd528 2.277 . S
O536 C529 1.226 . S
O537 Cd528 2.356 . S
O537 C535 1.282 . S
C538 O539 1.306 . S
C538 O541 1.160 . S
O539 C538 1.306 . S
O539 Cd540 2.228 . S
Cd540 O539 2.228 . S
Cd540 O544 2.273 . S
Cd540 O548 2.277 . S
O541 C538 1.160 . S
O541 Cd542 2.203 . S
Cd542 O541 2.203 . S
Cd542 O544 2.411 . S
Cd542 O545 2.333 . S
Cd542 O546 2.352 . S
Cd542 O550 2.277 . S
Cd542 O551 2.356 . S
C543 O548 1.209 . S
C543 O550 1.226 . S
O544 Cd540 2.273 . S
O544 Cd542 2.411 . S
O544 C547 1.320 . S
O545 Cd542 2.333 . S
O545 C547 1.214 . S
O546 Cd542 2.352 . S
O546 C549 1.258 . S
C547 O544 1.320 . S
C547 O545 1.214 . S
O548 Cd540 2.277 . S
O548 C543 1.209 . S
C549 O546 1.258 . S
C549 O551 1.282 . S
O550 Cd542 2.277 . S
O550 C543 1.226 . S
O551 Cd542 2.356 . S
O551 C549 1.282 . S
C552 O553 1.306 . S
C552 O555 1.160 . S
O553 C552 1.306 . S
O553 Cd554 2.228 . S
Cd554 O553 2.228 . S
Cd554 O558 2.273 . S
Cd554 O562 2.277 . S
O555 C552 1.160 . S
O555 Cd556 2.203 . S
Cd556 O555 2.203 . S
Cd556 O558 2.411 . S
Cd556 O559 2.333 . S
Cd556 O560 2.352 . S
Cd556 O564 2.277 . S
Cd556 O565 2.356 . S
C557 O562 1.209 . S
C557 O564 1.226 . S
O558 Cd554 2.273 . S
O558 Cd556 2.411 . S
O558 C561 1.320 . S
O559 Cd556 2.333 . S
O559 C561 1.214 . S
O560 Cd556 2.352 . S
O560 C563 1.258 . S
C561 O558 1.320 . S
C561 O559 1.214 . S
O562 Cd554 2.277 . S
O562 C557 1.209 . S
C563 O560 1.258 . S
C563 O565 1.282 . S
O564 Cd556 2.277 . S
O564 C557 1.226 . S
O565 Cd556 2.356 . S
O565 C563 1.282 . S
C566 O567 1.306 . S
C566 O569 1.160 . S
O567 C566 1.306 . S
O567 Cd568 2.228 . S
Cd568 O567 2.228 . S
Cd568 O572 2.273 . S
Cd568 O576 2.277 . S
O569 C566 1.160 . S
O569 Cd570 2.203 . S
Cd570 O569 2.203 . S
Cd570 O572 2.411 . S
Cd570 O573 2.333 . S
Cd570 O574 2.352 . S
Cd570 O578 2.277 . S
Cd570 O579 2.356 . S
C571 O576 1.209 . S
C571 O578 1.226 . S
O572 Cd568 2.273 . S
O572 Cd570 2.411 . S
O572 C575 1.320 . S
O573 Cd570 2.333 . S
O573 C575 1.214 . S
O574 Cd570 2.352 . S
O574 C577 1.258 . S
C575 O572 1.320 . S
C575 O573 1.214 . S
O576 Cd568 2.277 . S
O576 C571 1.209 . S
C577 O574 1.258 . S
C577 O579 1.282 . S
O578 Cd570 2.277 . S
O578 C571 1.226 . S
O579 Cd570 2.356 . S
O579 C577 1.282 . S
C580 O581 1.306 . S
C580 O583 1.160 . S
O581 C580 1.306 . S
O581 Cd582 2.213 1_556 S
Cd582 O581 2.213 1_554 S
Cd582 O586 2.285 . S
Cd582 O590 2.275 1_554 S
O583 C580 1.160 . S
O583 Cd584 2.203 1_556 S
Cd584 O583 2.203 1_554 S
Cd584 O586 2.411 . S
Cd584 O587 2.333 . S
Cd584 O588 2.352 . S
Cd584 O592 2.277 1_554 S
Cd584 O593 2.356 . S
C585 O590 1.209 . S
C585 O592 1.226 . S
O586 Cd582 2.285 . S
O586 Cd584 2.411 . S
O586 C589 1.320 . S
O587 Cd584 2.333 . S
O587 C589 1.214 . S
O588 Cd584 2.352 . S
O588 C591 1.258 . S
C589 O586 1.320 . S
C589 O587 1.214 . S
O590 Cd582 2.275 1_556 S
O590 C585 1.209 . S
C591 O588 1.258 . S
C591 O593 1.282 . S
O592 Cd584 2.277 1_556 S
O592 C585 1.226 . S
O593 Cd584 2.356 . S
O593 C591 1.282 . S
C594 O595 1.306 . S
C594 O597 1.160 . S
O595 C594 1.306 . S
O595 Cd596 2.228 . S
Cd596 O595 2.228 . S
Cd596 O600 2.273 . S
Cd596 O604 2.277 . S
O597 C594 1.160 . S
O597 Cd598 2.203 . S
Cd598 O597 2.203 . S
Cd598 O600 2.411 . S
Cd598 O601 2.333 . S
Cd598 O602 2.352 . S
Cd598 O606 2.277 . S
Cd598 O607 2.356 . S
C599 O604 1.209 . S
C599 O606 1.226 . S
O600 Cd596 2.273 . S
O600 Cd598 2.411 . S
O600 C603 1.320 . S
O601 Cd598 2.333 . S
O601 C603 1.214 . S
O602 Cd598 2.352 . S
O602 C605 1.258 . S
C603 O600 1.320 . S
C603 O601 1.214 . S
O604 Cd596 2.277 . S
O604 C599 1.209 . S
C605 O602 1.258 . S
C605 O607 1.282 . S
O606 Cd598 2.277 . S
O606 C599 1.226 . S
O607 Cd598 2.356 . S
O607 C605 1.282 . S
H608 C614 0.930 . S
H609 C618 0.930 . S
H610 C623 0.929 . S
H611 C621 0.929 . S
H612 C616 0.929 . S
H613 C622 0.929 . S
C614 H608 0.930 . S
C614 C615 1.367 . S
C614 C622 1.378 . S
C615 C614 1.367 . S
C615 C623 1.433 . S
C616 H612 0.929 . S
C616 C618 1.378 . S
C616 C620 1.350 . S
C617 C620 1.463 . S
C617 C622 1.350 . S
C617 N625 1.427 . S
C618 H609 0.930 . S
C618 C616 1.378 . S
C618 C619 1.367 . S
C619 C618 1.367 . S
C619 C621 1.433 . S
C620 C616 1.350 . S
C620 C617 1.463 . S
C620 N624 1.427 . S
C621 H611 0.929 . S
C621 C619 1.433 . S
C621 N624 1.384 . S
C622 H613 0.929 . S
C622 C614 1.378 . S
C622 C617 1.350 . S
C623 H610 0.929 . S
C623 C615 1.433 . S
C623 N625 1.384 . S
N624 C620 1.427 . S
N624 C621 1.384 . S
N625 C617 1.427 . S
N625 C623 1.384 . S
H626 C632 0.930 . S
H627 C636 0.930 . S
H628 C641 0.929 . S
H629 C639 0.929 . S
H630 C634 0.929 . S
H631 C640 0.929 . S
C632 H626 0.930 . S
C632 C633 1.367 . S
C632 C640 1.378 . S
C633 C632 1.367 . S
C633 C641 1.433 . S
C634 H630 0.929 . S
C634 C636 1.378 . S
C634 C638 1.350 . S
C635 C638 1.463 . S
C635 C640 1.350 . S
C635 N643 1.427 . S
C636 H627 0.930 . S
C636 C634 1.378 . S
C636 C637 1.367 . S
C637 C636 1.367 . S
C637 C639 1.433 . S
C638 C634 1.350 . S
C638 C635 1.463 . S
C638 N642 1.427 . S
C639 H629 0.929 . S
C639 C637 1.433 . S
C639 N642 1.384 . S
C640 H631 0.929 . S
C640 C632 1.378 . S
C640 C635 1.350 . S
C641 H628 0.929 . S
C641 C633 1.433 . S
C641 N643 1.384 . S
N642 C638 1.427 . S
N642 C639 1.384 . S
N643 C635 1.427 . S
N643 C641 1.384 . S
H644 C650 0.930 . S
H645 C654 0.930 . S
H646 C659 0.929 . S
H647 C657 0.929 . S
H648 C652 0.929 . S
H649 C658 0.929 . S
C650 H644 0.930 . S
C650 C651 1.367 . S
C650 C658 1.378 . S
C651 C650 1.367 . S
C651 C659 1.433 . S
C652 H648 0.929 . S
C652 C654 1.378 . S
C652 C656 1.350 . S
C653 C656 1.463 . S
C653 C658 1.350 . S
C653 N661 1.427 . S
C654 H645 0.930 . S
C654 C652 1.378 . S
C654 C655 1.367 . S
C655 C654 1.367 . S
C655 C657 1.433 . S
C656 C652 1.350 . S
C656 C653 1.463 . S
C656 N660 1.427 . S
C657 H647 0.929 . S
C657 C655 1.433 . S
C657 N660 1.384 . S
C658 H649 0.929 . S
C658 C650 1.378 . S
C658 C653 1.350 . S
C659 H646 0.929 . S
C659 C651 1.433 . S
C659 N661 1.384 . S
N660 C656 1.427 . S
N660 C657 1.384 . S
N661 C653 1.427 . S
N661 C659 1.384 . S
H662 C668 0.930 . S
H663 C672 0.930 . S
H664 C677 0.929 . S
H665 C675 0.929 . S
H666 C670 0.929 . S
H667 C676 0.929 . S
C668 H662 0.930 . S
C668 C669 1.367 . S
C668 C676 1.378 . S
C669 C668 1.367 . S
C669 C677 1.433 1_554 S
C670 H666 0.929 . S
C670 C672 1.378 . S
C670 C674 1.350 1_556 S
C671 C674 1.463 . S
C671 C676 1.350 . S
C671 N679 1.427 1_554 S
C672 H663 0.930 . S
C672 C670 1.378 . S
C672 C673 1.367 1_556 S
C673 C672 1.367 1_554 S
C673 C675 1.433 . S
C674 C670 1.350 1_554 S
C674 C671 1.463 . S
C674 N678 1.427 . S
C675 H665 0.929 . S
C675 C673 1.433 . S
C675 N678 1.384 . S
C676 H667 0.929 . S
C676 C668 1.378 . S
C676 C671 1.350 . S
C677 H664 0.929 . S
C677 C669 1.433 1_556 S
C677 N679 1.384 . S
N678 C674 1.427 . S
N678 C675 1.384 . S
N679 C671 1.427 1_556 S
N679 C677 1.384 . S
H680 C686 0.930 . S
H681 C690 0.930 . S
H682 C695 0.929 . S
H683 C693 0.929 . S
H684 C688 0.929 . S
H685 C694 0.929 . S
C686 H680 0.930 . S
C686 C687 1.367 1_554 S
C686 C694 1.378 . S
C687 C686 1.367 1_556 S
C687 C695 1.433 . S
C688 H684 0.929 . S
C688 C690 1.378 . S
C688 C692 1.350 . S
C689 C692 1.463 . S
C689 C694 1.350 1_556 S
C689 N697 1.427 . S
C690 H681 0.930 . S
C690 C688 1.378 . S
C690 C691 1.376 . S
C691 C690 1.376 . S
C691 C693 1.425 1_556 S
C692 C688 1.350 . S
C692 C689 1.463 . S
C692 N696 1.427 1_556 S
C693 H683 0.929 . S
C693 C691 1.425 1_554 S
C693 N696 1.384 . S
C694 H685 0.929 . S
C694 C686 1.378 . S
C694 C689 1.350 1_554 S
C695 H682 0.929 . S
C695 C687 1.433 . S
C695 N697 1.384 . S
N696 C692 1.427 1_554 S
N696 C693 1.384 . S
N697 C689 1.427 . S
N697 C695 1.384 . S
H698 C704 0.930 . S
H699 C708 0.930 . S
H700 C713 0.929 . S
H701 C711 0.929 . S
H702 C706 0.929 . S
H703 C712 0.929 . S
C704 H698 0.930 . S
C704 C705 1.367 . S
C704 C712 1.378 . S
C705 C704 1.367 . S
C705 C713 1.433 . S
C706 H702 0.929 . S
C706 C708 1.378 . S
C706 C710 1.350 . S
C707 C710 1.463 . S
C707 C712 1.350 . S
C707 N715 1.427 . S
C708 H699 0.930 . S
C708 C706 1.378 . S
C708 C709 1.367 . S
C709 C708 1.367 . S
C709 C711 1.433 . S
C710 C706 1.350 . S
C710 C707 1.463 . S
C710 N714 1.427 . S
C711 H701 0.929 . S
C711 C709 1.433 . S
C711 N714 1.384 . S
C712 H703 0.929 . S
C712 C704 1.378 . S
C712 C707 1.350 . S
C713 H700 0.929 . S
C713 C705 1.433 . S
C713 N715 1.384 . S
N714 C710 1.427 . S
N714 C711 1.384 . S
N715 C707 1.427 . S
N715 C713 1.384 . S
H716 C722 0.930 . S
H717 C726 0.930 . S
H718 C731 0.929 . S
H719 C729 0.929 . S
H720 C724 0.929 . S
H721 C730 0.929 . S
C722 H716 0.930 . S
C722 C723 1.367 . S
C722 C730 1.378 . S
C723 C722 1.367 . S
C723 C731 1.433 . S
C724 H720 0.929 . S
C724 C726 1.378 . S
C724 C728 1.350 . S
C725 C728 1.463 . S
C725 C730 1.350 . S
C725 N733 1.427 . S
C726 H717 0.930 . S
C726 C724 1.378 . S
C726 C727 1.367 . S
C727 C726 1.367 . S
C727 C729 1.433 . S
C728 C724 1.350 . S
C728 C725 1.463 . S
C728 N732 1.427 . S
C729 H719 0.929 . S
C729 C727 1.433 . S
C729 N732 1.384 . S
C730 H721 0.929 . S
C730 C722 1.378 . S
C730 C725 1.350 . S
C731 H718 0.929 . S
C731 C723 1.433 . S
C731 N733 1.384 . S
N732 C728 1.427 . S
N732 C729 1.384 . S
N733 C725 1.427 . S
N733 C731 1.384 . S
H734 C740 0.930 . S
H735 C744 0.930 . S
H736 C749 0.929 . S
H737 C747 0.929 . S
H738 C742 0.929 . S
H739 C748 0.929 . S
C740 H734 0.930 . S
C740 C741 1.367 . S
C740 C748 1.378 . S
C741 C740 1.367 . S
C741 C749 1.433 . S
C742 H738 0.929 . S
C742 C744 1.378 . S
C742 C746 1.350 . S
C743 C746 1.463 . S
C743 C748 1.350 . S
C743 N751 1.427 . S
C744 H735 0.930 . S
C744 C742 1.378 . S
C744 C745 1.367 . S
C745 C744 1.367 . S
C745 C747 1.433 . S
C746 C742 1.350 . S
C746 C743 1.463 . S
C746 N750 1.427 . S
C747 H737 0.929 . S
C747 C745 1.433 . S
C747 N750 1.384 . S
C748 H739 0.929 . S
C748 C740 1.378 . S
C748 C743 1.350 . S
C749 H736 0.929 . S
C749 C741 1.433 . S
C749 N751 1.384 . S
N750 C746 1.427 . S
N750 C747 1.384 . S
N751 C743 1.427 . S
N751 C749 1.384 . S
H752 C758 0.930 . S
H753 C762 0.930 . S
H754 C767 0.929 . S
H755 C765 0.929 . S
H756 C760 0.929 . S
H757 C766 0.929 . S
C758 H752 0.930 . S
C758 C759 1.367 . S
C758 C766 1.378 . S
C759 C758 1.367 . S
C759 C767 1.433 . S
C760 H756 0.929 . S
C760 C762 1.378 . S
C760 C764 1.350 . S
C761 C764 1.463 . S
C761 C766 1.350 . S
C761 N769 1.427 . S
C762 H753 0.930 . S
C762 C760 1.378 . S
C762 C763 1.367 . S
C763 C762 1.367 . S
C763 C765 1.433 . S
C764 C760 1.350 . S
C764 C761 1.463 . S
C764 N768 1.427 . S
C765 H755 0.929 . S
C765 C763 1.433 . S
C765 N768 1.384 . S
C766 H757 0.929 . S
C766 C758 1.378 . S
C766 C761 1.350 . S
C767 H754 0.929 . S
C767 C759 1.433 . S
C767 N769 1.384 . S
N768 C764 1.427 . S
N768 C765 1.384 . S
N769 C761 1.427 . S
N769 C767 1.384 . S
H770 C776 0.930 . S
H771 C780 0.930 . S
H772 C785 0.929 . S
H773 C783 0.929 . S
H774 C778 0.929 . S
H775 C784 0.929 . S
C776 H770 0.930 . S
C776 C777 1.367 1_556 S
C776 C784 1.378 . S
C777 C776 1.367 1_554 S
C777 C785 1.433 . S
C778 H774 0.929 . S
C778 C780 1.378 . S
C778 C782 1.350 . S
C779 C782 1.463 . S
C779 C784 1.350 1_554 S
C779 N787 1.427 . S
C780 H771 0.930 . S
C780 C778 1.378 . S
C780 C781 1.367 . S
C781 C780 1.367 . S
C781 C783 1.433 1_554 S
C782 C778 1.350 . S
C782 C779 1.463 . S
C782 N786 1.427 1_554 S
C783 H773 0.929 . S
C783 C781 1.433 1_556 S
C783 N786 1.384 . S
C784 H775 0.929 . S
C784 C776 1.378 . S
C784 C779 1.350 1_556 S
C785 H772 0.929 . S
C785 C777 1.433 . S
C785 N787 1.384 . S
N786 C782 1.427 1_556 S
N786 C783 1.384 . S
N787 C779 1.427 . S
N787 C785 1.384 . S
H788 C794 0.930 . S
H789 C798 0.930 . S
H790 C803 0.929 . S
H791 C801 0.929 . S
H792 C796 0.929 . S
H793 C802 0.929 . S
C794 H788 0.930 . S
C794 C795 1.367 . S
C794 C802 1.378 . S
C795 C794 1.367 . S
C795 C803 1.433 . S
C796 H792 0.929 . S
C796 C798 1.378 . S
C796 C800 1.350 . S
C797 C800 1.463 . S
C797 C802 1.350 . S
C797 N805 1.427 . S
C798 H789 0.930 . S
C798 C796 1.378 . S
C798 C799 1.367 . S
C799 C798 1.367 . S
C799 C801 1.433 . S
C800 C796 1.350 . S
C800 C797 1.463 . S
C800 N804 1.427 . S
C801 H791 0.929 . S
C801 C799 1.433 . S
C801 N804 1.384 . S
C802 H793 0.929 . S
C802 C794 1.378 . S
C802 C797 1.350 . S
C803 H790 0.929 . S
C803 C795 1.433 . S
C803 N805 1.384 . S
N804 C800 1.427 . S
N804 C801 1.384 . S
N805 C797 1.427 . S
N805 C803 1.384 . S
H806 C812 0.930 . S
H807 C816 0.930 . S
H808 C821 0.929 . S
H809 C819 0.929 . S
H810 C814 0.929 . S
H811 C820 0.929 . S
C812 H806 0.930 . S
C812 C813 1.367 . S
C812 C820 1.378 . S
C813 C812 1.367 . S
C813 C821 1.433 . S
C814 H810 0.929 . S
C814 C816 1.378 . S
C814 C818 1.350 . S
C815 C818 1.463 . S
C815 C820 1.350 . S
C815 N823 1.427 . S
C816 H807 0.930 . S
C816 C814 1.378 . S
C816 C817 1.367 . S
C817 C816 1.367 . S
C817 C819 1.433 . S
C818 C814 1.350 . S
C818 C815 1.463 . S
C818 N822 1.427 . S
C819 H809 0.929 . S
C819 C817 1.433 . S
C819 N822 1.384 . S
C820 H811 0.929 . S
C820 C812 1.378 . S
C820 C815 1.350 . S
C821 H808 0.929 . S
C821 C813 1.433 . S
C821 N823 1.384 . S
N822 C818 1.427 . S
N822 C819 1.384 . S
N823 C815 1.427 . S
N823 C821 1.384 . S
H824 C830 0.930 . S
H825 C834 0.930 . S
H826 C839 0.929 . S
H827 C837 0.929 . S
H828 C832 0.929 . S
H829 C838 0.929 . S
C830 H824 0.930 . S
C830 C831 1.367 . S
C830 C838 1.378 . S
C831 C830 1.367 . S
C831 C839 1.433 . S
C832 H828 0.929 . S
C832 C834 1.378 . S
C832 C836 1.350 . S
C833 C836 1.463 . S
C833 C838 1.350 . S
C833 N841 1.427 . S
C834 H825 0.930 . S
C834 C832 1.378 . S
C834 C835 1.367 . S
C835 C834 1.367 . S
C835 C837 1.433 . S
C836 C832 1.350 . S
C836 C833 1.463 . S
C836 N840 1.427 . S
C837 H827 0.929 . S
C837 C835 1.433 . S
C837 N840 1.384 . S
C838 H829 0.929 . S
C838 C830 1.378 . S
C838 C833 1.350 . S
C839 H826 0.929 . S
C839 C831 1.433 . S
C839 N841 1.384 . S
N840 C836 1.427 . S
N840 C837 1.384 . S
N841 C833 1.427 . S
N841 C839 1.384 . S
H842 C848 0.930 . S
H843 C852 0.930 . S
H844 C857 0.929 . S
H845 C855 0.929 . S
H846 C850 0.929 . S
H847 C856 0.929 . S
C848 H842 0.930 . S
C848 C849 1.367 . S
C848 C856 1.378 . S
C849 C848 1.367 . S
C849 C857 1.433 . S
C850 H846 0.929 . S
C850 C852 1.378 . S
C850 C854 1.350 . S
C851 C854 1.463 . S
C851 C856 1.350 . S
C851 N859 1.427 . S
C852 H843 0.930 . S
C852 C850 1.378 . S
C852 C853 1.367 . S
C853 C852 1.367 . S
C853 C855 1.433 . S
C854 C850 1.350 . S
C854 C851 1.463 . S
C854 N858 1.427 . S
C855 H845 0.929 . S
C855 C853 1.433 . S
C855 N858 1.384 . S
C856 H847 0.929 . S
C856 C848 1.378 . S
C856 C851 1.350 . S
C857 H844 0.929 . S
C857 C849 1.433 . S
C857 N859 1.384 . S
N858 C854 1.427 . S
N858 C855 1.384 . S
N859 C851 1.427 . S
N859 C857 1.384 . S
H860 C866 0.930 . S
H861 C870 0.930 . S
H862 C875 0.929 . S
H863 C873 0.929 . S
H864 C868 0.929 . S
H865 C874 0.929 . S
C866 H860 0.930 . S
C866 C867 1.367 . S
C866 C874 1.378 . S
C867 C866 1.367 . S
C867 C875 1.433 1_556 S
C868 H864 0.929 . S
C868 C870 1.378 . S
C868 C872 1.350 1_554 S
C869 C872 1.463 . S
C869 C874 1.350 . S
C869 N877 1.427 1_556 S
C870 H861 0.930 . S
C870 C868 1.378 . S
C870 C871 1.367 1_554 S
C871 C870 1.367 1_556 S
C871 C873 1.433 . S
C872 C868 1.350 1_556 S
C872 C869 1.463 . S
C872 N876 1.427 . S
C873 H863 0.929 . S
C873 C871 1.433 . S
C873 N876 1.384 . S
C874 H865 0.929 . S
C874 C866 1.378 . S
C874 C869 1.350 . S
C875 H862 0.929 . S
C875 C867 1.433 1_554 S
C875 N877 1.384 . S
N876 C872 1.427 . S
N876 C873 1.384 . S
N877 C869 1.427 1_554 S
N877 C875 1.384 . S
H878 C884 0.930 . S
H879 C888 0.930 . S
H880 C893 0.929 . S
H881 C891 0.929 . S
H882 C886 0.929 . S
H883 C892 0.929 . S
C884 H878 0.930 . S
C884 C885 1.367 . S
C884 C892 1.378 . S
C885 C884 1.367 . S
C885 C893 1.433 . S
C886 H882 0.929 . S
C886 C888 1.378 . S
C886 C890 1.350 . S
C887 C890 1.463 . S
C887 C892 1.350 . S
C887 N895 1.427 . S
C888 H879 0.930 . S
C888 C886 1.378 . S
C888 C889 1.367 . S
C889 C888 1.367 . S
C889 C891 1.433 . S
C890 C886 1.350 . S
C890 C887 1.463 . S
C890 N894 1.427 . S
C891 H881 0.929 . S
C891 C889 1.433 . S
C891 N894 1.384 . S
C892 H883 0.929 . S
C892 C884 1.378 . S
C892 C887 1.350 . S
C893 H880 0.929 . S
C893 C885 1.433 . S
C893 N895 1.384 . S
N894 C890 1.427 . S
N894 C891 1.384 . S
N895 C887 1.427 . S
N895 C893 1.384 . S
H896 C902 0.930 . S
H897 C906 0.930 . S
H898 C911 0.929 . S
H899 C909 0.929 . S
H900 C904 0.929 . S
H901 C910 0.929 . S
C902 H896 0.930 . S
C902 C903 1.367 . S
C902 C910 1.378 . S
C903 C902 1.367 . S
C903 C911 1.433 . S
C904 H900 0.929 . S
C904 C906 1.378 . S
C904 C908 1.350 . S
C905 C908 1.463 . S
C905 C910 1.350 . S
C905 N913 1.427 . S
C906 H897 0.930 . S
C906 C904 1.378 . S
C906 C907 1.367 . S
C907 C906 1.367 . S
C907 C909 1.433 . S
C908 C904 1.350 . S
C908 C905 1.463 . S
C908 N912 1.427 . S
C909 H899 0.929 . S
C909 C907 1.433 . S
C909 N912 1.384 . S
C910 H901 0.929 . S
C910 C902 1.378 . S
C910 C905 1.350 . S
C911 H898 0.929 . S
C911 C903 1.433 . S
C911 N913 1.384 . S
N912 C908 1.427 . S
N912 C909 1.384 . S
N913 C905 1.427 . S
N913 C911 1.384 . S
H914 C920 0.930 . S
H915 C924 0.930 . S
H916 C929 0.929 . S
H917 C927 0.929 . S
H918 C922 0.929 . S
H919 C928 0.929 . S
C920 H914 0.930 . S
C920 C921 1.367 . S
C920 C928 1.378 . S
C921 C920 1.367 . S
C921 C929 1.433 . S
C922 H918 0.929 . S
C922 C924 1.378 . S
C922 C926 1.350 . S
C923 C926 1.463 . S
C923 C928 1.350 . S
C923 N931 1.427 . S
C924 H915 0.930 . S
C924 C922 1.378 . S
C924 C925 1.367 . S
C925 C924 1.367 . S
C925 C927 1.433 . S
C926 C922 1.350 . S
C926 C923 1.463 . S
C926 N930 1.427 . S
C927 H917 0.929 . S
C927 C925 1.433 . S
C927 N930 1.384 . S
C928 H919 0.929 . S
C928 C920 1.378 . S
C928 C923 1.350 . S
C929 H916 0.929 . S
C929 C921 1.433 . S
C929 N931 1.384 . S
N930 C926 1.427 . S
N930 C927 1.384 . S
N931 C923 1.427 . S
N931 C929 1.384 . S
H932 C938 0.930 . S
H933 C942 0.930 . S
H934 C947 0.929 . S
H935 C945 0.929 . S
H936 C940 0.929 . S
H937 C946 0.929 . S
C938 H932 0.930 . S
C938 C939 1.367 . S
C938 C946 1.378 . S
C939 C938 1.367 . S
C939 C947 1.433 . S
C940 H936 0.929 . S
C940 C942 1.378 . S
C940 C944 1.350 . S
C941 C944 1.463 . S
C941 C946 1.350 . S
C941 N949 1.427 . S
C942 H933 0.930 . S
C942 C940 1.378 . S
C942 C943 1.367 . S
C943 C942 1.367 . S
C943 C945 1.433 . S
C944 C940 1.350 . S
C944 C941 1.463 . S
C944 N948 1.427 . S
C945 H935 0.929 . S
C945 C943 1.433 . S
C945 N948 1.384 . S
C946 H937 0.929 . S
C946 C938 1.378 . S
C946 C941 1.350 . S
C947 H934 0.929 . S
C947 C939 1.433 . S
C947 N949 1.384 . S
N948 C944 1.427 . S
N948 C945 1.384 . S
N949 C941 1.427 . S
N949 C947 1.384 . S
H950 C956 0.930 . S
H951 C960 0.930 . S
H952 C965 0.929 . S
H953 C963 0.929 . S
H954 C958 0.929 . S
H955 C964 0.929 . S
C956 H950 0.930 . S
C956 C957 1.367 . S
C956 C964 1.378 . S
C957 C956 1.367 . S
C957 C965 1.433 . S
C958 H954 0.929 . S
C958 C960 1.378 . S
C958 C962 1.350 . S
C959 C962 1.463 . S
C959 C964 1.350 . S
C959 N967 1.427 . S
C960 H951 0.930 . S
C960 C958 1.378 . S
C960 C961 1.367 . S
C961 C960 1.367 . S
C961 C963 1.433 . S
C962 C958 1.350 . S
C962 C959 1.463 . S
C962 N966 1.427 . S
C963 H953 0.929 . S
C963 C961 1.433 . S
C963 N966 1.384 . S
C964 H955 0.929 . S
C964 C956 1.378 . S
C964 C959 1.350 . S
C965 H952 0.929 . S
C965 C957 1.433 . S
C965 N967 1.384 . S
N966 C962 1.427 . S
N966 C963 1.384 . S
N967 C959 1.427 . S
N967 C965 1.384 . S
H968 C974 0.930 . S
H969 C978 0.930 . S
H970 C983 0.929 . S
H971 C981 0.929 . S
H972 C976 0.929 . S
H973 C982 0.929 . S
C974 H968 0.930 . S
C974 C975 1.367 . S
C974 C982 1.378 . S
C975 C974 1.367 . S
C975 C983 1.433 . S
C976 H972 0.929 . S
C976 C978 1.378 . S
C976 C980 1.350 . S
C977 C980 1.463 . S
C977 C982 1.350 . S
C977 N985 1.427 . S
C978 H969 0.930 . S
C978 C976 1.378 . S
C978 C979 1.367 . S
C979 C978 1.367 . S
C979 C981 1.433 . S
C980 C976 1.350 . S
C980 C977 1.463 . S
C980 N984 1.427 . S
C981 H971 0.929 . S
C981 C979 1.433 . S
C981 N984 1.384 . S
C982 H973 0.929 . S
C982 C974 1.378 . S
C982 C977 1.350 . S
C983 H970 0.929 . S
C983 C975 1.433 . S
C983 N985 1.384 . S
N984 C980 1.427 . S
N984 C981 1.384 . S
N985 C977 1.427 . S
N985 C983 1.384 . S
H986 C992 0.930 . S
H987 C996 0.930 . S
H988 C1001 0.929 . S
H989 C999 0.929 . S
H990 C994 0.929 . S
H991 C1000 0.929 . S
C992 H986 0.930 . S
C992 C993 1.367 . S
C992 C1000 1.378 . S
C993 C992 1.367 . S
C993 C1001 1.433 . S
C994 H990 0.929 . S
C994 C996 1.378 . S
C994 C998 1.350 . S
C995 C998 1.463 . S
C995 C1000 1.350 . S
C995 N1003 1.427 . S
C996 H987 0.930 . S
C996 C994 1.378 . S
C996 C997 1.367 . S
C997 C996 1.367 . S
C997 C999 1.433 . S
C998 C994 1.350 . S
C998 C995 1.463 . S
C998 N1002 1.427 . S
C999 H989 0.929 . S
C999 C997 1.433 . S
C999 N1002 1.384 . S
C1000 H991 0.929 . S
C1000 C992 1.378 . S
C1000 C995 1.350 . S
C1001 H988 0.929 . S
C1001 C993 1.433 . S
C1001 N1003 1.384 . S
N1002 C998 1.427 . S
N1002 C999 1.384 . S
N1003 C995 1.427 . S
N1003 C1001 1.384 . S
H1004 C1010 0.930 . S
H1005 C1014 0.930 . S
H1006 C1019 0.929 . S
H1007 C1017 0.929 . S
H1008 C1012 0.929 . S
H1009 C1018 0.929 . S
C1010 H1004 0.930 . S
C1010 C1011 1.367 . S
C1010 C1018 1.378 . S
C1011 C1010 1.367 . S
C1011 C1019 1.433 . S
C1012 H1008 0.929 . S
C1012 C1014 1.378 . S
C1012 C1016 1.350 . S
C1013 C1016 1.463 . S
C1013 C1018 1.350 . S
C1013 N1021 1.427 . S
C1014 H1005 0.930 . S
C1014 C1012 1.378 . S
C1014 C1015 1.367 . S
C1015 C1014 1.367 . S
C1015 C1017 1.433 . S
C1016 C1012 1.350 . S
C1016 C1013 1.463 . S
C1016 N1020 1.427 . S
C1017 H1007 0.929 . S
C1017 C1015 1.433 . S
C1017 N1020 1.384 . S
C1018 H1009 0.929 . S
C1018 C1010 1.378 . S
C1018 C1013 1.350 . S
C1019 H1006 0.929 . S
C1019 C1011 1.433 . S
C1019 N1021 1.384 . S
N1020 C1016 1.427 . S
N1020 C1017 1.384 . S
N1021 C1013 1.427 . S
N1021 C1019 1.384 . S
H1022 C1028 0.930 . S
H1023 C1032 0.930 . S
H1024 C1037 0.929 . S
H1025 C1035 0.929 . S
H1026 C1030 0.929 . S
H1027 C1036 0.929 . S
C1028 H1022 0.930 . S
C1028 C1029 1.367 . S
C1028 C1036 1.378 . S
C1029 C1028 1.367 . S
C1029 C1037 1.433 . S
C1030 H1026 0.929 . S
C1030 C1032 1.378 . S
C1030 C1034 1.350 . S
C1031 C1034 1.463 . S
C1031 C1036 1.350 . S
C1031 N1039 1.427 . S
C1032 H1023 0.930 . S
C1032 C1030 1.378 . S
C1032 C1033 1.367 . S
C1033 C1032 1.367 . S
C1033 C1035 1.433 . S
C1034 C1030 1.350 . S
C1034 C1031 1.463 . S
C1034 N1038 1.427 . S
C1035 H1025 0.929 . S
C1035 C1033 1.433 . S
C1035 N1038 1.384 . S
C1036 H1027 0.929 . S
C1036 C1028 1.378 . S
C1036 C1031 1.350 . S
C1037 H1024 0.929 . S
C1037 C1029 1.433 . S
C1037 N1039 1.384 . S
N1038 C1034 1.427 . S
N1038 C1035 1.384 . S
N1039 C1031 1.427 . S
N1039 C1037 1.384 . S
H1040 C1046 0.930 . S
H1041 C1050 0.930 . S
H1042 C1055 0.929 . S
H1043 C1053 0.929 . S
H1044 C1048 0.929 . S
H1045 C1054 0.929 . S
C1046 H1040 0.930 . S
C1046 C1047 1.367 . S
C1046 C1054 1.378 . S
C1047 C1046 1.367 . S
C1047 C1055 1.433 . S
C1048 H1044 0.929 . S
C1048 C1050 1.378 . S
C1048 C1052 1.350 . S
C1049 C1052 1.463 . S
C1049 C1054 1.350 . S
C1049 N1057 1.427 . S
C1050 H1041 0.930 . S
C1050 C1048 1.378 . S
C1050 C1051 1.367 . S
C1051 C1050 1.367 . S
C1051 C1053 1.433 . S
C1052 C1048 1.350 . S
C1052 C1049 1.463 . S
C1052 N1056 1.427 . S
C1053 H1043 0.929 . S
C1053 C1051 1.433 . S
C1053 N1056 1.384 . S
C1054 H1045 0.929 . S
C1054 C1046 1.378 . S
C1054 C1049 1.350 . S
C1055 H1042 0.929 . S
C1055 C1047 1.433 . S
C1055 N1057 1.384 . S
N1056 C1052 1.427 . S
N1056 C1053 1.384 . S
N1057 C1049 1.427 . S
N1057 C1055 1.384 . S
H1058 C1064 0.930 . S
H1059 C1068 0.930 . S
H1060 C1073 0.929 . S
H1061 C1071 0.929 . S
H1062 C1066 0.929 . S
H1063 C1072 0.929 . S
C1064 H1058 0.930 . S
C1064 C1065 1.367 . S
C1064 C1072 1.378 . S
C1065 C1064 1.367 . S
C1065 C1073 1.433 . S
C1066 H1062 0.929 . S
C1066 C1068 1.378 . S
C1066 C1070 1.350 . S
C1067 C1070 1.463 . S
C1067 C1072 1.350 . S
C1067 N1075 1.427 . S
C1068 H1059 0.930 . S
C1068 C1066 1.378 . S
C1068 C1069 1.367 . S
C1069 C1068 1.367 . S
C1069 C1071 1.433 . S
C1070 C1066 1.350 . S
C1070 C1067 1.463 . S
C1070 N1074 1.427 . S
C1071 H1061 0.929 . S
C1071 C1069 1.433 . S
C1071 N1074 1.384 . S
C1072 H1063 0.929 . S
C1072 C1064 1.378 . S
C1072 C1067 1.350 . S
C1073 H1060 0.929 . S
C1073 C1065 1.433 . S
C1073 N1075 1.384 . S
N1074 C1070 1.427 . S
N1074 C1071 1.384 . S
N1075 C1067 1.427 . S
N1075 C1073 1.384 . S
H1076 C1082 0.930 . S
H1077 C1086 0.930 . S
H1078 C1091 0.929 . S
H1079 C1089 0.929 . S
H1080 C1084 0.929 . S
H1081 C1090 0.929 . S
C1082 H1076 0.930 . S
C1082 C1083 1.367 . S
C1082 C1090 1.378 . S
C1083 C1082 1.367 . S
C1083 C1091 1.433 . S
C1084 H1080 0.929 . S
C1084 C1086 1.378 . S
C1084 C1088 1.350 . S
C1085 C1088 1.463 . S
C1085 C1090 1.350 . S
C1085 N1093 1.427 . S
C1086 H1077 0.930 . S
C1086 C1084 1.378 . S
C1086 C1087 1.367 . S
C1087 C1086 1.367 . S
C1087 C1089 1.433 . S
C1088 C1084 1.350 . S
C1088 C1085 1.463 . S
C1088 N1092 1.427 . S
C1089 H1079 0.929 . S
C1089 C1087 1.433 . S
C1089 N1092 1.384 . S
C1090 H1081 0.929 . S
C1090 C1082 1.378 . S
C1090 C1085 1.350 . S
C1091 H1078 0.929 . S
C1091 C1083 1.433 . S
C1091 N1093 1.384 . S
N1092 C1088 1.427 . S
N1092 C1089 1.384 . S
N1093 C1085 1.427 . S
N1093 C1091 1.384 . S
H1094 C1100 0.930 . S
H1095 C1104 0.930 . S
H1096 C1109 0.929 . S
H1097 C1107 0.929 . S
H1098 C1102 0.929 . S
H1099 C1108 0.929 . S
C1100 H1094 0.930 . S
C1100 C1101 1.367 . S
C1100 C1108 1.378 . S
C1101 C1100 1.367 . S
C1101 C1109 1.433 . S
C1102 H1098 0.929 . S
C1102 C1104 1.378 . S
C1102 C1106 1.350 . S
C1103 C1106 1.463 . S
C1103 C1108 1.350 . S
C1103 N1111 1.427 . S
C1104 H1095 0.930 . S
C1104 C1102 1.378 . S
C1104 C1105 1.367 . S
C1105 C1104 1.367 . S
C1105 C1107 1.433 . S
C1106 C1102 1.350 . S
C1106 C1103 1.463 . S
C1106 N1110 1.427 . S
C1107 H1097 0.929 . S
C1107 C1105 1.433 . S
C1107 N1110 1.384 . S
C1108 H1099 0.929 . S
C1108 C1100 1.378 . S
C1108 C1103 1.350 . S
C1109 H1096 0.929 . S
C1109 C1101 1.433 . S
C1109 N1111 1.384 . S
N1110 C1106 1.427 . S
N1110 C1107 1.384 . S
N1111 C1103 1.427 . S
N1111 C1109 1.384 . S
H1112 C1118 0.930 . S
H1113 C1122 0.930 . S
H1114 C1127 0.929 . S
H1115 C1125 0.929 . S
H1116 C1120 0.929 . S
H1117 C1126 0.929 . S
C1118 H1112 0.930 . S
C1118 C1119 1.367 . S
C1118 C1126 1.378 . S
C1119 C1118 1.367 . S
C1119 C1127 1.433 . S
C1120 H1116 0.929 . S
C1120 C1122 1.378 . S
C1120 C1124 1.350 . S
C1121 C1124 1.463 . S
C1121 C1126 1.350 . S
C1121 N1129 1.427 . S
C1122 H1113 0.930 . S
C1122 C1120 1.378 . S
C1122 C1123 1.367 . S
C1123 C1122 1.367 . S
C1123 C1125 1.433 . S
C1124 C1120 1.350 . S
C1124 C1121 1.463 . S
C1124 N1128 1.427 . S
C1125 H1115 0.929 . S
C1125 C1123 1.433 . S
C1125 N1128 1.384 . S
C1126 H1117 0.929 . S
C1126 C1118 1.378 . S
C1126 C1121 1.350 . S
C1127 H1114 0.929 . S
C1127 C1119 1.433 . S
C1127 N1129 1.384 . S
N1128 C1124 1.427 . S
N1128 C1125 1.384 . S
N1129 C1121 1.427 . S
N1129 C1127 1.384 . S
H1130 C1136 0.930 . S
H1131 C1140 0.930 . S
H1132 C1145 0.929 . S
H1133 C1143 0.929 . S
H1134 C1138 0.929 . S
H1135 C1144 0.929 . S
C1136 H1130 0.930 . S
C1136 C1137 1.367 . S
C1136 C1144 1.378 . S
C1137 C1136 1.367 . S
C1137 C1145 1.433 . S
C1138 H1134 0.929 . S
C1138 C1140 1.378 . S
C1138 C1142 1.350 . S
C1139 C1142 1.463 . S
C1139 C1144 1.350 . S
C1139 N1147 1.427 . S
C1140 H1131 0.930 . S
C1140 C1138 1.378 . S
C1140 C1141 1.367 . S
C1141 C1140 1.367 . S
C1141 C1143 1.433 . S
C1142 C1138 1.350 . S
C1142 C1139 1.463 . S
C1142 N1146 1.427 . S
C1143 H1133 0.929 . S
C1143 C1141 1.433 . S
C1143 N1146 1.384 . S
C1144 H1135 0.929 . S
C1144 C1136 1.378 . S
C1144 C1139 1.350 . S
C1145 H1132 0.929 . S
C1145 C1137 1.433 . S
C1145 N1147 1.384 . S
N1146 C1142 1.427 . S
N1146 C1143 1.384 . S
N1147 C1139 1.427 . S
N1147 C1145 1.384 . S
H1148 C1154 0.930 . S
H1149 C1158 0.930 . S
H1150 C1163 0.929 . S
H1151 C1161 0.929 . S
H1152 C1156 0.929 . S
H1153 C1162 0.929 . S
C1154 H1148 0.930 . S
C1154 C1155 1.367 . S
C1154 C1162 1.378 . S
C1155 C1154 1.367 . S
C1155 C1163 1.433 . S
C1156 H1152 0.929 . S
C1156 C1158 1.378 . S
C1156 C1160 1.350 . S
C1157 C1160 1.463 . S
C1157 C1162 1.350 . S
C1157 N1165 1.427 . S
C1158 H1149 0.930 . S
C1158 C1156 1.378 . S
C1158 C1159 1.367 . S
C1159 C1158 1.367 . S
C1159 C1161 1.433 . S
C1160 C1156 1.350 . S
C1160 C1157 1.463 . S
C1160 N1164 1.427 . S
C1161 H1151 0.929 . S
C1161 C1159 1.433 . S
C1161 N1164 1.384 . S
C1162 H1153 0.929 . S
C1162 C1154 1.378 . S
C1162 C1157 1.350 . S
C1163 H1150 0.929 . S
C1163 C1155 1.433 . S
C1163 N1165 1.384 . S
N1164 C1160 1.427 . S
N1164 C1161 1.384 . S
N1165 C1157 1.427 . S
N1165 C1163 1.384 . S
H1166 C1172 0.930 . S
H1167 C1176 0.930 . S
H1168 C1181 0.929 . S
H1169 C1179 0.929 . S
H1170 C1174 0.929 . S
H1171 C1180 0.929 . S
C1172 H1166 0.930 . S
C1172 C1173 1.367 . S
C1172 C1180 1.378 . S
C1173 C1172 1.367 . S
C1173 C1181 1.433 . S
C1174 H1170 0.929 . S
C1174 C1176 1.378 . S
C1174 C1178 1.350 . S
C1175 C1178 1.463 . S
C1175 C1180 1.350 . S
C1175 N1183 1.427 . S
C1176 H1167 0.930 . S
C1176 C1174 1.378 . S
C1176 C1177 1.367 . S
C1177 C1176 1.367 . S
C1177 C1179 1.433 . S
C1178 C1174 1.350 . S
C1178 C1175 1.463 . S
C1178 N1182 1.427 . S
C1179 H1169 0.929 . S
C1179 C1177 1.433 . S
C1179 N1182 1.384 . S
C1180 H1171 0.929 . S
C1180 C1172 1.378 . S
C1180 C1175 1.350 . S
C1181 H1168 0.929 . S
C1181 C1173 1.433 . S
C1181 N1183 1.384 . S
N1182 C1178 1.427 . S
N1182 C1179 1.384 . S
N1183 C1175 1.427 . S
N1183 C1181 1.384 . S
C619 C521 1.470 . S
C615 C35 1.313 . S
C637 C535 1.454 . S
C633 C115 1.323 . S
C655 C543 1.490 . S
C651 C177 1.340 . S
C669 C221 1.291 . S
C673 C501 1.458 . S
C687 C283 1.282 . S
C691 C507 1.439 1_556 S
C705 C363 1.297 . S
C709 C515 1.456 . S
C727 C529 1.557 . S
C723 C407 1.373 . S
C745 C549 1.495 . S
C741 C469 1.321 . S
C759 C159 1.274 . S
C763 C577 1.444 . S
C781 C591 1.531 . S
C777 C239 1.386 . S
C795 C53 1.328 . S
C799 C599 1.469 . S
C817 C563 1.403 . S
C813 C97 1.257 . S
C831 C425 1.331 . S
C835 C557 1.488 . S
C849 C487 1.322 . S
C853 C571 1.478 . S
C871 C585 1.484 . S
C867 C301 1.329 . S
C885 C345 1.358 . S
C889 C605 1.517 . S
C907 C524 1.835 . S
C903 C29 1.859 . S
C925 C547 1.868 . S
C921 C109 1.831 . S
C939 C171 1.831 . S
C943 C505 1.876 . S
C957 C215 1.887 . S
C961 C510 1.861 . S
C975 C277 1.859 . S
C979 C538 1.834 . S
C997 C496 1.848 . S
C993 C357 1.836 . S
C1015 C519 1.870 . S
C1011 C401 1.873 . S
C1033 C533 1.882 . S
C1029 C463 1.876 . S
C1051 C580 1.838 . S
C1047 C153 1.862 . S
C1069 C603 1.868 . S
C1065 C233 1.836 . S
C1083 C47 1.811 . S
C1087 C552 1.822 . S
C1105 C566 1.819 . S
C1101 C91 1.851 . S
C1123 C594 1.868 . S
C1119 C419 1.856 . S
C1137 C481 1.851 . S
C1141 C561 1.898 . S
C1159 C575 1.886 . S
C1155 C295 1.848 . S
C1177 C589 1.883 . S
C1173 C339 1.875 . S
