# Generated by pormake.
# Topology anh, (6,3)-cn, num edge types: 1
# Building blocks:
#     Node 0, Type 0, BuildingBlock: CUKXOW_clean_sbu_0, # of connection points: 6
#     Node 1, Type 0, BuildingBlock: CUKXOW_clean_sbu_0, # of connection points: 6
#     Node 2, Type 0, BuildingBlock: CUKXOW_clean_sbu_0, # of connection points: 6
#     Node 3, Type 1, BuildingBlock: BETDIP_clean_linker_0, # of connection points: 3
#     Node 4, Type 1, BuildingBlock: BETDIP_clean_linker_0, # of connection points: 3
#     Node 5, Type 1, BuildingBlock: BETDIP_clean_linker_0, # of connection points: 3
#     Node 6, Type 1, BuildingBlock: BETDIP_clean_linker_0, # of connection points: 3
#     Node 7, Type 1, BuildingBlock: BETDIP_clean_linker_0, # of connection points: 3
#     Node 8, Type 1, BuildingBlock: BETDIP_clean_linker_0, # of connection points: 3
#     Edge 9, Type (0, 1), BuildingBlock: UVAHIK_clean_linker_0, # of connection points: 2
#     Edge 10, Type (0, 1), BuildingBlock: UVAHIK_clean_linker_0, # of connection points: 2
#     Edge 11, Type (0, 1), BuildingBlock: UVAHIK_clean_linker_0, # of connection points: 2
#     Edge 12, Type (0, 1), BuildingBlock: UVAHIK_clean_linker_0, # of connection points: 2
#     Edge 13, Type (0, 1), BuildingBlock: UVAHIK_clean_linker_0, # of connection points: 2
#     Edge 14, Type (0, 1), BuildingBlock: UVAHIK_clean_linker_0, # of connection points: 2
#     Edge 15, Type (0, 1), BuildingBlock: UVAHIK_clean_linker_0, # of connection points: 2
#     Edge 16, Type (0, 1), BuildingBlock: UVAHIK_clean_linker_0, # of connection points: 2
#     Edge 17, Type (0, 1), BuildingBlock: UVAHIK_clean_linker_0, # of connection points: 2
#     Edge 18, Type (0, 1), BuildingBlock: UVAHIK_clean_linker_0, # of connection points: 2
#     Edge 19, Type (0, 1), BuildingBlock: UVAHIK_clean_linker_0, # of connection points: 2
#     Edge 20, Type (0, 1), BuildingBlock: UVAHIK_clean_linker_0, # of connection points: 2
#     Edge 21, Type (0, 1), BuildingBlock: UVAHIK_clean_linker_0, # of connection points: 2
#     Edge 22, Type (0, 1), BuildingBlock: UVAHIK_clean_linker_0, # of connection points: 2
#     Edge 23, Type (0, 1), BuildingBlock: UVAHIK_clean_linker_0, # of connection points: 2
#     Edge 24, Type (0, 1), BuildingBlock: UVAHIK_clean_linker_0, # of connection points: 2
#     Edge 25, Type (0, 1), BuildingBlock: UVAHIK_clean_linker_0, # of connection points: 2
#     Edge 26, Type (0, 1), BuildingBlock: UVAHIK_clean_linker_0, # of connection points: 2
# Relax obj value: 0.078
# Max RMSD: 0.171
# Mean RMSD: 0.106
data_MOF--net-anh--node1-CUKXOW_clean_sbu_0--node2-BETDIP_clean_linker_0--edge1-UVAHIK_clean_linker_0
_symmetry_space_group_name_H-M    P1
_symmetry_Int_Tables_number       1
_symmetry_cell_setting            triclinic
loop_
_symmetry_equiv_pos_as_xyz
'x, y, z'
_cell_length_a     37.952834
_cell_length_b     37.01914
_cell_length_c     63.09521
_cell_angle_alpha  98.97114
_cell_angle_beta   90.030639
_cell_angle_gamma 114.54372
loop_
_atom_site_label
_atom_site_type_symbol
_atom_site_fract_x
_atom_site_fract_y
_atom_site_fract_z
_atom_type_partial_charge
Tb0 Tb 0.08807 0.55612 0.14923 0.0
C1 C 0.05358 0.52383 0.19165 0.0
Tb2 Tb 0.03034 0.46228 0.14723 0.0
O3 O 0.04195 0.57841 0.14981 0.0
O4 O 0.0286 0.51827 0.14658 0.0
O5 O 0.08188 0.55208 0.1832 0.0
C6 C 0.96545 0.39501 0.14403 0.0
O7 O 0.02793 0.48948 0.18016 0.0
C8 C 0.10538 0.47646 0.15016 0.0
C9 C 0.06454 0.49423 0.10468 0.0
O10 O 0.99304 0.40763 0.15924 0.0
O11 O 0.97466 0.42002 0.13049 0.0
O12 O 0.0769 0.44099 0.1495 0.0
O13 O 0.08958 0.50012 0.14931 0.0
O14 O 0.03744 0.46528 0.11332 0.0
O15 O 0.08886 0.52978 0.1158 0.0
C16 C 0.15398 0.62218 0.15261 0.0
O17 O 0.12487 0.61279 0.13874 0.0
O18 O 0.14569 0.59471 0.16466 0.0
C19 C 1.01317 0.54279 0.14797 0.0
Tb20 Tb 0.52405 0.03391 0.50481 0.0
C21 C 0.56385 0.06005 0.46265 0.0
Tb22 Tb 0.61137 0.10131 0.50822 0.0
O23 O 0.50327 0.07743 0.49624 0.0
O24 O 0.5551 0.09685 0.515 0.0
O25 O 0.5363 0.03122 0.47109 0.0
C26 C 0.66646 0.17485 0.5079 0.0
O27 O 0.5929 0.09137 0.47423 0.0
C28 C 0.60641 0.02685 0.50175 0.0
C29 C 0.57422 0.06901 0.54993 0.0
O30 O 0.6329 0.1589 0.49715 0.0
O31 O 0.66947 0.14912 0.51891 0.0
O32 O 0.63953 0.05858 0.50368 0.0
O33 O 0.58065 0.03964 0.50268 0.0
O34 O 0.60059 0.0998 0.54204 0.0
O35 O 0.54485 0.03848 0.53791 0.0
C36 C 0.46013 0.96636 0.50448 0.0
O37 O 0.46629 1.00126 0.51575 0.0
O38 O 0.48982 0.96967 0.49341 0.0
C39 C 0.534 0.10862 0.50526 0.0
Tb40 Tb 0.54289 0.58097 0.83095 0.0
C41 C 0.57902 0.59508 0.87746 0.0
Tb42 Tb 0.63249 0.6045 0.8376 0.0
O43 O 0.53125 0.52269 0.84015 0.0
O44 O 0.5815 0.55274 0.82511 0.0
O45 O 0.55046 0.59649 0.86584 0.0
C46 C 0.69547 0.59177 0.84284 0.0
O47 O 0.61085 0.59382 0.86918 0.0
C48 C 0.61743 0.66877 0.84331 0.0
C49 C 0.59674 0.59984 0.79195 0.0
O50 O 0.69228 0.61572 0.83066 0.0
O51 O 0.66358 0.57575 0.85222 0.0
O52 O 0.65243 0.67088 0.84551 0.0
O53 O 0.59495 0.63215 0.83875 0.0
O54 O 0.62453 0.59558 0.80269 0.0
O55 O 0.56536 0.60065 0.80093 0.0
C56 C 0.47161 0.5667 0.81697 0.0
O57 O 0.49056 0.54563 0.81001 0.0
O58 O 0.49274 0.5962 0.83216 0.0
C59 C 0.5638 0.52259 0.83401 0.0
H60 H 0.52058 0.00631 0.16994 0.0
H61 H 0.58493 0.08249 0.22828 0.0
H62 H 0.49118 0.96734 0.23077 0.0
H63 H 0.58733 0.13195 0.20748 0.0
C64 C 0.59689 0.1189 0.19324 0.0
C65 C 0.52536 0.01177 0.18731 0.0
C66 C 0.50293 0.98221 0.19916 0.0
C67 C 0.55423 0.04838 0.19777 0.0
C68 C 0.56134 0.05508 0.22027 0.0
C69 C 0.53913 0.02566 0.23235 0.0
C70 C 0.50962 0.98965 0.22161 0.0
N71 N 0.5773 0.077 0.18519 0.0
H72 H 0.58039 0.53596 0.49983 0.0
H73 H 0.58413 0.61864 0.55684 0.0
H74 H 0.60087 0.51269 0.56242 0.0
H75 H 0.5259 0.60964 0.53106 0.0
C76 C 0.54833 0.62329 0.52038 0.0
C77 C 0.58419 0.5446 0.51719 0.0
C78 C 0.59159 0.52021 0.52998 0.0
C79 C 0.58096 0.57989 0.52687 0.0
C80 C 0.58577 0.591 0.54939 0.0
C81 C 0.59368 0.56729 0.56229 0.0
C82 C 0.59641 0.53199 0.55245 0.0
N83 N 0.57356 0.60459 0.51397 0.0
H84 H 0.9986 0.43532 0.81894 0.0
H85 H 0.07432 0.41628 0.86229 0.0
H86 H 0.98929 0.45702 0.88718 0.0
H87 H 0.05537 0.46021 0.80245 0.0
C88 C 0.06958 0.4406 0.80422 0.0
C89 C 1.00828 0.43571 0.83515 0.0
C90 C 0.98988 0.44682 0.85259 0.0
C91 C 0.03902 0.42508 0.83861 0.0
C92 C 0.05025 0.42394 0.85958 0.0
C93 C 0.03262 0.43591 0.87714 0.0
C94 C 1.00244 0.44715 0.87354 0.0
N95 N 0.06121 0.41869 0.82156 0.0
H96 H 0.06722 0.61506 0.48474 0.0
H97 H 0.99216 0.55613 0.42696 0.0
H98 H 0.11141 0.63674 0.42302 0.0
H99 H 0.94677 0.56134 0.45182 0.0
C100 C 0.95588 0.5483 0.46385 0.0
C101 C 0.06272 0.60997 0.46737 0.0
C102 C 0.09356 0.62935 0.45502 0.0
C103 C 0.02604 0.58377 0.45738 0.0
C104 C 0.02029 0.57675 0.43479 0.0
C105 C 0.05092 0.59586 0.42221 0.0
C106 C 0.08745 0.62201 0.43253 0.0
N107 N 0.99597 0.56312 0.47026 0.0
H108 H 0.59537 0.13283 0.842 0.0
H109 H 0.58031 0.04554 0.78506 0.0
H110 H 0.6101 0.16888 0.77975 0.0
H111 H 0.52667 0.00953 0.80896 0.0
C112 C 0.54998 0.01494 0.82077 0.0
C113 C 0.59551 0.12556 0.8247 0.0
C114 C 0.60437 0.15591 0.81203 0.0
C115 C 0.58622 0.08557 0.81498 0.0
C116 C 0.58642 0.07613 0.79252 0.0
C117 C 0.59572 0.10618 0.77974 0.0
C118 C 0.60449 0.14586 0.78964 0.0
N119 N 0.57787 0.05518 0.8279 0.0
H120 H 0.52839 0.51795 0.15753 0.0
H121 H 0.59575 0.53371 0.10203 0.0
H122 H 0.48541 0.54016 0.10001 0.0
H123 H 0.5963 0.47058 0.11718 0.0
C124 C 0.61276 0.49355 0.13081 0.0
C125 C 0.53188 0.52351 0.14114 0.0
C126 C 0.50295 0.52986 0.13007 0.0
C127 C 0.56527 0.52411 0.13082 0.0
C128 C 0.56959 0.53178 0.10963 0.0
C129 C 0.54127 0.53822 0.09847 0.0
C130 C 0.5081 0.53678 0.10879 0.0
N131 N 0.59504 0.51798 0.14163 0.0
C132 C 0.17631 0.52151 0.14671 0.0
C133 C 0.14755 0.48527 0.15124 0.0
C134 C 0.21566 0.52798 0.14699 0.0
C135 C 0.27839 0.47153 0.14346 0.0
H136 H 0.36148 0.57666 0.16406 0.0
C137 C 0.43969 0.4943 0.14682 0.0
C138 C 0.46641 0.52883 0.13959 0.0
C139 C 0.40182 0.49017 0.151 0.0
C140 C 0.33874 0.54708 0.15808 0.0
H141 H 0.13775 0.42753 0.1597 0.0
H142 H 0.20569 0.43875 0.16045 0.0
H143 H 0.29405 0.5676 0.16505 0.0
H144 H 0.47482 0.58697 0.13225 0.0
H145 H 0.40956 0.58002 0.13951 0.0
H146 H 0.3229 0.45107 0.13621 0.0
C147 C 0.19822 0.46218 0.15639 0.0
C148 C 0.29986 0.5419 0.15862 0.0
C149 C 0.1591 0.45582 0.15611 0.0
C150 C 0.45503 0.56002 0.13789 0.0
C151 C 0.41743 0.55601 0.14211 0.0
C152 C 0.3172 0.47671 0.14291 0.0
C153 C 0.22723 0.49822 0.15167 0.0
C154 C 0.26898 0.50404 0.15126 0.0
C155 C 0.38973 0.52055 0.14815 0.0
C156 C 0.34812 0.5146 0.1501 0.0
H157 H 0.16834 0.54437 0.14235 0.0
H158 H 0.23686 0.55592 0.14297 0.0
H159 H 0.25571 0.44203 0.13726 0.0
H160 H 0.44732 0.46955 0.14809 0.0
H161 H 0.3817 0.46267 0.15597 0.0
C162 C 0.68677 0.24084 0.49592 0.0
C163 C 0.69622 0.21558 0.50695 0.0
C164 C 0.71499 0.27852 0.4935 0.0
C165 C 0.81197 0.35737 0.51388 0.0
H166 H 0.81244 0.38385 0.45674 0.0
C167 C 0.93704 0.49268 0.48576 0.0
C168 C 0.92645 0.5136 0.47207 0.0
C169 C 0.90895 0.45782 0.49181 0.0
C170 C 0.81243 0.37725 0.47288 0.0
H171 H 0.74205 0.2102 0.5248 0.0
H172 H 0.79195 0.27636 0.52035 0.0
H173 H 0.76379 0.32031 0.46416 0.0
H174 H 0.87836 0.51565 0.45465 0.0
H175 H 0.82921 0.45526 0.46544 0.0
H176 H 0.86095 0.41453 0.52249 0.0
C177 C 0.76257 0.26703 0.5137 0.0
C178 C 0.78454 0.34076 0.47712 0.0
C179 C 0.73414 0.22918 0.51617 0.0
C180 C 0.88726 0.4999 0.46512 0.0
C181 C 0.85921 0.4652 0.47119 0.0
C182 C 0.83998 0.39407 0.50962 0.0
C183 C 0.75339 0.29176 0.50198 0.0
C184 C 0.78378 0.33047 0.49769 0.0
C185 C 0.86981 0.4433 0.48426 0.0
C186 C 0.84033 0.4045 0.48908 0.0
H187 H 0.65758 0.2313 0.48889 0.0
H188 H 0.70677 0.29719 0.4848 0.0
H189 H 0.81196 0.35039 0.52992 0.0
H190 H 0.9671 0.50253 0.49135 0.0
H191 H 0.91811 0.4415 0.50176 0.0
C192 C 0.56995 0.6975 0.837 0.0
C193 C 0.60711 0.70324 0.84433 0.0
C194 C 0.56122 0.73061 0.83665 0.0
C195 C 0.59385 0.8391 0.85874 0.0
H196 H 0.54114 0.84044 0.80643 0.0
C197 C 0.58736 0.98395 0.83859 0.0
C198 C 0.5538 0.97983 0.82713 0.0
C199 C 0.59173 0.94976 0.84254 0.0
C200 C 0.55528 0.84039 0.82133 0.0
H201 H 0.66411 0.74778 0.8574 0.0
H202 H 0.64896 0.80566 0.85685 0.0
H203 H 0.55197 0.78136 0.81015 0.0
H204 H 0.49798 0.93719 0.81154 0.0
H205 H 0.50498 0.87768 0.81889 0.0
H206 H 0.59727 0.89824 0.8699 0.0
C207 C 0.62641 0.77565 0.85152 0.0
C208 C 0.56154 0.80645 0.82343 0.0
C209 C 0.63517 0.74255 0.85173 0.0
C210 C 0.52422 0.94114 0.82034 0.0
C211 C 0.52841 0.90705 0.8244 0.0
C212 C 0.58739 0.87303 0.85669 0.0
C213 C 0.58948 0.77011 0.84373 0.0
C214 C 0.58114 0.80549 0.84209 0.0
C215 C 0.56254 0.91081 0.83519 0.0
C216 C 0.56823 0.87423 0.83789 0.0
H217 H 0.54796 0.66753 0.83104 0.0
H218 H 0.5324 0.7253 0.83071 0.0
H219 H 0.60867 0.83911 0.87342 0.0
H220 H 0.61077 0.01342 0.84393 0.0
H221 H 0.61857 0.95386 0.85069 0.0
C222 C 0.96144 0.56768 0.15519 0.0
C223 C 0.97129 0.53507 0.14879 0.0
C224 C 0.92252 0.56211 0.15513 0.0
C225 C 0.8248 0.4943 0.12941 0.0
H226 H 0.78834 0.54996 0.17522 0.0
C227 C 0.66298 0.46627 0.12829 0.0
C228 C 0.65276 0.49785 0.13654 0.0
C229 C 0.70102 0.47003 0.13132 0.0
C230 C 0.79794 0.53456 0.16208 0.0
H231 H 0.9474 0.47092 0.13735 0.0
H232 H 0.87932 0.46093 0.13697 0.0
H233 H 0.85527 0.55731 0.1776 0.0
H234 H 0.6749 0.55844 0.15467 0.0
H235 H 0.74185 0.5658 0.15951 0.0
H236 H 0.76835 0.47261 0.11344 0.0
C237 C 0.90189 0.49099 0.14213 0.0
C238 C 0.8365 0.53865 0.16353 0.0
C239 C 0.94098 0.49656 0.14249 0.0
C240 C 0.68165 0.53334 0.1483 0.0
C241 C 0.72015 0.53743 0.15108 0.0
C242 C 0.78647 0.4906 0.12782 0.0
C243 C 0.89206 0.52377 0.14837 0.0
C244 C 0.85053 0.51851 0.14722 0.0
C245 C 0.73067 0.50597 0.14235 0.0
C246 C 0.77214 0.51049 0.14416 0.0
H247 H 0.98398 0.59785 0.16012 0.0
H248 H 0.91635 0.58819 0.15984 0.0
H249 H 0.83459 0.47892 0.11633 0.0
H250 H 0.6414 0.43846 0.11921 0.0
H251 H 0.70704 0.44451 0.12486 0.0
C252 C 0.39195 0.92911 0.51405 0.0
C253 C 0.42442 0.92902 0.50344 0.0
C254 C 0.35728 0.89404 0.51168 0.0
C255 C 0.30543 0.8002 0.47338 0.0
H256 H 0.2377 0.76701 0.51939 0.0
C257 C 0.16582 0.65534 0.45755 0.0
C258 C 0.1322 0.65806 0.4653 0.0
C259 C 0.20244 0.68556 0.46491 0.0
C260 C 0.25624 0.77606 0.50637 0.0
H261 H 0.44698 0.89216 0.4829 0.0
H262 H 0.38676 0.83095 0.47892 0.0
H263 H 0.30028 0.82587 0.52721 0.0
H264 H 0.11037 0.69328 0.48758 0.0
H265 H 0.17454 0.74668 0.50029 0.0
H266 H 0.2615 0.75129 0.45244 0.0
C267 C 0.38768 0.85813 0.48873 0.0
C268 C 0.29203 0.80973 0.51085 0.0
C269 C 0.42219 0.89311 0.49107 0.0
C270 C 0.13592 0.69044 0.48144 0.0
C271 C 0.17265 0.72094 0.48871 0.0
C272 C 0.26981 0.76674 0.46892 0.0
C273 C 0.3546 0.85836 0.49866 0.0
C274 C 0.31699 0.82214 0.49437 0.0
C275 C 0.20625 0.71939 0.48004 0.0
C276 C 0.24475 0.75421 0.48533 0.0
H277 H 0.39303 0.95648 0.52372 0.0
H278 H 0.33224 0.89526 0.51941 0.0
H279 H 0.32355 0.80948 0.46023 0.0
H280 H 0.16371 0.63032 0.44534 0.0
H281 H 0.22778 0.68294 0.4583 0.0
C282 C 0.55439 0.45928 0.84708 0.0
C283 C 0.5764 0.49042 0.83597 0.0
C284 C 0.56452 0.42731 0.84802 0.0
C285 C 0.61675 0.37343 0.81826 0.0
H286 H 0.59928 0.31884 0.86756 0.0
C287 C 0.64184 0.23049 0.8148 0.0
C288 C 0.61129 0.19784 0.82145 0.0
C289 C 0.64412 0.2695 0.82005 0.0
C290 C 0.60423 0.33371 0.85365 0.0
H291 H 0.62681 0.51318 0.81756 0.0
H292 H 0.64519 0.45774 0.81957 0.0
H293 H 0.59172 0.38176 0.87008 0.0
H294 H 0.56058 0.18079 0.83994 0.0
H295 H 0.56435 0.24902 0.84908 0.0
H296 H 0.62841 0.32513 0.80166 0.0
C297 C 0.61968 0.45765 0.82729 0.0
C298 C 0.59986 0.36975 0.85507 0.0
C299 C 0.60938 0.48958 0.82627 0.0
C300 C 0.58459 0.20543 0.83473 0.0
C301 C 0.58677 0.24454 0.83994 0.0
C302 C 0.6212 0.33754 0.81686 0.0
C303 C 0.597 0.42576 0.8379 0.0
C304 C 0.60545 0.38972 0.83726 0.0
C305 C 0.61579 0.2768 0.83201 0.0
C306 C 0.61446 0.31689 0.83442 0.0
H307 H 0.5288 0.45918 0.85472 0.0
H308 H 0.54603 0.4031 0.85605 0.0
H309 H 0.62064 0.38748 0.80409 0.0
H310 H 0.66314 0.22556 0.80477 0.0
H311 H 0.66736 0.29378 0.81411 0.0
C312 C 0.62975 0.97222 0.49507 0.0
C313 C 0.60071 0.98485 0.50161 0.0
C314 C 0.6246 0.93262 0.49563 0.0
C315 C 0.56978 0.84659 0.52279 0.0
H316 H 0.5972 0.78341 0.47631 0.0
C317 C 0.52672 0.67823 0.52128 0.0
C318 C 0.55394 0.66283 0.51505 0.0
C319 C 0.53265 0.71688 0.51831 0.0
C320 C 0.5898 0.8008 0.48953 0.0
H321 H 0.54444 0.96673 0.51465 0.0
H322 H 0.53486 0.89761 0.51518 0.0
H323 H 0.6076 0.85239 0.47381 0.0
H324 H 0.60846 0.67542 0.50033 0.0
H325 H 0.61924 0.74346 0.49536 0.0
H326 H 0.55238 0.79559 0.53867 0.0
C327 C 0.56155 0.918 0.50951 0.0
C328 C 0.59573 0.84032 0.48808 0.0
C329 C 0.56666 0.95741 0.50885 0.0
C330 C 0.58687 0.68647 0.50522 0.0
C331 C 0.59296 0.72541 0.50232 0.0
C332 C 0.56402 0.8073 0.52427 0.0
C333 C 0.59052 0.90513 0.50303 0.0
C334 C 0.58543 0.86353 0.50462 0.0
C335 C 0.56621 0.74135 0.50918 0.0
C336 C 0.57354 0.78367 0.50759 0.0
H337 H 0.65645 0.99298 0.48959 0.0
H338 H 0.64766 0.92381 0.49075 0.0
H339 H 0.56231 0.8639 0.53603 0.0
H340 H 0.50099 0.66055 0.52882 0.0
H341 H 0.51095 0.72769 0.52333 0.0
C342 C 0.75984 0.59585 0.83154 0.0
C343 C 0.72795 0.58024 0.84389 0.0
C344 C 0.78891 0.58192 0.83128 0.0
C345 C 0.80463 0.49418 0.84118 0.0
H346 H 0.91398 0.56672 0.84477 0.0
C347 C 0.92529 0.44655 0.86052 0.0
C348 C 0.95883 0.45999 0.84913 0.0
C349 C 0.89691 0.46061 0.85818 0.0
C350 C 0.88353 0.54606 0.84345 0.0
H351 H 0.70151 0.53877 0.866 0.0
H352 H 0.75243 0.51494 0.86584 0.0
H353 H 0.86526 0.59376 0.84442 0.0
H354 H 0.98897 0.49843 0.82626 0.0
H355 H 0.93898 0.52272 0.82198 0.0
H356 H 0.82282 0.44657 0.84049 0.0
C357 C 0.75482 0.53738 0.85609 0.0
C358 C 0.85569 0.56154 0.84327 0.0
C359 C 0.72588 0.55128 0.85634 0.0
C360 C 0.96319 0.48729 0.83508 0.0
C361 C 0.93484 0.5015 0.8328 0.0
C362 C 0.83242 0.47875 0.84138 0.0
C363 C 0.78635 0.55212 0.84333 0.0
C364 C 0.81599 0.53578 0.84243 0.0
C365 C 0.90155 0.48846 0.84444 0.0
C366 C 0.87214 0.50458 0.84279 0.0
H367 H 0.76188 0.6181 0.82173 0.0
H368 H 0.81278 0.59363 0.8212 0.0
H369 H 0.7742 0.47349 0.84005 0.0
H370 H 0.92111 0.42531 0.87134 0.0
H371 H 0.87173 0.45036 0.86751 0.0
C372 C 0.19602 0.68906 0.14288 0.0
C373 C 0.19119 0.65787 0.15428 0.0
C374 C 0.23129 0.7234 0.14516 0.0
C375 C 0.31774 0.77945 0.18315 0.0
H376 H 0.36318 0.83447 0.13576 0.0
C377 C 0.46891 0.90739 0.19461 0.0
C378 C 0.472 0.94344 0.18855 0.0
C379 C 0.43651 0.87144 0.18752 0.0
C380 C 0.35065 0.81942 0.14911 0.0
H381 H 0.21945 0.63693 0.17624 0.0
H382 H 0.28111 0.69618 0.17988 0.0
H383 H 0.30215 0.77335 0.12919 0.0
H384 H 0.44513 0.96987 0.16917 0.0
H385 H 0.38802 0.90656 0.15668 0.0
H386 H 0.36601 0.82514 0.20305 0.0
C387 C 0.25755 0.69491 0.16965 0.0
C388 C 0.31573 0.78457 0.1454 0.0
C389 C 0.22231 0.66089 0.16751 0.0
C390 C 0.4434 0.94241 0.17403 0.0
C391 C 0.4108 0.90627 0.1669 0.0
C392 C 0.35258 0.81391 0.1868 0.0
C393 C 0.26229 0.72686 0.15878 0.0
C394 C 0.29905 0.7641 0.1624 0.0
C395 C 0.4065 0.87079 0.17423 0.0
C396 C 0.36955 0.8341 0.16983 0.0
H397 H 0.17236 0.68726 0.13253 0.0
H398 H 0.23391 0.74761 0.13671 0.0
H399 H 0.30521 0.7651 0.19672 0.0
H400 H 0.49098 0.90728 0.20548 0.0
H401 H 0.4343 0.84433 0.19303 0.0
C402 C 0.51882 0.16138 0.49207 0.0
C403 C 0.54204 0.15123 0.50516 0.0
C404 C 0.52632 0.20184 0.49226 0.0
C405 C 0.57683 0.303 0.52621 0.0
H406 H 0.56142 0.34185 0.47488 0.0
C407 C 0.62117 0.47086 0.52819 0.0
C408 C 0.59224 0.48108 0.52066 0.0
C409 C 0.61767 0.43137 0.52338 0.0
C410 C 0.56572 0.33134 0.48934 0.0
H411 H 0.59103 0.17523 0.52884 0.0
H412 H 0.60528 0.24555 0.52853 0.0
H413 H 0.55007 0.27117 0.47259 0.0
H414 H 0.5384 0.45858 0.50085 0.0
H415 H 0.53237 0.38922 0.49223 0.0
H416 H 0.59266 0.36299 0.54293 0.0
C417 C 0.58073 0.22254 0.5184 0.0
C418 C 0.55907 0.29082 0.48807 0.0
C419 C 0.57289 0.18218 0.5184 0.0
C420 C 0.56124 0.45161 0.50677 0.0
C421 C 0.55775 0.41191 0.5019 0.0
C422 C 0.58379 0.34339 0.52741 0.0
C423 C 0.55732 0.233 0.50552 0.0
C424 C 0.56458 0.27612 0.50652 0.0
C425 C 0.58518 0.4011 0.51088 0.0
C426 C 0.57841 0.35811 0.50902 0.0
H427 H 0.4947 0.13805 0.48177 0.0
H428 H 0.5073 0.20859 0.48236 0.0
H429 H 0.58042 0.29276 0.54088 0.0
H430 H 0.64567 0.4931 0.53869 0.0
H431 H 0.63974 0.42418 0.53013 0.0
C432 C 0.4105 0.51939 0.79577 0.0
C433 C 0.43141 0.55631 0.80943 0.0
C434 C 0.37142 0.50718 0.78976 0.0
C435 C 0.29365 0.53647 0.78239 0.0
H436 H 0.22897 0.4407 0.80519 0.0
C437 C 0.13102 0.49044 0.79332 0.0
C438 C 0.10744 0.45042 0.79518 0.0
C439 C 0.17017 0.50206 0.78962 0.0
C440 C 0.24627 0.46675 0.79808 0.0
H441 H 0.42883 0.61045 0.82666 0.0
H442 H 0.35988 0.5891 0.81574 0.0
H443 H 0.29895 0.4653 0.80898 0.0
H444 H 0.1043 0.39017 0.79232 0.0
H445 H 0.17187 0.40958 0.78418 0.0
H446 H 0.24108 0.53763 0.77104 0.0
C447 C 0.374 0.56975 0.80986 0.0
C448 C 0.28648 0.48106 0.80053 0.0
C449 C 0.41315 0.58178 0.81619 0.0
C450 C 0.1223 0.42136 0.79122 0.0
C451 C 0.16111 0.43268 0.78683 0.0
C452 C 0.25322 0.52161 0.77947 0.0
C453 C 0.35277 0.53197 0.79701 0.0
C454 C 0.31041 0.51631 0.79304 0.0
C455 C 0.18611 0.47355 0.78717 0.0
C456 C 0.22896 0.4869 0.78763 0.0
H457 H 0.42397 0.49926 0.79026 0.0
H458 H 0.35546 0.47792 0.77985 0.0
H459 H 0.31181 0.56362 0.77636 0.0
H460 H 0.11998 0.51332 0.79641 0.0
H461 H 0.18827 0.5338 0.79016 0.0
C462 C 0.92093 0.33507 0.1589 0.0
C463 C 0.92752 0.36072 0.14373 0.0
C464 C 0.88384 0.30509 0.16011 0.0
C465 C 0.78227 0.28407 0.14993 0.0
H466 H 0.7635 0.17772 0.16111 0.0
C467 C 0.64768 0.1283 0.1666 0.0
C468 C 0.6312 0.14481 0.18315 0.0
C469 C 0.68199 0.15288 0.15844 0.0
C470 C 0.76818 0.20711 0.15773 0.0
H471 H 0.90121 0.37468 0.1175 0.0
H472 H 0.83614 0.32227 0.11969 0.0
H473 H 0.82802 0.22245 0.15229 0.0
H474 H 0.63674 0.19971 0.20374 0.0
H475 H 0.69667 0.24281 0.18942 0.0
H476 H 0.72267 0.26908 0.15584 0.0
C477 C 0.85961 0.3254 0.13065 0.0
C478 C 0.80515 0.23279 0.15286 0.0
C479 C 0.8968 0.35517 0.12932 0.0
C480 C 0.64889 0.18637 0.19094 0.0
C481 C 0.68302 0.21099 0.18267 0.0
C482 C 0.74539 0.25851 0.15495 0.0
C483 C 0.85266 0.3005 0.14628 0.0
C484 C 0.81269 0.27173 0.14924 0.0
C485 C 0.70022 0.19438 0.16657 0.0
C486 C 0.73816 0.22003 0.15923 0.0
H487 H 0.9442 0.33887 0.17021 0.0
H488 H 0.87925 0.28661 0.17246 0.0
H489 H 0.78734 0.31406 0.14739 0.0
H490 H 0.63466 0.0963 0.16027 0.0
H491 H 0.69449 0.13938 0.14591 0.0
C492 C 0.08624 0.51775 0.06982 0.0
C493 C 0.06819 0.486 0.08129 0.0
C494 C 0.08838 0.50981 0.04758 0.0
C495 C 0.04114 0.42978 0.0002 0.0
H496 H 0.1261 0.50041 0.97134 0.0
C497 C 0.04359 0.40551 0.90781 0.0
C498 C 0.04705 0.43965 0.89942 0.0
C499 C 0.05239 0.40875 0.92976 0.0
C500 C 0.10233 0.48032 0.97923 0.0
H501 H 0.03977 0.42095 0.07861 0.0
H502 H 0.04458 0.40705 0.04004 0.0
H503 H 0.12951 0.51029 0.0106 0.0
H504 H 0.06424 0.50404 0.9067 0.0
H505 H 0.08035 0.50993 0.94496 0.0
H506 H 1.014 0.39999 0.96877 0.0
C507 C 0.05598 0.43816 0.04801 0.0
C508 C 0.10408 0.48613 0.0017 0.0
C509 C 0.05333 0.44613 0.07018 0.0
C510 C 0.06137 0.47735 0.91293 0.0
C511 C 0.07076 0.48071 0.93474 0.0
C512 C 0.03967 0.42366 0.97776 0.0
C513 C 0.07302 0.46989 0.03635 0.0
C514 C 0.07309 0.46149 0.01249 0.0
C515 C 0.06541 0.44631 0.94347 0.0
C516 C 0.06984 0.4494 0.96708 0.0
H517 H 0.09786 0.54882 0.07793 0.0
H518 H 0.10112 0.53508 0.03915 0.0
H519 H 1.01642 0.41058 0.00785 0.0
H520 H 0.03246 0.37616 0.8976 0.0
H521 H 0.04816 0.38182 0.93614 0.0
C522 C 0.54321 0.02022 0.42545 0.0
C523 C 0.56222 0.05753 0.43908 0.0
C524 C 0.54218 0.01799 0.40314 0.0
C525 C 0.58928 0.07714 0.3602 0.0
H526 H 0.49854 0.99657 0.32522 0.0
C527 C 0.55585 0.06987 0.26891 0.0
C528 C 0.54639 0.03192 0.25611 0.0
C529 C 0.55992 0.07464 0.29135 0.0
C530 C 0.52409 0.01912 0.33484 0.0
H531 H 0.59429 0.12188 0.44014 0.0
H532 H 0.59111 0.11828 0.40133 0.0
H533 H 0.50016 0.00184 0.36419 0.0
H534 H 0.53618 0.96989 0.25693 0.0
H535 H 0.54177 0.97806 0.296 0.0
H536 H 0.61238 0.09504 0.33057 0.0
C537 C 0.57816 0.09048 0.40771 0.0
C538 C 0.52521 0.02201 0.35716 0.0
C539 C 0.57979 0.09261 0.43 0.0
C540 C 0.54234 0.99927 0.26626 0.0
C541 C 0.54575 0.00391 0.28862 0.0
C542 C 0.5878 0.07468 0.33786 0.0
C543 C 0.55949 0.05312 0.39395 0.0
C544 C 0.55798 0.05078 0.37016 0.0
C545 C 0.55409 0.04146 0.30135 0.0
C546 C 0.55536 0.04537 0.32502 0.0
H547 H 0.52972 0.99264 0.43201 0.0
H548 H 0.52823 0.98857 0.39312 0.0
H549 H 0.61529 0.09924 0.36959 0.0
H550 H 0.5589 0.09559 0.26168 0.0
H551 H 0.5663 0.10389 0.30092 0.0
C552 C 0.62928 0.59619 0.75752 0.0
C553 C 0.59993 0.60267 0.76882 0.0
C554 C 0.63075 0.59683 0.73542 0.0
C555 C 0.56784 0.58376 0.68761 0.0
H556 H 0.66518 0.62965 0.661 0.0
C557 C 0.57178 0.59105 0.59713 0.0
C558 C 0.59791 0.57836 0.5861 0.0
C559 C 0.57388 0.59824 0.61961 0.0
C560 C 0.63779 0.61652 0.6682 0.0
H561 H 0.54991 0.6163 0.76585 0.0
H562 H 0.55285 0.61792 0.72754 0.0
H563 H 0.66551 0.6341 0.70005 0.0
H564 H 0.64782 0.56505 0.58997 0.0
H565 H 0.65117 0.57708 0.62919 0.0
H566 H 0.54011 0.56584 0.65583 0.0
C567 C 0.57426 0.61153 0.73562 0.0
C568 C 0.63798 0.619 0.69055 0.0
C569 C 0.57271 0.61078 0.75765 0.0
C570 C 0.62699 0.57435 0.59803 0.0
C571 C 0.62916 0.58164 0.62049 0.0
C572 C 0.56764 0.58136 0.66531 0.0
C573 C 0.60296 0.60405 0.72418 0.0
C574 C 0.603 0.60249 0.7005 0.0
C575 C 0.60224 0.59304 0.63153 0.0
C576 C 0.6026 0.59752 0.65534 0.0
H577 H 0.65067 0.5898 0.76562 0.0
H578 H 0.65302 0.59056 0.72704 0.0
H579 H 0.54042 0.57006 0.6947 0.0
H580 H 0.54892 0.59418 0.58839 0.0
H581 H 0.55301 0.60747 0.62766 0.0
C582 C 0.60805 0.09979 0.58672 0.0
C583 C 0.57726 0.06887 0.57332 0.0
C584 C 0.6107 0.09977 0.6088 0.0
C585 C 0.55132 0.06074 0.653 0.0
H586 H 0.65105 0.09163 0.68347 0.0
C587 C 0.56542 0.06202 0.74421 0.0
C588 C 0.59557 0.09638 0.756 0.0
C589 C 0.56392 0.05459 0.72173 0.0
C590 C 0.62302 0.08317 0.67521 0.0
H591 H 0.5253 0.01336 0.57269 0.0
H592 H 0.5301 0.0134 0.61118 0.0
H593 H 0.64687 0.0868 0.64446 0.0
H594 H 0.64868 0.14886 0.75354 0.0
H595 H 0.64567 0.13637 0.7144 0.0
H596 H 0.52754 0.05786 0.68374 0.0
C597 C 0.55196 0.03784 0.6046 0.0
C598 C 0.62064 0.08043 0.65287 0.0
C599 C 0.54934 0.03778 0.58251 0.0
C600 C 0.6248 0.12241 0.74489 0.0
C601 C 0.62332 0.11498 0.72246 0.0
C602 C 0.5537 0.06356 0.67534 0.0
C603 C 0.58261 0.06889 0.618 0.0
C604 C 0.58484 0.06965 0.64156 0.0
C605 C 0.59259 0.08129 0.7106 0.0
C606 C 0.58965 0.07528 0.68673 0.0
H607 H 0.63008 0.12422 0.58022 0.0
H608 H 0.6344 0.1244 0.61874 0.0
H609 H 0.52338 0.05283 0.64478 0.0
H610 H 0.54236 0.04152 0.75231 0.0
H611 H 0.5401 0.02811 0.71306 0.0
C612 C 0.59556 0.575 0.91066 0.0
C613 C 0.57453 0.59181 0.90045 0.0
C614 C 0.59059 0.56994 0.93205 0.0
C615 C 0.56395 0.6081 0.98285 0.0
H616 H 0.54221 0.50274 -0.00332 0.0
C617 C 0.53309 0.57315 0.06888 0.0
C618 C 0.54592 0.54613 0.07595 0.0
C619 C 0.53577 0.57926 0.04754 0.0
C620 C 0.5489 0.53254 0.99321 0.0
H621 H 0.53222 0.61711 0.90478 0.0
H622 H 0.52427 0.60912 0.94266 0.0
H623 H 0.54816 0.51279 0.95938 0.0
H624 H 0.57232 0.50483 0.06595 0.0
H625 H 0.57894 0.51709 0.02914 0.0
H626 H 0.56624 0.62845 0.01667 0.0
C627 C 0.54433 0.59962 0.93386 0.0
C628 C 0.55197 0.53815 0.97181 0.0
C629 C 0.54878 0.60405 0.91223 0.0
C630 C 0.56243 0.52614 0.0612 0.0
C631 C 0.56562 0.53268 0.03992 0.0
C632 C 0.5615 0.60269 0.00435 0.0
C633 C 0.56492 0.5821 0.94384 0.0
C634 C 0.5597 0.57598 0.96645 0.0
C635 C 0.55192 0.55897 0.03272 0.0
C636 C 0.55412 0.56485 0.00983 0.0
H637 H 0.61541 0.56494 0.90202 0.0
H638 H 0.60701 0.55664 0.93944 0.0
H639 H 0.57031 0.63767 0.9791 0.0
H640 H 0.52086 0.58969 0.07984 0.0
H641 H 0.52453 0.59942 0.04261 0.0
C642 C 0.07159 0.5692 0.22765 0.0
C643 C 0.05005 0.53104 0.21515 0.0
C644 C 0.06834 0.57578 0.24985 0.0
C645 C 0.04269 0.52294 0.29593 0.0
H646 H 0.03357 0.6192 0.32414 0.0
C647 C 0.02386 0.54897 0.38695 0.0
C648 C 0.04537 0.58814 0.39833 0.0
C649 C 0.02092 0.54147 0.36445 0.0
C650 C 0.03649 0.59234 0.31656 0.0
H651 H 1.00815 0.46989 0.21627 0.0
H652 H 1.00279 0.48144 0.25499 0.0
H653 H 0.03614 0.60745 0.28515 0.0
H654 H 0.07926 0.65043 0.39492 0.0
H655 H 0.07529 0.6372 0.35584 0.0
H656 H 0.0441 0.50821 0.32726 0.0
C657 C 0.02221 0.50618 0.24758 0.0
C658 C 0.0379 0.58562 0.29422 0.0
C659 C 0.02517 0.49968 0.22537 0.0
C660 C 0.06298 0.61978 0.38667 0.0
C661 C 0.06024 0.61226 0.36422 0.0
C662 C 0.04161 0.5298 0.31828 0.0
C663 C 0.04378 0.54428 0.26005 0.0
C664 C 0.04121 0.55095 0.28369 0.0
C665 C 0.03954 0.57294 0.3528 0.0
C666 C 0.03872 0.56471 0.3289 0.0
H667 H 0.09097 0.59407 0.22032 0.0
H668 H 0.08561 0.60537 0.25909 0.0
H669 H 0.04573 0.49618 0.28828 0.0
H670 H 1.01015 0.52385 0.3954 0.0
H671 H 1.00424 0.51092 0.35619 0.0
loop_
_geom_bond_atom_site_label_1
_geom_bond_atom_site_label_2
_geom_bond_distance
_geom_bond_site_symmetry_2
_ccdc_geom_bond_type
Tb0 O3 2.453 . S
Tb0 O4 2.596 . S
Tb0 O5 2.374 . S
Tb0 O13 2.343 . S
Tb0 O15 2.353 . S
Tb0 O17 2.427 . S
Tb0 O18 2.513 . S
C1 O5 1.251 . S
C1 O7 1.263 . S
Tb2 O4 2.343 . S
Tb2 O7 2.353 . S
Tb2 O10 2.427 1_455 S
Tb2 O11 2.513 1_455 S
Tb2 O12 2.453 . S
Tb2 O13 2.596 . S
Tb2 O14 2.374 . S
O3 Tb0 2.453 . S
O3 C19 1.245 . S
O4 Tb0 2.596 . S
O4 Tb2 2.343 . S
O4 C19 1.259 . S
O5 Tb0 2.374 . S
O5 C1 1.251 . S
C6 O10 1.275 . S
C6 O11 1.246 . S
O7 C1 1.263 . S
O7 Tb2 2.353 . S
C8 O12 1.245 . S
C8 O13 1.259 . S
C9 O14 1.250 . S
C9 O15 1.263 . S
O10 Tb2 2.427 1_655 S
O10 C6 1.275 . S
O11 Tb2 2.513 1_655 S
O11 C6 1.246 . S
O12 Tb2 2.453 . S
O12 C8 1.245 . S
O13 Tb0 2.343 . S
O13 Tb2 2.596 . S
O13 C8 1.259 . S
O14 Tb2 2.374 . S
O14 C9 1.250 . S
O15 Tb0 2.353 . S
O15 C9 1.263 . S
C16 O17 1.275 . S
C16 O18 1.246 . S
O17 Tb0 2.427 . S
O17 C16 1.275 . S
O18 Tb0 2.513 . S
O18 C16 1.246 . S
C19 O3 1.245 . S
C19 O4 1.259 . S
Tb20 O23 2.453 . S
Tb20 O24 2.596 . S
Tb20 O25 2.374 . S
Tb20 O33 2.343 . S
Tb20 O35 2.353 . S
Tb20 O37 2.427 1_545 S
Tb20 O38 2.513 1_545 S
C21 O25 1.251 . S
C21 O27 1.263 . S
Tb22 O24 2.343 . S
Tb22 O27 2.353 . S
Tb22 O30 2.427 . S
Tb22 O31 2.513 . S
Tb22 O32 2.453 . S
Tb22 O33 2.596 . S
Tb22 O34 2.374 . S
O23 Tb20 2.453 . S
O23 C39 1.245 . S
O24 Tb20 2.596 . S
O24 Tb22 2.343 . S
O24 C39 1.259 . S
O25 Tb20 2.374 . S
O25 C21 1.251 . S
C26 O30 1.275 . S
C26 O31 1.246 . S
O27 C21 1.263 . S
O27 Tb22 2.353 . S
C28 O32 1.245 1_565 S
C28 O33 1.259 1_565 S
C29 O34 1.250 . S
C29 O35 1.263 . S
O30 Tb22 2.427 . S
O30 C26 1.275 . S
O31 Tb22 2.513 . S
O31 C26 1.246 . S
O32 Tb22 2.453 . S
O32 C28 1.245 1_545 S
O33 Tb20 2.343 . S
O33 Tb22 2.596 . S
O33 C28 1.259 1_545 S
O34 Tb22 2.374 . S
O34 C29 1.250 . S
O35 Tb20 2.353 . S
O35 C29 1.263 . S
C36 O37 1.275 . S
C36 O38 1.246 . S
O37 Tb20 2.427 1_565 S
O37 C36 1.275 . S
O38 Tb20 2.513 1_565 S
O38 C36 1.246 . S
C39 O23 1.245 . S
C39 O24 1.259 . S
Tb40 O43 2.453 . S
Tb40 O44 2.596 . S
Tb40 O45 2.374 . S
Tb40 O53 2.343 . S
Tb40 O55 2.353 . S
Tb40 O57 2.427 . S
Tb40 O58 2.513 . S
C41 O45 1.251 . S
C41 O47 1.263 . S
Tb42 O44 2.343 . S
Tb42 O47 2.353 . S
Tb42 O50 2.427 . S
Tb42 O51 2.513 . S
Tb42 O52 2.453 . S
Tb42 O53 2.596 . S
Tb42 O54 2.374 . S
O43 Tb40 2.453 . S
O43 C59 1.245 . S
O44 Tb40 2.596 . S
O44 Tb42 2.343 . S
O44 C59 1.259 . S
O45 Tb40 2.374 . S
O45 C41 1.251 . S
C46 O50 1.275 . S
C46 O51 1.246 . S
O47 C41 1.263 . S
O47 Tb42 2.353 . S
C48 O52 1.245 . S
C48 O53 1.259 . S
C49 O54 1.250 . S
C49 O55 1.263 . S
O50 Tb42 2.427 . S
O50 C46 1.275 . S
O51 Tb42 2.513 . S
O51 C46 1.246 . S
O52 Tb42 2.453 . S
O52 C48 1.245 . S
O53 Tb40 2.343 . S
O53 Tb42 2.596 . S
O53 C48 1.259 . S
O54 Tb42 2.374 . S
O54 C49 1.250 . S
O55 Tb40 2.353 . S
O55 C49 1.263 . S
C56 O57 1.275 . S
C56 O58 1.246 . S
O57 Tb40 2.427 . S
O57 C56 1.275 . S
O58 Tb40 2.513 . S
O58 C56 1.246 . S
C59 O43 1.245 . S
C59 O44 1.259 . S
H60 C65 0.930 . S
H61 C68 0.930 . S
H62 C70 0.930 . S
H63 C64 1.016 . S
C64 H63 1.016 . S
C64 N71 1.286 . S
C65 H60 0.930 . S
C65 C66 1.397 . S
C65 C67 1.361 . S
C66 C65 1.397 . S
C66 C70 1.390 . S
C67 C65 1.361 . S
C67 C68 1.393 . S
C67 N71 1.413 . S
C68 H61 0.930 . S
C68 C67 1.393 . S
C68 C69 1.399 . S
C69 C68 1.399 . S
C69 C70 1.381 . S
C70 H62 0.930 . S
C70 C66 1.390 . S
C70 C69 1.381 . S
N71 C64 1.286 . S
N71 C67 1.413 . S
H72 C77 0.930 . S
H73 C80 0.930 . S
H74 C82 0.930 . S
H75 C76 1.016 . S
C76 H75 1.016 . S
C76 N83 1.286 . S
C77 H72 0.930 . S
C77 C78 1.397 . S
C77 C79 1.361 . S
C78 C77 1.397 . S
C78 C82 1.390 . S
C79 C77 1.361 . S
C79 C80 1.393 . S
C79 N83 1.413 . S
C80 H73 0.930 . S
C80 C79 1.393 . S
C80 C81 1.399 . S
C81 C80 1.399 . S
C81 C82 1.381 . S
C82 H74 0.930 . S
C82 C78 1.390 . S
C82 C81 1.381 . S
N83 C76 1.286 . S
N83 C79 1.413 . S
H84 C89 0.930 . S
H85 C92 0.930 . S
H86 C94 0.930 . S
H87 C88 1.016 . S
C88 H87 1.016 . S
C88 N95 1.286 . S
C89 H84 0.930 . S
C89 C90 1.397 . S
C89 C91 1.361 . S
C90 C89 1.397 . S
C90 C94 1.390 . S
C91 C89 1.361 . S
C91 C92 1.393 . S
C91 N95 1.413 . S
C92 H85 0.930 . S
C92 C91 1.393 . S
C92 C93 1.399 . S
C93 C92 1.399 . S
C93 C94 1.381 . S
C94 H86 0.930 . S
C94 C90 1.390 . S
C94 C93 1.381 . S
N95 C88 1.286 . S
N95 C91 1.413 . S
H96 C101 0.930 . S
H97 C104 0.930 . S
H98 C106 0.930 . S
H99 C100 1.016 . S
C100 H99 1.016 . S
C100 N107 1.286 . S
C101 H96 0.930 . S
C101 C102 1.397 . S
C101 C103 1.361 1_455 S
C102 C101 1.397 . S
C102 C106 1.390 . S
C103 C101 1.361 1_655 S
C103 C104 1.393 . S
C103 N107 1.413 . S
C104 H97 0.930 . S
C104 C103 1.393 . S
C104 C105 1.399 1_655 S
C105 C104 1.399 1_455 S
C105 C106 1.381 . S
C106 H98 0.930 . S
C106 C102 1.390 . S
C106 C105 1.381 . S
N107 C100 1.286 . S
N107 C103 1.413 . S
H108 C113 0.930 . S
H109 C116 0.930 1_565 S
H110 C118 0.930 . S
H111 C112 1.016 . S
C112 H111 1.016 . S
C112 N119 1.286 . S
C113 H108 0.930 . S
C113 C114 1.397 . S
C113 C115 1.361 . S
C114 C113 1.397 . S
C114 C118 1.390 . S
C115 C113 1.361 . S
C115 C116 1.393 . S
C115 N119 1.413 1_545 S
C116 H109 0.930 1_545 S
C116 C115 1.393 . S
C116 C117 1.399 . S
C117 C116 1.399 . S
C117 C118 1.381 . S
C118 H110 0.930 . S
C118 C114 1.390 . S
C118 C117 1.381 . S
N119 C112 1.286 . S
N119 C115 1.413 1_565 S
H120 C125 0.930 . S
H121 C128 0.930 . S
H122 C130 0.930 . S
H123 C124 1.016 . S
C124 H123 1.016 . S
C124 N131 1.286 . S
C125 H120 0.930 . S
C125 C126 1.397 . S
C125 C127 1.361 . S
C126 C125 1.397 . S
C126 C130 1.390 . S
C127 C125 1.361 . S
C127 C128 1.393 . S
C127 N131 1.413 . S
C128 H121 0.930 . S
C128 C127 1.393 . S
C128 C129 1.399 . S
C129 C128 1.399 . S
C129 C130 1.381 . S
C130 H122 0.930 . S
C130 C126 1.390 . S
C130 C129 1.381 . S
N131 C124 1.286 . S
N131 C127 1.413 . S
C132 C133 1.349 . S
C132 C134 1.327 . S
C132 H157 0.950 . S
C133 C132 1.349 . S
C133 C149 1.349 . S
C134 C132 1.327 . S
C134 C153 1.429 . S
C134 H158 0.950 . S
C135 C152 1.574 . S
C135 C154 1.368 . S
C135 H159 0.949 . S
H136 C140 0.949 . S
C137 C138 1.349 . S
C137 C139 1.327 . S
C137 H160 0.950 . S
C138 C137 1.349 . S
C138 C150 1.349 . S
C139 C137 1.327 . S
C139 C155 1.429 . S
C139 H161 0.950 . S
C140 H136 0.949 . S
C140 C148 1.574 . S
C140 C156 1.368 . S
H141 C149 0.950 . S
H142 C147 0.950 . S
H143 C148 0.949 . S
H144 C150 0.950 . S
H145 C151 0.950 . S
H146 C152 0.949 . S
C147 H142 0.950 . S
C147 C149 1.327 . S
C147 C153 1.429 . S
C148 C140 1.574 . S
C148 H143 0.949 . S
C148 C154 1.368 . S
C149 C133 1.349 . S
C149 H141 0.950 . S
C149 C147 1.327 . S
C150 C138 1.349 . S
C150 H144 0.950 . S
C150 C151 1.327 . S
C151 H145 0.950 . S
C151 C150 1.327 . S
C151 C155 1.429 . S
C152 C135 1.574 . S
C152 H146 0.949 . S
C152 C156 1.368 . S
C153 C134 1.429 . S
C153 C147 1.429 . S
C153 C154 1.523 . S
C154 C135 1.368 . S
C154 C148 1.368 . S
C154 C153 1.523 . S
C155 C139 1.429 . S
C155 C151 1.429 . S
C155 C156 1.523 . S
C156 C140 1.368 . S
C156 C152 1.368 . S
C156 C155 1.523 . S
H157 C132 0.950 . S
H158 C134 0.950 . S
H159 C135 0.949 . S
H160 C137 0.950 . S
H161 C139 0.950 . S
C162 C163 1.349 . S
C162 C164 1.327 . S
C162 H187 0.950 . S
C163 C162 1.349 . S
C163 C179 1.349 . S
C164 C162 1.327 . S
C164 C183 1.429 . S
C164 H188 0.950 . S
C165 C182 1.574 . S
C165 C184 1.368 . S
C165 H189 0.949 . S
H166 C170 0.949 . S
C167 C168 1.349 . S
C167 C169 1.327 . S
C167 H190 0.950 . S
C168 C167 1.349 . S
C168 C180 1.349 . S
C169 C167 1.327 . S
C169 C185 1.429 . S
C169 H191 0.950 . S
C170 H166 0.949 . S
C170 C178 1.574 . S
C170 C186 1.368 . S
H171 C179 0.950 . S
H172 C177 0.950 . S
H173 C178 0.949 . S
H174 C180 0.950 . S
H175 C181 0.950 . S
H176 C182 0.949 . S
C177 H172 0.950 . S
C177 C179 1.327 . S
C177 C183 1.429 . S
C178 C170 1.574 . S
C178 H173 0.949 . S
C178 C184 1.368 . S
C179 C163 1.349 . S
C179 H171 0.950 . S
C179 C177 1.327 . S
C180 C168 1.349 . S
C180 H174 0.950 . S
C180 C181 1.327 . S
C181 H175 0.950 . S
C181 C180 1.327 . S
C181 C185 1.429 . S
C182 C165 1.574 . S
C182 H176 0.949 . S
C182 C186 1.368 . S
C183 C164 1.429 . S
C183 C177 1.429 . S
C183 C184 1.523 . S
C184 C165 1.368 . S
C184 C178 1.368 . S
C184 C183 1.523 . S
C185 C169 1.429 . S
C185 C181 1.429 . S
C185 C186 1.523 . S
C186 C170 1.368 . S
C186 C182 1.368 . S
C186 C185 1.523 . S
H187 C162 0.950 . S
H188 C164 0.950 . S
H189 C165 0.949 . S
H190 C167 0.950 . S
H191 C169 0.950 . S
C192 C193 1.349 . S
C192 C194 1.327 . S
C192 H217 0.950 . S
C193 C192 1.349 . S
C193 C209 1.349 . S
C194 C192 1.327 . S
C194 C213 1.429 . S
C194 H218 0.950 . S
C195 C212 1.574 . S
C195 C214 1.368 . S
C195 H219 0.949 . S
H196 C200 0.949 . S
C197 C198 1.349 . S
C197 C199 1.327 . S
C197 H220 0.950 . S
C198 C197 1.349 . S
C198 C210 1.349 . S
C199 C197 1.327 . S
C199 C215 1.429 . S
C199 H221 0.950 . S
C200 H196 0.949 . S
C200 C208 1.574 . S
C200 C216 1.368 . S
H201 C209 0.950 . S
H202 C207 0.950 . S
H203 C208 0.949 . S
H204 C210 0.950 . S
H205 C211 0.950 . S
H206 C212 0.949 . S
C207 H202 0.950 . S
C207 C209 1.327 . S
C207 C213 1.429 . S
C208 C200 1.574 . S
C208 H203 0.949 . S
C208 C214 1.368 . S
C209 C193 1.349 . S
C209 H201 0.950 . S
C209 C207 1.327 . S
C210 C198 1.349 . S
C210 H204 0.950 . S
C210 C211 1.327 . S
C211 H205 0.950 . S
C211 C210 1.327 . S
C211 C215 1.429 . S
C212 C195 1.574 . S
C212 H206 0.949 . S
C212 C216 1.368 . S
C213 C194 1.429 . S
C213 C207 1.429 . S
C213 C214 1.523 . S
C214 C195 1.368 . S
C214 C208 1.368 . S
C214 C213 1.523 . S
C215 C199 1.429 . S
C215 C211 1.429 . S
C215 C216 1.523 . S
C216 C200 1.368 . S
C216 C212 1.368 . S
C216 C215 1.523 . S
H217 C192 0.950 . S
H218 C194 0.950 . S
H219 C195 0.949 . S
H220 C197 0.950 . S
H221 C199 0.950 . S
C222 C223 1.349 . S
C222 C224 1.327 . S
C222 H247 0.950 . S
C223 C222 1.349 . S
C223 C239 1.349 . S
C224 C222 1.327 . S
C224 C243 1.429 . S
C224 H248 0.950 . S
C225 C242 1.574 . S
C225 C244 1.368 . S
C225 H249 0.949 . S
H226 C230 0.949 . S
C227 C228 1.349 . S
C227 C229 1.327 . S
C227 H250 0.950 . S
C228 C227 1.349 . S
C228 C240 1.349 . S
C229 C227 1.327 . S
C229 C245 1.429 . S
C229 H251 0.950 . S
C230 H226 0.949 . S
C230 C238 1.574 . S
C230 C246 1.368 . S
H231 C239 0.950 . S
H232 C237 0.950 . S
H233 C238 0.949 . S
H234 C240 0.950 . S
H235 C241 0.950 . S
H236 C242 0.949 . S
C237 H232 0.950 . S
C237 C239 1.327 . S
C237 C243 1.429 . S
C238 C230 1.574 . S
C238 H233 0.949 . S
C238 C244 1.368 . S
C239 C223 1.349 . S
C239 H231 0.950 . S
C239 C237 1.327 . S
C240 C228 1.349 . S
C240 H234 0.950 . S
C240 C241 1.327 . S
C241 H235 0.950 . S
C241 C240 1.327 . S
C241 C245 1.429 . S
C242 C225 1.574 . S
C242 H236 0.949 . S
C242 C246 1.368 . S
C243 C224 1.429 . S
C243 C237 1.429 . S
C243 C244 1.523 . S
C244 C225 1.368 . S
C244 C238 1.368 . S
C244 C243 1.523 . S
C245 C229 1.429 . S
C245 C241 1.429 . S
C245 C246 1.523 . S
C246 C230 1.368 . S
C246 C242 1.368 . S
C246 C245 1.523 . S
H247 C222 0.950 . S
H248 C224 0.950 . S
H249 C225 0.949 . S
H250 C227 0.950 . S
H251 C229 0.950 . S
C252 C253 1.349 . S
C252 C254 1.327 . S
C252 H277 0.950 . S
C253 C252 1.349 . S
C253 C269 1.349 . S
C254 C252 1.327 . S
C254 C273 1.429 . S
C254 H278 0.950 . S
C255 C272 1.574 . S
C255 C274 1.368 . S
C255 H279 0.949 . S
H256 C260 0.949 . S
C257 C258 1.349 . S
C257 C259 1.327 . S
C257 H280 0.950 . S
C258 C257 1.349 . S
C258 C270 1.349 . S
C259 C257 1.327 . S
C259 C275 1.429 . S
C259 H281 0.950 . S
C260 H256 0.949 . S
C260 C268 1.574 . S
C260 C276 1.368 . S
H261 C269 0.950 . S
H262 C267 0.950 . S
H263 C268 0.949 . S
H264 C270 0.950 . S
H265 C271 0.950 . S
H266 C272 0.949 . S
C267 H262 0.950 . S
C267 C269 1.327 . S
C267 C273 1.429 . S
C268 C260 1.574 . S
C268 H263 0.949 . S
C268 C274 1.368 . S
C269 C253 1.349 . S
C269 H261 0.950 . S
C269 C267 1.327 . S
C270 C258 1.349 . S
C270 H264 0.950 . S
C270 C271 1.327 . S
C271 H265 0.950 . S
C271 C270 1.327 . S
C271 C275 1.429 . S
C272 C255 1.574 . S
C272 H266 0.949 . S
C272 C276 1.368 . S
C273 C254 1.429 . S
C273 C267 1.429 . S
C273 C274 1.523 . S
C274 C255 1.368 . S
C274 C268 1.368 . S
C274 C273 1.523 . S
C275 C259 1.429 . S
C275 C271 1.429 . S
C275 C276 1.523 . S
C276 C260 1.368 . S
C276 C272 1.368 . S
C276 C275 1.523 . S
H277 C252 0.950 . S
H278 C254 0.950 . S
H279 C255 0.949 . S
H280 C257 0.950 . S
H281 C259 0.950 . S
C282 C283 1.349 . S
C282 C284 1.327 . S
C282 H307 0.950 . S
C283 C282 1.349 . S
C283 C299 1.349 . S
C284 C282 1.327 . S
C284 C303 1.429 . S
C284 H308 0.950 . S
C285 C302 1.574 . S
C285 C304 1.368 . S
C285 H309 0.949 . S
H286 C290 0.949 . S
C287 C288 1.349 . S
C287 C289 1.327 . S
C287 H310 0.950 . S
C288 C287 1.349 . S
C288 C300 1.349 . S
C289 C287 1.327 . S
C289 C305 1.429 . S
C289 H311 0.950 . S
C290 H286 0.949 . S
C290 C298 1.574 . S
C290 C306 1.368 . S
H291 C299 0.950 . S
H292 C297 0.950 . S
H293 C298 0.949 . S
H294 C300 0.950 . S
H295 C301 0.950 . S
H296 C302 0.949 . S
C297 H292 0.950 . S
C297 C299 1.327 . S
C297 C303 1.429 . S
C298 C290 1.574 . S
C298 H293 0.949 . S
C298 C304 1.368 . S
C299 C283 1.349 . S
C299 H291 0.950 . S
C299 C297 1.327 . S
C300 C288 1.349 . S
C300 H294 0.950 . S
C300 C301 1.327 . S
C301 H295 0.950 . S
C301 C300 1.327 . S
C301 C305 1.429 . S
C302 C285 1.574 . S
C302 H296 0.949 . S
C302 C306 1.368 . S
C303 C284 1.429 . S
C303 C297 1.429 . S
C303 C304 1.523 . S
C304 C285 1.368 . S
C304 C298 1.368 . S
C304 C303 1.523 . S
C305 C289 1.429 . S
C305 C301 1.429 . S
C305 C306 1.523 . S
C306 C290 1.368 . S
C306 C302 1.368 . S
C306 C305 1.523 . S
H307 C282 0.950 . S
H308 C284 0.950 . S
H309 C285 0.949 . S
H310 C287 0.950 . S
H311 C289 0.950 . S
C312 C313 1.349 . S
C312 C314 1.327 . S
C312 H337 0.950 . S
C313 C312 1.349 . S
C313 C329 1.349 . S
C314 C312 1.327 . S
C314 C333 1.429 . S
C314 H338 0.950 . S
C315 C332 1.574 . S
C315 C334 1.368 . S
C315 H339 0.949 . S
H316 C320 0.949 . S
C317 C318 1.349 . S
C317 C319 1.327 . S
C317 H340 0.950 . S
C318 C317 1.349 . S
C318 C330 1.349 . S
C319 C317 1.327 . S
C319 C335 1.429 . S
C319 H341 0.950 . S
C320 H316 0.949 . S
C320 C328 1.574 . S
C320 C336 1.368 . S
H321 C329 0.950 . S
H322 C327 0.950 . S
H323 C328 0.949 . S
H324 C330 0.950 . S
H325 C331 0.950 . S
H326 C332 0.949 . S
C327 H322 0.950 . S
C327 C329 1.327 . S
C327 C333 1.429 . S
C328 C320 1.574 . S
C328 H323 0.949 . S
C328 C334 1.368 . S
C329 C313 1.349 . S
C329 H321 0.950 . S
C329 C327 1.327 . S
C330 C318 1.349 . S
C330 H324 0.950 . S
C330 C331 1.327 . S
C331 H325 0.950 . S
C331 C330 1.327 . S
C331 C335 1.429 . S
C332 C315 1.574 . S
C332 H326 0.949 . S
C332 C336 1.368 . S
C333 C314 1.429 . S
C333 C327 1.429 . S
C333 C334 1.523 . S
C334 C315 1.368 . S
C334 C328 1.368 . S
C334 C333 1.523 . S
C335 C319 1.429 . S
C335 C331 1.429 . S
C335 C336 1.523 . S
C336 C320 1.368 . S
C336 C332 1.368 . S
C336 C335 1.523 . S
H337 C312 0.950 . S
H338 C314 0.950 . S
H339 C315 0.949 . S
H340 C317 0.950 . S
H341 C319 0.950 . S
C342 C343 1.349 . S
C342 C344 1.327 . S
C342 H367 0.950 . S
C343 C342 1.349 . S
C343 C359 1.349 . S
C344 C342 1.327 . S
C344 C363 1.429 . S
C344 H368 0.950 . S
C345 C362 1.574 . S
C345 C364 1.368 . S
C345 H369 0.949 . S
H346 C350 0.949 . S
C347 C348 1.349 1_655 S
C347 C349 1.327 . S
C347 H370 0.950 . S
C348 C347 1.349 1_455 S
C348 C360 1.349 1_455 S
C349 C347 1.327 . S
C349 C365 1.429 . S
C349 H371 0.950 . S
C350 H346 0.949 . S
C350 C358 1.574 . S
C350 C366 1.368 . S
H351 C359 0.950 . S
H352 C357 0.950 . S
H353 C358 0.949 . S
H354 C360 0.950 1_455 S
H355 C361 0.950 . S
H356 C362 0.949 . S
C357 H352 0.950 . S
C357 C359 1.327 . S
C357 C363 1.429 . S
C358 C350 1.574 . S
C358 H353 0.949 . S
C358 C364 1.368 . S
C359 C343 1.349 . S
C359 H351 0.950 . S
C359 C357 1.327 . S
C360 C348 1.349 1_655 S
C360 H354 0.950 1_655 S
C360 C361 1.327 . S
C361 H355 0.950 . S
C361 C360 1.327 . S
C361 C365 1.429 . S
C362 C345 1.574 . S
C362 H356 0.949 . S
C362 C366 1.368 . S
C363 C344 1.429 . S
C363 C357 1.429 . S
C363 C364 1.523 . S
C364 C345 1.368 . S
C364 C358 1.368 . S
C364 C363 1.523 . S
C365 C349 1.429 . S
C365 C361 1.429 . S
C365 C366 1.523 . S
C366 C350 1.368 . S
C366 C362 1.368 . S
C366 C365 1.523 . S
H367 C342 0.950 . S
H368 C344 0.950 . S
H369 C345 0.949 . S
H370 C347 0.950 . S
H371 C349 0.950 . S
C372 C373 1.349 . S
C372 C374 1.327 . S
C372 H397 0.950 . S
C373 C372 1.349 . S
C373 C389 1.349 . S
C374 C372 1.327 . S
C374 C393 1.429 . S
C374 H398 0.950 . S
C375 C392 1.574 . S
C375 C394 1.368 . S
C375 H399 0.949 . S
H376 C380 0.949 . S
C377 C378 1.349 . S
C377 C379 1.327 . S
C377 H400 0.950 . S
C378 C377 1.349 . S
C378 C390 1.349 . S
C379 C377 1.327 . S
C379 C395 1.429 . S
C379 H401 0.950 . S
C380 H376 0.949 . S
C380 C388 1.574 . S
C380 C396 1.368 . S
H381 C389 0.950 . S
H382 C387 0.950 . S
H383 C388 0.949 . S
H384 C390 0.950 1_545 S
H385 C391 0.950 . S
H386 C392 0.949 . S
C387 H382 0.950 . S
C387 C389 1.327 . S
C387 C393 1.429 . S
C388 C380 1.574 . S
C388 H383 0.949 . S
C388 C394 1.368 . S
C389 C373 1.349 . S
C389 H381 0.950 . S
C389 C387 1.327 . S
C390 C378 1.349 . S
C390 H384 0.950 1_565 S
C390 C391 1.327 . S
C391 H385 0.950 . S
C391 C390 1.327 . S
C391 C395 1.429 . S
C392 C375 1.574 . S
C392 H386 0.949 . S
C392 C396 1.368 . S
C393 C374 1.429 . S
C393 C387 1.429 . S
C393 C394 1.523 . S
C394 C375 1.368 . S
C394 C388 1.368 . S
C394 C393 1.523 . S
C395 C379 1.429 . S
C395 C391 1.429 . S
C395 C396 1.523 . S
C396 C380 1.368 . S
C396 C392 1.368 . S
C396 C395 1.523 . S
H397 C372 0.950 . S
H398 C374 0.950 . S
H399 C375 0.949 . S
H400 C377 0.950 . S
H401 C379 0.950 . S
C402 C403 1.349 . S
C402 C404 1.327 . S
C402 H427 0.950 . S
C403 C402 1.349 . S
C403 C419 1.349 . S
C404 C402 1.327 . S
C404 C423 1.429 . S
C404 H428 0.950 . S
C405 C422 1.574 . S
C405 C424 1.368 . S
C405 H429 0.949 . S
H406 C410 0.949 . S
C407 C408 1.349 . S
C407 C409 1.327 . S
C407 H430 0.950 . S
C408 C407 1.349 . S
C408 C420 1.349 . S
C409 C407 1.327 . S
C409 C425 1.429 . S
C409 H431 0.950 . S
C410 H406 0.949 . S
C410 C418 1.574 . S
C410 C426 1.368 . S
H411 C419 0.950 . S
H412 C417 0.950 . S
H413 C418 0.949 . S
H414 C420 0.950 . S
H415 C421 0.950 . S
H416 C422 0.949 . S
C417 H412 0.950 . S
C417 C419 1.327 . S
C417 C423 1.429 . S
C418 C410 1.574 . S
C418 H413 0.949 . S
C418 C424 1.368 . S
C419 C403 1.349 . S
C419 H411 0.950 . S
C419 C417 1.327 . S
C420 C408 1.349 . S
C420 H414 0.950 . S
C420 C421 1.327 . S
C421 H415 0.950 . S
C421 C420 1.327 . S
C421 C425 1.429 . S
C422 C405 1.574 . S
C422 H416 0.949 . S
C422 C426 1.368 . S
C423 C404 1.429 . S
C423 C417 1.429 . S
C423 C424 1.523 . S
C424 C405 1.368 . S
C424 C418 1.368 . S
C424 C423 1.523 . S
C425 C409 1.429 . S
C425 C421 1.429 . S
C425 C426 1.523 . S
C426 C410 1.368 . S
C426 C422 1.368 . S
C426 C425 1.523 . S
H427 C402 0.950 . S
H428 C404 0.950 . S
H429 C405 0.949 . S
H430 C407 0.950 . S
H431 C409 0.950 . S
C432 C433 1.349 . S
C432 C434 1.327 . S
C432 H457 0.950 . S
C433 C432 1.349 . S
C433 C449 1.349 . S
C434 C432 1.327 . S
C434 C453 1.429 . S
C434 H458 0.950 . S
C435 C452 1.574 . S
C435 C454 1.368 . S
C435 H459 0.949 . S
H436 C440 0.949 . S
C437 C438 1.349 . S
C437 C439 1.327 . S
C437 H460 0.950 . S
C438 C437 1.349 . S
C438 C450 1.349 . S
C439 C437 1.327 . S
C439 C455 1.429 . S
C439 H461 0.950 . S
C440 H436 0.949 . S
C440 C448 1.574 . S
C440 C456 1.368 . S
H441 C449 0.950 . S
H442 C447 0.950 . S
H443 C448 0.949 . S
H444 C450 0.950 . S
H445 C451 0.950 . S
H446 C452 0.949 . S
C447 H442 0.950 . S
C447 C449 1.327 . S
C447 C453 1.429 . S
C448 C440 1.574 . S
C448 H443 0.949 . S
C448 C454 1.368 . S
C449 C433 1.349 . S
C449 H441 0.950 . S
C449 C447 1.327 . S
C450 C438 1.349 . S
C450 H444 0.950 . S
C450 C451 1.327 . S
C451 H445 0.950 . S
C451 C450 1.327 . S
C451 C455 1.429 . S
C452 C435 1.574 . S
C452 H446 0.949 . S
C452 C456 1.368 . S
C453 C434 1.429 . S
C453 C447 1.429 . S
C453 C454 1.523 . S
C454 C435 1.368 . S
C454 C448 1.368 . S
C454 C453 1.523 . S
C455 C439 1.429 . S
C455 C451 1.429 . S
C455 C456 1.523 . S
C456 C440 1.368 . S
C456 C452 1.368 . S
C456 C455 1.523 . S
H457 C432 0.950 . S
H458 C434 0.950 . S
H459 C435 0.949 . S
H460 C437 0.950 . S
H461 C439 0.950 . S
C462 C463 1.349 . S
C462 C464 1.327 . S
C462 H487 0.950 . S
C463 C462 1.349 . S
C463 C479 1.349 . S
C464 C462 1.327 . S
C464 C483 1.429 . S
C464 H488 0.950 . S
C465 C482 1.574 . S
C465 C484 1.368 . S
C465 H489 0.949 . S
H466 C470 0.949 . S
C467 C468 1.349 . S
C467 C469 1.327 . S
C467 H490 0.950 . S
C468 C467 1.349 . S
C468 C480 1.349 . S
C469 C467 1.327 . S
C469 C485 1.429 . S
C469 H491 0.950 . S
C470 H466 0.949 . S
C470 C478 1.574 . S
C470 C486 1.368 . S
H471 C479 0.950 . S
H472 C477 0.950 . S
H473 C478 0.949 . S
H474 C480 0.950 . S
H475 C481 0.950 . S
H476 C482 0.949 . S
C477 H472 0.950 . S
C477 C479 1.327 . S
C477 C483 1.429 . S
C478 C470 1.574 . S
C478 H473 0.949 . S
C478 C484 1.368 . S
C479 C463 1.349 . S
C479 H471 0.950 . S
C479 C477 1.327 . S
C480 C468 1.349 . S
C480 H474 0.950 . S
C480 C481 1.327 . S
C481 H475 0.950 . S
C481 C480 1.327 . S
C481 C485 1.429 . S
C482 C465 1.574 . S
C482 H476 0.949 . S
C482 C486 1.368 . S
C483 C464 1.429 . S
C483 C477 1.429 . S
C483 C484 1.523 . S
C484 C465 1.368 . S
C484 C478 1.368 . S
C484 C483 1.523 . S
C485 C469 1.429 . S
C485 C481 1.429 . S
C485 C486 1.523 . S
C486 C470 1.368 . S
C486 C482 1.368 . S
C486 C485 1.523 . S
H487 C462 0.950 . S
H488 C464 0.950 . S
H489 C465 0.949 . S
H490 C467 0.950 . S
H491 C469 0.950 . S
C492 C493 1.349 . S
C492 C494 1.327 . S
C492 H517 0.950 . S
C493 C492 1.349 . S
C493 C509 1.349 . S
C494 C492 1.327 . S
C494 C513 1.429 . S
C494 H518 0.950 . S
C495 C512 1.574 1_554 S
C495 C514 1.368 . S
C495 H519 0.949 . S
H496 C500 0.940 1_556 S
C497 C498 1.349 . S
C497 C499 1.327 . S
C497 H520 0.950 . S
C498 C497 1.349 . S
C498 C510 1.349 . S
C499 C497 1.327 . S
C499 C515 1.429 . S
C499 H521 0.950 . S
C500 H496 0.940 1_554 S
C500 C508 1.590 . S
C500 C516 1.362 1_554 S
H501 C509 0.950 . S
H502 C507 0.950 . S
H503 C508 0.949 . S
H504 C510 0.950 . S
H505 C511 0.950 . S
H506 C512 0.949 . S
C507 H502 0.950 . S
C507 C509 1.327 . S
C507 C513 1.429 . S
C508 C500 1.590 . S
C508 H503 0.949 . S
C508 C514 1.368 . S
C509 C493 1.349 . S
C509 H501 0.950 . S
C509 C507 1.327 . S
C510 C498 1.349 . S
C510 H504 0.950 . S
C510 C511 1.327 . S
C511 H505 0.950 . S
C511 C510 1.327 . S
C511 C515 1.429 . S
C512 C495 1.574 1_556 S
C512 H506 0.949 . S
C512 C516 1.368 . S
C513 C494 1.429 . S
C513 C507 1.429 . S
C513 C514 1.523 . S
C514 C495 1.368 . S
C514 C508 1.368 . S
C514 C513 1.523 . S
C515 C499 1.429 . S
C515 C511 1.429 . S
C515 C516 1.523 . S
C516 C500 1.362 1_556 S
C516 C512 1.368 . S
C516 C515 1.523 . S
H517 C492 0.950 . S
H518 C494 0.950 . S
H519 C495 0.949 . S
H520 C497 0.950 . S
H521 C499 0.950 . S
C522 C523 1.349 . S
C522 C524 1.327 . S
C522 H547 0.950 . S
C523 C522 1.349 . S
C523 C539 1.349 . S
C524 C522 1.327 . S
C524 C543 1.429 . S
C524 H548 0.950 . S
C525 C542 1.574 . S
C525 C544 1.368 . S
C525 H549 0.949 . S
H526 C530 0.949 . S
C527 C528 1.349 . S
C527 C529 1.327 . S
C527 H550 0.950 . S
C528 C527 1.349 . S
C528 C540 1.349 . S
C529 C527 1.327 . S
C529 C545 1.429 . S
C529 H551 0.950 . S
C530 H526 0.949 . S
C530 C538 1.574 . S
C530 C546 1.368 . S
H531 C539 0.950 . S
H532 C537 0.950 . S
H533 C538 0.949 . S
H534 C540 0.950 . S
H535 C541 0.950 . S
H536 C542 0.949 . S
C537 H532 0.950 . S
C537 C539 1.327 . S
C537 C543 1.429 . S
C538 C530 1.574 . S
C538 H533 0.949 . S
C538 C544 1.368 . S
C539 C523 1.349 . S
C539 H531 0.950 . S
C539 C537 1.327 . S
C540 C528 1.349 . S
C540 H534 0.950 . S
C540 C541 1.327 . S
C541 H535 0.950 . S
C541 C540 1.327 . S
C541 C545 1.429 . S
C542 C525 1.574 . S
C542 H536 0.949 . S
C542 C546 1.368 . S
C543 C524 1.429 . S
C543 C537 1.429 . S
C543 C544 1.523 . S
C544 C525 1.368 . S
C544 C538 1.368 . S
C544 C543 1.523 . S
C545 C529 1.429 . S
C545 C541 1.429 . S
C545 C546 1.523 . S
C546 C530 1.368 . S
C546 C542 1.368 . S
C546 C545 1.523 . S
H547 C522 0.950 . S
H548 C524 0.950 . S
H549 C525 0.949 . S
H550 C527 0.950 . S
H551 C529 0.950 . S
C552 C553 1.349 . S
C552 C554 1.327 . S
C552 H577 0.950 . S
C553 C552 1.349 . S
C553 C569 1.349 . S
C554 C552 1.327 . S
C554 C573 1.429 . S
C554 H578 0.950 . S
C555 C572 1.574 . S
C555 C574 1.368 . S
C555 H579 0.949 . S
H556 C560 0.949 . S
C557 C558 1.349 . S
C557 C559 1.327 . S
C557 H580 0.950 . S
C558 C557 1.349 . S
C558 C570 1.349 . S
C559 C557 1.327 . S
C559 C575 1.429 . S
C559 H581 0.950 . S
C560 H556 0.949 . S
C560 C568 1.574 . S
C560 C576 1.368 . S
H561 C569 0.950 . S
H562 C567 0.950 . S
H563 C568 0.949 . S
H564 C570 0.950 . S
H565 C571 0.950 . S
H566 C572 0.949 . S
C567 H562 0.950 . S
C567 C569 1.327 . S
C567 C573 1.429 . S
C568 C560 1.574 . S
C568 H563 0.949 . S
C568 C574 1.368 . S
C569 C553 1.349 . S
C569 H561 0.950 . S
C569 C567 1.327 . S
C570 C558 1.349 . S
C570 H564 0.950 . S
C570 C571 1.327 . S
C571 H565 0.950 . S
C571 C570 1.327 . S
C571 C575 1.429 . S
C572 C555 1.574 . S
C572 H566 0.949 . S
C572 C576 1.368 . S
C573 C554 1.429 . S
C573 C567 1.429 . S
C573 C574 1.523 . S
C574 C555 1.368 . S
C574 C568 1.368 . S
C574 C573 1.523 . S
C575 C559 1.429 . S
C575 C571 1.429 . S
C575 C576 1.523 . S
C576 C560 1.368 . S
C576 C572 1.368 . S
C576 C575 1.523 . S
H577 C552 0.950 . S
H578 C554 0.950 . S
H579 C555 0.949 . S
H580 C557 0.950 . S
H581 C559 0.950 . S
C582 C583 1.349 . S
C582 C584 1.327 . S
C582 H607 0.950 . S
C583 C582 1.349 . S
C583 C599 1.349 . S
C584 C582 1.327 . S
C584 C603 1.429 . S
C584 H608 0.950 . S
C585 C602 1.574 . S
C585 C604 1.368 . S
C585 H609 0.949 . S
H586 C590 0.949 . S
C587 C588 1.349 . S
C587 C589 1.327 . S
C587 H610 0.950 . S
C588 C587 1.349 . S
C588 C600 1.349 . S
C589 C587 1.327 . S
C589 C605 1.429 . S
C589 H611 0.950 . S
C590 H586 0.949 . S
C590 C598 1.574 . S
C590 C606 1.368 . S
H591 C599 0.950 . S
H592 C597 0.950 . S
H593 C598 0.949 . S
H594 C600 0.950 . S
H595 C601 0.950 . S
H596 C602 0.949 . S
C597 H592 0.950 . S
C597 C599 1.327 . S
C597 C603 1.429 . S
C598 C590 1.574 . S
C598 H593 0.949 . S
C598 C604 1.368 . S
C599 C583 1.349 . S
C599 H591 0.950 . S
C599 C597 1.327 . S
C600 C588 1.349 . S
C600 H594 0.950 . S
C600 C601 1.327 . S
C601 H595 0.950 . S
C601 C600 1.327 . S
C601 C605 1.429 . S
C602 C585 1.574 . S
C602 H596 0.949 . S
C602 C606 1.368 . S
C603 C584 1.429 . S
C603 C597 1.429 . S
C603 C604 1.523 . S
C604 C585 1.368 . S
C604 C598 1.368 . S
C604 C603 1.523 . S
C605 C589 1.429 . S
C605 C601 1.429 . S
C605 C606 1.523 . S
C606 C590 1.368 . S
C606 C602 1.368 . S
C606 C605 1.523 . S
H607 C582 0.950 . S
H608 C584 0.950 . S
H609 C585 0.949 . S
H610 C587 0.950 . S
H611 C589 0.950 . S
C612 C613 1.349 . S
C612 C614 1.327 . S
C612 H637 0.950 . S
C613 C612 1.349 . S
C613 C629 1.349 . S
C614 C612 1.327 . S
C614 C633 1.429 . S
C614 H638 0.950 . S
C615 C632 1.579 . S
C615 C634 1.368 . S
C615 H639 0.949 . S
H616 C620 0.951 1_554 S
C617 C618 1.349 . S
C617 C619 1.327 . S
C617 H640 0.950 . S
C618 C617 1.349 . S
C618 C630 1.349 . S
C619 C617 1.327 . S
C619 C635 1.429 . S
C619 H641 0.950 . S
C620 H616 0.951 1_556 S
C620 C628 1.574 . S
C620 C636 1.368 1_556 S
H621 C629 0.950 . S
H622 C627 0.950 . S
H623 C628 0.949 . S
H624 C630 0.950 . S
H625 C631 0.950 . S
H626 C632 0.946 1_554 S
C627 H622 0.950 . S
C627 C629 1.327 . S
C627 C633 1.429 . S
C628 C620 1.574 . S
C628 H623 0.949 . S
C628 C634 1.368 . S
C629 C613 1.349 . S
C629 H621 0.950 . S
C629 C627 1.327 . S
C630 C618 1.349 . S
C630 H624 0.950 . S
C630 C631 1.327 . S
C631 H625 0.950 . S
C631 C630 1.327 . S
C631 C635 1.429 . S
C632 C615 1.579 . S
C632 H626 0.946 1_556 S
C632 C636 1.366 1_556 S
C633 C614 1.429 . S
C633 C627 1.429 . S
C633 C634 1.523 . S
C634 C615 1.368 . S
C634 C628 1.368 . S
C634 C633 1.523 . S
C635 C619 1.429 . S
C635 C631 1.429 . S
C635 C636 1.523 . S
C636 C620 1.368 1_554 S
C636 C632 1.366 1_554 S
C636 C635 1.523 . S
H637 C612 0.950 . S
H638 C614 0.950 . S
H639 C615 0.949 . S
H640 C617 0.950 . S
H641 C619 0.950 . S
C642 C643 1.349 . S
C642 C644 1.327 . S
C642 H667 0.950 . S
C643 C642 1.349 . S
C643 C659 1.349 . S
C644 C642 1.327 . S
C644 C663 1.429 . S
C644 H668 0.950 . S
C645 C662 1.574 . S
C645 C664 1.368 . S
C645 H669 0.949 . S
H646 C650 0.949 . S
C647 C648 1.349 . S
C647 C649 1.327 . S
C647 H670 0.950 . S
C648 C647 1.349 . S
C648 C660 1.349 . S
C649 C647 1.327 . S
C649 C665 1.429 . S
C649 H671 0.950 . S
C650 H646 0.949 . S
C650 C658 1.574 . S
C650 C666 1.368 . S
H651 C659 0.950 . S
H652 C657 0.950 . S
H653 C658 0.949 . S
H654 C660 0.950 . S
H655 C661 0.950 . S
H656 C662 0.949 . S
C657 H652 0.950 . S
C657 C659 1.327 . S
C657 C663 1.429 . S
C658 C650 1.574 . S
C658 H653 0.949 . S
C658 C664 1.368 . S
C659 C643 1.349 . S
C659 H651 0.950 . S
C659 C657 1.327 . S
C660 C648 1.349 . S
C660 H654 0.950 . S
C660 C661 1.327 . S
C661 H655 0.950 . S
C661 C660 1.327 . S
C661 C665 1.429 . S
C662 C645 1.574 . S
C662 H656 0.949 . S
C662 C666 1.368 . S
C663 C644 1.429 . S
C663 C657 1.429 . S
C663 C664 1.523 . S
C664 C645 1.368 . S
C664 C658 1.368 . S
C664 C663 1.523 . S
C665 C649 1.429 . S
C665 C661 1.429 . S
C665 C666 1.523 . S
C666 C650 1.368 . S
C666 C662 1.368 . S
C666 C665 1.523 . S
H667 C642 0.950 . S
H668 C644 0.950 . S
H669 C645 0.949 . S
H670 C647 0.950 . S
H671 C649 0.950 . S
C133 C8 2.283 . S
C138 C126 2.362 . S
C163 C26 1.369 . S
C168 C100 1.360 . S
C193 C48 1.548 . S
C198 C112 1.570 . S
C223 C19 1.472 1_655 S
C228 C124 1.459 . S
C258 C102 1.335 . S
C253 C36 1.330 . S
C288 C114 1.524 . S
C283 C59 1.475 . S
C313 C28 1.558 . S
C318 C76 1.584 . S
C343 C46 1.468 . S
C348 C90 1.495 . S
C373 C16 1.358 . S
C378 C66 1.359 1_565 S
C408 C78 1.520 . S
C403 C39 1.479 . S
C438 C88 0.695 . S
C433 C56 0.689 . S
C463 C6 1.388 . S
C468 C64 1.369 . S
C498 C93 1.478 . S
C493 C9 1.446 . S
C523 C21 1.531 . S
C528 C69 1.544 . S
C553 C49 1.482 . S
C558 C81 1.478 . S
C588 C117 1.504 . S
C583 C29 1.508 . S
C618 C129 1.616 . S
C613 C41 1.591 . S
C643 C1 1.503 . S
C648 C105 1.506 . S
