# Generated by pormake.
# Topology nom, (4,4)-cn, num edge types: 1
# Building blocks:
#     Node 0, Type 0, BuildingBlock: MUDLON_clean_linker_0, # of connection points: 4
#     Node 1, Type 0, BuildingBlock: MUDLON_clean_linker_0, # of connection points: 4
#     Node 2, Type 0, BuildingBlock: MUDLON_clean_linker_0, # of connection points: 4
#     Node 3, Type 0, BuildingBlock: MUDLON_clean_linker_0, # of connection points: 4
#     Node 4, Type 0, BuildingBlock: MUDLON_clean_linker_0, # of connection points: 4
#     Node 5, Type 0, BuildingBlock: MUDLON_clean_linker_0, # of connection points: 4
#     Node 6, Type 1, BuildingBlock: TATPOV_clean_sbu_0, # of connection points: 4
#     Node 7, Type 1, BuildingBlock: TATPOV_clean_sbu_0, # of connection points: 4
#     Node 8, Type 1, BuildingBlock: TATPOV_clean_sbu_0, # of connection points: 4
#     Node 9, Type 1, BuildingBlock: TATPOV_clean_sbu_0, # of connection points: 4
#     Node 10, Type 1, BuildingBlock: TATPOV_clean_sbu_0, # of connection points: 4
#     Node 11, Type 1, BuildingBlock: TATPOV_clean_sbu_0, # of connection points: 4
#     Edge 12, Type (0, 1), BuildingBlock: EZIPEK_clean_linker_0, # of connection points: 2
#     Edge 13, Type (0, 1), BuildingBlock: EZIPEK_clean_linker_0, # of connection points: 2
#     Edge 14, Type (0, 1), BuildingBlock: EZIPEK_clean_linker_0, # of connection points: 2
#     Edge 15, Type (0, 1), BuildingBlock: EZIPEK_clean_linker_0, # of connection points: 2
#     Edge 16, Type (0, 1), BuildingBlock: EZIPEK_clean_linker_0, # of connection points: 2
#     Edge 17, Type (0, 1), BuildingBlock: EZIPEK_clean_linker_0, # of connection points: 2
#     Edge 18, Type (0, 1), BuildingBlock: EZIPEK_clean_linker_0, # of connection points: 2
#     Edge 19, Type (0, 1), BuildingBlock: EZIPEK_clean_linker_0, # of connection points: 2
#     Edge 20, Type (0, 1), BuildingBlock: EZIPEK_clean_linker_0, # of connection points: 2
#     Edge 21, Type (0, 1), BuildingBlock: EZIPEK_clean_linker_0, # of connection points: 2
#     Edge 22, Type (0, 1), BuildingBlock: EZIPEK_clean_linker_0, # of connection points: 2
#     Edge 23, Type (0, 1), BuildingBlock: EZIPEK_clean_linker_0, # of connection points: 2
#     Edge 24, Type (0, 1), BuildingBlock: EZIPEK_clean_linker_0, # of connection points: 2
#     Edge 25, Type (0, 1), BuildingBlock: EZIPEK_clean_linker_0, # of connection points: 2
#     Edge 26, Type (0, 1), BuildingBlock: EZIPEK_clean_linker_0, # of connection points: 2
#     Edge 27, Type (0, 1), BuildingBlock: EZIPEK_clean_linker_0, # of connection points: 2
#     Edge 28, Type (0, 1), BuildingBlock: EZIPEK_clean_linker_0, # of connection points: 2
#     Edge 29, Type (0, 1), BuildingBlock: EZIPEK_clean_linker_0, # of connection points: 2
#     Edge 30, Type (0, 1), BuildingBlock: EZIPEK_clean_linker_0, # of connection points: 2
#     Edge 31, Type (0, 1), BuildingBlock: EZIPEK_clean_linker_0, # of connection points: 2
#     Edge 32, Type (0, 1), BuildingBlock: EZIPEK_clean_linker_0, # of connection points: 2
#     Edge 33, Type (0, 1), BuildingBlock: EZIPEK_clean_linker_0, # of connection points: 2
#     Edge 34, Type (0, 1), BuildingBlock: EZIPEK_clean_linker_0, # of connection points: 2
#     Edge 35, Type (0, 1), BuildingBlock: EZIPEK_clean_linker_0, # of connection points: 2
# Relax obj value: 0.024
# Max RMSD: 0.121
# Mean RMSD: 0.105
data_MOF--net-nom--node1-TATPOV_clean_sbu_0--node2-MUDLON_clean_linker_0--edge1-EZIPEK_clean_linker_0
_symmetry_space_group_name_H-M    P1
_symmetry_Int_Tables_number       1
_symmetry_cell_setting            triclinic
loop_
_symmetry_equiv_pos_as_xyz
'x, y, z'
_cell_length_a     47.891747
_cell_length_b     49.206295
_cell_length_c     47.879286
_cell_angle_alpha  91.073322
_cell_angle_beta   90.523799
_cell_angle_gamma 120.46033
loop_
_atom_site_label
_atom_site_type_symbol
_atom_site_fract_x
_atom_site_fract_y
_atom_site_fract_z
_atom_type_partial_charge
H0 H 0.1921 0.55477 0.31529 0.0
N1 N 0.13301 0.53937 0.33087 0.0
H2 H 0.2306 0.60187 0.29016 0.0
H3 H 0.11826 0.57936 0.30303 0.0
H4 H 0.15659 0.62595 0.27769 0.0
H5 H 0.13948 0.59315 0.35559 0.0
H6 H 0.15887 0.61267 0.4032 0.0
H7 H 0.14545 0.51011 0.37119 0.0
H8 H 0.16454 0.52972 0.41944 0.0
H9 H 0.10428 0.48477 0.3024 0.0
H10 H 0.08435 0.55111 0.34461 0.0
H11 H 0.04623 0.45012 0.29211 0.0
H12 H 0.02678 0.51701 0.33426 0.0
H13 H 0.85448 0.34733 0.26272 0.0
H14 H 0.82829 0.34169 0.21673 0.0
H15 H 0.88219 0.44267 0.20884 0.0
H16 H 0.90854 0.44835 0.25433 0.0
H17 H 0.89669 0.4574 0.29948 0.0
H18 H 0.85659 0.4655 0.32373 0.0
H19 H 0.80459 0.36754 0.34543 0.0
H20 H 0.8446 0.35917 0.32067 0.0
H21 H 0.94371 0.41305 0.25549 0.0
H22 H 0.00146 0.44717 0.26443 0.0
H23 H 0.98271 0.4652 0.3487 0.0
N24 N 0.89414 0.40087 0.29087 0.0
H25 H 0.92508 0.43157 0.33998 0.0
C26 C 0.1523 0.56331 0.31112 0.0
C27 C 0.1839 0.56969 0.30644 0.0
C28 C 0.20581 0.5965 0.29223 0.0
C29 C 0.19631 0.61724 0.28224 0.0
C30 C 0.16418 0.61001 0.28521 0.0
C31 C 0.1423 0.58329 0.29965 0.0
C32 C 0.14125 0.55011 0.35967 0.0
C33 C 0.14457 0.57889 0.36926 0.0
C34 C 0.1556 0.59007 0.39646 0.0
C35 C 0.16321 0.57266 0.41461 0.0
C36 C 0.15874 0.5434 0.40559 0.0
C37 C 0.1479 0.53227 0.37822 0.0
C38 C 0.09877 0.52035 0.32443 0.0
C39 C 0.08741 0.4919 0.30931 0.0
C40 C 0.05432 0.47226 0.30336 0.0
C41 C 0.0319 0.48076 0.31253 0.0
C42 C 0.04338 0.50955 0.32733 0.0
C43 C 0.07643 0.52917 0.3332 0.0
C44 C 0.88338 0.39813 0.26205 0.0
C45 C 0.86118 0.36814 0.25074 0.0
C46 C 0.84623 0.36494 0.22467 0.0
C47 C 0.85326 0.39181 0.20965 0.0
C48 C 0.87649 0.42172 0.22026 0.0
C49 C 0.89141 0.42493 0.24625 0.0
C50 C 0.87352 0.40748 0.30815 0.0
C51 C 0.87688 0.43766 0.30958 0.0
C52 C 0.85417 0.44237 0.32355 0.0
C53 C 0.82783 0.41711 0.3363 0.0
C54 C 0.82497 0.3873 0.3358 0.0
C55 C 0.84768 0.38255 0.32176 0.0
C56 C 0.92894 0.42148 0.29611 0.0
C57 C 0.9516 0.42496 0.27571 0.0
C58 C 0.9849 0.44417 0.28095 0.0
C59 C 0.99662 0.45964 0.30702 0.0
C60 C 0.97438 0.45461 0.32802 0.0
C61 C 0.94114 0.43538 0.32285 0.0
H62 H 0.48574 0.85763 0.48144 0.0
N63 N 0.49054 0.90921 0.46024 0.0
H64 H 0.44027 0.81695 0.50755 0.0
H65 H 0.44115 0.91496 0.48335 0.0
H66 H 0.39618 0.87456 0.50972 0.0
H67 H 0.43254 0.88912 0.43268 0.0
H68 H 0.41782 0.86643 0.38537 0.0
H69 H 0.52822 0.90239 0.42348 0.0
H70 H 0.51331 0.87973 0.37551 0.0
H71 H 0.54309 0.94794 0.49054 0.0
H72 H 0.46815 0.94646 0.43879 0.0
H73 H 0.56854 0.00514 0.49684 0.0
H74 H 0.49409 0.00345 0.44381 0.0
H75 H 0.6522 0.1773 0.51863 0.0
H76 H 0.6587 0.19619 0.56761 0.0
H77 H 0.55486 0.1462 0.57542 0.0
H78 H 0.54836 0.127 0.52705 0.0
H79 H 0.54573 0.1536 0.48749 0.0
H80 H 0.54465 0.19638 0.46343 0.0
H81 H 0.63856 0.22545 0.4297 0.0
H82 H 0.63943 0.18201 0.45345 0.0
H83 H 0.62496 0.10941 0.4803 0.0
H84 H 0.59871 0.05241 0.47208 0.0
H85 H 0.50501 0.0452 0.47579 0.0
N86 N 0.59708 0.14324 0.48966 0.0
H87 H 0.53143 0.10205 0.48262 0.0
C88 C 0.46707 0.88937 0.48039 0.0
C89 C 0.46677 0.8619 0.48827 0.0
C90 C 0.4409 0.83875 0.50308 0.0
C91 C 0.41503 0.84289 0.51048 0.0
C92 C 0.41615 0.87118 0.50431 0.0
C93 C 0.44191 0.89425 0.48927 0.0
C94 C 0.48161 0.89733 0.43177 0.0
C95 C 0.45048 0.88733 0.42053 0.0
C96 C 0.44203 0.87439 0.3935 0.0
C97 C 0.46448 0.87139 0.37716 0.0
C98 C 0.49574 0.88191 0.38796 0.0
C99 C 0.5042 0.89478 0.41515 0.0
C100 C 0.50399 0.94281 0.46405 0.0
C101 C 0.53225 0.95999 0.48045 0.0
C102 C 0.54689 0.99271 0.48377 0.0
C103 C 0.53361 0.00907 0.47056 0.0
C104 C 0.5049 0.9917 0.45446 0.0
C105 C 0.49013 0.95894 0.45136 0.0
C106 C 0.59993 0.15097 0.51909 0.0
C107 C 0.63092 0.17001 0.53111 0.0
C108 C 0.63461 0.18072 0.5589 0.0
C109 C 0.60722 0.17266 0.57489 0.0
C110 C 0.57622 0.15263 0.56328 0.0
C111 C 0.57256 0.14177 0.5356 0.0
C112 C 0.59269 0.16431 0.47206 0.0
C113 C 0.56565 0.1683 0.47425 0.0
C114 C 0.56507 0.19292 0.46064 0.0
C115 C 0.59161 0.21413 0.44498 0.0
C116 C 0.61785 0.20928 0.44169 0.0
C117 C 0.61831 0.18452 0.45511 0.0
C118 C 0.58038 0.11013 0.48215 0.0
C119 C 0.59876 0.09548 0.47889 0.0
C120 C 0.58367 0.06286 0.47455 0.0
C121 C 0.54967 0.04404 0.47363 0.0
C122 C 0.53123 0.0589 0.47615 0.0
C123 C 0.54641 0.09161 0.48025 0.0
H124 H 0.45869 0.61506 0.64325 0.0
N125 N 0.42817 0.55504 0.66312 0.0
H126 H 0.43315 0.6382 0.6156 0.0
H127 H 0.37011 0.52491 0.63844 0.0
H128 H 0.34421 0.54835 0.61121 0.0
H129 H 0.4791 0.60863 0.68663 0.0
H130 H 0.48069 0.63079 0.73358 0.0
H131 H 0.38456 0.52924 0.70248 0.0
H132 H 0.38638 0.55097 0.74952 0.0
H133 H 0.48757 0.58962 0.639 0.0
H134 H 0.4196 0.49825 0.67022 0.0
H135 H 0.52534 0.57155 0.62854 0.0
H136 H 0.45777 0.48027 0.66122 0.0
H137 H 0.64801 0.50811 0.61582 0.0
H138 H 0.66921 0.50315 0.57053 0.0
H139 H 0.57172 0.45005 0.53672 0.0
H140 H 0.55065 0.45536 0.58138 0.0
H141 H 0.54742 0.41922 0.61705 0.0
H142 H 0.54547 0.37589 0.64256 0.0
H143 H 0.61174 0.44179 0.70507 0.0
H144 H 0.61385 0.4857 0.67934 0.0
H145 H 0.5993 0.53997 0.64441 0.0
H146 H 0.56098 0.55846 0.6509 0.0
H147 H 0.48213 0.46566 0.62656 0.0
N148 N 0.58637 0.48242 0.62989 0.0
H149 H 0.5202 0.44718 0.62175 0.0
C150 C 0.41632 0.56801 0.64266 0.0
C151 C 0.43414 0.59995 0.63555 0.0
C152 C 0.41951 0.61326 0.61991 0.0
C153 C 0.3868 0.59498 0.61155 0.0
C154 C 0.36951 0.56278 0.61743 0.0
C155 C 0.38425 0.54942 0.63282 0.0
C156 C 0.43149 0.56735 0.69117 0.0
C157 C 0.45888 0.59587 0.70027 0.0
C158 C 0.45987 0.60843 0.72699 0.0
C159 C 0.43365 0.59239 0.74484 0.0
C160 C 0.40684 0.56353 0.73598 0.0
C161 C 0.40577 0.55117 0.70931 0.0
C162 C 0.45047 0.54502 0.65504 0.0
C163 C 0.48062 0.56559 0.64344 0.0
C164 C 0.50243 0.55527 0.63776 0.0
C165 C 0.49471 0.52438 0.64399 0.0
C166 C 0.4644 0.50396 0.65555 0.0
C167 C 0.44256 0.5142 0.66087 0.0
C168 C 0.59785 0.4823 0.60215 0.0
C169 C 0.63131 0.49592 0.59846 0.0
C170 C 0.64333 0.49295 0.5728 0.0
C171 C 0.62194 0.476 0.55048 0.0
C172 C 0.58854 0.46311 0.5538 0.0
C173 C 0.57655 0.46629 0.57936 0.0
C174 C 0.58099 0.45594 0.64628 0.0
C175 C 0.56102 0.42457 0.63649 0.0
C176 C 0.55984 0.39974 0.65105 0.0
C177 C 0.5784 0.40577 0.67562 0.0
C178 C 0.59708 0.43679 0.68622 0.0
C179 C 0.59833 0.46171 0.67158 0.0
C180 C 0.56285 0.49233 0.63258 0.0
C181 C 0.57371 0.52372 0.64051 0.0
C182 C 0.55176 0.53427 0.64395 0.0
C183 C 0.51834 0.51359 0.63924 0.0
C184 C 0.50757 0.48217 0.63084 0.0
C185 C 0.5295 0.47158 0.62779 0.0
H186 H 0.15622 0.65268 0.84235 0.0
N187 N 0.11981 0.61561 0.79992 0.0
H188 H 0.20048 0.65064 0.867 0.0
H189 H 0.13349 0.56792 0.79556 0.0
H190 H 0.17704 0.56564 0.82041 0.0
H191 H 0.10564 0.57328 0.75658 0.0
H192 H 0.12889 0.58564 0.70973 0.0
H193 H 0.15706 0.67233 0.7792 0.0
H194 H 0.1795 0.68483 0.73209 0.0
H195 H 0.07704 0.63352 0.79028 0.0
H196 H 0.08381 0.5541 0.81817 0.0
H197 H 0.01856 0.60351 0.79595 0.0
H198 H 0.02602 0.52487 0.82552 0.0
H199 H 0.8293 0.49567 0.85165 0.0
H200 H 0.80856 0.48206 0.89908 0.0
H201 H 0.88811 0.46851 0.92119 0.0
H202 H 0.90767 0.4801 0.87328 0.0
H203 H 0.86122 0.43261 0.83408 0.0
H204 H 0.81639 0.38867 0.80759 0.0
H205 H 0.80554 0.45491 0.75771 0.0
H206 H 0.85007 0.49891 0.78453 0.0
H207 H 0.92075 0.55627 0.8364 0.0
H208 H 0.97913 0.58505 0.82969 0.0
H209 H 0.97444 0.49783 0.80473 0.0
N210 N 0.87975 0.49487 0.83009 0.0
H211 H 0.91656 0.46916 0.81334 0.0
C212 C 0.14136 0.61044 0.81732 0.0
C213 C 0.16011 0.63318 0.83803 0.0
C214 C 0.18527 0.63206 0.852 0.0
C215 C 0.19176 0.60791 0.84551 0.0
C216 C 0.1721 0.58426 0.82579 0.0
C217 C 0.14726 0.58562 0.81162 0.0
C218 C 0.12991 0.62201 0.77136 0.0
C219 C 0.12166 0.59765 0.75137 0.0
C220 C 0.13483 0.60468 0.7247 0.0
C221 C 0.156 0.63613 0.71759 0.0
C222 C 0.16328 0.66045 0.73725 0.0
C223 C 0.15045 0.65338 0.76396 0.0
C224 C 0.08524 0.59651 0.80382 0.0
C225 C 0.06598 0.60972 0.79784 0.0
C226 C 0.03251 0.59255 0.80136 0.0
C227 C 0.01734 0.56173 0.8115 0.0
C228 C 0.03662 0.54834 0.81732 0.0
C229 C 0.0701 0.56537 0.81331 0.0
C230 C 0.87023 0.48942 0.85893 0.0
C231 C 0.84235 0.48993 0.86677 0.0
C232 C 0.83051 0.4821 0.89373 0.0
C233 C 0.84686 0.47437 0.91366 0.0
C234 C 0.87518 0.47443 0.9061 0.0
C235 C 0.88647 0.48132 0.87881 0.0
C236 C 0.85873 0.46905 0.81131 0.0
C237 C 0.8498 0.4377 0.81696 0.0
C238 C 0.82431 0.41268 0.80189 0.0
C239 C 0.80777 0.41871 0.78084 0.0
C240 C 0.81822 0.44993 0.77382 0.0
C241 C 0.84353 0.47493 0.78903 0.0
C242 C 0.9141 0.51074 0.82502 0.0
C243 C 0.93243 0.54346 0.82946 0.0
C244 C 0.9658 0.55987 0.82537 0.0
C245 C 0.98171 0.54393 0.8163 0.0
C246 C 0.96325 0.51096 0.81198 0.0
C247 C 0.92988 0.49448 0.81658 0.0
H248 H 0.51546 0.16046 0.00641 0.0
N249 N 0.52604 0.13 0.96536 0.0
H250 H 0.55654 0.2063 0.03404 0.0
H251 H 0.59107 0.15071 0.96791 0.0
H252 H 0.63197 0.1965 0.99528 0.0
H253 H 0.5617 0.11956 0.92701 0.0
H254 H 0.57415 0.14068 0.87966 0.0
H255 H 0.5035 0.16254 0.93976 0.0
H256 H 0.51526 0.18304 0.89224 0.0
H257 H 0.46499 0.08673 0.9546 0.0
H258 H 0.55541 0.09771 0.98448 0.0
H259 H 0.43903 0.02986 0.95886 0.0
H260 H 0.5292 0.04101 0.99073 0.0
H261 H 0.3629 0.84448 0.00584 0.0
H262 H 0.35264 0.82304 0.05291 0.0
H263 H 0.44373 0.9021 0.0822 0.0
H264 H 0.45503 0.9224 0.03475 0.0
H265 H 0.46136 0.87931 0.99482 0.0
H266 H 0.46162 0.83537 0.96981 0.0
H267 H 0.38386 0.82429 0.91572 0.0
H268 H 0.38322 0.86785 0.94107 0.0
H269 H 0.39126 0.93352 0.9949 0.0
H270 H 0.41914 0.99059 0.99104 0.0
H271 H 0.50686 0.9912 0.96888 0.0
N272 N 0.41519 0.89583 0.98837 0.0
H273 H 0.47918 0.9343 0.97481 0.0
C274 C 0.55006 0.15215 0.98514 0.0
C275 C 0.54078 0.16761 0.00455 0.0
C276 C 0.56413 0.19372 0.02018 0.0
C277 C 0.59718 0.20474 0.01652 0.0
C278 C 0.60654 0.18822 0.99838 0.0
C279 C 0.58316 0.16207 0.98278 0.0
C280 C 0.53177 0.13972 0.93682 0.0
C281 C 0.55145 0.13332 0.91953 0.0
C282 C 0.55846 0.14526 0.8926 0.0
C283 C 0.54561 0.16339 0.88261 0.0
C284 C 0.52535 0.16908 0.89965 0.0
C285 C 0.51861 0.15741 0.92659 0.0
C286 C 0.51191 0.09665 0.96954 0.0
C287 C 0.47908 0.07683 0.96254 0.0
C288 C 0.46425 0.04427 0.96523 0.0
C289 C 0.48178 0.03058 0.97556 0.0
C290 C 0.5149 0.05052 0.98246 0.0
C291 C 0.52993 0.0832 0.9792 0.0
C292 C 0.40936 0.88524 0.01679 0.0
C293 C 0.38061 0.8572 0.02243 0.0
C294 C 0.37482 0.84498 0.04918 0.0
C295 C 0.39734 0.86109 0.07105 0.0
C296 C 0.42603 0.88938 0.0656 0.0
C297 C 0.43233 0.90107 0.03856 0.0
C298 C 0.42198 0.87656 0.96984 0.0
C299 C 0.44515 0.86815 0.97698 0.0
C300 C 0.44532 0.84315 0.96275 0.0
C301 C 0.42267 0.82666 0.94107 0.0
C302 C 0.4016 0.83693 0.93232 0.0
C303 C 0.40126 0.86172 0.94669 0.0
C304 C 0.43277 0.9295 0.9847 0.0
C305 C 0.4165 0.94605 0.98917 0.0
C306 C 0.43252 0.97872 0.98673 0.0
C307 C 0.46528 0.99575 0.97919 0.0
C308 C 0.48175 0.97909 0.97493 0.0
C309 C 0.46578 0.94633 0.97795 0.0
H310 H 0.53121 0.38024 0.15624 0.0
N311 N 0.52894 0.43015 0.17479 0.0
H312 H 0.57551 0.38025 0.13079 0.0
H313 H 0.57825 0.48121 0.14845 0.0
H314 H 0.62203 0.48098 0.1229 0.0
H315 H 0.58705 0.4717 0.20057 0.0
H316 H 0.60567 0.46607 0.24657 0.0
H317 H 0.49431 0.38805 0.21295 0.0
H318 H 0.51313 0.38265 0.25953 0.0
H319 H 0.47161 0.4109 0.15083 0.0
H320 H 0.55442 0.49327 0.18777 0.0
H321 H 0.44521 0.44173 0.14268 0.0
H322 H 0.52833 0.52413 0.1796 0.0
H323 H 0.36804 0.51666 0.10554 0.0
H324 H 0.35858 0.52633 0.05706 0.0
H325 H 0.45289 0.61051 0.05766 0.0
H326 H 0.46218 0.60114 0.10608 0.0
H327 H 0.36954 0.55535 0.16035 0.0
H328 H 0.37099 0.59994 0.18563 0.0
H329 H 0.47532 0.65143 0.18302 0.0
H330 H 0.47388 0.60707 0.15749 0.0
H331 H 0.39487 0.49802 0.16255 0.0
H332 H 0.4223 0.4684 0.17204 0.0
H333 H 0.5105 0.54398 0.13861 0.0
N334 N 0.4189 0.55321 0.13847 0.0
H335 H 0.48293 0.57321 0.12903 0.0
C336 C 0.55116 0.43054 0.15436 0.0
C337 C 0.5504 0.40218 0.14822 0.0
C338 C 0.57563 0.40218 0.13384 0.0
C339 C 0.60191 0.43063 0.12513 0.0
C340 C 0.60177 0.45882 0.1294 0.0
C341 C 0.57663 0.45885 0.144 0.0
C342 C 0.53912 0.43014 0.20325 0.0
C343 C 0.57041 0.45249 0.21333 0.0
C344 C 0.58114 0.44927 0.23956 0.0
C345 C 0.56078 0.42389 0.2562 0.0
C346 C 0.52909 0.40237 0.24684 0.0
C347 C 0.51839 0.40549 0.22045 0.0
C348 C 0.51492 0.4496 0.16976 0.0
C349 C 0.4841 0.43562 0.15707 0.0
C350 C 0.46903 0.45321 0.15261 0.0
C351 C 0.4847 0.48532 0.16059 0.0
C352 C 0.51579 0.49949 0.17305 0.0
C353 C 0.5307 0.48177 0.17778 0.0
C354 C 0.41575 0.55795 0.10932 0.0
C355 C 0.38681 0.5369 0.09503 0.0
C356 C 0.38143 0.54243 0.06756 0.0
C357 C 0.40509 0.56909 0.05399 0.0
C358 C 0.43449 0.58976 0.06789 0.0
C359 C 0.4398 0.5843 0.09545 0.0
C360 C 0.42144 0.57771 0.15711 0.0
C361 C 0.39273 0.57599 0.16576 0.0
C362 C 0.39356 0.60138 0.18003 0.0
C363 C 0.42324 0.62896 0.18594 0.0
C364 C 0.4522 0.6303 0.17853 0.0
C365 C 0.45133 0.60489 0.16404 0.0
C366 C 0.43676 0.53783 0.14533 0.0
C367 C 0.42019 0.50823 0.15753 0.0
C368 C 0.43582 0.49131 0.16273 0.0
C369 C 0.46851 0.50385 0.15597 0.0
C370 C 0.48536 0.53386 0.14426 0.0
C371 C 0.46958 0.55064 0.1388 0.0
Zn372 Zn 0.68878 0.46409 0.38934 0.0
Zn373 Zn 0.65541 0.40095 0.40073 0.0
O374 O 0.70029 0.41078 0.38836 0.0
O375 O 0.72856 0.46155 0.37974 0.0
O376 O 0.63626 0.35565 0.41195 0.0
O377 O 0.68114 0.47415 0.4287 0.0
O378 O 0.65218 0.42314 0.4363 0.0
C379 C 0.72636 0.43486 0.38083 0.0
C380 C 0.63091 0.42461 0.35411 0.0
O381 O 0.62784 0.40158 0.36822 0.0
O382 O 0.6539 0.45251 0.3593 0.0
C383 C 0.61063 0.3315 0.40248 0.0
O384 O 0.59232 0.3346 0.38373 0.0
C385 C 0.6634 0.45169 0.44445 0.0
Zn386 Zn 0.22932 0.69413 0.55475 0.0
Zn387 Zn 0.26472 0.66644 0.56816 0.0
O388 O 0.2993 0.71161 0.55873 0.0
O389 O 0.27153 0.73452 0.54722 0.0
O390 O 0.291 0.64692 0.57977 0.0
O391 O 0.21009 0.68478 0.59342 0.0
O392 O 0.23727 0.66072 0.60262 0.0
C393 C 0.29835 0.73559 0.55053 0.0
C394 C 0.21766 0.64126 0.51828 0.0
O395 O 0.239 0.64042 0.53369 0.0
O396 O 0.20876 0.66111 0.52323 0.0
C397 C 0.31454 0.64956 0.56562 0.0
O398 O 0.3221 0.66513 0.54228 0.0
C399 C 0.21722 0.6692 0.60983 0.0
Zn400 Zn 0.55657 0.23107 0.71903 0.0
Zn401 Zn 0.62151 0.26697 0.73276 0.0
O402 O 0.60717 0.29858 0.72352 0.0
O403 O 0.55487 0.271 0.71321 0.0
O404 O 0.66803 0.29548 0.745 0.0
O405 O 0.54893 0.21157 0.75721 0.0
O406 O 0.60133 0.24002 0.76696 0.0
C407 C 0.58092 0.29728 0.71611 0.0
C408 C 0.60037 0.22302 0.68192 0.0
O409 O 0.62296 0.24298 0.69818 0.0
O410 O 0.57096 0.2141 0.68652 0.0
C411 C 0.68594 0.32092 0.73239 0.0
O412 O 0.67475 0.32752 0.70997 0.0
C413 C 0.57273 0.21956 0.77384 0.0
Zn414 Zn 0.34347 0.57597 0.88903 0.0
Zn415 Zn 0.37761 0.63987 0.90022 0.0
O416 O 0.33124 0.6293 0.891 0.0
O417 O 0.30269 0.57798 0.88235 0.0
O418 O 0.3996 0.68614 0.9107 0.0
O419 O 0.35614 0.56904 0.92765 0.0
O420 O 0.38343 0.62053 0.93571 0.0
C421 C 0.30457 0.60456 0.88419 0.0
C422 C 0.39588 0.61297 0.85078 0.0
O423 O 0.40128 0.6367 0.86605 0.0
O424 O 0.37356 0.58542 0.85652 0.0
C425 C 0.39319 0.70443 0.89725 0.0
O426 O 0.37425 0.69367 0.87488 0.0
C427 C 0.37373 0.59262 0.9436 0.0
Zn428 Zn 0.78384 0.45178 0.08207 0.0
Zn429 Zn 0.74416 0.3909 0.06359 0.0
O430 O 0.7125 0.40443 0.07687 0.0
O431 O 0.74356 0.45422 0.09058 0.0
O432 O 0.71407 0.34657 0.04913 0.0
O433 O 0.80429 0.46216 0.04396 0.0
O434 O 0.76992 0.41361 0.02901 0.0
C435 C 0.71571 0.43006 0.08677 0.0
C436 C 0.79156 0.40593 0.11277 0.0
O437 O 0.7701 0.38604 0.09561 0.0
O438 O 0.80135 0.43507 0.11146 0.0
C439 C 0.69372 0.32559 0.06501 0.0
O440 O 0.69306 0.33253 0.09153 0.0
C441 C 0.79311 0.44137 0.02445 0.0
Zn442 Zn 0.3455 0.80122 0.23809 0.0
Zn443 Zn 0.37226 0.76477 0.22502 0.0
O444 O 0.32633 0.73309 0.23648 0.0
O445 O 0.30283 0.76091 0.24539 0.0
O446 O 0.38923 0.73602 0.21437 0.0
O447 O 0.3572 0.81962 0.19951 0.0
O448 O 0.3757 0.78791 0.18889 0.0
C449 C 0.30169 0.73463 0.24375 0.0
C450 C 0.39996 0.81304 0.27368 0.0
O451 O 0.40105 0.79246 0.25793 0.0
O452 O 0.37879 0.82081 0.26959 0.0
C453 C 0.40719 0.73012 0.22978 0.0
O454 O 0.4176 0.74455 0.25425 0.0
C455 C 0.36952 0.80925 0.18205 0.0
C456 C 0.22899 0.65135 0.24291 0.0
C457 C 0.22109 0.64821 0.27159 0.0
C458 C 0.2655 0.70207 0.28184 0.0
C459 C 0.27262 0.70571 0.25297 0.0
N460 N 0.25853 0.68645 0.20534 0.0
N461 N 0.22757 0.67171 0.31765 0.0
C462 C 0.25357 0.68107 0.23327 0.0
C463 C 0.23798 0.67401 0.29081 0.0
N464 N 0.21355 0.62569 0.22511 0.0
N465 N 0.28611 0.72465 0.30088 0.0
H466 H 0.20821 0.65118 0.32538 0.0
H467 H 0.23645 0.69083 0.3317 0.0
H468 H 0.3066 0.74561 0.29529 0.0
H469 H 0.28447 0.72164 0.32239 0.0
H470 H 0.22058 0.62531 0.20467 0.0
H471 H 0.19464 0.60392 0.23132 0.0
H472 H 0.24352 0.67062 0.18972 0.0
H473 H 0.27634 0.70799 0.19768 0.0
C474 C 0.59111 0.24604 0.40474 0.0
C475 C 0.59331 0.24298 0.43395 0.0
C476 C 0.59949 0.2951 0.44207 0.0
C477 C 0.6019 0.29997 0.41288 0.0
N478 N 0.60455 0.28164 0.36633 0.0
N479 N 0.60456 0.26651 0.48046 0.0
C480 C 0.59863 0.27576 0.39409 0.0
C481 C 0.5987 0.26797 0.45268 0.0
N482 N 0.5814 0.22042 0.38723 0.0
N483 N 0.59705 0.316 0.45964 0.0
H484 H 0.60459 0.24725 0.48917 0.0
H485 H 0.61225 0.28554 0.49447 0.0
H486 H 0.59672 0.33576 0.45255 0.0
H487 H 0.59199 0.31203 0.48078 0.0
H488 H 0.5761 0.22031 0.36607 0.0
H489 H 0.57578 0.19834 0.39437 0.0
H490 H 0.60609 0.26606 0.35227 0.0
H491 H 0.61078 0.30321 0.35766 0.0
C492 C 0.36321 0.63019 0.61602 0.0
C493 C 0.36967 0.61009 0.59908 0.0
C494 C 0.33862 0.61463 0.56027 0.0
C495 C 0.33456 0.63681 0.5765 0.0
N496 N 0.34978 0.6714 0.61727 0.0
N497 N 0.36874 0.58759 0.5537 0.0
C498 C 0.34883 0.64625 0.60366 0.0
C499 C 0.35895 0.60365 0.57074 0.0
N500 N 0.36958 0.63299 0.64416 0.0
N501 N 0.32187 0.60289 0.53552 0.0
H502 H 0.38362 0.57922 0.56071 0.0
H503 H 0.3645 0.585 0.53217 0.0
H504 H 0.30631 0.60989 0.52735 0.0
H505 H 0.32115 0.5842 0.5243 0.0
H506 H 0.36204 0.64456 0.65789 0.0
H507 H 0.37968 0.62129 0.65427 0.0
H508 H 0.36283 0.68131 0.63587 0.0
H509 H 0.34044 0.68451 0.60859 0.0
C510 C 0.77679 0.37621 0.74421 0.0
C511 C 0.77682 0.39268 0.76883 0.0
C512 C 0.71756 0.36035 0.77074 0.0
C513 C 0.71734 0.34508 0.74516 0.0
N514 N 0.74563 0.33948 0.70613 0.0
N515 N 0.74803 0.40302 0.80462 0.0
C516 C 0.74668 0.35333 0.73146 0.0
C517 C 0.74741 0.38531 0.78195 0.0
N518 N 0.80562 0.38207 0.73344 0.0
N519 N 0.68916 0.35104 0.78427 0.0
H520 H 0.7694 0.42063 0.81424 0.0
H521 H 0.7275 0.40173 0.81315 0.0
H522 H 0.66642 0.33502 0.77569 0.0
H523 H 0.68795 0.358 0.80466 0.0
H524 H 0.80765 0.36884 0.71723 0.0
H525 H 0.82801 0.39917 0.74196 0.0
H526 H 0.76558 0.34677 0.69344 0.0
H527 H 0.72422 0.32143 0.69694 0.0
C528 C 0.39417 0.76799 0.94439 0.0
C529 C 0.41712 0.79564 0.93073 0.0
C530 C 0.42469 0.76355 0.89511 0.0
C531 C 0.40245 0.73593 0.90923 0.0
N532 N 0.36789 0.71126 0.94844 0.0
N533 N 0.45739 0.82087 0.8957 0.0
C534 C 0.38791 0.73801 0.93431 0.0
C535 C 0.43333 0.79374 0.90681 0.0
N536 N 0.3774 0.7704 0.9664 0.0
N537 N 0.43716 0.7608 0.87033 0.0
H538 H 0.46378 0.84325 0.90356 0.0
H539 H 0.4725 0.82143 0.87997 0.0
H540 H 0.43273 0.73921 0.86196 0.0
H541 H 0.45061 0.77954 0.85729 0.0
H542 H 0.35743 0.75128 0.97507 0.0
H543 H 0.38216 0.7919 0.97526 0.0
H544 H 0.36011 0.71135 0.96864 0.0
H545 H 0.36002 0.68855 0.94061 0.0
C546 C 0.63474 0.42726 0.08592 0.0
C547 C 0.63137 0.43131 0.11486 0.0
C548 C 0.68218 0.43247 0.12531 0.0
C549 C 0.68679 0.43077 0.09624 0.0
N550 N 0.67013 0.43037 0.04853 0.0
N551 N 0.65342 0.44203 0.16197 0.0
C552 C 0.66374 0.42913 0.0764 0.0
C553 C 0.65561 0.43523 0.13451 0.0
N554 N 0.60993 0.42104 0.06769 0.0
N555 N 0.70234 0.4299 0.14415 0.0
H556 H 0.63377 0.44311 0.16985 0.0
H557 H 0.67215 0.44891 0.17664 0.0
H558 H 0.72203 0.42769 0.1383 0.0
H559 H 0.69806 0.42725 0.16548 0.0
H560 H 0.60921 0.4144 0.04681 0.0
H561 H 0.58884 0.42051 0.07391 0.0
H562 H 0.65604 0.43256 0.03306 0.0
H563 H 0.69103 0.43154 0.04088 0.0
C564 C 0.36037 0.79516 0.50186 0.0
C565 C 0.38496 0.81591 0.52124 0.0
C566 C 0.35188 0.78504 0.56027 0.0
C567 C 0.32828 0.76328 0.54077 0.0
N568 N 0.31203 0.74425 0.49318 0.0
N569 N 0.40643 0.82948 0.56836 0.0
C570 C 0.33301 0.76747 0.51159 0.0
C571 C 0.38138 0.81053 0.55035 0.0
N572 N 0.36296 0.80218 0.47414 0.0
N573 N 0.3456 0.78176 0.58819 0.0
H574 H 0.42787 0.84892 0.56181 0.0
H575 H 0.40693 0.82497 0.58945 0.0
H576 H 0.32444 0.76308 0.59606 0.0
H577 H 0.36015 0.79846 0.60345 0.0
H578 H 0.34413 0.79021 0.45954 0.0
H579 H 0.38322 0.82149 0.46585 0.0
H580 H 0.31618 0.74408 0.47189 0.0
H581 H 0.29155 0.72362 0.49939 0.0
C582 C 0.56064 0.3625 0.71031 0.0
C583 C 0.58102 0.37984 0.68818 0.0
C584 C 0.60068 0.34276 0.68414 0.0
C585 C 0.58175 0.32636 0.70735 0.0
N586 N 0.54803 0.32332 0.74561 0.0
N587 N 0.6252 0.39067 0.6578 0.0
C588 C 0.56292 0.33701 0.72136 0.0
C589 C 0.60262 0.37131 0.67636 0.0
N590 N 0.53857 0.36992 0.7202 0.0
N591 N 0.61522 0.33008 0.66842 0.0
H592 H 0.62703 0.41157 0.65113 0.0
H593 H 0.64395 0.3875 0.6509 0.0
H594 H 0.61372 0.30873 0.6728 0.0
H595 H 0.62619 0.33913 0.64947 0.0
H596 H 0.52052 0.35606 0.73408 0.0
H597 H 0.537 0.38903 0.71311 0.0
H598 H 0.5366 0.33195 0.75834 0.0
H599 H 0.5494 0.30472 0.7543 0.0
C600 C 0.24975 0.62292 0.84052 0.0
C601 C 0.2214 0.60924 0.8568 0.0
C602 C 0.24789 0.59336 0.89169 0.0
C603 C 0.27636 0.60731 0.87555 0.0
N604 N 0.30614 0.63783 0.8361 0.0
N605 N 0.19394 0.58513 0.89907 0.0
C606 C 0.27785 0.623 0.85048 0.0
C607 C 0.22063 0.59556 0.8828 0.0
N608 N 0.2493 0.63486 0.815 0.0
N609 N 0.24691 0.57772 0.91532 0.0
H610 H 0.17335 0.58573 0.89279 0.0
H611 H 0.19264 0.57761 0.91942 0.0
H612 H 0.26703 0.57734 0.92335 0.0
H613 H 0.22603 0.564 0.9265 0.0
H614 H 0.2674 0.64154 0.80037 0.0
H615 H 0.22985 0.6368 0.8076 0.0
H616 H 0.31037 0.65314 0.81988 0.0
H617 H 0.32641 0.6361 0.84106 0.0
C618 C 0.62648 0.26378 0.01767 0.0
C619 C 0.62195 0.23552 0.02927 0.0
C620 C 0.66637 0.26636 0.06306 0.0
C621 C 0.66885 0.29448 0.05304 0.0
N622 N 0.6465 0.31949 0.02499 0.0
N623 N 0.63403 0.20932 0.06535 0.0
C624 C 0.64761 0.29309 0.03146 0.0
C625 C 0.64089 0.23663 0.05268 0.0
N626 N 0.6113 0.26271 0.99299 0.0
N627 N 0.68912 0.26809 0.08161 0.0
H628 H 0.61579 0.18715 0.05806 0.0
H629 H 0.6446 0.20875 0.08427 0.0
H630 H 0.70829 0.28942 0.08947 0.0
H631 H 0.69065 0.24859 0.08743 0.0
H632 H 0.61654 0.28277 0.98198 0.0
H633 H 0.59557 0.24172 0.98214 0.0
H634 H 0.62905 0.31909 0.01157 0.0
H635 H 0.66088 0.34131 0.03513 0.0
C636 C 0.41399 0.65616 0.22654 0.0
C637 C 0.42343 0.6569 0.19847 0.0
C638 C 0.4294 0.70908 0.19373 0.0
C639 C 0.41522 0.7061 0.22021 0.0
N640 N 0.38956 0.67444 0.26038 0.0
N641 N 0.43613 0.68216 0.15384 0.0
C642 C 0.40661 0.67917 0.23644 0.0
C643 C 0.4303 0.68295 0.18166 0.0
N644 N 0.41234 0.63359 0.24378 0.0
N645 N 0.44275 0.73715 0.18041 0.0
H646 H 0.43686 0.66344 0.14403 0.0
H647 H 0.43755 0.69886 0.13998 0.0
H648 H 0.44318 0.75704 0.18893 0.0
H649 H 0.45625 0.74167 0.16237 0.0
H650 H 0.40876 0.63372 0.2652 0.0
H651 H 0.41764 0.61641 0.23714 0.0
H652 H 0.37957 0.65354 0.27129 0.0
H653 H 0.3827 0.6901 0.26807 0.0
C654 C 0.77674 0.41857 0.32998 0.0
C655 C 0.80175 0.42137 0.34808 0.0
C656 C 0.77628 0.43124 0.38818 0.0
C657 C 0.75264 0.43068 0.36975 0.0
N658 N 0.73172 0.42735 0.32299 0.0
N659 N 0.82798 0.4336 0.39349 0.0
C660 C 0.75328 0.42537 0.34058 0.0
C661 C 0.80225 0.42857 0.37698 0.0
N662 N 0.77497 0.40855 0.30281 0.0
N663 N 0.77348 0.43376 0.41638 0.0
H664 H 0.847 0.43111 0.38605 0.0
H665 H 0.83169 0.44222 0.41403 0.0
H666 H 0.7553 0.43672 0.42515 0.0
H667 H 0.78779 0.43094 0.4312 0.0
H668 H 0.75536 0.40251 0.28936 0.0
H669 H 0.79209 0.40399 0.29406 0.0
H670 H 0.73324 0.42743 0.30132 0.0
H671 H 0.71334 0.43108 0.33001 0.0
C672 C 0.15691 0.58211 0.46525 0.0
C673 C 0.17746 0.58627 0.44259 0.0
C674 C 0.22489 0.62481 0.47033 0.0
C675 C 0.20442 0.62031 0.49319 0.0
N676 N 0.15257 0.59048 0.51479 0.0
N677 N 0.23117 0.60624 0.42485 0.0
C678 C 0.17085 0.59763 0.49136 0.0
C679 C 0.21156 0.60582 0.44564 0.0
N680 N 0.12405 0.56406 0.4615 0.0
N681 N 0.25663 0.64852 0.47156 0.0
H682 H 0.22222 0.59336 0.4061 0.0
H683 H 0.25626 0.61726 0.42702 0.0
H684 H 0.2675 0.66299 0.48922 0.0
H685 H 0.27173 0.65553 0.45442 0.0
H686 H 0.10754 0.56305 0.47603 0.0
H687 H 0.11313 0.55128 0.44303 0.0
H688 H 0.12867 0.57207 0.5156 0.0
H689 H 0.16219 0.60132 0.53425 0.0
C690 C 0.60364 0.16802 0.62697 0.0
C691 C 0.61055 0.18695 0.60315 0.0
C692 C 0.61981 0.23191 0.63294 0.0
C693 C 0.60818 0.2117 0.65602 0.0
N694 N 0.58841 0.16056 0.67567 0.0
N695 N 0.62192 0.2359 0.5826 0.0
C696 C 0.6001 0.17976 0.65327 0.0
C697 C 0.61819 0.21879 0.60591 0.0
N698 N 0.60099 0.13908 0.6244 0.0
N699 N 0.63207 0.26361 0.63677 0.0
H700 H 0.62082 0.22724 0.56233 0.0
H701 H 0.62353 0.25781 0.58312 0.0
H702 H 0.6329 0.27408 0.65611 0.0
H703 H 0.64406 0.27995 0.62134 0.0
H704 H 0.59894 0.12524 0.6413 0.0
H705 H 0.60356 0.12997 0.60537 0.0
H706 H 0.5784 0.13622 0.67432 0.0
H707 H 0.58733 0.1689 0.6956 0.0
C708 C 0.41633 0.62335 0.77451 0.0
C709 C 0.43272 0.60617 0.77236 0.0
C710 C 0.4333 0.60209 0.8232 0.0
C711 C 0.4145 0.61689 0.82519 0.0
N712 N 0.39478 0.64848 0.80442 0.0
N713 N 0.46374 0.58585 0.79379 0.0
C714 C 0.40853 0.63012 0.80138 0.0
C715 C 0.44369 0.59791 0.79654 0.0
N716 N 0.40668 0.63157 0.75071 0.0
N717 N 0.44013 0.59115 0.84682 0.0
H718 H 0.47141 0.58241 0.7744 0.0
H719 H 0.47468 0.58132 0.81049 0.0
H720 H 0.4346 0.59576 0.86675 0.0
H721 H 0.45051 0.57701 0.84687 0.0
H722 H 0.39114 0.64053 0.75034 0.0
H723 H 0.41333 0.62824 0.7308 0.0
H724 H 0.39243 0.66119 0.78838 0.0
H725 H 0.38775 0.65307 0.82362 0.0
C726 C 0.83047 0.4882 0.95909 0.0
C727 C 0.83397 0.46605 0.94237 0.0
C728 C 0.81484 0.42936 0.98102 0.0
C729 C 0.80699 0.44967 0.9961 0.0
N730 N 0.8001 0.49512 0.99565 0.0
N731 N 0.8224 0.4125 0.93539 0.0
C732 C 0.8128 0.47824 0.9841 0.0
C733 C 0.82412 0.4357 0.95272 0.0
N734 N 0.84472 0.51898 0.95155 0.0
N735 N 0.81497 0.40488 0.99392 0.0
H736 H 0.82788 0.41575 0.91425 0.0
H737 H 0.81231 0.38915 0.94135 0.0
H738 H 0.81014 0.40036 0.01505 0.0
H739 H 0.82347 0.39131 0.98442 0.0
H740 H 0.84536 0.53659 0.96446 0.0
H741 H 0.85883 0.52751 0.93384 0.0
H742 H 0.80126 0.51452 0.98609 0.0
H743 H 0.78514 0.48772 0.01291 0.0
C744 C 0.41175 0.83975 0.11283 0.0
C745 C 0.39063 0.84817 0.09966 0.0
C746 C 0.35347 0.8264 0.13856 0.0
C747 C 0.3767 0.82215 0.15349 0.0
N748 N 0.43171 0.83237 0.15685 0.0
N749 N 0.34506 0.85626 0.10341 0.0
C750 C 0.40694 0.83091 0.14121 0.0
C751 C 0.36256 0.84353 0.11355 0.0
N752 N 0.43571 0.83911 0.09809 0.0
N753 N 0.32227 0.81284 0.14738 0.0
H754 H 0.35158 0.87002 0.08569 0.0
H755 H 0.32616 0.85596 0.1143 0.0
H756 H 0.31387 0.7983 0.16457 0.0
H757 H 0.30388 0.81298 0.1357 0.0
H758 H 0.44965 0.83016 0.10609 0.0
H759 H 0.4394 0.84436 0.07697 0.0
H760 H 0.45507 0.84146 0.14935 0.0
H761 H 0.43009 0.82799 0.17815 0.0
C762 C 0.57231 0.43423 0.30774 0.0
C763 C 0.57379 0.41919 0.28272 0.0
C764 C 0.60969 0.40406 0.30561 0.0
C765 C 0.60826 0.41916 0.33065 0.0
N766 N 0.58314 0.44231 0.35778 0.0
N767 N 0.58767 0.38415 0.25896 0.0
C768 C 0.5879 0.43226 0.3324 0.0
C769 C 0.59038 0.40213 0.2821 0.0
N770 N 0.55695 0.45127 0.30762 0.0
N771 N 0.63097 0.39332 0.30376 0.0
H772 H 0.57437 0.38283 0.24109 0.0
H773 H 0.59632 0.36855 0.25824 0.0
H774 H 0.64532 0.39396 0.32056 0.0
H775 H 0.63613 0.38568 0.28513 0.0
H776 H 0.55822 0.4659 0.32417 0.0
H777 H 0.54418 0.45212 0.2902 0.0
H778 H 0.56632 0.44944 0.36106 0.0
H779 H 0.59409 0.44091 0.37622 0.0
C780 C 0.43718 0.82306 0.34627 0.0
C781 C 0.45434 0.85642 0.34893 0.0
C782 C 0.44386 0.86018 0.29941 0.0
C783 C 0.42227 0.82712 0.29809 0.0
N784 N 0.39668 0.77669 0.32037 0.0
N785 N 0.47431 0.90733 0.32874 0.0
C786 C 0.41891 0.8083 0.32137 0.0
C787 C 0.45816 0.8752 0.32557 0.0
N788 N 0.43826 0.8056 0.36768 0.0
N789 N 0.45085 0.87702 0.27551 0.0
H790 H 0.48612 0.91908 0.34735 0.0
H791 H 0.47465 0.92228 0.31348 0.0
H792 H 0.4409 0.86645 0.25604 0.0
H793 H 0.46856 0.90074 0.27447 0.0
H794 H 0.42897 0.78137 0.36607 0.0
H795 H 0.45106 0.8158 0.38636 0.0
H796 H 0.39024 0.76248 0.33774 0.0
H797 H 0.38288 0.76483 0.30254 0.0
C798 C 0.64662 0.45021 0.52216 0.0
C799 C 0.63425 0.47101 0.52367 0.0
C800 C 0.63853 0.47694 0.473 0.0
C801 C 0.65389 0.45868 0.47183 0.0
N802 N 0.67825 0.43301 0.49604 0.0
N803 N 0.62459 0.50924 0.50163 0.0
C804 C 0.65956 0.44671 0.49664 0.0
C805 C 0.63212 0.48596 0.49941 0.0
N806 N 0.6449 0.43287 0.54475 0.0
N807 N 0.62838 0.48421 0.44896 0.0
H808 H 0.61992 0.51663 0.52069 0.0
H809 H 0.62601 0.52322 0.485 0.0
H810 H 0.63128 0.47699 0.42913 0.0
H811 H 0.61408 0.4946 0.44881 0.0
H812 H 0.65026 0.41483 0.54387 0.0
H813 H 0.6354 0.43455 0.56379 0.0
H814 H 0.68595 0.42681 0.51398 0.0
H815 H 0.6887 0.43059 0.47785 0.0
C816 C 0.1525 0.63895 0.66533 0.0
C817 C 0.17147 0.64372 0.68984 0.0
C818 C 0.22078 0.66777 0.6622 0.0
C819 C 0.20153 0.66019 0.63738 0.0
N820 N 0.1485 0.6319 0.61502 0.0
N821 N 0.2228 0.65636 0.7109 0.0
C822 C 0.16719 0.64391 0.63883 0.0
C823 C 0.20539 0.65626 0.68807 0.0
N824 N 0.12071 0.63066 0.66735 0.0
N825 N 0.25364 0.68716 0.66135 0.0
H826 H 0.21233 0.64766 0.73013 0.0
H827 H 0.24694 0.66219 0.71002 0.0
H828 H 0.26586 0.69698 0.64299 0.0
H829 H 0.26842 0.69605 0.67922 0.0
H830 H 0.10673 0.63019 0.65035 0.0
H831 H 0.1091 0.62704 0.6864 0.0
H832 H 0.12344 0.61711 0.61519 0.0
H833 H 0.15821 0.6339 0.59524 0.0
C834 C 0.54126 0.15802 0.83016 0.0
C835 C 0.5541 0.17747 0.8546 0.0
C836 C 0.57764 0.22463 0.82621 0.0
C837 C 0.56711 0.20513 0.80163 0.0
N838 N 0.54532 0.15331 0.78014 0.0
N839 N 0.59042 0.22866 0.8757 0.0
C840 C 0.55072 0.17179 0.80356 0.0
C841 C 0.57414 0.21062 0.85256 0.0
N842 N 0.51916 0.12661 0.8323 0.0
N843 N 0.58941 0.25633 0.82461 0.0
H844 H 0.58872 0.21919 0.89536 0.0
H845 H 0.60797 0.25248 0.87488 0.0
H846 H 0.59146 0.26753 0.80583 0.0
H847 H 0.59417 0.27105 0.84211 0.0
H848 H 0.50632 0.11204 0.81519 0.0
H849 H 0.51155 0.11562 0.85142 0.0
H850 H 0.53645 0.12914 0.78072 0.0
H851 H 0.55273 0.16253 0.76035 0.0
C852 C 0.38143 0.59283 0.02275 0.0
C853 C 0.39824 0.57617 0.02566 0.0
C854 C 0.40229 0.57368 0.9748 0.0
C855 C 0.38274 0.58759 0.97184 0.0
N856 N 0.3496 0.60629 0.99254 0.0
N857 N 0.42172 0.54748 0.00506 0.0
C858 C 0.37132 0.59624 0.9957 0.0
C859 C 0.40788 0.56567 0.00184 0.0
N860 N 0.37556 0.60582 0.04584 0.0
N861 N 0.41653 0.56927 0.95189 0.0
H862 H 0.42701 0.54191 0.02459 0.0
H863 H 0.42588 0.53605 0.98851 0.0
H864 H 0.41327 0.57515 0.93178 0.0
H865 H 0.43376 0.56236 0.95301 0.0
H866 H 0.36675 0.62126 0.04483 0.0
H867 H 0.38191 0.6032 0.06609 0.0
H868 H 0.33759 0.60955 0.00912 0.0
H869 H 0.34136 0.60887 0.97309 0.0
C870 C 0.80356 0.3859 0.18578 0.0
C871 C 0.83472 0.38924 0.18377 0.0
C872 C 0.83518 0.39833 0.13358 0.0
C873 C 0.80422 0.39528 0.1357 0.0
N874 N 0.75559 0.37909 0.16155 0.0
N875 N 0.87722 0.39168 0.15554 0.0
C876 C 0.78724 0.38653 0.16109 0.0
C877 C 0.84956 0.39317 0.1575 0.0
N878 N 0.79042 0.38398 0.21143 0.0
N879 N 0.85117 0.40716 0.1089 0.0
H880 H 0.88824 0.38797 0.17279 0.0
H881 H 0.8878 0.39154 0.13669 0.0
H882 H 0.84056 0.40955 0.09068 0.0
H883 H 0.87531 0.41347 0.10669 0.0
H884 H 0.76971 0.38539 0.21459 0.0
H885 H 0.80139 0.3831 0.23004 0.0
H886 H 0.74081 0.36951 0.17869 0.0
H887 H 0.74315 0.37993 0.14389 0.0
loop_
_geom_bond_atom_site_label_1
_geom_bond_atom_site_label_2
_geom_bond_distance
_geom_bond_site_symmetry_2
_ccdc_geom_bond_type
H0 C27 0.929 . S
N1 C26 1.433 . S
N1 C32 1.435 . S
N1 C38 1.423 . S
H2 C28 0.930 . S
H3 C31 0.931 . S
H4 C30 0.929 . S
H5 C33 0.930 . S
H6 C34 0.932 . S
H7 C37 0.929 . S
H8 C36 0.931 . S
H9 C39 0.929 . S
H10 C43 0.932 . S
H11 C40 0.931 . S
H12 C42 0.929 . S
H13 C45 0.929 . S
H14 C46 0.930 . S
H15 C48 0.929 . S
H16 C49 0.931 . S
H17 C51 0.930 . S
H18 C52 0.932 . S
H19 C54 0.931 . S
H20 C55 0.929 . S
H21 C57 0.929 . S
H22 C58 0.931 . S
H23 C60 0.929 . S
N24 C44 1.433 . S
N24 C50 1.435 . S
N24 C56 1.423 . S
H25 C61 0.932 . S
C26 N1 1.433 . S
C26 C27 1.363 . S
C26 C31 1.370 . S
C27 H0 0.929 . S
C27 C26 1.363 . S
C27 C28 1.385 . S
C28 H2 0.930 . S
C28 C27 1.385 . S
C28 C29 1.357 . S
C29 C28 1.357 . S
C29 C30 1.406 . S
C30 H4 0.929 . S
C30 C29 1.406 . S
C30 C31 1.391 . S
C31 H3 0.931 . S
C31 C26 1.370 . S
C31 C30 1.391 . S
C32 N1 1.435 . S
C32 C33 1.358 . S
C32 C37 1.371 . S
C33 H5 0.930 . S
C33 C32 1.358 . S
C33 C34 1.405 . S
C34 H6 0.932 . S
C34 C33 1.405 . S
C34 C35 1.383 . S
C35 C34 1.383 . S
C35 C36 1.393 . S
C36 H8 0.931 . S
C36 C35 1.393 . S
C36 C37 1.382 . S
C37 H7 0.929 . S
C37 C32 1.371 . S
C37 C36 1.382 . S
C38 N1 1.423 . S
C38 C39 1.362 . S
C38 C43 1.388 . S
C39 H9 0.929 . S
C39 C38 1.362 . S
C39 C40 1.376 . S
C40 H11 0.931 . S
C40 C39 1.376 . S
C40 C41 1.396 . S
C41 C40 1.396 . S
C41 C42 1.348 . S
C41 C59 1.472 1_455 S
C42 H12 0.929 . S
C42 C41 1.348 . S
C42 C43 1.443 . S
C43 H10 0.932 . S
C43 C38 1.388 . S
C43 C42 1.443 . S
C44 N24 1.433 . S
C44 C45 1.363 . S
C44 C49 1.370 . S
C45 H13 0.929 . S
C45 C44 1.363 . S
C45 C46 1.385 . S
C46 H14 0.930 . S
C46 C45 1.385 . S
C46 C47 1.357 . S
C47 C46 1.357 . S
C47 C48 1.406 . S
C48 H15 0.929 . S
C48 C47 1.406 . S
C48 C49 1.391 . S
C49 H16 0.931 . S
C49 C44 1.370 . S
C49 C48 1.391 . S
C50 N24 1.435 . S
C50 C51 1.358 . S
C50 C55 1.371 . S
C51 H17 0.930 . S
C51 C50 1.358 . S
C51 C52 1.405 . S
C52 H18 0.932 . S
C52 C51 1.405 . S
C52 C53 1.383 . S
C53 C52 1.383 . S
C53 C54 1.393 . S
C54 H19 0.931 . S
C54 C53 1.393 . S
C54 C55 1.382 . S
C55 H20 0.929 . S
C55 C50 1.371 . S
C55 C54 1.382 . S
C56 N24 1.423 . S
C56 C57 1.362 . S
C56 C61 1.388 . S
C57 H21 0.929 . S
C57 C56 1.362 . S
C57 C58 1.376 . S
C58 H22 0.931 . S
C58 C57 1.376 . S
C58 C59 1.396 . S
C59 C41 1.472 1_655 S
C59 C58 1.396 . S
C59 C60 1.348 . S
C60 H23 0.929 . S
C60 C59 1.348 . S
C60 C61 1.443 . S
C61 H25 0.932 . S
C61 C56 1.388 . S
C61 C60 1.443 . S
H62 C89 0.929 . S
N63 C88 1.433 . S
N63 C94 1.435 . S
N63 C100 1.423 . S
H64 C90 0.930 . S
H65 C93 0.931 . S
H66 C92 0.929 . S
H67 C95 0.930 . S
H68 C96 0.932 . S
H69 C99 0.929 . S
H70 C98 0.931 . S
H71 C101 0.929 . S
H72 C105 0.932 . S
H73 C102 0.931 . S
H74 C104 0.929 1_545 S
H75 C107 0.929 . S
H76 C108 0.930 . S
H77 C110 0.929 . S
H78 C111 0.931 . S
H79 C113 0.930 . S
H80 C114 0.932 . S
H81 C116 0.931 . S
H82 C117 0.929 . S
H83 C119 0.929 . S
H84 C120 0.931 . S
H85 C122 0.929 . S
N86 C106 1.433 . S
N86 C112 1.435 . S
N86 C118 1.423 . S
H87 C123 0.932 . S
C88 N63 1.433 . S
C88 C89 1.363 . S
C88 C93 1.370 . S
C89 H62 0.929 . S
C89 C88 1.363 . S
C89 C90 1.385 . S
C90 H64 0.930 . S
C90 C89 1.385 . S
C90 C91 1.357 . S
C91 C90 1.357 . S
C91 C92 1.406 . S
C92 H66 0.929 . S
C92 C91 1.406 . S
C92 C93 1.391 . S
C93 H65 0.931 . S
C93 C88 1.370 . S
C93 C92 1.391 . S
C94 N63 1.435 . S
C94 C95 1.358 . S
C94 C99 1.371 . S
C95 H67 0.930 . S
C95 C94 1.358 . S
C95 C96 1.405 . S
C96 H68 0.932 . S
C96 C95 1.405 . S
C96 C97 1.383 . S
C97 C96 1.383 . S
C97 C98 1.393 . S
C98 H70 0.931 . S
C98 C97 1.393 . S
C98 C99 1.382 . S
C99 H69 0.929 . S
C99 C94 1.371 . S
C99 C98 1.382 . S
C100 N63 1.423 . S
C100 C101 1.362 . S
C100 C105 1.388 . S
C101 H71 0.929 . S
C101 C100 1.362 . S
C101 C102 1.376 . S
C102 H73 0.931 . S
C102 C101 1.376 . S
C102 C103 1.396 1_565 S
C103 C102 1.396 1_545 S
C103 C104 1.348 1_545 S
C103 C121 1.472 . S
C104 H74 0.929 1_565 S
C104 C103 1.348 1_565 S
C104 C105 1.443 . S
C105 H72 0.932 . S
C105 C100 1.388 . S
C105 C104 1.443 . S
C106 N86 1.433 . S
C106 C107 1.363 . S
C106 C111 1.370 . S
C107 H75 0.929 . S
C107 C106 1.363 . S
C107 C108 1.385 . S
C108 H76 0.930 . S
C108 C107 1.385 . S
C108 C109 1.357 . S
C109 C108 1.357 . S
C109 C110 1.406 . S
C110 H77 0.929 . S
C110 C109 1.406 . S
C110 C111 1.391 . S
C111 H78 0.931 . S
C111 C106 1.370 . S
C111 C110 1.391 . S
C112 N86 1.435 . S
C112 C113 1.358 . S
C112 C117 1.371 . S
C113 H79 0.930 . S
C113 C112 1.358 . S
C113 C114 1.405 . S
C114 H80 0.932 . S
C114 C113 1.405 . S
C114 C115 1.383 . S
C115 C114 1.383 . S
C115 C116 1.393 . S
C116 H81 0.931 . S
C116 C115 1.393 . S
C116 C117 1.382 . S
C117 H82 0.929 . S
C117 C112 1.371 . S
C117 C116 1.382 . S
C118 N86 1.423 . S
C118 C119 1.362 . S
C118 C123 1.388 . S
C119 H83 0.929 . S
C119 C118 1.362 . S
C119 C120 1.376 . S
C120 H84 0.931 . S
C120 C119 1.376 . S
C120 C121 1.396 . S
C121 C103 1.472 . S
C121 C120 1.396 . S
C121 C122 1.348 . S
C122 H85 0.929 . S
C122 C121 1.348 . S
C122 C123 1.443 . S
C123 H87 0.932 . S
C123 C118 1.388 . S
C123 C122 1.443 . S
H124 C151 0.929 . S
N125 C150 1.433 . S
N125 C156 1.435 . S
N125 C162 1.423 . S
H126 C152 0.930 . S
H127 C155 0.931 . S
H128 C154 0.929 . S
H129 C157 0.930 . S
H130 C158 0.932 . S
H131 C161 0.929 . S
H132 C160 0.931 . S
H133 C163 0.929 . S
H134 C167 0.932 . S
H135 C164 0.931 . S
H136 C166 0.929 . S
H137 C169 0.929 . S
H138 C170 0.930 . S
H139 C172 0.929 . S
H140 C173 0.931 . S
H141 C175 0.930 . S
H142 C176 0.932 . S
H143 C178 0.931 . S
H144 C179 0.929 . S
H145 C181 0.929 . S
H146 C182 0.931 . S
H147 C184 0.929 . S
N148 C168 1.433 . S
N148 C174 1.435 . S
N148 C180 1.423 . S
H149 C185 0.932 . S
C150 N125 1.433 . S
C150 C151 1.363 . S
C150 C155 1.370 . S
C151 H124 0.929 . S
C151 C150 1.363 . S
C151 C152 1.385 . S
C152 H126 0.930 . S
C152 C151 1.385 . S
C152 C153 1.357 . S
C153 C152 1.357 . S
C153 C154 1.406 . S
C154 H128 0.929 . S
C154 C153 1.406 . S
C154 C155 1.391 . S
C155 H127 0.931 . S
C155 C150 1.370 . S
C155 C154 1.391 . S
C156 N125 1.435 . S
C156 C157 1.358 . S
C156 C161 1.371 . S
C157 H129 0.930 . S
C157 C156 1.358 . S
C157 C158 1.405 . S
C158 H130 0.932 . S
C158 C157 1.405 . S
C158 C159 1.383 . S
C159 C158 1.383 . S
C159 C160 1.393 . S
C160 H132 0.931 . S
C160 C159 1.393 . S
C160 C161 1.382 . S
C161 H131 0.929 . S
C161 C156 1.371 . S
C161 C160 1.382 . S
C162 N125 1.423 . S
C162 C163 1.362 . S
C162 C167 1.388 . S
C163 H133 0.929 . S
C163 C162 1.362 . S
C163 C164 1.376 . S
C164 H135 0.931 . S
C164 C163 1.376 . S
C164 C165 1.396 . S
C165 C164 1.396 . S
C165 C166 1.348 . S
C165 C183 1.472 . S
C166 H136 0.929 . S
C166 C165 1.348 . S
C166 C167 1.443 . S
C167 H134 0.932 . S
C167 C162 1.388 . S
C167 C166 1.443 . S
C168 N148 1.433 . S
C168 C169 1.363 . S
C168 C173 1.370 . S
C169 H137 0.929 . S
C169 C168 1.363 . S
C169 C170 1.385 . S
C170 H138 0.930 . S
C170 C169 1.385 . S
C170 C171 1.357 . S
C171 C170 1.357 . S
C171 C172 1.406 . S
C172 H139 0.929 . S
C172 C171 1.406 . S
C172 C173 1.391 . S
C173 H140 0.931 . S
C173 C168 1.370 . S
C173 C172 1.391 . S
C174 N148 1.435 . S
C174 C175 1.358 . S
C174 C179 1.371 . S
C175 H141 0.930 . S
C175 C174 1.358 . S
C175 C176 1.405 . S
C176 H142 0.932 . S
C176 C175 1.405 . S
C176 C177 1.383 . S
C177 C176 1.383 . S
C177 C178 1.393 . S
C178 H143 0.931 . S
C178 C177 1.393 . S
C178 C179 1.382 . S
C179 H144 0.929 . S
C179 C174 1.371 . S
C179 C178 1.382 . S
C180 N148 1.423 . S
C180 C181 1.362 . S
C180 C185 1.388 . S
C181 H145 0.929 . S
C181 C180 1.362 . S
C181 C182 1.376 . S
C182 H146 0.931 . S
C182 C181 1.376 . S
C182 C183 1.396 . S
C183 C165 1.472 . S
C183 C182 1.396 . S
C183 C184 1.348 . S
C184 H147 0.929 . S
C184 C183 1.348 . S
C184 C185 1.443 . S
C185 H149 0.932 . S
C185 C180 1.388 . S
C185 C184 1.443 . S
H186 C213 0.929 . S
N187 C212 1.433 . S
N187 C218 1.435 . S
N187 C224 1.423 . S
H188 C214 0.930 . S
H189 C217 0.931 . S
H190 C216 0.929 . S
H191 C219 0.930 . S
H192 C220 0.932 . S
H193 C223 0.929 . S
H194 C222 0.931 . S
H195 C225 0.929 . S
H196 C229 0.932 . S
H197 C226 0.931 . S
H198 C228 0.929 . S
H199 C231 0.929 . S
H200 C232 0.930 . S
H201 C234 0.929 . S
H202 C235 0.931 . S
H203 C237 0.930 . S
H204 C238 0.932 . S
H205 C240 0.931 . S
H206 C241 0.929 . S
H207 C243 0.929 . S
H208 C244 0.931 . S
H209 C246 0.929 . S
N210 C230 1.433 . S
N210 C236 1.435 . S
N210 C242 1.423 . S
H211 C247 0.932 . S
C212 N187 1.433 . S
C212 C213 1.363 . S
C212 C217 1.370 . S
C213 H186 0.929 . S
C213 C212 1.363 . S
C213 C214 1.385 . S
C214 H188 0.930 . S
C214 C213 1.385 . S
C214 C215 1.357 . S
C215 C214 1.357 . S
C215 C216 1.406 . S
C216 H190 0.929 . S
C216 C215 1.406 . S
C216 C217 1.391 . S
C217 H189 0.931 . S
C217 C212 1.370 . S
C217 C216 1.391 . S
C218 N187 1.435 . S
C218 C219 1.358 . S
C218 C223 1.371 . S
C219 H191 0.930 . S
C219 C218 1.358 . S
C219 C220 1.405 . S
C220 H192 0.932 . S
C220 C219 1.405 . S
C220 C221 1.383 . S
C221 C220 1.383 . S
C221 C222 1.393 . S
C222 H194 0.931 . S
C222 C221 1.393 . S
C222 C223 1.382 . S
C223 H193 0.929 . S
C223 C218 1.371 . S
C223 C222 1.382 . S
C224 N187 1.423 . S
C224 C225 1.362 . S
C224 C229 1.388 . S
C225 H195 0.929 . S
C225 C224 1.362 . S
C225 C226 1.376 . S
C226 H197 0.931 . S
C226 C225 1.376 . S
C226 C227 1.396 . S
C227 C226 1.396 . S
C227 C228 1.348 . S
C227 C245 1.472 1_455 S
C228 H198 0.929 . S
C228 C227 1.348 . S
C228 C229 1.443 . S
C229 H196 0.932 . S
C229 C224 1.388 . S
C229 C228 1.443 . S
C230 N210 1.433 . S
C230 C231 1.363 . S
C230 C235 1.370 . S
C231 H199 0.929 . S
C231 C230 1.363 . S
C231 C232 1.385 . S
C232 H200 0.930 . S
C232 C231 1.385 . S
C232 C233 1.357 . S
C233 C232 1.357 . S
C233 C234 1.406 . S
C234 H201 0.929 . S
C234 C233 1.406 . S
C234 C235 1.391 . S
C235 H202 0.931 . S
C235 C230 1.370 . S
C235 C234 1.391 . S
C236 N210 1.435 . S
C236 C237 1.358 . S
C236 C241 1.371 . S
C237 H203 0.930 . S
C237 C236 1.358 . S
C237 C238 1.405 . S
C238 H204 0.932 . S
C238 C237 1.405 . S
C238 C239 1.383 . S
C239 C238 1.383 . S
C239 C240 1.393 . S
C240 H205 0.931 . S
C240 C239 1.393 . S
C240 C241 1.382 . S
C241 H206 0.929 . S
C241 C236 1.371 . S
C241 C240 1.382 . S
C242 N210 1.423 . S
C242 C243 1.362 . S
C242 C247 1.388 . S
C243 H207 0.929 . S
C243 C242 1.362 . S
C243 C244 1.376 . S
C244 H208 0.931 . S
C244 C243 1.376 . S
C244 C245 1.396 . S
C245 C227 1.472 1_655 S
C245 C244 1.396 . S
C245 C246 1.348 . S
C246 H209 0.929 . S
C246 C245 1.348 . S
C246 C247 1.443 . S
C247 H211 0.932 . S
C247 C242 1.388 . S
C247 C246 1.443 . S
H248 C275 0.929 . S
N249 C274 1.433 . S
N249 C280 1.435 . S
N249 C286 1.423 . S
H250 C276 0.930 . S
H251 C279 0.931 . S
H252 C278 0.929 . S
H253 C281 0.930 . S
H254 C282 0.932 . S
H255 C285 0.929 . S
H256 C284 0.931 . S
H257 C287 0.929 . S
H258 C291 0.932 . S
H259 C288 0.931 . S
H260 C290 0.929 . S
H261 C293 0.929 . S
H262 C294 0.930 . S
H263 C296 0.929 . S
H264 C297 0.931 . S
H265 C299 0.944 . S
H266 C300 0.932 . S
H267 C302 0.931 . S
H268 C303 0.929 . S
H269 C305 0.929 . S
H270 C306 0.926 1_554 S
H271 C308 0.929 . S
N272 C292 1.433 . S
N272 C298 1.435 1_554 S
N272 C304 1.423 1_554 S
H273 C309 0.932 . S
C274 N249 1.433 . S
C274 C275 1.363 . S
C274 C279 1.370 . S
C275 H248 0.929 . S
C275 C274 1.363 . S
C275 C276 1.385 . S
C276 H250 0.930 . S
C276 C275 1.385 . S
C276 C277 1.357 1_556 S
C277 C276 1.357 1_554 S
C277 C278 1.406 . S
C278 H252 0.929 . S
C278 C277 1.406 . S
C278 C279 1.391 1_554 S
C279 H251 0.931 . S
C279 C274 1.370 . S
C279 C278 1.391 1_556 S
C280 N249 1.435 . S
C280 C281 1.358 . S
C280 C285 1.371 . S
C281 H253 0.930 . S
C281 C280 1.358 . S
C281 C282 1.405 . S
C282 H254 0.932 . S
C282 C281 1.405 . S
C282 C283 1.383 . S
C283 C282 1.383 . S
C283 C284 1.393 . S
C284 H256 0.931 . S
C284 C283 1.393 . S
C284 C285 1.382 . S
C285 H255 0.929 . S
C285 C280 1.371 . S
C285 C284 1.382 . S
C286 N249 1.423 . S
C286 C287 1.362 . S
C286 C291 1.388 . S
C287 H257 0.929 . S
C287 C286 1.362 . S
C287 C288 1.376 . S
C288 H259 0.931 . S
C288 C287 1.376 . S
C288 C289 1.396 . S
C289 C288 1.396 . S
C289 C290 1.348 . S
C289 C307 1.472 1_545 S
C290 H260 0.929 . S
C290 C289 1.348 . S
C290 C291 1.443 . S
C291 H258 0.932 . S
C291 C286 1.388 . S
C291 C290 1.443 . S
C292 N272 1.433 . S
C292 C293 1.363 . S
C292 C297 1.370 . S
C293 H261 0.929 . S
C293 C292 1.363 . S
C293 C294 1.385 . S
C294 H262 0.930 . S
C294 C293 1.385 . S
C294 C295 1.357 . S
C295 C294 1.357 . S
C295 C296 1.406 . S
C296 H263 0.929 . S
C296 C295 1.406 . S
C296 C297 1.391 . S
C297 H264 0.931 . S
C297 C292 1.370 . S
C297 C296 1.391 . S
C298 N272 1.435 1_556 S
C298 C299 1.354 1_556 S
C298 C303 1.371 . S
C299 H265 0.944 . S
C299 C298 1.354 1_554 S
C299 C300 1.396 1_554 S
C300 H266 0.932 . S
C300 C299 1.396 1_556 S
C300 C301 1.383 . S
C301 C300 1.383 . S
C301 C302 1.393 . S
C302 H267 0.931 . S
C302 C301 1.393 . S
C302 C303 1.382 . S
C303 H268 0.929 . S
C303 C298 1.371 . S
C303 C302 1.382 . S
C304 N272 1.423 1_556 S
C304 C305 1.362 1_556 S
C304 C309 1.388 . S
C305 H269 0.929 . S
C305 C304 1.362 1_554 S
C305 C306 1.371 1_554 S
C306 H270 0.926 1_556 S
C306 C305 1.371 1_556 S
C306 C307 1.407 . S
C307 C289 1.472 1_565 S
C307 C306 1.407 . S
C307 C308 1.348 . S
C308 H271 0.929 . S
C308 C307 1.348 . S
C308 C309 1.443 . S
C309 H273 0.932 . S
C309 C304 1.388 . S
C309 C308 1.443 . S
H310 C337 0.929 . S
N311 C336 1.433 . S
N311 C342 1.435 . S
N311 C348 1.423 . S
H312 C338 0.930 . S
H313 C341 0.931 . S
H314 C340 0.929 . S
H315 C343 0.930 . S
H316 C344 0.932 . S
H317 C347 0.929 . S
H318 C346 0.931 . S
H319 C349 0.929 . S
H320 C353 0.932 . S
H321 C350 0.931 . S
H322 C352 0.929 . S
H323 C355 0.929 . S
H324 C356 0.930 . S
H325 C358 0.929 . S
H326 C359 0.931 . S
H327 C361 0.930 . S
H328 C362 0.932 . S
H329 C364 0.931 . S
H330 C365 0.929 . S
H331 C367 0.929 . S
H332 C368 0.931 . S
H333 C370 0.929 . S
N334 C354 1.433 . S
N334 C360 1.435 . S
N334 C366 1.423 . S
H335 C371 0.932 . S
C336 N311 1.433 . S
C336 C337 1.363 . S
C336 C341 1.370 . S
C337 H310 0.929 . S
C337 C336 1.363 . S
C337 C338 1.385 . S
C338 H312 0.930 . S
C338 C337 1.385 . S
C338 C339 1.357 . S
C339 C338 1.357 . S
C339 C340 1.406 . S
C340 H314 0.929 . S
C340 C339 1.406 . S
C340 C341 1.391 . S
C341 H313 0.931 . S
C341 C336 1.370 . S
C341 C340 1.391 . S
C342 N311 1.435 . S
C342 C343 1.358 . S
C342 C347 1.371 . S
C343 H315 0.930 . S
C343 C342 1.358 . S
C343 C344 1.405 . S
C344 H316 0.932 . S
C344 C343 1.405 . S
C344 C345 1.383 . S
C345 C344 1.383 . S
C345 C346 1.393 . S
C346 H318 0.931 . S
C346 C345 1.393 . S
C346 C347 1.382 . S
C347 H317 0.929 . S
C347 C342 1.371 . S
C347 C346 1.382 . S
C348 N311 1.423 . S
C348 C349 1.362 . S
C348 C353 1.388 . S
C349 H319 0.929 . S
C349 C348 1.362 . S
C349 C350 1.376 . S
C350 H321 0.931 . S
C350 C349 1.376 . S
C350 C351 1.396 . S
C351 C350 1.396 . S
C351 C352 1.348 . S
C351 C369 1.472 . S
C352 H322 0.929 . S
C352 C351 1.348 . S
C352 C353 1.443 . S
C353 H320 0.932 . S
C353 C348 1.388 . S
C353 C352 1.443 . S
C354 N334 1.433 . S
C354 C355 1.363 . S
C354 C359 1.370 . S
C355 H323 0.929 . S
C355 C354 1.363 . S
C355 C356 1.385 . S
C356 H324 0.930 . S
C356 C355 1.385 . S
C356 C357 1.357 . S
C357 C356 1.357 . S
C357 C358 1.406 . S
C358 H325 0.929 . S
C358 C357 1.406 . S
C358 C359 1.391 . S
C359 H326 0.931 . S
C359 C354 1.370 . S
C359 C358 1.391 . S
C360 N334 1.435 . S
C360 C361 1.358 . S
C360 C365 1.371 . S
C361 H327 0.930 . S
C361 C360 1.358 . S
C361 C362 1.405 . S
C362 H328 0.932 . S
C362 C361 1.405 . S
C362 C363 1.383 . S
C363 C362 1.383 . S
C363 C364 1.393 . S
C364 H329 0.931 . S
C364 C363 1.393 . S
C364 C365 1.382 . S
C365 H330 0.929 . S
C365 C360 1.371 . S
C365 C364 1.382 . S
C366 N334 1.423 . S
C366 C367 1.362 . S
C366 C371 1.388 . S
C367 H331 0.929 . S
C367 C366 1.362 . S
C367 C368 1.376 . S
C368 H332 0.931 . S
C368 C367 1.376 . S
C368 C369 1.396 . S
C369 C351 1.472 . S
C369 C368 1.396 . S
C369 C370 1.348 . S
C370 H333 0.929 . S
C370 C369 1.348 . S
C370 C371 1.443 . S
C371 H335 0.932 . S
C371 C366 1.388 . S
C371 C370 1.443 . S
Zn372 O375 2.031 . S
Zn372 O377 2.049 . S
Zn372 O382 2.067 . S
Zn373 O374 1.962 . S
Zn373 O376 1.986 . S
Zn373 O378 1.996 . S
Zn373 O381 1.943 . S
O374 Zn373 1.962 . S
O374 C379 1.254 . S
O375 Zn372 2.031 . S
O375 C379 1.269 . S
O376 Zn373 1.986 . S
O376 C383 1.262 . S
O377 Zn372 2.049 . S
O377 C385 1.260 . S
O378 Zn373 1.996 . S
O378 C385 1.257 . S
C379 O374 1.254 . S
C379 O375 1.269 . S
C380 O381 1.249 . S
C380 O382 1.270 . S
O381 Zn373 1.943 . S
O381 C380 1.249 . S
O382 Zn372 2.067 . S
O382 C380 1.270 . S
C383 O376 1.262 . S
C383 O384 1.232 . S
O384 C383 1.232 . S
C385 O377 1.260 . S
C385 O378 1.257 . S
Zn386 O389 2.031 . S
Zn386 O391 2.049 . S
Zn386 O396 2.067 . S
Zn387 O388 1.962 . S
Zn387 O390 1.986 . S
Zn387 O392 1.996 . S
Zn387 O395 1.943 . S
O388 Zn387 1.962 . S
O388 C393 1.254 . S
O389 Zn386 2.031 . S
O389 C393 1.269 . S
O390 Zn387 1.986 . S
O390 C397 1.262 . S
O391 Zn386 2.049 . S
O391 C399 1.260 . S
O392 Zn387 1.996 . S
O392 C399 1.257 . S
C393 O388 1.254 . S
C393 O389 1.269 . S
C394 O395 1.249 . S
C394 O396 1.270 . S
O395 Zn387 1.943 . S
O395 C394 1.249 . S
O396 Zn386 2.067 . S
O396 C394 1.270 . S
C397 O390 1.262 . S
C397 O398 1.232 . S
O398 C397 1.232 . S
C399 O391 1.260 . S
C399 O392 1.257 . S
Zn400 O403 2.031 . S
Zn400 O405 2.049 . S
Zn400 O410 2.067 . S
Zn401 O402 1.962 . S
Zn401 O404 1.986 . S
Zn401 O406 1.996 . S
Zn401 O409 1.943 . S
O402 Zn401 1.962 . S
O402 C407 1.254 . S
O403 Zn400 2.031 . S
O403 C407 1.269 . S
O404 Zn401 1.986 . S
O404 C411 1.262 . S
O405 Zn400 2.049 . S
O405 C413 1.260 . S
O406 Zn401 1.996 . S
O406 C413 1.257 . S
C407 O402 1.254 . S
C407 O403 1.269 . S
C408 O409 1.249 . S
C408 O410 1.270 . S
O409 Zn401 1.943 . S
O409 C408 1.249 . S
O410 Zn400 2.067 . S
O410 C408 1.270 . S
C411 O404 1.262 . S
C411 O412 1.232 . S
O412 C411 1.232 . S
C413 O405 1.260 . S
C413 O406 1.257 . S
Zn414 O417 2.031 . S
Zn414 O419 2.049 . S
Zn414 O424 2.067 . S
Zn415 O416 1.962 . S
Zn415 O418 1.986 . S
Zn415 O420 1.996 . S
Zn415 O423 1.943 . S
O416 Zn415 1.962 . S
O416 C421 1.254 . S
O417 Zn414 2.031 . S
O417 C421 1.269 . S
O418 Zn415 1.986 . S
O418 C425 1.262 . S
O419 Zn414 2.049 . S
O419 C427 1.260 . S
O420 Zn415 1.996 . S
O420 C427 1.257 . S
C421 O416 1.254 . S
C421 O417 1.269 . S
C422 O423 1.249 . S
C422 O424 1.270 . S
O423 Zn415 1.943 . S
O423 C422 1.249 . S
O424 Zn414 2.067 . S
O424 C422 1.270 . S
C425 O418 1.262 . S
C425 O426 1.232 . S
O426 C425 1.232 . S
C427 O419 1.260 . S
C427 O420 1.257 . S
Zn428 O431 2.031 . S
Zn428 O433 2.049 . S
Zn428 O438 2.067 . S
Zn429 O430 1.962 . S
Zn429 O432 1.986 . S
Zn429 O434 1.996 . S
Zn429 O437 1.943 . S
O430 Zn429 1.962 . S
O430 C435 1.254 . S
O431 Zn428 2.031 . S
O431 C435 1.269 . S
O432 Zn429 1.986 . S
O432 C439 1.262 . S
O433 Zn428 2.049 . S
O433 C441 1.260 . S
O434 Zn429 1.996 . S
O434 C441 1.257 . S
C435 O430 1.254 . S
C435 O431 1.269 . S
C436 O437 1.249 . S
C436 O438 1.270 . S
O437 Zn429 1.943 . S
O437 C436 1.249 . S
O438 Zn428 2.067 . S
O438 C436 1.270 . S
C439 O432 1.262 . S
C439 O440 1.232 . S
O440 C439 1.232 . S
C441 O433 1.260 . S
C441 O434 1.257 . S
Zn442 O445 2.031 . S
Zn442 O447 2.049 . S
Zn442 O452 2.067 . S
Zn443 O444 1.962 . S
Zn443 O446 1.986 . S
Zn443 O448 1.996 . S
Zn443 O451 1.943 . S
O444 Zn443 1.962 . S
O444 C449 1.254 . S
O445 Zn442 2.031 . S
O445 C449 1.269 . S
O446 Zn443 1.986 . S
O446 C453 1.262 . S
O447 Zn442 2.049 . S
O447 C455 1.260 . S
O448 Zn443 1.996 . S
O448 C455 1.257 . S
C449 O444 1.254 . S
C449 O445 1.269 . S
C450 O451 1.249 . S
C450 O452 1.270 . S
O451 Zn443 1.943 . S
O451 C450 1.249 . S
O452 Zn442 2.067 . S
O452 C450 1.270 . S
C453 O446 1.262 . S
C453 O454 1.232 . S
O454 C453 1.232 . S
C455 O447 1.260 . S
C455 O448 1.257 . S
C456 C457 1.363 . S
C456 C462 1.379 . S
C456 N464 1.356 . S
C457 C456 1.363 . S
C457 C463 1.363 . S
C458 C459 1.363 . S
C458 C463 1.379 . S
C458 N465 1.356 . S
C459 C458 1.363 . S
C459 C462 1.363 . S
N460 C462 1.356 . S
N460 H472 0.984 . S
N460 H473 0.985 . S
N461 C463 1.356 . S
N461 H466 0.984 . S
N461 H467 0.985 . S
C462 C456 1.379 . S
C462 C459 1.363 . S
C462 N460 1.356 . S
C463 C457 1.363 . S
C463 C458 1.379 . S
C463 N461 1.356 . S
N464 C456 1.356 . S
N464 H470 0.984 . S
N464 H471 0.984 . S
N465 C458 1.356 . S
N465 H468 0.984 . S
N465 H469 0.985 . S
H466 N461 0.984 . S
H467 N461 0.985 . S
H468 N465 0.984 . S
H469 N465 0.985 . S
H470 N464 0.984 . S
H471 N464 0.984 . S
H472 N460 0.984 . S
H473 N460 0.985 . S
C474 C475 1.363 . S
C474 C480 1.379 . S
C474 N482 1.356 . S
C475 C474 1.363 . S
C475 C481 1.363 . S
C476 C477 1.363 . S
C476 C481 1.379 . S
C476 N483 1.356 . S
C477 C476 1.363 . S
C477 C480 1.363 . S
N478 C480 1.356 . S
N478 H490 0.984 . S
N478 H491 0.985 . S
N479 C481 1.356 . S
N479 H484 0.984 . S
N479 H485 0.985 . S
C480 C474 1.379 . S
C480 C477 1.363 . S
C480 N478 1.356 . S
C481 C475 1.363 . S
C481 C476 1.379 . S
C481 N479 1.356 . S
N482 C474 1.356 . S
N482 H488 0.984 . S
N482 H489 0.984 . S
N483 C476 1.356 . S
N483 H486 0.984 . S
N483 H487 0.985 . S
H484 N479 0.984 . S
H485 N479 0.985 . S
H486 N483 0.984 . S
H487 N483 0.985 . S
H488 N482 0.984 . S
H489 N482 0.984 . S
H490 N478 0.984 . S
H491 N478 0.985 . S
C492 C493 1.363 . S
C492 C498 1.379 . S
C492 N500 1.356 . S
C493 C492 1.363 . S
C493 C499 1.363 . S
C494 C495 1.363 . S
C494 C499 1.379 . S
C494 N501 1.356 . S
C495 C494 1.363 . S
C495 C498 1.363 . S
N496 C498 1.356 . S
N496 H508 0.984 . S
N496 H509 0.985 . S
N497 C499 1.356 . S
N497 H502 0.984 . S
N497 H503 0.985 . S
C498 C492 1.379 . S
C498 C495 1.363 . S
C498 N496 1.356 . S
C499 C493 1.363 . S
C499 C494 1.379 . S
C499 N497 1.356 . S
N500 C492 1.356 . S
N500 H506 0.984 . S
N500 H507 0.984 . S
N501 C494 1.356 . S
N501 H504 0.984 . S
N501 H505 0.985 . S
H502 N497 0.984 . S
H503 N497 0.985 . S
H504 N501 0.984 . S
H505 N501 0.985 . S
H506 N500 0.984 . S
H507 N500 0.984 . S
H508 N496 0.984 . S
H509 N496 0.985 . S
C510 C511 1.363 . S
C510 C516 1.379 . S
C510 N518 1.356 . S
C511 C510 1.363 . S
C511 C517 1.363 . S
C512 C513 1.363 . S
C512 C517 1.379 . S
C512 N519 1.356 . S
C513 C512 1.363 . S
C513 C516 1.363 . S
N514 C516 1.356 . S
N514 H526 0.984 . S
N514 H527 0.985 . S
N515 C517 1.356 . S
N515 H520 0.984 . S
N515 H521 0.985 . S
C516 C510 1.379 . S
C516 C513 1.363 . S
C516 N514 1.356 . S
C517 C511 1.363 . S
C517 C512 1.379 . S
C517 N515 1.356 . S
N518 C510 1.356 . S
N518 H524 0.984 . S
N518 H525 0.984 . S
N519 C512 1.356 . S
N519 H522 0.984 . S
N519 H523 0.985 . S
H520 N515 0.984 . S
H521 N515 0.985 . S
H522 N519 0.984 . S
H523 N519 0.985 . S
H524 N518 0.984 . S
H525 N518 0.984 . S
H526 N514 0.984 . S
H527 N514 0.985 . S
C528 C529 1.363 . S
C528 C534 1.379 . S
C528 N536 1.356 . S
C529 C528 1.363 . S
C529 C535 1.363 . S
C530 C531 1.363 . S
C530 C535 1.379 . S
C530 N537 1.356 . S
C531 C530 1.363 . S
C531 C534 1.363 . S
N532 C534 1.356 . S
N532 H544 0.984 . S
N532 H545 0.985 . S
N533 C535 1.356 . S
N533 H538 0.984 . S
N533 H539 0.985 . S
C534 C528 1.379 . S
C534 C531 1.363 . S
C534 N532 1.356 . S
C535 C529 1.363 . S
C535 C530 1.379 . S
C535 N533 1.356 . S
N536 C528 1.356 . S
N536 H542 0.984 1_556 S
N536 H543 0.984 . S
N537 C530 1.356 . S
N537 H540 0.984 . S
N537 H541 0.985 . S
H538 N533 0.984 . S
H539 N533 0.985 . S
H540 N537 0.984 . S
H541 N537 0.985 . S
H542 N536 0.984 1_554 S
H543 N536 0.984 . S
H544 N532 0.984 . S
H545 N532 0.985 . S
C546 C547 1.363 . S
C546 C552 1.379 . S
C546 N554 1.356 . S
C547 C546 1.363 . S
C547 C553 1.363 . S
C548 C549 1.363 . S
C548 C553 1.379 . S
C548 N555 1.356 . S
C549 C548 1.363 . S
C549 C552 1.363 . S
N550 C552 1.356 . S
N550 H562 0.984 . S
N550 H563 0.985 . S
N551 C553 1.356 . S
N551 H556 0.984 . S
N551 H557 0.985 . S
C552 C546 1.379 . S
C552 C549 1.363 . S
C552 N550 1.356 . S
C553 C547 1.363 . S
C553 C548 1.379 . S
C553 N551 1.356 . S
N554 C546 1.356 . S
N554 H560 0.984 . S
N554 H561 0.984 . S
N555 C548 1.356 . S
N555 H558 0.984 . S
N555 H559 0.985 . S
H556 N551 0.984 . S
H557 N551 0.985 . S
H558 N555 0.984 . S
H559 N555 0.985 . S
H560 N554 0.984 . S
H561 N554 0.984 . S
H562 N550 0.984 . S
H563 N550 0.985 . S
C564 C565 1.363 . S
C564 C570 1.379 . S
C564 N572 1.356 . S
C565 C564 1.363 . S
C565 C571 1.363 . S
C566 C567 1.363 . S
C566 C571 1.379 . S
C566 N573 1.356 . S
C567 C566 1.363 . S
C567 C570 1.363 . S
N568 C570 1.356 . S
N568 H580 0.984 . S
N568 H581 0.985 . S
N569 C571 1.356 . S
N569 H574 0.984 . S
N569 H575 0.985 . S
C570 C564 1.379 . S
C570 C567 1.363 . S
C570 N568 1.356 . S
C571 C565 1.363 . S
C571 C566 1.379 . S
C571 N569 1.356 . S
N572 C564 1.356 . S
N572 H578 0.984 . S
N572 H579 0.984 . S
N573 C566 1.356 . S
N573 H576 0.984 . S
N573 H577 0.985 . S
H574 N569 0.984 . S
H575 N569 0.985 . S
H576 N573 0.984 . S
H577 N573 0.985 . S
H578 N572 0.984 . S
H579 N572 0.984 . S
H580 N568 0.984 . S
H581 N568 0.985 . S
C582 C583 1.363 . S
C582 C588 1.379 . S
C582 N590 1.356 . S
C583 C582 1.363 . S
C583 C589 1.363 . S
C584 C585 1.363 . S
C584 C589 1.379 . S
C584 N591 1.356 . S
C585 C584 1.363 . S
C585 C588 1.363 . S
N586 C588 1.356 . S
N586 H598 0.984 . S
N586 H599 0.985 . S
N587 C589 1.356 . S
N587 H592 0.984 . S
N587 H593 0.985 . S
C588 C582 1.379 . S
C588 C585 1.363 . S
C588 N586 1.356 . S
C589 C583 1.363 . S
C589 C584 1.379 . S
C589 N587 1.356 . S
N590 C582 1.356 . S
N590 H596 0.984 . S
N590 H597 0.984 . S
N591 C584 1.356 . S
N591 H594 0.984 . S
N591 H595 0.985 . S
H592 N587 0.984 . S
H593 N587 0.985 . S
H594 N591 0.984 . S
H595 N591 0.985 . S
H596 N590 0.984 . S
H597 N590 0.984 . S
H598 N586 0.984 . S
H599 N586 0.985 . S
C600 C601 1.363 . S
C600 C606 1.379 . S
C600 N608 1.356 . S
C601 C600 1.363 . S
C601 C607 1.363 . S
C602 C603 1.363 . S
C602 C607 1.379 . S
C602 N609 1.356 . S
C603 C602 1.363 . S
C603 C606 1.363 . S
N604 C606 1.356 . S
N604 H616 0.984 . S
N604 H617 0.985 . S
N605 C607 1.356 . S
N605 H610 0.984 . S
N605 H611 0.985 . S
C606 C600 1.379 . S
C606 C603 1.363 . S
C606 N604 1.356 . S
C607 C601 1.363 . S
C607 C602 1.379 . S
C607 N605 1.356 . S
N608 C600 1.356 . S
N608 H614 0.984 . S
N608 H615 0.984 . S
N609 C602 1.356 . S
N609 H612 0.984 . S
N609 H613 0.985 . S
H610 N605 0.984 . S
H611 N605 0.985 . S
H612 N609 0.984 . S
H613 N609 0.985 . S
H614 N608 0.984 . S
H615 N608 0.984 . S
H616 N604 0.984 . S
H617 N604 0.985 . S
C618 C619 1.363 . S
C618 C624 1.379 . S
C618 N626 1.356 1_554 S
C619 C618 1.363 . S
C619 C625 1.363 . S
C620 C621 1.363 . S
C620 C625 1.379 . S
C620 N627 1.356 . S
C621 C620 1.363 . S
C621 C624 1.363 . S
N622 C624 1.356 . S
N622 H634 0.984 1_554 S
N622 H635 0.985 . S
N623 C625 1.356 . S
N623 H628 0.984 . S
N623 H629 0.985 . S
C624 C618 1.379 . S
C624 C621 1.363 . S
C624 N622 1.356 . S
C625 C619 1.363 . S
C625 C620 1.379 . S
C625 N623 1.356 . S
N626 C618 1.356 1_556 S
N626 H632 0.984 . S
N626 H633 0.984 . S
N627 C620 1.356 . S
N627 H630 0.984 . S
N627 H631 0.985 . S
H628 N623 0.984 . S
H629 N623 0.985 . S
H630 N627 0.984 . S
H631 N627 0.985 . S
H632 N626 0.984 . S
H633 N626 0.984 . S
H634 N622 0.984 1_556 S
H635 N622 0.985 . S
C636 C637 1.363 . S
C636 C642 1.379 . S
C636 N644 1.356 . S
C637 C636 1.363 . S
C637 C643 1.363 . S
C638 C639 1.363 . S
C638 C643 1.379 . S
C638 N645 1.356 . S
C639 C638 1.363 . S
C639 C642 1.363 . S
N640 C642 1.356 . S
N640 H652 0.984 . S
N640 H653 0.985 . S
N641 C643 1.356 . S
N641 H646 0.984 . S
N641 H647 0.985 . S
C642 C636 1.379 . S
C642 C639 1.363 . S
C642 N640 1.356 . S
C643 C637 1.363 . S
C643 C638 1.379 . S
C643 N641 1.356 . S
N644 C636 1.356 . S
N644 H650 0.984 . S
N644 H651 0.984 . S
N645 C638 1.356 . S
N645 H648 0.984 . S
N645 H649 0.985 . S
H646 N641 0.984 . S
H647 N641 0.985 . S
H648 N645 0.984 . S
H649 N645 0.985 . S
H650 N644 0.984 . S
H651 N644 0.984 . S
H652 N640 0.984 . S
H653 N640 0.985 . S
C654 C655 1.363 . S
C654 C660 1.379 . S
C654 N662 1.356 . S
C655 C654 1.363 . S
C655 C661 1.363 . S
C656 C657 1.363 . S
C656 C661 1.379 . S
C656 N663 1.356 . S
C657 C656 1.363 . S
C657 C660 1.363 . S
N658 C660 1.356 . S
N658 H670 0.984 . S
N658 H671 0.985 . S
N659 C661 1.356 . S
N659 H664 0.984 . S
N659 H665 0.985 . S
C660 C654 1.379 . S
C660 C657 1.363 . S
C660 N658 1.356 . S
C661 C655 1.363 . S
C661 C656 1.379 . S
C661 N659 1.356 . S
N662 C654 1.356 . S
N662 H668 0.984 . S
N662 H669 0.984 . S
N663 C656 1.356 . S
N663 H666 0.984 . S
N663 H667 0.985 . S
H664 N659 0.984 . S
H665 N659 0.985 . S
H666 N663 0.984 . S
H667 N663 0.985 . S
H668 N662 0.984 . S
H669 N662 0.984 . S
H670 N658 0.984 . S
H671 N658 0.985 . S
C672 C673 1.363 . S
C672 C678 1.379 . S
C672 N680 1.356 . S
C673 C672 1.363 . S
C673 C679 1.363 . S
C674 C675 1.363 . S
C674 C679 1.379 . S
C674 N681 1.356 . S
C675 C674 1.363 . S
C675 C678 1.363 . S
N676 C678 1.356 . S
N676 H688 0.984 . S
N676 H689 0.985 . S
N677 C679 1.356 . S
N677 H682 0.984 . S
N677 H683 0.985 . S
C678 C672 1.379 . S
C678 C675 1.363 . S
C678 N676 1.356 . S
C679 C673 1.363 . S
C679 C674 1.379 . S
C679 N677 1.356 . S
N680 C672 1.356 . S
N680 H686 0.984 . S
N680 H687 0.984 . S
N681 C674 1.356 . S
N681 H684 0.984 . S
N681 H685 0.985 . S
H682 N677 0.984 . S
H683 N677 0.985 . S
H684 N681 0.984 . S
H685 N681 0.985 . S
H686 N680 0.984 . S
H687 N680 0.984 . S
H688 N676 0.984 . S
H689 N676 0.985 . S
C690 C691 1.363 . S
C690 C696 1.379 . S
C690 N698 1.356 . S
C691 C690 1.363 . S
C691 C697 1.363 . S
C692 C693 1.363 . S
C692 C697 1.379 . S
C692 N699 1.356 . S
C693 C692 1.363 . S
C693 C696 1.363 . S
N694 C696 1.356 . S
N694 H706 0.984 . S
N694 H707 0.985 . S
N695 C697 1.356 . S
N695 H700 0.984 . S
N695 H701 0.985 . S
C696 C690 1.379 . S
C696 C693 1.363 . S
C696 N694 1.356 . S
C697 C691 1.363 . S
C697 C692 1.379 . S
C697 N695 1.356 . S
N698 C690 1.356 . S
N698 H704 0.984 . S
N698 H705 0.984 . S
N699 C692 1.356 . S
N699 H702 0.984 . S
N699 H703 0.985 . S
H700 N695 0.984 . S
H701 N695 0.985 . S
H702 N699 0.984 . S
H703 N699 0.985 . S
H704 N698 0.984 . S
H705 N698 0.984 . S
H706 N694 0.984 . S
H707 N694 0.985 . S
C708 C709 1.363 . S
C708 C714 1.379 . S
C708 N716 1.356 . S
C709 C708 1.363 . S
C709 C715 1.363 . S
C710 C711 1.363 . S
C710 C715 1.379 . S
C710 N717 1.356 . S
C711 C710 1.363 . S
C711 C714 1.363 . S
N712 C714 1.356 . S
N712 H724 0.984 . S
N712 H725 0.985 . S
N713 C715 1.356 . S
N713 H718 0.984 . S
N713 H719 0.985 . S
C714 C708 1.379 . S
C714 C711 1.363 . S
C714 N712 1.356 . S
C715 C709 1.363 . S
C715 C710 1.379 . S
C715 N713 1.356 . S
N716 C708 1.356 . S
N716 H722 0.984 . S
N716 H723 0.984 . S
N717 C710 1.356 . S
N717 H720 0.984 . S
N717 H721 0.985 . S
H718 N713 0.984 . S
H719 N713 0.985 . S
H720 N717 0.984 . S
H721 N717 0.985 . S
H722 N716 0.984 . S
H723 N716 0.984 . S
H724 N712 0.984 . S
H725 N712 0.985 . S
C726 C727 1.363 . S
C726 C732 1.379 . S
C726 N734 1.356 . S
C727 C726 1.363 . S
C727 C733 1.363 . S
C728 C729 1.363 . S
C728 C733 1.379 . S
C728 N735 1.356 . S
C729 C728 1.363 . S
C729 C732 1.363 . S
N730 C732 1.356 1_554 S
N730 H742 0.984 . S
N730 H743 0.985 . S
N731 C733 1.356 . S
N731 H736 0.984 . S
N731 H737 0.985 . S
C732 C726 1.379 . S
C732 C729 1.363 . S
C732 N730 1.356 1_556 S
C733 C727 1.363 . S
C733 C728 1.379 . S
C733 N731 1.356 . S
N734 C726 1.356 . S
N734 H740 0.984 . S
N734 H741 0.984 . S
N735 C728 1.356 . S
N735 H738 0.984 . S
N735 H739 0.985 . S
H736 N731 0.984 . S
H737 N731 0.985 . S
H738 N735 0.984 . S
H739 N735 0.985 . S
H740 N734 0.984 . S
H741 N734 0.984 . S
H742 N730 0.984 . S
H743 N730 0.985 . S
C744 C745 1.363 . S
C744 C750 1.379 . S
C744 N752 1.356 . S
C745 C744 1.363 . S
C745 C751 1.363 . S
C746 C747 1.363 . S
C746 C751 1.379 . S
C746 N753 1.356 . S
C747 C746 1.363 . S
C747 C750 1.363 . S
N748 C750 1.356 . S
N748 H760 0.984 . S
N748 H761 0.985 . S
N749 C751 1.356 . S
N749 H754 0.984 . S
N749 H755 0.985 . S
C750 C744 1.379 . S
C750 C747 1.363 . S
C750 N748 1.356 . S
C751 C745 1.363 . S
C751 C746 1.379 . S
C751 N749 1.356 . S
N752 C744 1.356 . S
N752 H758 0.984 . S
N752 H759 0.984 . S
N753 C746 1.356 . S
N753 H756 0.984 . S
N753 H757 0.985 . S
H754 N749 0.984 . S
H755 N749 0.985 . S
H756 N753 0.984 . S
H757 N753 0.985 . S
H758 N752 0.984 . S
H759 N752 0.984 . S
H760 N748 0.984 . S
H761 N748 0.985 . S
C762 C763 1.363 . S
C762 C768 1.379 . S
C762 N770 1.356 . S
C763 C762 1.363 . S
C763 C769 1.363 . S
C764 C765 1.363 . S
C764 C769 1.379 . S
C764 N771 1.356 . S
C765 C764 1.363 . S
C765 C768 1.363 . S
N766 C768 1.356 . S
N766 H778 0.984 . S
N766 H779 0.985 . S
N767 C769 1.356 . S
N767 H772 0.984 . S
N767 H773 0.985 . S
C768 C762 1.379 . S
C768 C765 1.363 . S
C768 N766 1.356 . S
C769 C763 1.363 . S
C769 C764 1.379 . S
C769 N767 1.356 . S
N770 C762 1.356 . S
N770 H776 0.984 . S
N770 H777 0.984 . S
N771 C764 1.356 . S
N771 H774 0.984 . S
N771 H775 0.985 . S
H772 N767 0.984 . S
H773 N767 0.985 . S
H774 N771 0.984 . S
H775 N771 0.985 . S
H776 N770 0.984 . S
H777 N770 0.984 . S
H778 N766 0.984 . S
H779 N766 0.985 . S
C780 C781 1.363 . S
C780 C786 1.379 . S
C780 N788 1.356 . S
C781 C780 1.363 . S
C781 C787 1.363 . S
C782 C783 1.363 . S
C782 C787 1.379 . S
C782 N789 1.356 . S
C783 C782 1.363 . S
C783 C786 1.363 . S
N784 C786 1.356 . S
N784 H796 0.984 . S
N784 H797 0.985 . S
N785 C787 1.356 . S
N785 H790 0.984 . S
N785 H791 0.985 . S
C786 C780 1.379 . S
C786 C783 1.363 . S
C786 N784 1.356 . S
C787 C781 1.363 . S
C787 C782 1.379 . S
C787 N785 1.356 . S
N788 C780 1.356 . S
N788 H794 0.984 . S
N788 H795 0.984 . S
N789 C782 1.356 . S
N789 H792 0.984 . S
N789 H793 0.985 . S
H790 N785 0.984 . S
H791 N785 0.985 . S
H792 N789 0.984 . S
H793 N789 0.985 . S
H794 N788 0.984 . S
H795 N788 0.984 . S
H796 N784 0.984 . S
H797 N784 0.985 . S
C798 C799 1.363 . S
C798 C804 1.379 . S
C798 N806 1.356 . S
C799 C798 1.363 . S
C799 C805 1.363 . S
C800 C801 1.363 . S
C800 C805 1.379 . S
C800 N807 1.356 . S
C801 C800 1.363 . S
C801 C804 1.363 . S
N802 C804 1.356 . S
N802 H814 0.984 . S
N802 H815 0.985 . S
N803 C805 1.356 . S
N803 H808 0.984 . S
N803 H809 0.985 . S
C804 C798 1.379 . S
C804 C801 1.363 . S
C804 N802 1.356 . S
C805 C799 1.363 . S
C805 C800 1.379 . S
C805 N803 1.356 . S
N806 C798 1.356 . S
N806 H812 0.984 . S
N806 H813 0.984 . S
N807 C800 1.356 . S
N807 H810 0.984 . S
N807 H811 0.985 . S
H808 N803 0.984 . S
H809 N803 0.985 . S
H810 N807 0.984 . S
H811 N807 0.985 . S
H812 N806 0.984 . S
H813 N806 0.984 . S
H814 N802 0.984 . S
H815 N802 0.985 . S
C816 C817 1.363 . S
C816 C822 1.379 . S
C816 N824 1.356 . S
C817 C816 1.363 . S
C817 C823 1.363 . S
C818 C819 1.363 . S
C818 C823 1.379 . S
C818 N825 1.356 . S
C819 C818 1.363 . S
C819 C822 1.363 . S
N820 C822 1.356 . S
N820 H832 0.984 . S
N820 H833 0.985 . S
N821 C823 1.356 . S
N821 H826 0.984 . S
N821 H827 0.985 . S
C822 C816 1.379 . S
C822 C819 1.363 . S
C822 N820 1.356 . S
C823 C817 1.363 . S
C823 C818 1.379 . S
C823 N821 1.356 . S
N824 C816 1.356 . S
N824 H830 0.984 . S
N824 H831 0.984 . S
N825 C818 1.356 . S
N825 H828 0.984 . S
N825 H829 0.985 . S
H826 N821 0.984 . S
H827 N821 0.985 . S
H828 N825 0.984 . S
H829 N825 0.985 . S
H830 N824 0.984 . S
H831 N824 0.984 . S
H832 N820 0.984 . S
H833 N820 0.985 . S
C834 C835 1.363 . S
C834 C840 1.379 . S
C834 N842 1.356 . S
C835 C834 1.363 . S
C835 C841 1.363 . S
C836 C837 1.363 . S
C836 C841 1.379 . S
C836 N843 1.356 . S
C837 C836 1.363 . S
C837 C840 1.363 . S
N838 C840 1.356 . S
N838 H850 0.984 . S
N838 H851 0.985 . S
N839 C841 1.356 . S
N839 H844 0.984 . S
N839 H845 0.985 . S
C840 C834 1.379 . S
C840 C837 1.363 . S
C840 N838 1.356 . S
C841 C835 1.363 . S
C841 C836 1.379 . S
C841 N839 1.356 . S
N842 C834 1.356 . S
N842 H848 0.984 . S
N842 H849 0.984 . S
N843 C836 1.356 . S
N843 H846 0.984 . S
N843 H847 0.985 . S
H844 N839 0.984 . S
H845 N839 0.985 . S
H846 N843 0.984 . S
H847 N843 0.985 . S
H848 N842 0.984 . S
H849 N842 0.984 . S
H850 N838 0.984 . S
H851 N838 0.985 . S
C852 C853 1.363 . S
C852 C858 1.389 . S
C852 N860 1.356 . S
C853 C852 1.363 . S
C853 C859 1.363 1_554 S
C854 C855 1.363 . S
C854 C859 1.379 . S
C854 N861 1.356 . S
C855 C854 1.363 . S
C855 C858 1.346 1_556 S
N856 C858 1.357 . S
N856 H868 0.984 . S
N856 H869 0.985 1_554 S
N857 C859 1.356 . S
N857 H862 0.984 . S
N857 H863 0.985 . S
C858 C852 1.389 . S
C858 C855 1.346 1_554 S
C858 N856 1.357 . S
C859 C853 1.363 1_556 S
C859 C854 1.379 . S
C859 N857 1.356 . S
N860 C852 1.356 . S
N860 H866 0.984 . S
N860 H867 0.984 . S
N861 C854 1.356 . S
N861 H864 0.984 . S
N861 H865 0.985 . S
H862 N857 0.984 . S
H863 N857 0.985 . S
H864 N861 0.984 . S
H865 N861 0.985 . S
H866 N860 0.984 . S
H867 N860 0.984 . S
H868 N856 0.984 . S
H869 N856 0.985 1_556 S
C870 C871 1.363 . S
C870 C876 1.379 . S
C870 N878 1.356 . S
C871 C870 1.363 . S
C871 C877 1.363 . S
C872 C873 1.363 . S
C872 C877 1.379 . S
C872 N879 1.356 . S
C873 C872 1.363 . S
C873 C876 1.363 . S
N874 C876 1.356 . S
N874 H886 0.984 . S
N874 H887 0.985 . S
N875 C877 1.356 . S
N875 H880 0.984 . S
N875 H881 0.985 . S
C876 C870 1.379 . S
C876 C873 1.363 . S
C876 N874 1.356 . S
C877 C871 1.363 . S
C877 C872 1.379 . S
C877 N875 1.356 . S
N878 C870 1.356 . S
N878 H884 0.984 . S
N878 H885 0.984 . S
N879 C872 1.356 . S
N879 H882 0.984 . S
N879 H883 0.985 . S
H880 N875 0.984 . S
H881 N875 0.985 . S
H882 N879 0.984 . S
H883 N879 0.985 . S
H884 N878 0.984 . S
H885 N878 0.984 . S
H886 N874 0.984 . S
H887 N874 0.985 . S
C459 C449 1.654 . S
C457 C29 1.567 . S
C475 C115 1.487 . S
C477 C383 1.453 . S
C493 C153 1.430 . S
C495 C397 1.480 . S
C511 C239 1.511 . S
C513 C411 1.470 . S
C531 C425 1.587 . S
C529 C301 1.615 . S
C547 C339 1.765 . S
C549 C435 1.869 . S
C565 C91 1.562 . S
C567 C393 1.648 . S
C583 C177 1.654 . S
C585 C407 1.677 . S
C601 C215 1.609 . S
C603 C421 1.700 . S
C621 C439 1.841 . S
C619 C277 1.786 . S
C639 C453 1.537 . S
C637 C363 1.550 . S
C657 C379 1.562 . S
C655 C53 1.553 . S
C673 C35 1.585 . S
C675 C394 1.549 . S
C691 C109 1.449 . S
C693 C408 1.510 . S
C711 C422 1.520 . S
C709 C159 1.543 . S
C727 C233 1.574 . S
C729 C441 1.663 1_556 S
C747 C455 1.461 . S
C745 C295 1.364 . S
C765 C380 1.377 . S
C763 C345 1.405 . S
C783 C450 1.416 . S
C781 C97 1.440 . S
C799 C171 1.269 . S
C801 C385 1.346 . S
C819 C399 1.472 . S
C817 C221 1.465 . S
C835 C283 1.366 . S
C837 C413 1.347 . S
C853 C357 1.384 . S
C855 C427 1.505 . S
C871 C47 1.611 . S
C873 C436 1.665 . S
