# Generated by pormake.
# Topology pts, (4,4)-cn, num edge types: 1
# Building blocks:
#     Node 0, Type 0, BuildingBlock: MUDLON_clean_linker_0, # of connection points: 4
#     Node 1, Type 0, BuildingBlock: MUDLON_clean_linker_0, # of connection points: 4
#     Node 2, Type 1, BuildingBlock: QUQFOY_clean_sbu_1, # of connection points: 4
#     Node 3, Type 1, BuildingBlock: QUQFOY_clean_sbu_1, # of connection points: 4
#     Edge 4, Type (0, 1), BuildingBlock: TEMPAE_clean_linker_10, # of connection points: 2
#     Edge 5, Type (0, 1), BuildingBlock: TEMPAE_clean_linker_10, # of connection points: 2
#     Edge 6, Type (0, 1), BuildingBlock: TEMPAE_clean_linker_10, # of connection points: 2
#     Edge 7, Type (0, 1), BuildingBlock: TEMPAE_clean_linker_10, # of connection points: 2
#     Edge 8, Type (0, 1), BuildingBlock: TEMPAE_clean_linker_10, # of connection points: 2
#     Edge 9, Type (0, 1), BuildingBlock: TEMPAE_clean_linker_10, # of connection points: 2
#     Edge 10, Type (0, 1), BuildingBlock: TEMPAE_clean_linker_10, # of connection points: 2
#     Edge 11, Type (0, 1), BuildingBlock: TEMPAE_clean_linker_10, # of connection points: 2
# Relax obj value: 0.109
# Max RMSD: 0.273
# Mean RMSD: 0.180
data_MOF--net-pts--node1-QUQFOY_clean_sbu_1--node2-MUDLON_clean_linker_0--edge1-TEMPAE_clean_linker_10
_symmetry_space_group_name_H-M    P1
_symmetry_Int_Tables_number       1
_symmetry_cell_setting            triclinic
loop_
_symmetry_equiv_pos_as_xyz
'x, y, z'
_cell_length_a     32.616501
_cell_length_b     35.766794
_cell_length_c     47.578883
_cell_angle_alpha  89.953394
_cell_angle_beta   90.001468
_cell_angle_gamma 90.097011
loop_
_atom_site_label
_atom_site_type_symbol
_atom_site_fract_x
_atom_site_fract_y
_atom_site_fract_z
_atom_type_partial_charge
H0 H 0.70981 0.01283 0.00697 0.0
N1 N 0.65487 0.95576 -0.00157 0.0
H2 H 0.75137 0.0228 0.0485 0.0
H3 H 0.64788 0.92117 0.04781 0.0
H4 H 0.68624 0.9334 0.09088 0.0
H5 H 0.72632 0.92283 0.98729 0.0
H6 H 0.77144 0.93299 0.94755 0.0
H7 H 0.63765 0.99818 0.95063 0.0
H8 H 0.68048 0.00523 0.90971 0.0
H9 H 0.62898 0.02742 0.00779 0.0
H10 H 0.58782 0.91621 0.98726 0.0
H11 H 0.55821 0.04946 0.0077 0.0
H12 H 0.51685 0.93827 0.9858 0.0
H13 H 0.36066 0.09611 0.03887 0.0
H14 H 0.31891 0.09039 0.08157 0.0
H15 H 0.27571 0.98254 0.05332 0.0
H16 H 0.31706 0.98854 0.01087 0.0
H17 H 0.36061 0.98359 0.96515 0.0
H18 H 0.31863 0.97333 0.92332 0.0
H19 H 0.27565 0.08728 0.9279 0.0
H20 H 0.3181 0.09755 0.96972 0.0
H21 H 0.43109 0.08443 0.97768 0.0
H22 H 0.50209 0.06243 0.97713 0.0
H23 H 0.46342 0.95893 0.01607 0.0
N24 N 0.3652 0.04844 0.99614 0.0
H25 H 0.39277 0.98042 0.01536 0.0
C26 C 0.67663 0.96528 0.02397 0.0
C27 C 0.70474 0.99513 0.02511 0.0
C28 C 0.72814 1.0012 0.04925 0.0
C29 C 0.72284 0.97865 0.07331 0.0
C30 C 0.69247 0.95057 0.07263 0.0
C31 C 0.67008 0.94372 0.04812 0.0
C32 C 0.67878 0.96017 0.97281 0.0
C33 C 0.71621 0.94108 0.97049 0.0
C34 C 0.74186 0.94662 0.94739 0.0
C35 C 0.73003 0.97018 0.9251 0.0
C36 C 0.69152 0.98781 0.92669 0.0
C37 C 0.66649 0.98335 0.95031 0.0
C38 C 0.61347 0.96992 -0.00206 0.0
C39 C 0.60462 0.00774 0.00328 0.0
C40 C 0.56413 0.02038 0.00288 0.0
C41 C 0.53173 0.99562 0.99684 0.0
C42 C 0.5409 0.95796 0.99107 0.0
C43 C 0.58137 0.9453 0.9917 0.0
C44 C 0.34174 0.04312 0.02156 0.0
C45 C 0.34231 0.07121 0.04206 0.0
C46 C 0.31866 0.06779 0.06644 0.0
C47 C 0.29386 0.03611 0.07069 0.0
C48 C 0.29405 0.00752 0.05042 0.0
C49 C 0.31779 0.01091 0.02613 0.0
C50 C 0.34275 0.04165 0.97049 0.0
C51 C 0.34272 0.00659 0.957 0.0
C52 C 0.31871 1.0007 0.93305 0.0
C53 C 0.29389 0.02949 0.92243 0.0
C54 C 0.29427 0.06452 0.93578 0.0
C55 C 0.31857 0.07049 0.95952 0.0
C56 C 0.40665 0.03445 0.99677 0.0
C57 C 0.43811 0.05702 0.98608 0.0
C58 C 0.47864 0.04446 0.98596 0.0
C59 C 0.48856 0.00894 0.99668 0.0
C60 C 0.45688 0.98625 0.00733 0.0
C61 C 0.41634 0.99873 0.00724 0.0
H62 H 0.88438 0.68819 0.52208 0.0
N63 N 0.9396 0.64727 0.49537 0.0
H64 H 0.89657 0.73316 0.5597 0.0
H65 H 0.01135 0.65561 0.52457 0.0
H66 H 0.02345 0.69841 0.56342 0.0
H67 H 0.01539 0.65649 0.47204 0.0
H68 H 0.03238 0.69782 0.43271 0.0
H69 H 0.88746 0.68281 0.4622 0.0
H70 H 0.90395 0.7253 0.42365 0.0
H71 H 0.87564 0.60203 0.49118 0.0
H72 H 0.007 0.6017 0.50014 0.0
H73 H 0.87502 0.5338 0.49165 0.0
H74 H 0.00673 0.53368 0.50249 0.0
H75 H 0.88177 0.32174 0.52524 0.0
H76 H 0.89756 0.27962 0.5641 0.0
H77 H 0.02075 0.32432 0.56748 0.0
H78 H 0.00459 0.36581 0.52786 0.0
H79 H 0.00827 0.34772 0.47752 0.0
H80 H 0.02187 0.30539 0.43871 0.0
H81 H 0.89125 0.29102 0.4266 0.0
H82 H 0.87839 0.3363 0.46381 0.0
H83 H 0.8791 0.41388 0.5199 0.0
H84 H 0.88215 0.48203 0.52072 0.0
H85 H 0.99829 0.47836 0.47695 0.0
N86 N 0.93288 0.36663 0.49827 0.0
H87 H 0.99607 0.4105 0.47787 0.0
C88 C 0.94661 0.6681 0.52077 0.0
C89 C 0.91458 0.68986 0.53147 0.0
C90 C 0.92169 0.71551 0.55305 0.0
C91 C 0.96112 0.71968 0.56469 0.0
C92 C 0.99286 0.69655 0.55469 0.0
C93 C 0.98581 0.67137 0.53273 0.0
C94 C 0.95002 0.66638 0.46977 0.0
C95 C 0.99088 0.67062 0.46105 0.0
C96 C 0.00056 0.69469 0.43878 0.0
C97 C 0.96959 0.7152 0.42505 0.0
C98 C 0.9286 0.70964 0.43332 0.0
C99 C 0.91902 0.68542 0.45538 0.0
C100 C 0.94108 0.60705 0.49603 0.0
C101 C 0.9043 0.58714 0.49362 0.0
C102 C 0.90408 0.54808 0.49417 0.0
C103 C 0.9408 0.52787 0.49749 0.0
C104 C 0.97783 0.54805 0.49968 0.0
C105 C 0.97802 0.58722 0.49872 0.0
C106 C 0.94185 0.34683 0.52384 0.0
C107 C 0.91189 0.32288 0.53479 0.0
C108 C 0.92103 0.29891 0.55704 0.0
C109 C 0.9605 0.29848 0.56896 0.0
C110 C 0.99022 0.32358 0.55855 0.0
C111 C 0.98099 0.34754 0.53611 0.0
C112 C 0.94216 0.34611 0.47302 0.0
C113 C 0.98261 0.3368 0.46569 0.0
C114 C 0.9903 0.31169 0.44383 0.0
C115 C 0.95773 0.29417 0.42946 0.0
C116 C 0.9173 0.30427 0.43658 0.0
C117 C 0.90974 0.33015 0.45794 0.0
C118 C 0.93684 0.40684 0.49854 0.0
C119 C 0.90529 0.42789 0.51063 0.0
C120 C 0.90698 0.46692 0.51082 0.0
C121 C 0.9402 0.48606 0.49851 0.0
C122 C 0.97233 0.46482 0.48685 0.0
C123 C 0.97088 0.42565 0.48709 0.0
O124 O 0.96917 0.97088 0.22181 0.0
Cd125 Cd 0.01885 0.96708 0.24848 0.0
Cd126 Cd 0.00681 0.04344 0.25171 0.0
O127 O 0.95395 0.03013 0.22996 0.0
O128 O 0.02427 0.91306 0.25797 0.0
O129 O 0.00995 0.95644 0.2896 0.0
C130 C 0.01622 0.92165 0.28369 0.0
C131 C 0.00095 0.0882 0.2872 0.0
C132 C 0.94593 0.99898 0.21838 0.0
C133 C 0.08515 0.01477 0.2247 0.0
O134 O 0.06185 0.04236 0.22996 0.0
O135 O 0.07477 0.98197 0.23207 0.0
O136 O 0.00128 0.09747 0.26106 0.0
O137 O 0.00379 0.05315 0.29345 0.0
O138 O 0.96443 0.03962 0.77239 0.0
Cd139 Cd 0.01386 0.04747 0.74586 0.0
Cd140 Cd 0.01011 0.96992 0.74295 0.0
O141 O 0.95657 0.97901 0.76493 0.0
O142 O 0.01486 0.102 0.7373 0.0
O143 O 0.00536 0.05873 0.70477 0.0
C144 C 0.00872 0.09368 0.71129 0.0
C145 C 0.00664 0.92472 0.70753 0.0
C146 C 0.94475 0.00934 0.77615 0.0
C147 C 0.08502 0.00527 0.7696 0.0
O148 O 0.06501 0.97548 0.76454 0.0
O149 O 0.07088 0.03686 0.76226 0.0
O150 O 0.00829 0.91563 0.73369 0.0
O151 O 0.00738 0.95987 0.70125 0.0
C152 C 0.2809 0.04302 0.12247 0.0
C153 C 0.2666 0.03345 0.0956 0.0
C154 C 0.25498 0.04096 0.14601 0.0
C155 C 0.21379 0.02932 0.1425 0.0
C156 C 0.19925 0.01966 0.11541 0.0
C157 C 0.22584 0.02178 0.09234 0.0
C158 C 0.2716 0.05119 0.1746 0.0
C159 C 0.15543 0.00738 0.11074 0.0
C160 C 0.14848 0.99008 0.20149 0.0
C161 C 0.12231 0.02024 0.2072 0.0
C162 C 0.18005 0.99329 0.18158 0.0
C163 C 0.18541 0.0274 0.16692 0.0
C164 C 0.16068 0.05858 0.17376 0.0
C165 C 0.12952 0.05467 0.19389 0.0
C166 C 0.20613 0.95954 0.17512 0.0
C167 C 0.16543 0.09543 0.15859 0.0
H168 H 0.31251 0.05176 0.1251 0.0
H169 H 0.21447 0.01492 0.07156 0.0
H170 H 0.25377 0.07474 0.18352 0.0
H171 H 0.26816 0.02719 0.18921 0.0
H172 H 0.30446 0.05935 0.17382 0.0
H173 H 0.14901 1.00078 0.08836 0.0
H174 H 0.14867 0.98221 0.12358 0.0
H175 H 0.13413 0.02972 0.11762 0.0
H176 H 0.14342 0.96345 0.21182 0.0
H177 H 0.10958 0.07819 0.1982 0.0
H178 H 0.23909 0.96724 0.1749 0.0
H179 H 0.19835 0.94881 0.1539 0.0
H180 H 0.20144 0.93664 0.19058 0.0
H181 H 0.19803 0.10431 0.15841 0.0
H182 H 0.1468 0.11794 0.16832 0.0
H183 H 0.15567 0.09215 0.13638 0.0
C184 C 0.94192 0.26121 0.61186 0.0
C185 C 0.97075 0.27052 0.59109 0.0
C186 C 0.94954 0.23253 0.6313 0.0
C187 C 0.98718 0.21294 0.63025 0.0
C188 C 0.01697 0.2229 0.60993 0.0
C189 C 0.00833 0.25144 0.59051 0.0
C190 C 0.91696 0.22277 0.65265 0.0
C191 C 0.05765 0.20294 0.60837 0.0
C192 C 0.0169 0.16031 0.69652 0.0
C193 C 0.00515 0.1236 0.6899 0.0
C194 C 0.01232 0.18945 0.67702 0.0
C195 C 0.99503 0.18183 0.65035 0.0
C196 C 0.98367 0.14472 0.64336 0.0
C197 C 0.98913 0.11597 0.66317 0.0
C198 C 0.02538 0.22852 0.68512 0.0
C199 C 0.96477 0.13555 0.61522 0.0
H200 H 0.91311 0.2762 0.6128 0.0
H201 H 0.0306 0.25804 0.57434 0.0
H202 H 0.90751 0.19316 0.65004 0.0
H203 H 0.92943 0.22574 0.67423 0.0
H204 H 0.88936 0.24074 0.6507 0.0
H205 H 0.07831 0.21525 0.59226 0.0
H206 H 0.07328 0.204 0.62907 0.0
H207 H 0.05262 0.17303 0.60324 0.0
H208 H 0.02963 0.16638 0.71706 0.0
H209 H 0.97994 0.08768 0.65794 0.0
H210 H 0.99828 0.24721 0.68555 0.0
H211 H 0.04695 0.23994 0.66924 0.0
H212 H 0.04042 0.2294 0.70606 0.0
H213 H 0.93538 0.15081 0.61282 0.0
H214 H 0.95877 0.10516 0.61271 0.0
H215 H 0.98528 0.14491 0.59799 0.0
C216 C 0.76168 0.95175 0.11441 0.0
C217 C 0.75048 0.98301 0.09819 0.0
C218 C 0.79027 0.95478 0.13632 0.0
C219 C 0.80958 0.98953 0.14147 0.0
C220 C 0.79786 0.02139 0.1258 0.0
C221 C 0.76784 0.01792 0.10482 0.0
C222 C 0.80095 0.92038 0.15322 0.0
C223 C 0.81845 0.05879 0.13021 0.0
C224 C 0.87137 0.00576 0.20819 0.0
C225 C 0.9108 0.99607 0.19921 0.0
C226 C 0.83778 1.00295 0.18981 0.0
C227 C 0.84437 0.99181 0.1616 0.0
C228 C 0.88445 0.98271 0.15243 0.0
C229 C 0.91708 0.98421 0.17156 0.0
C230 C 0.79528 0.01133 0.20065 0.0
C231 C 0.89301 0.97194 0.1223 0.0
H232 H 0.7493 0.92443 0.10949 0.0
H233 H 0.75873 0.04259 0.09322 0.0
H234 H 0.83216 0.91073 0.14752 0.0
H235 H 0.80115 0.92692 0.17602 0.0
H236 H 0.77909 0.89707 0.14943 0.0
H237 H 0.80486 0.08114 0.11695 0.0
H238 H 0.81622 0.06734 0.15255 0.0
H239 H 0.85154 0.05647 0.12507 0.0
H240 H 0.86676 0.01475 0.22971 0.0
H241 H 0.94781 0.9771 0.16471 0.0
H242 H 0.77501 0.9868 0.19722 0.0
H243 H 0.78183 0.03508 0.18886 0.0
H244 H 0.79525 0.01832 0.22339 0.0
H245 H 0.87646 0.94578 0.11699 0.0
H246 H 0.92622 0.96764 0.11827 0.0
H247 H 0.88163 0.99406 0.10791 0.0
C248 C 0.00666 0.76915 0.58579 0.0
C249 C 0.96942 0.74931 0.58605 0.0
C250 C 0.01442 0.79789 0.60517 0.0
C251 C 0.9839 0.80772 0.62495 0.0
C252 C 0.94622 0.78803 0.62532 0.0
C253 C 0.93964 0.75883 0.60612 0.0
C254 C 0.05527 0.81782 0.60443 0.0
C255 C 0.91274 0.79791 0.64593 0.0
C256 C 0.01294 0.85829 0.69221 0.0
C257 C 0.00296 0.89544 0.68571 0.0
C258 C 0.0078 0.82965 0.67239 0.0
C259 C 0.99155 0.83822 0.64558 0.0
C260 C 0.98178 0.87575 0.63878 0.0
C261 C 0.98799 0.90401 0.65886 0.0
C262 C 0.01938 0.79013 0.68027 0.0
C263 C 0.9638 0.88589 0.61055 0.0
H264 H 0.02964 0.76272 0.5701 0.0
H265 H 0.91106 0.7434 0.60693 0.0
H266 H 0.05062 0.84794 0.5999 0.0
H267 H 0.07039 0.81584 0.62527 0.0
H268 H 0.07622 0.80607 0.5883 0.0
H269 H 0.88465 0.78079 0.64283 0.0
H270 H 0.92379 0.79374 0.66775 0.0
H271 H 0.90452 0.82787 0.64372 0.0
H272 H 0.0248 0.85153 0.71288 0.0
H273 H 0.98001 0.93265 0.65381 0.0
H274 H 0.0413 0.77865 0.66468 0.0
H275 H 0.99177 0.77199 0.67994 0.0
H276 H 0.03349 0.78843 0.70148 0.0
H277 H 0.98457 0.87672 0.59344 0.0
H278 H 0.95845 0.91642 0.60838 0.0
H279 H 0.9342 0.87107 0.60757 0.0
C280 C 0.2811 0.00562 0.87363 0.0
C281 C 0.26641 0.02276 0.89814 0.0
C282 C 0.25527 0.99997 0.85037 0.0
C283 C 0.21375 0.01131 0.85189 0.0
C284 C 0.19868 0.02798 0.87682 0.0
C285 C 0.22524 0.03367 0.89956 0.0
C286 C 0.27249 0.98248 0.82404 0.0
C287 C 0.15446 0.04003 0.87945 0.0
C288 C 0.14852 0.03517 0.7886 0.0
C289 C 0.12263 0.00389 0.787 0.0
C290 C 0.18027 0.03686 0.80844 0.0
C291 C 0.18589 0.00677 0.82739 0.0
C292 C 0.1615 0.97418 0.82474 0.0
C293 C 0.1303 0.97302 0.80442 0.0
C294 C 0.20614 0.07183 0.81024 0.0
C295 C 0.16638 0.94159 0.84465 0.0
H296 H 0.31302 0.99734 0.87247 0.0
H297 H 0.2137 0.0464 0.91865 0.0
H298 H 0.25435 0.9574 0.81822 0.0
H299 H 0.27014 1.00253 0.8063 0.0
H300 H 0.3051 0.97422 0.82653 0.0
H301 H 0.14731 0.0514 0.9006 0.0
H302 H 0.14753 0.06182 0.86354 0.0
H303 H 0.13382 0.01598 0.87528 0.0
H304 H 0.14306 0.05897 0.77499 0.0
H305 H 0.11042 0.94874 0.80333 0.0
H306 H 0.23913 0.06458 0.81169 0.0
H307 H 0.19803 0.08754 0.82955 0.0
H308 H 0.20154 0.09049 0.79183 0.0
H309 H 0.19912 0.93368 0.84663 0.0
H310 H 0.14863 0.91671 0.83772 0.0
H311 H 0.15552 0.9498 0.86586 0.0
C312 C 0.93925 0.25886 0.38535 0.0
C313 C 0.96573 0.26413 0.40831 0.0
C314 C 0.94512 0.2294 0.36629 0.0
C315 C 0.97911 0.20525 0.36961 0.0
C316 C 0.00654 0.21082 0.39225 0.0
C317 C -0.00084 0.23971 0.41155 0.0
C318 C 0.91475 0.22399 0.34266 0.0
C319 C 0.04375 0.18625 0.39611 0.0
C320 C 0.97674 0.10977 0.33436 0.0
C321 C 0.99716 0.11724 0.30907 0.0
C322 C 0.9705 0.1382 0.35428 0.0
C323 C 0.98626 0.17452 0.34911 0.0
C324 C 0.00816 0.18175 0.324 0.0
C325 C 0.01274 0.15317 0.30408 0.0
C326 C 0.94606 0.12967 0.38047 0.0
C327 C 0.02659 0.21972 0.31809 0.0
H328 H 0.91379 0.27779 0.38214 0.0
H329 H 0.01942 0.24268 0.42944 0.0
H330 H 0.9303 0.22767 0.32212 0.0
H331 H 0.9023 0.19509 0.34321 0.0
H332 H 0.88877 0.24397 0.34384 0.0
H333 H 0.06313 0.19533 0.41405 0.0
H334 H 0.03405 0.15691 0.39976 0.0
H335 H 0.06268 0.18655 0.37673 0.0
H336 H 0.96441 0.08204 0.33811 0.0
H337 H 0.02886 0.15888 0.28461 0.0
H338 H 0.91856 0.14789 0.38126 0.0
H339 H 0.96458 0.13582 0.39945 0.0
H340 H 0.93594 0.10002 0.38136 0.0
H341 H 0.00194 0.2409 0.31629 0.0
H342 H 0.04488 0.22008 0.29839 0.0
H343 H 0.04667 0.22833 0.33577 0.0
C344 C 0.7583 0.01153 0.88661 0.0
C345 C 0.75821 0.97699 0.90079 0.0
C346 C 0.78565 0.01865 0.86443 0.0
C347 C 0.81493 0.99127 0.85701 0.0
C348 C 0.81506 0.95639 0.87104 0.0
C349 C 0.78613 0.94936 0.8922 0.0
C350 C 0.78358 0.05569 0.84925 0.0
C351 C 0.84649 0.92675 0.86422 0.0
C352 C 0.87305 0.99116 0.78788 0.0
C353 C 0.90986 0.00842 0.79567 0.0
C354 C 0.84083 0.98734 0.80724 0.0
C355 C 0.84655 0.99942 0.83532 0.0
C356 C 0.88366 0.01725 0.84312 0.0
C357 C 0.91461 0.02222 0.82298 0.0
C358 C 0.80106 0.96971 0.79781 0.0
C359 C 0.89156 0.02932 0.87305 0.0
H360 H 0.73762 0.03353 0.8931 0.0
H361 H 0.7858 0.92213 0.90215 0.0
H362 H 0.81129 0.0725 0.85407 0.0
H363 H 0.78298 0.05118 0.82617 0.0
H364 H 0.75611 0.07214 0.85532 0.0
H365 H 0.84335 0.90162 0.87779 0.0
H366 H 0.84347 0.91798 0.84198 0.0
H367 H 0.87785 0.93832 0.86691 0.0
H368 H 0.86954 0.98064 0.76664 0.0
H369 H 0.94341 0.03516 0.82896 0.0
H370 H 0.77469 0.98712 0.80454 0.0
H371 H 0.79741 0.94187 0.80778 0.0
H372 H 0.79975 0.96612 0.77464 0.0
H373 H 0.86731 0.04878 0.8802 0.0
H374 H 0.9218 0.04328 0.87554 0.0
H375 H 0.89059 0.00455 0.88711 0.0
C376 C 0.95407 0.74958 0.3802 0.0
C377 C 0.97986 0.74394 0.40344 0.0
C378 C 0.96139 0.77864 0.36099 0.0
C379 C 0.99574 0.80234 0.36478 0.0
C380 C 0.02262 0.79618 0.38767 0.0
C381 C 0.01421 0.76726 0.40682 0.0
C382 C 0.93191 0.78436 0.33689 0.0
C383 C 0.05988 0.82055 0.3922 0.0
C384 C 0.03036 0.85674 0.30041 0.0
C385 C 0.01322 0.89208 0.30537 0.0
C386 C 0.02598 0.82762 0.31997 0.0
C387 C 0.00322 0.83376 0.34486 0.0
C388 C 0.98634 0.86954 0.35019 0.0
C389 C 0.99189 0.89841 0.33049 0.0
C390 C 0.04515 0.79012 0.31377 0.0
C391 C 0.9614 0.87702 0.37632 0.0
H392 H 0.92788 0.73138 0.37709 0.0
H393 H 0.03401 0.7636 0.4249 0.0
H394 H 0.91851 0.81282 0.338 0.0
H395 H 0.94844 0.78225 0.31658 0.0
H396 H 0.90654 0.76359 0.33697 0.0
H397 H 0.07889 0.81089 0.41016 0.0
H398 H 0.07916 0.82088 0.37298 0.0
H399 H 0.0502 0.84977 0.39626 0.0
H400 H 0.04718 0.85177 0.28112 0.0
H401 H 0.97843 0.92561 0.33436 0.0
H402 H 0.02084 0.76864 0.31136 0.0
H403 H 0.06487 0.7813 0.33159 0.0
H404 H 0.06397 0.79058 0.29431 0.0
H405 H 0.9339 0.85871 0.3765 0.0
H406 H 0.95124 0.90659 0.3777 0.0
H407 H 0.97958 0.87022 0.39534 0.0
loop_
_geom_bond_atom_site_label_1
_geom_bond_atom_site_label_2
_geom_bond_distance
_geom_bond_site_symmetry_2
_ccdc_geom_bond_type
H0 C27 0.929 . S
N1 C26 1.433 1_556 S
N1 C32 1.435 . S
N1 C38 1.423 . S
H2 C28 0.930 . S
H3 C31 0.931 . S
H4 C30 0.929 . S
H5 C33 0.930 . S
H6 C34 0.932 . S
H7 C37 0.929 . S
H8 C36 0.931 . S
H9 C39 0.929 . S
H10 C43 0.932 1_565 S
H11 C40 0.931 . S
H12 C42 0.929 1_565 S
H13 C45 0.929 . S
H14 C46 0.930 . S
H15 C48 0.929 . S
H16 C49 0.931 . S
H17 C51 0.930 . S
H18 C52 0.932 . S
H19 C54 0.931 . S
H20 C55 0.929 . S
H21 C57 0.929 . S
H22 C58 0.931 . S
H23 C60 0.929 1_565 S
N24 C44 1.433 1_556 S
N24 C50 1.435 . S
N24 C56 1.423 . S
H25 C61 0.932 1_565 S
C26 N1 1.433 1_554 S
C26 C27 1.363 . S
C26 C31 1.370 1_545 S
C27 H0 0.929 . S
C27 C26 1.363 . S
C27 C28 1.385 . S
C28 H2 0.930 . S
C28 C27 1.385 . S
C28 C29 1.357 . S
C29 C28 1.357 . S
C29 C30 1.406 1_545 S
C30 H4 0.929 . S
C30 C29 1.406 1_565 S
C30 C31 1.391 . S
C31 H3 0.931 . S
C31 C26 1.370 1_565 S
C31 C30 1.391 . S
C32 N1 1.435 . S
C32 C33 1.358 1_545 S
C32 C37 1.371 . S
C33 H5 0.930 . S
C33 C32 1.358 1_565 S
C33 C34 1.405 . S
C34 H6 0.932 . S
C34 C33 1.405 . S
C34 C35 1.383 1_565 S
C35 C34 1.383 1_545 S
C35 C36 1.393 . S
C36 H8 0.931 . S
C36 C35 1.393 . S
C36 C37 1.382 . S
C37 H7 0.929 . S
C37 C32 1.371 . S
C37 C36 1.382 . S
C38 N1 1.423 . S
C38 C39 1.362 1_556 S
C38 C43 1.388 . S
C39 H9 0.929 . S
C39 C38 1.362 1_554 S
C39 C40 1.376 . S
C40 H11 0.931 . S
C40 C39 1.376 . S
C40 C41 1.396 1_554 S
C41 C40 1.396 1_556 S
C41 C42 1.348 . S
C41 C59 1.472 . S
C42 H12 0.929 1_545 S
C42 C41 1.348 . S
C42 C43 1.443 . S
C43 H10 0.932 1_545 S
C43 C38 1.388 . S
C43 C42 1.443 . S
C44 N24 1.433 1_554 S
C44 C45 1.363 . S
C44 C49 1.370 1_545 S
C45 H13 0.929 . S
C45 C44 1.363 . S
C45 C46 1.385 . S
C46 H14 0.930 . S
C46 C45 1.385 . S
C46 C47 1.357 . S
C47 C46 1.357 . S
C47 C48 1.406 1_545 S
C48 H15 0.929 . S
C48 C47 1.406 1_565 S
C48 C49 1.391 . S
C49 H16 0.931 . S
C49 C44 1.370 1_565 S
C49 C48 1.391 . S
C50 N24 1.435 . S
C50 C51 1.358 1_545 S
C50 C55 1.371 . S
C51 H17 0.930 . S
C51 C50 1.358 1_565 S
C51 C52 1.405 . S
C52 H18 0.932 . S
C52 C51 1.405 . S
C52 C53 1.383 1_565 S
C53 C52 1.383 1_545 S
C53 C54 1.393 . S
C54 H19 0.931 . S
C54 C53 1.393 . S
C54 C55 1.382 . S
C55 H20 0.929 . S
C55 C50 1.371 . S
C55 C54 1.382 . S
C56 N24 1.423 . S
C56 C57 1.362 1_556 S
C56 C61 1.388 . S
C57 H21 0.929 . S
C57 C56 1.362 1_554 S
C57 C58 1.376 . S
C58 H22 0.931 . S
C58 C57 1.376 . S
C58 C59 1.396 1_554 S
C59 C41 1.472 . S
C59 C58 1.396 1_556 S
C59 C60 1.348 . S
C60 H23 0.929 1_545 S
C60 C59 1.348 . S
C60 C61 1.443 . S
C61 H25 0.932 1_545 S
C61 C56 1.388 . S
C61 C60 1.443 . S
H62 C89 0.929 . S
N63 C88 1.433 . S
N63 C94 1.435 . S
N63 C100 1.423 . S
H64 C90 0.930 . S
H65 C93 0.931 . S
H66 C92 0.929 . S
H67 C95 0.930 . S
H68 C96 0.932 . S
H69 C99 0.929 . S
H70 C98 0.931 . S
H71 C101 0.929 . S
H72 C105 0.932 1_455 S
H73 C102 0.931 . S
H74 C104 0.929 1_455 S
H75 C107 0.929 . S
H76 C108 0.930 . S
H77 C110 0.929 . S
H78 C111 0.931 . S
H79 C113 0.930 . S
H80 C114 0.932 . S
H81 C116 0.931 . S
H82 C117 0.929 . S
H83 C119 0.929 . S
H84 C120 0.931 . S
H85 C122 0.929 1_455 S
N86 C106 1.433 . S
N86 C112 1.435 . S
N86 C118 1.423 . S
H87 C123 0.932 1_455 S
C88 N63 1.433 . S
C88 C89 1.363 . S
C88 C93 1.370 1_655 S
C89 H62 0.929 . S
C89 C88 1.363 . S
C89 C90 1.385 . S
C90 H64 0.930 . S
C90 C89 1.385 . S
C90 C91 1.357 . S
C91 C90 1.357 . S
C91 C92 1.406 1_655 S
C92 H66 0.929 . S
C92 C91 1.406 1_455 S
C92 C93 1.391 . S
C93 H65 0.931 . S
C93 C88 1.370 1_455 S
C93 C92 1.391 . S
C94 N63 1.435 . S
C94 C95 1.358 1_655 S
C94 C99 1.371 . S
C95 H67 0.930 . S
C95 C94 1.358 1_455 S
C95 C96 1.405 . S
C96 H68 0.932 . S
C96 C95 1.405 . S
C96 C97 1.383 1_455 S
C97 C96 1.383 1_655 S
C97 C98 1.393 . S
C98 H70 0.931 . S
C98 C97 1.393 . S
C98 C99 1.382 . S
C99 H69 0.929 . S
C99 C94 1.371 . S
C99 C98 1.382 . S
C100 N63 1.423 . S
C100 C101 1.362 . S
C100 C105 1.388 . S
C101 H71 0.929 . S
C101 C100 1.362 . S
C101 C102 1.376 . S
C102 H73 0.931 . S
C102 C101 1.376 . S
C102 C103 1.396 . S
C103 C102 1.396 . S
C103 C104 1.348 . S
C103 C121 1.472 . S
C104 H74 0.929 1_655 S
C104 C103 1.348 . S
C104 C105 1.443 . S
C105 H72 0.932 1_655 S
C105 C100 1.388 . S
C105 C104 1.443 . S
C106 N86 1.433 . S
C106 C107 1.363 . S
C106 C111 1.370 1_655 S
C107 H75 0.929 . S
C107 C106 1.363 . S
C107 C108 1.385 . S
C108 H76 0.930 . S
C108 C107 1.385 . S
C108 C109 1.357 . S
C109 C108 1.357 . S
C109 C110 1.406 1_655 S
C110 H77 0.929 . S
C110 C109 1.406 1_455 S
C110 C111 1.391 . S
C111 H78 0.931 . S
C111 C106 1.370 1_455 S
C111 C110 1.391 . S
C112 N86 1.435 . S
C112 C113 1.358 1_655 S
C112 C117 1.371 . S
C113 H79 0.930 . S
C113 C112 1.358 1_455 S
C113 C114 1.405 . S
C114 H80 0.932 . S
C114 C113 1.405 . S
C114 C115 1.383 1_455 S
C115 C114 1.383 1_655 S
C115 C116 1.393 . S
C116 H81 0.931 . S
C116 C115 1.393 . S
C116 C117 1.382 . S
C117 H82 0.929 . S
C117 C112 1.371 . S
C117 C116 1.382 . S
C118 N86 1.423 . S
C118 C119 1.362 . S
C118 C123 1.388 . S
C119 H83 0.929 . S
C119 C118 1.362 . S
C119 C120 1.376 . S
C120 H84 0.931 . S
C120 C119 1.376 . S
C120 C121 1.396 . S
C121 C103 1.472 . S
C121 C120 1.396 . S
C121 C122 1.348 . S
C122 H85 0.929 1_655 S
C122 C121 1.348 . S
C122 C123 1.443 . S
C123 H87 0.932 1_655 S
C123 C118 1.388 . S
C123 C122 1.443 . S
O124 Cd125 2.223 1_655 S
O124 C132 1.315 . S
Cd125 O124 2.223 1_455 S
Cd125 O128 2.297 1_455 S
Cd125 O129 2.439 1_455 S
Cd125 O135 2.240 1_565 S
Cd126 O127 2.240 1_545 S
Cd126 O134 2.223 1_655 S
Cd126 O136 2.297 1_655 S
Cd126 O137 2.439 1_655 S
O127 Cd126 2.240 1_565 S
O127 C132 1.279 . S
O128 Cd125 2.297 1_655 S
O128 C130 1.247 . S
O129 Cd125 2.439 1_655 S
O129 C130 1.208 . S
C130 O128 1.247 . S
C130 O129 1.208 . S
C131 O136 1.247 . S
C131 O137 1.208 . S
C132 O124 1.315 . S
C132 O127 1.279 . S
C133 O134 1.315 . S
C133 O135 1.279 . S
O134 Cd126 2.223 1_455 S
O134 C133 1.315 . S
O135 Cd125 2.240 1_545 S
O135 C133 1.279 . S
O136 Cd126 2.297 1_455 S
O136 C131 1.247 . S
O137 Cd126 2.439 1_455 S
O137 C131 1.208 . S
O138 Cd139 2.223 1_655 S
O138 C146 1.315 . S
Cd139 O138 2.223 1_455 S
Cd139 O142 2.297 1_455 S
Cd139 O143 2.439 1_455 S
Cd139 O149 2.240 1_545 S
Cd140 O141 2.240 1_565 S
Cd140 O148 2.223 1_655 S
Cd140 O150 2.297 1_655 S
Cd140 O151 2.439 1_655 S
O141 Cd140 2.240 1_545 S
O141 C146 1.279 . S
O142 Cd139 2.297 1_655 S
O142 C144 1.247 . S
O143 Cd139 2.439 1_655 S
O143 C144 1.208 . S
C144 O142 1.247 . S
C144 O143 1.208 . S
C145 O150 1.247 . S
C145 O151 1.208 . S
C146 O138 1.315 . S
C146 O141 1.279 . S
C147 O148 1.315 . S
C147 O149 1.279 . S
O148 Cd140 2.223 1_455 S
O148 C147 1.315 . S
O149 Cd139 2.240 1_565 S
O149 C147 1.279 . S
O150 Cd140 2.297 1_455 S
O150 C145 1.247 . S
O151 Cd140 2.439 1_455 S
O151 C145 1.208 . S
C152 C153 1.391 . S
C152 C154 1.394 . S
C152 H168 0.931 . S
C153 C152 1.391 . S
C153 C157 1.376 1_545 S
C154 C152 1.394 . S
C154 C155 1.369 . S
C154 C158 1.531 . S
C155 C154 1.369 . S
C155 C156 1.410 1_545 S
C155 C163 1.503 . S
C156 C155 1.410 1_565 S
C156 C157 1.392 . S
C156 C159 1.511 . S
C157 C153 1.376 1_565 S
C157 C156 1.392 . S
C157 H169 0.929 . S
C158 C154 1.531 . S
C158 H170 0.960 . S
C158 H171 0.962 . S
C158 H172 0.960 . S
C159 C156 1.511 . S
C159 H173 0.961 . S
C159 H174 0.961 . S
C159 H175 0.961 . S
C160 C161 1.370 1_565 S
C160 C162 1.363 . S
C160 H176 0.931 . S
C161 C160 1.370 1_545 S
C161 C165 1.408 . S
C162 C160 1.363 . S
C162 C163 1.370 1_565 S
C162 C166 1.524 . S
C163 C155 1.503 . S
C163 C162 1.370 1_545 S
C163 C164 1.403 . S
C164 C163 1.403 . S
C164 C165 1.404 . S
C164 C167 1.539 . S
C165 C161 1.408 . S
C165 C164 1.404 . S
C165 H177 0.930 . S
C166 C162 1.524 . S
C166 H178 0.956 . S
C166 H179 0.961 . S
C166 H180 0.961 . S
C167 C164 1.539 . S
C167 H181 0.958 . S
C167 H182 0.961 . S
C167 H183 0.960 . S
H168 C152 0.931 . S
H169 C157 0.929 . S
H170 C158 0.960 . S
H171 C158 0.962 . S
H172 C158 0.960 . S
H173 C159 0.961 . S
H174 C159 0.961 . S
H175 C159 0.961 . S
H176 C160 0.931 . S
H177 C165 0.930 . S
H178 C166 0.956 . S
H179 C166 0.961 . S
H180 C166 0.961 . S
H181 C167 0.958 . S
H182 C167 0.961 . S
H183 C167 0.960 . S
C184 C185 1.391 . S
C184 C186 1.394 . S
C184 H200 0.931 . S
C185 C184 1.391 . S
C185 C189 1.376 1_655 S
C186 C184 1.394 . S
C186 C187 1.369 . S
C186 C190 1.531 . S
C187 C186 1.369 . S
C187 C188 1.410 1_655 S
C187 C195 1.503 . S
C188 C187 1.410 1_455 S
C188 C189 1.392 . S
C188 C191 1.511 . S
C189 C185 1.376 1_455 S
C189 C188 1.392 . S
C189 H201 0.929 . S
C190 C186 1.531 . S
C190 H202 0.960 . S
C190 H203 0.962 . S
C190 H204 0.960 . S
C191 C188 1.511 . S
C191 H205 0.961 . S
C191 H206 0.961 . S
C191 H207 0.961 . S
C192 C193 1.370 . S
C192 C194 1.363 . S
C192 H208 0.931 1_655 S
C193 C192 1.370 . S
C193 C197 1.408 . S
C194 C192 1.363 . S
C194 C195 1.372 . S
C194 C198 1.522 1_655 S
C195 C187 1.503 . S
C195 C194 1.372 . S
C195 C196 1.403 . S
C196 C195 1.403 . S
C196 C197 1.404 . S
C196 C199 1.539 . S
C197 C193 1.408 . S
C197 C196 1.404 . S
C197 H209 0.930 . S
C198 C194 1.522 1_455 S
C198 H210 0.956 . S
C198 H211 0.961 . S
C198 H212 0.961 . S
C199 C196 1.539 . S
C199 H213 0.958 . S
C199 H214 0.961 . S
C199 H215 0.960 . S
H200 C184 0.931 . S
H201 C189 0.929 . S
H202 C190 0.960 . S
H203 C190 0.962 . S
H204 C190 0.960 . S
H205 C191 0.961 . S
H206 C191 0.961 . S
H207 C191 0.961 . S
H208 C192 0.931 1_455 S
H209 C197 0.930 . S
H210 C198 0.956 . S
H211 C198 0.961 . S
H212 C198 0.961 . S
H213 C199 0.958 . S
H214 C199 0.961 . S
H215 C199 0.960 . S
C216 C217 1.391 . S
C216 C218 1.394 . S
C216 H232 0.931 . S
C217 C216 1.391 . S
C217 C221 1.376 1_565 S
C218 C216 1.394 . S
C218 C219 1.369 . S
C218 C222 1.531 . S
C219 C218 1.369 . S
C219 C220 1.410 1_565 S
C219 C227 1.503 . S
C220 C219 1.410 1_545 S
C220 C221 1.392 . S
C220 C223 1.511 . S
C221 C217 1.376 1_545 S
C221 C220 1.392 . S
C221 H233 0.929 . S
C222 C218 1.531 . S
C222 H234 0.960 . S
C222 H235 0.962 . S
C222 H236 0.960 . S
C223 C220 1.511 . S
C223 H237 0.961 . S
C223 H238 0.961 . S
C223 H239 0.961 . S
C224 C225 1.370 . S
C224 C226 1.363 . S
C224 H240 0.931 . S
C225 C224 1.370 . S
C225 C229 1.408 . S
C226 C224 1.363 . S
C226 C227 1.370 . S
C226 C230 1.524 . S
C227 C219 1.503 . S
C227 C226 1.370 . S
C227 C228 1.403 . S
C228 C227 1.403 . S
C228 C229 1.404 . S
C228 C231 1.539 . S
C229 C225 1.408 . S
C229 C228 1.404 . S
C229 H241 0.930 . S
C230 C226 1.524 . S
C230 H242 0.956 . S
C230 H243 0.961 1_565 S
C230 H244 0.961 . S
C231 C228 1.539 . S
C231 H245 0.958 . S
C231 H246 0.961 1_565 S
C231 H247 0.960 1_565 S
H232 C216 0.931 . S
H233 C221 0.929 . S
H234 C222 0.960 . S
H235 C222 0.962 . S
H236 C222 0.960 . S
H237 C223 0.961 . S
H238 C223 0.961 . S
H239 C223 0.961 . S
H240 C224 0.931 . S
H241 C229 0.930 . S
H242 C230 0.956 . S
H243 C230 0.961 1_545 S
H244 C230 0.961 . S
H245 C231 0.958 . S
H246 C231 0.961 1_545 S
H247 C231 0.960 1_545 S
C248 C249 1.391 . S
C248 C250 1.394 . S
C248 H264 0.931 . S
C249 C248 1.391 . S
C249 C253 1.376 1_455 S
C250 C248 1.394 . S
C250 C251 1.369 . S
C250 C254 1.531 . S
C251 C250 1.369 . S
C251 C252 1.410 1_455 S
C251 C259 1.503 . S
C252 C251 1.410 1_655 S
C252 C253 1.392 . S
C252 C255 1.511 . S
C253 C249 1.376 1_655 S
C253 C252 1.392 . S
C253 H265 0.929 . S
C254 C250 1.531 . S
C254 H266 0.960 . S
C254 H267 0.962 . S
C254 H268 0.960 . S
C255 C252 1.511 . S
C255 H269 0.961 . S
C255 H270 0.961 . S
C255 H271 0.961 . S
C256 C257 1.370 . S
C256 C258 1.363 . S
C256 H272 0.931 . S
C257 C256 1.370 . S
C257 C261 1.408 1_455 S
C258 C256 1.363 . S
C258 C259 1.370 . S
C258 C262 1.524 . S
C259 C251 1.503 . S
C259 C258 1.370 . S
C259 C260 1.403 1_455 S
C260 C259 1.403 1_655 S
C260 C261 1.404 . S
C260 C263 1.539 . S
C261 C257 1.408 1_655 S
C261 C260 1.404 . S
C261 H273 0.930 . S
C262 C258 1.524 . S
C262 H274 0.956 . S
C262 H275 0.961 . S
C262 H276 0.961 . S
C263 C260 1.539 . S
C263 H277 0.958 . S
C263 H278 0.961 . S
C263 H279 0.960 . S
H264 C248 0.931 . S
H265 C253 0.929 . S
H266 C254 0.960 . S
H267 C254 0.962 . S
H268 C254 0.960 . S
H269 C255 0.961 . S
H270 C255 0.961 . S
H271 C255 0.961 . S
H272 C256 0.931 . S
H273 C261 0.930 . S
H274 C262 0.956 . S
H275 C262 0.961 . S
H276 C262 0.961 . S
H277 C263 0.958 . S
H278 C263 0.961 . S
H279 C263 0.960 . S
C280 C281 1.391 . S
C280 C282 1.394 . S
C280 H296 0.931 . S
C281 C280 1.391 . S
C281 C285 1.376 1_565 S
C282 C280 1.394 . S
C282 C283 1.369 . S
C282 C286 1.531 . S
C283 C282 1.369 . S
C283 C284 1.410 1_565 S
C283 C291 1.503 . S
C284 C283 1.410 1_545 S
C284 C285 1.392 . S
C284 C287 1.511 . S
C285 C281 1.376 1_545 S
C285 C284 1.392 . S
C285 H297 0.929 . S
C286 C282 1.531 . S
C286 H298 0.960 . S
C286 H299 0.962 . S
C286 H300 0.960 . S
C287 C284 1.511 . S
C287 H301 0.961 . S
C287 H302 0.961 . S
C287 H303 0.961 . S
C288 C289 1.370 1_545 S
C288 C290 1.363 . S
C288 H304 0.931 . S
C289 C288 1.370 1_565 S
C289 C293 1.408 . S
C290 C288 1.363 . S
C290 C291 1.370 1_545 S
C290 C294 1.524 . S
C291 C283 1.503 . S
C291 C290 1.370 1_565 S
C291 C292 1.403 . S
C292 C291 1.403 . S
C292 C293 1.404 . S
C292 C295 1.539 . S
C293 C289 1.408 . S
C293 C292 1.404 . S
C293 H305 0.930 . S
C294 C290 1.524 . S
C294 H306 0.956 . S
C294 H307 0.961 . S
C294 H308 0.961 . S
C295 C292 1.539 . S
C295 H309 0.958 . S
C295 H310 0.961 . S
C295 H311 0.960 . S
H296 C280 0.931 . S
H297 C285 0.929 . S
H298 C286 0.960 . S
H299 C286 0.962 . S
H300 C286 0.960 . S
H301 C287 0.961 . S
H302 C287 0.961 . S
H303 C287 0.961 . S
H304 C288 0.931 . S
H305 C293 0.930 . S
H306 C294 0.956 . S
H307 C294 0.961 . S
H308 C294 0.961 . S
H309 C295 0.958 . S
H310 C295 0.961 . S
H311 C295 0.960 . S
C312 C313 1.391 1_655 S
C312 C314 1.394 . S
C312 H328 0.931 . S
C313 C312 1.391 1_455 S
C313 C317 1.376 . S
C314 C312 1.394 . S
C314 C315 1.369 1_655 S
C314 C318 1.531 . S
C315 C314 1.369 1_455 S
C315 C316 1.410 . S
C315 C323 1.503 . S
C316 C315 1.410 . S
C316 C317 1.392 . S
C316 C319 1.511 . S
C317 C313 1.376 . S
C317 C316 1.392 . S
C317 H329 0.929 . S
C318 C314 1.531 . S
C318 H330 0.960 . S
C318 H331 0.962 . S
C318 H332 0.960 . S
C319 C316 1.511 . S
C319 H333 0.961 . S
C319 H334 0.961 . S
C319 H335 0.961 . S
C320 C321 1.370 1_655 S
C320 C322 1.363 . S
C320 H336 0.931 . S
C321 C320 1.370 1_455 S
C321 C325 1.408 . S
C322 C320 1.363 . S
C322 C323 1.370 1_655 S
C322 C326 1.524 . S
C323 C315 1.503 . S
C323 C322 1.370 1_455 S
C323 C324 1.403 . S
C324 C323 1.403 . S
C324 C325 1.404 . S
C324 C327 1.539 . S
C325 C321 1.408 . S
C325 C324 1.404 . S
C325 H337 0.930 . S
C326 C322 1.524 . S
C326 H338 0.956 . S
C326 H339 0.961 . S
C326 H340 0.961 . S
C327 C324 1.539 . S
C327 H341 0.958 . S
C327 H342 0.961 . S
C327 H343 0.960 . S
H328 C312 0.931 . S
H329 C317 0.929 . S
H330 C318 0.960 . S
H331 C318 0.962 . S
H332 C318 0.960 . S
H333 C319 0.961 . S
H334 C319 0.961 . S
H335 C319 0.961 . S
H336 C320 0.931 . S
H337 C325 0.930 . S
H338 C326 0.956 . S
H339 C326 0.961 . S
H340 C326 0.961 . S
H341 C327 0.958 . S
H342 C327 0.961 . S
H343 C327 0.960 . S
C344 C345 1.391 . S
C344 C346 1.394 . S
C344 H360 0.931 . S
C345 C344 1.391 . S
C345 C349 1.376 1_545 S
C346 C344 1.394 . S
C346 C347 1.369 . S
C346 C350 1.531 . S
C347 C346 1.369 . S
C347 C348 1.410 1_545 S
C347 C355 1.503 . S
C348 C347 1.410 1_565 S
C348 C349 1.392 . S
C348 C351 1.511 . S
C349 C345 1.376 1_565 S
C349 C348 1.392 . S
C349 H361 0.929 . S
C350 C346 1.531 . S
C350 H362 0.960 . S
C350 H363 0.962 . S
C350 H364 0.960 . S
C351 C348 1.511 . S
C351 H365 0.961 . S
C351 H366 0.961 . S
C351 H367 0.961 . S
C352 C353 1.370 . S
C352 C354 1.363 . S
C352 H368 0.931 1_545 S
C353 C352 1.370 . S
C353 C357 1.408 . S
C354 C352 1.363 . S
C354 C355 1.370 . S
C354 C358 1.524 1_545 S
C355 C347 1.503 . S
C355 C354 1.370 . S
C355 C356 1.403 . S
C356 C355 1.403 . S
C356 C357 1.404 . S
C356 C359 1.539 . S
C357 C353 1.408 . S
C357 C356 1.404 . S
C357 H369 0.930 . S
C358 C354 1.524 1_565 S
C358 H370 0.956 1_565 S
C358 H371 0.961 . S
C358 H372 0.961 . S
C359 C356 1.539 . S
C359 H373 0.958 . S
C359 H374 0.961 . S
C359 H375 0.960 . S
H360 C344 0.931 . S
H361 C349 0.929 . S
H362 C350 0.960 . S
H363 C350 0.962 . S
H364 C350 0.960 . S
H365 C351 0.961 . S
H366 C351 0.961 . S
H367 C351 0.961 . S
H368 C352 0.931 1_565 S
H369 C357 0.930 . S
H370 C358 0.956 1_545 S
H371 C358 0.961 . S
H372 C358 0.961 . S
H373 C359 0.958 . S
H374 C359 0.961 . S
H375 C359 0.960 . S
C376 C377 1.391 . S
C376 C378 1.394 . S
C376 H392 0.935 . S
C377 C376 1.391 . S
C377 C381 1.376 . S
C378 C376 1.394 . S
C378 C379 1.369 . S
C378 C382 1.531 . S
C379 C378 1.369 . S
C379 C380 1.410 . S
C379 C387 1.503 . S
C380 C379 1.410 . S
C380 C381 1.392 . S
C380 C383 1.511 . S
C381 C377 1.376 . S
C381 C380 1.392 . S
C381 H393 0.929 . S
C382 C378 1.531 . S
C382 H394 0.960 . S
C382 H395 0.962 1_655 S
C382 H396 0.960 . S
C383 C380 1.511 . S
C383 H397 0.961 . S
C383 H398 0.961 . S
C383 H399 0.961 . S
C384 C385 1.370 1_455 S
C384 C386 1.363 . S
C384 H400 0.931 . S
C385 C384 1.370 1_655 S
C385 C389 1.408 . S
C386 C384 1.363 . S
C386 C387 1.370 1_455 S
C386 C390 1.524 . S
C387 C379 1.503 . S
C387 C386 1.370 1_655 S
C387 C388 1.403 . S
C388 C387 1.403 . S
C388 C389 1.404 . S
C388 C391 1.539 . S
C389 C385 1.408 . S
C389 C388 1.404 . S
C389 H401 0.930 . S
C390 C386 1.524 . S
C390 H402 0.956 . S
C390 H403 0.961 . S
C390 H404 0.961 . S
C391 C388 1.539 . S
C391 H405 0.958 . S
C391 H406 0.961 . S
C391 H407 0.960 . S
H392 C376 0.935 . S
H393 C381 0.929 . S
H394 C382 0.960 . S
H395 C382 0.962 1_455 S
H396 C382 0.960 . S
H397 C383 0.961 . S
H398 C383 0.961 . S
H399 C383 0.961 . S
H400 C384 0.931 . S
H401 C389 0.930 . S
H402 C390 0.956 . S
H403 C390 0.961 . S
H404 C390 0.961 . S
H405 C391 0.958 . S
H406 C391 0.961 . S
H407 C391 0.960 . S
C161 C133 1.842 . S
C153 C47 1.699 . S
C193 C144 1.777 . S
C185 C109 1.680 . S
C225 C132 1.843 . S
C217 C29 1.717 1_565 S
C257 C145 1.763 . S
C249 C91 1.708 1_455 S
C289 C147 1.580 . S
C281 C53 1.562 1_565 S
C321 C131 1.438 . S
C313 C115 1.482 1_455 S
C353 C146 1.581 . S
C345 C35 1.555 . S
C377 C97 1.458 . S
C385 C130 1.445 . S
