# Generated by pormake.
# Topology ctn, (3,4)-cn, num edge types: 1
# Building blocks:
#     Node 0, Type 0, BuildingBlock: MIDCAF_clean_linker_0, # of connection points: 3
#     Node 1, Type 0, BuildingBlock: MIDCAF_clean_linker_0, # of connection points: 3
#     Node 2, Type 0, BuildingBlock: MIDCAF_clean_linker_0, # of connection points: 3
#     Node 3, Type 0, BuildingBlock: MIDCAF_clean_linker_0, # of connection points: 3
#     Node 4, Type 0, BuildingBlock: MIDCAF_clean_linker_0, # of connection points: 3
#     Node 5, Type 0, BuildingBlock: MIDCAF_clean_linker_0, # of connection points: 3
#     Node 6, Type 0, BuildingBlock: MIDCAF_clean_linker_0, # of connection points: 3
#     Node 7, Type 0, BuildingBlock: MIDCAF_clean_linker_0, # of connection points: 3
#     Node 8, Type 0, BuildingBlock: MIDCAF_clean_linker_0, # of connection points: 3
#     Node 9, Type 0, BuildingBlock: MIDCAF_clean_linker_0, # of connection points: 3
#     Node 10, Type 0, BuildingBlock: MIDCAF_clean_linker_0, # of connection points: 3
#     Node 11, Type 0, BuildingBlock: MIDCAF_clean_linker_0, # of connection points: 3
#     Node 12, Type 0, BuildingBlock: MIDCAF_clean_linker_0, # of connection points: 3
#     Node 13, Type 0, BuildingBlock: MIDCAF_clean_linker_0, # of connection points: 3
#     Node 14, Type 0, BuildingBlock: MIDCAF_clean_linker_0, # of connection points: 3
#     Node 15, Type 0, BuildingBlock: MIDCAF_clean_linker_0, # of connection points: 3
#     Node 16, Type 1, BuildingBlock: QUQFOY_clean_sbu_1, # of connection points: 4
#     Node 17, Type 1, BuildingBlock: QUQFOY_clean_sbu_1, # of connection points: 4
#     Node 18, Type 1, BuildingBlock: QUQFOY_clean_sbu_1, # of connection points: 4
#     Node 19, Type 1, BuildingBlock: QUQFOY_clean_sbu_1, # of connection points: 4
#     Node 20, Type 1, BuildingBlock: QUQFOY_clean_sbu_1, # of connection points: 4
#     Node 21, Type 1, BuildingBlock: QUQFOY_clean_sbu_1, # of connection points: 4
#     Node 22, Type 1, BuildingBlock: QUQFOY_clean_sbu_1, # of connection points: 4
#     Node 23, Type 1, BuildingBlock: QUQFOY_clean_sbu_1, # of connection points: 4
#     Node 24, Type 1, BuildingBlock: QUQFOY_clean_sbu_1, # of connection points: 4
#     Node 25, Type 1, BuildingBlock: QUQFOY_clean_sbu_1, # of connection points: 4
#     Node 26, Type 1, BuildingBlock: QUQFOY_clean_sbu_1, # of connection points: 4
#     Node 27, Type 1, BuildingBlock: QUQFOY_clean_sbu_1, # of connection points: 4
#     Edge 28, Type (0, 1), BuildingBlock: XIVTED_clean_linker_0, # of connection points: 2
#     Edge 29, Type (0, 1), BuildingBlock: XIVTED_clean_linker_0, # of connection points: 2
#     Edge 30, Type (0, 1), BuildingBlock: XIVTED_clean_linker_0, # of connection points: 2
#     Edge 31, Type (0, 1), BuildingBlock: XIVTED_clean_linker_0, # of connection points: 2
#     Edge 32, Type (0, 1), BuildingBlock: XIVTED_clean_linker_0, # of connection points: 2
#     Edge 33, Type (0, 1), BuildingBlock: XIVTED_clean_linker_0, # of connection points: 2
#     Edge 34, Type (0, 1), BuildingBlock: XIVTED_clean_linker_0, # of connection points: 2
#     Edge 35, Type (0, 1), BuildingBlock: XIVTED_clean_linker_0, # of connection points: 2
#     Edge 36, Type (0, 1), BuildingBlock: XIVTED_clean_linker_0, # of connection points: 2
#     Edge 37, Type (0, 1), BuildingBlock: XIVTED_clean_linker_0, # of connection points: 2
#     Edge 38, Type (0, 1), BuildingBlock: XIVTED_clean_linker_0, # of connection points: 2
#     Edge 39, Type (0, 1), BuildingBlock: XIVTED_clean_linker_0, # of connection points: 2
#     Edge 40, Type (0, 1), BuildingBlock: XIVTED_clean_linker_0, # of connection points: 2
#     Edge 41, Type (0, 1), BuildingBlock: XIVTED_clean_linker_0, # of connection points: 2
#     Edge 42, Type (0, 1), BuildingBlock: XIVTED_clean_linker_0, # of connection points: 2
#     Edge 43, Type (0, 1), BuildingBlock: XIVTED_clean_linker_0, # of connection points: 2
#     Edge 44, Type (0, 1), BuildingBlock: XIVTED_clean_linker_0, # of connection points: 2
#     Edge 45, Type (0, 1), BuildingBlock: XIVTED_clean_linker_0, # of connection points: 2
#     Edge 46, Type (0, 1), BuildingBlock: XIVTED_clean_linker_0, # of connection points: 2
#     Edge 47, Type (0, 1), BuildingBlock: XIVTED_clean_linker_0, # of connection points: 2
#     Edge 48, Type (0, 1), BuildingBlock: XIVTED_clean_linker_0, # of connection points: 2
#     Edge 49, Type (0, 1), BuildingBlock: XIVTED_clean_linker_0, # of connection points: 2
#     Edge 50, Type (0, 1), BuildingBlock: XIVTED_clean_linker_0, # of connection points: 2
#     Edge 51, Type (0, 1), BuildingBlock: XIVTED_clean_linker_0, # of connection points: 2
#     Edge 52, Type (0, 1), BuildingBlock: XIVTED_clean_linker_0, # of connection points: 2
#     Edge 53, Type (0, 1), BuildingBlock: XIVTED_clean_linker_0, # of connection points: 2
#     Edge 54, Type (0, 1), BuildingBlock: XIVTED_clean_linker_0, # of connection points: 2
#     Edge 55, Type (0, 1), BuildingBlock: XIVTED_clean_linker_0, # of connection points: 2
#     Edge 56, Type (0, 1), BuildingBlock: XIVTED_clean_linker_0, # of connection points: 2
#     Edge 57, Type (0, 1), BuildingBlock: XIVTED_clean_linker_0, # of connection points: 2
#     Edge 58, Type (0, 1), BuildingBlock: XIVTED_clean_linker_0, # of connection points: 2
#     Edge 59, Type (0, 1), BuildingBlock: XIVTED_clean_linker_0, # of connection points: 2
#     Edge 60, Type (0, 1), BuildingBlock: XIVTED_clean_linker_0, # of connection points: 2
#     Edge 61, Type (0, 1), BuildingBlock: XIVTED_clean_linker_0, # of connection points: 2
#     Edge 62, Type (0, 1), BuildingBlock: XIVTED_clean_linker_0, # of connection points: 2
#     Edge 63, Type (0, 1), BuildingBlock: XIVTED_clean_linker_0, # of connection points: 2
#     Edge 64, Type (0, 1), BuildingBlock: XIVTED_clean_linker_0, # of connection points: 2
#     Edge 65, Type (0, 1), BuildingBlock: XIVTED_clean_linker_0, # of connection points: 2
#     Edge 66, Type (0, 1), BuildingBlock: XIVTED_clean_linker_0, # of connection points: 2
#     Edge 67, Type (0, 1), BuildingBlock: XIVTED_clean_linker_0, # of connection points: 2
#     Edge 68, Type (0, 1), BuildingBlock: XIVTED_clean_linker_0, # of connection points: 2
#     Edge 69, Type (0, 1), BuildingBlock: XIVTED_clean_linker_0, # of connection points: 2
#     Edge 70, Type (0, 1), BuildingBlock: XIVTED_clean_linker_0, # of connection points: 2
#     Edge 71, Type (0, 1), BuildingBlock: XIVTED_clean_linker_0, # of connection points: 2
#     Edge 72, Type (0, 1), BuildingBlock: XIVTED_clean_linker_0, # of connection points: 2
#     Edge 73, Type (0, 1), BuildingBlock: XIVTED_clean_linker_0, # of connection points: 2
#     Edge 74, Type (0, 1), BuildingBlock: XIVTED_clean_linker_0, # of connection points: 2
#     Edge 75, Type (0, 1), BuildingBlock: XIVTED_clean_linker_0, # of connection points: 2
# Relax obj value: 0.036
# Max RMSD: 0.143
# Mean RMSD: 0.064
data_MOF--net-ctn--node1-QUQFOY_clean_sbu_1--node2-MIDCAF_clean_linker_0--edge1-XIVTED_clean_linker_0
_symmetry_space_group_name_H-M    P1
_symmetry_Int_Tables_number       1
_symmetry_cell_setting            triclinic
loop_
_symmetry_equiv_pos_as_xyz
'x, y, z'
_cell_length_a     67.220078
_cell_length_b     67.14698
_cell_length_c     67.326719
_cell_angle_alpha  92.849951
_cell_angle_beta   90.096279
_cell_angle_gamma 94.528001
loop_
_atom_site_label
_atom_site_type_symbol
_atom_site_fract_x
_atom_site_fract_y
_atom_site_fract_z
_atom_type_partial_charge
C0 C 0.02204 0.12288 0.1363 0.0
C1 C 0.02286 0.108 0.15013 0.0
C2 C 0.04072 0.09883 0.15245 0.0
C3 C 0.05688 0.10316 0.14002 0.0
H4 H 0.09965 0.0711 0.11581 0.0
H5 H 0.11516 0.04005 0.10787 0.0
H6 H 0.13591 0.06304 0.05219 0.0
H7 H 0.12037 0.09395 0.05988 0.0
H8 H 0.09243 0.1224 0.03955 0.0
H9 H 0.08379 0.14054 0.01067 0.0
H10 H 0.05533 0.18316 0.04887 0.0
H11 H 0.06365 0.16488 0.07792 0.0
H12 H 0.0367 0.13787 0.11242 0.0
H13 H 0.00844 0.1302 0.13424 0.0
H14 H 0.04187 0.08758 0.16331 0.0
H15 H 0.07004 0.09505 0.14161 0.0
N16 N 0.08396 0.10348 0.10733 0.0
N17 N 0.09471 0.11527 0.07673 0.0
N18 N 0.06953 0.13072 0.09427 0.0
C19 C 0.09611 0.1022 0.09133 0.0
C20 C 0.08162 0.12967 0.07815 0.0
C21 C 0.0707 0.11773 0.109 0.0
C22 C 0.10842 0.08494 0.08832 0.0
C23 C 0.10779 0.06971 0.10201 0.0
C24 C 0.11673 0.05192 0.09752 0.0
C25 C 0.12639 0.04901 0.07926 0.0
C26 C 0.12816 0.06473 0.0662 0.0
C27 C 0.11932 0.0825 0.07068 0.0
C28 C 0.07861 0.14214 0.06106 0.0
C29 C 0.08459 0.1358 0.0419 0.0
C30 C 0.07957 0.14609 0.02533 0.0
C31 C 0.06883 0.16313 0.0276 0.0
C32 C 0.0637 0.17008 0.04679 0.0
C33 C 0.06839 0.15958 0.06337 0.0
C34 C 0.0555 0.11672 0.12492 0.0
C35 C 0.03824 0.12722 0.12378 0.0
C36 C 0.25768 0.66683 0.24258 0.0
C37 C 0.23829 0.66385 0.23461 0.0
C38 C 0.231 0.67886 0.2234 0.0
C39 C 0.2428 0.69651 0.22037 0.0
H40 H 0.25187 0.7424 0.18122 0.0
H41 H 0.24343 0.7649 0.15577 0.0
H42 H 0.28624 0.81057 0.18088 0.0
H43 H 0.29496 0.78802 0.20642 0.0
H44 H 0.33465 0.76774 0.22682 0.0
H45 H 0.36689 0.77218 0.2439 0.0
H46 H 0.34928 0.72241 0.28003 0.0
H47 H 0.31752 0.71763 0.26278 0.0
H48 H 0.2843 0.68622 0.24603 0.0
H49 H 0.26388 0.65544 0.251 0.0
H50 H 0.21602 0.67714 0.21728 0.0
H51 H 0.23666 0.70783 0.2118 0.0
N52 N 0.2688 0.73193 0.213 0.0
N53 N 0.29809 0.75249 0.22011 0.0
N54 N 0.29229 0.72199 0.2354 0.0
C55 C 0.28041 0.74906 0.2102 0.0
C56 C 0.3041 0.73897 0.23277 0.0
C57 C 0.27464 0.71834 0.22562 0.0
C58 C 0.27424 0.76334 0.19576 0.0
C59 C 0.25938 0.75729 0.18151 0.0
C60 C 0.25456 0.77013 0.16689 0.0
C61 C 0.26425 0.78938 0.16638 0.0
C62 C 0.27849 0.79581 0.18107 0.0
C63 C 0.28356 0.78284 0.19556 0.0
C64 C 0.3235 0.74228 0.24336 0.0
C65 C 0.33768 0.75775 0.23841 0.0
C66 C 0.35615 0.76033 0.24822 0.0
C67 C 0.36075 0.74753 0.2632 0.0
C68 C 0.34645 0.73223 0.26824 0.0
C69 C 0.32812 0.7296 0.25841 0.0
C70 C 0.26212 0.69957 0.22855 0.0
C71 C 0.26943 0.68449 0.23964 0.0
C72 C 0.93858 0.38139 0.05131 0.0
C73 C 0.92861 0.37989 0.03292 0.0
C74 C 0.91225 0.39126 0.0302 0.0
C75 C 0.90672 0.40481 0.04528 0.0
H76 H 0.87705 0.45582 0.05318 0.0
H77 H 0.86014 0.48429 0.04271 0.0
H78 H 0.87663 0.51666 0.09808 0.0
H79 H 0.8933 0.48812 0.10879 0.0
H80 H 0.92623 0.47311 0.13566 0.0
H81 H 0.95301 0.4816 0.1597 0.0
H82 H 0.97944 0.42672 0.14281 0.0
H83 H 0.95252 0.41793 0.11905 0.0
H84 H 0.94143 0.39585 0.08017 0.0
H85 H 0.95106 0.37254 0.05386 0.0
H86 H 0.90434 0.39036 0.01612 0.0
H87 H 0.89455 0.41397 0.04247 0.0
N88 N 0.90083 0.43728 0.07435 0.0
N89 N 0.91038 0.45534 0.10401 0.0
N90 N 0.9247 0.42552 0.09527 0.0
C91 C 0.89905 0.45334 0.08718 0.0
C92 C 0.92317 0.44144 0.10822 0.0
C93 C 0.91356 0.42323 0.07837 0.0
C94 C 0.88676 0.46969 0.08177 0.0
C95 C 0.87691 0.46888 0.06327 0.0
C96 C 0.86731 0.48527 0.05718 0.0
C97 C 0.86728 0.50283 0.06945 0.0
C98 C 0.87631 0.50332 0.08832 0.0
C99 C 0.88596 0.48695 0.0944 0.0
C100 C 0.93737 0.445 0.12512 0.0
C101 C 0.93753 0.46265 0.13727 0.0
C102 C 0.95295 0.46759 0.15099 0.0
C103 C 0.96853 0.45501 0.15287 0.0
C104 C 0.96764 0.43672 0.14173 0.0
C105 C 0.95222 0.43175 0.12802 0.0
C106 C 0.91736 0.40705 0.06338 0.0
C107 C 0.93296 0.39472 0.06641 0.0
C108 C 0.73815 0.77418 0.17614 0.0
C109 C 0.73259 0.75373 0.17767 0.0
C110 C 0.72541 0.74686 0.19589 0.0
C111 C 0.72327 0.76036 0.21213 0.0
H112 H 0.68065 0.77348 0.25842 0.0
H113 H 0.65425 0.76927 0.28311 0.0
H114 H 0.68127 0.82003 0.31806 0.0
H115 H 0.70729 0.8245 0.29335 0.0
H116 H 0.72059 0.86122 0.26299 0.0
H117 H 0.73617 0.89508 0.26305 0.0
H118 H 0.77951 0.87575 0.22034 0.0
H119 H 0.76338 0.84192 0.2197 0.0
H120 H 0.74054 0.8033 0.19057 0.0
H121 H 0.74389 0.77982 0.1623 0.0
H122 H 0.72095 0.73115 0.19739 0.0
H123 H 0.71737 0.75471 0.22589 0.0
N124 N 0.7133 0.7905 0.24258 0.0
N125 N 0.71923 0.82292 0.25703 0.0
N126 N 0.73468 0.81433 0.22706 0.0
C127 C 0.71013 0.8042 0.25757 0.0
C128 C 0.73151 0.82813 0.24189 0.0
C129 C 0.72567 0.79548 0.2273 0.0
C130 C 0.69587 0.79954 0.27373 0.0
C131 C 0.68112 0.78353 0.27154 0.0
C132 C 0.66603 0.78107 0.28572 0.0
C133 C 0.6655 0.79453 0.30238 0.0
C134 C 0.68099 0.80971 0.30516 0.0
C135 C 0.69595 0.81222 0.29099 0.0
C136 C 0.74085 0.84881 0.24146 0.0
C137 C 0.73342 0.86417 0.25356 0.0
C138 C 0.74241 0.88361 0.25365 0.0
C139 C 0.75922 0.88816 0.24184 0.0
C140 C 0.76644 0.87287 0.22944 0.0
C141 C 0.75728 0.85342 0.22918 0.0
C142 C 0.72858 0.78091 0.2105 0.0
C143 C 0.73631 0.7876 0.19239 0.0
C144 C 0.06755 0.90729 0.48565 0.0
C145 C 0.04787 0.8986 0.48618 0.0
C146 C 0.03499 0.90103 0.47015 0.0
C147 C 0.04134 0.91274 0.45442 0.0
H148 H 0.02379 0.93479 0.39981 0.0
H149 H 0.99808 0.94576 0.37805 0.0
H150 H 0.03349 0.00139 0.37087 0.0
H151 H 0.05921 0.99057 0.39245 0.0
H152 H 0.10505 0.99324 0.40632 0.0
H153 H 0.13261 0.01795 0.41527 0.0
H154 H 0.14297 0.98735 0.46876 0.0
H155 H 0.11557 0.96265 0.45999 0.0
H156 H 0.08899 0.92598 0.47042 0.0
H157 H 0.07781 0.90583 0.49781 0.0
H158 H 0.01985 0.89419 0.46994 0.0
H159 H 0.03082 0.9148 0.44264 0.0
N160 N 0.05367 0.94113 0.42491 0.0
N161 N 0.07631 0.96689 0.41454 0.0
N162 N 0.08446 0.94792 0.44118 0.0
C163 C 0.05843 0.95604 0.4124 0.0
C164 C 0.08946 0.96284 0.42883 0.0
C165 C 0.06668 0.93693 0.43932 0.0
C166 C 0.04354 0.96182 0.39796 0.0
C167 C 0.02618 0.9493 0.39347 0.0
C168 C 0.01149 0.95553 0.38097 0.0
C169 C 0.01377 0.97448 0.37294 0.0
C170 C 0.03127 0.98681 0.37707 0.0
C171 C 0.04605 0.9805 0.38933 0.0
C172 C 0.10788 0.9761 0.43256 0.0
C173 C 0.11338 0.99158 0.41984 0.0
C174 C 0.12921 0.00569 0.4249 0.0
C175 C 0.13969 0.00465 0.44281 0.0
C176 C 0.1349 0.98863 0.455 0.0
C177 C 0.11923 0.97444 0.44989 0.0
C178 C 0.06072 0.92228 0.4544 0.0
C179 C 0.07391 0.91898 0.46995 0.0
C180 C 0.20661 0.76219 0.86144 0.0
C181 C 0.19848 0.78083 0.86381 0.0
C182 C 0.1926 0.79019 0.84674 0.0
C183 C 0.19525 0.78136 0.82778 0.0
H184 H 0.1769 0.78096 0.76844 0.0
H185 H 0.15258 0.78573 0.74272 0.0
H186 H 0.16994 0.73301 0.70993 0.0
H187 H 0.1943 0.72804 0.73586 0.0
H188 H 0.23231 0.70556 0.7537 0.0
H189 H 0.25628 0.67991 0.7525 0.0
H190 H 0.27803 0.70068 0.8109 0.0
H191 H 0.25413 0.72586 0.81231 0.0
H192 H 0.21608 0.73931 0.84127 0.0
H193 H 0.21086 0.75428 0.87421 0.0
H194 H 0.18653 0.80467 0.84794 0.0
H195 H 0.19091 0.78911 0.81491 0.0
N196 N 0.19718 0.75862 0.78952 0.0
N197 N 0.21445 0.73642 0.76914 0.0
N198 N 0.22208 0.74096 0.80314 0.0
C199 C 0.20027 0.74979 0.77129 0.0
C200 C 0.22558 0.73213 0.78506 0.0
C201 C 0.20794 0.75415 0.80552 0.0
C202 C 0.18739 0.75396 0.75435 0.0
C203 C 0.17574 0.77047 0.75566 0.0
C204 C 0.1619 0.77334 0.7408 0.0
C205 C 0.15928 0.7597 0.72434 0.0
C206 C 0.17152 0.74366 0.72256 0.0
C207 C 0.18553 0.74088 0.73737 0.0
C208 C 0.24106 0.71759 0.78321 0.0
C209 C 0.24233 0.70473 0.7662 0.0
C210 C 0.2561 0.69009 0.76548 0.0
C211 C 0.26886 0.6881 0.78173 0.0
C212 C 0.26811 0.70152 0.79832 0.0
C213 C 0.25439 0.71602 0.79908 0.0
C214 C 0.2041 0.76314 0.82549 0.0
C215 C 0.20955 0.75355 0.84252 0.0
C216 C 0.94867 0.64901 0.48871 0.0
C217 C 0.93385 0.65429 0.5022 0.0
C218 C 0.91479 0.64415 0.50075 0.0
C219 C 0.9109 0.62833 0.48665 0.0
H220 H 0.87093 0.57953 0.47376 0.0
H221 H 0.84436 0.55453 0.48196 0.0
H222 H 0.8724 0.50988 0.44581 0.0
H223 H 0.8991 0.53475 0.43764 0.0
H224 H 0.94017 0.54585 0.41741 0.0
H225 H 0.967 0.53724 0.39501 0.0
H226 H 0.99154 0.59871 0.39874 0.0
H227 H 0.96477 0.60745 0.4211 0.0
H228 H 0.95671 0.62938 0.46467 0.0
H229 H 0.96342 0.6568 0.48937 0.0
H230 H 0.90312 0.64791 0.51103 0.0
H231 H 0.89624 0.62039 0.4863 0.0
N232 N 0.90649 0.59135 0.46257 0.0
N233 N 0.91839 0.56948 0.43794 0.0
N234 N 0.93662 0.59989 0.44651 0.0
C235 C 0.90422 0.57386 0.45148 0.0
C236 C 0.93455 0.58249 0.43527 0.0
C237 C 0.92266 0.60444 0.46018 0.0
C238 C 0.88724 0.55913 0.45514 0.0
C239 C 0.8714 0.56442 0.46743 0.0
C240 C 0.8561 0.55015 0.47205 0.0
C241 C 0.8564 0.53026 0.4646 0.0
C242 C 0.87194 0.52506 0.45194 0.0
C243 C 0.88716 0.53936 0.44718 0.0
C244 C 0.95032 0.57735 0.42107 0.0
C245 C 0.95121 0.55757 0.41339 0.0
C246 C 0.96664 0.55259 0.40068 0.0
C247 C 0.98134 0.5673 0.39522 0.0
C248 C 0.98031 0.58711 0.40262 0.0
C249 C 0.96502 0.59207 0.4155 0.0
C250 C 0.92597 0.62252 0.47362 0.0
C251 C 0.94475 0.63336 0.4745 0.0
C252 C 0.86435 0.82079 0.78737 0.0
C253 C 0.86312 0.82628 0.76757 0.0
C254 C 0.84536 0.83362 0.76092 0.0
C255 C 0.82904 0.8349 0.77365 0.0
H256 H 0.77599 0.86285 0.78314 0.0
H257 H 0.749 0.88414 0.77771 0.0
H258 H 0.71807 0.86072 0.82876 0.0
H259 H 0.74513 0.83968 0.83447 0.0
H260 H 0.76491 0.80825 0.86017 0.0
H261 H 0.7647 0.78745 0.88878 0.0
H262 H 0.82755 0.78038 0.88065 0.0
H263 H 0.8277 0.8007 0.85178 0.0
H264 H 0.84951 0.81731 0.81511 0.0
H265 H 0.87793 0.81549 0.79311 0.0
H266 H 0.84383 0.83779 0.7457 0.0
H267 H 0.81544 0.84019 0.76795 0.0
N268 N 0.79638 0.83859 0.80185 0.0
N269 N 0.78024 0.82767 0.8307 0.0
N270 N 0.81233 0.81839 0.82329 0.0
C271 C 0.78018 0.83819 0.81395 0.0
C272 C 0.79628 0.81774 0.83546 0.0
C273 C 0.81253 0.82871 0.80646 0.0
C274 C 0.76293 0.84971 0.80942 0.0
C275 C 0.76337 0.86207 0.79312 0.0
C276 C 0.74781 0.8742 0.7899 0.0
C277 C 0.73147 0.87424 0.8029 0.0
C278 C 0.73062 0.86127 0.81868 0.0
C279 C 0.74615 0.84916 0.8219 0.0
C280 C 0.79627 0.80604 0.85354 0.0
C281 C 0.77871 0.80236 0.86453 0.0
C282 C 0.77862 0.79051 0.88102 0.0
C283 C 0.7961 0.78217 0.88696 0.0
C284 C 0.81375 0.78627 0.87627 0.0
C285 C 0.81383 0.79802 0.85974 0.0
C286 C 0.83011 0.82875 0.79325 0.0
C287 C 0.84804 0.82193 0.80002 0.0
C288 C 0.36453 0.31171 0.2822 0.0
C289 C 0.36442 0.31806 0.26263 0.0
C290 C 0.34747 0.32666 0.25569 0.0
C291 C 0.33083 0.3284 0.26791 0.0
H292 H 0.28303 0.36442 0.28175 0.0
H293 H 0.25792 0.38797 0.27667 0.0
H294 H 0.21738 0.35509 0.31504 0.0
H295 H 0.24256 0.33149 0.3204 0.0
H296 H 0.2621 0.30156 0.35081 0.0
H297 H 0.26045 0.28107 0.37976 0.0
H298 H 0.32398 0.27556 0.3759 0.0
H299 H 0.32554 0.29542 0.34673 0.0
H300 H 0.34847 0.30804 0.30925 0.0
H301 H 0.37749 0.30541 0.28816 0.0
H302 H 0.3468 0.33152 0.24062 0.0
H303 H 0.31786 0.33472 0.26197 0.0
N304 N 0.29751 0.33302 0.29496 0.0
N305 N 0.2797 0.32247 0.32304 0.0
N306 N 0.3114 0.31155 0.31656 0.0
C307 C 0.28092 0.33329 0.30647 0.0
C308 C 0.29495 0.31161 0.32819 0.0
C309 C 0.31279 0.32211 0.2999 0.0
C310 C 0.26489 0.34619 0.30167 0.0
C311 C 0.26869 0.36199 0.28891 0.0
C312 C 0.25436 0.37552 0.28602 0.0
C313 C 0.23581 0.37335 0.29555 0.0
C314 C 0.23155 0.357 0.30746 0.0
C315 C 0.24602 0.34361 0.31062 0.0
C316 C 0.2939 0.29999 0.34632 0.0
C317 C 0.27572 0.29603 0.35619 0.0
C318 C 0.2748 0.28438 0.37286 0.0
C319 C 0.29207 0.27656 0.38009 0.0
C320 C 0.31031 0.28097 0.37049 0.0
C321 C 0.31121 0.29246 0.35378 0.0
C322 C 0.33075 0.32146 0.28726 0.0
C323 C 0.34789 0.31331 0.29433 0.0
C324 C 0.44159 0.88517 0.55189 0.0
C325 C 0.43073 0.88303 0.53401 0.0
C326 C 0.41394 0.89394 0.53187 0.0
C327 C 0.4088 0.90765 0.54698 0.0
H328 H 0.3796 0.95894 0.55471 0.0
H329 H 0.36203 0.98711 0.54455 0.0
H330 H 0.37818 0.01936 0.60007 0.0
H331 H 0.39556 0.99112 0.61046 0.0
H332 H 0.43158 0.9783 0.63486 0.0
H333 H 0.45934 0.98747 0.65759 0.0
H334 H 0.48452 0.93161 0.64201 0.0
H335 H 0.45664 0.92218 0.61951 0.0
H336 H 0.44549 0.90027 0.58037 0.0
H337 H 0.45443 0.87669 0.554 0.0
H338 H 0.40533 0.89253 0.51819 0.0
H339 H 0.39624 0.91643 0.5446 0.0
N340 N 0.40359 0.94055 0.57576 0.0
N341 N 0.41395 0.95918 0.60487 0.0
N342 N 0.42849 0.92953 0.59595 0.0
C343 C 0.402 0.95673 0.58849 0.0
C344 C 0.42717 0.94558 0.60876 0.0
C345 C 0.41674 0.9268 0.57948 0.0
C346 C 0.38923 0.97279 0.58333 0.0
C347 C 0.37923 0.9719 0.5649 0.0
C348 C 0.36926 0.98812 0.559 0.0
C349 C 0.36896 0.00556 0.5714 0.0
C350 C 0.37809 0.0061 0.59021 0.0
C351 C 0.38814 0.98991 0.59611 0.0
C352 C 0.44201 0.94965 0.62505 0.0
C353 C 0.44281 0.96778 0.6365 0.0
C354 C 0.45879 0.97311 0.64945 0.0
C355 C 0.47428 0.96042 0.65128 0.0
C356 C 0.4728 0.9417 0.64092 0.0
C357 C 0.45683 0.93636 0.62794 0.0
C358 C 0.42027 0.9105 0.56454 0.0
C359 C 0.43637 0.89865 0.56702 0.0
C360 C 0.23024 0.26686 0.67125 0.0
C361 C 0.22607 0.24629 0.67352 0.0
C362 C 0.22107 0.23951 0.69241 0.0
C363 C 0.21993 0.25316 0.7087 0.0
H364 H 0.18169 0.267 0.75888 0.0
H365 H 0.15691 0.26383 0.78523 0.0
H366 H 0.1861 0.3155 0.81709 0.0
H367 H 0.2106 0.3189 0.79076 0.0
H368 H 0.2358 0.35015 0.76741 0.0
H369 H 0.25211 0.38353 0.76573 0.0
H370 H 0.26577 0.3714 0.70381 0.0
H371 H 0.24984 0.33764 0.70558 0.0
H372 H 0.2327 0.2962 0.68519 0.0
H373 H 0.23429 0.27244 0.65686 0.0
H374 H 0.21774 0.2237 0.69448 0.0
H375 H 0.2159 0.24757 0.72308 0.0
N376 N 0.21219 0.28377 0.73986 0.0
N377 N 0.22073 0.31589 0.75408 0.0
N378 N 0.2326 0.30698 0.72252 0.0
C379 C 0.21099 0.29751 0.75526 0.0
C380 C 0.23155 0.32077 0.73782 0.0
C381 C 0.22309 0.28842 0.72346 0.0
C382 C 0.19792 0.29341 0.77252 0.0
C383 C 0.18303 0.27747 0.77167 0.0
C384 C 0.16886 0.2756 0.78681 0.0
C385 C 0.16938 0.28961 0.80309 0.0
C386 C 0.18504 0.30474 0.80453 0.0
C387 C 0.19913 0.30663 0.78943 0.0
C388 C 0.24153 0.34114 0.73664 0.0
C389 C 0.24222 0.35454 0.75339 0.0
C390 C 0.25145 0.3738 0.75239 0.0
C391 C 0.26013 0.38021 0.7346 0.0
C392 C 0.25939 0.36686 0.7178 0.0
C393 C 0.25021 0.34752 0.71882 0.0
C394 C 0.22414 0.27378 0.70641 0.0
C395 C 0.22942 0.28043 0.68752 0.0
C396 C 0.76725 0.1692 0.74204 0.0
C397 C 0.74722 0.16802 0.73585 0.0
C398 C 0.74027 0.18395 0.72571 0.0
C399 C 0.75311 0.20071 0.72188 0.0
H400 H 0.75557 0.26118 0.70459 0.0
H401 H 0.74471 0.28806 0.6852 0.0
H402 H 0.80598 0.30355 0.66878 0.0
H403 H 0.8168 0.27746 0.68896 0.0
H404 H 0.85034 0.26417 0.72076 0.0
H405 H 0.88314 0.26706 0.73666 0.0
H406 H 0.8663 0.21472 0.76954 0.0
H407 H 0.83403 0.21142 0.7533 0.0
H408 H 0.79541 0.18621 0.7432 0.0
H409 H 0.77315 0.15706 0.74961 0.0
H410 H 0.72484 0.18358 0.72096 0.0
H411 H 0.74726 0.21274 0.71409 0.0
N412 N 0.78082 0.23476 0.71365 0.0
N413 N 0.81279 0.25151 0.71673 0.0
N414 N 0.806 0.22061 0.73094 0.0
C415 C 0.79369 0.25076 0.70986 0.0
C416 C 0.81902 0.23649 0.72738 0.0
C417 C 0.78694 0.21954 0.72411 0.0
C418 C 0.78704 0.26719 0.69829 0.0
C419 C 0.7667 0.27043 0.6969 0.0
C420 C 0.76047 0.28581 0.6857 0.0
C421 C 0.77442 0.29809 0.67534 0.0
C422 C 0.79479 0.2948 0.67686 0.0
C423 C 0.80102 0.27968 0.68833 0.0
C424 C 0.83946 0.23766 0.73584 0.0
C425 C 0.85373 0.25316 0.73123 0.0
C426 C 0.87252 0.25486 0.7404 0.0
C427 C 0.87738 0.24116 0.75444 0.0
C428 C 0.86328 0.22535 0.75856 0.0
C429 C 0.84461 0.22357 0.74933 0.0
C430 C 0.77316 0.2019 0.72811 0.0
C431 C 0.78005 0.18592 0.73824 0.0
C432 C 0.51889 0.62405 0.63966 0.0
C433 C 0.52013 0.60895 0.65319 0.0
C434 C 0.53806 0.59971 0.65475 0.0
C435 C 0.55381 0.60419 0.64185 0.0
H436 H 0.59905 0.57549 0.6178 0.0
H437 H 0.61552 0.545 0.61038 0.0
H438 H 0.63076 0.56521 0.55203 0.0
H439 H 0.61407 0.59559 0.55922 0.0
H440 H 0.59496 0.63312 0.5433 0.0
H441 H 0.5845 0.64968 0.51397 0.0
H442 H 0.5365 0.67379 0.54755 0.0
H443 H 0.54674 0.65736 0.57679 0.0
H444 H 0.53275 0.63942 0.61563 0.0
H445 H 0.50524 0.63143 0.63816 0.0
H446 H 0.53956 0.58829 0.66536 0.0
H447 H 0.56701 0.59601 0.64282 0.0
N448 N 0.5804 0.60568 0.60862 0.0
N449 N 0.58959 0.61757 0.57755 0.0
N450 N 0.56436 0.63203 0.5959 0.0
C451 C 0.59203 0.60472 0.59219 0.0
C452 C 0.57589 0.63138 0.57936 0.0
C453 C 0.56659 0.61933 0.61067 0.0
C454 C 0.60492 0.58792 0.58899 0.0
C455 C 0.60614 0.57362 0.60347 0.0
C456 C 0.61566 0.55614 0.59927 0.0
C457 C 0.62413 0.55256 0.58051 0.0
C458 C 0.62397 0.56737 0.56648 0.0
C459 C 0.61451 0.58486 0.57068 0.0
C460 C 0.57154 0.64364 0.56238 0.0
C461 C 0.58233 0.64217 0.54453 0.0
C462 C 0.5764 0.65169 0.52773 0.0
C463 C 0.5595 0.66273 0.52843 0.0
C464 C 0.54935 0.66504 0.5465 0.0
C465 C 0.55533 0.65568 0.5633 0.0
C466 C 0.55194 0.61799 0.62706 0.0
C467 C 0.53466 0.62855 0.62671 0.0
C468 C 0.56596 0.4157 0.99659 0.0
C469 C 0.5469 0.40561 0.99735 0.0
C470 C 0.53323 0.40773 0.98191 0.0
C471 C 0.53828 0.4202 0.96639 0.0
H472 H 0.51302 0.44898 0.92122 0.0
H473 H 0.4875 0.45808 0.89831 0.0
H474 H 0.53156 0.49643 0.86891 0.0
H475 H 0.55715 0.48729 0.89161 0.0
H476 H 0.59824 0.50083 0.91423 0.0
H477 H 0.62597 0.52601 0.92125 0.0
H478 H 0.63804 0.49842 0.97607 0.0
H479 H 0.61057 0.47328 0.96923 0.0
H480 H 0.58571 0.43606 0.98128 0.0
H481 H 0.57678 0.41452 0.00832 0.0
H482 H 0.51853 0.39986 0.9819 0.0
H483 H 0.52723 0.42177 0.95496 0.0
N484 N 0.54841 0.44872 0.93634 0.0
N485 N 0.57011 0.47442 0.92431 0.0
N486 N 0.57947 0.45701 0.95164 0.0
C487 C 0.55244 0.46308 0.92305 0.0
C488 C 0.58371 0.47145 0.93857 0.0
C489 C 0.56195 0.44551 0.95062 0.0
C490 C 0.53716 0.46745 0.90833 0.0
C491 C 0.51734 0.45922 0.90977 0.0
C492 C 0.50266 0.46453 0.89675 0.0
C493 C 0.50752 0.47803 0.88189 0.0
C494 C 0.5274 0.48587 0.88012 0.0
C495 C 0.54204 0.48069 0.89321 0.0
C496 C 0.60198 0.48516 0.94128 0.0
C497 C 0.60696 0.49996 0.92766 0.0
C498 C 0.62287 0.51433 0.9316 0.0
C499 C 0.63391 0.51424 0.94931 0.0
C500 C 0.62954 0.49895 0.96245 0.0
C501 C 0.61383 0.4845 0.95844 0.0
C502 C 0.55712 0.43085 0.96598 0.0
C503 C 0.57102 0.42817 0.98109 0.0
C504 C 0.72694 0.27748 0.36906 0.0
C505 C 0.70825 0.28378 0.37485 0.0
C506 C 0.69221 0.28078 0.36132 0.0
C507 C 0.69486 0.27195 0.34239 0.0
H508 H 0.66553 0.25547 0.29073 0.0
H509 H 0.63856 0.25529 0.26662 0.0
H510 H 0.67893 0.24077 0.21925 0.0
H511 H 0.70621 0.24076 0.24351 0.0
H512 H 0.74152 0.21123 0.26257 0.0
H513 H 0.76793 0.18845 0.25921 0.0
H514 H 0.79537 0.21478 0.3134 0.0
H515 H 0.76885 0.23726 0.31702 0.0
H516 H 0.7442 0.26398 0.34619 0.0
H517 H 0.73972 0.27986 0.37895 0.0
H518 H 0.67754 0.28517 0.36537 0.0
H519 H 0.68215 0.26988 0.33238 0.0
N520 N 0.70203 0.25677 0.30235 0.0
N521 N 0.72091 0.23828 0.27989 0.0
N522 N 0.73297 0.24682 0.31218 0.0
C523 C 0.70421 0.2479 0.284 0.0
C524 C 0.73538 0.2377 0.29397 0.0
C525 C 0.71635 0.25638 0.31649 0.0
C526 C 0.68805 0.24808 0.26906 0.0
C527 C 0.66877 0.25229 0.2752 0.0
C528 C 0.65327 0.25208 0.26141 0.0
C529 C 0.65668 0.24792 0.24113 0.0
C530 C 0.67597 0.24408 0.23483 0.0
C531 C 0.69151 0.24397 0.24872 0.0
C532 C 0.75284 0.22587 0.29025 0.0
C533 C 0.75333 0.21238 0.27362 0.0
C534 C 0.76855 0.19937 0.27164 0.0
C535 C 0.78361 0.19962 0.28619 0.0
C536 C 0.78374 0.21392 0.30216 0.0
C537 C 0.76854 0.22686 0.30418 0.0
C538 C 0.71358 0.26575 0.33658 0.0
C539 C 0.72955 0.2685 0.35018 0.0
C540 C 0.44512 0.14791 0.98239 0.0
C541 C 0.43441 0.14843 0.00027 0.0
C542 C 0.41874 0.13376 0.0031 0.0
C543 C 0.41427 0.11849 0.98859 0.0
H544 H 0.37045 0.07469 0.96872 0.0
H545 H 0.34342 0.04962 0.97526 0.0
H546 H 0.37153 0.00626 0.93753 0.0
H547 H 0.39874 0.03127 0.93101 0.0
H548 H 0.43993 0.0439 0.91092 0.0
H549 H 0.4671 0.03648 0.88846 0.0
H550 H 0.49084 0.09814 0.89458 0.0
H551 H 0.46372 0.10568 0.91703 0.0
H552 H 0.44969 0.13224 0.95455 0.0
H553 H 0.45735 0.15898 0.97988 0.0
H554 H 0.4101 0.13397 0.01667 0.0
H555 H 0.40238 0.10717 0.99148 0.0
N556 N 0.40623 0.08667 0.95862 0.0
N557 N 0.41791 0.06635 0.93256 0.0
N558 N 0.43601 0.09648 0.94253 0.0
C559 C 0.4039 0.06984 0.94654 0.0
C560 C 0.43395 0.07967 0.93039 0.0
C561 C 0.42223 0.10006 0.95671 0.0
C562 C 0.38684 0.05497 0.94942 0.0
C563 C 0.37086 0.05986 0.96171 0.0
C564 C 0.35529 0.04554 0.96537 0.0
C565 C 0.35542 0.02601 0.95694 0.0
C566 C 0.37117 0.02118 0.94437 0.0
C567 C 0.38668 0.03555 0.94055 0.0
C568 C 0.44968 0.07538 0.91583 0.0
C569 C 0.45083 0.05593 0.90738 0.0
C570 C 0.46646 0.05163 0.89463 0.0
C571 C 0.48108 0.06672 0.88988 0.0
C572 C 0.47968 0.08625 0.89791 0.0
C573 C 0.4642 0.09053 0.91084 0.0
C574 C 0.42553 0.11745 0.97103 0.0
C575 C 0.44078 0.13253 0.96794 0.0
O576 O 0.22328 0.86638 0.99822 0.0
Cd577 Cd 0.23574 0.88618 0.01992 0.0
Cd578 Cd 0.20754 0.90853 0.00633 0.0
O579 O 0.19806 0.88311 0.98949 0.0
O580 O 0.25298 0.8691 0.03438 0.0
O581 O 0.22786 0.88359 0.04864 0.0
C582 C 0.24221 0.872 0.0499 0.0
C583 C 0.18487 0.92708 0.02365 0.0
C584 C 0.2077 0.86761 0.98781 0.0
C585 C 0.25026 0.92366 0.0008 0.0
O586 O 0.23209 0.92551 0.99659 0.0
O587 O 0.255 0.90932 0.01098 0.0
O588 O 0.1856 0.92635 0.0045 0.0
O589 O 0.19654 0.91641 0.03314 0.0
O590 O 0.14712 0.53702 0.28222 0.0
Cd591 Cd 0.12883 0.51314 0.29147 0.0
Cd592 Cd 0.10574 0.52379 0.26182 0.0
O593 O 0.13112 0.54069 0.25426 0.0
O594 O 0.14682 0.49793 0.30715 0.0
O595 O 0.13209 0.4857 0.27919 0.0
C596 C 0.14421 0.48357 0.29372 0.0
C597 C 0.08564 0.50832 0.23645 0.0
C598 C 0.14593 0.54529 0.26575 0.0
C599 C 0.09076 0.52886 0.30374 0.0
O600 O 0.08954 0.53359 0.28578 0.0
O601 O 0.10488 0.51889 0.30927 0.0
O602 O 0.08752 0.52745 0.2394 0.0
O603 O 0.09588 0.49772 0.24755 0.0
O604 O 0.76423 0.67951 -0.00041 0.0
Cd605 Cd 0.75274 0.65876 0.01902 0.0
Cd606 Cd 0.78007 0.63719 0.00023 0.0
O607 O 0.7893 0.66352 0.98756 0.0
O608 O 0.7352 0.67478 0.03603 0.0
O609 O 0.76139 0.66123 0.04785 0.0
C610 C 0.74652 0.67204 0.05092 0.0
C611 C 0.80203 0.61814 0.01612 0.0
C612 C 0.77955 0.67897 0.98861 0.0
C613 C 0.73758 0.62199 0.99473 0.0
O614 O 0.75524 0.6211 0.98831 0.0
O615 O 0.7337 0.63515 0.00808 0.0
O616 O 0.80186 0.61907 0.99703 0.0
O617 O 0.79026 0.62894 0.02639 0.0
O618 O 0.90656 0.02081 0.27118 0.0
Cd619 Cd 0.88904 0.03198 0.24991 0.0
Cd620 Cd 0.87092 0.04613 0.28126 0.0
O621 O 0.89565 0.03867 0.2966 0.0
O622 O 0.90505 0.02987 0.2253 0.0
O623 O 0.89791 0.05882 0.23956 0.0
C624 C 0.90705 0.04913 0.22576 0.0
C625 C 0.86069 0.0784 0.28359 0.0
C626 C 0.90771 0.0266 0.28941 0.0
C627 C 0.84823 0.01388 0.25632 0.0
O628 O 0.84952 0.02339 0.27314 0.0
O629 O 0.86195 0.01658 0.24356 0.0
O630 O 0.85757 0.06639 0.29784 0.0
O631 O 0.87016 0.07217 0.26809 0.0
O632 O 0.26014 0.17558 0.49476 0.0
Cd633 Cd 0.24979 0.15438 0.51427 0.0
Cd634 Cd 0.27936 0.13496 0.49745 0.0
O635 O 0.28718 0.16158 0.48471 0.0
O636 O 0.23115 0.1689 0.53143 0.0
O637 O 0.25851 0.15721 0.54301 0.0
C638 C 0.24281 0.1668 0.54625 0.0
C639 C 0.30223 0.11776 0.5143 0.0
C640 C 0.27611 0.17606 0.48466 0.0
C641 C 0.23819 0.11649 0.49033 0.0
O642 O 0.25621 0.11696 0.48467 0.0
O643 O 0.23276 0.12939 0.50323 0.0
O644 O 0.30269 0.11871 0.49522 0.0
O645 O 0.28928 0.12757 0.52404 0.0
O646 O 0.4043 0.52017 0.77379 0.0
Cd647 Cd 0.38686 0.52871 0.75107 0.0
Cd648 Cd 0.36414 0.53914 0.7813 0.0
O649 O 0.3876 0.53251 0.79903 0.0
O650 O 0.40477 0.52674 0.72784 0.0
O651 O 0.39437 0.55543 0.73957 0.0
C652 C 0.40519 0.54589 0.72709 0.0
C653 C 0.35164 0.57039 0.78275 0.0
C654 C 0.40248 0.52377 0.79236 0.0
C655 C 0.34682 0.50641 0.75342 0.0
O656 O 0.34507 0.51575 0.77012 0.0
O657 O 0.36206 0.51022 0.74271 0.0
O658 O 0.34767 0.55785 0.7964 0.0
O659 O 0.36343 0.56539 0.76852 0.0
O660 O 0.72915 0.36988 0.50983 0.0
Cd661 Cd 0.739 0.39122 0.53143 0.0
Cd662 Cd 0.71017 0.41133 0.51652 0.0
O663 O 0.70278 0.38475 0.50065 0.0
O664 O 0.7563 0.3777 0.54951 0.0
O665 O 0.7277 0.38938 0.55901 0.0
C666 C 0.74332 0.38034 0.56325 0.0
C667 C 0.68618 0.42956 0.5322 0.0
C668 C 0.71349 0.36998 0.49925 0.0
C669 C 0.75196 0.42878 0.51154 0.0
O670 O 0.73383 0.42926 0.50645 0.0
O671 O 0.75715 0.41528 0.52259 0.0
O672 O 0.68718 0.42761 0.5131 0.0
O673 O 0.69818 0.42007 0.54259 0.0
O674 O 0.65211 0.04283 0.78089 0.0
Cd675 Cd 0.63294 0.01927 0.78954 0.0
Cd676 Cd 0.611 0.0298 0.75925 0.0
O677 O 0.6367 0.0466 0.75259 0.0
O678 O 0.64891 0.00283 0.80615 0.0
O679 O 0.63595 0.99192 0.77694 0.0
C680 C 0.64644 0.98875 0.79242 0.0
C681 C 0.5921 0.01331 0.73357 0.0
C682 C 0.6513 0.05112 0.76437 0.0
C683 C 0.59427 0.03527 0.80011 0.0
O684 O 0.59367 0.03999 0.78212 0.0
O685 O 0.60823 0.02537 0.80615 0.0
O686 O 0.59379 0.03251 0.73583 0.0
O687 O 0.60198 0.00323 0.74551 0.0
O688 O 0.97545 0.27682 0.91906 0.0
Cd689 Cd 0.98935 0.25576 0.90206 0.0
Cd690 Cd 0.0089 0.28765 0.88761 0.0
O691 O 0.99792 0.30147 0.91294 0.0
O692 O 0.98885 0.23055 0.91672 0.0
O693 O 0.01623 0.25028 0.91181 0.0
C694 C 0.00776 0.23468 0.91967 0.0
C695 C 0.04261 0.29047 0.87944 0.0
C696 C 0.98283 0.29466 0.9226 0.0
C697 C 0.9804 0.26342 0.86026 0.0
O698 O 0.98968 0.28041 0.86405 0.0
O699 O 0.98006 0.25003 0.873 0.0
O700 O 0.03162 0.30514 0.87729 0.0
O701 O 0.03458 0.27449 0.88697 0.0
O702 O 0.47316 0.778 0.41985 0.0
Cd703 Cd 0.48512 0.75665 0.40145 0.0
Cd704 Cd 0.50351 0.78818 0.38605 0.0
O705 O 0.49448 0.80284 0.4117 0.0
O706 O 0.48226 0.73145 0.41592 0.0
O707 O 0.51144 0.74743 0.40948 0.0
C708 C 0.50144 0.73291 0.41779 0.0
C709 C 0.53675 0.78999 0.37645 0.0
C710 C 0.48041 0.79597 0.42264 0.0
C711 C 0.47267 0.76471 0.36071 0.0
O712 O 0.48271 0.78144 0.3637 0.0
O713 O 0.47304 0.75134 0.3734 0.0
O714 O 0.52596 0.80485 0.37448 0.0
O715 O 0.52874 0.77425 0.38447 0.0
O716 O 0.97714 0.78519 0.66656 0.0
Cd717 Cd 0.99673 0.77447 0.6457 0.0
Cd718 Cd 0.98028 0.80103 0.62322 0.0
O719 O 0.96723 0.80976 0.64942 0.0
O720 O 0.01497 0.75871 0.66066 0.0
O721 O 0.02528 0.78614 0.64553 0.0
C722 C 0.0294 0.77141 0.65607 0.0
C723 C 0.99593 0.82447 0.60305 0.0
C724 C 0.96704 0.80031 0.6653 0.0
C725 C 0.97354 0.75821 0.60958 0.0
O726 O 0.96817 0.77574 0.60787 0.0
O727 O 0.98578 0.75474 0.62313 0.0
O728 O 0.9768 0.82266 0.60488 0.0
O729 O 0.0064 0.81346 0.61351 0.0
O730 O 0.48155 0.2721 0.16744 0.0
Cd731 Cd 0.50174 0.26091 0.1477 0.0
Cd732 Cd 0.48951 0.29095 0.12502 0.0
O733 O 0.47414 0.29785 0.15055 0.0
O734 O 0.5176 0.24385 0.16379 0.0
O735 O 0.53076 0.27087 0.14969 0.0
C736 C 0.53302 0.2559 0.16061 0.0
C737 C 0.50329 0.31726 0.1069 0.0
C738 C 0.47226 0.28771 0.16596 0.0
C739 C 0.48178 0.24816 0.10905 0.0
O740 O 0.47926 0.26651 0.10719 0.0
O741 O 0.49095 0.24261 0.12406 0.0
O742 O 0.48431 0.31328 0.10807 0.0
O743 O 0.51472 0.30662 0.11671 0.0
H744 H 0.22493 0.78064 0.89479 0.0
H745 H 0.17781 0.86655 0.95974 0.0
H746 H 0.16949 0.8043 0.87874 0.0
H747 H 0.22532 0.83279 0.98012 0.0
H748 H 0.1729 0.84289 0.93097 0.0
H749 H 0.22395 0.79858 0.92689 0.0
C750 C 0.21234 0.78934 0.89808 0.0
C751 C 0.19726 0.7909 0.8839 0.0
C752 C 0.1842 0.84054 0.94191 0.0
C753 C 0.19637 0.81206 0.92072 0.0
C754 C 0.187 0.85401 0.95835 0.0
C755 C 0.20221 0.85184 0.97222 0.0
C756 C 0.1968 0.8249 0.93928 0.0
C757 C 0.21359 0.83525 0.9697 0.0
C758 C 0.21186 0.79971 0.91646 0.0
C759 C 0.18163 0.80289 0.88901 0.0
N760 N 0.21081 0.82259 0.95343 0.0
N761 N 0.18168 0.81316 0.90695 0.0
H762 H 0.99552 0.58691 0.36296 0.0
H763 H 0.08356 0.51564 0.34118 0.0
H764 H 0.00454 0.53578 0.3973 0.0
H765 H 0.06298 0.55572 0.29876 0.0
H766 H 0.05719 0.52524 0.36396 0.0
H767 H 0.02287 0.57806 0.34118 0.0
C768 C 0.00334 0.57386 0.36593 0.0
C769 C 0.99779 0.56202 0.38189 0.0
C770 C 0.0585 0.53191 0.34966 0.0
C771 C 0.02902 0.55181 0.3571 0.0
C772 C 0.07357 0.52651 0.33669 0.0
C773 C 0.07543 0.53485 0.31802 0.0
C774 C 0.04537 0.5459 0.34396 0.0
C775 C 0.06205 0.54883 0.31296 0.0
C776 C 0.01886 0.56876 0.35347 0.0
C777 C 0.00826 0.54517 0.38501 0.0
N778 N 0.04762 0.55394 0.32587 0.0
N779 N 0.02345 0.54059 0.37275 0.0
H780 H 0.77634 0.78567 0.92251 0.0
H781 H 0.80836 0.6814 0.95984 0.0
H782 H 0.815 0.7477 0.88967 0.0
H783 H 0.76308 0.71496 0.98817 0.0
H784 H 0.81452 0.70796 0.93658 0.0
H785 H 0.77448 0.76201 0.94901 0.0
C786 C 0.78444 0.77238 0.92086 0.0
C787 C 0.79575 0.76863 0.90376 0.0
C788 C 0.80333 0.70956 0.94798 0.0
C789 C 0.79386 0.74161 0.93414 0.0
C790 C 0.79986 0.69444 0.96132 0.0
C791 C 0.78504 0.69585 0.97587 0.0
C792 C 0.79194 0.72624 0.94922 0.0
C793 C 0.77453 0.71313 0.9771 0.0
C794 C 0.78346 0.75894 0.93605 0.0
C795 C 0.80627 0.75134 0.90265 0.0
N796 N 0.7781 0.72759 0.96385 0.0
N797 N 0.80498 0.73844 0.91757 0.0
H798 H 0.99328 0.95463 0.3418 0.0
H799 H 0.92009 0.04084 0.32666 0.0
H800 H 0.99779 0.0106 0.37646 0.0
H801 H 0.93012 0.99498 0.28134 0.0
H802 H 0.94564 0.0279 0.34737 0.0
H803 H 0.96695 0.96711 0.32166 0.0
C804 C 0.98865 0.96951 0.34519 0.0
C805 C 0.99774 0.98166 0.36071 0.0
C806 C 0.94223 0.02071 0.33288 0.0
C807 C 0.9677 0.99597 0.3379 0.0
C808 C 0.92763 0.02804 0.32108 0.0
C809 C 0.92302 0.01902 0.30222 0.0
C810 C 0.95208 0.00409 0.32586 0.0
C811 C 0.93327 0.00248 0.29574 0.0
C812 C 0.97374 0.97666 0.33367 0.0
C813 C 0.9913 0.00087 0.36446 0.0
N814 N 0.94726 0.9955 0.30757 0.0
N815 N 0.97662 0.00741 0.35317 0.0
H816 H 0.24565 0.21199 0.66975 0.0
H817 H 0.2124 0.18981 0.55618 0.0
H818 H 0.2082 0.24867 0.63753 0.0
H819 H 0.26349 0.16485 0.58135 0.0
H820 H 0.20672 0.20708 0.58806 0.0
H821 H 0.24847 0.19034 0.63948 0.0
C822 C 0.23786 0.21532 0.65636 0.0
C823 C 0.22679 0.23216 0.65601 0.0
C824 C 0.21913 0.19777 0.58666 0.0
C825 C 0.22988 0.20761 0.6216 0.0
C826 C 0.22237 0.18784 0.56846 0.0
C827 C 0.23857 0.17599 0.56604 0.0
C828 C 0.2321 0.19582 0.60267 0.0
C829 C 0.25091 0.17395 0.58255 0.0
C830 C 0.23957 0.20308 0.63912 0.0
C831 C 0.21707 0.23594 0.63832 0.0
N832 N 0.24746 0.18385 0.6002 0.0
N833 N 0.21884 0.22378 0.62183 0.0
H834 H 0.49207 0.62978 0.6735 0.0
H835 H 0.42596 0.52935 0.69677 0.0
H836 H 0.50691 0.57002 0.65626 0.0
H837 H 0.41638 0.5862 0.72656 0.0
H838 H 0.45258 0.54563 0.67762 0.0
H839 H 0.46176 0.61548 0.68968 0.0
C840 C 0.48897 0.61369 0.67317 0.0
C841 C 0.50214 0.60103 0.66379 0.0
C842 C 0.44462 0.55463 0.68825 0.0
C843 C 0.46758 0.5847 0.68185 0.0
C844 C 0.42932 0.54534 0.69914 0.0
C845 C 0.41909 0.5564 0.71345 0.0
C846 C 0.44986 0.57516 0.69168 0.0
C847 C 0.42398 0.57712 0.71572 0.0
C848 C 0.47173 0.60557 0.68237 0.0
C849 C 0.49742 0.58032 0.66369 0.0
N850 N 0.4392 0.58585 0.70506 0.0
N851 N 0.48056 0.57284 0.67253 0.0
H852 H 0.79365 0.33475 0.66806 0.0
H853 H 0.71479 0.36515 0.58856 0.0
H854 H 0.74007 0.29718 0.65274 0.0
H855 H 0.7784 0.37715 0.58236 0.0
H856 H 0.72067 0.34769 0.6191 0.0
H857 H 0.78472 0.35791 0.64329 0.0
C858 C 0.77999 0.33133 0.65961 0.0
C859 C 0.76785 0.31365 0.66229 0.0
C860 C 0.73326 0.35445 0.61115 0.0
C861 C 0.75727 0.34058 0.63444 0.0
C862 C 0.72993 0.36446 0.59387 0.0
C863 C 0.74617 0.37239 0.58295 0.0
C864 C 0.7529 0.3529 0.61767 0.0
C865 C 0.76551 0.37103 0.5903 0.0
C866 C 0.77485 0.34468 0.64561 0.0
C867 C 0.74992 0.31057 0.65134 0.0
N868 N 0.76836 0.36145 0.60722 0.0
N869 N 0.74523 0.32384 0.6378 0.0
H870 H 0.4946 0.9971 0.65102 0.0
H871 H 0.57713 0.97395 0.73056 0.0
H872 H 0.49616 0.93959 0.67666 0.0
H873 H 0.57413 0.03051 0.70335 0.0
H874 H 0.5494 0.95982 0.70917 0.0
H875 H 0.52511 0.00865 0.66893 0.0
C876 C 0.50128 0.98695 0.66061 0.0
C877 C 0.49267 0.96744 0.66257 0.0
C878 C 0.55499 0.97526 0.70776 0.0
C879 C 0.52794 0.98048 0.68294 0.0
C880 C 0.57088 0.98328 0.71987 0.0
C881 C 0.5778 0.00347 0.71884 0.0
C882 C 0.54607 0.98757 0.69461 0.0
C883 C 0.56914 0.01492 0.70479 0.0
C884 C 0.51884 0.99349 0.67069 0.0
C885 C 0.50232 0.95476 0.67475 0.0
N886 N 0.55366 0.00685 0.69336 0.0
N887 N 0.51941 0.96154 0.68459 0.0
H888 H 0.90112 0.21252 0.76676 0.0
H889 H 0.97228 0.29052 0.83294 0.0
H890 H 0.8969 0.27645 0.76867 0.0
H891 H 0.96226 0.22794 0.84491 0.0
H892 H 0.95043 0.28485 0.80386 0.0
H893 H 0.92925 0.21748 0.78999 0.0
C894 C 0.90616 0.2276 0.77192 0.0
C895 C 0.89636 0.24407 0.76596 0.0
C896 C 0.95317 0.27234 0.81276 0.0
C897 C 0.92875 0.2498 0.79229 0.0
C898 C 0.96568 0.27554 0.82934 0.0
C899 C 0.9689 0.25972 0.84154 0.0
C900 C 0.94395 0.25317 0.80824 0.0
C901 C 0.96001 0.24061 0.83607 0.0
C902 C 0.92227 0.2304 0.78512 0.0
C903 C 0.90398 0.2633 0.77273 0.0
N904 N 0.94784 0.23789 0.81987 0.0
N905 N 0.9196 0.26562 0.78566 0.0
H906 H 0.4684 0.8831 0.51938 0.0
H907 H 0.44566 0.78951 0.44332 0.0
H908 H 0.40911 0.85446 0.51056 0.0
H909 H 0.49705 0.83179 0.43846 0.0
H910 H 0.433 0.81095 0.47011 0.0
H911 H 0.48026 0.8621 0.4919 0.0
C912 C 0.45791 0.87229 0.51168 0.0
C913 C 0.43779 0.87038 0.51727 0.0
C914 C 0.447 0.81553 0.4631 0.0
C915 C 0.45121 0.84637 0.48583 0.0
C916 C 0.45429 0.80328 0.44789 0.0
C917 C 0.47247 0.80886 0.43867 0.0
C918 C 0.45811 0.83332 0.46932 0.0
C919 C 0.48296 0.82692 0.44512 0.0
C920 C 0.46464 0.86043 0.49593 0.0
C921 C 0.42473 0.85639 0.50663 0.0
N922 N 0.47569 0.83844 0.46015 0.0
N923 N 0.43171 0.84477 0.49147 0.0
H924 H 0.14959 0.25753 0.82044 0.0
H925 H 0.06484 0.32276 0.86576 0.0
H926 H 0.15097 0.32177 0.81828 0.0
H927 H 0.06737 0.26003 0.87593 0.0
H928 H 0.09745 0.32288 0.84988 0.0
H929 H 0.12031 0.25812 0.84203 0.0
C930 C 0.14381 0.27175 0.82461 0.0
C931 C 0.15273 0.28961 0.81753 0.0
C932 C 0.09098 0.30912 0.85576 0.0
C933 C 0.11929 0.29042 0.84215 0.0
C934 C 0.07235 0.30906 0.86484 0.0
C935 C 0.06331 0.29133 0.87203 0.0
C936 C 0.10056 0.29128 0.85365 0.0
C937 C 0.07377 0.27403 0.87051 0.0
C938 C 0.12717 0.2721 0.837 0.0
C939 C 0.14474 0.30764 0.82355 0.0
N940 N 0.09175 0.27438 0.86128 0.0
N941 N 0.12841 0.30756 0.83536 0.0
H942 H 0.52104 0.65984 0.51532 0.0
H943 H 0.54129 0.73346 0.42699 0.0
H944 H 0.58013 0.68389 0.50003 0.0
H945 H 0.4842 0.70207 0.4383 0.0
H946 H 0.55643 0.71422 0.45216 0.0
H947 H 0.50775 0.67431 0.4861 0.0
C948 C 0.53121 0.66825 0.50579 0.0
C949 C 0.55167 0.67091 0.51022 0.0
C950 C 0.54064 0.71139 0.44895 0.0
C951 C 0.53658 0.68746 0.47658 0.0
C952 C 0.53199 0.72233 0.43455 0.0
C953 C 0.51141 0.7195 0.43068 0.0
C954 C 0.52857 0.69765 0.4596 0.0
C955 C 0.5001 0.70486 0.44089 0.0
C956 C 0.52365 0.67638 0.48901 0.0
C957 C 0.56425 0.68154 0.49713 0.0
N958 N 0.50879 0.69465 0.455 0.0
N959 N 0.55647 0.68961 0.48098 0.0
H960 H 0.88736 0.79534 0.76509 0.0
H961 H 0.94463 0.83268 0.66844 0.0
H962 H 0.87731 0.85088 0.7384 0.0
H963 H 0.95934 0.78116 0.69978 0.0
H964 H 0.9207 0.84028 0.69442 0.0
H965 H 0.91445 0.79054 0.74183 0.0
C966 C 0.89098 0.80667 0.75449 0.0
C967 C 0.88001 0.82358 0.75376 0.0
C968 C 0.92927 0.8274 0.69569 0.0
C969 C 0.91089 0.81793 0.72674 0.0
C970 C 0.94296 0.82304 0.68086 0.0
C971 C 0.95393 0.80616 0.68184 0.0
C972 C 0.92642 0.81472 0.71157 0.0
C973 C 0.95117 0.79429 0.69835 0.0
C974 C 0.90642 0.80385 0.74112 0.0
C975 C 0.88517 0.83749 0.73936 0.0
N976 N 0.93758 0.79871 0.71247 0.0
N977 N 0.90019 0.83432 0.72637 0.0
H978 H 0.0119 0.901 0.5046 0.0
H979 H 0.03464 0.82679 0.58984 0.0
H980 H 0.06718 0.87276 0.50855 0.0
H981 H 0.97809 0.85178 0.58195 0.0
H982 H 0.04809 0.84571 0.56199 0.0
H983 H 0.0002 0.88459 0.53434 0.0
C984 C 0.02151 0.89117 0.51161 0.0
C985 C 0.04049 0.88812 0.50395 0.0
C986 C 0.03279 0.84714 0.56648 0.0
C987 C 0.02731 0.86954 0.53834 0.0
C988 C 0.02515 0.83645 0.58244 0.0
C989 C 0.00519 0.83762 0.58813 0.0
C990 C 0.02036 0.85909 0.55623 0.0
C991 C 0.99353 0.85031 0.57799 0.0
C992 C 0.01489 0.88194 0.52872 0.0
C993 C 0.05249 0.87562 0.514 0.0
N994 N 0.00125 0.86045 0.56249 0.0
N995 N 0.04568 0.86675 0.53067 0.0
H996 H 0.1472 0.79334 0.70766 0.0
H997 H 0.04352 0.73839 0.67116 0.0
H998 H 0.13295 0.72965 0.70931 0.0
H999 H 0.0619 0.79902 0.65688 0.0
H1000 H 0.07669 0.73501 0.68454 0.0
H1001 H 0.11674 0.79592 0.68823 0.0
C1002 C 0.13777 0.77988 0.70375 0.0
C1003 C 0.14256 0.76126 0.71021 0.0
C1004 C 0.07358 0.74902 0.67835 0.0
C1005 C 0.10768 0.76412 0.68814 0.0
C1006 C 0.05458 0.75099 0.67077 0.0
C1007 C 0.0499 0.76907 0.66303 0.0
C1008 C 0.088 0.76533 0.67847 0.0
C1009 C 0.06489 0.78483 0.66276 0.0
C1010 C 0.12044 0.78135 0.69262 0.0
C1011 C 0.12994 0.74428 0.70454 0.0
N1012 N 0.08324 0.78268 0.67059 0.0
N1013 N 0.11298 0.74616 0.69405 0.0
H1014 H 0.91231 0.68561 0.51455 0.0
H1015 H 0.98678 0.72083 0.60446 0.0
H1016 H 0.96617 0.65739 0.52689 0.0
H1017 H 0.94395 0.75871 0.5816 0.0
H1018 H 0.97622 0.69508 0.57893 0.0
H1019 H 0.92077 0.71047 0.54182 0.0
C1020 C 0.92588 0.68465 0.52304 0.0
C1021 C 0.93865 0.66957 0.51842 0.0
C1022 C 0.9691 0.70901 0.57955 0.0
C1023 C 0.94831 0.69769 0.54956 0.0
C1024 C 0.97505 0.72369 0.59417 0.0
C1025 C 0.96631 0.742 0.5951 0.0
C1026 C 0.95419 0.71258 0.56584 0.0
C1027 C 0.95118 0.74485 0.58135 0.0
C1028 C 0.93072 0.69884 0.53851 0.0
C1029 C 0.95608 0.66898 0.5298 0.0
N1030 N 0.9456 0.73029 0.56726 0.0
N1031 N 0.96037 0.68281 0.54488 0.0
H1032 H 0.76551 0.91335 0.27494 0.0
H1033 H 0.84003 0.99136 0.22175 0.0
H1034 H 0.77696 0.90952 0.2118 0.0
H1035 H 0.81926 0.00031 0.28196 0.0
H1036 H 0.81585 0.96236 0.21714 0.0
H1037 H 0.78396 0.94602 0.27724 0.0
C1038 C 0.77165 0.91946 0.26147 0.0
C1039 C 0.76966 0.90856 0.24313 0.0
C1040 C 0.81642 0.97082 0.23128 0.0
C1041 C 0.79129 0.94596 0.2458 0.0
C1042 C 0.83022 0.98739 0.23393 0.0
C1043 C 0.83184 0.99816 0.25236 0.0
C1044 C 0.80429 0.96486 0.24722 0.0
C1045 C 0.81866 0.99238 0.26755 0.0
C1046 C 0.7823 0.93813 0.26284 0.0
C1047 C 0.77838 0.91719 0.22632 0.0
N1048 N 0.80561 0.97599 0.26471 0.0
N1049 N 0.78894 0.93531 0.22808 0.0
H1050 H 0.80339 0.18389 0.25396 0.0
H1051 H 0.84476 0.09738 0.31584 0.0
H1052 H 0.79639 0.17931 0.31733 0.0
H1053 H 0.85804 0.10453 0.25378 0.0
H1054 H 0.82858 0.12861 0.31678 0.0
H1055 H 0.82479 0.15596 0.25354 0.0
C1056 C 0.80644 0.17711 0.26778 0.0
C1057 C 0.79804 0.18395 0.2857 0.0
C1058 C 0.83515 0.12348 0.30297 0.0
C1059 C 0.82249 0.15205 0.28534 0.0
C1060 C 0.8444 0.10561 0.30243 0.0
C1061 C 0.85264 0.09827 0.28467 0.0
C1062 C 0.83391 0.13404 0.28557 0.0
C1063 C 0.85184 0.10964 0.26778 0.0
C1064 C 0.81872 0.16124 0.26755 0.0
C1065 C 0.8027 0.17474 0.3032 0.0
N1066 N 0.84244 0.12688 0.26858 0.0
N1067 N 0.81446 0.15921 0.30255 0.0
H1068 H 0.31511 0.02926 0.9582 0.0
H1069 H 0.2908 0.92208 0.00284 0.0
H1070 H 0.35971 0.98774 0.96729 0.0
H1071 H 0.24539 0.95859 0.98274 0.0
H1072 H 0.31638 0.94657 0.99117 0.0
H1073 H 0.28935 0.00407 0.96833 0.0
C1074 C 0.31945 0.01481 0.9623 0.0
C1075 C 0.33955 0.01055 0.96193 0.0
C1076 C 0.30082 0.94918 0.98926 0.0
C1077 C 0.31023 0.98172 0.97356 0.0
C1078 C 0.2862 0.93524 0.99598 0.0
C1079 C 0.26592 0.9383 0.99378 0.0
C1080 C 0.29512 0.96638 0.98043 0.0
C1081 C 0.26085 0.95561 0.98472 0.0
C1082 C 0.30476 0.00043 0.968 0.0
C1083 C 0.34436 0.99155 0.96719 0.0
N1084 N 0.27535 0.96903 0.97845 0.0
N1085 N 0.32982 0.97786 0.97291 0.0
H1086 H 0.244 0.4132 0.30286 0.0
H1087 H 0.13858 0.44751 0.27232 0.0
H1088 H 0.19581 0.36926 0.28624 0.0
H1089 H 0.17687 0.47973 0.31658 0.0
H1090 H 0.1603 0.41965 0.27254 0.0
H1091 H 0.22072 0.43934 0.30257 0.0
C1092 C 0.22852 0.40912 0.29897 0.0
C1093 C 0.22177 0.38912 0.29452 0.0
C1094 C 0.16375 0.43281 0.28227 0.0
C1095 C 0.19509 0.41889 0.29419 0.0
C1096 C 0.15144 0.44867 0.28214 0.0
C1097 C 0.15596 0.46595 0.29444 0.0
C1098 C 0.18084 0.43454 0.29445 0.0
C1099 C 0.17278 0.4667 0.30689 0.0
C1100 C 0.21523 0.42399 0.29897 0.0
C1101 C 0.20151 0.38455 0.28982 0.0
N1102 N 0.18472 0.45133 0.30641 0.0
N1103 N 0.18883 0.39939 0.28963 0.0
H1104 H 0.14203 0.02418 0.47917 0.0
H1105 H 0.24209 0.09094 0.4578 0.0
H1106 H 0.17063 0.02248 0.42186 0.0
H1107 H 0.20116 0.10555 0.50471 0.0
H1108 H 0.21809 0.06371 0.44565 0.0
H1109 H 0.16592 0.05176 0.49031 0.0
C1110 C 0.15348 0.02954 0.46899 0.0
C1111 C 0.15449 0.02102 0.44962 0.0
C1112 C 0.21437 0.07296 0.45854 0.0
C1113 C 0.18174 0.05262 0.4622 0.0
C1114 C 0.22805 0.08845 0.46552 0.0
C1115 C 0.22361 0.1005 0.48232 0.0
C1116 C 0.19629 0.06935 0.46862 0.0
C1117 C 0.20519 0.09666 0.49169 0.0
C1118 C 0.16698 0.04538 0.47529 0.0
C1119 C 0.16937 0.02873 0.4369 0.0
N1120 N 0.19226 0.08132 0.48479 0.0
N1121 N 0.18254 0.04407 0.44346 0.0
H1122 H 0.74477 0.14725 0.7699 0.0
H1123 H 0.65489 0.0707 0.72974 0.0
H1124 H 0.71889 0.14814 0.71125 0.0
H1125 H 0.6827 0.06773 0.78728 0.0
H1126 H 0.67884 0.09849 0.72239 0.0
H1127 H 0.72267 0.11768 0.77629 0.0
C1128 C 0.73452 0.14116 0.75832 0.0
C1129 C 0.73369 0.1502 0.74 0.0
C1130 C 0.67978 0.09171 0.73659 0.0
C1131 C 0.70819 0.11643 0.74731 0.0
C1132 C 0.66611 0.07581 0.7408 0.0
C1133 C 0.66671 0.06692 0.75921 0.0
C1134 C 0.69414 0.09887 0.75091 0.0
C1135 C 0.68165 0.07415 0.77292 0.0
C1136 C 0.72185 0.12431 0.76201 0.0
C1137 C 0.71986 0.14183 0.72568 0.0
N1138 N 0.6947 0.08978 0.76853 0.0
N1139 N 0.70766 0.12543 0.72964 0.0
H1140 H 0.34531 0.03116 0.59182 0.0
H1141 H 0.33264 0.09798 0.4981 0.0
H1142 H 0.37285 0.021 0.53474 0.0
H1143 H 0.30058 0.10644 0.55298 0.0
H1144 H 0.35032 0.07212 0.51295 0.0
H1145 H 0.33117 0.06073 0.57933 0.0
C1146 C 0.34843 0.03519 0.5767 0.0
C1147 C 0.36011 0.02348 0.56424 0.0
C1148 C 0.33954 0.0797 0.52185 0.0
C1149 C 0.34407 0.05725 0.5499 0.0
C1150 C 0.32947 0.09455 0.51338 0.0
C1151 C 0.31498 0.10428 0.52426 0.0
C1152 C 0.33505 0.0744 0.54134 0.0
C1153 C 0.3116 0.09928 0.54404 0.0
C1154 C 0.34034 0.05203 0.56958 0.0
C1155 C 0.36361 0.02934 0.54475 0.0
N1156 N 0.32143 0.08453 0.55191 0.0
N1157 N 0.35562 0.04576 0.5382 0.0
H1158 H 0.64735 0.53001 0.60287 0.0
H1159 H 0.65545 0.4465 0.51496 0.0
H1160 H 0.618 0.53018 0.54583 0.0
H1161 H 0.6878 0.44614 0.57035 0.0
H1162 H 0.63833 0.47486 0.52814 0.0
H1163 H 0.65964 0.49752 0.59305 0.0
C1164 C 0.64345 0.52318 0.58832 0.0
C1165 C 0.63186 0.53294 0.57504 0.0
C1166 C 0.64901 0.4685 0.53754 0.0
C1167 C 0.64574 0.49583 0.56378 0.0
C1168 C 0.65874 0.45222 0.53004 0.0
C1169 C 0.67321 0.44408 0.54151 0.0
C1170 C 0.6539 0.4769 0.55661 0.0
C1171 C 0.67676 0.45201 0.561 0.0
C1172 C 0.65046 0.50467 0.58274 0.0
C1173 C 0.62726 0.52344 0.55638 0.0
N1174 N 0.66735 0.46819 0.56787 0.0
N1175 N 0.63424 0.50549 0.55131 0.0
H1176 H 0.68605 0.3155 0.38419 0.0
H1177 H 0.73189 0.33523 0.49284 0.0
H1178 H 0.72473 0.27568 0.41071 0.0
H1179 H 0.68511 0.36834 0.46986 0.0
H1180 H 0.7278 0.31179 0.46395 0.0
H1181 H 0.68385 0.33362 0.41625 0.0
C1182 C 0.69387 0.31036 0.3968 0.0
C1183 C 0.70572 0.29409 0.39464 0.0
C1184 C 0.71825 0.32403 0.46536 0.0
C1185 C 0.70356 0.3151 0.43143 0.0
C1186 C 0.72056 0.33743 0.48187 0.0
C1187 C 0.709 0.35394 0.48366 0.0
C1188 C 0.70442 0.32728 0.45043 0.0
C1189 C 0.69447 0.35592 0.46904 0.0
C1190 C 0.69268 0.3208 0.41512 0.0
C1191 C 0.71576 0.28839 0.41152 0.0
N1192 N 0.69278 0.34292 0.45291 0.0
N1193 N 0.71459 0.29899 0.42915 0.0
H1194 H 0.50455 0.03545 0.89183 0.0
H1195 H 0.56629 0.06181 0.79431 0.0
H1196 H 0.49604 0.08742 0.85855 0.0
H1197 H 0.58562 0.02128 0.83693 0.0
H1198 H 0.53895 0.06976 0.81639 0.0
H1199 H 0.5327 0.02815 0.87037 0.0
C1200 C 0.50857 0.04526 0.87993 0.0
C1201 C 0.49798 0.06204 0.87689 0.0
C1202 C 0.54923 0.05921 0.82095 0.0
C1203 C 0.53011 0.05385 0.85241 0.0
C1204 C 0.56482 0.05462 0.80834 0.0
C1205 C 0.57825 0.04084 0.81379 0.0
C1206 C 0.54689 0.04978 0.83903 0.0
C1207 C 0.57564 0.03203 0.83217 0.0
C1208 C 0.5247 0.04117 0.8678 0.0
C1209 C 0.50393 0.07441 0.86145 0.0
N1210 N 0.56017 0.03655 0.84409 0.0
N1211 N 0.51955 0.07001 0.8497 0.0
H1212 H 0.26973 0.27972 0.41415 0.0
H1213 H 0.3066 0.18013 0.45786 0.0
H1214 H 0.31199 0.24305 0.38489 0.0
H1215 H 0.25648 0.21002 0.48138 0.0
H1216 H 0.31201 0.20601 0.43382 0.0
H1217 H 0.26747 0.2568 0.44134 0.0
C1218 C 0.27852 0.26687 0.41341 0.0
C1219 C 0.29103 0.26331 0.39715 0.0
C1220 C 0.29991 0.20697 0.44432 0.0
C1221 C 0.28872 0.23721 0.42834 0.0
C1222 C 0.29685 0.19224 0.45812 0.0
C1223 C 0.28094 0.19279 0.47155 0.0
C1224 C 0.287 0.22241 0.44396 0.0
C1225 C 0.26884 0.2089 0.47121 0.0
C1226 C 0.27731 0.25387 0.429 0.0
C1227 C 0.30234 0.24659 0.39721 0.0
N1228 N 0.27204 0.223 0.45754 0.0
N1229 N 0.30088 0.23416 0.41252 0.0
H1230 H 0.5094 0.48185 0.84166 0.0
H1231 H 0.40194 0.52451 0.83324 0.0
H1232 H 0.47012 0.48862 0.89175 0.0
H1233 H 0.43786 0.50853 0.78266 0.0
H1234 H 0.42734 0.51317 0.85525 0.0
H1235 H 0.48387 0.4933 0.82005 0.0
C1236 C 0.4954 0.48579 0.8481 0.0
C1237 C 0.49187 0.48429 0.86852 0.0
C1238 C 0.42962 0.51215 0.83933 0.0
C1239 C 0.46254 0.49738 0.84388 0.0
C1240 C 0.41516 0.51868 0.82676 0.0
C1241 C 0.41775 0.51745 0.80607 0.0
C1242 C 0.44682 0.50448 0.83113 0.0
C1243 C 0.43517 0.50972 0.79851 0.0
C1244 C 0.48079 0.49224 0.83576 0.0
C1245 C 0.47336 0.48935 0.87605 0.0
N1246 N 0.44903 0.50357 0.81103 0.0
N1247 N 0.4594 0.49576 0.86374 0.0
H1248 H 0.74945 0.71776 0.17448 0.0
H1249 H 0.71839 0.69793 0.06017 0.0
H1250 H 0.71789 0.75831 0.1407 0.0
H1251 H 0.76638 0.66883 0.08634 0.0
H1252 H 0.71383 0.71622 0.09172 0.0
H1253 H 0.75185 0.69595 0.14423 0.0
C1254 C 0.74292 0.72196 0.16073 0.0
C1255 C 0.73359 0.73988 0.15997 0.0
C1256 C 0.72533 0.70579 0.09061 0.0
C1257 C 0.73612 0.71512 0.12561 0.0
C1258 C 0.72791 0.69526 0.0726 0.0
C1259 C 0.74291 0.68193 0.07055 0.0
C1260 C 0.73773 0.70294 0.10683 0.0
C1261 C 0.75471 0.67907 0.08725 0.0
C1262 C 0.74438 0.70961 0.14352 0.0
C1263 C 0.72543 0.74474 0.14183 0.0
N1264 N 0.75191 0.68955 0.10473 0.0
N1265 N 0.72685 0.73242 0.1254 0.0
H1266 H 0.00915 0.06919 0.15271 0.0
H1267 H 0.91901 0.08928 0.2255 0.0
H1268 H 0.9948 0.12903 0.17018 0.0
H1269 H 0.92714 0.03247 0.19493 0.0
H1270 H 0.94605 0.1048 0.20562 0.0
H1271 H 0.9791 0.05588 0.16901 0.0
C1272 C -0.0003 0.07953 0.16016 0.0
C1273 C 0.0046 0.10022 0.16036 0.0
C1274 C 0.94169 0.089 0.20314 0.0
C1275 C 0.96987 0.08508 0.1789 0.0
C1276 C 0.92624 0.08015 0.21442 0.0
C1277 C 0.92096 0.05951 0.21201 0.0
C1278 C 0.95194 0.07704 0.18953 0.0
C1279 C 0.93082 0.04838 0.19745 0.0
C1280 C 0.98241 0.07194 0.1693 0.0
C1281 C 0.99155 0.11297 0.16979 0.0
N1282 N 0.94594 0.05725 0.18694 0.0
N1283 N 0.97481 0.10518 0.17888 0.0
H1284 H 0.26517 0.77884 0.12702 0.0
H1285 H 0.22751 0.87886 0.0876 0.0
H1286 H 0.25518 0.82862 0.16777 0.0
H1287 H 0.26492 0.84068 0.05341 0.0
H1288 H 0.23286 0.85932 0.11688 0.0
H1289 H 0.25985 0.79978 0.09917 0.0
C1290 C 0.26171 0.79418 0.13006 0.0
C1291 C 0.26056 0.80206 0.14964 0.0
C1292 C 0.23994 0.8554 0.10295 0.0
C1293 C 0.25447 0.82608 0.11792 0.0
C1294 C 0.23688 0.86646 0.08628 0.0
C1295 C 0.24578 0.86136 0.06807 0.0
C1296 C 0.25162 0.83896 0.10116 0.0
C1297 C 0.2578 0.84519 0.06714 0.0
C1298 C 0.25881 0.80615 0.1142 0.0
C1299 C 0.25626 0.82208 0.15282 0.0
N1300 N 0.2602 0.83447 0.08339 0.0
N1301 N 0.25322 0.83345 0.13707 0.0
H1302 H 0.99007 0.43323 0.17769 0.0
H1303 H 0.06739 0.52677 0.20727 0.0
H1304 H 0.98819 0.4921 0.15511 0.0
H1305 H 0.07012 0.46916 0.23244 0.0
H1306 H 0.03989 0.513 0.18605 0.0
H1307 H 0.02048 0.44496 0.19638 0.0
C1308 C 0.99604 0.4486 0.17668 0.0
C1309 C 0.98645 0.46177 0.165 0.0
C1310 C 0.04653 0.50327 0.1961 0.0
C1311 C 0.02118 0.47521 0.18617 0.0
C1312 C 0.0623 0.51112 0.20819 0.0
C1313 C 0.07094 0.49912 0.22175 0.0
C1314 C 0.03915 0.48326 0.19761 0.0
C1315 C 0.06384 0.47892 0.22219 0.0
C1316 C 0.01337 0.45527 0.18733 0.0
C1317 C 0.9948 0.48153 0.16425 0.0
N1318 N 0.04818 0.47164 0.21041 0.0
N1319 N 0.01163 0.48762 0.17468 0.0
H1320 H 0.38167 0.78272 0.27578 0.0
H1321 H 0.45313 0.72953 0.34656 0.0
H1322 H 0.38396 0.71861 0.27542 0.0
H1323 H 0.46166 0.79233 0.33511 0.0
H1324 H 0.42836 0.72511 0.31983 0.0
H1325 H 0.4117 0.78664 0.29653 0.0
C1326 C 0.38863 0.76947 0.2798 0.0
C1327 C 0.38009 0.75029 0.27406 0.0
C1328 C 0.43581 0.73982 0.32301 0.0
C1329 C 0.41426 0.75468 0.29811 0.0
C1330 C 0.44993 0.74236 0.3383 0.0
C1331 C 0.45934 0.76137 0.3432 0.0
C1332 C 0.43086 0.75645 0.31272 0.0
C1333 C 0.4547 0.77742 0.3319 0.0
C1334 C 0.40574 0.77172 0.29173 0.0
C1335 C 0.3897 0.73367 0.27991 0.0
N1336 N 0.4406 0.77465 0.31734 0.0
N1337 N 0.40613 0.73625 0.29179 0.0
H1338 H 0.96695 0.37959 0.02023 0.0
H1339 H 0.94662 0.28841 0.94085 0.0
H1340 H 0.90769 0.35234 0.00774 0.0
H1341 H -0.00098 0.32993 0.93998 0.0
H1342 H 0.93278 0.30947 0.9673 0.0
H1343 H 0.97979 0.35913 0.99288 0.0
C1344 C 0.95667 0.36919 0.01175 0.0
C1345 C 0.93626 0.36752 0.01627 0.0
C1346 C 0.94726 0.31397 0.96123 0.0
C1347 C 0.95083 0.34412 0.98496 0.0
C1348 C 0.95521 0.30195 0.94621 0.0
C1349 C 0.97403 0.30742 0.93823 0.0
C1350 C 0.95835 0.3314 0.96851 0.0
C1351 C 0.98445 0.32516 0.94566 0.0
C1352 C 0.96397 0.35764 0.99607 0.0
C1353 C 0.92352 0.35406 0.00465 0.0
N1354 N 0.97653 0.33644 0.96048 0.0
N1355 N 0.93104 0.34273 0.98957 0.0
H1356 H 0.64634 0.8261 0.31775 0.0
H1357 H 0.56123 0.75926 0.37222 0.0
H1358 H 0.64465 0.76168 0.31746 0.0
H1359 H 0.55898 0.82216 0.36275 0.0
H1360 H 0.59401 0.76023 0.35627 0.0
H1361 H 0.61667 0.82519 0.3384 0.0
C1362 C 0.63989 0.81174 0.32226 0.0
C1363 C 0.64805 0.79392 0.31588 0.0
C1364 C 0.58637 0.77383 0.35782 0.0
C1365 C 0.61371 0.79277 0.33932 0.0
C1366 C 0.56771 0.77332 0.36698 0.0
C1367 C 0.55731 0.79064 0.36868 0.0
C1368 C 0.59469 0.79182 0.35045 0.0
C1369 C 0.5664 0.80842 0.36163 0.0
C1370 C 0.62282 0.81123 0.33394 0.0
C1371 C 0.63874 0.77575 0.32188 0.0
N1372 N 0.58452 0.80852 0.35277 0.0
N1373 N 0.62201 0.77563 0.33325 0.0
H1374 H 0.04832 0.14544 0.99568 0.0
H1375 H 0.04356 0.24564 0.93778 0.0
H1376 H 0.07334 0.20278 0.01961 0.0
H1377 H 0.99752 0.19708 0.93219 0.0
H1378 H 0.06025 0.22754 0.96283 0.0
H1379 H 0.03507 0.16192 0.96735 0.0
C1380 C 0.0512 0.16148 0.99481 0.0
C1381 C 0.06187 0.17284 0.00994 0.0
C1382 C 0.04659 0.22082 0.95597 0.0
C1383 C 0.04695 0.19164 0.97768 0.0
C1384 C 0.03712 0.23104 0.9416 0.0
C1385 C 0.01907 0.22287 0.933 0.0
C1386 C 0.03813 0.20216 0.96148 0.0
C1387 C 0.01135 0.20395 0.93857 0.0
C1388 C 0.04357 0.17084 0.97875 0.0
C1389 C 0.06507 0.19357 0.00826 0.0
N1390 N 0.02093 0.1942 0.95249 0.0
N1391 N 0.05767 0.20233 0.99236 0.0
H1392 H 0.38108 0.34319 0.23504 0.0
H1393 H 0.46221 0.26806 0.19962 0.0
H1394 H 0.38693 0.2858 0.25977 0.0
H1395 H 0.45035 0.32051 0.16831 0.0
H1396 H 0.43723 0.2765 0.22421 0.0
H1397 H 0.40868 0.33698 0.21252 0.0
C1398 C 0.38813 0.32929 0.23573 0.0
C1399 C 0.38163 0.31499 0.24933 0.0
C1400 C 0.44015 0.28621 0.212 0.0
C1401 C 0.41337 0.30792 0.22378 0.0
C1402 C 0.45447 0.28144 0.19797 0.0
C1403 C 0.4583 0.29352 0.18178 0.0
C1404 C 0.42959 0.30321 0.20988 0.0
C1405 C 0.44781 0.31069 0.18048 0.0
C1406 C 0.40395 0.32581 0.22295 0.0
C1407 C 0.39158 0.29739 0.24977 0.0
N1408 N 0.43387 0.31499 0.1943 0.0
N1409 N 0.4069 0.29435 0.23717 0.0
H1410 H 0.51142 0.40417 0.01717 0.0
H1411 H 0.54184 0.3242 0.09387 0.0
H1412 H 0.56908 0.38005 0.01713 0.0
H1413 H 0.48296 0.345 0.0891 0.0
H1414 H 0.55344 0.34705 0.06823 0.0
H1415 H 0.50184 0.38453 0.04556 0.0
C1416 C 0.52203 0.39461 0.02304 0.0
C1417 C 0.54101 0.39361 0.01462 0.0
C1418 C 0.53803 0.34669 0.07295 0.0
C1419 C 0.53024 0.37126 0.04743 0.0
C1420 C 0.53144 0.33375 0.08764 0.0
C1421 C 0.51138 0.3326 0.0935 0.0
C1422 C 0.52444 0.35855 0.06417 0.0
C1423 C 0.49852 0.34526 0.08492 0.0
C1424 C 0.51661 0.38352 0.03938 0.0
C1425 C 0.55432 0.38134 0.02321 0.0
N1426 N 0.50524 0.35761 0.07063 0.0
N1427 N 0.54865 0.37057 0.03911 0.0
H1428 H 0.65496 0.26682 0.20602 0.0
H1429 H 0.54115 0.22675 0.18544 0.0
H1430 H 0.62021 0.22771 0.24395 0.0
H1431 H 0.56897 0.27817 0.15732 0.0
H1432 H 0.57225 0.22315 0.20295 0.0
H1433 H 0.62568 0.26746 0.18413 0.0
C1434 C 0.64123 0.25821 0.20958 0.0
C1435 C 0.63987 0.24732 0.22684 0.0
C1436 C 0.57161 0.23519 0.19289 0.0
C1437 C 0.60658 0.24793 0.20203 0.0
C1438 C 0.55385 0.23724 0.18283 0.0
C1439 C 0.55238 0.25292 0.17002 0.0
C1440 C 0.58815 0.24885 0.19013 0.0
C1441 C 0.56941 0.26596 0.16717 0.0
C1442 C 0.62456 0.25867 0.19719 0.0
C1443 C 0.62178 0.23648 0.2309 0.0
N1444 N 0.58661 0.26369 0.17724 0.0
N1445 N 0.60585 0.23708 0.21861 0.0
H1446 H 0.44293 0.18871 0.99728 0.0
H1447 H 0.47897 0.20729 0.11018 0.0
H1448 H 0.43946 0.14247 0.03968 0.0
H1449 H 0.4673 0.25513 0.07227 0.0
H1450 H 0.46665 0.18304 0.08384 0.0
H1451 H 0.45402 0.21318 0.02399 0.0
C1452 C 0.44448 0.18375 0.01223 0.0
C1453 C 0.44025 0.1636 0.01633 0.0
C1454 C 0.46673 0.19885 0.08134 0.0
C1455 C 0.45297 0.19137 0.04685 0.0
C1456 C 0.47381 0.21269 0.09634 0.0
C1457 C 0.47416 0.23326 0.09343 0.0
C1458 C 0.46015 0.20563 0.06324 0.0
C1459 C 0.46725 0.23942 0.07519 0.0
C1460 C 0.45072 0.1977 0.02746 0.0
C1461 C 0.44236 0.15793 0.03596 0.0
N1462 N 0.46062 0.22565 0.06075 0.0
N1463 N 0.44869 0.17173 0.05048 0.0
H1464 H 0.24887 0.41534 0.75208 0.0
H1465 H 0.34897 0.47889 0.72223 0.0
H1466 H 0.29504 0.39145 0.71562 0.0
H1467 H 0.3106 0.49645 0.77032 0.0
H1468 H 0.32582 0.44961 0.71453 0.0
H1469 H 0.26804 0.44783 0.75386 0.0
C1470 C 0.26301 0.41692 0.74439 0.0
C1471 C 0.2705 0.40053 0.73394 0.0
C1472 C 0.3224 0.45998 0.72664 0.0
C1473 C 0.29234 0.43777 0.7357 0.0
C1474 C 0.33556 0.47674 0.73102 0.0
C1475 C 0.33184 0.49002 0.74712 0.0
C1476 C 0.30534 0.45654 0.73836 0.0
C1477 C 0.31418 0.48649 0.75793 0.0
C1478 C 0.27388 0.4355 0.74534 0.0
C1479 C 0.28863 0.40364 0.72381 0.0
N1480 N 0.30165 0.47002 0.75343 0.0
N1481 N 0.29902 0.42186 0.72508 0.0
H1482 H 0.2757 0.66468 0.8126 0.0
H1483 H 0.35155 0.59749 0.75349 0.0
H1484 H 0.29228 0.67359 0.75158 0.0
H1485 H 0.3292 0.58632 0.8123 0.0
H1486 H 0.33246 0.62714 0.75318 0.0
H1487 H 0.29759 0.63758 0.81333 0.0
C1488 C 0.2841 0.66105 0.79937 0.0
C1489 C 0.28222 0.67152 0.78202 0.0
C1490 C 0.33185 0.61824 0.76618 0.0
C1491 C 0.30723 0.64016 0.78267 0.0
C1492 C 0.3428 0.60138 0.7664 0.0
C1493 C 0.34188 0.58937 0.78291 0.0
C1494 C 0.31999 0.62311 0.78261 0.0
C1495 C 0.33028 0.59507 0.79921 0.0
C1496 C 0.29653 0.64545 0.79976 0.0
C1497 C 0.29317 0.66581 0.76522 0.0
N1498 N 0.31977 0.61146 0.79861 0.0
N1499 N 0.30524 0.6505 0.76596 0.0
H1500 H 0.86189 0.49289 0.47674 0.0
H1501 H 0.74578 0.46261 0.49208 0.0
H1502 H 0.81596 0.53267 0.46654 0.0
H1503 H 0.79262 0.4293 0.51464 0.0
H1504 H 0.77109 0.48718 0.48006 0.0
H1505 H 0.83641 0.46795 0.48784 0.0
C1506 C 0.8464 0.49629 0.47668 0.0
C1507 C 0.84099 0.51484 0.4707 0.0
C1508 C 0.77581 0.47451 0.48767 0.0
C1509 C 0.81182 0.48648 0.48352 0.0
C1510 C 0.76138 0.46045 0.4945 0.0
C1511 C 0.7671 0.44387 0.5044 0.0
C1512 C 0.7961 0.47189 0.4906 0.0
C1513 C 0.78753 0.44187 0.50715 0.0
C1514 C 0.8319 0.48212 0.48316 0.0
C1515 C 0.82076 0.51861 0.47119 0.0
N1516 N 0.8013 0.45569 0.50022 0.0
N1517 N 0.80688 0.50452 0.47746 0.0
H1518 H 0.7136 0.88557 0.76884 0.0
H1519 H 0.66273 0.9752 0.82571 0.0
H1520 H 0.7148 0.89648 0.83257 0.0
H1521 H 0.65226 0.95953 0.76341 0.0
H1522 H 0.68108 0.94561 0.82831 0.0
H1523 H 0.69052 0.91184 0.76622 0.0
C1524 C 0.70893 0.8934 0.78227 0.0
C1525 C 0.71619 0.88884 0.80095 0.0
C1526 C 0.67466 0.9485 0.81408 0.0
C1527 C 0.68984 0.91885 0.79806 0.0
C1528 C 0.6642 0.96544 0.81257 0.0
C1529 C 0.65607 0.9699 0.79428 0.0
C1530 C 0.67727 0.93597 0.79711 0.0
C1531 C 0.65832 0.95664 0.7778 0.0
C1532 C 0.69569 0.90831 0.78077 0.0
C1533 C 0.70946 0.8993 0.81788 0.0
N1534 N 0.66891 0.94034 0.77955 0.0
N1535 N 0.69682 0.91389 0.81601 0.0
H1536 H 0.66454 0.53017 0.92667 0.0
H1537 H 0.70017 0.61454 0.00983 0.0
H1538 H 0.63737 0.53594 0.98445 0.0
H1539 H 0.73854 0.5959 0.96218 0.0
H1540 H 0.67444 0.58907 0.99786 0.0
H1541 H 0.68952 0.55754 0.93678 0.0
C1542 C 0.66384 0.53725 0.94143 0.0
C1543 C 0.64906 0.53074 0.95484 0.0
C1544 C 0.68849 0.59059 0.99001 0.0
C1545 C 0.67723 0.56195 0.96637 0.0
C1546 C 0.70315 0.60517 0.99678 0.0
C1547 C 0.72158 0.60727 0.98706 0.0
C1548 C 0.69218 0.57814 0.97328 0.0
C1549 C 0.7246 0.5947 0.97021 0.0
C1550 C 0.67807 0.55276 0.94721 0.0
C1551 C 0.64873 0.54034 0.9738 0.0
N1552 N 0.71003 0.58065 0.96383 0.0
N1553 N 0.66258 0.5555 0.97898 0.0
H1554 H 0.21278 0.64171 0.20862 0.0
H1555 H 0.17773 0.56161 0.28816 0.0
H1556 H 0.23493 0.64367 0.26899 0.0
H1557 H 0.14893 0.56514 0.23118 0.0
H1558 H 0.20135 0.58946 0.27995 0.0
H1559 H 0.19143 0.61168 0.21541 0.0
C1560 C 0.21312 0.63587 0.22332 0.0
C1561 C 0.22563 0.64529 0.23828 0.0
C1562 C 0.18991 0.58408 0.26922 0.0
C1563 C 0.20144 0.61077 0.24606 0.0
C1564 C 0.17645 0.56814 0.27386 0.0
C1565 C 0.16123 0.56111 0.26039 0.0
C1566 C 0.18819 0.59304 0.25095 0.0
C1567 C 0.16034 0.57014 0.24207 0.0
C1568 C 0.20102 0.61866 0.22715 0.0
C1569 C 0.22572 0.63681 0.25693 0.0
N1570 N 0.17359 0.58569 0.23792 0.0
N1571 N 0.21378 0.62007 0.26029 0.0
H1572 H 0.87114 0.51777 0.03255 0.0
H1573 H 0.80189 0.60782 0.05513 0.0
H1574 H 0.84438 0.52921 0.08979 0.0
H1575 H 0.82948 0.59534 0.99849 0.0
H1576 H 0.81905 0.58074 0.06904 0.0
H1577 H 0.85718 0.54735 0.02053 0.0
C1578 C 0.86218 0.52644 0.04256 0.0
C1579 C 0.85875 0.52087 0.06215 0.0
C1580 C 0.82147 0.58407 0.05362 0.0
C1581 C 0.8429 0.55506 0.04855 0.0
C1582 C 0.81176 0.59958 0.0457 0.0
C1583 C 0.81416 0.60376 0.02558 0.0
C1584 C 0.83362 0.5727 0.04131 0.0
C1585 C 0.82707 0.59258 0.01404 0.0
C1586 C 0.85435 0.54345 0.03574 0.0
C1587 C 0.84745 0.53299 0.0746 0.0
N1588 N 0.83619 0.57751 0.02203 0.0
N1589 N 0.83983 0.54947 0.06756 0.0
H1590 H 0.14752 0.02389 0.10087 0.0
H1591 H 0.15407 0.94534 0.00826 0.0
H1592 H 0.12018 0.02889 0.0435 0.0
H1593 H 0.18751 0.9416 0.06254 0.0
H1594 H 0.13746 0.97311 0.02343 0.0
H1595 H 0.15886 0.99139 0.0893 0.0
C1596 C 0.14385 0.0181 0.0859 0.0
C1597 C 0.13319 0.02922 0.073 0.0
C1598 C 0.14829 0.96615 0.03216 0.0
C1599 C 0.14588 0.99218 0.05979 0.0
C1600 C 0.15773 0.95021 0.02351 0.0
C1601 C 0.17236 0.94132 0.03408 0.0
C1602 C 0.15362 0.97345 0.0515 0.0
C1603 C 0.17635 0.94812 0.05386 0.0
C1604 C 0.15032 -0.00039 0.07931 0.0
C1605 C 0.12876 0.02105 0.05378 0.0
N1606 N 0.16722 0.96401 0.06187 0.0
N1607 N 0.13517 0.0031 0.04777 0.0
loop_
_geom_bond_atom_site_label_1
_geom_bond_atom_site_label_2
_geom_bond_distance
_geom_bond_site_symmetry_2
_ccdc_geom_bond_type
C0 C1 1.384 . S
C0 H13 0.947 . S
C0 C35 1.382 . S
C1 C0 1.384 . S
C1 C2 1.378 . S
C2 C1 1.378 . S
C2 C3 1.378 . S
C2 H14 0.952 . S
C3 C2 1.378 . S
C3 H15 0.950 . S
C3 C34 1.383 . S
H4 C23 0.947 . S
H5 C24 0.946 . S
H6 C26 0.953 . S
H7 C27 0.945 . S
H8 C29 0.952 . S
H9 C30 0.949 . S
H10 C32 0.950 . S
H11 C33 0.948 . S
H12 C35 0.951 . S
H13 C0 0.947 . S
H14 C2 0.952 . S
H15 C3 0.950 . S
N16 C19 1.382 . S
N16 C21 1.363 . S
N17 C19 1.371 . S
N17 C20 1.372 . S
N18 C20 1.361 . S
N18 C21 1.377 . S
C19 N16 1.382 . S
C19 N17 1.371 . S
C19 C22 1.480 . S
C20 N17 1.372 . S
C20 N18 1.361 . S
C20 C28 1.457 . S
C21 N16 1.363 . S
C21 N18 1.377 . S
C21 C34 1.479 . S
C22 C19 1.480 . S
C22 C23 1.383 . S
C22 C27 1.385 . S
C23 H4 0.947 . S
C23 C22 1.383 . S
C23 C24 1.388 . S
C24 H5 0.946 . S
C24 C23 1.388 . S
C24 C25 1.384 . S
C25 C24 1.384 . S
C25 C26 1.377 . S
C26 H6 0.953 . S
C26 C25 1.377 . S
C26 C27 1.369 . S
C27 H7 0.945 . S
C27 C22 1.385 . S
C27 C26 1.369 . S
C28 C20 1.457 . S
C28 C29 1.372 . S
C28 C33 1.364 . S
C29 H8 0.952 . S
C29 C28 1.372 . S
C29 C30 1.389 . S
C30 H9 0.949 . S
C30 C29 1.389 . S
C30 C31 1.387 . S
C31 C30 1.387 . S
C31 C32 1.372 . S
C32 H10 0.950 . S
C32 C31 1.372 . S
C32 C33 1.379 . S
C33 H11 0.948 . S
C33 C28 1.364 . S
C33 C32 1.379 . S
C34 C3 1.383 . S
C34 C21 1.479 . S
C34 C35 1.398 . S
C35 C0 1.382 . S
C35 H12 0.951 . S
C35 C34 1.398 . S
C36 C37 1.384 . S
C36 H49 0.947 . S
C36 C71 1.382 . S
C37 C36 1.384 . S
C37 C38 1.378 . S
C38 C37 1.378 . S
C38 C39 1.378 . S
C38 H50 0.952 . S
C39 C38 1.378 . S
C39 H51 0.950 . S
C39 C70 1.383 . S
H40 C59 0.947 . S
H41 C60 0.946 . S
H42 C62 0.953 . S
H43 C63 0.945 . S
H44 C65 0.952 . S
H45 C66 0.949 . S
H46 C68 0.950 . S
H47 C69 0.948 . S
H48 C71 0.951 . S
H49 C36 0.947 . S
H50 C38 0.952 . S
H51 C39 0.950 . S
N52 C55 1.382 . S
N52 C57 1.363 . S
N53 C55 1.371 . S
N53 C56 1.372 . S
N54 C56 1.361 . S
N54 C57 1.377 . S
C55 N52 1.382 . S
C55 N53 1.371 . S
C55 C58 1.480 . S
C56 N53 1.372 . S
C56 N54 1.361 . S
C56 C64 1.457 . S
C57 N52 1.363 . S
C57 N54 1.377 . S
C57 C70 1.479 . S
C58 C55 1.480 . S
C58 C59 1.383 . S
C58 C63 1.385 . S
C59 H40 0.947 . S
C59 C58 1.383 . S
C59 C60 1.388 . S
C60 H41 0.946 . S
C60 C59 1.388 . S
C60 C61 1.384 . S
C61 C60 1.384 . S
C61 C62 1.377 . S
C62 H42 0.953 . S
C62 C61 1.377 . S
C62 C63 1.369 . S
C63 H43 0.945 . S
C63 C58 1.385 . S
C63 C62 1.369 . S
C64 C56 1.457 . S
C64 C65 1.372 . S
C64 C69 1.364 . S
C65 H44 0.952 . S
C65 C64 1.372 . S
C65 C66 1.389 . S
C66 H45 0.949 . S
C66 C65 1.389 . S
C66 C67 1.387 . S
C67 C66 1.387 . S
C67 C68 1.372 . S
C68 H46 0.950 . S
C68 C67 1.372 . S
C68 C69 1.379 . S
C69 H47 0.948 . S
C69 C64 1.364 . S
C69 C68 1.379 . S
C70 C39 1.383 . S
C70 C57 1.479 . S
C70 C71 1.398 . S
C71 C36 1.382 . S
C71 H48 0.951 . S
C71 C70 1.398 . S
C72 C73 1.384 . S
C72 H85 0.947 . S
C72 C107 1.382 . S
C73 C72 1.384 . S
C73 C74 1.378 . S
C74 C73 1.378 . S
C74 C75 1.378 . S
C74 H86 0.952 . S
C75 C74 1.378 . S
C75 H87 0.950 . S
C75 C106 1.383 . S
H76 C95 0.947 . S
H77 C96 0.946 . S
H78 C98 0.953 . S
H79 C99 0.945 . S
H80 C101 0.952 . S
H81 C102 0.949 . S
H82 C104 0.950 . S
H83 C105 0.948 . S
H84 C107 0.951 . S
H85 C72 0.947 . S
H86 C74 0.952 . S
H87 C75 0.950 . S
N88 C91 1.382 . S
N88 C93 1.363 . S
N89 C91 1.371 . S
N89 C92 1.372 . S
N90 C92 1.361 . S
N90 C93 1.377 . S
C91 N88 1.382 . S
C91 N89 1.371 . S
C91 C94 1.480 . S
C92 N89 1.372 . S
C92 N90 1.361 . S
C92 C100 1.457 . S
C93 N88 1.363 . S
C93 N90 1.377 . S
C93 C106 1.479 . S
C94 C91 1.480 . S
C94 C95 1.383 . S
C94 C99 1.385 . S
C95 H76 0.947 . S
C95 C94 1.383 . S
C95 C96 1.388 . S
C96 H77 0.946 . S
C96 C95 1.388 . S
C96 C97 1.384 . S
C97 C96 1.384 . S
C97 C98 1.377 . S
C98 H78 0.953 . S
C98 C97 1.377 . S
C98 C99 1.369 . S
C99 H79 0.945 . S
C99 C94 1.385 . S
C99 C98 1.369 . S
C100 C92 1.457 . S
C100 C101 1.372 . S
C100 C105 1.364 . S
C101 H80 0.952 . S
C101 C100 1.372 . S
C101 C102 1.389 . S
C102 H81 0.949 . S
C102 C101 1.389 . S
C102 C103 1.387 . S
C103 C102 1.387 . S
C103 C104 1.372 . S
C104 H82 0.950 . S
C104 C103 1.372 . S
C104 C105 1.379 . S
C105 H83 0.948 . S
C105 C100 1.364 . S
C105 C104 1.379 . S
C106 C75 1.383 . S
C106 C93 1.479 . S
C106 C107 1.398 . S
C107 C72 1.382 . S
C107 H84 0.951 . S
C107 C106 1.398 . S
C108 C109 1.384 . S
C108 H121 0.947 . S
C108 C143 1.382 . S
C109 C108 1.384 . S
C109 C110 1.378 . S
C110 C109 1.378 . S
C110 C111 1.378 . S
C110 H122 0.952 . S
C111 C110 1.378 . S
C111 H123 0.950 . S
C111 C142 1.383 . S
H112 C131 0.947 . S
H113 C132 0.946 . S
H114 C134 0.953 . S
H115 C135 0.945 . S
H116 C137 0.952 . S
H117 C138 0.949 . S
H118 C140 0.950 . S
H119 C141 0.948 . S
H120 C143 0.951 . S
H121 C108 0.947 . S
H122 C110 0.952 . S
H123 C111 0.950 . S
N124 C127 1.382 . S
N124 C129 1.363 . S
N125 C127 1.371 . S
N125 C128 1.372 . S
N126 C128 1.361 . S
N126 C129 1.377 . S
C127 N124 1.382 . S
C127 N125 1.371 . S
C127 C130 1.480 . S
C128 N125 1.372 . S
C128 N126 1.361 . S
C128 C136 1.457 . S
C129 N124 1.363 . S
C129 N126 1.377 . S
C129 C142 1.479 . S
C130 C127 1.480 . S
C130 C131 1.383 . S
C130 C135 1.385 . S
C131 H112 0.947 . S
C131 C130 1.383 . S
C131 C132 1.388 . S
C132 H113 0.946 . S
C132 C131 1.388 . S
C132 C133 1.384 . S
C133 C132 1.384 . S
C133 C134 1.377 . S
C134 H114 0.953 . S
C134 C133 1.377 . S
C134 C135 1.369 . S
C135 H115 0.945 . S
C135 C130 1.385 . S
C135 C134 1.369 . S
C136 C128 1.457 . S
C136 C137 1.372 . S
C136 C141 1.364 . S
C137 H116 0.952 . S
C137 C136 1.372 . S
C137 C138 1.389 . S
C138 H117 0.949 . S
C138 C137 1.389 . S
C138 C139 1.387 . S
C139 C138 1.387 . S
C139 C140 1.372 . S
C140 H118 0.950 . S
C140 C139 1.372 . S
C140 C141 1.379 . S
C141 H119 0.948 . S
C141 C136 1.364 . S
C141 C140 1.379 . S
C142 C111 1.383 . S
C142 C129 1.479 . S
C142 C143 1.398 . S
C143 C108 1.382 . S
C143 H120 0.951 . S
C143 C142 1.398 . S
C144 C145 1.384 . S
C144 H157 0.947 . S
C144 C179 1.382 . S
C145 C144 1.384 . S
C145 C146 1.378 . S
C146 C145 1.378 . S
C146 C147 1.378 . S
C146 H158 0.952 . S
C147 C146 1.378 . S
C147 H159 0.950 . S
C147 C178 1.383 . S
H148 C167 0.947 . S
H149 C168 0.946 . S
H150 C170 0.953 . S
H151 C171 0.945 . S
H152 C173 0.952 . S
H153 C174 0.949 . S
H154 C176 0.950 . S
H155 C177 0.948 . S
H156 C179 0.951 . S
H157 C144 0.947 . S
H158 C146 0.952 . S
H159 C147 0.950 . S
N160 C163 1.382 . S
N160 C165 1.363 . S
N161 C163 1.371 . S
N161 C164 1.372 . S
N162 C164 1.361 . S
N162 C165 1.377 . S
C163 N160 1.382 . S
C163 N161 1.371 . S
C163 C166 1.480 . S
C164 N161 1.372 . S
C164 N162 1.361 . S
C164 C172 1.457 . S
C165 N160 1.363 . S
C165 N162 1.377 . S
C165 C178 1.479 . S
C166 C163 1.480 . S
C166 C167 1.383 . S
C166 C171 1.385 . S
C167 H148 0.947 . S
C167 C166 1.383 . S
C167 C168 1.388 . S
C168 H149 0.946 . S
C168 C167 1.388 . S
C168 C169 1.384 . S
C169 C168 1.384 . S
C169 C170 1.377 . S
C170 H150 0.953 . S
C170 C169 1.377 . S
C170 C171 1.369 . S
C171 H151 0.945 . S
C171 C166 1.385 . S
C171 C170 1.369 . S
C172 C164 1.457 . S
C172 C173 1.372 . S
C172 C177 1.364 . S
C173 H152 0.952 . S
C173 C172 1.372 . S
C173 C174 1.389 1_565 S
C174 H153 0.949 . S
C174 C173 1.389 1_545 S
C174 C175 1.387 . S
C175 C174 1.387 . S
C175 C176 1.372 1_545 S
C176 H154 0.950 . S
C176 C175 1.372 1_565 S
C176 C177 1.379 . S
C177 H155 0.948 . S
C177 C172 1.364 . S
C177 C176 1.379 . S
C178 C147 1.383 . S
C178 C165 1.479 . S
C178 C179 1.398 . S
C179 C144 1.382 . S
C179 H156 0.951 . S
C179 C178 1.398 . S
C180 C181 1.384 . S
C180 H193 0.947 . S
C180 C215 1.382 . S
C181 C180 1.384 . S
C181 C182 1.378 . S
C182 C181 1.378 . S
C182 C183 1.378 . S
C182 H194 0.952 . S
C183 C182 1.378 . S
C183 H195 0.950 . S
C183 C214 1.383 . S
H184 C203 0.947 . S
H185 C204 0.946 . S
H186 C206 0.953 . S
H187 C207 0.945 . S
H188 C209 0.952 . S
H189 C210 0.949 . S
H190 C212 0.950 . S
H191 C213 0.948 . S
H192 C215 0.951 . S
H193 C180 0.947 . S
H194 C182 0.952 . S
H195 C183 0.950 . S
N196 C199 1.382 . S
N196 C201 1.363 . S
N197 C199 1.371 . S
N197 C200 1.372 . S
N198 C200 1.361 . S
N198 C201 1.377 . S
C199 N196 1.382 . S
C199 N197 1.371 . S
C199 C202 1.480 . S
C200 N197 1.372 . S
C200 N198 1.361 . S
C200 C208 1.457 . S
C201 N196 1.363 . S
C201 N198 1.377 . S
C201 C214 1.479 . S
C202 C199 1.480 . S
C202 C203 1.383 . S
C202 C207 1.385 . S
C203 H184 0.947 . S
C203 C202 1.383 . S
C203 C204 1.388 . S
C204 H185 0.946 . S
C204 C203 1.388 . S
C204 C205 1.384 . S
C205 C204 1.384 . S
C205 C206 1.377 . S
C206 H186 0.953 . S
C206 C205 1.377 . S
C206 C207 1.369 . S
C207 H187 0.945 . S
C207 C202 1.385 . S
C207 C206 1.369 . S
C208 C200 1.457 . S
C208 C209 1.372 . S
C208 C213 1.364 . S
C209 H188 0.952 . S
C209 C208 1.372 . S
C209 C210 1.389 . S
C210 H189 0.949 . S
C210 C209 1.389 . S
C210 C211 1.387 . S
C211 C210 1.387 . S
C211 C212 1.372 . S
C212 H190 0.950 . S
C212 C211 1.372 . S
C212 C213 1.379 . S
C213 H191 0.948 . S
C213 C208 1.364 . S
C213 C212 1.379 . S
C214 C183 1.383 . S
C214 C201 1.479 . S
C214 C215 1.398 . S
C215 C180 1.382 . S
C215 H192 0.951 . S
C215 C214 1.398 . S
C216 C217 1.384 . S
C216 H229 0.947 . S
C216 C251 1.382 . S
C217 C216 1.384 . S
C217 C218 1.378 . S
C218 C217 1.378 . S
C218 C219 1.378 . S
C218 H230 0.952 . S
C219 C218 1.378 . S
C219 H231 0.950 . S
C219 C250 1.383 . S
H220 C239 0.947 . S
H221 C240 0.946 . S
H222 C242 0.953 . S
H223 C243 0.945 . S
H224 C245 0.952 . S
H225 C246 0.949 . S
H226 C248 0.950 . S
H227 C249 0.948 . S
H228 C251 0.951 . S
H229 C216 0.947 . S
H230 C218 0.952 . S
H231 C219 0.950 . S
N232 C235 1.382 . S
N232 C237 1.363 . S
N233 C235 1.371 . S
N233 C236 1.372 . S
N234 C236 1.361 . S
N234 C237 1.377 . S
C235 N232 1.382 . S
C235 N233 1.371 . S
C235 C238 1.480 . S
C236 N233 1.372 . S
C236 N234 1.361 . S
C236 C244 1.457 . S
C237 N232 1.363 . S
C237 N234 1.377 . S
C237 C250 1.479 . S
C238 C235 1.480 . S
C238 C239 1.383 . S
C238 C243 1.385 . S
C239 H220 0.947 . S
C239 C238 1.383 . S
C239 C240 1.388 . S
C240 H221 0.946 . S
C240 C239 1.388 . S
C240 C241 1.384 . S
C241 C240 1.384 . S
C241 C242 1.377 . S
C242 H222 0.953 . S
C242 C241 1.377 . S
C242 C243 1.369 . S
C243 H223 0.945 . S
C243 C238 1.385 . S
C243 C242 1.369 . S
C244 C236 1.457 . S
C244 C245 1.372 . S
C244 C249 1.364 . S
C245 H224 0.952 . S
C245 C244 1.372 . S
C245 C246 1.389 . S
C246 H225 0.949 . S
C246 C245 1.389 . S
C246 C247 1.387 . S
C247 C246 1.387 . S
C247 C248 1.372 . S
C248 H226 0.950 . S
C248 C247 1.372 . S
C248 C249 1.379 . S
C249 H227 0.948 . S
C249 C244 1.364 . S
C249 C248 1.379 . S
C250 C219 1.383 . S
C250 C237 1.479 . S
C250 C251 1.398 . S
C251 C216 1.382 . S
C251 H228 0.951 . S
C251 C250 1.398 . S
C252 C253 1.384 . S
C252 H265 0.947 . S
C252 C287 1.382 . S
C253 C252 1.384 . S
C253 C254 1.378 . S
C254 C253 1.378 . S
C254 C255 1.378 . S
C254 H266 0.952 . S
C255 C254 1.378 . S
C255 H267 0.950 . S
C255 C286 1.383 . S
H256 C275 0.947 . S
H257 C276 0.946 . S
H258 C278 0.953 . S
H259 C279 0.945 . S
H260 C281 0.952 . S
H261 C282 0.949 . S
H262 C284 0.950 . S
H263 C285 0.948 . S
H264 C287 0.951 . S
H265 C252 0.947 . S
H266 C254 0.952 . S
H267 C255 0.950 . S
N268 C271 1.382 . S
N268 C273 1.363 . S
N269 C271 1.371 . S
N269 C272 1.372 . S
N270 C272 1.361 . S
N270 C273 1.377 . S
C271 N268 1.382 . S
C271 N269 1.371 . S
C271 C274 1.480 . S
C272 N269 1.372 . S
C272 N270 1.361 . S
C272 C280 1.457 . S
C273 N268 1.363 . S
C273 N270 1.377 . S
C273 C286 1.479 . S
C274 C271 1.480 . S
C274 C275 1.383 . S
C274 C279 1.385 . S
C275 H256 0.947 . S
C275 C274 1.383 . S
C275 C276 1.388 . S
C276 H257 0.946 . S
C276 C275 1.388 . S
C276 C277 1.384 . S
C277 C276 1.384 . S
C277 C278 1.377 . S
C278 H258 0.953 . S
C278 C277 1.377 . S
C278 C279 1.369 . S
C279 H259 0.945 . S
C279 C274 1.385 . S
C279 C278 1.369 . S
C280 C272 1.457 . S
C280 C281 1.372 . S
C280 C285 1.364 . S
C281 H260 0.952 . S
C281 C280 1.372 . S
C281 C282 1.389 . S
C282 H261 0.949 . S
C282 C281 1.389 . S
C282 C283 1.387 . S
C283 C282 1.387 . S
C283 C284 1.372 . S
C284 H262 0.950 . S
C284 C283 1.372 . S
C284 C285 1.379 . S
C285 H263 0.948 . S
C285 C280 1.364 . S
C285 C284 1.379 . S
C286 C255 1.383 . S
C286 C273 1.479 . S
C286 C287 1.398 . S
C287 C252 1.382 . S
C287 H264 0.951 . S
C287 C286 1.398 . S
C288 C289 1.384 . S
C288 H301 0.947 . S
C288 C323 1.382 . S
C289 C288 1.384 . S
C289 C290 1.378 . S
C290 C289 1.378 . S
C290 C291 1.378 . S
C290 H302 0.952 . S
C291 C290 1.378 . S
C291 H303 0.950 . S
C291 C322 1.383 . S
H292 C311 0.947 . S
H293 C312 0.946 . S
H294 C314 0.953 . S
H295 C315 0.945 . S
H296 C317 0.952 . S
H297 C318 0.949 . S
H298 C320 0.950 . S
H299 C321 0.948 . S
H300 C323 0.951 . S
H301 C288 0.947 . S
H302 C290 0.952 . S
H303 C291 0.950 . S
N304 C307 1.382 . S
N304 C309 1.363 . S
N305 C307 1.371 . S
N305 C308 1.372 . S
N306 C308 1.361 . S
N306 C309 1.377 . S
C307 N304 1.382 . S
C307 N305 1.371 . S
C307 C310 1.480 . S
C308 N305 1.372 . S
C308 N306 1.361 . S
C308 C316 1.457 . S
C309 N304 1.363 . S
C309 N306 1.377 . S
C309 C322 1.479 . S
C310 C307 1.480 . S
C310 C311 1.383 . S
C310 C315 1.385 . S
C311 H292 0.947 . S
C311 C310 1.383 . S
C311 C312 1.388 . S
C312 H293 0.946 . S
C312 C311 1.388 . S
C312 C313 1.384 . S
C313 C312 1.384 . S
C313 C314 1.377 . S
C314 H294 0.953 . S
C314 C313 1.377 . S
C314 C315 1.369 . S
C315 H295 0.945 . S
C315 C310 1.385 . S
C315 C314 1.369 . S
C316 C308 1.457 . S
C316 C317 1.372 . S
C316 C321 1.364 . S
C317 H296 0.952 . S
C317 C316 1.372 . S
C317 C318 1.389 . S
C318 H297 0.949 . S
C318 C317 1.389 . S
C318 C319 1.387 . S
C319 C318 1.387 . S
C319 C320 1.372 . S
C320 H298 0.950 . S
C320 C319 1.372 . S
C320 C321 1.379 . S
C321 H299 0.948 . S
C321 C316 1.364 . S
C321 C320 1.379 . S
C322 C291 1.383 . S
C322 C309 1.479 . S
C322 C323 1.398 . S
C323 C288 1.382 . S
C323 H300 0.951 . S
C323 C322 1.398 . S
C324 C325 1.384 . S
C324 H337 0.947 . S
C324 C359 1.382 . S
C325 C324 1.384 . S
C325 C326 1.378 . S
C326 C325 1.378 . S
C326 C327 1.378 . S
C326 H338 0.952 . S
C327 C326 1.378 . S
C327 H339 0.950 . S
C327 C358 1.383 . S
H328 C347 0.947 . S
H329 C348 0.946 . S
H330 C350 0.953 . S
H331 C351 0.945 . S
H332 C353 0.952 . S
H333 C354 0.949 . S
H334 C356 0.950 . S
H335 C357 0.948 . S
H336 C359 0.951 . S
H337 C324 0.947 . S
H338 C326 0.952 . S
H339 C327 0.950 . S
N340 C343 1.382 . S
N340 C345 1.363 . S
N341 C343 1.371 . S
N341 C344 1.372 . S
N342 C344 1.361 . S
N342 C345 1.377 . S
C343 N340 1.382 . S
C343 N341 1.371 . S
C343 C346 1.480 . S
C344 N341 1.372 . S
C344 N342 1.361 . S
C344 C352 1.457 . S
C345 N340 1.363 . S
C345 N342 1.377 . S
C345 C358 1.479 . S
C346 C343 1.480 . S
C346 C347 1.383 . S
C346 C351 1.385 . S
C347 H328 0.947 . S
C347 C346 1.383 . S
C347 C348 1.388 . S
C348 H329 0.946 . S
C348 C347 1.388 . S
C348 C349 1.384 . S
C349 C348 1.384 . S
C349 C350 1.377 . S
C350 H330 0.953 . S
C350 C349 1.377 . S
C350 C351 1.369 . S
C351 H331 0.945 . S
C351 C346 1.385 . S
C351 C350 1.369 . S
C352 C344 1.457 . S
C352 C353 1.372 . S
C352 C357 1.364 . S
C353 H332 0.952 . S
C353 C352 1.372 . S
C353 C354 1.389 . S
C354 H333 0.949 . S
C354 C353 1.389 . S
C354 C355 1.387 . S
C355 C354 1.387 . S
C355 C356 1.372 . S
C356 H334 0.950 . S
C356 C355 1.372 . S
C356 C357 1.379 . S
C357 H335 0.948 . S
C357 C352 1.364 . S
C357 C356 1.379 . S
C358 C327 1.383 . S
C358 C345 1.479 . S
C358 C359 1.398 . S
C359 C324 1.382 . S
C359 H336 0.951 . S
C359 C358 1.398 . S
C360 C361 1.384 . S
C360 H373 0.947 . S
C360 C395 1.382 . S
C361 C360 1.384 . S
C361 C362 1.378 . S
C362 C361 1.378 . S
C362 C363 1.378 . S
C362 H374 0.952 . S
C363 C362 1.378 . S
C363 H375 0.950 . S
C363 C394 1.383 . S
H364 C383 0.947 . S
H365 C384 0.946 . S
H366 C386 0.953 . S
H367 C387 0.945 . S
H368 C389 0.952 . S
H369 C390 0.949 . S
H370 C392 0.950 . S
H371 C393 0.948 . S
H372 C395 0.951 . S
H373 C360 0.947 . S
H374 C362 0.952 . S
H375 C363 0.950 . S
N376 C379 1.382 . S
N376 C381 1.363 . S
N377 C379 1.371 . S
N377 C380 1.372 . S
N378 C380 1.361 . S
N378 C381 1.377 . S
C379 N376 1.382 . S
C379 N377 1.371 . S
C379 C382 1.480 . S
C380 N377 1.372 . S
C380 N378 1.361 . S
C380 C388 1.457 . S
C381 N376 1.363 . S
C381 N378 1.377 . S
C381 C394 1.479 . S
C382 C379 1.480 . S
C382 C383 1.383 . S
C382 C387 1.385 . S
C383 H364 0.947 . S
C383 C382 1.383 . S
C383 C384 1.388 . S
C384 H365 0.946 . S
C384 C383 1.388 . S
C384 C385 1.384 . S
C385 C384 1.384 . S
C385 C386 1.377 . S
C386 H366 0.953 . S
C386 C385 1.377 . S
C386 C387 1.369 . S
C387 H367 0.945 . S
C387 C382 1.385 . S
C387 C386 1.369 . S
C388 C380 1.457 . S
C388 C389 1.372 . S
C388 C393 1.364 . S
C389 H368 0.952 . S
C389 C388 1.372 . S
C389 C390 1.389 . S
C390 H369 0.949 . S
C390 C389 1.389 . S
C390 C391 1.387 . S
C391 C390 1.387 . S
C391 C392 1.372 . S
C392 H370 0.950 . S
C392 C391 1.372 . S
C392 C393 1.379 . S
C393 H371 0.948 . S
C393 C388 1.364 . S
C393 C392 1.379 . S
C394 C363 1.383 . S
C394 C381 1.479 . S
C394 C395 1.398 . S
C395 C360 1.382 . S
C395 H372 0.951 . S
C395 C394 1.398 . S
C396 C397 1.384 . S
C396 H409 0.947 . S
C396 C431 1.382 . S
C397 C396 1.384 . S
C397 C398 1.378 . S
C398 C397 1.378 . S
C398 C399 1.378 . S
C398 H410 0.952 . S
C399 C398 1.378 . S
C399 H411 0.950 . S
C399 C430 1.383 . S
H400 C419 0.947 . S
H401 C420 0.946 . S
H402 C422 0.953 . S
H403 C423 0.945 . S
H404 C425 0.952 . S
H405 C426 0.949 . S
H406 C428 0.950 . S
H407 C429 0.948 . S
H408 C431 0.951 . S
H409 C396 0.947 . S
H410 C398 0.952 . S
H411 C399 0.950 . S
N412 C415 1.382 . S
N412 C417 1.363 . S
N413 C415 1.371 . S
N413 C416 1.372 . S
N414 C416 1.361 . S
N414 C417 1.377 . S
C415 N412 1.382 . S
C415 N413 1.371 . S
C415 C418 1.480 . S
C416 N413 1.372 . S
C416 N414 1.361 . S
C416 C424 1.457 . S
C417 N412 1.363 . S
C417 N414 1.377 . S
C417 C430 1.479 . S
C418 C415 1.480 . S
C418 C419 1.383 . S
C418 C423 1.385 . S
C419 H400 0.947 . S
C419 C418 1.383 . S
C419 C420 1.388 . S
C420 H401 0.946 . S
C420 C419 1.388 . S
C420 C421 1.384 . S
C421 C420 1.384 . S
C421 C422 1.377 . S
C422 H402 0.953 . S
C422 C421 1.377 . S
C422 C423 1.369 . S
C423 H403 0.945 . S
C423 C418 1.385 . S
C423 C422 1.369 . S
C424 C416 1.457 . S
C424 C425 1.372 . S
C424 C429 1.364 . S
C425 H404 0.952 . S
C425 C424 1.372 . S
C425 C426 1.389 . S
C426 H405 0.949 . S
C426 C425 1.389 . S
C426 C427 1.387 . S
C427 C426 1.387 . S
C427 C428 1.372 . S
C428 H406 0.950 . S
C428 C427 1.372 . S
C428 C429 1.379 . S
C429 H407 0.948 . S
C429 C424 1.364 . S
C429 C428 1.379 . S
C430 C399 1.383 . S
C430 C417 1.479 . S
C430 C431 1.398 . S
C431 C396 1.382 . S
C431 H408 0.951 . S
C431 C430 1.398 . S
C432 C433 1.384 . S
C432 H445 0.947 . S
C432 C467 1.382 . S
C433 C432 1.384 . S
C433 C434 1.378 . S
C434 C433 1.378 . S
C434 C435 1.378 . S
C434 H446 0.952 . S
C435 C434 1.378 . S
C435 H447 0.950 . S
C435 C466 1.383 . S
H436 C455 0.947 . S
H437 C456 0.946 . S
H438 C458 0.953 . S
H439 C459 0.945 . S
H440 C461 0.952 . S
H441 C462 0.949 . S
H442 C464 0.950 . S
H443 C465 0.948 . S
H444 C467 0.951 . S
H445 C432 0.947 . S
H446 C434 0.952 . S
H447 C435 0.950 . S
N448 C451 1.382 . S
N448 C453 1.363 . S
N449 C451 1.371 . S
N449 C452 1.372 . S
N450 C452 1.361 . S
N450 C453 1.377 . S
C451 N448 1.382 . S
C451 N449 1.371 . S
C451 C454 1.480 . S
C452 N449 1.372 . S
C452 N450 1.361 . S
C452 C460 1.457 . S
C453 N448 1.363 . S
C453 N450 1.377 . S
C453 C466 1.479 . S
C454 C451 1.480 . S
C454 C455 1.383 . S
C454 C459 1.385 . S
C455 H436 0.947 . S
C455 C454 1.383 . S
C455 C456 1.388 . S
C456 H437 0.946 . S
C456 C455 1.388 . S
C456 C457 1.384 . S
C457 C456 1.384 . S
C457 C458 1.377 . S
C458 H438 0.953 . S
C458 C457 1.377 . S
C458 C459 1.369 . S
C459 H439 0.945 . S
C459 C454 1.385 . S
C459 C458 1.369 . S
C460 C452 1.457 . S
C460 C461 1.372 . S
C460 C465 1.364 . S
C461 H440 0.952 . S
C461 C460 1.372 . S
C461 C462 1.389 . S
C462 H441 0.949 . S
C462 C461 1.389 . S
C462 C463 1.387 . S
C463 C462 1.387 . S
C463 C464 1.372 . S
C464 H442 0.950 . S
C464 C463 1.372 . S
C464 C465 1.379 . S
C465 H443 0.948 . S
C465 C460 1.364 . S
C465 C464 1.379 . S
C466 C435 1.383 . S
C466 C453 1.479 . S
C466 C467 1.398 . S
C467 C432 1.382 . S
C467 H444 0.951 . S
C467 C466 1.398 . S
C468 C469 1.384 . S
C468 H481 0.947 . S
C468 C503 1.382 . S
C469 C468 1.384 . S
C469 C470 1.378 . S
C470 C469 1.378 . S
C470 C471 1.378 . S
C470 H482 0.952 . S
C471 C470 1.378 . S
C471 H483 0.950 . S
C471 C502 1.383 . S
H472 C491 0.947 . S
H473 C492 0.946 . S
H474 C494 0.953 . S
H475 C495 0.945 . S
H476 C497 0.952 . S
H477 C498 0.949 . S
H478 C500 0.950 . S
H479 C501 0.948 . S
H480 C503 0.951 . S
H481 C468 0.947 . S
H482 C470 0.952 . S
H483 C471 0.950 . S
N484 C487 1.382 . S
N484 C489 1.363 . S
N485 C487 1.371 . S
N485 C488 1.372 . S
N486 C488 1.361 . S
N486 C489 1.377 . S
C487 N484 1.382 . S
C487 N485 1.371 . S
C487 C490 1.480 . S
C488 N485 1.372 . S
C488 N486 1.361 . S
C488 C496 1.457 . S
C489 N484 1.363 . S
C489 N486 1.377 . S
C489 C502 1.479 . S
C490 C487 1.480 . S
C490 C491 1.383 . S
C490 C495 1.385 . S
C491 H472 0.947 . S
C491 C490 1.383 . S
C491 C492 1.388 . S
C492 H473 0.946 . S
C492 C491 1.388 . S
C492 C493 1.384 . S
C493 C492 1.384 . S
C493 C494 1.377 . S
C494 H474 0.953 . S
C494 C493 1.377 . S
C494 C495 1.369 . S
C495 H475 0.945 . S
C495 C490 1.385 . S
C495 C494 1.369 . S
C496 C488 1.457 . S
C496 C497 1.372 . S
C496 C501 1.364 . S
C497 H476 0.952 . S
C497 C496 1.372 . S
C497 C498 1.389 . S
C498 H477 0.949 . S
C498 C497 1.389 . S
C498 C499 1.387 . S
C499 C498 1.387 . S
C499 C500 1.372 . S
C500 H478 0.950 . S
C500 C499 1.372 . S
C500 C501 1.379 . S
C501 H479 0.948 . S
C501 C496 1.364 . S
C501 C500 1.379 . S
C502 C471 1.383 . S
C502 C489 1.479 . S
C502 C503 1.398 . S
C503 C468 1.382 . S
C503 H480 0.951 . S
C503 C502 1.398 . S
C504 C505 1.384 . S
C504 H517 0.947 . S
C504 C539 1.382 . S
C505 C504 1.384 . S
C505 C506 1.378 . S
C506 C505 1.378 . S
C506 C507 1.378 . S
C506 H518 0.952 . S
C507 C506 1.378 . S
C507 H519 0.950 . S
C507 C538 1.383 . S
H508 C527 0.947 . S
H509 C528 0.946 . S
H510 C530 0.953 . S
H511 C531 0.945 . S
H512 C533 0.952 . S
H513 C534 0.949 . S
H514 C536 0.950 . S
H515 C537 0.948 . S
H516 C539 0.951 . S
H517 C504 0.947 . S
H518 C506 0.952 . S
H519 C507 0.950 . S
N520 C523 1.382 . S
N520 C525 1.363 . S
N521 C523 1.371 . S
N521 C524 1.372 . S
N522 C524 1.361 . S
N522 C525 1.377 . S
C523 N520 1.382 . S
C523 N521 1.371 . S
C523 C526 1.480 . S
C524 N521 1.372 . S
C524 N522 1.361 . S
C524 C532 1.457 . S
C525 N520 1.363 . S
C525 N522 1.377 . S
C525 C538 1.479 . S
C526 C523 1.480 . S
C526 C527 1.383 . S
C526 C531 1.385 . S
C527 H508 0.947 . S
C527 C526 1.383 . S
C527 C528 1.388 . S
C528 H509 0.946 . S
C528 C527 1.388 . S
C528 C529 1.384 . S
C529 C528 1.384 . S
C529 C530 1.377 . S
C530 H510 0.953 . S
C530 C529 1.377 . S
C530 C531 1.369 . S
C531 H511 0.945 . S
C531 C526 1.385 . S
C531 C530 1.369 . S
C532 C524 1.457 . S
C532 C533 1.372 . S
C532 C537 1.364 . S
C533 H512 0.952 . S
C533 C532 1.372 . S
C533 C534 1.389 . S
C534 H513 0.949 . S
C534 C533 1.389 . S
C534 C535 1.387 . S
C535 C534 1.387 . S
C535 C536 1.372 . S
C536 H514 0.950 . S
C536 C535 1.372 . S
C536 C537 1.379 . S
C537 H515 0.948 . S
C537 C532 1.364 . S
C537 C536 1.379 . S
C538 C507 1.383 . S
C538 C525 1.479 . S
C538 C539 1.398 . S
C539 C504 1.382 . S
C539 H516 0.951 . S
C539 C538 1.398 . S
C540 C541 1.384 . S
C540 H553 0.947 . S
C540 C575 1.382 . S
C541 C540 1.384 . S
C541 C542 1.378 . S
C542 C541 1.378 . S
C542 C543 1.378 . S
C542 H554 0.952 1_556 S
C543 C542 1.378 . S
C543 H555 0.950 . S
C543 C574 1.383 . S
H544 C563 0.947 . S
H545 C564 0.946 . S
H546 C566 0.953 . S
H547 C567 0.945 . S
H548 C569 0.952 . S
H549 C570 0.949 . S
H550 C572 0.950 . S
H551 C573 0.948 . S
H552 C575 0.951 . S
H553 C540 0.947 . S
H554 C542 0.952 1_554 S
H555 C543 0.950 . S
N556 C559 1.382 . S
N556 C561 1.363 . S
N557 C559 1.371 . S
N557 C560 1.372 . S
N558 C560 1.361 . S
N558 C561 1.377 . S
C559 N556 1.382 . S
C559 N557 1.371 . S
C559 C562 1.480 . S
C560 N557 1.372 . S
C560 N558 1.361 . S
C560 C568 1.457 . S
C561 N556 1.363 . S
C561 N558 1.377 . S
C561 C574 1.479 . S
C562 C559 1.480 . S
C562 C563 1.383 . S
C562 C567 1.385 . S
C563 H544 0.947 . S
C563 C562 1.383 . S
C563 C564 1.388 . S
C564 H545 0.946 . S
C564 C563 1.388 . S
C564 C565 1.384 . S
C565 C564 1.384 . S
C565 C566 1.377 . S
C566 H546 0.953 . S
C566 C565 1.377 . S
C566 C567 1.369 . S
C567 H547 0.945 . S
C567 C562 1.385 . S
C567 C566 1.369 . S
C568 C560 1.457 . S
C568 C569 1.372 . S
C568 C573 1.364 . S
C569 H548 0.952 . S
C569 C568 1.372 . S
C569 C570 1.389 . S
C570 H549 0.949 . S
C570 C569 1.389 . S
C570 C571 1.387 . S
C571 C570 1.387 . S
C571 C572 1.372 . S
C572 H550 0.950 . S
C572 C571 1.372 . S
C572 C573 1.379 . S
C573 H551 0.948 . S
C573 C568 1.364 . S
C573 C572 1.379 . S
C574 C543 1.383 . S
C574 C561 1.479 . S
C574 C575 1.398 . S
C575 C540 1.382 . S
C575 H552 0.951 . S
C575 C574 1.398 . S
O576 Cd577 2.223 . S
O576 C584 1.315 . S
Cd577 O576 2.223 . S
Cd577 O580 2.297 . S
Cd577 O581 2.439 . S
Cd577 O587 2.240 . S
Cd578 O579 2.240 . S
Cd578 O586 2.223 . S
Cd578 O588 2.297 . S
Cd578 O589 2.439 . S
O579 Cd578 2.240 . S
O579 C584 1.279 . S
O580 Cd577 2.297 . S
O580 C582 1.247 . S
O581 Cd577 2.439 . S
O581 C582 1.208 . S
C582 O580 1.247 . S
C582 O581 1.208 . S
C583 O588 1.247 . S
C583 O589 1.208 . S
C584 O576 1.315 . S
C584 O579 1.279 . S
C585 O586 1.315 . S
C585 O587 1.279 . S
O586 Cd578 2.223 . S
O586 C585 1.315 . S
O587 Cd577 2.240 . S
O587 C585 1.279 . S
O588 Cd578 2.297 . S
O588 C583 1.247 . S
O589 Cd578 2.439 . S
O589 C583 1.208 . S
O590 Cd591 2.223 . S
O590 C598 1.315 . S
Cd591 O590 2.223 . S
Cd591 O594 2.297 . S
Cd591 O595 2.439 . S
Cd591 O601 2.240 . S
Cd592 O593 2.240 . S
Cd592 O600 2.223 . S
Cd592 O602 2.297 . S
Cd592 O603 2.439 . S
O593 Cd592 2.240 . S
O593 C598 1.279 . S
O594 Cd591 2.297 . S
O594 C596 1.247 . S
O595 Cd591 2.439 . S
O595 C596 1.208 . S
C596 O594 1.247 . S
C596 O595 1.208 . S
C597 O602 1.247 . S
C597 O603 1.208 . S
C598 O590 1.315 . S
C598 O593 1.279 . S
C599 O600 1.315 . S
C599 O601 1.279 . S
O600 Cd592 2.223 . S
O600 C599 1.315 . S
O601 Cd591 2.240 . S
O601 C599 1.279 . S
O602 Cd592 2.297 . S
O602 C597 1.247 . S
O603 Cd592 2.439 . S
O603 C597 1.208 . S
O604 Cd605 2.223 1_556 S
O604 C612 1.315 . S
Cd605 O604 2.223 1_554 S
Cd605 O608 2.297 . S
Cd605 O609 2.439 . S
Cd605 O615 2.240 . S
Cd606 O607 2.240 . S
Cd606 O614 2.223 . S
Cd606 O616 2.297 1_556 S
Cd606 O617 2.439 1_556 S
O607 Cd606 2.240 . S
O607 C612 1.279 . S
O608 Cd605 2.297 . S
O608 C610 1.247 . S
O609 Cd605 2.439 . S
O609 C610 1.208 . S
C610 O608 1.247 . S
C610 O609 1.208 . S
C611 O616 1.247 . S
C611 O617 1.208 . S
C612 O604 1.315 . S
C612 O607 1.279 . S
C613 O614 1.315 . S
C613 O615 1.279 1_556 S
O614 Cd606 2.223 . S
O614 C613 1.315 . S
O615 Cd605 2.240 . S
O615 C613 1.279 1_554 S
O616 Cd606 2.297 1_554 S
O616 C611 1.247 . S
O617 Cd606 2.439 1_554 S
O617 C611 1.208 . S
O618 Cd619 2.223 . S
O618 C626 1.315 . S
Cd619 O618 2.223 . S
Cd619 O622 2.297 . S
Cd619 O623 2.439 . S
Cd619 O629 2.240 . S
Cd620 O621 2.240 . S
Cd620 O628 2.223 . S
Cd620 O630 2.297 . S
Cd620 O631 2.439 . S
O621 Cd620 2.240 . S
O621 C626 1.279 . S
O622 Cd619 2.297 . S
O622 C624 1.247 . S
O623 Cd619 2.439 . S
O623 C624 1.208 . S
C624 O622 1.247 . S
C624 O623 1.208 . S
C625 O630 1.247 . S
C625 O631 1.208 . S
C626 O618 1.315 . S
C626 O621 1.279 . S
C627 O628 1.315 . S
C627 O629 1.279 . S
O628 Cd620 2.223 . S
O628 C627 1.315 . S
O629 Cd619 2.240 . S
O629 C627 1.279 . S
O630 Cd620 2.297 . S
O630 C625 1.247 . S
O631 Cd620 2.439 . S
O631 C625 1.208 . S
O632 Cd633 2.223 . S
O632 C640 1.315 . S
Cd633 O632 2.223 . S
Cd633 O636 2.297 . S
Cd633 O637 2.439 . S
Cd633 O643 2.240 . S
Cd634 O635 2.240 . S
Cd634 O642 2.223 . S
Cd634 O644 2.297 . S
Cd634 O645 2.439 . S
O635 Cd634 2.240 . S
O635 C640 1.279 . S
O636 Cd633 2.297 . S
O636 C638 1.247 . S
O637 Cd633 2.439 . S
O637 C638 1.208 . S
C638 O636 1.247 . S
C638 O637 1.208 . S
C639 O644 1.247 . S
C639 O645 1.208 . S
C640 O632 1.315 . S
C640 O635 1.279 . S
C641 O642 1.315 . S
C641 O643 1.279 . S
O642 Cd634 2.223 . S
O642 C641 1.315 . S
O643 Cd633 2.240 . S
O643 C641 1.279 . S
O644 Cd634 2.297 . S
O644 C639 1.247 . S
O645 Cd634 2.439 . S
O645 C639 1.208 . S
O646 Cd647 2.223 . S
O646 C654 1.315 . S
Cd647 O646 2.223 . S
Cd647 O650 2.297 . S
Cd647 O651 2.439 . S
Cd647 O657 2.240 . S
Cd648 O649 2.240 . S
Cd648 O656 2.223 . S
Cd648 O658 2.297 . S
Cd648 O659 2.439 . S
O649 Cd648 2.240 . S
O649 C654 1.279 . S
O650 Cd647 2.297 . S
O650 C652 1.247 . S
O651 Cd647 2.439 . S
O651 C652 1.208 . S
C652 O650 1.247 . S
C652 O651 1.208 . S
C653 O658 1.247 . S
C653 O659 1.208 . S
C654 O646 1.315 . S
C654 O649 1.279 . S
C655 O656 1.315 . S
C655 O657 1.279 . S
O656 Cd648 2.223 . S
O656 C655 1.315 . S
O657 Cd647 2.240 . S
O657 C655 1.279 . S
O658 Cd648 2.297 . S
O658 C653 1.247 . S
O659 Cd648 2.439 . S
O659 C653 1.208 . S
O660 Cd661 2.223 . S
O660 C668 1.315 . S
Cd661 O660 2.223 . S
Cd661 O664 2.297 . S
Cd661 O665 2.439 . S
Cd661 O671 2.240 . S
Cd662 O663 2.240 . S
Cd662 O670 2.223 . S
Cd662 O672 2.297 . S
Cd662 O673 2.439 . S
O663 Cd662 2.240 . S
O663 C668 1.279 . S
O664 Cd661 2.297 . S
O664 C666 1.247 . S
O665 Cd661 2.439 . S
O665 C666 1.208 . S
C666 O664 1.247 . S
C666 O665 1.208 . S
C667 O672 1.247 . S
C667 O673 1.208 . S
C668 O660 1.315 . S
C668 O663 1.279 . S
C669 O670 1.315 . S
C669 O671 1.279 . S
O670 Cd662 2.223 . S
O670 C669 1.315 . S
O671 Cd661 2.240 . S
O671 C669 1.279 . S
O672 Cd662 2.297 . S
O672 C667 1.247 . S
O673 Cd662 2.439 . S
O673 C667 1.208 . S
O674 Cd675 2.223 1_545 S
O674 C682 1.315 . S
Cd675 O674 2.223 1_565 S
Cd675 O678 2.297 . S
Cd675 O679 2.439 . S
Cd675 O685 2.240 1_565 S
Cd676 O677 2.240 . S
Cd676 O684 2.223 . S
Cd676 O686 2.297 . S
Cd676 O687 2.439 1_545 S
O677 Cd676 2.240 . S
O677 C682 1.279 . S
O678 Cd675 2.297 . S
O678 C680 1.247 . S
O679 Cd675 2.439 . S
O679 C680 1.208 . S
C680 O678 1.247 . S
C680 O679 1.208 . S
C681 O686 1.247 1_565 S
C681 O687 1.208 . S
C682 O674 1.315 . S
C682 O677 1.279 . S
C683 O684 1.315 . S
C683 O685 1.279 . S
O684 Cd676 2.223 . S
O684 C683 1.315 . S
O685 Cd675 2.240 1_545 S
O685 C683 1.279 . S
O686 Cd676 2.297 . S
O686 C681 1.247 1_545 S
O687 Cd676 2.439 1_565 S
O687 C681 1.208 . S
O688 Cd689 2.223 . S
O688 C696 1.315 . S
Cd689 O688 2.223 . S
Cd689 O692 2.297 1_655 S
Cd689 O693 2.439 1_655 S
Cd689 O699 2.240 . S
Cd690 O691 2.240 . S
Cd690 O698 2.223 1_455 S
Cd690 O700 2.297 . S
Cd690 O701 2.439 . S
O691 Cd690 2.240 . S
O691 C696 1.279 1_455 S
O692 Cd689 2.297 1_455 S
O692 C694 1.247 . S
O693 Cd689 2.439 1_455 S
O693 C694 1.208 . S
C694 O692 1.247 . S
C694 O693 1.208 . S
C695 O700 1.247 . S
C695 O701 1.208 . S
C696 O688 1.315 . S
C696 O691 1.279 1_655 S
C697 O698 1.315 . S
C697 O699 1.279 . S
O698 Cd690 2.223 1_655 S
O698 C697 1.315 . S
O699 Cd689 2.240 . S
O699 C697 1.279 . S
O700 Cd690 2.297 . S
O700 C695 1.247 . S
O701 Cd690 2.439 . S
O701 C695 1.208 . S
O702 Cd703 2.223 . S
O702 C710 1.315 . S
Cd703 O702 2.223 . S
Cd703 O706 2.297 . S
Cd703 O707 2.439 . S
Cd703 O713 2.240 . S
Cd704 O705 2.240 . S
Cd704 O712 2.223 . S
Cd704 O714 2.297 . S
Cd704 O715 2.439 . S
O705 Cd704 2.240 . S
O705 C710 1.279 . S
O706 Cd703 2.297 . S
O706 C708 1.247 . S
O707 Cd703 2.439 . S
O707 C708 1.208 . S
C708 O706 1.247 . S
C708 O707 1.208 . S
C709 O714 1.247 . S
C709 O715 1.208 . S
C710 O702 1.315 . S
C710 O705 1.279 . S
C711 O712 1.315 . S
C711 O713 1.279 . S
O712 Cd704 2.223 . S
O712 C711 1.315 . S
O713 Cd703 2.240 . S
O713 C711 1.279 . S
O714 Cd704 2.297 . S
O714 C709 1.247 . S
O715 Cd704 2.439 . S
O715 C709 1.208 . S
O716 Cd717 2.223 1_655 S
O716 C724 1.315 . S
Cd717 O716 2.223 1_455 S
Cd717 O720 2.297 . S
Cd717 O721 2.439 . S
Cd717 O727 2.240 . S
Cd718 O719 2.240 . S
Cd718 O726 2.223 . S
Cd718 O728 2.297 1_655 S
Cd718 O729 2.439 1_655 S
O719 Cd718 2.240 . S
O719 C724 1.279 . S
O720 Cd717 2.297 . S
O720 C722 1.247 . S
O721 Cd717 2.439 . S
O721 C722 1.208 . S
C722 O720 1.247 . S
C722 O721 1.208 . S
C723 O728 1.247 . S
C723 O729 1.208 . S
C724 O716 1.315 . S
C724 O719 1.279 . S
C725 O726 1.315 . S
C725 O727 1.279 1_655 S
O726 Cd718 2.223 . S
O726 C725 1.315 . S
O727 Cd717 2.240 . S
O727 C725 1.279 1_455 S
O728 Cd718 2.297 1_455 S
O728 C723 1.247 . S
O729 Cd718 2.439 1_455 S
O729 C723 1.208 . S
O730 Cd731 2.223 . S
O730 C738 1.315 . S
Cd731 O730 2.223 . S
Cd731 O734 2.297 . S
Cd731 O735 2.439 . S
Cd731 O741 2.240 . S
Cd732 O733 2.240 . S
Cd732 O740 2.223 . S
Cd732 O742 2.297 . S
Cd732 O743 2.439 . S
O733 Cd732 2.240 . S
O733 C738 1.279 . S
O734 Cd731 2.297 . S
O734 C736 1.247 . S
O735 Cd731 2.439 . S
O735 C736 1.208 . S
C736 O734 1.247 . S
C736 O735 1.208 . S
C737 O742 1.247 . S
C737 O743 1.208 . S
C738 O730 1.315 . S
C738 O733 1.279 . S
C739 O740 1.315 . S
C739 O741 1.279 . S
O740 Cd732 2.223 . S
O740 C739 1.315 . S
O741 Cd731 2.240 . S
O741 C739 1.279 . S
O742 Cd732 2.297 . S
O742 C737 1.247 . S
O743 Cd732 2.439 . S
O743 C737 1.208 . S
H744 C750 0.930 . S
H745 C754 0.930 . S
H746 C759 0.929 . S
H747 C757 0.929 . S
H748 C752 0.929 . S
H749 C758 0.929 . S
C750 H744 0.930 . S
C750 C751 1.367 . S
C750 C758 1.378 . S
C751 C750 1.367 . S
C751 C759 1.433 . S
C752 H748 0.929 . S
C752 C754 1.378 . S
C752 C756 1.350 . S
C753 C756 1.463 . S
C753 C758 1.350 . S
C753 N761 1.427 . S
C754 H745 0.930 . S
C754 C752 1.378 . S
C754 C755 1.367 . S
C755 C754 1.367 . S
C755 C757 1.433 . S
C756 C752 1.350 . S
C756 C753 1.463 . S
C756 N760 1.427 . S
C757 H747 0.929 . S
C757 C755 1.433 . S
C757 N760 1.384 . S
C758 H749 0.929 . S
C758 C750 1.378 . S
C758 C753 1.350 . S
C759 H746 0.929 . S
C759 C751 1.433 . S
C759 N761 1.384 . S
N760 C756 1.427 . S
N760 C757 1.384 . S
N761 C753 1.427 . S
N761 C759 1.384 . S
H762 C768 0.922 1_655 S
H763 C772 0.930 . S
H764 C777 0.929 . S
H765 C775 0.929 . S
H766 C770 0.929 . S
H767 C776 0.929 . S
C768 H762 0.922 1_455 S
C768 C769 1.346 1_455 S
C768 C776 1.405 . S
C769 C768 1.346 1_655 S
C769 C777 1.433 . S
C770 H766 0.929 . S
C770 C772 1.378 . S
C770 C774 1.350 . S
C771 C774 1.463 . S
C771 C776 1.350 . S
C771 N779 1.427 . S
C772 H763 0.930 . S
C772 C770 1.378 . S
C772 C773 1.367 . S
C773 C772 1.367 . S
C773 C775 1.433 . S
C774 C770 1.350 . S
C774 C771 1.463 . S
C774 N778 1.427 . S
C775 H765 0.929 . S
C775 C773 1.433 . S
C775 N778 1.384 . S
C776 H767 0.929 . S
C776 C768 1.405 . S
C776 C771 1.350 . S
C777 H764 0.929 . S
C777 C769 1.433 . S
C777 N779 1.384 1_655 S
N778 C774 1.427 . S
N778 C775 1.384 . S
N779 C771 1.427 . S
N779 C777 1.384 1_455 S
H780 C786 0.930 . S
H781 C790 0.930 . S
H782 C795 0.929 . S
H783 C793 0.929 . S
H784 C788 0.929 . S
H785 C794 0.929 . S
C786 H780 0.930 . S
C786 C787 1.367 . S
C786 C794 1.378 . S
C787 C786 1.367 . S
C787 C795 1.433 . S
C788 H784 0.929 . S
C788 C790 1.378 . S
C788 C792 1.350 . S
C789 C792 1.463 . S
C789 C794 1.350 . S
C789 N797 1.427 . S
C790 H781 0.930 . S
C790 C788 1.378 . S
C790 C791 1.367 . S
C791 C790 1.367 . S
C791 C793 1.433 . S
C792 C788 1.350 . S
C792 C789 1.463 . S
C792 N796 1.427 . S
C793 H783 0.929 . S
C793 C791 1.433 . S
C793 N796 1.384 . S
C794 H785 0.929 . S
C794 C786 1.378 . S
C794 C789 1.350 . S
C795 H782 0.929 . S
C795 C787 1.433 . S
C795 N797 1.384 . S
N796 C792 1.427 . S
N796 C793 1.384 . S
N797 C789 1.427 . S
N797 C795 1.384 . S
H798 C804 0.930 . S
H799 C808 0.930 . S
H800 C813 0.929 1_545 S
H801 C811 0.929 1_565 S
H802 C806 0.929 . S
H803 C812 0.929 . S
C804 H798 0.930 . S
C804 C805 1.367 1_655 S
C804 C812 1.378 . S
C805 C804 1.367 1_455 S
C805 C813 1.433 . S
C806 H802 0.929 . S
C806 C808 1.378 . S
C806 C810 1.350 . S
C807 C810 1.463 1_565 S
C807 C812 1.350 . S
C807 N815 1.427 1_565 S
C808 H799 0.930 . S
C808 C806 1.378 . S
C808 C809 1.367 . S
C809 C808 1.367 . S
C809 C811 1.433 . S
C810 C806 1.350 . S
C810 C807 1.463 1_545 S
C810 N814 1.427 1_545 S
C811 H801 0.929 1_545 S
C811 C809 1.433 . S
C811 N814 1.384 1_545 S
C812 H803 0.929 . S
C812 C804 1.378 . S
C812 C807 1.350 . S
C813 H800 0.929 1_565 S
C813 C805 1.433 . S
C813 N815 1.384 1_465 S
N814 C810 1.427 1_565 S
N814 C811 1.384 1_565 S
N815 C807 1.427 1_545 S
N815 C813 1.384 1_645 S
H816 C822 0.930 . S
H817 C826 0.930 . S
H818 C831 0.929 . S
H819 C829 0.929 . S
H820 C824 0.929 . S
H821 C830 0.929 . S
C822 H816 0.930 . S
C822 C823 1.367 . S
C822 C830 1.378 . S
C823 C822 1.367 . S
C823 C831 1.433 . S
C824 H820 0.929 . S
C824 C826 1.378 . S
C824 C828 1.350 . S
C825 C828 1.463 . S
C825 C830 1.350 . S
C825 N833 1.427 . S
C826 H817 0.930 . S
C826 C824 1.378 . S
C826 C827 1.367 . S
C827 C826 1.367 . S
C827 C829 1.433 . S
C828 C824 1.350 . S
C828 C825 1.463 . S
C828 N832 1.427 . S
C829 H819 0.929 . S
C829 C827 1.433 . S
C829 N832 1.384 . S
C830 H821 0.929 . S
C830 C822 1.378 . S
C830 C825 1.350 . S
C831 H818 0.929 . S
C831 C823 1.433 . S
C831 N833 1.384 . S
N832 C828 1.427 . S
N832 C829 1.384 . S
N833 C825 1.427 . S
N833 C831 1.384 . S
H834 C840 0.930 . S
H835 C844 0.930 . S
H836 C849 0.929 . S
H837 C847 0.929 . S
H838 C842 0.929 . S
H839 C848 0.929 . S
C840 H834 0.930 . S
C840 C841 1.367 . S
C840 C848 1.378 . S
C841 C840 1.367 . S
C841 C849 1.433 . S
C842 H838 0.929 . S
C842 C844 1.378 . S
C842 C846 1.350 . S
C843 C846 1.463 . S
C843 C848 1.350 . S
C843 N851 1.427 . S
C844 H835 0.930 . S
C844 C842 1.378 . S
C844 C845 1.367 . S
C845 C844 1.367 . S
C845 C847 1.433 . S
C846 C842 1.350 . S
C846 C843 1.463 . S
C846 N850 1.427 . S
C847 H837 0.929 . S
C847 C845 1.433 . S
C847 N850 1.384 . S
C848 H839 0.929 . S
C848 C840 1.378 . S
C848 C843 1.350 . S
C849 H836 0.929 . S
C849 C841 1.433 . S
C849 N851 1.384 . S
N850 C846 1.427 . S
N850 C847 1.384 . S
N851 C843 1.427 . S
N851 C849 1.384 . S
H852 C858 0.930 . S
H853 C862 0.930 . S
H854 C867 0.929 . S
H855 C865 0.929 . S
H856 C860 0.929 . S
H857 C866 0.929 . S
C858 H852 0.930 . S
C858 C859 1.367 . S
C858 C866 1.378 . S
C859 C858 1.367 . S
C859 C867 1.433 . S
C860 H856 0.929 . S
C860 C862 1.378 . S
C860 C864 1.350 . S
C861 C864 1.463 . S
C861 C866 1.350 . S
C861 N869 1.427 . S
C862 H853 0.930 . S
C862 C860 1.378 . S
C862 C863 1.367 . S
C863 C862 1.367 . S
C863 C865 1.433 . S
C864 C860 1.350 . S
C864 C861 1.463 . S
C864 N868 1.427 . S
C865 H855 0.929 . S
C865 C863 1.433 . S
C865 N868 1.384 . S
C866 H857 0.929 . S
C866 C858 1.378 . S
C866 C861 1.350 . S
C867 H854 0.929 . S
C867 C859 1.433 . S
C867 N869 1.384 . S
N868 C864 1.427 . S
N868 C865 1.384 . S
N869 C861 1.427 . S
N869 C867 1.384 . S
H870 C876 0.930 . S
H871 C880 0.930 . S
H872 C885 0.929 . S
H873 C883 0.929 . S
H874 C878 0.929 . S
H875 C884 0.929 . S
C876 H870 0.930 . S
C876 C877 1.367 . S
C876 C884 1.378 . S
C877 C876 1.367 . S
C877 C885 1.433 . S
C878 H874 0.929 . S
C878 C880 1.378 . S
C878 C882 1.350 . S
C879 C882 1.463 . S
C879 C884 1.350 . S
C879 N887 1.427 . S
C880 H871 0.930 . S
C880 C878 1.378 . S
C880 C881 1.367 . S
C881 C880 1.367 . S
C881 C883 1.433 . S
C882 C878 1.350 . S
C882 C879 1.463 . S
C882 N886 1.427 . S
C883 H873 0.929 . S
C883 C881 1.433 . S
C883 N886 1.384 . S
C884 H875 0.929 . S
C884 C876 1.378 . S
C884 C879 1.350 . S
C885 H872 0.929 . S
C885 C877 1.433 . S
C885 N887 1.384 . S
N886 C882 1.427 . S
N886 C883 1.384 . S
N887 C879 1.427 . S
N887 C885 1.384 . S
H888 C894 0.930 . S
H889 C898 0.930 . S
H890 C903 0.929 . S
H891 C901 0.929 . S
H892 C896 0.929 . S
H893 C902 0.929 . S
C894 H888 0.930 . S
C894 C895 1.367 . S
C894 C902 1.378 . S
C895 C894 1.367 . S
C895 C903 1.433 . S
C896 H892 0.929 . S
C896 C898 1.378 . S
C896 C900 1.350 . S
C897 C900 1.463 . S
C897 C902 1.350 . S
C897 N905 1.427 . S
C898 H889 0.930 . S
C898 C896 1.378 . S
C898 C899 1.367 . S
C899 C898 1.367 . S
C899 C901 1.433 . S
C900 C896 1.350 . S
C900 C897 1.463 . S
C900 N904 1.427 . S
C901 H891 0.929 . S
C901 C899 1.433 . S
C901 N904 1.384 . S
C902 H893 0.929 . S
C902 C894 1.378 . S
C902 C897 1.350 . S
C903 H890 0.929 . S
C903 C895 1.433 . S
C903 N905 1.384 . S
N904 C900 1.427 . S
N904 C901 1.384 . S
N905 C897 1.427 . S
N905 C903 1.384 . S
H906 C912 0.930 . S
H907 C916 0.930 . S
H908 C921 0.929 . S
H909 C919 0.929 . S
H910 C914 0.929 . S
H911 C920 0.929 . S
C912 H906 0.930 . S
C912 C913 1.367 . S
C912 C920 1.378 . S
C913 C912 1.367 . S
C913 C921 1.433 . S
C914 H910 0.929 . S
C914 C916 1.378 . S
C914 C918 1.350 . S
C915 C918 1.463 . S
C915 C920 1.350 . S
C915 N923 1.427 . S
C916 H907 0.930 . S
C916 C914 1.378 . S
C916 C917 1.367 . S
C917 C916 1.367 . S
C917 C919 1.433 . S
C918 C914 1.350 . S
C918 C915 1.463 . S
C918 N922 1.427 . S
C919 H909 0.929 . S
C919 C917 1.433 . S
C919 N922 1.384 . S
C920 H911 0.929 . S
C920 C912 1.378 . S
C920 C915 1.350 . S
C921 H908 0.929 . S
C921 C913 1.433 . S
C921 N923 1.384 . S
N922 C918 1.427 . S
N922 C919 1.384 . S
N923 C915 1.427 . S
N923 C921 1.384 . S
H924 C930 0.930 . S
H925 C934 0.930 . S
H926 C939 0.929 . S
H927 C937 0.929 . S
H928 C932 0.929 . S
H929 C938 0.929 . S
C930 H924 0.930 . S
C930 C931 1.367 . S
C930 C938 1.378 . S
C931 C930 1.367 . S
C931 C939 1.433 . S
C932 H928 0.929 . S
C932 C934 1.378 . S
C932 C936 1.350 . S
C933 C936 1.463 . S
C933 C938 1.350 . S
C933 N941 1.427 . S
C934 H925 0.930 . S
C934 C932 1.378 . S
C934 C935 1.367 . S
C935 C934 1.367 . S
C935 C937 1.433 . S
C936 C932 1.350 . S
C936 C933 1.463 . S
C936 N940 1.427 . S
C937 H927 0.929 . S
C937 C935 1.433 . S
C937 N940 1.384 . S
C938 H929 0.929 . S
C938 C930 1.378 . S
C938 C933 1.350 . S
C939 H926 0.929 . S
C939 C931 1.433 . S
C939 N941 1.384 . S
N940 C936 1.427 . S
N940 C937 1.384 . S
N941 C933 1.427 . S
N941 C939 1.384 . S
H942 C948 0.930 . S
H943 C952 0.930 . S
H944 C957 0.929 . S
H945 C955 0.929 . S
H946 C950 0.929 . S
H947 C956 0.929 . S
C948 H942 0.930 . S
C948 C949 1.367 . S
C948 C956 1.378 . S
C949 C948 1.367 . S
C949 C957 1.433 . S
C950 H946 0.929 . S
C950 C952 1.378 . S
C950 C954 1.350 . S
C951 C954 1.463 . S
C951 C956 1.350 . S
C951 N959 1.427 . S
C952 H943 0.930 . S
C952 C950 1.378 . S
C952 C953 1.367 . S
C953 C952 1.367 . S
C953 C955 1.433 . S
C954 C950 1.350 . S
C954 C951 1.463 . S
C954 N958 1.427 . S
C955 H945 0.929 . S
C955 C953 1.433 . S
C955 N958 1.384 . S
C956 H947 0.929 . S
C956 C948 1.378 . S
C956 C951 1.350 . S
C957 H944 0.929 . S
C957 C949 1.433 . S
C957 N959 1.384 . S
N958 C954 1.427 . S
N958 C955 1.384 . S
N959 C951 1.427 . S
N959 C957 1.384 . S
H960 C966 0.930 . S
H961 C970 0.930 . S
H962 C975 0.929 . S
H963 C973 0.929 . S
H964 C968 0.929 . S
H965 C974 0.929 . S
C966 H960 0.930 . S
C966 C967 1.367 . S
C966 C974 1.378 . S
C967 C966 1.367 . S
C967 C975 1.433 . S
C968 H964 0.929 . S
C968 C970 1.378 . S
C968 C972 1.350 . S
C969 C972 1.463 . S
C969 C974 1.350 . S
C969 N977 1.427 . S
C970 H961 0.930 . S
C970 C968 1.378 . S
C970 C971 1.367 . S
C971 C970 1.367 . S
C971 C973 1.433 . S
C972 C968 1.350 . S
C972 C969 1.463 . S
C972 N976 1.427 . S
C973 H963 0.929 . S
C973 C971 1.433 . S
C973 N976 1.384 . S
C974 H965 0.929 . S
C974 C966 1.378 . S
C974 C969 1.350 . S
C975 H962 0.929 . S
C975 C967 1.433 . S
C975 N977 1.384 . S
N976 C972 1.427 . S
N976 C973 1.384 . S
N977 C969 1.427 . S
N977 C975 1.384 . S
H978 C984 0.930 . S
H979 C988 0.930 . S
H980 C993 0.929 . S
H981 C991 0.929 . S
H982 C986 0.929 . S
H983 C992 0.929 . S
C984 H978 0.930 . S
C984 C985 1.367 . S
C984 C992 1.378 . S
C985 C984 1.367 . S
C985 C993 1.433 . S
C986 H982 0.929 . S
C986 C988 1.378 . S
C986 C990 1.350 . S
C987 C990 1.463 . S
C987 C992 1.350 . S
C987 N995 1.427 . S
C988 H979 0.930 . S
C988 C986 1.378 . S
C988 C989 1.367 . S
C989 C988 1.367 . S
C989 C991 1.433 . S
C990 C986 1.350 . S
C990 C987 1.463 . S
C990 N994 1.427 . S
C991 H981 0.929 . S
C991 C989 1.433 . S
C991 N994 1.384 . S
C992 H983 0.929 . S
C992 C984 1.378 . S
C992 C987 1.350 . S
C993 H980 0.929 . S
C993 C985 1.433 . S
C993 N995 1.384 . S
N994 C990 1.427 . S
N994 C991 1.384 . S
N995 C987 1.427 . S
N995 C993 1.384 . S
H996 C1002 0.930 . S
H997 C1006 0.930 . S
H998 C1011 0.929 . S
H999 C1009 0.929 . S
H1000 C1004 0.929 . S
H1001 C1010 0.929 . S
C1002 H996 0.930 . S
C1002 C1003 1.367 . S
C1002 C1010 1.378 . S
C1003 C1002 1.367 . S
C1003 C1011 1.433 . S
C1004 H1000 0.929 . S
C1004 C1006 1.378 . S
C1004 C1008 1.350 . S
C1005 C1008 1.463 . S
C1005 C1010 1.350 . S
C1005 N1013 1.427 . S
C1006 H997 0.930 . S
C1006 C1004 1.378 . S
C1006 C1007 1.367 . S
C1007 C1006 1.367 . S
C1007 C1009 1.433 . S
C1008 C1004 1.350 . S
C1008 C1005 1.463 . S
C1008 N1012 1.427 . S
C1009 H999 0.929 . S
C1009 C1007 1.433 . S
C1009 N1012 1.384 . S
C1010 H1001 0.929 . S
C1010 C1002 1.378 . S
C1010 C1005 1.350 . S
C1011 H998 0.929 . S
C1011 C1003 1.433 . S
C1011 N1013 1.384 . S
N1012 C1008 1.427 . S
N1012 C1009 1.384 . S
N1013 C1005 1.427 . S
N1013 C1011 1.384 . S
H1014 C1020 0.930 . S
H1015 C1024 0.930 1_455 S
H1016 C1029 0.929 . S
H1017 C1027 0.929 . S
H1018 C1022 0.929 . S
H1019 C1028 0.929 . S
C1020 H1014 0.930 . S
C1020 C1021 1.367 . S
C1020 C1028 1.378 . S
C1021 C1020 1.367 . S
C1021 C1029 1.433 . S
C1022 H1018 0.929 . S
C1022 C1024 1.378 . S
C1022 C1026 1.350 . S
C1023 C1026 1.463 . S
C1023 C1028 1.350 . S
C1023 N1031 1.427 . S
C1024 H1015 0.930 1_655 S
C1024 C1022 1.378 . S
C1024 C1025 1.367 . S
C1025 C1024 1.367 . S
C1025 C1027 1.433 . S
C1026 C1022 1.350 . S
C1026 C1023 1.463 . S
C1026 N1030 1.427 . S
C1027 H1017 0.929 . S
C1027 C1025 1.433 . S
C1027 N1030 1.384 . S
C1028 H1019 0.929 . S
C1028 C1020 1.378 . S
C1028 C1023 1.350 . S
C1029 H1016 0.929 . S
C1029 C1021 1.433 . S
C1029 N1031 1.384 . S
N1030 C1026 1.427 . S
N1030 C1027 1.384 . S
N1031 C1023 1.427 . S
N1031 C1029 1.384 . S
H1032 C1038 0.930 . S
H1033 C1042 0.930 1_545 S
H1034 C1047 0.929 . S
H1035 C1045 0.940 . S
H1036 C1040 0.929 . S
H1037 C1046 0.929 . S
C1038 H1032 0.930 . S
C1038 C1039 1.367 . S
C1038 C1046 1.378 . S
C1039 C1038 1.367 . S
C1039 C1047 1.433 . S
C1040 H1036 0.929 . S
C1040 C1042 1.378 . S
C1040 C1044 1.350 . S
C1041 C1044 1.463 . S
C1041 C1046 1.350 . S
C1041 N1049 1.427 . S
C1042 H1033 0.930 1_565 S
C1042 C1040 1.378 . S
C1042 C1043 1.367 1_565 S
C1043 C1042 1.367 1_545 S
C1043 C1045 1.433 1_545 S
C1044 C1040 1.350 . S
C1044 C1041 1.463 . S
C1044 N1048 1.427 . S
C1045 H1035 0.940 . S
C1045 C1043 1.433 1_565 S
C1045 N1048 1.384 . S
C1046 H1037 0.929 . S
C1046 C1038 1.378 . S
C1046 C1041 1.350 . S
C1047 H1034 0.929 . S
C1047 C1039 1.433 . S
C1047 N1049 1.384 . S
N1048 C1044 1.427 . S
N1048 C1045 1.384 . S
N1049 C1041 1.427 . S
N1049 C1047 1.384 . S
H1050 C1056 0.930 . S
H1051 C1060 0.930 . S
H1052 C1065 0.929 . S
H1053 C1063 0.929 . S
H1054 C1058 0.929 . S
H1055 C1064 0.929 . S
C1056 H1050 0.930 . S
C1056 C1057 1.367 . S
C1056 C1064 1.378 . S
C1057 C1056 1.367 . S
C1057 C1065 1.433 . S
C1058 H1054 0.929 . S
C1058 C1060 1.378 . S
C1058 C1062 1.350 . S
C1059 C1062 1.463 . S
C1059 C1064 1.350 . S
C1059 N1067 1.427 . S
C1060 H1051 0.930 . S
C1060 C1058 1.378 . S
C1060 C1061 1.367 . S
C1061 C1060 1.367 . S
C1061 C1063 1.433 . S
C1062 C1058 1.350 . S
C1062 C1059 1.463 . S
C1062 N1066 1.427 . S
C1063 H1053 0.929 . S
C1063 C1061 1.433 . S
C1063 N1066 1.384 . S
C1064 H1055 0.929 . S
C1064 C1056 1.378 . S
C1064 C1059 1.350 . S
C1065 H1052 0.929 . S
C1065 C1057 1.433 . S
C1065 N1067 1.384 . S
N1066 C1062 1.427 . S
N1066 C1063 1.384 . S
N1067 C1059 1.427 . S
N1067 C1065 1.384 . S
H1068 C1074 0.930 . S
H1069 C1078 0.930 . S
H1070 C1083 0.929 . S
H1071 C1081 0.929 . S
H1072 C1076 0.929 1_556 S
H1073 C1082 0.929 . S
C1074 H1068 0.930 . S
C1074 C1075 1.367 . S
C1074 C1082 1.378 . S
C1075 C1074 1.367 . S
C1075 C1083 1.433 . S
C1076 H1072 0.929 1_554 S
C1076 C1078 1.378 . S
C1076 C1080 1.350 1_554 S
C1077 C1080 1.449 1_545 S
C1077 C1082 1.366 . S
C1077 N1085 1.424 1_545 S
C1078 H1069 0.930 . S
C1078 C1076 1.378 . S
C1078 C1079 1.367 . S
C1079 C1078 1.367 . S
C1079 C1081 1.433 . S
C1080 C1076 1.350 1_556 S
C1080 C1077 1.449 1_565 S
C1080 N1084 1.433 . S
C1081 H1071 0.929 . S
C1081 C1079 1.433 . S
C1081 N1084 1.367 1_554 S
C1082 H1073 0.929 . S
C1082 C1074 1.378 . S
C1082 C1077 1.366 . S
C1083 H1070 0.929 . S
C1083 C1075 1.433 . S
C1083 N1085 1.384 1_545 S
N1084 C1080 1.433 . S
N1084 C1081 1.367 1_556 S
N1085 C1077 1.424 1_565 S
N1085 C1083 1.384 1_565 S
H1086 C1092 0.930 . S
H1087 C1096 0.930 . S
H1088 C1101 0.929 . S
H1089 C1099 0.929 . S
H1090 C1094 0.929 . S
H1091 C1100 0.929 . S
C1092 H1086 0.930 . S
C1092 C1093 1.367 . S
C1092 C1100 1.378 . S
C1093 C1092 1.367 . S
C1093 C1101 1.433 . S
C1094 H1090 0.929 . S
C1094 C1096 1.378 . S
C1094 C1098 1.350 . S
C1095 C1098 1.463 . S
C1095 C1100 1.350 . S
C1095 N1103 1.427 . S
C1096 H1087 0.930 . S
C1096 C1094 1.378 . S
C1096 C1097 1.367 . S
C1097 C1096 1.367 . S
C1097 C1099 1.433 . S
C1098 C1094 1.350 . S
C1098 C1095 1.463 . S
C1098 N1102 1.427 . S
C1099 H1089 0.929 . S
C1099 C1097 1.433 . S
C1099 N1102 1.384 . S
C1100 H1091 0.929 . S
C1100 C1092 1.378 . S
C1100 C1095 1.350 . S
C1101 H1088 0.929 . S
C1101 C1093 1.433 . S
C1101 N1103 1.384 . S
N1102 C1098 1.427 . S
N1102 C1099 1.384 . S
N1103 C1095 1.427 . S
N1103 C1101 1.384 . S
H1104 C1110 0.930 . S
H1105 C1114 0.930 . S
H1106 C1119 0.929 . S
H1107 C1117 0.929 . S
H1108 C1112 0.929 . S
H1109 C1118 0.929 . S
C1110 H1104 0.930 . S
C1110 C1111 1.367 . S
C1110 C1118 1.378 . S
C1111 C1110 1.367 . S
C1111 C1119 1.433 . S
C1112 H1108 0.929 . S
C1112 C1114 1.378 . S
C1112 C1116 1.350 . S
C1113 C1116 1.463 . S
C1113 C1118 1.350 . S
C1113 N1121 1.427 . S
C1114 H1105 0.930 . S
C1114 C1112 1.378 . S
C1114 C1115 1.367 . S
C1115 C1114 1.367 . S
C1115 C1117 1.433 . S
C1116 C1112 1.350 . S
C1116 C1113 1.463 . S
C1116 N1120 1.427 . S
C1117 H1107 0.929 . S
C1117 C1115 1.433 . S
C1117 N1120 1.384 . S
C1118 H1109 0.929 . S
C1118 C1110 1.378 . S
C1118 C1113 1.350 . S
C1119 H1106 0.929 . S
C1119 C1111 1.433 . S
C1119 N1121 1.384 . S
N1120 C1116 1.427 . S
N1120 C1117 1.384 . S
N1121 C1113 1.427 . S
N1121 C1119 1.384 . S
H1122 C1128 0.930 . S
H1123 C1132 0.930 . S
H1124 C1137 0.929 . S
H1125 C1135 0.929 . S
H1126 C1130 0.929 . S
H1127 C1136 0.929 . S
C1128 H1122 0.930 . S
C1128 C1129 1.367 . S
C1128 C1136 1.378 . S
C1129 C1128 1.367 . S
C1129 C1137 1.433 . S
C1130 H1126 0.929 . S
C1130 C1132 1.378 . S
C1130 C1134 1.350 . S
C1131 C1134 1.463 . S
C1131 C1136 1.350 . S
C1131 N1139 1.427 . S
C1132 H1123 0.930 . S
C1132 C1130 1.378 . S
C1132 C1133 1.367 . S
C1133 C1132 1.367 . S
C1133 C1135 1.433 . S
C1134 C1130 1.350 . S
C1134 C1131 1.463 . S
C1134 N1138 1.427 . S
C1135 H1125 0.929 . S
C1135 C1133 1.433 . S
C1135 N1138 1.384 . S
C1136 H1127 0.929 . S
C1136 C1128 1.378 . S
C1136 C1131 1.350 . S
C1137 H1124 0.929 . S
C1137 C1129 1.433 . S
C1137 N1139 1.384 . S
N1138 C1134 1.427 . S
N1138 C1135 1.384 . S
N1139 C1131 1.427 . S
N1139 C1137 1.384 . S
H1140 C1146 0.930 . S
H1141 C1150 0.930 . S
H1142 C1155 0.929 . S
H1143 C1153 0.929 . S
H1144 C1148 0.929 . S
H1145 C1154 0.929 . S
C1146 H1140 0.930 . S
C1146 C1147 1.367 1_545 S
C1146 C1154 1.378 . S
C1147 C1146 1.367 1_565 S
C1147 C1155 1.433 . S
C1148 H1144 0.929 . S
C1148 C1150 1.378 . S
C1148 C1152 1.350 . S
C1149 C1152 1.463 . S
C1149 C1154 1.350 . S
C1149 N1157 1.427 . S
C1150 H1141 0.930 . S
C1150 C1148 1.378 . S
C1150 C1151 1.367 . S
C1151 C1150 1.367 . S
C1151 C1153 1.433 . S
C1152 C1148 1.350 . S
C1152 C1149 1.463 . S
C1152 N1156 1.427 . S
C1153 H1143 0.929 . S
C1153 C1151 1.433 . S
C1153 N1156 1.384 . S
C1154 H1145 0.929 . S
C1154 C1146 1.378 . S
C1154 C1149 1.350 . S
C1155 H1142 0.929 . S
C1155 C1147 1.433 . S
C1155 N1157 1.384 1_565 S
N1156 C1152 1.427 . S
N1156 C1153 1.384 . S
N1157 C1149 1.427 . S
N1157 C1155 1.384 1_545 S
H1158 C1164 0.930 . S
H1159 C1168 0.930 . S
H1160 C1173 0.929 . S
H1161 C1171 0.929 . S
H1162 C1166 0.929 . S
H1163 C1172 0.929 . S
C1164 H1158 0.930 . S
C1164 C1165 1.367 . S
C1164 C1172 1.378 . S
C1165 C1164 1.367 . S
C1165 C1173 1.433 . S
C1166 H1162 0.929 . S
C1166 C1168 1.378 . S
C1166 C1170 1.350 . S
C1167 C1170 1.463 . S
C1167 C1172 1.350 . S
C1167 N1175 1.427 . S
C1168 H1159 0.930 . S
C1168 C1166 1.378 . S
C1168 C1169 1.367 . S
C1169 C1168 1.367 . S
C1169 C1171 1.433 . S
C1170 C1166 1.350 . S
C1170 C1167 1.463 . S
C1170 N1174 1.427 . S
C1171 H1161 0.929 . S
C1171 C1169 1.433 . S
C1171 N1174 1.384 . S
C1172 H1163 0.929 . S
C1172 C1164 1.378 . S
C1172 C1167 1.350 . S
C1173 H1160 0.929 . S
C1173 C1165 1.433 . S
C1173 N1175 1.384 . S
N1174 C1170 1.427 . S
N1174 C1171 1.384 . S
N1175 C1167 1.427 . S
N1175 C1173 1.384 . S
H1176 C1182 0.930 . S
H1177 C1186 0.930 . S
H1178 C1191 0.929 . S
H1179 C1189 0.929 . S
H1180 C1184 0.929 . S
H1181 C1190 0.929 . S
C1182 H1176 0.930 . S
C1182 C1183 1.367 . S
C1182 C1190 1.378 . S
C1183 C1182 1.367 . S
C1183 C1191 1.433 . S
C1184 H1180 0.929 . S
C1184 C1186 1.378 . S
C1184 C1188 1.350 . S
C1185 C1188 1.463 . S
C1185 C1190 1.350 . S
C1185 N1193 1.427 . S
C1186 H1177 0.930 . S
C1186 C1184 1.378 . S
C1186 C1187 1.367 . S
C1187 C1186 1.367 . S
C1187 C1189 1.433 . S
C1188 C1184 1.350 . S
C1188 C1185 1.463 . S
C1188 N1192 1.427 . S
C1189 H1179 0.929 . S
C1189 C1187 1.433 . S
C1189 N1192 1.384 . S
C1190 H1181 0.929 . S
C1190 C1182 1.378 . S
C1190 C1185 1.350 . S
C1191 H1178 0.929 . S
C1191 C1183 1.433 . S
C1191 N1193 1.384 . S
N1192 C1188 1.427 . S
N1192 C1189 1.384 . S
N1193 C1185 1.427 . S
N1193 C1191 1.384 . S
H1194 C1200 0.930 . S
H1195 C1204 0.930 . S
H1196 C1209 0.929 . S
H1197 C1207 0.929 . S
H1198 C1202 0.929 . S
H1199 C1208 0.929 . S
C1200 H1194 0.930 . S
C1200 C1201 1.367 . S
C1200 C1208 1.378 . S
C1201 C1200 1.367 . S
C1201 C1209 1.433 . S
C1202 H1198 0.929 . S
C1202 C1204 1.378 . S
C1202 C1206 1.350 . S
C1203 C1206 1.463 . S
C1203 C1208 1.350 . S
C1203 N1211 1.427 . S
C1204 H1195 0.930 . S
C1204 C1202 1.378 . S
C1204 C1205 1.367 . S
C1205 C1204 1.367 . S
C1205 C1207 1.433 . S
C1206 C1202 1.350 . S
C1206 C1203 1.463 . S
C1206 N1210 1.427 . S
C1207 H1197 0.929 . S
C1207 C1205 1.433 . S
C1207 N1210 1.384 . S
C1208 H1199 0.929 . S
C1208 C1200 1.378 . S
C1208 C1203 1.350 . S
C1209 H1196 0.929 . S
C1209 C1201 1.433 . S
C1209 N1211 1.384 . S
N1210 C1206 1.427 . S
N1210 C1207 1.384 . S
N1211 C1203 1.427 . S
N1211 C1209 1.384 . S
H1212 C1218 0.930 . S
H1213 C1222 0.930 . S
H1214 C1227 0.929 . S
H1215 C1225 0.929 . S
H1216 C1220 0.929 . S
H1217 C1226 0.929 . S
C1218 H1212 0.930 . S
C1218 C1219 1.367 . S
C1218 C1226 1.378 . S
C1219 C1218 1.367 . S
C1219 C1227 1.433 . S
C1220 H1216 0.929 . S
C1220 C1222 1.378 . S
C1220 C1224 1.350 . S
C1221 C1224 1.463 . S
C1221 C1226 1.350 . S
C1221 N1229 1.427 . S
C1222 H1213 0.930 . S
C1222 C1220 1.378 . S
C1222 C1223 1.367 . S
C1223 C1222 1.367 . S
C1223 C1225 1.433 . S
C1224 C1220 1.350 . S
C1224 C1221 1.463 . S
C1224 N1228 1.427 . S
C1225 H1215 0.929 . S
C1225 C1223 1.433 . S
C1225 N1228 1.384 . S
C1226 H1217 0.929 . S
C1226 C1218 1.378 . S
C1226 C1221 1.350 . S
C1227 H1214 0.929 . S
C1227 C1219 1.433 . S
C1227 N1229 1.384 . S
N1228 C1224 1.427 . S
N1228 C1225 1.384 . S
N1229 C1221 1.427 . S
N1229 C1227 1.384 . S
H1230 C1236 0.930 . S
H1231 C1240 0.930 . S
H1232 C1245 0.929 . S
H1233 C1243 0.929 . S
H1234 C1238 0.929 . S
H1235 C1244 0.929 . S
C1236 H1230 0.930 . S
C1236 C1237 1.367 . S
C1236 C1244 1.378 . S
C1237 C1236 1.367 . S
C1237 C1245 1.433 . S
C1238 H1234 0.929 . S
C1238 C1240 1.378 . S
C1238 C1242 1.350 . S
C1239 C1242 1.463 . S
C1239 C1244 1.350 . S
C1239 N1247 1.427 . S
C1240 H1231 0.930 . S
C1240 C1238 1.378 . S
C1240 C1241 1.367 . S
C1241 C1240 1.367 . S
C1241 C1243 1.433 . S
C1242 C1238 1.350 . S
C1242 C1239 1.463 . S
C1242 N1246 1.427 . S
C1243 H1233 0.929 . S
C1243 C1241 1.433 . S
C1243 N1246 1.384 . S
C1244 H1235 0.929 . S
C1244 C1236 1.378 . S
C1244 C1239 1.350 . S
C1245 H1232 0.929 . S
C1245 C1237 1.433 . S
C1245 N1247 1.384 . S
N1246 C1242 1.427 . S
N1246 C1243 1.384 . S
N1247 C1239 1.427 . S
N1247 C1245 1.384 . S
H1248 C1254 0.930 . S
H1249 C1258 0.930 . S
H1250 C1263 0.929 . S
H1251 C1261 0.929 . S
H1252 C1256 0.929 . S
H1253 C1262 0.929 . S
C1254 H1248 0.930 . S
C1254 C1255 1.367 . S
C1254 C1262 1.378 . S
C1255 C1254 1.367 . S
C1255 C1263 1.433 . S
C1256 H1252 0.929 . S
C1256 C1258 1.378 . S
C1256 C1260 1.350 . S
C1257 C1260 1.463 . S
C1257 C1262 1.350 . S
C1257 N1265 1.427 . S
C1258 H1249 0.930 . S
C1258 C1256 1.378 . S
C1258 C1259 1.367 . S
C1259 C1258 1.367 . S
C1259 C1261 1.433 . S
C1260 C1256 1.350 . S
C1260 C1257 1.463 . S
C1260 N1264 1.427 . S
C1261 H1251 0.929 . S
C1261 C1259 1.433 . S
C1261 N1264 1.384 . S
C1262 H1253 0.929 . S
C1262 C1254 1.378 . S
C1262 C1257 1.350 . S
C1263 H1250 0.929 . S
C1263 C1255 1.433 . S
C1263 N1265 1.384 . S
N1264 C1260 1.427 . S
N1264 C1261 1.384 . S
N1265 C1257 1.427 . S
N1265 C1263 1.384 . S
H1266 C1272 0.930 . S
H1267 C1276 0.930 . S
H1268 C1281 0.929 . S
H1269 C1279 0.929 . S
H1270 C1274 0.929 . S
H1271 C1280 0.929 . S
C1272 H1266 0.930 . S
C1272 C1273 1.367 . S
C1272 C1280 1.378 . S
C1273 C1272 1.367 . S
C1273 C1281 1.433 . S
C1274 H1270 0.929 . S
C1274 C1276 1.378 . S
C1274 C1278 1.350 . S
C1275 C1278 1.463 . S
C1275 C1280 1.350 1_655 S
C1275 N1283 1.427 . S
C1276 H1267 0.930 . S
C1276 C1274 1.378 . S
C1276 C1277 1.367 . S
C1277 C1276 1.367 . S
C1277 C1279 1.433 . S
C1278 C1274 1.350 . S
C1278 C1275 1.463 . S
C1278 N1282 1.427 . S
C1279 H1269 0.929 . S
C1279 C1277 1.433 . S
C1279 N1282 1.384 . S
C1280 H1271 0.929 . S
C1280 C1272 1.378 . S
C1280 C1275 1.350 1_455 S
C1281 H1268 0.929 . S
C1281 C1273 1.433 . S
C1281 N1283 1.384 1_455 S
N1282 C1278 1.427 . S
N1282 C1279 1.384 . S
N1283 C1275 1.427 . S
N1283 C1281 1.384 1_655 S
H1284 C1290 0.930 . S
H1285 C1294 0.930 . S
H1286 C1299 0.929 . S
H1287 C1297 0.929 . S
H1288 C1292 0.929 . S
H1289 C1298 0.929 . S
C1290 H1284 0.930 . S
C1290 C1291 1.367 . S
C1290 C1298 1.378 . S
C1291 C1290 1.367 . S
C1291 C1299 1.433 . S
C1292 H1288 0.929 . S
C1292 C1294 1.378 . S
C1292 C1296 1.350 . S
C1293 C1296 1.463 . S
C1293 C1298 1.350 . S
C1293 N1301 1.427 . S
C1294 H1285 0.930 . S
C1294 C1292 1.378 . S
C1294 C1295 1.367 . S
C1295 C1294 1.367 . S
C1295 C1297 1.433 . S
C1296 C1292 1.350 . S
C1296 C1293 1.463 . S
C1296 N1300 1.427 . S
C1297 H1287 0.929 . S
C1297 C1295 1.433 . S
C1297 N1300 1.384 . S
C1298 H1289 0.929 . S
C1298 C1290 1.378 . S
C1298 C1293 1.350 . S
C1299 H1286 0.929 . S
C1299 C1291 1.433 . S
C1299 N1301 1.384 . S
N1300 C1296 1.427 . S
N1300 C1297 1.384 . S
N1301 C1293 1.427 . S
N1301 C1299 1.384 . S
H1302 C1308 0.930 . S
H1303 C1312 0.930 . S
H1304 C1317 0.929 . S
H1305 C1315 0.929 . S
H1306 C1310 0.929 . S
H1307 C1316 0.929 1_455 S
C1308 H1302 0.930 . S
C1308 C1309 1.367 . S
C1308 C1316 1.378 . S
C1309 C1308 1.367 . S
C1309 C1317 1.433 . S
C1310 H1306 0.929 . S
C1310 C1312 1.378 . S
C1310 C1314 1.350 . S
C1311 C1314 1.463 1_655 S
C1311 C1316 1.350 . S
C1311 N1319 1.427 . S
C1312 H1303 0.930 . S
C1312 C1310 1.378 . S
C1312 C1313 1.367 . S
C1313 C1312 1.367 . S
C1313 C1315 1.433 . S
C1314 C1310 1.350 . S
C1314 C1311 1.463 1_455 S
C1314 N1318 1.427 . S
C1315 H1305 0.929 . S
C1315 C1313 1.433 . S
C1315 N1318 1.384 . S
C1316 H1307 0.929 1_655 S
C1316 C1308 1.378 . S
C1316 C1311 1.350 . S
C1317 H1304 0.929 . S
C1317 C1309 1.433 . S
C1317 N1319 1.384 . S
N1318 C1314 1.427 . S
N1318 C1315 1.384 . S
N1319 C1311 1.427 . S
N1319 C1317 1.384 . S
H1320 C1326 0.930 . S
H1321 C1330 0.930 . S
H1322 C1335 0.929 . S
H1323 C1333 0.929 . S
H1324 C1328 0.929 . S
H1325 C1334 0.929 . S
C1326 H1320 0.930 . S
C1326 C1327 1.367 . S
C1326 C1334 1.378 . S
C1327 C1326 1.367 . S
C1327 C1335 1.433 . S
C1328 H1324 0.929 . S
C1328 C1330 1.378 . S
C1328 C1332 1.350 . S
C1329 C1332 1.463 . S
C1329 C1334 1.350 . S
C1329 N1337 1.427 . S
C1330 H1321 0.930 . S
C1330 C1328 1.378 . S
C1330 C1331 1.367 . S
C1331 C1330 1.367 . S
C1331 C1333 1.433 . S
C1332 C1328 1.350 . S
C1332 C1329 1.463 . S
C1332 N1336 1.427 . S
C1333 H1323 0.929 . S
C1333 C1331 1.433 . S
C1333 N1336 1.384 . S
C1334 H1325 0.929 . S
C1334 C1326 1.378 . S
C1334 C1329 1.350 . S
C1335 H1322 0.929 . S
C1335 C1327 1.433 . S
C1335 N1337 1.384 . S
N1336 C1332 1.427 . S
N1336 C1333 1.384 . S
N1337 C1329 1.427 . S
N1337 C1335 1.384 . S
H1338 C1344 0.930 . S
H1339 C1348 0.930 . S
H1340 C1353 0.929 . S
H1341 C1351 0.894 1_455 S
H1342 C1346 0.929 . S
H1343 C1352 0.929 . S
C1344 H1338 0.930 . S
C1344 C1345 1.367 . S
C1344 C1352 1.378 1_554 S
C1345 C1344 1.367 . S
C1345 C1353 1.433 . S
C1346 H1342 0.929 . S
C1346 C1348 1.378 . S
C1346 C1350 1.350 . S
C1347 C1350 1.463 . S
C1347 C1352 1.350 . S
C1347 N1355 1.427 . S
C1348 H1339 0.930 . S
C1348 C1346 1.378 . S
C1348 C1349 1.367 . S
C1349 C1348 1.367 . S
C1349 C1351 1.433 . S
C1350 C1346 1.350 . S
C1350 C1347 1.463 . S
C1350 N1354 1.427 . S
C1351 H1341 0.894 1_655 S
C1351 C1349 1.433 . S
C1351 N1354 1.384 . S
C1352 H1343 0.929 . S
C1352 C1344 1.378 1_556 S
C1352 C1347 1.350 . S
C1353 H1340 0.929 . S
C1353 C1345 1.433 . S
C1353 N1355 1.384 1_554 S
N1354 C1350 1.427 . S
N1354 C1351 1.384 . S
N1355 C1347 1.427 . S
N1355 C1353 1.384 1_556 S
H1356 C1362 0.930 . S
H1357 C1366 0.930 . S
H1358 C1371 0.929 . S
H1359 C1369 0.929 . S
H1360 C1364 0.929 . S
H1361 C1370 0.929 . S
C1362 H1356 0.930 . S
C1362 C1363 1.367 . S
C1362 C1370 1.378 . S
C1363 C1362 1.367 . S
C1363 C1371 1.433 . S
C1364 H1360 0.929 . S
C1364 C1366 1.378 . S
C1364 C1368 1.350 . S
C1365 C1368 1.463 . S
C1365 C1370 1.350 . S
C1365 N1373 1.427 . S
C1366 H1357 0.930 . S
C1366 C1364 1.378 . S
C1366 C1367 1.367 . S
C1367 C1366 1.367 . S
C1367 C1369 1.433 . S
C1368 C1364 1.350 . S
C1368 C1365 1.463 . S
C1368 N1372 1.427 . S
C1369 H1359 0.929 . S
C1369 C1367 1.433 . S
C1369 N1372 1.384 . S
C1370 H1361 0.929 . S
C1370 C1362 1.378 . S
C1370 C1365 1.350 . S
C1371 H1358 0.929 . S
C1371 C1363 1.433 . S
C1371 N1373 1.384 . S
N1372 C1368 1.427 . S
N1372 C1369 1.384 . S
N1373 C1365 1.427 . S
N1373 C1371 1.384 . S
H1374 C1380 0.930 . S
H1375 C1384 0.930 . S
H1376 C1389 0.929 . S
H1377 C1387 0.929 . S
H1378 C1382 0.929 1_554 S
H1379 C1388 0.929 1_556 S
C1380 H1374 0.930 . S
C1380 C1381 1.367 . S
C1380 C1388 1.378 . S
C1381 C1380 1.367 . S
C1381 C1389 1.433 . S
C1382 H1378 0.929 1_556 S
C1382 C1384 1.378 . S
C1382 C1386 1.350 . S
C1383 C1386 1.463 1_554 S
C1383 C1388 1.350 . S
C1383 N1391 1.427 . S
C1384 H1375 0.930 . S
C1384 C1382 1.378 . S
C1384 C1385 1.367 . S
C1385 C1384 1.367 . S
C1385 C1387 1.433 . S
C1386 C1382 1.350 . S
C1386 C1383 1.463 1_556 S
C1386 N1390 1.427 . S
C1387 H1377 0.929 . S
C1387 C1385 1.433 . S
C1387 N1390 1.384 . S
C1388 H1379 0.929 1_554 S
C1388 C1380 1.378 . S
C1388 C1383 1.350 . S
C1389 H1376 0.929 . S
C1389 C1381 1.433 . S
C1389 N1391 1.384 . S
N1390 C1386 1.427 . S
N1390 C1387 1.384 . S
N1391 C1383 1.427 . S
N1391 C1389 1.384 . S
H1392 C1398 0.930 . S
H1393 C1402 0.930 . S
H1394 C1407 0.929 . S
H1395 C1405 0.929 . S
H1396 C1400 0.929 . S
H1397 C1406 0.929 . S
C1398 H1392 0.930 . S
C1398 C1399 1.367 . S
C1398 C1406 1.378 . S
C1399 C1398 1.367 . S
C1399 C1407 1.433 . S
C1400 H1396 0.929 . S
C1400 C1402 1.378 . S
C1400 C1404 1.350 . S
C1401 C1404 1.463 . S
C1401 C1406 1.350 . S
C1401 N1409 1.427 . S
C1402 H1393 0.930 . S
C1402 C1400 1.378 . S
C1402 C1403 1.367 . S
C1403 C1402 1.367 . S
C1403 C1405 1.433 . S
C1404 C1400 1.350 . S
C1404 C1401 1.463 . S
C1404 N1408 1.427 . S
C1405 H1395 0.929 . S
C1405 C1403 1.433 . S
C1405 N1408 1.384 . S
C1406 H1397 0.929 . S
C1406 C1398 1.378 . S
C1406 C1401 1.350 . S
C1407 H1394 0.929 . S
C1407 C1399 1.433 . S
C1407 N1409 1.384 . S
N1408 C1404 1.427 . S
N1408 C1405 1.384 . S
N1409 C1401 1.427 . S
N1409 C1407 1.384 . S
H1410 C1416 0.930 . S
H1411 C1420 0.930 . S
H1412 C1425 0.929 . S
H1413 C1423 0.929 . S
H1414 C1418 0.929 . S
H1415 C1424 0.929 . S
C1416 H1410 0.930 . S
C1416 C1417 1.367 . S
C1416 C1424 1.378 1_556 S
C1417 C1416 1.367 . S
C1417 C1425 1.433 . S
C1418 H1414 0.929 . S
C1418 C1420 1.378 . S
C1418 C1422 1.350 . S
C1419 C1422 1.463 . S
C1419 C1424 1.350 . S
C1419 N1427 1.427 . S
C1420 H1411 0.930 . S
C1420 C1418 1.378 . S
C1420 C1421 1.367 . S
C1421 C1420 1.367 . S
C1421 C1423 1.433 . S
C1422 C1418 1.350 . S
C1422 C1419 1.463 . S
C1422 N1426 1.427 . S
C1423 H1413 0.929 . S
C1423 C1421 1.433 . S
C1423 N1426 1.384 . S
C1424 H1415 0.929 . S
C1424 C1416 1.378 1_554 S
C1424 C1419 1.350 . S
C1425 H1412 0.929 . S
C1425 C1417 1.433 . S
C1425 N1427 1.384 1_556 S
N1426 C1422 1.427 . S
N1426 C1423 1.384 . S
N1427 C1419 1.427 . S
N1427 C1425 1.384 1_554 S
H1428 C1434 0.930 . S
H1429 C1438 0.930 . S
H1430 C1443 0.929 . S
H1431 C1441 0.929 . S
H1432 C1436 0.929 . S
H1433 C1442 0.929 . S
C1434 H1428 0.930 . S
C1434 C1435 1.367 . S
C1434 C1442 1.378 . S
C1435 C1434 1.367 . S
C1435 C1443 1.433 . S
C1436 H1432 0.929 . S
C1436 C1438 1.378 . S
C1436 C1440 1.350 . S
C1437 C1440 1.463 . S
C1437 C1442 1.350 . S
C1437 N1445 1.427 . S
C1438 H1429 0.930 . S
C1438 C1436 1.378 . S
C1438 C1439 1.367 . S
C1439 C1438 1.367 . S
C1439 C1441 1.433 . S
C1440 C1436 1.350 . S
C1440 C1437 1.463 . S
C1440 N1444 1.427 . S
C1441 H1431 0.929 . S
C1441 C1439 1.433 . S
C1441 N1444 1.384 . S
C1442 H1433 0.929 . S
C1442 C1434 1.378 . S
C1442 C1437 1.350 . S
C1443 H1430 0.929 . S
C1443 C1435 1.433 . S
C1443 N1445 1.384 . S
N1444 C1440 1.427 . S
N1444 C1441 1.384 . S
N1445 C1437 1.427 . S
N1445 C1443 1.384 . S
H1446 C1452 0.895 1_556 S
H1447 C1456 0.930 . S
H1448 C1461 0.929 . S
H1449 C1459 0.929 . S
H1450 C1454 0.929 . S
H1451 C1460 0.929 . S
C1452 H1446 0.895 1_554 S
C1452 C1453 1.372 . S
C1452 C1460 1.409 . S
C1453 C1452 1.372 . S
C1453 C1461 1.433 . S
C1454 H1450 0.929 . S
C1454 C1456 1.378 . S
C1454 C1458 1.350 . S
C1455 C1458 1.463 . S
C1455 C1460 1.350 . S
C1455 N1463 1.427 . S
C1456 H1447 0.930 . S
C1456 C1454 1.378 . S
C1456 C1457 1.367 . S
C1457 C1456 1.367 . S
C1457 C1459 1.433 . S
C1458 C1454 1.350 . S
C1458 C1455 1.463 . S
C1458 N1462 1.427 . S
C1459 H1449 0.929 . S
C1459 C1457 1.433 . S
C1459 N1462 1.384 . S
C1460 H1451 0.929 . S
C1460 C1452 1.409 . S
C1460 C1455 1.350 . S
C1461 H1448 0.929 . S
C1461 C1453 1.433 . S
C1461 N1463 1.384 . S
N1462 C1458 1.427 . S
N1462 C1459 1.384 . S
N1463 C1455 1.427 . S
N1463 C1461 1.384 . S
H1464 C1470 0.930 . S
H1465 C1474 0.930 . S
H1466 C1479 0.929 . S
H1467 C1477 0.929 . S
H1468 C1472 0.929 . S
H1469 C1478 0.929 . S
C1470 H1464 0.930 . S
C1470 C1471 1.367 . S
C1470 C1478 1.378 . S
C1471 C1470 1.367 . S
C1471 C1479 1.433 . S
C1472 H1468 0.929 . S
C1472 C1474 1.378 . S
C1472 C1476 1.350 . S
C1473 C1476 1.463 . S
C1473 C1478 1.350 . S
C1473 N1481 1.427 . S
C1474 H1465 0.930 . S
C1474 C1472 1.378 . S
C1474 C1475 1.367 . S
C1475 C1474 1.367 . S
C1475 C1477 1.433 . S
C1476 C1472 1.350 . S
C1476 C1473 1.463 . S
C1476 N1480 1.427 . S
C1477 H1467 0.929 . S
C1477 C1475 1.433 . S
C1477 N1480 1.384 . S
C1478 H1469 0.929 . S
C1478 C1470 1.378 . S
C1478 C1473 1.350 . S
C1479 H1466 0.929 . S
C1479 C1471 1.433 . S
C1479 N1481 1.384 . S
N1480 C1476 1.427 . S
N1480 C1477 1.384 . S
N1481 C1473 1.427 . S
N1481 C1479 1.384 . S
H1482 C1488 0.930 . S
H1483 C1492 0.930 . S
H1484 C1497 0.929 . S
H1485 C1495 0.929 . S
H1486 C1490 0.929 . S
H1487 C1496 0.929 . S
C1488 H1482 0.930 . S
C1488 C1489 1.367 . S
C1488 C1496 1.378 . S
C1489 C1488 1.367 . S
C1489 C1497 1.433 . S
C1490 H1486 0.929 . S
C1490 C1492 1.378 . S
C1490 C1494 1.350 . S
C1491 C1494 1.463 . S
C1491 C1496 1.350 . S
C1491 N1499 1.427 . S
C1492 H1483 0.930 . S
C1492 C1490 1.378 . S
C1492 C1493 1.367 . S
C1493 C1492 1.367 . S
C1493 C1495 1.433 . S
C1494 C1490 1.350 . S
C1494 C1491 1.463 . S
C1494 N1498 1.427 . S
C1495 H1485 0.929 . S
C1495 C1493 1.433 . S
C1495 N1498 1.384 . S
C1496 H1487 0.929 . S
C1496 C1488 1.378 . S
C1496 C1491 1.350 . S
C1497 H1484 0.929 . S
C1497 C1489 1.433 . S
C1497 N1499 1.384 . S
N1498 C1494 1.427 . S
N1498 C1495 1.384 . S
N1499 C1491 1.427 . S
N1499 C1497 1.384 . S
H1500 C1506 0.930 . S
H1501 C1510 0.930 . S
H1502 C1515 0.929 . S
H1503 C1513 0.929 . S
H1504 C1508 0.929 . S
H1505 C1514 0.929 . S
C1506 H1500 0.930 . S
C1506 C1507 1.367 . S
C1506 C1514 1.378 . S
C1507 C1506 1.367 . S
C1507 C1515 1.433 . S
C1508 H1504 0.929 . S
C1508 C1510 1.378 . S
C1508 C1512 1.350 . S
C1509 C1512 1.463 . S
C1509 C1514 1.350 . S
C1509 N1517 1.427 . S
C1510 H1501 0.930 . S
C1510 C1508 1.378 . S
C1510 C1511 1.367 . S
C1511 C1510 1.367 . S
C1511 C1513 1.433 . S
C1512 C1508 1.350 . S
C1512 C1509 1.463 . S
C1512 N1516 1.427 . S
C1513 H1503 0.929 . S
C1513 C1511 1.433 . S
C1513 N1516 1.384 . S
C1514 H1505 0.929 . S
C1514 C1506 1.378 . S
C1514 C1509 1.350 . S
C1515 H1502 0.929 . S
C1515 C1507 1.433 . S
C1515 N1517 1.384 . S
N1516 C1512 1.427 . S
N1516 C1513 1.384 . S
N1517 C1509 1.427 . S
N1517 C1515 1.384 . S
H1518 C1524 0.930 . S
H1519 C1528 0.930 . S
H1520 C1533 0.929 . S
H1521 C1531 0.929 . S
H1522 C1526 0.929 . S
H1523 C1532 0.929 . S
C1524 H1518 0.930 . S
C1524 C1525 1.367 . S
C1524 C1532 1.378 . S
C1525 C1524 1.367 . S
C1525 C1533 1.433 . S
C1526 H1522 0.929 . S
C1526 C1528 1.378 . S
C1526 C1530 1.350 . S
C1527 C1530 1.463 . S
C1527 C1532 1.350 . S
C1527 N1535 1.427 . S
C1528 H1519 0.930 . S
C1528 C1526 1.378 . S
C1528 C1529 1.367 . S
C1529 C1528 1.367 . S
C1529 C1531 1.433 . S
C1530 C1526 1.350 . S
C1530 C1527 1.463 . S
C1530 N1534 1.427 . S
C1531 H1521 0.929 . S
C1531 C1529 1.433 . S
C1531 N1534 1.384 . S
C1532 H1523 0.929 . S
C1532 C1524 1.378 . S
C1532 C1527 1.350 . S
C1533 H1520 0.929 . S
C1533 C1525 1.433 . S
C1533 N1535 1.384 . S
N1534 C1530 1.427 . S
N1534 C1531 1.384 . S
N1535 C1527 1.427 . S
N1535 C1533 1.384 . S
H1536 C1542 0.930 . S
H1537 C1546 0.980 . S
H1538 C1551 0.929 . S
H1539 C1549 0.929 . S
H1540 C1544 0.929 . S
H1541 C1550 0.929 . S
C1542 H1536 0.930 . S
C1542 C1543 1.367 . S
C1542 C1550 1.378 . S
C1543 C1542 1.367 . S
C1543 C1551 1.433 . S
C1544 H1540 0.929 . S
C1544 C1546 1.378 . S
C1544 C1548 1.350 . S
C1545 C1548 1.463 . S
C1545 C1550 1.350 . S
C1545 N1553 1.427 . S
C1546 H1537 0.980 . S
C1546 C1544 1.378 . S
C1546 C1547 1.367 . S
C1547 C1546 1.367 . S
C1547 C1549 1.433 . S
C1548 C1544 1.350 . S
C1548 C1545 1.463 . S
C1548 N1552 1.427 . S
C1549 H1539 0.929 . S
C1549 C1547 1.433 . S
C1549 N1552 1.384 . S
C1550 H1541 0.929 . S
C1550 C1542 1.378 . S
C1550 C1545 1.350 . S
C1551 H1538 0.929 . S
C1551 C1543 1.433 . S
C1551 N1553 1.384 . S
N1552 C1548 1.427 . S
N1552 C1549 1.384 . S
N1553 C1545 1.427 . S
N1553 C1551 1.384 . S
H1554 C1560 0.930 . S
H1555 C1564 0.930 . S
H1556 C1569 0.929 . S
H1557 C1567 0.929 . S
H1558 C1562 0.929 . S
H1559 C1568 0.929 . S
C1560 H1554 0.930 . S
C1560 C1561 1.367 . S
C1560 C1568 1.378 . S
C1561 C1560 1.367 . S
C1561 C1569 1.433 . S
C1562 H1558 0.929 . S
C1562 C1564 1.378 . S
C1562 C1566 1.350 . S
C1563 C1566 1.463 . S
C1563 C1568 1.350 . S
C1563 N1571 1.427 . S
C1564 H1555 0.930 . S
C1564 C1562 1.378 . S
C1564 C1565 1.367 . S
C1565 C1564 1.367 . S
C1565 C1567 1.433 . S
C1566 C1562 1.350 . S
C1566 C1563 1.463 . S
C1566 N1570 1.427 . S
C1567 H1557 0.929 . S
C1567 C1565 1.433 . S
C1567 N1570 1.384 . S
C1568 H1559 0.929 . S
C1568 C1560 1.378 . S
C1568 C1563 1.350 . S
C1569 H1556 0.929 . S
C1569 C1561 1.433 . S
C1569 N1571 1.384 . S
N1570 C1566 1.427 . S
N1570 C1567 1.384 . S
N1571 C1563 1.427 . S
N1571 C1569 1.384 . S
H1572 C1578 0.930 . S
H1573 C1582 0.930 . S
H1574 C1587 0.929 . S
H1575 C1585 0.929 . S
H1576 C1580 0.929 . S
H1577 C1586 0.929 . S
C1578 H1572 0.930 . S
C1578 C1579 1.367 . S
C1578 C1586 1.378 . S
C1579 C1578 1.367 . S
C1579 C1587 1.433 . S
C1580 H1576 0.929 . S
C1580 C1582 1.378 . S
C1580 C1584 1.350 . S
C1581 C1584 1.463 . S
C1581 C1586 1.350 . S
C1581 N1589 1.427 . S
C1582 H1573 0.930 . S
C1582 C1580 1.378 . S
C1582 C1583 1.367 . S
C1583 C1582 1.367 . S
C1583 C1585 1.433 . S
C1584 C1580 1.350 . S
C1584 C1581 1.463 . S
C1584 N1588 1.427 . S
C1585 H1575 0.929 . S
C1585 C1583 1.433 . S
C1585 N1588 1.384 . S
C1586 H1577 0.929 . S
C1586 C1578 1.378 . S
C1586 C1581 1.350 . S
C1587 H1574 0.929 . S
C1587 C1579 1.433 . S
C1587 N1589 1.384 . S
N1588 C1584 1.427 . S
N1588 C1585 1.384 . S
N1589 C1581 1.427 . S
N1589 C1587 1.384 . S
H1590 C1596 0.930 . S
H1591 C1600 0.930 . S
H1592 C1605 0.929 . S
H1593 C1603 0.929 . S
H1594 C1598 0.929 . S
H1595 C1604 0.929 . S
C1596 H1590 0.930 . S
C1596 C1597 1.367 . S
C1596 C1604 1.378 . S
C1597 C1596 1.367 . S
C1597 C1605 1.433 . S
C1598 H1594 0.929 . S
C1598 C1600 1.378 1_545 S
C1598 C1602 1.350 . S
C1599 C1602 1.463 . S
C1599 C1604 1.350 . S
C1599 N1607 1.427 . S
C1600 H1591 0.930 . S
C1600 C1598 1.378 1_565 S
C1600 C1601 1.367 . S
C1601 C1600 1.367 . S
C1601 C1603 1.433 . S
C1602 C1598 1.350 . S
C1602 C1599 1.463 . S
C1602 N1606 1.407 1_545 S
C1603 H1593 0.929 . S
C1603 C1601 1.433 . S
C1603 N1606 1.414 . S
C1604 H1595 0.929 . S
C1604 C1596 1.378 . S
C1604 C1599 1.350 . S
C1605 H1592 0.929 . S
C1605 C1597 1.433 . S
C1605 N1607 1.384 . S
N1606 C1602 1.407 1_565 S
N1606 C1603 1.414 . S
N1607 C1599 1.427 . S
N1607 C1605 1.384 . S
C755 C584 1.615 1_556 S
C751 C181 1.621 . S
C773 C599 1.735 . S
C769 C247 1.743 . S
C787 C283 1.704 . S
C791 C612 1.712 . S
C809 C626 1.575 . S
C805 C169 1.636 . S
C827 C638 1.647 . S
C823 C361 1.713 . S
C845 C652 1.378 . S
C841 C433 1.383 . S
C859 C421 1.758 . S
C863 C666 1.735 . S
C881 C681 1.540 . S
C877 C355 1.495 . S
C895 C427 1.678 . S
C899 C697 1.676 . S
C917 C710 1.560 . S
C913 C325 1.546 . S
C931 C385 1.605 . S
C935 C695 1.550 . S
C953 C708 1.581 . S
C949 C463 1.566 . S
C967 C253 1.852 . S
C971 C724 1.850 . S
C985 C145 1.629 . S
C989 C723 1.609 . S
C1003 C205 1.729 . S
C1007 C722 1.665 . S
C1021 C217 1.627 . S
C1025 C725 1.628 . S
C1039 C139 1.712 . S
C1043 C627 1.702 . S
C1057 C535 1.507 . S
C1061 C625 1.475 . S
C1079 C585 1.553 . S
C1075 C565 1.553 . S
C1097 C596 1.750 . S
C1093 C313 1.752 . S
C1111 C175 1.669 . S
C1115 C641 1.641 . S
C1133 C682 1.883 . S
C1129 C397 1.884 . S
C1151 C639 1.562 . S
C1147 C349 1.517 . S
C1169 C667 1.557 . S
C1165 C457 1.576 . S
C1187 C668 1.611 . S
C1183 C505 1.621 . S
C1201 C571 1.741 . S
C1205 C683 1.735 . S
C1219 C319 1.704 . S
C1223 C640 1.711 . S
C1241 C654 1.585 . S
C1237 C493 1.637 . S
C1255 C109 1.713 . S
C1259 C610 1.650 . S
C1277 C624 1.389 . S
C1273 C1 1.378 . S
C1295 C582 1.729 . S
C1291 C61 1.756 . S
C1313 C597 1.531 . S
C1309 C103 1.503 . S
C1327 C67 1.680 . S
C1331 C711 1.681 . S
C1345 C73 1.544 . S
C1349 C696 1.557 . S
C1363 C133 1.604 . S
C1367 C709 1.561 . S
C1381 C31 1.568 . S
C1385 C694 1.578 . S
C1403 C738 1.846 . S
C1399 C289 1.848 . S
C1421 C737 1.613 . S
C1417 C469 1.632 . S
C1439 C736 1.667 . S
C1435 C529 1.730 . S
C1453 C541 1.633 1_554 S
C1457 C739 1.634 . S
C1471 C391 1.712 . S
C1475 C655 1.703 . S
C1493 C653 1.485 . S
C1489 C211 1.504 . S
C1511 C669 1.539 . S
C1507 C241 1.540 . S
C1529 C680 1.748 . S
C1525 C277 1.760 . S
C1543 C499 1.675 . S
C1547 C613 1.645 . S
C1565 C598 1.882 . S
C1561 C37 1.881 . S
C1579 C97 1.519 . S
C1583 C611 1.573 . S
C1601 C583 1.557 . S
C1597 C25 1.578 . S
