# Generated by pormake.
# Topology zzz, (3,6)-cn, num edge types: 1
# Building blocks:
#     Node 0, Type 0, BuildingBlock: BELTOD_clean_linker_0, # of connection points: 3
#     Node 1, Type 0, BuildingBlock: BELTOD_clean_linker_0, # of connection points: 3
#     Node 2, Type 0, BuildingBlock: BELTOD_clean_linker_0, # of connection points: 3
#     Node 3, Type 0, BuildingBlock: BELTOD_clean_linker_0, # of connection points: 3
#     Node 4, Type 0, BuildingBlock: BELTOD_clean_linker_0, # of connection points: 3
#     Node 5, Type 0, BuildingBlock: BELTOD_clean_linker_0, # of connection points: 3
#     Node 6, Type 0, BuildingBlock: BELTOD_clean_linker_0, # of connection points: 3
#     Node 7, Type 0, BuildingBlock: BELTOD_clean_linker_0, # of connection points: 3
#     Node 8, Type 1, BuildingBlock: HISSIN_clean_sbu_0, # of connection points: 6
#     Node 9, Type 1, BuildingBlock: HISSIN_clean_sbu_0, # of connection points: 6
#     Node 10, Type 1, BuildingBlock: HISSIN_clean_sbu_0, # of connection points: 6
#     Node 11, Type 1, BuildingBlock: HISSIN_clean_sbu_0, # of connection points: 6
#     Edge 12, Type (0, 1), BuildingBlock: MIFKUJ_clean_linker_0, # of connection points: 2
#     Edge 13, Type (0, 1), BuildingBlock: MIFKUJ_clean_linker_0, # of connection points: 2
#     Edge 14, Type (0, 1), BuildingBlock: MIFKUJ_clean_linker_0, # of connection points: 2
#     Edge 15, Type (0, 1), BuildingBlock: MIFKUJ_clean_linker_0, # of connection points: 2
#     Edge 16, Type (0, 1), BuildingBlock: MIFKUJ_clean_linker_0, # of connection points: 2
#     Edge 17, Type (0, 1), BuildingBlock: MIFKUJ_clean_linker_0, # of connection points: 2
#     Edge 18, Type (0, 1), BuildingBlock: MIFKUJ_clean_linker_0, # of connection points: 2
#     Edge 19, Type (0, 1), BuildingBlock: MIFKUJ_clean_linker_0, # of connection points: 2
#     Edge 20, Type (0, 1), BuildingBlock: MIFKUJ_clean_linker_0, # of connection points: 2
#     Edge 21, Type (0, 1), BuildingBlock: MIFKUJ_clean_linker_0, # of connection points: 2
#     Edge 22, Type (0, 1), BuildingBlock: MIFKUJ_clean_linker_0, # of connection points: 2
#     Edge 23, Type (0, 1), BuildingBlock: MIFKUJ_clean_linker_0, # of connection points: 2
#     Edge 24, Type (0, 1), BuildingBlock: MIFKUJ_clean_linker_0, # of connection points: 2
#     Edge 25, Type (0, 1), BuildingBlock: MIFKUJ_clean_linker_0, # of connection points: 2
#     Edge 26, Type (0, 1), BuildingBlock: MIFKUJ_clean_linker_0, # of connection points: 2
#     Edge 27, Type (0, 1), BuildingBlock: MIFKUJ_clean_linker_0, # of connection points: 2
#     Edge 28, Type (0, 1), BuildingBlock: MIFKUJ_clean_linker_0, # of connection points: 2
#     Edge 29, Type (0, 1), BuildingBlock: MIFKUJ_clean_linker_0, # of connection points: 2
#     Edge 30, Type (0, 1), BuildingBlock: MIFKUJ_clean_linker_0, # of connection points: 2
#     Edge 31, Type (0, 1), BuildingBlock: MIFKUJ_clean_linker_0, # of connection points: 2
#     Edge 32, Type (0, 1), BuildingBlock: MIFKUJ_clean_linker_0, # of connection points: 2
#     Edge 33, Type (0, 1), BuildingBlock: MIFKUJ_clean_linker_0, # of connection points: 2
#     Edge 34, Type (0, 1), BuildingBlock: MIFKUJ_clean_linker_0, # of connection points: 2
#     Edge 35, Type (0, 1), BuildingBlock: MIFKUJ_clean_linker_0, # of connection points: 2
# Relax obj value: 0.343
# Max RMSD: 0.210
# Mean RMSD: 0.178
data_MOF--net-zzz--node1-HISSIN_clean_sbu_0--node2-BELTOD_clean_linker_0--edge1-MIFKUJ_clean_linker_0
_symmetry_space_group_name_H-M    P1
_symmetry_Int_Tables_number       1
_symmetry_cell_setting            triclinic
loop_
_symmetry_equiv_pos_as_xyz
'x, y, z'
_cell_length_a     66.674736
_cell_length_b     67.041375
_cell_length_c     25.469469
_cell_angle_alpha  89.458191
_cell_angle_beta   92.481642
_cell_angle_gamma 91.505847
loop_
_atom_site_label
_atom_site_type_symbol
_atom_site_fract_x
_atom_site_fract_y
_atom_site_fract_z
_atom_type_partial_charge
P0 P 0.72474 0.51383 0.27234 0.0
H1 H 0.73469 0.51287 0.38535 0.0
H2 H 0.76515 0.52359 0.43407 0.0
H3 H 0.7836 0.55799 0.29933 0.0
H4 H 0.75317 0.54667 0.25018 0.0
H5 H 0.68639 0.4971 0.23669 0.0
H6 H 0.65959 0.50931 0.17893 0.0
H7 H 0.68859 0.56776 0.17773 0.0
H8 H 0.71593 0.55504 0.23547 0.0
H9 H 0.75629 0.48481 0.27574 0.0
H10 H 0.7284 0.5238 0.15996 0.0
O11 O 0.71672 0.49423 0.30728 0.0
H12 H 0.78118 0.47594 0.21269 0.0
H13 H 0.75323 0.51518 0.09729 0.0
C14 C 0.74164 0.52885 0.3139 0.0
C15 C 0.74487 0.52332 0.36678 0.0
C16 C 0.76242 0.5295 0.39477 0.0
C17 C 0.77712 0.54134 0.37035 0.0
C18 C 0.77282 0.54851 0.31902 0.0
C19 C 0.75523 0.54231 0.29107 0.0
C20 C 0.703 0.52522 0.24134 0.0
C21 C 0.68674 0.51273 0.2255 0.0
C22 C 0.6713 0.5198 0.19229 0.0
C23 C 0.67174 0.53962 0.17364 0.0
C24 C 0.68778 0.55239 0.19106 0.0
C25 C 0.70332 0.54522 0.22458 0.0
C26 C 0.74028 0.50468 0.22239 0.0
C27 C 0.75525 0.4911 0.23642 0.0
C28 C 0.76956 0.48622 0.20058 0.0
C29 C 0.76918 0.49492 0.15012 0.0
C30 C 0.75376 0.50803 0.13563 0.0
C31 C 0.73951 0.51298 0.1716 0.0
P32 P 0.01888 0.75221 0.18221 0.0
H33 H 0.04841 0.76755 0.26083 0.0
H34 H 0.04362 0.7893 0.33428 0.0
H35 H 0.98033 0.77349 0.32864 0.0
H36 H 0.98531 0.7517 0.25375 0.0
H37 H 0.04279 0.7167 0.17387 0.0
H38 H 0.03695 0.68584 0.12514 0.0
H39 H 0.97488 0.70103 0.09563 0.0
H40 H 0.98093 0.73208 0.14465 0.0
H41 H 1.00387 0.79148 0.20974 0.0
H42 H 1.00317 0.75419 0.07221 0.0
O43 O 0.04254 0.75665 0.1656 0.0
H44 H 0.98551 0.81643 0.16105 0.0
H45 H 0.98498 0.78003 0.02208 0.0
C46 C 0.0172 0.75803 0.25119 0.0
C47 C 0.03363 0.76792 0.27669 0.0
C48 C 0.03083 0.78056 0.31896 0.0
C49 C 0.01147 0.78364 0.33676 0.0
C50 C 0.99539 0.77183 0.31524 0.0
C51 C 0.99827 0.759 0.27305 0.0
C52 C 0.01242 0.72693 0.16204 0.0
C53 C 0.02776 0.71318 0.15819 0.0
C54 C 0.02438 0.69546 0.13019 0.0
C55 C 0.00551 0.69106 0.10545 0.0
C56 C 0.98971 0.70413 0.11316 0.0
C57 C 0.9931 0.72183 0.14163 0.0
C58 C 1.00402 0.77023 0.14575 0.0
C59 C 0.99913 0.78814 0.16966 0.0
C60 C 0.98858 0.80261 0.14155 0.0
C61 C 0.98325 0.79991 0.0882 0.0
C62 C 0.98851 0.78224 0.06356 0.0
C63 C 0.99886 0.76749 0.0922 0.0
P64 P 0.77511 0.00971 0.18041 0.0
H65 H 0.7677 0.0343 0.27186 0.0
H66 H 0.74188 0.0304 0.33632 0.0
H67 H 0.73322 0.96854 0.29324 0.0
H68 H 0.75904 0.9726 0.22852 0.0
H69 H 0.80245 0.04003 0.13855 0.0
H70 H 0.83309 0.0376 0.09227 0.0
H71 H 0.83697 0.97556 0.13815 0.0
H72 H 0.80673 0.97867 0.18886 0.0
H73 H 0.73381 0.01154 0.14323 0.0
H74 H 0.78355 0.9733 0.11787 0.0
O75 O 0.76792 0.03299 0.16736 0.0
H76 H 0.71257 0.99106 0.08433 0.0
H77 H 0.76225 0.95262 0.05962 0.0
C78 C 0.76525 0.00387 0.24441 0.0
C79 C 0.76092 0.01964 0.27772 0.0
C80 C 0.74592 0.01741 0.31456 0.0
C81 C 0.73492 0.99929 0.31909 0.0
C82 C 0.74092 0.98289 0.28988 0.0
C83 C 0.75602 0.98512 0.25328 0.0
C84 C 0.80168 0.00933 0.16607 0.0
C85 C 0.81007 0.02598 0.14039 0.0
C86 C 0.8276 0.02447 0.11275 0.0
C87 C 0.83713 0.00609 0.10871 0.0
C88 C 0.82998 0.98993 0.13933 0.0
C89 C 0.8126 0.99167 0.16849 0.0
C90 C 0.76048 0.99442 0.13431 0.0
C91 C 0.74023 0.9988 0.12499 0.0
C92 C 0.72799 0.98682 0.09204 0.0
C93 C 0.73569 0.97 0.06804 0.0
C94 C 0.75593 0.96545 0.07773 0.0
C95 C 0.76819 0.97748 0.11099 0.0
P96 P 0.49403 0.79578 0.22975 0.0
H97 H 0.49337 0.78918 0.34323 0.0
H98 H 0.5027 0.76063 0.39786 0.0
H99 H 0.53164 0.73491 0.26697 0.0
H100 H 0.52247 0.76386 0.21245 0.0
H101 H 0.50634 0.83809 0.23023 0.0
H102 H 0.51868 0.85996 0.16089 0.0
H103 H 0.52726 0.80864 0.06396 0.0
H104 H 0.51495 0.78677 0.13379 0.0
H105 H 0.47569 0.75563 0.24199 0.0
H106 H 0.47245 0.80404 0.12921 0.0
O107 O 0.48066 0.81103 0.26509 0.0
H108 H 0.45679 0.73406 0.18101 0.0
H109 H 0.45289 0.7825 0.06806 0.0
C110 C 0.50734 0.77882 0.27369 0.0
C111 C 0.50235 0.77781 0.32661 0.0
C112 C 0.50747 0.76127 0.35775 0.0
C113 C 0.51758 0.74525 0.33658 0.0
C114 C 0.52392 0.74699 0.28465 0.0
C115 C 0.5188 0.76363 0.25344 0.0
C116 C 0.50948 0.81078 0.18705 0.0
C117 C 0.51147 0.83144 0.1948 0.0
C118 C 0.51854 0.84398 0.155 0.0
C119 C 0.52363 0.83607 0.10651 0.0
C120 C 0.52316 0.81521 0.10055 0.0
C121 C 0.51633 0.80267 0.1407 0.0
C122 C 0.47647 0.78117 0.18909 0.0
C123 C 0.47083 0.76173 0.20423 0.0
C124 C 0.45967 0.74942 0.16945 0.0
C125 C 0.45362 0.75644 0.11916 0.0
C126 C 0.45776 0.77651 0.10599 0.0
C127 C 0.46896 0.78882 0.14092 0.0
P128 P 0.28736 0.4301 0.0414 0.0
H129 H 0.28021 0.42861 0.92681 0.0
H130 H 0.25426 0.44422 0.87074 0.0
H131 H 0.24089 0.48325 0.9976 0.0
H132 H 0.26721 0.46796 0.05319 0.0
H133 H 0.31689 0.40781 0.10142 0.0
H134 H 0.34531 0.41765 0.15994 0.0
H135 H 0.33752 0.47926 0.11475 0.0
H136 H 0.30867 0.46928 0.05621 0.0
H137 H 0.24774 0.41097 0.03742 0.0
H138 H 0.28554 0.44327 0.15114 0.0
O139 O 0.29051 0.4082 0.01264 0.0
H140 H 0.21915 0.41417 0.09365 0.0
H141 H 0.25724 0.44646 0.20696 0.0
C142 C 0.27562 0.447 0.99442 0.0
C143 C 0.27237 0.44113 0.94192 0.0
C144 C 0.25743 0.45 0.90988 0.0
C145 C 0.24532 0.46469 0.93016 0.0
C146 C 0.24986 0.4718 0.98116 0.0
C147 C 0.26506 0.46319 0.01278 0.0
C148 C 0.31088 0.43776 0.07377 0.0
C149 C 0.32158 0.4234 0.10296 0.0
C150 C 0.33771 0.42904 0.13679 0.0
C151 C 0.34356 0.44921 0.14205 0.0
C152 C 0.33339 0.46358 0.11109 0.0
C153 C 0.31698 0.45791 0.07755 0.0
C154 C 0.26883 0.42667 0.09018 0.0
C155 C 0.25008 0.41805 0.07533 0.0
C156 C 0.23374 0.42005 0.10721 0.0
C157 C 0.23596 0.43067 0.15452 0.0
C158 C 0.25511 0.43798 0.17107 0.0
C159 C 0.27138 0.43614 0.13898 0.0
P160 P 0.06712 0.28559 0.04149 0.0
H161 H 0.06602 0.27829 0.92865 0.0
H162 H 0.05152 0.25055 0.8787 0.0
H163 H 0.01511 0.23397 0.00937 0.0
H164 H 0.03052 0.26153 0.06017 0.0
H165 H 0.08952 0.31422 0.10534 0.0
H166 H 0.08046 0.33985 0.16632 0.0
H167 H 0.01764 0.32496 0.13537 0.0
H168 H 0.02701 0.29893 0.07401 0.0
H169 H 0.09681 0.25619 0.01877 0.0
H170 H 0.05912 0.26993 0.14622 0.0
O171 O 0.08514 0.29583 0.00568 0.0
H172 H 0.10464 0.22412 0.06039 0.0
H173 H 0.06655 0.23799 0.18751 0.0
C174 C 0.04931 0.27224 0.99825 0.0
C175 C 0.05431 0.26926 0.94602 0.0
C176 C 0.04596 0.25318 0.91727 0.0
C177 C 0.03232 0.23962 0.94005 0.0
C178 C 0.0259 0.24377 0.99077 0.0
C179 C 0.03438 0.25986 0.01962 0.0
C180 C 0.05897 0.30485 0.08448 0.0
C181 C 0.07376 0.31656 0.11118 0.0
C182 C 0.06854 0.33132 0.14601 0.0
C183 C 0.04829 0.33473 0.15543 0.0
C184 C 0.03339 0.32273 0.12913 0.0
C185 C 0.03869 0.30791 0.09383 0.0
C186 C 0.07777 0.26564 0.08003 0.0
C187 C 0.09084 0.25263 0.0567 0.0
C188 C 0.09509 0.2342 0.08017 0.0
C189 C 0.0862 0.22846 0.12721 0.0
C190 C 0.07397 0.24205 0.15182 0.0
C191 C 0.06972 0.26042 0.12827 0.0
P192 P 0.23886 0.05994 0.03965 0.0
H193 H 0.24131 0.04792 0.92918 0.0
H194 H 0.26994 0.03694 0.88069 0.0
H195 H 0.30331 0.02725 0.02689 0.0
H196 H 0.27452 0.0375 0.07552 0.0
H197 H 0.19843 0.07275 0.05728 0.0
H198 H 0.17389 0.06371 0.12181 0.0
H199 H 0.21151 0.0161 0.17923 0.0
H200 H 0.23616 0.02514 0.11309 0.0
H201 H 0.26487 0.09415 0.01561 0.0
H202 H 0.25101 0.05865 0.15196 0.0
O203 O 0.22803 0.07473 0.99421 0.0
H204 H 0.29485 0.10774 0.06221 0.0
H205 H 0.28114 0.07085 0.19708 0.0
C206 C 0.25568 0.04382 0.00625 0.0
C207 C 0.25444 0.04266 0.95109 0.0
C208 C 0.27091 0.03652 0.92325 0.0
C209 C 0.28905 0.03169 0.95002 0.0
C210 C 0.28966 0.03123 0.00526 0.0
C211 C 0.27306 0.03693 0.03308 0.0
C212 C 0.2191 0.04946 0.07948 0.0
C213 C 0.20123 0.05994 0.08247 0.0
C214 C 0.18714 0.05478 0.11974 0.0
C215 C 0.19066 0.03918 0.15596 0.0
C216 C 0.20835 0.02827 0.15213 0.0
C217 C 0.22236 0.03326 0.11394 0.0
C218 C 0.25562 0.07536 0.08014 0.0
C219 C 0.26787 0.08978 0.05619 0.0
C220 C 0.28522 0.09731 0.08269 0.0
C221 C 0.29085 0.09012 0.13318 0.0
C222 C 0.27744 0.07705 0.15861 0.0
C223 C 0.26 0.06985 0.13244 0.0
P224 P 0.47123 0.23327 0.0179 0.0
H225 H 0.45637 0.24582 0.91329 0.0
H226 H 0.46756 0.27277 0.85627 0.0
H227 H 0.52341 0.27779 0.9483 0.0
H228 H 0.51185 0.25092 0.00608 0.0
H229 H 0.44639 0.19976 0.05102 0.0
H230 H 0.45435 0.1687 0.09576 0.0
H231 H 0.51724 0.17931 0.06899 0.0
H232 H 0.509 0.21052 0.02209 0.0
H233 H 0.45199 0.26722 0.06392 0.0
H234 H 0.50439 0.23213 0.09816 0.0
O235 O 0.44643 0.23412 0.00598 0.0
H236 H 0.46193 0.28921 0.1372 0.0
H237 H 0.51409 0.25368 0.17129 0.0
C238 C 0.4831 0.24644 0.96463 0.0
C239 C 0.47131 0.25221 0.92037 0.0
C240 C 0.47777 0.26774 0.88754 0.0
C241 C 0.49625 0.27787 0.89818 0.0
C242 C 0.50888 0.2707 0.9396 0.0
C243 C 0.50238 0.25511 0.97241 0.0
C244 C 0.47707 0.20756 0.03287 0.0
C245 C 0.46184 0.19513 0.05256 0.0
C246 C 0.46642 0.17729 0.07849 0.0
C247 C 0.48644 0.17158 0.08636 0.0
C248 C 0.50166 0.18339 0.0638 0.0
C249 C 0.49696 0.20113 0.03661 0.0
C250 C 0.47715 0.24771 0.07604 0.0
C251 C 0.46533 0.26393 0.08783 0.0
C252 C 0.47101 0.27646 0.12973 0.0
C253 C 0.48876 0.27309 0.15997 0.0
C254 C 0.50038 0.25667 0.1485 0.0
C255 C 0.49467 0.24417 0.10682 0.0
Eu256 Eu 1.00078 0.01916 0.59679 0.0
Eu257 Eu 0.03389 1.00262 0.68296 0.0
C258 C 0.02087 0.04767 0.68374 0.0
C259 C 0.98664 0.04977 0.48321 0.0
C260 C 1.0028 0.06253 0.49873 0.0
C261 C 0.99037 0.06061 0.3927 0.0
C262 C 0.01276 0.07402 0.46182 0.0
C263 C 0.98037 0.04897 0.42997 0.0
C264 C 0.00683 0.07311 0.40829 0.0
C265 C 0.97901 0.03515 0.52144 0.0
O266 O 1.00392 0.99496 0.71864 0.0
O267 O 0.98265 0.01496 0.66928 0.0
C268 C 0.98645 0.00354 0.71071 0.0
O269 O 0.99644 0.98558 0.5968 0.0
O270 O 0.05872 0.0084 0.74007 0.0
O271 O 0.04777 0.9781 0.72633 0.0
O272 O 0.02878 0.97852 0.62215 0.0
C273 C 0.01135 0.9731 0.59995 0.0
O274 O 0.02908 0.01613 0.55274 0.0
O275 O 0.05301 0.01652 0.61988 0.0
O276 O 0.02302 0.03169 0.71308 0.0
O277 O 0.98653 0.01749 0.51803 0.0
O278 O 0.97892 0.04118 0.57006 0.0
O279 O 0.01765 0.04585 0.63282 0.0
C280 C 0.05453 0.98707 0.81322 0.0
C281 C 0.06101 0.96968 0.83883 0.0
C282 C 0.031 0.9921 0.88161 0.0
C283 C 0.05167 0.9629 0.88391 0.0
C284 C 0.04027 0.99883 0.83651 0.0
C285 C 0.03566 0.97341 0.90365 0.0
C286 C 0.05843 0.99 0.75741 0.0
C287 C 0.0479 0.01793 0.56953 0.0
H288 H 0.00834 0.06305 0.53929 0.0
H289 H 0.98538 0.05968 0.35175 0.0
H290 H 0.02563 0.0831 0.47517 0.0
H291 H 0.96821 0.0389 0.41706 0.0
H292 H 0.07185 0.96034 0.82114 0.0
H293 H 0.0189 1.00063 0.89625 0.0
H294 H 0.05555 0.94837 0.89969 0.0
H295 H 0.0349 0.01226 0.81722 0.0
Eu296 Eu 0.51587 0.02761 0.64881 0.0
Eu297 Eu 0.49619 0.99317 0.5721 0.0
C298 C 0.51603 0.98041 0.68468 0.0
C299 C 0.54992 0.04919 0.75081 0.0
C300 C 0.54815 0.03378 0.78832 0.0
C301 C 0.58619 0.04862 0.7638 0.0
C302 C 0.56523 0.02516 0.81103 0.0
C303 C 0.56905 0.05728 0.74103 0.0
C304 C 0.5844 0.03183 0.7969 0.0
C305 C 0.53299 0.05318 0.71341 0.0
O306 O 0.47459 0.99724 0.63739 0.0
O307 O 0.48222 0.03001 0.65282 0.0
C308 C 0.46994 0.01449 0.657 0.0
O309 O 0.51259 0.04238 0.56897 0.0
O310 O 0.46965 0.97715 0.54012 0.0
O311 O 0.49876 0.97074 0.51107 0.0
O312 O 0.48727 0.02236 0.53414 0.0
C313 C 0.49857 0.03865 0.53237 0.0
O314 O 0.54228 0.01124 0.61949 0.0
O315 O 0.52705 1.00109 0.54211 0.0
O316 O 0.51041 0.9747 0.63694 0.0
O317 O 0.53731 0.05223 0.66404 0.0
O318 O 0.51598 0.04396 0.72252 0.0
O319 O 0.51731 0.99934 0.69819 0.0
C320 C 0.47156 0.97493 0.44969 0.0
C321 C 0.48128 0.99036 0.42201 0.0
C322 C 0.44151 0.97957 0.39451 0.0
C323 C 0.47084 1.00095 0.38266 0.0
C324 C 0.452 0.96887 0.43364 0.0
C325 C 0.45046 0.99648 0.37107 0.0
C326 C 0.47934 0.9693 0.50243 0.0
C327 C 0.54347 0.00509 0.571 0.0
H328 H 0.53365 0.02715 0.79689 0.0
H329 H 0.60082 0.05433 0.75316 0.0
H330 H 0.56332 0.01222 0.83629 0.0
H331 H 0.57081 0.06919 0.71239 0.0
H332 H 0.49631 0.99552 0.43402 0.0
H333 H 0.42593 0.9755 0.38534 0.0
H334 H 0.47818 0.01384 0.36517 0.0
H335 H 0.44421 0.95709 0.45466 0.0
Eu336 Eu 0.49446 0.52163 0.67332 0.0
Eu337 Eu 0.53247 0.50849 0.60711 0.0
C338 C 0.53873 0.52777 0.72183 0.0
C339 C 0.45838 0.5519 0.74849 0.0
C340 C 0.47251 0.56767 0.75405 0.0
C341 C 0.43337 0.57231 0.78649 0.0
C342 C 0.46718 0.58561 0.77635 0.0
C343 C 0.43876 0.55434 0.76435 0.0
C344 C 0.44757 0.58809 0.79314 0.0
C345 C 0.46397 0.53303 0.7255 0.0
O346 O 0.51587 0.48006 0.62925 0.0
O347 O 0.50386 0.49151 0.70538 0.0
C348 C 0.50909 0.47667 0.67611 0.0
O349 O 0.48132 0.50252 0.60726 0.0
O350 O 0.55886 0.49008 0.6037 0.0
O351 O 0.55078 0.50945 0.53808 0.0
O352 O 0.5059 0.50868 0.54914 0.0
C353 C 0.4875 0.50285 0.559 0.0
O354 O 0.50075 0.54719 0.61728 0.0
O355 O 0.53395 0.54211 0.60331 0.0
O356 O 0.54402 0.51354 0.6906 0.0
O357 O 0.46408 0.53284 0.67436 0.0
O358 O 0.47969 0.5246 0.7474 0.0
O359 O 0.52149 0.53656 0.71413 0.0
C360 C 0.55958 0.47646 0.52009 0.0
C361 C 0.5417 0.47255 0.4903 0.0
C362 C 0.57059 0.44312 0.50126 0.0
C363 C 0.53812 0.45402 0.46722 0.0
C364 C 0.57419 0.46178 0.52453 0.0
C365 C 0.55225 0.43895 0.47375 0.0
C366 C 0.56107 0.49406 0.55406 0.0
C367 C 0.51822 0.55355 0.60068 0.0
H368 H 0.48772 0.56603 0.74162 0.0
H369 H 0.4181 0.57385 0.79839 0.0
H370 H 0.47856 0.59733 0.78159 0.0
H371 H 0.42765 0.54233 0.75975 0.0
H372 H 0.53001 0.48347 0.48688 0.0
H373 H 0.58168 0.43169 0.50686 0.0
H374 H 0.52402 0.45129 0.4454 0.0
H375 H 0.58789 0.4644 0.54816 0.0
Eu376 Eu 0.02424 0.52754 0.59236 0.0
Eu377 Eu 0.00563 0.49358 0.67062 0.0
C378 C 0.05333 0.50099 0.66922 0.0
C379 C 0.05671 0.54844 0.48901 0.0
C380 C 0.07689 0.54966 0.50742 0.0
C381 C 0.06732 0.53369 0.40819 0.0
C382 C 0.09203 0.54229 0.47727 0.0
C383 C 0.05223 0.54118 0.43813 0.0
C384 C 0.0873 0.53353 0.42816 0.0
C385 C 0.04026 0.55192 0.52483 0.0
O386 O 0.01277 0.52069 0.72084 0.0
O387 O 0.01117 0.54517 0.65748 0.0
C388 C 0.0111 0.53954 0.70709 0.0
O389 O 0.99174 0.52231 0.56637 0.0
O390 O 1.00282 0.47955 0.74789 0.0
O391 O 0.98573 0.4677 0.68056 0.0
O392 O 0.97975 0.51301 0.6456 0.0
C393 C 0.97672 0.5198 0.59758 0.0
O394 O 0.03211 0.49811 0.55751 0.0
O395 O 0.00634 0.47949 0.59029 0.0
O396 O 0.03876 0.48762 0.6744 0.0
O397 O 0.0237 0.54159 0.51489 0.0
O398 O 0.04505 0.55225 0.57509 0.0
O399 O 0.05026 0.51834 0.64621 0.0
C400 C 0.96995 0.46773 0.76112 0.0
C401 C 0.954 0.47978 0.74403 0.0
C402 C 0.95133 0.45747 0.8369 0.0
C403 C 0.93679 0.48059 0.77304 0.0
C404 C 0.96852 0.45655 0.80759 0.0
C405 C 0.93533 0.46954 0.8199 0.0
C406 C 0.98833 0.46742 0.73157 0.0
C407 C 0.02027 0.48218 0.55585 0.0
H408 H 0.08093 0.55541 0.54616 0.0
H409 H 0.06309 0.52701 0.37065 0.0
H410 H 0.10736 0.54288 0.4932 0.0
H411 H 0.03686 0.5402 0.42255 0.0
H412 H 0.95491 0.48871 0.70851 0.0
H413 H 0.95052 0.44873 0.87276 0.0
H414 H 0.92482 0.49024 0.75946 0.0
H415 H 0.98075 0.44727 0.82139 0.0
H416 H 0.14942 0.03752 0.14883 0.0
H417 H 0.1261 0.03413 0.22004 0.0
H418 H 0.17608 0.0295 0.33242 0.0
H419 H 0.19946 0.03242 0.26097 0.0
H420 H 0.14794 0.0043 0.35887 0.0
H421 H 0.14748 0.07412 0.30844 0.0
H422 H 0.14302 0.10264 0.24741 0.0
H423 H 0.08168 0.08411 0.21442 0.0
H424 H 0.08581 0.05538 0.27469 0.0
H425 H 0.08929 0.01888 0.58389 0.0
H426 H 0.11429 0.02279 0.51633 0.0
H427 H 0.06672 0.02741 0.39692 0.0
H428 H 0.04186 0.024 0.46379 0.0
H429 H 0.09456 0.05359 0.37671 0.0
H430 H 0.09409 0.98381 0.41892 0.0
H431 H 0.09678 0.95418 0.47667 0.0
H432 H 0.15759 0.97134 0.52141 0.0
H433 H 0.15517 1.00123 0.46441 0.0
C434 C 0.15546 0.03574 0.1887 0.0
C435 C 0.17638 0.03534 0.19904 0.0
C436 C 0.14208 0.03392 0.22959 0.0
C437 C 0.14921 0.03206 0.28219 0.0
C438 C 0.17008 0.03104 0.29242 0.0
C439 C 0.18348 0.03262 0.25141 0.0
C440 C 0.13498 0.03105 0.32636 0.0
C441 C 0.1365 0.0153 0.36312 0.0
C442 C 0.11953 0.04502 0.33159 0.0
C443 C 0.11707 0.06241 0.29555 0.0
C444 C 0.1331 0.07603 0.28784 0.0
C445 C 0.13061 0.09225 0.25342 0.0
C446 C 0.11214 0.09505 0.2267 0.0
C447 C 0.09603 0.08181 0.23484 0.0
C448 C 0.09842 0.06559 0.26918 0.0
C449 C 0.08416 0.02081 0.54328 0.0
C450 C 0.06348 0.02098 0.52953 0.0
C451 C 0.0985 0.02293 0.50453 0.0
C452 C 0.0925 0.02513 0.45108 0.0
C453 C 0.07187 0.0257 0.43762 0.0
C454 C 0.05759 0.02365 0.47615 0.0
C455 C 0.10749 0.02681 0.4089 0.0
C456 C 0.10611 0.04268 0.37258 0.0
C457 C 0.12285 0.01283 0.40363 0.0
C458 C 0.12437 0.99487 0.43788 0.0
C459 C 0.10798 0.98135 0.4414 0.0
C460 C 0.10947 0.96449 0.47394 0.0
C461 C 0.12733 0.96091 0.50282 0.0
C462 C 0.14376 0.97415 0.4991 0.0
C463 C 0.14234 0.99105 0.46667 0.0
H464 H 0.12845 0.94785 0.52798 0.0
H465 H 0.11027 0.10747 0.19971 0.0
H466 H 0.4684 0.1344 0.08943 0.0
H467 H 0.47197 0.10923 0.1592 0.0
H468 H 0.51792 0.14589 0.23776 0.0
H469 H 0.5147 0.17091 0.16741 0.0
H470 H 0.52631 0.10653 0.24869 0.0
H471 H 0.46696 0.14712 0.27682 0.0
H472 H 0.43458 0.16123 0.24652 0.0
H473 H 0.41121 0.10244 0.21023 0.0
H474 H 0.44337 0.088 0.24076 0.0
H475 H 0.52155 0.07192 0.51009 0.0
H476 H 0.52029 0.09231 0.4302 0.0
H477 H 0.47038 0.0562 0.36821 0.0
H478 H 0.47106 0.03622 0.44906 0.0
H479 H 0.46416 0.0932 0.34447 0.0
H480 H 0.51959 0.05104 0.32768 0.0
H481 H 0.5513 0.03495 0.35434 0.0
H482 H 0.58183 0.09213 0.35975 0.0
H483 H 0.55021 0.10862 0.33396 0.0
C484 C 0.47951 0.13692 0.12112 0.0
C485 C 0.49117 0.15472 0.12304 0.0
C486 C 0.48147 0.12257 0.16117 0.0
C487 C 0.49486 0.12586 0.20458 0.0
C488 C 0.50742 0.14302 0.20489 0.0
C489 C 0.50562 0.1573 0.16449 0.0
C490 C 0.49475 0.11224 0.2513 0.0
C491 C 0.51274 0.10367 0.26984 0.0
C492 C 0.47696 0.10792 0.27809 0.0
C493 C 0.45749 0.11652 0.26113 0.0
C494 C 0.45485 0.13723 0.26259 0.0
C495 C 0.43654 0.14526 0.24546 0.0
C496 C 0.42079 0.13271 0.22679 0.0
C497 C 0.42332 0.11211 0.22527 0.0
C498 C 0.44156 0.10399 0.24262 0.0
C499 C 0.51017 0.06839 0.47974 0.0
C500 C 0.49657 0.0522 0.48588 0.0
C501 C 0.5096 0.07997 0.43369 0.0
C502 C 0.49561 0.07552 0.39229 0.0
C503 C 0.4815 0.05985 0.39915 0.0
C504 C 0.48195 0.04836 0.44544 0.0
C505 C 0.49564 0.0873 0.34216 0.0
C506 C 0.47766 0.09566 0.32305 0.0
C507 C 0.51335 0.09094 0.31423 0.0
C508 C 0.53247 0.08109 0.32931 0.0
C509 C 0.53303 0.06021 0.3349 0.0
C510 C 0.551 0.05101 0.34982 0.0
C511 C 0.56856 0.06251 0.35883 0.0
C512 C 0.5682 0.08324 0.35281 0.0
C513 C 0.55026 0.09253 0.338 0.0
H514 H 0.58246 0.05536 0.37038 0.0
H515 H 0.40665 0.13896 0.21335 0.0
H516 H 0.34515 0.43865 0.24534 0.0
H517 H 0.37081 0.44794 0.31302 0.0
H518 H 0.40323 0.48204 0.19841 0.0
H519 H 0.37725 0.47305 0.13032 0.0
H520 H 0.42672 0.45308 0.27261 0.0
H521 H 0.38107 0.5084 0.26985 0.0
H522 H 0.34752 0.52294 0.2717 0.0
H523 H 0.3385 0.49559 0.42228 0.0
H524 H 0.3719 0.48064 0.42093 0.0
H525 H 0.49412 0.50386 0.45352 0.0
H526 H 0.47072 0.49441 0.38105 0.0
H527 H 0.42602 0.47757 0.49185 0.0
H528 H 0.44916 0.48746 0.5645 0.0
H529 H 0.40917 0.49807 0.41632 0.0
H530 H 0.45212 0.44258 0.42413 0.0
H531 H 0.48404 0.4248 0.42661 0.0
H532 H 0.49678 0.44793 0.27352 0.0
H533 H 0.46501 0.46608 0.27039 0.0
C534 C 0.35779 0.44807 0.2345 0.0
C535 C 0.35925 0.45511 0.18257 0.0
C536 C 0.3724 0.45336 0.27317 0.0
C537 C 0.38893 0.46559 0.26064 0.0
C538 C 0.39061 0.4725 0.20873 0.0
C539 C 0.37574 0.46749 0.17006 0.0
C540 C 0.404 0.47157 0.30256 0.0
C541 C 0.42309 0.46321 0.30359 0.0
C542 C 0.3989 0.48411 0.34398 0.0
C543 C 0.3789 0.49325 0.34504 0.0
C544 C 0.37186 0.50534 0.30314 0.0
C545 C 0.35289 0.51369 0.30413 0.0
C546 C 0.34087 0.51015 0.34701 0.0
C547 C 0.34782 0.4983 0.38906 0.0
C548 C 0.36678 0.48991 0.38822 0.0
C549 C 0.47933 0.49809 0.46256 0.0
C550 C 0.47353 0.49648 0.51494 0.0
C551 C 0.46598 0.49257 0.42098 0.0
C552 C 0.44661 0.48508 0.43083 0.0
C553 C 0.44084 0.48334 0.48313 0.0
C554 C 0.45414 0.48896 0.5247 0.0
C555 C 0.43213 0.47967 0.38668 0.0
C556 C 0.41302 0.48807 0.38528 0.0
C557 C 0.43711 0.46678 0.34564 0.0
C558 C 0.45626 0.45589 0.34728 0.0
C559 C 0.4618 0.44403 0.39117 0.0
C560 C 0.47986 0.43385 0.39267 0.0
C561 C 0.49247 0.43528 0.35033 0.0
C562 C 0.48701 0.44686 0.30634 0.0
C563 C 0.46896 0.45709 0.30465 0.0
H564 H 0.50644 0.42738 0.35158 0.0
H565 H 0.32618 0.51662 0.34772 0.0
H566 H 0.06533 0.37218 0.16609 0.0
H567 H 0.05935 0.39706 0.23258 0.0
H568 H 0.0136 0.35855 0.29684 0.0
H569 H 0.01961 0.33341 0.23027 0.0
H570 H 1.00231 0.39757 0.29354 0.0
H571 H 0.06067 0.36185 0.35418 0.0
H572 H 0.09451 0.34836 0.34774 0.0
H573 H 0.11909 0.40768 0.3279 0.0
H574 H 0.08538 0.42146 0.33306 0.0
H575 H 0.99817 0.44752 0.53879 0.0
H576 H 1.00157 0.42306 0.46938 0.0
H577 H 0.05027 0.45835 0.40742 0.0
H578 H 0.04714 0.48278 0.47707 0.0
H579 H 0.0597 0.42047 0.41014 0.0
H580 H 1.00302 0.45666 0.34616 0.0
H581 H 0.96957 0.47149 0.34606 0.0
H582 H 0.94233 0.41343 0.3679 0.0
H583 H 0.97567 0.39826 0.36886 0.0
C584 C 0.05401 0.36892 0.1944 0.0
C585 C 0.04315 0.35061 0.19313 0.0
C586 C 0.05059 0.38322 0.23245 0.0
C587 C 0.03629 0.37958 0.27052 0.0
C588 C 0.02479 0.36169 0.2681 0.0
C589 C 0.02819 0.34735 0.22986 0.0
C590 C 0.03375 0.39426 0.31338 0.0
C591 C 0.01479 0.40234 0.3196 0.0
C592 C 0.05014 0.40099 0.3465 0.0
C593 C 0.07045 0.39267 0.34348 0.0
C594 C 0.07327 0.37199 0.34795 0.0
C595 C 0.09244 0.36429 0.34455 0.0
C596 C 0.10895 0.37712 0.33719 0.0
C597 C 0.10632 0.39771 0.33338 0.0
C598 C 0.08718 0.40548 0.33654 0.0
C599 C 0.00962 0.45012 0.51043 0.0
C600 C 0.02239 0.46718 0.51373 0.0
C601 C 0.01146 0.43614 0.47045 0.0
C602 C 0.02604 0.43889 0.4326 0.0
C603 C 0.03888 0.45584 0.43602 0.0
C604 C 0.03705 0.46984 0.47595 0.0
C605 C 0.02825 0.42388 0.39031 0.0
C606 C 0.04717 0.41569 0.38425 0.0
C607 C 0.01188 0.41723 0.35701 0.0
C608 C 0.99187 0.42635 0.3581 0.0
C609 C 0.98993 0.44707 0.35158 0.0
C610 C 0.97098 0.45554 0.35122 0.0
C611 C 0.95386 0.4434 0.35695 0.0
C612 C 0.95563 0.4228 0.36344 0.0
C613 C 0.97454 0.41426 0.36388 0.0
H614 H 0.9392 0.44995 0.35602 0.0
H615 H 0.12376 0.3711 0.33457 0.0
H616 H 0.83993 0.02435 0.01218 0.0
H617 H 0.86552 0.02126 0.94835 0.0
H618 H 0.89579 0.97817 0.04804 0.0
H619 H 0.87068 0.98219 0.11455 0.0
H620 H 0.92272 1.00164 0.00686 0.0
H621 H 0.86679 0.96478 0.93305 0.0
H622 H 0.83152 0.95817 0.90379 0.0
H623 H 0.83497 0.0064 0.79214 0.0
H624 H 0.87018 0.01349 0.82123 0.0
H625 H 0.98585 0.97754 0.79525 0.0
H626 H 0.96085 0.97489 0.86327 0.0
H627 H 0.92731 0.02181 0.78719 0.0
H628 H 0.95169 0.02415 0.71836 0.0
H629 H 0.90267 0.99248 0.81869 0.0
H630 H 0.95978 0.0288 0.89647 0.0
H631 H 0.99473 0.03455 0.92941 0.0
H632 H 0.98906 0.98517 0.03677 0.0
H633 H 0.95427 0.97872 1.00341 0.0
C634 C 0.85217 0.01446 0.02152 0.0
C635 C 0.85315 0.00372 0.06946 0.0
C636 C 0.86671 0.01241 0.9841 0.0
C637 C 0.88252 0.99916 0.99242 0.0
C638 C 0.88371 0.98842 0.04023 0.0
C639 C 0.8692 0.99063 0.07821 0.0
C640 C 0.89782 0.99694 0.95139 0.0
C641 C 0.91833 0.99922 0.96585 0.0
C642 C 0.89225 0.99404 0.89753 0.0
C643 C 0.8711 0.98975 0.87963 0.0
C644 C 0.85999 0.97406 0.90249 0.0
C645 C 0.84001 0.97022 0.88591 0.0
C646 C 0.831 0.98188 0.84621 0.0
C647 C 0.84196 0.99738 0.82291 0.0
C648 C 0.86194 1.0013 0.83939 0.0
C649 C 0.97313 0.98728 0.79286 0.0
C650 C 0.9709 1.00112 0.75114 0.0
C651 C 0.95895 0.98585 0.83213 0.0
C652 C 0.94241 0.99844 0.83133 0.0
C653 C 0.93995 0.01196 0.78912 0.0
C654 C 0.95396 0.01327 0.74961 0.0
C655 C 0.92756 0.99758 0.87398 0.0
C656 C 0.90709 0.99468 0.85976 0.0
C657 C 0.93325 0.9996 0.92813 0.0
C658 C 0.95445 1.00309 0.94682 0.0
C659 C 0.96606 0.01896 0.92651 0.0
C660 C 0.98584 0.0224 0.94543 0.0
C661 C 0.99411 0.01024 0.98518 0.0
C662 C 0.98262 0.99461 0.00609 0.0
C663 C 0.9629 0.99101 0.98701 0.0
H664 H 0.00943 0.01292 0.99971 0.0
H665 H 0.81553 0.97889 0.83344 0.0
H666 H 0.54708 0.87041 0.10378 0.0
H667 H 0.54994 0.89421 0.03068 0.0
H668 H 0.51027 0.85661 0.93398 0.0
H669 H 0.50785 0.83261 0.00627 0.0
H670 H 0.53795 0.87161 0.87595 0.0
H671 H 0.49419 0.89922 1.00103 0.0
H672 H 0.48511 0.91097 0.08814 0.0
H673 H 0.53345 0.95457 0.08762 0.0
H674 H 0.54298 0.94289 1.00075 0.0
H675 H 0.50194 0.9418 0.68627 0.0
H676 H 0.50667 0.91695 0.75595 0.0
H677 H 0.54473 0.95874 0.84458 0.0
H678 H 0.53917 0.98403 0.7759 0.0
H679 H 0.5208 0.9419 0.90736 0.0
H680 H 0.56181 0.91576 0.77507 0.0
H681 H 0.56977 0.9036 0.68764 0.0
H682 H 0.52508 0.85669 0.69981 0.0
H683 H 0.51672 0.86876 0.78718 0.0
C684 C 0.53914 0.86716 0.06673 0.0
C685 C 0.52723 0.84962 0.0609 0.0
C686 C 0.54069 0.88082 0.02499 0.0
C687 C 0.52999 0.87747 0.9769 0.0
C688 C 0.51869 0.85961 0.97051 0.0
C689 C 0.51735 0.84584 0.01193 0.0
C690 C 0.52985 0.89279 0.93385 0.0
C691 C 0.53403 0.88695 0.88272 0.0
C692 C 0.52518 0.91296 0.94262 0.0
C693 C 0.51942 0.92005 0.99469 0.0
C694 C 0.50296 0.91122 0.01967 0.0
C695 C 0.49772 0.91788 0.06897 0.0
C696 C 0.50873 0.93347 0.09347 0.0
C697 C 0.52496 0.94248 0.06864 0.0
C698 C 0.53028 0.93585 0.01937 0.0
C699 C 0.51148 0.94565 0.72036 0.0
C700 C 0.52019 0.9649 0.72547 0.0
C701 C 0.51429 0.93134 0.76019 0.0
C702 C 0.52637 0.93572 0.80547 0.0
C703 C 0.53535 0.95489 0.81019 0.0
C704 C 0.5322 0.96936 0.77082 0.0
C705 C 0.52872 0.92073 0.84905 0.0
C706 C 0.52492 0.92663 0.90042 0.0
C707 C 0.53357 0.90057 0.84028 0.0
C708 C 0.53859 0.89328 0.78766 0.0
C709 C 0.55363 0.90293 0.75906 0.0
C710 C 0.55822 0.89604 0.70948 0.0
C711 C 0.54792 0.8794 0.68812 0.0
C712 C 0.53304 0.86959 0.71638 0.0
C713 C 0.5284 0.87645 0.76598 0.0
H714 H 0.55148 0.87408 0.64972 0.0
H715 H 0.50465 0.93861 0.13163 0.0
H716 H 0.6315 0.52965 0.16622 0.0
H717 H 0.60855 0.53378 0.09006 0.0
H718 H 0.65371 0.56911 0.01269 0.0
H719 H 0.67727 0.56387 0.08737 0.0
H720 H 0.59056 0.56081 0.03359 0.0
H721 H 0.65261 0.55828 0.88367 0.0
H722 H 0.68731 0.54678 0.8777 0.0
H723 H 0.6767 0.50221 0.9962 0.0
H724 H 0.6419 0.51328 1.00235 0.0
H725 H 0.54042 0.56258 0.77824 0.0
H726 H 0.56272 0.57073 0.85462 0.0
H727 H 0.58839 0.5124 0.84747 0.0
H728 H 0.56707 0.50472 0.77 0.0
H729 H 0.61673 0.53671 0.86691 0.0
H730 H 0.55108 0.52727 0.93921 0.0
H731 H 0.51526 0.53434 0.94817 0.0
H732 H 0.53075 0.59486 0.9901 0.0
H733 H 0.56666 0.5882 0.98078 0.0
C734 C 0.63659 0.53836 0.1331 0.0
C735 C 0.65647 0.54597 0.13259 0.0
C736 C 0.62332 0.54091 0.08969 0.0
C737 C 0.62951 0.55134 0.0449 0.0
C738 C 0.6487 0.56059 0.04623 0.0
C739 C 0.66212 0.55777 0.08938 0.0
C740 C 0.61663 0.55069 0.99551 0.0
C741 C 0.59631 0.55569 0.99701 0.0
C742 C 0.62396 0.54375 0.94778 0.0
C743 C 0.64477 0.53679 0.9439 0.0
C744 C 0.65769 0.546 0.90832 0.0
C745 C 0.67737 0.53956 0.90492 0.0
C746 C 0.68423 0.52383 0.93669 0.0
C747 C 0.6714 0.51444 0.97175 0.0
C748 C 0.6517 0.52079 0.97522 0.0
C749 C 0.5509 0.55156 0.79299 0.0
C750 C 0.55203 0.53303 0.76803 0.0
C751 C 0.56357 0.55618 0.83688 0.0
C752 C 0.57717 0.54212 0.85753 0.0
C753 C 0.5782 0.52362 0.83239 0.0
C754 C 0.56592 0.5192 0.78802 0.0
C755 C 0.59046 0.54633 0.90508 0.0
C756 C 0.61095 0.54211 0.90318 0.0
C757 C 0.58308 0.55333 0.95278 0.0
C758 C 0.56152 0.5573 0.95872 0.0
C759 C 0.54683 0.54212 0.95002 0.0
C760 C 0.52652 0.54605 0.9552 0.0
C761 C 0.52073 0.56506 0.96953 0.0
C762 C 0.53525 0.58016 0.9789 0.0
C763 C 0.55559 0.57631 0.9737 0.0
H764 H 0.505 0.56808 0.9735 0.0
H765 H 0.69947 0.51888 0.93406 0.0
H766 H 0.02047 0.6533 0.11644 0.0
H767 H 0.01965 0.62682 0.05092 0.0
H768 H 0.98448 0.66356 0.94409 0.0
H769 H 0.98522 0.69009 0.00942 0.0
H770 H 0.97131 0.6255 0.93795 0.0
H771 H 0.03547 0.65959 0.93322 0.0
H772 H 0.06773 0.67318 0.97017 0.0
H773 H 0.08494 0.61437 0.0191 0.0
H774 H 0.05264 0.60045 0.98308 0.0
H775 H 0.99593 0.57719 0.69792 0.0
H776 H 0.99286 0.60176 0.76788 0.0
H777 H 0.01945 0.56079 0.88046 0.0
H778 H 0.02217 0.53605 0.81125 0.0
H779 H 0.03661 0.60049 0.88376 0.0
H780 H 0.97266 0.5664 0.88839 0.0
H781 H 0.94029 0.55272 0.8524 0.0
H782 H 0.92295 0.61141 0.80275 0.0
H783 H 0.95533 0.62543 0.83804 0.0
C784 C 0.01248 0.65574 0.07911 0.0
C785 C 1.00302 0.67394 0.06825 0.0
C786 C 0.01203 0.64056 0.04158 0.0
C787 C 1.00231 0.64327 0.99201 0.0
C788 C 0.99211 0.66107 0.98191 0.0
C789 C 0.99248 0.67623 0.01951 0.0
C790 C 1.00346 0.62794 0.95007 0.0
C791 C 0.98561 0.62024 0.92571 0.0
C792 C 0.02208 0.6207 0.93448 0.0
C793 C 0.04155 0.62901 0.95593 0.0
C794 C 0.04607 0.64958 0.9522 0.0
C795 C 0.06437 0.65734 0.97293 0.0
C796 C 0.07835 0.64466 0.99709 0.0
C797 C 0.07408 0.62418 1.00044 0.0
C798 C 0.05579 0.61634 0.97985 0.0
C799 C 1.00111 0.57341 0.73758 0.0
C800 C 0.0093 0.55465 0.74894 0.0
C801 C 0.99926 0.58743 0.77756 0.0
C802 C 0.00586 0.58309 0.82947 0.0
C803 C 0.01423 0.56446 0.84076 0.0
C804 C 0.01572 0.55032 0.8011 0.0
C805 C 1.0045 0.59811 0.87182 0.0
C806 C 0.02232 0.60577 0.89609 0.0
C807 C 0.98589 0.60532 0.88718 0.0
C808 C 0.96652 0.59693 0.86529 0.0
C809 C 0.96204 0.57637 0.86929 0.0
C810 C 0.94366 0.56855 0.84916 0.0
C811 C 0.9296 0.58118 0.82514 0.0
C812 C 0.93387 0.60165 0.8213 0.0
C813 C 0.95222 0.60954 0.84141 0.0
H814 H 0.91537 0.5751 0.80964 0.0
H815 H 0.09252 0.65069 0.01311 0.0
H816 H 0.09065 0.21613 0.22958 0.0
H817 H 0.08533 0.18249 0.26364 0.0
H818 H 0.07991 0.15988 0.10533 0.0
H819 H 0.08417 0.19379 0.07095 0.0
H820 H 0.04941 0.14787 0.15386 0.0
H821 H 0.11803 0.14521 0.19559 0.0
H822 H 0.15221 0.1549 0.22779 0.0
H823 H 0.13218 0.15786 0.38538 0.0
H824 H 0.09779 0.14847 0.3542 0.0
H825 H 0.01818 0.06167 0.31061 0.0
H826 H 0.03891 0.08095 0.24963 0.0
H827 H 0.04272 0.12989 0.35854 0.0
H828 H 0.02167 0.11121 0.41844 0.0
H829 H 0.0806 0.11883 0.31647 0.0
H830 H 0.0102 0.13198 0.26066 0.0
H831 H 0.97659 0.12104 0.22617 0.0
H832 H 1.00269 0.09637 0.09071 0.0
H833 H 0.03649 0.10697 0.12483 0.0
C834 C 0.08866 0.20396 0.202 0.0
C835 C 0.08759 0.20769 0.14761 0.0
C836 C 0.0859 0.18463 0.22152 0.0
C837 C 0.08233 0.16853 0.1871 0.0
C838 C 0.08267 0.17203 0.13269 0.0
C839 C 0.08528 0.19143 0.11309 0.0
C840 C 0.0752 0.14899 0.2082 0.0
C841 C 0.05664 0.14117 0.18845 0.0
C842 C 0.08456 0.14007 0.25323 0.0
C843 C 0.10522 0.1461 0.2724 0.0
C844 C 0.12083 0.14807 0.23708 0.0
C845 C 0.14028 0.15348 0.25518 0.0
C846 C 0.14437 0.15699 0.30859 0.0
C847 C 0.129 0.1551 0.34401 0.0
C848 C 0.10952 0.14967 0.32614 0.0
C849 C 0.02323 0.07664 0.32117 0.0
C850 C 0.01833 0.08489 0.36948 0.0
C851 C 0.03522 0.08751 0.2866 0.0
C852 C 0.0425 0.1067 0.30005 0.0
C853 C 0.03751 0.11495 0.34793 0.0
C854 C 0.02545 0.10425 0.38208 0.0
C855 C 0.05452 0.11897 0.26388 0.0
C856 C 0.07394 0.12526 0.28079 0.0
C857 C 0.04614 0.12633 0.21593 0.0
C858 C 0.02585 0.11999 0.19562 0.0
C859 C 0.00877 0.12406 0.22378 0.0
C860 C 0.98969 0.11796 0.20425 0.0
C861 C 0.98751 0.10795 0.15638 0.0
C862 C 1.0044 0.10407 0.12786 0.0
C863 C 0.02352 0.11012 0.14726 0.0
H864 H 0.97273 0.10325 0.14131 0.0
H865 H 0.15944 0.16118 0.32253 0.0
H866 H 0.32588 0.09443 0.08009 0.0
H867 H 0.35972 0.08969 0.11603 0.0
H868 H 0.3372 0.08528 0.27217 0.0
H869 H 0.30371 0.0925 0.23734 0.0
H870 H 0.37278 0.09575 0.28401 0.0
H871 H 0.34036 0.04279 0.1835 0.0
H872 H 0.32452 0.02506 0.10757 0.0
H873 H 0.37671 0.03743 0.01842 0.0
H874 H 0.39291 0.05523 0.09422 0.0
H875 H 0.41386 0.00925 0.39664 0.0
H876 H 0.39359 0.03453 0.35236 0.0
H877 H 0.43872 0.04334 0.23743 0.0
H878 H 0.45908 0.01752 0.28117 0.0
H879 H 0.39963 0.03714 0.19567 0.0
H880 H 0.43297 0.07609 0.32982 0.0
H881 H 0.44434 0.08466 0.42042 0.0
H882 H 0.38318 0.09002 0.46297 0.0
H883 H 0.37139 0.08105 0.37319 0.0
C884 C 0.32813 0.09347 0.12236 0.0
C885 C 0.31175 0.0931 0.15559 0.0
C886 C 0.34758 0.09038 0.14282 0.0
C887 C 0.35092 0.08605 0.19647 0.0
C888 C 0.33506 0.08813 0.23039 0.0
C889 C 0.31575 0.09196 0.21023 0.0
C890 C 0.3698 0.0767 0.21635 0.0
C891 C 0.37862 0.08289 0.26481 0.0
C892 C 0.37777 0.06012 0.19084 0.0
C893 C 0.36769 0.05059 0.14413 0.0
C894 C 0.34834 0.04195 0.14746 0.0
C895 C 0.33934 0.03183 0.10453 0.0
C896 C 0.34958 0.03017 0.0581 0.0
C897 C 0.3688 0.03876 0.05439 0.0
C898 C 0.3779 0.04886 0.09733 0.0
C899 C 0.41939 0.01631 0.36148 0.0
C900 C 0.43791 0.01112 0.34179 0.0
C901 C 0.40795 0.03103 0.33684 0.0
C902 C 0.41484 0.04101 0.29225 0.0
C903 C 0.43329 0.0359 0.2722 0.0
C904 C 0.44483 0.02115 0.29704 0.0
C905 C 0.40178 0.05551 0.26447 0.0
C906 C 0.39417 0.05034 0.21426 0.0
C907 C 0.39414 0.07217 0.29012 0.0
C908 C 0.40129 0.07798 0.34424 0.0
C909 C 0.42193 0.07911 0.35836 0.0
C910 C 0.42846 0.084 0.40968 0.0
C911 C 0.4145 0.08797 0.44729 0.0
C912 C 0.39399 0.08702 0.43372 0.0
C913 C 0.38738 0.08204 0.38255 0.0
H914 H 0.41959 0.09173 0.48699 0.0
H915 H 0.3427 0.02207 0.02518 0.0
H916 H 0.46684 0.28975 0.23573 0.0
H917 H 0.47829 0.31503 0.29985 0.0
H918 H 0.5379 0.31398 0.24049 0.0
H919 H 0.52661 0.28864 0.17678 0.0
H920 H 0.53961 0.31689 0.34572 0.0
H921 H 0.50538 0.3493 0.19978 0.0
H922 H 0.47719 0.35555 0.13639 0.0
H923 H 0.43968 0.36972 0.26301 0.0
H924 H 0.46757 0.36325 0.32724 0.0
H925 H 0.57565 0.41503 0.41685 0.0
H926 H 0.56551 0.38336 0.37492 0.0
H927 H 0.50751 0.38598 0.44317 0.0
H928 H 0.51758 0.4175 0.48512 0.0
H929 H 0.50444 0.38124 0.33822 0.0
H930 H 0.53988 0.35044 0.48381 0.0
H931 H 0.56888 0.34568 0.54577 0.0
H932 H 0.60497 0.3296 0.41787 0.0
H933 H 0.57625 0.33469 0.35517 0.0
C934 C 0.48239 0.29488 0.23659 0.0
C935 C 0.49581 0.28734 0.20117 0.0
C936 C 0.48892 0.30925 0.27322 0.0
C937 C 0.50888 0.31653 0.27442 0.0
C938 C 0.52246 0.30851 0.24031 0.0
C939 C 0.51598 0.29405 0.20396 0.0
C940 C 0.51536 0.33332 0.30891 0.0
C941 C 0.53202 0.33101 0.3439 0.0
C942 C 0.50528 0.35164 0.30692 0.0
C943 C 0.48849 0.35554 0.26834 0.0
C944 C 0.49107 0.35357 0.21413 0.0
C945 C 0.47515 0.35718 0.17805 0.0
C946 C 0.45663 0.36296 0.19567 0.0
C947 C 0.45401 0.3652 0.24942 0.0
C948 C 0.46987 0.36156 0.28568 0.0
C949 C 0.5609 0.4086 0.42363 0.0
C950 C 0.54726 0.4188 0.45336 0.0
C951 C 0.55514 0.39053 0.39984 0.0
C952 C 0.53575 0.38238 0.40597 0.0
C953 C 0.52249 0.3921 0.43775 0.0
C954 C 0.52822 0.41012 0.46139 0.0
C955 C 0.5286 0.3648 0.3753 0.0
C956 C 0.51188 0.36703 0.34062 0.0
C957 C 0.53874 0.34654 0.37734 0.0
C958 C 0.55598 0.34317 0.41485 0.0
C959 C 0.55407 0.3461 0.46896 0.0
C960 C 0.57043 0.3433 0.50418 0.0
C961 C 0.58878 0.33739 0.48575 0.0
C962 C 0.59076 0.33421 0.43208 0.0
C963 C 0.57443 0.33703 0.3967 0.0
H964 H 0.60144 0.33522 0.51305 0.0
H965 H 0.44433 0.36577 0.16767 0.0
H966 H 0.23086 0.43031 0.26072 0.0
H967 H 0.20373 0.44559 0.30688 0.0
H968 H 0.17414 0.46038 0.15817 0.0
H969 H 0.20125 0.44542 0.1119 0.0
H970 H 0.18032 0.49275 0.22414 0.0
H971 H 0.15465 0.42517 0.23343 0.0
H972 H 0.15712 0.38934 0.25448 0.0
H973 H 0.16779 0.40296 0.41783 0.0
H974 H 0.16583 0.43893 0.39765 0.0
H975 H 0.09235 0.5325 0.32181 0.0
H976 H 0.11609 0.51278 0.27531 0.0
H977 H 0.14132 0.49118 0.42336 0.0
H978 H 0.11691 0.50997 0.47004 0.0
H979 H 0.13689 0.46151 0.35695 0.0
H980 H 0.1654 0.52768 0.35091 0.0
H981 H 0.16605 0.56394 0.33355 0.0
H982 H 0.15275 0.55345 0.16951 0.0
H983 H 0.15176 0.51712 0.18601 0.0
C984 C 0.21839 0.43653 0.23798 0.0
C985 C 0.21814 0.43664 0.18276 0.0
C986 C 0.20289 0.44518 0.26433 0.0
C987 C 0.18697 0.45409 0.23583 0.0
C988 C 0.18631 0.45354 0.18078 0.0
C989 C 0.2017 0.44481 0.15445 0.0
C990 C 0.17184 0.46537 0.26321 0.0
C991 C 0.17057 0.48587 0.25256 0.0
C992 C 0.15969 0.45646 0.30155 0.0
C993 C 0.16033 0.43479 0.31391 0.0
C994 C 0.15772 0.42056 0.27378 0.0
C995 C 0.15905 0.40021 0.28555 0.0
C996 C 0.16277 0.39389 0.3374 0.0
C997 C 0.16501 0.40789 0.37765 0.0
C998 C 0.16378 0.42826 0.36607 0.0
C999 C 0.10288 0.52349 0.34451 0.0
C1000 C 0.10277 0.52292 0.39971 0.0
C1001 C 0.11657 0.51235 0.31787 0.0
C1002 C 0.13063 0.50066 0.34588 0.0
C1003 C 0.13063 0.50012 0.40094 0.0
C1004 C 0.11684 0.51111 0.42759 0.0
C1005 C 0.1453 0.48894 0.31776 0.0
C1006 C 0.14655 0.46838 0.32834 0.0
C1007 C 0.1577 0.49784 0.27988 0.0
C1008 C 0.15829 0.51969 0.2698 0.0
C1009 C 0.16245 0.53311 0.3112 0.0
C1010 C 0.16292 0.55367 0.30151 0.0
C1011 C 0.15939 0.56099 0.25049 0.0
C1012 C 0.15545 0.54776 0.20903 0.0
C1013 C 0.15495 0.52718 0.21852 0.0
H1014 H 0.15976 0.57692 0.24306 0.0
H1015 H 0.16378 0.37813 0.34644 0.0
H1016 H 0.95194 0.82298 0.11312 0.0
H1017 H 0.94551 0.8566 0.07924 0.0
H1018 H 0.99026 0.84925 0.96389 0.0
H1019 H 0.99644 0.81574 0.99705 0.0
H1020 H 0.97284 0.8839 0.09171 0.0
H1021 H 0.9869 0.88081 0.86536 0.0
H1022 H 0.97521 0.86077 0.78888 0.0
H1023 H 0.92233 0.84238 0.86866 0.0
H1024 H 0.93347 0.86258 0.94536 0.0
H1025 H 0.0437 0.94949 0.98982 0.0
H1026 H 0.02048 0.92488 0.02682 0.0
H1027 H 0.97185 0.94844 0.92987 0.0
H1028 H 0.99509 0.97268 0.89206 0.0
H1029 H 0.97582 0.91085 0.9103 0.0
H1030 H 0.96867 0.94778 0.06225 0.0
H1031 H 0.97792 0.96869 0.13898 0.0
H1032 H 0.01215 0.92104 0.20808 0.0
H1033 H 1.00356 0.9 0.13117 0.0
C1034 C 0.9598 0.82833 0.07917 0.0
C1035 C 0.97485 0.81692 0.05801 0.0
C1036 C 0.95613 0.84751 0.05992 0.0
C1037 C 0.96746 0.85553 0.01924 0.0
C1038 C 0.98106 0.84334 0.99472 0.0
C1039 C 0.98463 0.82413 0.01375 0.0
C1040 C 0.96823 0.87734 0.00923 0.0
C1041 C 0.97315 0.8899 0.05205 0.0
C1042 C 0.96792 0.88534 0.95766 0.0
C1043 C 0.96107 0.87322 0.91133 0.0
C1044 C 0.97269 0.87264 0.86654 0.0
C1045 C 0.96618 0.86121 0.82313 0.0
C1046 C 0.94806 0.8503 0.82394 0.0
C1047 C 0.93639 0.85081 0.86814 0.0
C1048 C 0.94281 0.86223 0.91164 0.0
C1049 C 0.02795 0.94981 0.97765 0.0
C1050 C 0.02125 0.96286 0.93758 0.0
C1051 C 0.01463 0.93585 0.99907 0.0
C1052 C 0.99442 0.93479 0.98085 0.0
C1053 C 0.98737 0.94897 0.94433 0.0
C1054 C 1.00067 0.9629 0.923 0.0
C1055 C 0.98196 0.91683 0.99254 0.0
C1056 C 0.97485 0.90504 0.95002 0.0
C1057 C 0.97997 0.90964 0.04438 0.0
C1058 C 0.98545 0.92228 0.09074 0.0
C1059 C 0.97831 0.9418 0.09356 0.0
C1060 C 0.98344 0.95368 0.13714 0.0
C1061 C 0.99561 0.9462 0.1784 0.0
C1062 C 1.00271 0.92682 0.17612 0.0
C1063 C 0.99769 0.91489 0.13252 0.0
H1064 H 0.99954 0.95542 0.21215 0.0
H1065 H 0.94305 0.84145 0.7903 0.0
H1066 H 0.74549 0.95708 0.97093 0.0
H1067 H 0.72139 0.95121 0.89744 0.0
H1068 H 0.67278 0.95299 1.00368 0.0
H1069 H 0.69677 0.95756 0.07726 0.0
H1070 H 0.6595 0.93627 0.9149 0.0
H1071 H 0.69846 0.99802 0.96596 0.0
H1072 H 0.73084 0.01628 0.98038 0.0
H1073 H 0.74637 0.00358 0.82241 0.0
H1074 H 0.71412 0.98504 0.80743 0.0
H1075 H 0.59354 0.01412 0.89172 0.0
H1076 H 0.62072 0.99127 0.91256 0.0
H1077 H 0.6423 0.99929 0.75643 0.0
H1078 H 0.61483 0.0218 0.7346 0.0
H1079 H 0.67188 1.00284 0.83383 0.0
H1080 H 0.61969 0.95679 0.78586 0.0
H1081 H 0.58512 0.9431 0.78515 0.0
H1082 H 0.5921 0.92872 0.94947 0.0
H1083 H 0.62651 0.94312 0.95178 0.0
C1084 C 0.72975 0.95503 0.97901 0.0
C1085 C 0.72283 0.95873 0.02928 0.0
C1086 C 0.71597 0.95171 0.93688 0.0
C1087 C 0.6953 0.95272 0.94479 0.0
C1088 C 0.68866 0.95262 0.99634 0.0
C1089 C 0.70239 0.95553 0.03843 0.0
C1090 C 0.68129 0.95991 0.9025 0.0
C1091 C 0.66223 0.95063 0.89622 0.0
C1092 C 0.68497 0.97855 0.8774 0.0
C1093 C 0.70407 0.99005 0.88576 0.0
C1094 C 0.70881 0.99917 0.93436 0.0
C1095 C 0.72713 0.00952 0.94266 0.0
C1096 C 0.74067 0.01107 0.90234 0.0
C1097 C 0.73588 1.00233 0.85361 0.0
C1098 C 0.71761 0.99189 0.8452 0.0
C1099 C 0.60401 0.01095 0.86173 0.0
C1100 C 0.60207 0.01978 0.8116 0.0
C1101 C 0.61943 0.99781 0.87353 0.0
C1102 C 0.63314 0.99322 0.83543 0.0
C1103 C 0.63165 1.00244 0.78591 0.0
C1104 C 0.61614 0.01551 0.77389 0.0
C1105 C 0.64978 0.97979 0.8492 0.0
C1106 C 0.66929 0.98797 0.84981 0.0
C1107 C 0.64625 0.96048 0.87037 0.0
C1108 C 0.62579 0.95105 0.86891 0.0
C1109 C 0.61387 0.95078 0.82193 0.0
C1110 C 0.59426 0.94291 0.82129 0.0
C1111 C 0.58645 0.93491 0.86721 0.0
C1112 C 0.59822 0.93485 0.9139 0.0
C1113 C 0.61779 0.9429 0.9149 0.0
H1114 H 0.57128 0.9288 0.86672 0.0
H1115 H 0.75486 0.01906 0.90884 0.0
H1116 H 0.46246 0.75455 0.01568 0.0
H1117 H 0.45379 0.7276 0.95464 0.0
H1118 H 0.41789 0.69856 0.07124 0.0
H1119 H 0.42617 0.72576 0.13246 0.0
H1120 H 0.44726 0.67496 0.03606 0.0
H1121 H 0.39565 0.71574 0.95947 0.0
H1122 H 0.38144 0.74634 0.92039 0.0
H1123 H 0.42147 0.74337 0.79326 0.0
H1124 H 0.43613 0.71291 0.83196 0.0
H1125 H 0.42479 0.59169 0.87901 0.0
H1126 H 0.41888 0.62189 0.92811 0.0
H1127 H 0.45329 0.65664 0.81866 0.0
H1128 H 0.4586 0.62658 0.76793 0.0
H1129 H 0.42112 0.67707 0.85074 0.0
H1130 H 0.47562 0.6405 0.92938 0.0
H1131 H 0.49222 0.6108 0.96668 0.0
H1132 H 0.44973 0.60727 0.08861 0.0
H1133 H 0.43268 0.6368 0.05152 0.0
C1134 C 0.45213 0.74284 0.02781 0.0
C1135 C 0.44515 0.74223 0.07917 0.0
C1136 C 0.44723 0.72739 0.99282 0.0
C1137 C 0.43522 0.71109 0.00847 0.0
C1138 C 0.42723 0.71101 0.05853 0.0
C1139 C 0.43205 0.7265 0.09349 0.0
C1140 C 0.43325 0.69309 0.97528 0.0
C1141 C 0.44108 0.67531 0.99595 0.0
C1142 C 0.42593 0.6938 0.92234 0.0
C1143 C 0.41709 0.7121 0.89886 0.0
C1144 C 0.40154 0.72169 0.9234 0.0
C1145 C 0.39338 0.739 0.90127 0.0
C1146 C 0.40057 0.74681 0.85442 0.0
C1147 C 0.41591 0.73731 0.82955 0.0
C1148 C 0.42414 0.72 0.85154 0.0
C1149 C 0.43068 0.60581 0.86455 0.0
C1150 C 0.44233 0.6067 0.81983 0.0
C1151 C 0.42741 0.62304 0.8929 0.0
C1152 C 0.43591 0.64142 0.87743 0.0
C1153 C 0.44666 0.64257 0.83132 0.0
C1154 C 0.44987 0.62535 0.80276 0.0
C1155 C 0.43504 0.65903 0.91175 0.0
C1156 C 0.42691 0.6767 0.8912 0.0
C1157 C 0.44242 0.65839 0.96465 0.0
C1158 C 0.45273 0.64072 0.98732 0.0
C1159 C 0.46972 0.6333 0.9639 0.0
C1160 C 0.47923 0.61651 0.98504 0.0
C1161 C 0.472 0.60712 0.02989 0.0
C1162 C 0.45529 0.61454 0.0538 0.0
C1163 C 0.4457 0.6313 0.03275 0.0
H1164 H 0.47939 0.59413 0.04619 0.0
H1165 H 0.39423 0.76021 0.83735 0.0
H1166 H 0.76586 0.48769 0.0444 0.0
H1167 H 0.79317 0.48345 0.98446 0.0
H1168 H 0.83655 0.49001 0.11423 0.0
H1169 H 0.8094 0.49467 0.17406 0.0
H1170 H 0.84676 0.51247 0.0283 0.0
H1171 H 0.82498 0.44465 0.06569 0.0
H1172 H 0.80019 0.41681 0.07043 0.0
H1173 H 0.78734 0.42159 0.90419 0.0
H1174 H 0.81187 0.44966 0.89859 0.0
H1175 H 0.93434 0.47476 0.92571 0.0
H1176 H 0.90477 0.47898 0.97774 0.0
H1177 H 0.86638 0.4726 0.83785 0.0
H1178 H 0.89593 0.46812 0.78557 0.0
H1179 H 0.85228 0.4511 0.9229 0.0
H1180 H 0.87474 0.51729 0.88307 0.0
H1181 H 0.89944 0.54509 0.876 0.0
H1182 H 0.91044 0.54404 0.04333 0.0
H1183 H 0.88602 0.516 0.05136 0.0
C1184 C 0.78123 0.48825 0.06007 0.0
C1185 C 0.7855 0.49138 0.11394 0.0
C1186 C 0.79678 0.48573 0.02589 0.0
C1187 C 0.81685 0.4863 0.04505 0.0
C1188 C 0.82115 0.48949 0.09874 0.0
C1189 C 0.80563 0.49194 0.13292 0.0
C1190 C 0.83345 0.48365 0.00926 0.0
C1191 C 0.8481 0.49897 0.00566 0.0
C1192 C 0.83478 0.46631 0.97852 0.0
C1193 C 0.82009 0.44939 0.98182 0.0
C1194 C 0.81674 0.43987 0.03022 0.0
C1195 C 0.80276 0.42403 0.03305 0.0
C1196 C 0.79215 0.41747 0.98767 0.0
C1197 C 0.79554 0.42671 0.93933 0.0
C1198 C 0.80949 0.44257 0.93629 0.0
C1199 C 0.91958 0.47402 0.90618 0.0
C1200 C 0.91739 0.47115 0.85166 0.0
C1201 C 0.90275 0.47659 0.93581 0.0
C1202 C 0.88346 0.4763 0.91143 0.0
C1203 C 0.88117 0.47293 0.85724 0.0
C1204 C 0.89803 0.4705 0.82748 0.0
C1205 C 0.86575 0.47975 0.94271 0.0
C1206 C 0.85088 0.46464 0.94534 0.0
C1207 C 0.86413 0.49735 0.97224 0.0
C1208 C 0.87867 0.5144 0.96776 0.0
C1209 C 0.88253 0.52288 0.91834 0.0
C1210 C 0.89647 0.5387 0.91415 0.0
C1211 C 0.90655 0.54629 0.95916 0.0
C1212 C 0.90264 0.53812 0.00849 0.0
C1213 C 0.88873 0.52227 0.01289 0.0
H1214 H 0.91735 0.55853 0.95583 0.0
H1215 H 0.78134 0.4052 0.98994 0.0
H1216 H 0.02654 0.2026 0.98546 0.0
H1217 H 0.02186 0.17052 0.94202 0.0
H1218 H 0.02266 0.1999 0.79078 0.0
H1219 H 0.02597 0.23228 0.83393 0.0
H1220 H 0.99663 0.16945 0.78637 0.0
H1221 H 0.06569 0.17794 0.85151 0.0
H1222 H 0.09174 0.18484 0.92119 0.0
H1223 H 0.07094 0.13402 0.00923 0.0
H1224 H 0.04463 0.12693 0.94027 0.0
H1225 H 0.02044 0.08474 0.63626 0.0
H1226 H 0.02097 0.11736 0.67895 0.0
H1227 H 0.02241 0.08839 0.83099 0.0
H1228 H 0.0225 0.0559 0.78876 0.0
H1229 H 0.04711 0.1187 0.83525 0.0
H1230 H 0.97875 0.10941 0.77293 0.0
H1231 H 0.95115 0.1026 0.70746 0.0
H1232 H 0.96896 0.15431 0.61842 0.0
H1233 H 0.99685 0.16128 0.68304 0.0
C1234 C 0.02515 0.20243 0.94297 0.0
C1235 C 0.02684 0.22023 0.91343 0.0
C1236 C 0.02279 0.18392 0.91807 0.0
C1237 C 0.0225 0.18264 0.86298 0.0
C1238 C 0.02309 0.2004 0.83331 0.0
C1239 C 0.02518 0.21896 0.85818 0.0
C1240 C 0.02251 0.16283 0.83639 0.0
C1241 C 0.00783 0.15846 0.79661 0.0
C1242 C 0.0368 0.14819 0.85044 0.0
C1243 C 0.05312 0.15198 0.89089 0.0
C1244 C 0.06667 0.16825 0.88575 0.0
C1245 C 0.08146 0.1722 0.92513 0.0
C1246 C 0.08297 0.1599 0.96965 0.0
C1247 C 0.06976 0.14354 0.97472 0.0
C1248 C 0.05492 0.13952 0.93546 0.0
C1249 C 0.02091 0.08533 0.67878 0.0
C1250 C 0.02141 0.06765 0.70897 0.0
C1251 C 0.02109 0.10402 0.70323 0.0
C1252 C 0.02145 0.10546 0.7584 0.0
C1253 C 0.02215 0.08779 0.78847 0.0
C1254 C 0.02215 0.06916 0.76414 0.0
C1255 C 0.02123 0.12527 0.78503 0.0
C1256 C 0.0359 0.12966 0.82485 0.0
C1257 C 0.00682 0.13984 0.77132 0.0
C1258 C 0.99001 0.13575 0.73254 0.0
C1259 C 0.97687 0.11925 0.73919 0.0
C1260 C 0.96116 0.11537 0.70226 0.0
C1261 C 0.95834 0.12798 0.65873 0.0
C1262 C 0.97119 0.14454 0.65212 0.0
C1263 C 0.98694 0.14847 0.6889 0.0
H1264 H 0.94617 0.12495 0.63018 0.0
H1265 H 0.09439 0.16303 1.00018 0.0
H1266 H 0.29544 0.00584 0.86955 0.0
H1267 H 0.32621 1.00255 0.82054 0.0
H1268 H 0.35523 0.04913 0.91394 0.0
H1269 H 0.32474 0.05213 0.96363 0.0
H1270 H 0.35879 0.0531 0.79896 0.0
H1271 H 0.36937 0.00666 0.94161 0.0
H1272 H 0.36023 0.97826 0.99868 0.0
H1273 H 0.35698 0.93939 0.86535 0.0
H1274 H 0.36577 0.96767 0.80726 0.0
H1275 H 0.45901 0.04516 0.71956 0.0
H1276 H 0.42864 0.04766 0.7691 0.0
H1277 H 0.40724 0.99067 0.70912 0.0
H1278 H 0.43801 0.98777 0.66092 0.0
H1279 H 0.39913 0.99193 0.80704 0.0
H1280 H 0.38827 0.03763 0.66361 0.0
H1281 H 0.39623 0.06587 0.60462 0.0
H1282 H 0.39865 0.10583 0.73564 0.0
H1283 H 0.39096 0.07778 0.79553 0.0
C1284 C 0.30844 0.01528 0.87972 0.0
C1285 C 0.30774 0.02911 0.92075 0.0
C1286 C 0.326 0.0134 0.85174 0.0
C1287 C 0.34307 0.02561 0.86346 0.0
C1288 C 0.34229 0.03958 0.90403 0.0
C1289 C 0.32489 0.04119 0.93263 0.0
C1290 C 0.36172 0.02386 0.83337 0.0
C1291 C 0.36776 0.03982 0.80114 0.0
C1292 C 0.37317 0.00637 0.83514 0.0
C1293 C 0.368 0.98933 0.86999 0.0
C1294 C 0.36651 0.9921 0.92435 0.0
C1295 C 0.36144 0.97601 0.95691 0.0
C1296 C 0.35797 0.95704 0.93563 0.0
C1297 C 0.35963 0.9541 0.88176 0.0
C1298 C 0.36467 0.97015 0.849 0.0
C1299 C 0.44781 0.03318 0.7166 0.0
C1300 C 0.451 0.01631 0.68581 0.0
C1301 C 0.43032 0.03467 0.74491 0.0
C1302 C 0.41526 0.01953 0.74245 0.0
C1303 C 0.41848 1.00262 0.71188 0.0
C1304 C 0.43611 1.001 0.68405 0.0
C1305 C 0.39636 0.02122 0.77213 0.0
C1306 C 0.39021 0.00523 0.80446 0.0
C1307 C 0.38469 0.03866 0.77005 0.0
C1308 C 0.38922 0.05557 0.73411 0.0
C1309 C 0.39064 0.05242 0.67989 0.0
C1310 C 0.39508 0.06839 0.64629 0.0
C1311 C 0.39799 0.08762 0.66639 0.0
C1312 C 0.39641 0.09093 0.72013 0.0
C1313 C 0.39199 0.075 0.75391 0.0
H1314 H 0.40143 0.09997 0.64032 0.0
H1315 H 0.35405 0.94459 0.9609 0.0
H1316 H 0.51375 0.31198 0.93988 0.0
H1317 H 0.51763 0.34459 0.89787 0.0
H1318 H 0.49255 0.32066 0.75215 0.0
H1319 H 0.48923 0.28765 0.7935 0.0
H1320 H 0.52315 0.34801 0.73484 0.0
H1321 H 0.46308 0.34507 0.8325 0.0
H1322 H 0.44333 0.3389 0.91097 0.0
H1323 H 0.47844 0.38377 0.99511 0.0
H1324 H 0.49859 0.39001 0.91732 0.0
H1325 H 0.50092 0.44259 0.6204 0.0
H1326 H 0.49889 0.40834 0.65399 0.0
H1327 H 0.5138 0.42957 0.8108 0.0
H1328 H 0.51423 0.46394 0.77766 0.0
H1329 H 0.48769 0.40254 0.81925 0.0
H1330 H 0.54912 0.40445 0.7221 0.0
H1331 H 0.56795 0.41122 0.64219 0.0
H1332 H 0.52978 0.36929 0.55628 0.0
H1333 H 0.51085 0.36217 0.63563 0.0
C1334 C 0.50954 0.31341 0.89852 0.0
C1335 C 0.50107 0.29706 0.87029 0.0
C1336 C 0.51157 0.33221 0.87464 0.0
C1337 C 0.50504 0.33523 0.82204 0.0
C1338 C 0.49758 0.31876 0.79286 0.0
C1339 C 0.49555 0.29991 0.81673 0.0
C1340 C 0.50484 0.35577 0.79881 0.0
C1341 C 0.51528 0.35992 0.75305 0.0
C1342 C 0.49472 0.37142 0.82264 0.0
C1343 C 0.48245 0.36788 0.86924 0.0
C1344 C 0.46667 0.35353 0.86784 0.0
C1345 C 0.45539 0.35003 0.91218 0.0
C1346 C 0.45966 0.3609 0.95804 0.0
C1347 C 0.47517 0.37535 0.95958 0.0
C1348 C 0.48651 0.37888 0.91537 0.0
C1349 C 0.5037 0.4399 0.66207 0.0
C1350 C 0.50776 0.45591 0.69643 0.0
C1351 C 0.50276 0.42025 0.68127 0.0
C1352 C 0.50675 0.41608 0.73496 0.0
C1353 C 0.51069 0.4322 0.76924 0.0
C1354 C 0.51097 0.45189 0.7503 0.0
C1355 C 0.50649 0.3951 0.75587 0.0
C1356 C 0.49578 0.39077 0.80113 0.0
C1357 C 0.51644 0.37936 0.73163 0.0
C1358 C 0.52854 0.38283 0.68473 0.0
C1359 C 0.54483 0.3966 0.68619 0.0
C1360 C 0.55553 0.40049 0.64099 0.0
C1361 C 0.55012 0.39063 0.59417 0.0
C1362 C 0.53408 0.37678 0.59258 0.0
C1363 C 0.52341 0.37276 0.6377 0.0
H1364 H 0.55833 0.39374 0.55913 0.0
H1365 H 0.45092 0.35816 0.99234 0.0
H1366 H 0.24037 0.47778 0.82789 0.0
H1367 H 0.20852 0.48483 0.77943 0.0
H1368 H 0.17599 0.47038 0.91793 0.0
H1369 H 0.20765 0.46386 0.96673 0.0
H1370 H 0.16339 0.44993 0.81286 0.0
H1371 H 0.17722 0.51411 0.89749 0.0
H1372 H 0.19838 0.54405 0.91731 0.0
H1373 H 0.2 0.55801 0.75262 0.0
H1374 H 0.17908 0.52796 0.73181 0.0
H1375 H 0.0634 0.47593 0.75078 0.0
H1376 H 0.09672 0.47041 0.79093 0.0
H1377 H 0.12285 0.51033 0.67715 0.0
H1378 H 0.08932 0.51676 0.63882 0.0
H1379 H 0.1406 0.5177 0.76386 0.0
H1380 H 0.12643 0.45658 0.67518 0.0
H1381 H 0.10713 0.42621 0.64832 0.0
H1382 H 0.10856 0.40533 0.8083 0.0
H1383 H 0.12765 0.4357 0.83626 0.0
C1384 C 0.22642 0.47636 0.84802 0.0
C1385 C 0.22649 0.47048 0.90118 0.0
C1386 C 0.20829 0.48036 0.82038 0.0
C1387 C 0.18994 0.4781 0.84517 0.0
C1388 C 0.18999 0.47223 0.89816 0.0
C1389 C 0.20809 0.46867 0.92605 0.0
C1390 C 0.17056 0.48135 0.81576 0.0
C1391 C 0.15826 0.46473 0.80245 0.0
C1392 C 0.1643 0.5006 0.80053 0.0
C1393 C 0.17681 0.51867 0.81308 0.0
C1394 C 0.18227 0.52345 0.86548 0.0
C1395 C 0.19417 0.54046 0.8769 0.0
C1396 C 0.20059 0.55289 0.83624 0.0
C1397 C 0.19506 0.54835 0.78408 0.0
C1398 C 0.18317 0.53134 0.77245 0.0
C1399 C 0.07627 0.48342 0.73408 0.0
C1400 C 0.07372 0.49671 0.69148 0.0
C1401 C 0.09539 0.48016 0.7569 0.0
C1402 C 0.11254 0.48962 0.73663 0.0
C1403 C 0.10997 0.50282 0.69373 0.0
C1404 C 0.09078 0.50643 0.67166 0.0
C1405 C 0.13298 0.48621 0.76119 0.0
C1406 C 0.14561 0.50281 0.77365 0.0
C1407 C 0.13976 0.46684 0.77449 0.0
C1408 C 0.12833 0.44851 0.75787 0.0
C1409 C 0.12251 0.44557 0.7047 0.0
C1410 C 0.11163 0.42835 0.68926 0.0
C1411 C 0.10658 0.41387 0.7266 0.0
C1412 C 0.11246 0.41657 0.77943 0.0
C1413 C 0.12334 0.43377 0.79509 0.0
H1414 H 0.09815 0.40055 0.71457 0.0
H1415 H 0.2098 0.56606 0.84516 0.0
H1416 H 0.98044 0.80979 0.33071 0.0
H1417 H 0.97728 0.84064 0.37953 0.0
H1418 H 0.03204 0.8284 0.46893 0.0
H1419 H 0.03489 0.79709 0.42169 0.0
H1420 H 0.00607 0.84441 0.53084 0.0
H1421 H 0.03057 0.85999 0.36033 0.0
H1422 H 0.0301 0.86038 0.26347 0.0
H1423 H 0.9749 0.89203 0.25823 0.0
H1424 H 0.97481 0.89148 0.35515 0.0
H1425 H 0.03711 0.94205 0.61027 0.0
H1426 H 0.03389 0.90917 0.56994 0.0
H1427 H 0.97706 0.92504 0.49602 0.0
H1428 H 0.98018 0.95813 0.53633 0.0
H1429 H 1.00141 0.90723 0.42699 0.0
H1430 H 0.97809 0.89292 0.59875 0.0
H1431 H 0.97948 0.89295 0.69568 0.0
H1432 H 0.03366 0.85966 0.69817 0.0
H1433 H 0.03272 0.85962 0.60123 0.0
C1434 C 0.99155 0.81333 0.36172 0.0
C1435 C 0.00798 0.80086 0.37198 0.0
C1436 C 0.98986 0.83119 0.38916 0.0
C1437 C 1.00465 0.83717 0.42724 0.0
C1438 C 0.0205 0.82428 0.4395 0.0
C1439 C 0.02217 0.80638 0.41218 0.0
C1440 C 1.00408 0.85713 0.45288 0.0
C1441 C 0.00523 0.85814 0.50804 0.0
C1442 C 1.00254 0.87514 0.42336 0.0
C1443 C 1.00254 0.87545 0.36504 0.0
C1444 C 0.01822 0.86685 0.33855 0.0
C1445 C 0.01806 0.86712 0.28363 0.0
C1446 C 1.00243 0.87613 0.25473 0.0
C1447 C 0.98695 0.88498 0.28069 0.0
C1448 C 0.98699 0.88468 0.33562 0.0
C1449 C 0.02385 0.93858 0.58566 0.0
C1450 C 0.00889 0.95281 0.5767 0.0
C1451 C 0.02199 0.91968 0.56275 0.0
C1452 C 0.00514 0.91448 0.53023 0.0
C1453 C 0.99018 0.92865 0.52105 0.0
C1454 C 0.99195 0.94755 0.54432 0.0
C1455 C 1.00353 0.89447 0.50483 0.0
C1456 C 1.00204 0.89348 0.44973 0.0
C1457 C 1.00485 0.8765 0.53435 0.0
C1458 C 0.00542 0.87643 0.59268 0.0
C1459 C 0.99038 0.88574 0.61995 0.0
C1460 C 0.99107 0.88573 0.6749 0.0
C1461 C 0.00668 0.87637 0.70306 0.0
C1462 C 0.02159 0.86693 0.67631 0.0
C1463 C 0.02097 0.86689 0.62136 0.0
H1464 H 0.00721 0.87641 0.74559 0.0
H1465 H 1.00233 0.87631 0.21223 0.0
H1466 H 0.69902 0.98037 0.29169 0.0
H1467 H 0.6675 0.98066 0.33705 0.0
H1468 H 0.69591 0.01663 0.45985 0.0
H1469 H 0.72773 0.01609 0.41506 0.0
H1470 H 0.67105 0.98778 0.50044 0.0
H1471 H 0.66604 0.03769 0.36489 0.0
H1472 H 0.66709 0.05105 0.27449 0.0
H1473 H 0.62012 0.00957 0.22427 0.0
H1474 H 0.619 0.99575 0.31425 0.0
H1475 H 0.58027 0.018 0.61247 0.0
H1476 H 0.61294 0.01657 0.57291 0.0
H1477 H 0.58523 0.98686 0.43778 0.0
H1478 H 0.55241 0.9889 0.47637 0.0
H1479 H 0.61039 0.01299 0.40465 0.0
H1480 H 0.61492 0.96323 0.54123 0.0
H1481 H 0.61422 0.94975 0.63159 0.0
H1482 H 0.66241 0.99013 0.68 0.0
H1483 H 0.663 0.00426 0.59039 0.0
C1484 C 0.69875 0.98806 0.32884 0.0
C1485 C 0.71609 0.99817 0.34958 0.0
C1486 C 0.68057 0.9884 0.35452 0.0
C1487 C 0.67912 0.9989 0.40169 0.0
C1488 C 0.69652 0.00849 0.42345 0.0
C1489 C 0.71473 0.00825 0.39758 0.0
C1490 C 0.65938 1.00016 0.42752 0.0
C1491 C 0.65784 0.99352 0.47973 0.0
C1492 C 0.64194 0.00726 0.40036 0.0
C1493 C 0.64259 0.01554 0.34621 0.0
C1494 C 0.65606 0.0313 0.33448 0.0
C1495 C 0.65665 0.03897 0.28332 0.0
C1496 C 0.64372 0.03112 0.24363 0.0
C1497 C 0.63015 0.01561 0.25504 0.0
C1498 C 0.62953 0.00786 0.30611 0.0
C1499 C 0.5811 0.01105 0.57443 0.0
C1500 C 0.5636 0.00349 0.54782 0.0
C1501 C 0.59991 0.01014 0.55185 0.0
C1502 C 0.60184 1.0013 0.50244 0.0
C1503 C 0.58433 0.99375 0.47589 0.0
C1504 C 0.5655 0.99486 0.49816 0.0
C1505 C 0.62187 1.00036 0.47768 0.0
C1506 C 0.62353 0.00715 0.42556 0.0
C1507 C 0.63938 0.99333 0.50499 0.0
C1508 C 0.63884 0.98497 0.55913 0.0
C1509 C 0.6252 0.96941 0.57128 0.0
C1510 C 0.62482 0.96165 0.62241 0.0
C1511 C 0.63819 0.96915 0.6616 0.0
C1512 C 0.65197 0.98441 0.64973 0.0
C1513 C 0.65232 0.99232 0.59879 0.0
H1514 H 0.63793 0.96309 0.7011 0.0
H1515 H 0.64419 0.03709 0.20406 0.0
H1516 H 0.55017 0.72076 0.34553 0.0
H1517 H 0.55267 0.68893 0.39336 0.0
H1518 H 0.49197 0.69457 0.44252 0.0
H1519 H 0.48953 0.72632 0.39564 0.0
H1520 H 0.51383 0.68142 0.52152 0.0
H1521 H 0.50471 0.66334 0.33989 0.0
H1522 H 0.51242 0.66329 0.24606 0.0
H1523 H 0.57041 0.6395 0.2851 0.0
H1524 H 0.56313 0.63966 0.37928 0.0
H1525 H 0.48896 0.58136 0.5891 0.0
H1526 H 0.49119 0.61417 0.54725 0.0
H1527 H 0.55334 0.6049 0.51644 0.0
H1528 H 0.55116 0.5718 0.55763 0.0
H1529 H 0.5334 0.62015 0.43104 0.0
H1530 H 0.54008 0.63615 0.61477 0.0
H1531 H 0.52999 0.63472 0.70678 0.0
H1532 H 0.47396 0.66147 0.66166 0.0
H1533 H 0.4836 0.66281 0.56921 0.0
C1534 C 0.53738 0.7152 0.36659 0.0
C1535 C 0.5197 0.72619 0.36693 0.0
C1536 C 0.5388 0.69697 0.39386 0.0
C1537 C 0.52243 0.68915 0.42129 0.0
C1538 C 0.50487 0.70024 0.42204 0.0
C1539 C 0.50352 0.71849 0.39525 0.0
C1540 C 0.52332 0.66936 0.44874 0.0
C1541 C 0.51796 0.66802 0.5015 0.0
C1542 C 0.52904 0.65182 0.42322 0.0
C1543 C 0.53347 0.65174 0.36666 0.0
C1544 C 0.51917 0.65826 0.32849 0.0
C1545 C 0.52345 0.65818 0.27525 0.0
C1546 C 0.54192 0.65146 0.25964 0.0
C1547 C 0.55612 0.64475 0.29726 0.0
C1548 C 0.55193 0.64482 0.35057 0.0
C1549 C 0.50316 0.58627 0.57368 0.0
C1550 C 0.5199 0.57387 0.57696 0.0
C1551 C 0.50443 0.60513 0.54988 0.0
C1552 C 0.52251 0.61217 0.52916 0.0
C1553 C 0.53924 0.59984 0.53222 0.0
C1554 C 0.53798 0.58093 0.55601 0.0
C1555 C 0.52375 0.63224 0.5035 0.0
C1556 C 0.52948 0.63361 0.45114 0.0
C1557 C 0.51812 0.64976 0.52917 0.0
C1558 C 0.51252 0.64945 0.58498 0.0
C1559 C 0.52558 0.64165 0.62442 0.0
C1560 C 0.51994 0.64086 0.67666 0.0
C1561 C 0.50133 0.64796 0.69004 0.0
C1562 C 0.48837 0.65596 0.65123 0.0
C1563 C 0.49393 0.65678 0.59892 0.0
H1564 H 0.49696 0.64728 0.73048 0.0
H1565 H 0.5452 0.6514 0.2184 0.0
H1566 H 0.78786 0.54782 0.47478 0.0
H1567 H 0.82155 0.54658 0.51672 0.0
H1568 H 0.84666 0.53905 0.36516 0.0
H1569 H 0.81312 0.53955 0.3233 0.0
H1570 H 0.86023 0.51169 0.43257 0.0
H1571 H 0.85324 0.58283 0.43516 0.0
H1572 H 0.83702 0.61434 0.45519 0.0
H1573 H 0.84169 0.60039 0.62008 0.0
H1574 H 0.8577 0.56865 0.60098 0.0
H1575 H 0.96372 0.52584 0.49563 0.0
H1576 H 0.9295 0.53158 0.46179 0.0
H1577 H 0.9085 0.5294 0.61951 0.0
H1578 H 0.94279 0.52336 0.6539 0.0
H1579 H 0.89237 0.56144 0.55456 0.0
H1580 H 0.89976 0.49084 0.5524 0.0
H1581 H 0.91583 0.45921 0.533 0.0
H1582 H 0.90984 0.47204 0.36764 0.0
H1583 H 0.89414 0.50397 0.38612 0.0
C1584 C 0.80056 0.54607 0.45032 0.0
C1585 C 0.79768 0.5438 0.39556 0.0
C1586 C 0.81986 0.54551 0.47435 0.0
C1587 C 0.83671 0.54276 0.44413 0.0
C1588 C 0.83393 0.54118 0.38936 0.0
C1589 C 0.81469 0.54172 0.36536 0.0
C1590 C 0.85705 0.54015 0.4695 0.0
C1591 C 0.86733 0.52274 0.45863 0.0
C1592 C 0.86611 0.5542 0.50502 0.0
C1593 C 0.85647 0.57326 0.51658 0.0
C1594 C 0.85065 0.5864 0.47566 0.0
C1595 C 0.84152 0.60432 0.48685 0.0
C1596 C 0.83827 0.60934 0.53886 0.0
C1597 C 0.84419 0.59647 0.57981 0.0
C1598 C 0.8533 0.57852 0.56882 0.0
C1599 C 0.95189 0.52668 0.52328 0.0
C1600 C 0.95601 0.52406 0.57751 0.0
C1601 C 0.93231 0.52993 0.50381 0.0
C1602 C 0.91644 0.53084 0.5381 0.0
C1603 C 0.92054 0.52878 0.59239 0.0
C1604 C 0.94012 0.52523 0.61192 0.0
C1605 C 0.89554 0.53321 0.51666 0.0
C1606 C 0.88518 0.55046 0.52846 0.0
C1607 C 0.88633 0.51902 0.48199 0.0
C1608 C 0.89597 0.49991 0.47069 0.0
C1609 C 0.9021 0.48704 0.51192 0.0
C1610 C 0.91112 0.46904 0.5011 0.0
C1611 C 0.91392 0.46364 0.44914 0.0
C1612 C 0.90773 0.47625 0.40789 0.0
C1613 C 0.89876 0.49431 0.41852 0.0
H1614 H 0.92082 0.44964 0.44091 0.0
H1615 H 0.83121 0.62322 0.54745 0.0
loop_
_geom_bond_atom_site_label_1
_geom_bond_atom_site_label_2
_geom_bond_distance
_geom_bond_site_symmetry_2
_ccdc_geom_bond_type
P0 O11 1.490 . S
P0 C14 1.812 . S
P0 C20 1.803 . S
P0 C26 1.819 . S
H1 C15 0.941 . S
H2 C16 0.939 . S
H3 C18 0.940 . S
H4 C19 0.940 . S
H5 C21 0.939 . S
H6 C22 0.942 . S
H7 C24 0.940 . S
H8 C25 0.939 . S
H9 C27 0.941 . S
H10 C31 0.939 . S
O11 P0 1.490 . S
H12 C28 0.939 . S
H13 C30 0.940 . S
C14 P0 1.812 . S
C14 C15 1.389 . S
C14 C19 1.391 . S
C15 H1 0.941 . S
C15 C14 1.389 . S
C15 C16 1.397 . S
C16 H2 0.939 . S
C16 C15 1.397 . S
C16 C17 1.378 . S
C17 C16 1.378 . S
C17 C18 1.378 . S
C18 H3 0.940 . S
C18 C17 1.378 . S
C18 C19 1.396 . S
C19 H4 0.940 . S
C19 C14 1.391 . S
C19 C18 1.396 . S
C20 P0 1.803 . S
C20 C21 1.378 . S
C20 C25 1.400 . S
C21 H5 0.939 . S
C21 C20 1.378 . S
C21 C22 1.361 . S
C22 H6 0.942 . S
C22 C21 1.361 . S
C22 C23 1.369 . S
C23 C22 1.369 . S
C23 C24 1.404 . S
C24 H7 0.940 . S
C24 C23 1.404 . S
C24 C25 1.389 . S
C25 H8 0.939 . S
C25 C20 1.400 . S
C25 C24 1.389 . S
C26 P0 1.819 . S
C26 C27 1.391 . S
C26 C31 1.391 . S
C27 H9 0.941 . S
C27 C26 1.391 . S
C27 C28 1.396 . S
C28 H12 0.939 . S
C28 C27 1.396 . S
C28 C29 1.397 . S
C29 C28 1.397 . S
C29 C30 1.385 . S
C30 H13 0.940 . S
C30 C29 1.385 . S
C30 C31 1.388 . S
C31 H10 0.939 . S
C31 C26 1.391 . S
C31 C30 1.388 . S
P32 O43 1.490 1_655 S
P32 C46 1.812 . S
P32 C52 1.803 . S
P32 C58 1.819 . S
H33 C47 0.941 1_455 S
H34 C48 0.939 . S
H35 C50 0.940 . S
H36 C51 0.940 . S
H37 C53 0.939 1_455 S
H38 C54 0.942 . S
H39 C56 0.940 . S
H40 C57 0.939 . S
H41 C59 0.980 . S
H42 C63 0.939 . S
O43 P32 1.490 1_455 S
H44 C60 0.939 . S
H45 C62 0.940 . S
C46 P32 1.812 . S
C46 C47 1.389 . S
C46 C51 1.391 . S
C47 H33 0.941 1_655 S
C47 C46 1.389 . S
C47 C48 1.397 . S
C48 H34 0.939 . S
C48 C47 1.397 . S
C48 C49 1.378 . S
C49 C48 1.378 . S
C49 C50 1.378 . S
C50 H35 0.940 . S
C50 C49 1.378 . S
C50 C51 1.396 . S
C51 H36 0.940 . S
C51 C46 1.391 . S
C51 C50 1.396 . S
C52 P32 1.803 . S
C52 C53 1.378 . S
C52 C57 1.400 . S
C53 H37 0.939 1_655 S
C53 C52 1.378 . S
C53 C54 1.361 . S
C54 H38 0.942 . S
C54 C53 1.361 . S
C54 C55 1.369 . S
C55 C54 1.369 . S
C55 C56 1.404 . S
C56 H39 0.940 . S
C56 C55 1.404 . S
C56 C57 1.389 . S
C57 H40 0.939 . S
C57 C52 1.400 . S
C57 C56 1.389 . S
C58 P32 1.819 . S
C58 C59 1.391 . S
C58 C63 1.391 . S
C59 H41 0.980 . S
C59 C58 1.391 . S
C59 C60 1.396 . S
C60 H44 0.939 . S
C60 C59 1.396 . S
C60 C61 1.397 . S
C61 C60 1.397 . S
C61 C62 1.385 . S
C62 H45 0.940 . S
C62 C61 1.385 . S
C62 C63 1.388 . S
C63 H42 0.939 . S
C63 C58 1.391 . S
C63 C62 1.388 . S
P64 O75 1.490 . S
P64 C78 1.812 . S
P64 C84 1.803 . S
P64 C90 1.819 . S
H65 C79 0.941 . S
H66 C80 0.939 . S
H67 C82 0.940 . S
H68 C83 0.940 . S
H69 C85 0.939 . S
H70 C86 0.942 . S
H71 C88 0.940 . S
H72 C89 0.939 . S
H73 C91 0.941 . S
H74 C95 0.939 . S
O75 P64 1.490 . S
H76 C92 0.939 . S
H77 C94 0.940 . S
C78 P64 1.812 . S
C78 C79 1.389 . S
C78 C83 1.391 . S
C79 H65 0.941 . S
C79 C78 1.389 . S
C79 C80 1.397 . S
C80 H66 0.939 . S
C80 C79 1.397 . S
C80 C81 1.378 . S
C81 C80 1.378 . S
C81 C82 1.378 . S
C82 H67 0.940 . S
C82 C81 1.378 . S
C82 C83 1.396 . S
C83 H68 0.940 . S
C83 C78 1.391 . S
C83 C82 1.396 . S
C84 P64 1.803 . S
C84 C85 1.378 . S
C84 C89 1.400 . S
C85 H69 0.939 . S
C85 C84 1.378 . S
C85 C86 1.361 . S
C86 H70 0.942 . S
C86 C85 1.361 . S
C86 C87 1.369 . S
C87 C86 1.369 . S
C87 C88 1.404 . S
C88 H71 0.940 . S
C88 C87 1.404 . S
C88 C89 1.389 . S
C89 H72 0.939 . S
C89 C84 1.400 . S
C89 C88 1.389 . S
C90 P64 1.819 . S
C90 C91 1.391 . S
C90 C95 1.391 . S
C91 H73 0.941 . S
C91 C90 1.391 . S
C91 C92 1.396 . S
C92 H76 0.939 . S
C92 C91 1.396 . S
C92 C93 1.397 . S
C93 C92 1.397 . S
C93 C94 1.385 . S
C94 H77 0.940 . S
C94 C93 1.385 . S
C94 C95 1.388 . S
C95 H74 0.939 . S
C95 C90 1.391 . S
C95 C94 1.388 . S
P96 O107 1.490 . S
P96 C110 1.812 . S
P96 C116 1.803 . S
P96 C122 1.819 . S
H97 C111 0.941 . S
H98 C112 0.939 . S
H99 C114 0.940 . S
H100 C115 0.940 . S
H101 C117 0.939 . S
H102 C118 0.942 . S
H103 C120 0.940 . S
H104 C121 0.939 . S
H105 C123 0.941 . S
H106 C127 0.939 . S
O107 P96 1.490 . S
H108 C124 0.939 . S
H109 C126 0.940 . S
C110 P96 1.812 . S
C110 C111 1.389 . S
C110 C115 1.391 . S
C111 H97 0.941 . S
C111 C110 1.389 . S
C111 C112 1.397 . S
C112 H98 0.939 . S
C112 C111 1.397 . S
C112 C113 1.378 . S
C113 C112 1.378 . S
C113 C114 1.378 . S
C114 H99 0.940 . S
C114 C113 1.378 . S
C114 C115 1.396 . S
C115 H100 0.940 . S
C115 C110 1.391 . S
C115 C114 1.396 . S
C116 P96 1.803 . S
C116 C117 1.378 . S
C116 C121 1.400 . S
C117 H101 0.939 . S
C117 C116 1.378 . S
C117 C118 1.361 . S
C118 H102 0.942 . S
C118 C117 1.361 . S
C118 C119 1.369 . S
C119 C118 1.369 . S
C119 C120 1.404 . S
C120 H103 0.940 . S
C120 C119 1.404 . S
C120 C121 1.389 . S
C121 H104 0.939 . S
C121 C116 1.400 . S
C121 C120 1.389 . S
C122 P96 1.819 . S
C122 C123 1.391 . S
C122 C127 1.391 . S
C123 H105 0.941 . S
C123 C122 1.391 . S
C123 C124 1.396 . S
C124 H108 0.939 . S
C124 C123 1.396 . S
C124 C125 1.397 . S
C125 C124 1.397 . S
C125 C126 1.385 . S
C126 H109 0.940 . S
C126 C125 1.385 . S
C126 C127 1.388 . S
C127 H106 0.939 . S
C127 C122 1.391 . S
C127 C126 1.388 . S
P128 O139 1.490 . S
P128 C142 1.812 . S
P128 C148 1.803 . S
P128 C154 1.819 . S
H129 C143 0.941 . S
H130 C144 0.939 . S
H131 C146 0.940 . S
H132 C147 0.940 . S
H133 C149 0.939 . S
H134 C150 0.942 . S
H135 C152 0.940 . S
H136 C153 0.939 . S
H137 C155 0.941 . S
H138 C159 0.939 . S
O139 P128 1.490 . S
H140 C156 0.939 . S
H141 C158 0.940 . S
C142 P128 1.812 . S
C142 C143 1.389 1_554 S
C142 C147 1.391 . S
C143 H129 0.941 . S
C143 C142 1.389 1_556 S
C143 C144 1.397 . S
C144 H130 0.939 . S
C144 C143 1.397 . S
C144 C145 1.378 . S
C145 C144 1.378 . S
C145 C146 1.378 . S
C146 H131 0.940 . S
C146 C145 1.378 . S
C146 C147 1.396 1_556 S
C147 H132 0.940 . S
C147 C142 1.391 . S
C147 C146 1.396 1_554 S
C148 P128 1.803 . S
C148 C149 1.378 . S
C148 C153 1.400 . S
C149 H133 0.939 . S
C149 C148 1.378 . S
C149 C150 1.361 . S
C150 H134 0.942 . S
C150 C149 1.361 . S
C150 C151 1.369 . S
C151 C150 1.369 . S
C151 C152 1.404 . S
C152 H135 0.940 . S
C152 C151 1.404 . S
C152 C153 1.389 . S
C153 H136 0.939 . S
C153 C148 1.400 . S
C153 C152 1.389 . S
C154 P128 1.819 . S
C154 C155 1.391 . S
C154 C159 1.391 . S
C155 H137 0.941 . S
C155 C154 1.391 . S
C155 C156 1.396 . S
C156 H140 0.939 . S
C156 C155 1.396 . S
C156 C157 1.397 . S
C157 C156 1.397 . S
C157 C158 1.385 . S
C158 H141 0.940 . S
C158 C157 1.385 . S
C158 C159 1.388 . S
C159 H138 0.939 . S
C159 C154 1.391 . S
C159 C158 1.388 . S
P160 O171 1.490 . S
P160 C174 1.812 1_554 S
P160 C180 1.803 . S
P160 C186 1.819 . S
H161 C175 0.941 . S
H162 C176 0.939 . S
H163 C178 0.940 . S
H164 C179 0.940 . S
H165 C181 0.939 . S
H166 C182 0.942 . S
H167 C184 0.940 . S
H168 C185 0.939 . S
H169 C187 0.941 . S
H170 C191 0.939 . S
O171 P160 1.490 . S
H172 C188 0.939 . S
H173 C190 0.940 . S
C174 P160 1.812 1_556 S
C174 C175 1.389 . S
C174 C179 1.391 . S
C175 H161 0.941 . S
C175 C174 1.389 . S
C175 C176 1.397 . S
C176 H162 0.939 . S
C176 C175 1.397 . S
C176 C177 1.378 . S
C177 C176 1.378 . S
C177 C178 1.378 . S
C178 H163 0.940 . S
C178 C177 1.378 . S
C178 C179 1.396 . S
C179 H164 0.940 . S
C179 C174 1.391 . S
C179 C178 1.396 . S
C180 P160 1.803 . S
C180 C181 1.378 . S
C180 C185 1.400 . S
C181 H165 0.939 . S
C181 C180 1.378 . S
C181 C182 1.361 . S
C182 H166 0.942 . S
C182 C181 1.361 . S
C182 C183 1.369 . S
C183 C182 1.369 . S
C183 C184 1.404 . S
C184 H167 0.940 . S
C184 C183 1.404 . S
C184 C185 1.389 . S
C185 H168 0.939 . S
C185 C180 1.400 . S
C185 C184 1.389 . S
C186 P160 1.819 . S
C186 C187 1.391 . S
C186 C191 1.391 . S
C187 H169 0.941 . S
C187 C186 1.391 . S
C187 C188 1.396 . S
C188 H172 0.939 . S
C188 C187 1.396 . S
C188 C189 1.397 . S
C189 C188 1.397 . S
C189 C190 1.385 . S
C190 H173 0.940 . S
C190 C189 1.385 . S
C190 C191 1.388 . S
C191 H170 0.939 . S
C191 C186 1.391 . S
C191 C190 1.388 . S
P192 O203 1.490 . S
P192 C206 1.812 1_554 S
P192 C212 1.803 . S
P192 C218 1.819 . S
H193 C207 0.941 . S
H194 C208 0.939 . S
H195 C210 0.940 . S
H196 C211 0.940 . S
H197 C213 0.939 . S
H198 C214 0.942 . S
H199 C216 0.940 . S
H200 C217 0.939 1_556 S
H201 C219 0.941 . S
H202 C223 0.939 . S
O203 P192 1.490 . S
H204 C220 0.939 . S
H205 C222 0.940 . S
C206 P192 1.812 1_556 S
C206 C207 1.389 . S
C206 C211 1.391 . S
C207 H193 0.941 . S
C207 C206 1.389 . S
C207 C208 1.397 . S
C208 H194 0.939 . S
C208 C207 1.397 . S
C208 C209 1.378 . S
C209 C208 1.378 . S
C209 C210 1.378 . S
C210 H195 0.940 . S
C210 C209 1.378 . S
C210 C211 1.396 . S
C211 H196 0.940 . S
C211 C206 1.391 . S
C211 C210 1.396 . S
C212 P192 1.803 . S
C212 C213 1.378 . S
C212 C217 1.400 . S
C213 H197 0.939 . S
C213 C212 1.378 . S
C213 C214 1.361 . S
C214 H198 0.942 . S
C214 C213 1.361 . S
C214 C215 1.369 . S
C215 C214 1.369 . S
C215 C216 1.404 . S
C216 H199 0.940 . S
C216 C215 1.404 . S
C216 C217 1.389 . S
C217 H200 0.939 1_554 S
C217 C212 1.400 . S
C217 C216 1.389 . S
C218 P192 1.819 . S
C218 C219 1.391 . S
C218 C223 1.391 . S
C219 H201 0.941 . S
C219 C218 1.391 . S
C219 C220 1.396 . S
C220 H204 0.939 . S
C220 C219 1.396 . S
C220 C221 1.397 . S
C221 C220 1.397 . S
C221 C222 1.385 . S
C222 H205 0.940 . S
C222 C221 1.385 . S
C222 C223 1.388 . S
C223 H202 0.939 . S
C223 C218 1.391 . S
C223 C222 1.388 . S
P224 O235 1.490 . S
P224 C238 1.812 . S
P224 C244 1.803 . S
P224 C250 1.819 . S
H225 C239 0.941 . S
H226 C240 0.939 . S
H227 C242 0.940 . S
H228 C243 0.953 . S
H229 C245 0.939 . S
H230 C246 0.942 . S
H231 C248 0.940 . S
H232 C249 0.939 . S
H233 C251 0.941 . S
H234 C255 0.939 . S
O235 P224 1.490 . S
H236 C252 0.939 . S
H237 C254 0.940 . S
C238 P224 1.812 . S
C238 C239 1.389 1_554 S
C238 C243 1.392 . S
C239 H225 0.941 . S
C239 C238 1.389 1_556 S
C239 C240 1.397 . S
C240 H226 0.939 . S
C240 C239 1.397 . S
C240 C241 1.378 . S
C241 C240 1.378 . S
C241 C242 1.378 . S
C242 H227 0.940 . S
C242 C241 1.378 . S
C242 C243 1.382 1_556 S
C243 H228 0.953 . S
C243 C238 1.392 . S
C243 C242 1.382 1_554 S
C244 P224 1.803 . S
C244 C245 1.378 . S
C244 C249 1.400 . S
C245 H229 0.939 . S
C245 C244 1.378 . S
C245 C246 1.361 . S
C246 H230 0.942 . S
C246 C245 1.361 . S
C246 C247 1.369 . S
C247 C246 1.369 . S
C247 C248 1.404 . S
C248 H231 0.940 . S
C248 C247 1.404 . S
C248 C249 1.389 . S
C249 H232 0.939 . S
C249 C244 1.400 . S
C249 C248 1.389 . S
C250 P224 1.819 . S
C250 C251 1.391 . S
C250 C255 1.391 . S
C251 H233 0.941 . S
C251 C250 1.391 . S
C251 C252 1.396 . S
C252 H236 0.939 . S
C252 C251 1.396 . S
C252 C253 1.397 . S
C253 C252 1.397 . S
C253 C254 1.385 . S
C254 H237 0.940 . S
C254 C253 1.385 . S
C254 C255 1.388 . S
C255 H234 0.939 . S
C255 C250 1.391 . S
C255 C254 1.388 . S
Eu256 C265 2.828 . S
Eu256 O267 2.392 . S
Eu256 O269 2.418 1_545 S
Eu256 O274 2.373 1_655 S
Eu256 O277 2.488 . S
Eu256 O278 2.471 . S
Eu256 O279 2.349 1_655 S
Eu257 O266 2.373 1_455 S
Eu257 O270 2.488 . S
Eu257 O271 2.471 . S
Eu257 O272 2.349 . S
Eu257 O275 2.392 1_565 S
Eu257 O276 2.418 1_565 S
Eu257 C286 2.828 . S
C258 O276 1.244 . S
C258 O279 1.265 . S
C259 C260 1.379 1_655 S
C259 C263 1.373 . S
C259 C265 1.505 . S
C260 C259 1.379 1_455 S
C260 C262 1.369 . S
C260 H288 0.930 . S
C261 C263 1.383 . S
C261 C264 1.382 1_655 S
C261 H289 0.930 . S
C262 C260 1.369 . S
C262 C264 1.392 . S
C262 H290 0.930 . S
C263 C259 1.373 . S
C263 C261 1.383 . S
C263 H291 0.931 . S
C264 C261 1.382 1_455 S
C264 C262 1.392 . S
C265 Eu256 2.828 . S
C265 C259 1.505 . S
C265 O277 1.249 . S
C265 O278 1.244 . S
O266 Eu257 2.373 1_655 S
O266 C268 1.258 . S
O267 Eu256 2.392 . S
O267 C268 1.242 1_545 S
C268 O266 1.258 . S
C268 O267 1.242 1_565 S
O269 Eu256 2.418 1_565 S
O269 C273 1.244 . S
O270 Eu257 2.488 . S
O270 C286 1.249 . S
O271 Eu257 2.471 . S
O271 C286 1.244 . S
O272 Eu257 2.349 . S
O272 C273 1.265 1_455 S
C273 O269 1.244 . S
C273 O272 1.265 1_655 S
O274 Eu256 2.373 1_455 S
O274 C287 1.258 . S
O275 Eu257 2.392 1_545 S
O275 C287 1.242 . S
O276 Eu257 2.418 1_545 S
O276 C258 1.244 . S
O277 Eu256 2.488 . S
O277 C265 1.249 . S
O278 Eu256 2.471 . S
O278 C265 1.244 . S
O279 Eu256 2.349 1_455 S
O279 C258 1.265 . S
C280 C281 1.379 . S
C280 C284 1.373 . S
C280 C286 1.505 . S
C281 C280 1.379 . S
C281 C283 1.379 . S
C281 H292 0.930 1_455 S
C282 C284 1.383 . S
C282 C285 1.382 . S
C282 H293 0.930 . S
C283 C281 1.379 . S
C283 C285 1.414 . S
C283 H294 0.900 1_455 S
C284 C280 1.373 . S
C284 C282 1.383 . S
C284 H295 0.931 . S
C285 C282 1.382 . S
C285 C283 1.414 . S
C286 Eu257 2.828 . S
C286 O270 1.249 . S
C286 O271 1.244 . S
C286 C280 1.505 . S
C287 O274 1.258 . S
C287 O275 1.242 . S
H288 C260 0.930 . S
H289 C261 0.930 . S
H290 C262 0.930 . S
H291 C263 0.931 . S
H292 C281 0.930 1_655 S
H293 C282 0.930 . S
H294 C283 0.900 1_655 S
H295 C284 0.931 . S
Eu296 C305 2.828 . S
Eu296 O307 2.392 . S
Eu296 O309 2.418 . S
Eu296 O314 2.373 . S
Eu296 O317 2.488 . S
Eu296 O318 2.471 . S
Eu296 O319 2.349 1_545 S
Eu297 O306 2.373 1_565 S
Eu297 O310 2.488 . S
Eu297 O311 2.471 1_565 S
Eu297 O312 2.349 1_565 S
Eu297 O315 2.392 . S
Eu297 O316 2.418 . S
Eu297 C326 2.828 . S
C298 O316 1.244 . S
C298 O319 1.265 . S
C299 C300 1.379 1_545 S
C299 C303 1.373 . S
C299 C305 1.505 . S
C300 C299 1.379 1_565 S
C300 C302 1.369 . S
C300 H328 0.930 . S
C301 C303 1.383 . S
C301 C304 1.382 . S
C301 H329 0.930 . S
C302 C300 1.369 . S
C302 C304 1.392 1_565 S
C302 H330 0.930 . S
C303 C299 1.373 . S
C303 C301 1.383 . S
C303 H331 0.931 . S
C304 C301 1.382 . S
C304 C302 1.392 1_545 S
C305 Eu296 2.828 . S
C305 C299 1.505 . S
C305 O317 1.249 . S
C305 O318 1.244 . S
O306 Eu297 2.373 1_545 S
O306 C308 1.258 . S
O307 Eu296 2.392 . S
O307 C308 1.242 . S
C308 O306 1.258 . S
C308 O307 1.242 . S
O309 Eu296 2.418 . S
O309 C313 1.244 . S
O310 Eu297 2.488 . S
O310 C326 1.249 . S
O311 Eu297 2.471 1_545 S
O311 C326 1.244 1_545 S
O312 Eu297 2.349 1_545 S
O312 C313 1.265 . S
C313 O309 1.244 . S
C313 O312 1.265 . S
O314 Eu296 2.373 . S
O314 C327 1.258 1_545 S
O315 Eu297 2.392 . S
O315 C327 1.242 . S
O316 Eu297 2.418 . S
O316 C298 1.244 . S
O317 Eu296 2.488 . S
O317 C305 1.249 . S
O318 Eu296 2.471 . S
O318 C305 1.244 . S
O319 Eu296 2.349 1_565 S
O319 C298 1.265 . S
C320 C321 1.379 1_565 S
C320 C324 1.373 . S
C320 C326 1.505 . S
C321 C320 1.379 1_545 S
C321 C323 1.369 . S
C321 H332 0.930 . S
C322 C324 1.383 . S
C322 C325 1.382 1_565 S
C322 H333 0.930 . S
C323 C321 1.369 . S
C323 C325 1.392 . S
C323 H334 0.930 . S
C324 C320 1.373 . S
C324 C322 1.383 . S
C324 H335 0.931 . S
C325 C322 1.382 1_545 S
C325 C323 1.392 . S
C326 Eu297 2.828 . S
C326 O310 1.249 . S
C326 O311 1.244 1_565 S
C326 C320 1.505 . S
C327 O314 1.258 1_565 S
C327 O315 1.242 . S
H328 C300 0.930 . S
H329 C301 0.930 . S
H330 C302 0.930 . S
H331 C303 0.931 . S
H332 C321 0.930 . S
H333 C322 0.930 . S
H334 C323 0.930 . S
H335 C324 0.931 . S
Eu336 C345 2.828 . S
Eu336 O347 2.392 . S
Eu336 O349 2.418 . S
Eu336 O354 2.373 . S
Eu336 O357 2.488 . S
Eu336 O358 2.471 . S
Eu336 O359 2.349 . S
Eu337 O346 2.373 . S
Eu337 O350 2.488 . S
Eu337 O351 2.471 . S
Eu337 O352 2.349 . S
Eu337 O355 2.392 . S
Eu337 O356 2.418 . S
Eu337 C366 2.828 . S
C338 O356 1.244 . S
C338 O359 1.265 . S
C339 C340 1.379 . S
C339 C343 1.373 . S
C339 C345 1.505 . S
C340 C339 1.379 . S
C340 C342 1.369 . S
C340 H368 0.930 . S
C341 C343 1.383 . S
C341 C344 1.382 . S
C341 H369 0.930 . S
C342 C340 1.369 . S
C342 C344 1.392 . S
C342 H370 0.930 . S
C343 C339 1.373 . S
C343 C341 1.383 . S
C343 H371 0.931 . S
C344 C341 1.382 . S
C344 C342 1.392 . S
C345 Eu336 2.828 . S
C345 C339 1.505 . S
C345 O357 1.249 . S
C345 O358 1.244 . S
O346 Eu337 2.373 . S
O346 C348 1.258 . S
O347 Eu336 2.392 . S
O347 C348 1.242 . S
C348 O346 1.258 . S
C348 O347 1.242 . S
O349 Eu336 2.418 . S
O349 C353 1.244 . S
O350 Eu337 2.488 . S
O350 C366 1.249 . S
O351 Eu337 2.471 . S
O351 C366 1.244 . S
O352 Eu337 2.349 . S
O352 C353 1.265 . S
C353 O349 1.244 . S
C353 O352 1.265 . S
O354 Eu336 2.373 . S
O354 C367 1.258 . S
O355 Eu337 2.392 . S
O355 C367 1.242 . S
O356 Eu337 2.418 . S
O356 C338 1.244 . S
O357 Eu336 2.488 . S
O357 C345 1.249 . S
O358 Eu336 2.471 . S
O358 C345 1.244 . S
O359 Eu336 2.349 . S
O359 C338 1.265 . S
C360 C361 1.379 . S
C360 C364 1.373 . S
C360 C366 1.505 . S
C361 C360 1.379 . S
C361 C363 1.369 . S
C361 H372 0.930 . S
C362 C364 1.383 . S
C362 C365 1.382 . S
C362 H373 0.930 . S
C363 C361 1.369 . S
C363 C365 1.392 . S
C363 H374 0.930 . S
C364 C360 1.373 . S
C364 C362 1.383 . S
C364 H375 0.931 . S
C365 C362 1.382 . S
C365 C363 1.392 . S
C366 Eu337 2.828 . S
C366 O350 1.249 . S
C366 O351 1.244 . S
C366 C360 1.505 . S
C367 O354 1.258 . S
C367 O355 1.242 . S
H368 C340 0.930 . S
H369 C341 0.930 . S
H370 C342 0.930 . S
H371 C343 0.931 . S
H372 C361 0.930 . S
H373 C362 0.930 . S
H374 C363 0.930 . S
H375 C364 0.931 . S
Eu376 C385 2.828 . S
Eu376 O387 2.392 . S
Eu376 O389 2.418 1_455 S
Eu376 O394 2.373 . S
Eu376 O397 2.488 . S
Eu376 O398 2.471 . S
Eu376 O399 2.349 . S
Eu377 O386 2.373 . S
Eu377 O390 2.488 . S
Eu377 O391 2.471 . S
Eu377 O392 2.349 . S
Eu377 O395 2.392 1_655 S
Eu377 O396 2.418 1_655 S
Eu377 C406 2.828 . S
C378 O396 1.244 . S
C378 O399 1.265 . S
C379 C380 1.379 . S
C379 C383 1.373 . S
C379 C385 1.505 . S
C380 C379 1.379 . S
C380 C382 1.369 . S
C380 H408 0.930 . S
C381 C383 1.383 . S
C381 C384 1.382 . S
C381 H409 0.930 . S
C382 C380 1.369 . S
C382 C384 1.392 . S
C382 H410 0.930 . S
C383 C379 1.373 . S
C383 C381 1.383 . S
C383 H411 0.931 . S
C384 C381 1.382 . S
C384 C382 1.392 . S
C385 Eu376 2.828 . S
C385 C379 1.505 . S
C385 O397 1.249 . S
C385 O398 1.244 . S
O386 Eu377 2.373 . S
O386 C388 1.258 1_655 S
O387 Eu376 2.392 . S
O387 C388 1.242 . S
C388 O386 1.258 1_455 S
C388 O387 1.242 . S
O389 Eu376 2.418 1_655 S
O389 C393 1.244 . S
O390 Eu377 2.488 . S
O390 C406 1.249 . S
O391 Eu377 2.471 . S
O391 C406 1.244 . S
O392 Eu377 2.349 . S
O392 C393 1.265 . S
C393 O389 1.244 . S
C393 O392 1.265 . S
O394 Eu376 2.373 . S
O394 C407 1.258 . S
O395 Eu377 2.392 1_455 S
O395 C407 1.242 . S
O396 Eu377 2.418 1_455 S
O396 C378 1.244 . S
O397 Eu376 2.488 . S
O397 C385 1.249 . S
O398 Eu376 2.471 . S
O398 C385 1.244 . S
O399 Eu376 2.349 . S
O399 C378 1.265 . S
C400 C401 1.379 . S
C400 C404 1.373 . S
C400 C406 1.505 . S
C401 C400 1.379 . S
C401 C403 1.369 . S
C401 H412 0.930 . S
C402 C404 1.383 . S
C402 C405 1.382 . S
C402 H413 0.930 . S
C403 C401 1.369 . S
C403 C405 1.392 . S
C403 H414 0.930 . S
C404 C400 1.373 . S
C404 C402 1.383 . S
C404 H415 0.931 . S
C405 C402 1.382 . S
C405 C403 1.392 . S
C406 Eu377 2.828 . S
C406 O390 1.249 . S
C406 O391 1.244 . S
C406 C400 1.505 . S
C407 O394 1.258 . S
C407 O395 1.242 . S
H408 C380 0.930 . S
H409 C381 0.930 . S
H410 C382 0.930 . S
H411 C383 0.931 . S
H412 C401 0.930 . S
H413 C402 0.930 . S
H414 C403 0.930 . S
H415 C404 0.931 . S
H416 C434 0.951 . S
H417 C436 0.951 . S
H418 C438 0.950 . S
H419 C439 0.950 . S
H420 C441 0.950 . S
H421 C444 0.950 . S
H422 C445 0.950 . S
H423 C447 0.950 . S
H424 C448 0.950 . S
H425 C449 0.951 . S
H426 C451 0.951 . S
H427 C453 0.950 . S
H428 C454 0.950 . S
H429 C456 0.950 . S
H430 C459 0.950 . S
H431 C460 0.950 . S
H432 C462 0.950 . S
H433 C463 0.950 . S
C434 H416 0.951 . S
C434 C435 1.366 . S
C434 C436 1.388 . S
C435 C434 1.366 . S
C435 C439 1.385 . S
C436 H417 0.951 . S
C436 C434 1.388 . S
C436 C437 1.366 . S
C437 C436 1.366 . S
C437 C438 1.414 . S
C437 C440 1.499 . S
C438 H418 0.950 . S
C438 C437 1.414 . S
C438 C439 1.374 . S
C439 H419 0.950 . S
C439 C435 1.385 . S
C439 C438 1.374 . S
C440 C437 1.499 . S
C440 C441 1.373 . S
C440 C442 1.389 . S
C441 H420 0.950 . S
C441 C440 1.373 . S
C441 C457 1.377 . S
C442 C440 1.389 . S
C442 C443 1.524 . S
C442 C456 1.377 . S
C443 C442 1.524 . S
C443 C444 1.397 . S
C443 C448 1.363 . S
C444 H421 0.950 . S
C444 C443 1.397 . S
C444 C445 1.334 . S
C445 H422 0.950 . S
C445 C444 1.334 . S
C445 C446 1.287 . S
C446 C445 1.287 . S
C446 C447 1.524 . S
C446 H465 0.913 . S
C447 H423 0.950 . S
C447 C446 1.524 . S
C447 C448 1.415 . S
C448 H424 0.950 . S
C448 C443 1.363 . S
C448 C447 1.415 . S
C449 H425 0.951 . S
C449 C450 1.366 . S
C449 C451 1.388 . S
C450 C449 1.366 . S
C450 C454 1.385 . S
C451 H426 0.951 . S
C451 C449 1.388 . S
C451 C452 1.366 . S
C452 C451 1.366 . S
C452 C453 1.414 . S
C452 C455 1.499 . S
C453 H427 0.950 . S
C453 C452 1.414 . S
C453 C454 1.374 . S
C454 H428 0.950 . S
C454 C450 1.385 . S
C454 C453 1.374 . S
C455 C452 1.499 . S
C455 C456 1.373 . S
C455 C457 1.389 . S
C456 H429 0.950 . S
C456 C442 1.377 . S
C456 C455 1.373 . S
C457 C441 1.377 . S
C457 C455 1.389 . S
C457 C458 1.524 . S
C458 C457 1.524 . S
C458 C459 1.397 1_545 S
C458 C463 1.363 . S
C459 H430 0.950 . S
C459 C458 1.397 1_565 S
C459 C460 1.334 . S
C460 H431 0.950 . S
C460 C459 1.334 . S
C460 C461 1.287 . S
C461 C460 1.287 . S
C461 C462 1.524 . S
C461 H464 0.999 . S
C462 H432 0.950 . S
C462 C461 1.524 . S
C462 C463 1.415 1_565 S
C463 H433 0.950 . S
C463 C458 1.363 . S
C463 C462 1.415 1_545 S
H464 C461 0.999 . S
H465 C446 0.913 . S
H466 C484 0.951 . S
H467 C486 0.951 . S
H468 C488 0.950 . S
H469 C489 0.950 . S
H470 C491 0.950 . S
H471 C494 0.950 . S
H472 C495 0.950 . S
H473 C497 0.950 . S
H474 C498 0.950 . S
H475 C499 0.951 . S
H476 C501 0.951 . S
H477 C503 0.950 . S
H478 C504 0.950 . S
H479 C506 0.950 . S
H480 C509 0.950 . S
H481 C510 0.950 . S
H482 C512 0.950 . S
H483 C513 0.950 . S
C484 H466 0.951 . S
C484 C485 1.366 . S
C484 C486 1.388 . S
C485 C484 1.366 . S
C485 C489 1.385 . S
C486 H467 0.951 . S
C486 C484 1.388 . S
C486 C487 1.366 . S
C487 C486 1.366 . S
C487 C488 1.414 . S
C487 C490 1.499 . S
C488 H468 0.950 . S
C488 C487 1.414 . S
C488 C489 1.374 . S
C489 H469 0.950 . S
C489 C485 1.385 . S
C489 C488 1.374 . S
C490 C487 1.499 . S
C490 C491 1.373 . S
C490 C492 1.389 . S
C491 H470 0.950 . S
C491 C490 1.373 . S
C491 C507 1.377 . S
C492 C490 1.389 . S
C492 C493 1.524 . S
C492 C506 1.377 . S
C493 C492 1.524 . S
C493 C494 1.397 . S
C493 C498 1.363 . S
C494 H471 0.950 . S
C494 C493 1.397 . S
C494 C495 1.334 . S
C495 H472 0.950 . S
C495 C494 1.334 . S
C495 C496 1.287 . S
C496 C495 1.287 . S
C496 C497 1.524 . S
C496 H515 0.913 . S
C497 H473 0.950 . S
C497 C496 1.524 . S
C497 C498 1.415 . S
C498 H474 0.950 . S
C498 C493 1.363 . S
C498 C497 1.415 . S
C499 H475 0.951 . S
C499 C500 1.366 . S
C499 C501 1.388 . S
C500 C499 1.366 . S
C500 C504 1.385 . S
C501 H476 0.951 . S
C501 C499 1.388 . S
C501 C502 1.366 . S
C502 C501 1.366 . S
C502 C503 1.414 . S
C502 C505 1.499 . S
C503 H477 0.950 . S
C503 C502 1.414 . S
C503 C504 1.374 . S
C504 H478 0.950 . S
C504 C500 1.385 . S
C504 C503 1.374 . S
C505 C502 1.499 . S
C505 C506 1.373 . S
C505 C507 1.389 . S
C506 H479 0.950 . S
C506 C492 1.377 . S
C506 C505 1.373 . S
C507 C491 1.377 . S
C507 C505 1.389 . S
C507 C508 1.524 . S
C508 C507 1.524 . S
C508 C509 1.397 . S
C508 C513 1.363 . S
C509 H480 0.950 . S
C509 C508 1.397 . S
C509 C510 1.334 . S
C510 H481 0.950 . S
C510 C509 1.334 . S
C510 C511 1.287 . S
C511 C510 1.287 . S
C511 C512 1.524 . S
C511 H514 0.999 . S
C512 H482 0.950 . S
C512 C511 1.524 . S
C512 C513 1.415 . S
C513 H483 0.950 . S
C513 C508 1.363 . S
C513 C512 1.415 . S
H514 C511 0.999 . S
H515 C496 0.913 . S
H516 C534 0.951 . S
H517 C536 0.951 . S
H518 C538 0.950 . S
H519 C539 0.950 . S
H520 C541 0.950 . S
H521 C544 0.950 . S
H522 C545 0.950 . S
H523 C547 0.950 . S
H524 C548 0.950 . S
H525 C549 0.951 . S
H526 C551 0.951 . S
H527 C553 0.950 . S
H528 C554 0.950 . S
H529 C556 0.950 . S
H530 C559 0.950 . S
H531 C560 0.950 . S
H532 C562 0.950 . S
H533 C563 0.950 . S
C534 H516 0.951 . S
C534 C535 1.366 . S
C534 C536 1.388 . S
C535 C534 1.366 . S
C535 C539 1.385 . S
C536 H517 0.951 . S
C536 C534 1.388 . S
C536 C537 1.366 . S
C537 C536 1.366 . S
C537 C538 1.414 . S
C537 C540 1.499 . S
C538 H518 0.950 . S
C538 C537 1.414 . S
C538 C539 1.374 . S
C539 H519 0.950 . S
C539 C535 1.385 . S
C539 C538 1.374 . S
C540 C537 1.499 . S
C540 C541 1.373 . S
C540 C542 1.389 . S
C541 H520 0.950 . S
C541 C540 1.373 . S
C541 C557 1.377 . S
C542 C540 1.389 . S
C542 C543 1.524 . S
C542 C556 1.377 . S
C543 C542 1.524 . S
C543 C544 1.397 . S
C543 C548 1.363 . S
C544 H521 0.950 . S
C544 C543 1.397 . S
C544 C545 1.334 . S
C545 H522 0.950 . S
C545 C544 1.334 . S
C545 C546 1.287 . S
C546 C545 1.287 . S
C546 C547 1.524 . S
C546 H565 0.913 . S
C547 H523 0.950 . S
C547 C546 1.524 . S
C547 C548 1.415 . S
C548 H524 0.950 . S
C548 C543 1.363 . S
C548 C547 1.415 . S
C549 H525 0.951 . S
C549 C550 1.366 . S
C549 C551 1.388 . S
C550 C549 1.366 . S
C550 C554 1.385 . S
C551 H526 0.951 . S
C551 C549 1.388 . S
C551 C552 1.366 . S
C552 C551 1.366 . S
C552 C553 1.414 . S
C552 C555 1.499 . S
C553 H527 0.950 . S
C553 C552 1.414 . S
C553 C554 1.374 . S
C554 H528 0.950 . S
C554 C550 1.385 . S
C554 C553 1.374 . S
C555 C552 1.499 . S
C555 C556 1.373 . S
C555 C557 1.389 . S
C556 H529 0.950 . S
C556 C542 1.377 . S
C556 C555 1.373 . S
C557 C541 1.377 . S
C557 C555 1.389 . S
C557 C558 1.524 . S
C558 C557 1.524 . S
C558 C559 1.397 . S
C558 C563 1.363 . S
C559 H530 0.950 . S
C559 C558 1.397 . S
C559 C560 1.334 . S
C560 H531 0.950 . S
C560 C559 1.334 . S
C560 C561 1.287 . S
C561 C560 1.287 . S
C561 C562 1.524 . S
C561 H564 0.999 . S
C562 H532 0.950 . S
C562 C561 1.524 . S
C562 C563 1.415 . S
C563 H533 0.950 . S
C563 C558 1.363 . S
C563 C562 1.415 . S
H564 C561 0.999 . S
H565 C546 0.913 . S
H566 C584 0.951 . S
H567 C586 0.951 . S
H568 C588 0.950 . S
H569 C589 0.950 . S
H570 C591 0.950 . S
H571 C594 0.950 . S
H572 C595 0.950 . S
H573 C597 0.950 . S
H574 C598 0.950 . S
H575 C599 0.951 1_655 S
H576 C601 0.951 1_655 S
H577 C603 0.950 . S
H578 C604 0.950 . S
H579 C606 0.950 . S
H580 C609 0.950 1_455 S
H581 C610 0.950 . S
H582 C612 0.950 . S
H583 C613 0.950 . S
C584 H566 0.951 . S
C584 C585 1.366 . S
C584 C586 1.388 . S
C585 C584 1.366 . S
C585 C589 1.385 . S
C586 H567 0.951 . S
C586 C584 1.388 . S
C586 C587 1.366 . S
C587 C586 1.366 . S
C587 C588 1.414 . S
C587 C590 1.499 . S
C588 H568 0.950 . S
C588 C587 1.414 . S
C588 C589 1.374 . S
C589 H569 0.950 . S
C589 C585 1.385 . S
C589 C588 1.374 . S
C590 C587 1.499 . S
C590 C591 1.373 . S
C590 C592 1.389 . S
C591 H570 0.950 . S
C591 C590 1.373 . S
C591 C607 1.377 . S
C592 C590 1.389 . S
C592 C593 1.524 . S
C592 C606 1.377 . S
C593 C592 1.524 . S
C593 C594 1.397 . S
C593 C598 1.363 . S
C594 H571 0.950 . S
C594 C593 1.397 . S
C594 C595 1.334 . S
C595 H572 0.950 . S
C595 C594 1.334 . S
C595 C596 1.287 . S
C596 C595 1.287 . S
C596 C597 1.524 . S
C596 H615 0.913 . S
C597 H573 0.950 . S
C597 C596 1.524 . S
C597 C598 1.415 . S
C598 H574 0.950 . S
C598 C593 1.363 . S
C598 C597 1.415 . S
C599 H575 0.951 1_455 S
C599 C600 1.366 . S
C599 C601 1.388 . S
C600 C599 1.366 . S
C600 C604 1.385 . S
C601 H576 0.951 1_455 S
C601 C599 1.388 . S
C601 C602 1.366 . S
C602 C601 1.366 . S
C602 C603 1.414 . S
C602 C605 1.499 . S
C603 H577 0.950 . S
C603 C602 1.414 . S
C603 C604 1.374 . S
C604 H578 0.950 . S
C604 C600 1.385 . S
C604 C603 1.374 . S
C605 C602 1.499 . S
C605 C606 1.373 . S
C605 C607 1.389 . S
C606 H579 0.950 . S
C606 C592 1.377 . S
C606 C605 1.373 . S
C607 C591 1.377 . S
C607 C605 1.389 . S
C607 C608 1.524 1_455 S
C608 C607 1.524 1_655 S
C608 C609 1.397 . S
C608 C613 1.363 . S
C609 H580 0.950 1_655 S
C609 C608 1.397 . S
C609 C610 1.334 . S
C610 H581 0.950 . S
C610 C609 1.334 . S
C610 C611 1.287 . S
C611 C610 1.287 . S
C611 C612 1.524 . S
C611 H614 0.999 . S
C612 H582 0.950 . S
C612 C611 1.524 . S
C612 C613 1.415 . S
C613 H583 0.950 . S
C613 C608 1.363 . S
C613 C612 1.415 . S
H614 C611 0.999 . S
H615 C596 0.913 . S
H616 C634 0.951 . S
H617 C636 0.951 . S
H618 C638 0.950 . S
H619 C639 0.950 . S
H620 C641 0.950 1_554 S
H621 C644 0.950 . S
H622 C645 0.950 . S
H623 C647 0.950 . S
H624 C648 0.950 . S
H625 C649 0.951 . S
H626 C651 0.951 . S
H627 C653 0.950 1_545 S
H628 C654 0.950 . S
H629 C656 0.950 . S
H630 C659 0.950 1_545 S
H631 C660 0.950 1_545 S
H632 C662 0.950 1_554 S
H633 C663 0.950 . S
C634 H616 0.951 . S
C634 C635 1.366 . S
C634 C636 1.388 . S
C635 C634 1.366 . S
C635 C639 1.385 . S
C636 H617 0.951 . S
C636 C634 1.388 . S
C636 C637 1.366 . S
C637 C636 1.366 . S
C637 C638 1.414 . S
C637 C640 1.499 1_554 S
C638 H618 0.950 . S
C638 C637 1.414 . S
C638 C639 1.374 . S
C639 H619 0.950 . S
C639 C635 1.385 . S
C639 C638 1.374 . S
C640 C637 1.499 1_556 S
C640 C641 1.373 . S
C640 C642 1.389 . S
C641 H620 0.950 1_556 S
C641 C640 1.373 . S
C641 C657 1.377 . S
C642 C640 1.389 . S
C642 C643 1.524 . S
C642 C656 1.377 . S
C643 C642 1.524 . S
C643 C644 1.397 . S
C643 C648 1.363 . S
C644 H621 0.950 . S
C644 C643 1.397 . S
C644 C645 1.334 . S
C645 H622 0.950 . S
C645 C644 1.334 . S
C645 C646 1.287 . S
C646 C645 1.287 . S
C646 C647 1.524 . S
C646 H665 0.913 . S
C647 H623 0.950 . S
C647 C646 1.524 . S
C647 C648 1.415 . S
C648 H624 0.950 . S
C648 C643 1.363 . S
C648 C647 1.415 . S
C649 H625 0.951 . S
C649 C650 1.366 . S
C649 C651 1.388 . S
C650 C649 1.366 . S
C650 C654 1.385 1_565 S
C651 H626 0.951 . S
C651 C649 1.388 . S
C651 C652 1.366 . S
C652 C651 1.366 . S
C652 C653 1.414 . S
C652 C655 1.499 . S
C653 H627 0.950 1_565 S
C653 C652 1.414 . S
C653 C654 1.374 1_565 S
C654 H628 0.950 . S
C654 C650 1.385 1_545 S
C654 C653 1.374 1_545 S
C655 C652 1.499 . S
C655 C656 1.373 . S
C655 C657 1.389 . S
C656 H629 0.950 . S
C656 C642 1.377 . S
C656 C655 1.373 . S
C657 C641 1.377 . S
C657 C655 1.389 . S
C657 C658 1.524 . S
C658 C657 1.524 . S
C658 C659 1.397 . S
C658 C663 1.363 . S
C659 H630 0.950 1_565 S
C659 C658 1.397 . S
C659 C660 1.334 . S
C660 H631 0.950 1_565 S
C660 C659 1.334 . S
C660 C661 1.287 . S
C661 C660 1.287 . S
C661 C662 1.524 . S
C661 H664 0.999 1_655 S
C662 H632 0.950 1_556 S
C662 C661 1.524 . S
C662 C663 1.415 . S
C663 H633 0.950 . S
C663 C658 1.363 . S
C663 C662 1.415 . S
H664 C661 0.999 1_455 S
H665 C646 0.913 . S
H666 C684 0.951 . S
H667 C686 0.951 . S
H668 C688 0.950 1_556 S
H669 C689 0.950 . S
H670 C691 0.950 . S
H671 C694 0.950 . S
H672 C695 0.950 . S
H673 C697 0.950 . S
H674 C698 0.950 . S
H675 C699 0.951 . S
H676 C701 0.951 . S
H677 C703 0.950 . S
H678 C704 0.950 . S
H679 C706 0.950 . S
H680 C709 0.950 . S
H681 C710 0.950 . S
H682 C712 0.950 . S
H683 C713 0.950 . S
C684 H666 0.951 . S
C684 C685 1.366 . S
C684 C686 1.388 . S
C685 C684 1.366 . S
C685 C689 1.385 . S
C686 H667 0.951 . S
C686 C684 1.388 . S
C686 C687 1.366 . S
C687 C686 1.366 . S
C687 C688 1.414 . S
C687 C690 1.499 1_554 S
C688 H668 0.950 1_554 S
C688 C687 1.414 . S
C688 C689 1.374 . S
C689 H669 0.950 . S
C689 C685 1.385 . S
C689 C688 1.374 . S
C690 C687 1.499 1_556 S
C690 C691 1.373 . S
C690 C692 1.389 . S
C691 H670 0.950 . S
C691 C690 1.373 . S
C691 C707 1.377 . S
C692 C690 1.389 . S
C692 C693 1.525 1_556 S
C692 C706 1.377 . S
C693 C692 1.525 1_554 S
C693 C694 1.396 . S
C693 C698 1.362 . S
C694 H671 0.950 . S
C694 C693 1.396 . S
C694 C695 1.334 . S
C695 H672 0.950 . S
C695 C694 1.334 . S
C695 C696 1.287 . S
C696 C695 1.287 . S
C696 C697 1.524 . S
C696 H715 0.913 . S
C697 H673 0.950 . S
C697 C696 1.524 . S
C697 C698 1.415 . S
C698 H674 0.950 . S
C698 C693 1.362 . S
C698 C697 1.415 . S
C699 H675 0.951 . S
C699 C700 1.366 . S
C699 C701 1.388 . S
C700 C699 1.366 . S
C700 C704 1.385 . S
C701 H676 0.951 . S
C701 C699 1.388 . S
C701 C702 1.366 . S
C702 C701 1.366 . S
C702 C703 1.414 . S
C702 C705 1.499 . S
C703 H677 0.950 . S
C703 C702 1.414 . S
C703 C704 1.374 . S
C704 H678 0.950 . S
C704 C700 1.385 . S
C704 C703 1.374 . S
C705 C702 1.499 . S
C705 C706 1.373 . S
C705 C707 1.389 . S
C706 H679 0.950 . S
C706 C692 1.377 . S
C706 C705 1.373 . S
C707 C691 1.377 . S
C707 C705 1.389 . S
C707 C708 1.524 . S
C708 C707 1.524 . S
C708 C709 1.397 . S
C708 C713 1.363 . S
C709 H680 0.950 . S
C709 C708 1.397 . S
C709 C710 1.334 . S
C710 H681 0.950 . S
C710 C709 1.334 . S
C710 C711 1.287 . S
C711 C710 1.287 . S
C711 C712 1.524 . S
C711 H714 0.999 . S
C712 H682 0.950 . S
C712 C711 1.524 . S
C712 C713 1.415 . S
C713 H683 0.950 . S
C713 C708 1.363 . S
C713 C712 1.415 . S
H714 C711 0.999 . S
H715 C696 0.913 . S
H716 C734 0.951 . S
H717 C736 0.951 . S
H718 C738 0.950 . S
H719 C739 0.950 . S
H720 C741 0.950 . S
H721 C744 0.950 . S
H722 C745 0.950 . S
H723 C747 0.950 . S
H724 C748 0.950 . S
H725 C749 0.951 . S
H726 C751 0.951 . S
H727 C753 0.950 . S
H728 C754 0.950 . S
H729 C756 0.950 . S
H730 C759 0.950 . S
H731 C760 0.950 . S
H732 C762 0.950 . S
H733 C763 0.950 . S
C734 H716 0.951 . S
C734 C735 1.366 . S
C734 C736 1.388 . S
C735 C734 1.366 . S
C735 C739 1.385 . S
C736 H717 0.951 . S
C736 C734 1.388 . S
C736 C737 1.366 1_554 S
C737 C736 1.366 1_556 S
C737 C738 1.414 . S
C737 C740 1.499 . S
C738 H718 0.950 . S
C738 C737 1.414 . S
C738 C739 1.374 1_556 S
C739 H719 0.950 . S
C739 C735 1.385 . S
C739 C738 1.374 1_554 S
C740 C737 1.499 . S
C740 C741 1.373 . S
C740 C742 1.389 . S
C741 H720 0.950 . S
C741 C740 1.373 . S
C741 C757 1.377 . S
C742 C740 1.389 . S
C742 C743 1.524 . S
C742 C756 1.377 . S
C743 C742 1.524 . S
C743 C744 1.397 . S
C743 C748 1.363 . S
C744 H721 0.950 . S
C744 C743 1.397 . S
C744 C745 1.334 . S
C745 H722 0.950 . S
C745 C744 1.334 . S
C745 C746 1.287 . S
C746 C745 1.287 . S
C746 C747 1.524 . S
C746 H765 0.913 . S
C747 H723 0.950 . S
C747 C746 1.524 . S
C747 C748 1.415 . S
C748 H724 0.950 . S
C748 C743 1.363 . S
C748 C747 1.415 . S
C749 H725 0.951 . S
C749 C750 1.366 . S
C749 C751 1.388 . S
C750 C749 1.366 . S
C750 C754 1.385 . S
C751 H726 0.951 . S
C751 C749 1.388 . S
C751 C752 1.366 . S
C752 C751 1.366 . S
C752 C753 1.414 . S
C752 C755 1.499 . S
C753 H727 0.950 . S
C753 C752 1.414 . S
C753 C754 1.374 . S
C754 H728 0.950 . S
C754 C750 1.385 . S
C754 C753 1.374 . S
C755 C752 1.499 . S
C755 C756 1.373 . S
C755 C757 1.389 . S
C756 H729 0.950 . S
C756 C742 1.377 . S
C756 C755 1.373 . S
C757 C741 1.377 . S
C757 C755 1.389 . S
C757 C758 1.524 . S
C758 C757 1.524 . S
C758 C759 1.397 . S
C758 C763 1.363 . S
C759 H730 0.950 . S
C759 C758 1.397 . S
C759 C760 1.334 . S
C760 H731 0.950 . S
C760 C759 1.334 . S
C760 C761 1.287 . S
C761 C760 1.287 . S
C761 C762 1.524 . S
C761 H764 0.999 . S
C762 H732 0.950 . S
C762 C761 1.524 . S
C762 C763 1.415 . S
C763 H733 0.950 . S
C763 C758 1.363 . S
C763 C762 1.415 . S
H764 C761 0.999 . S
H765 C746 0.913 . S
H766 C784 0.951 . S
H767 C786 0.951 . S
H768 C788 0.950 1_556 S
H769 C789 0.950 . S
H770 C791 0.950 . S
H771 C794 0.950 . S
H772 C795 0.950 . S
H773 C797 0.950 . S
H774 C798 0.950 . S
H775 C799 0.951 . S
H776 C801 0.951 . S
H777 C803 0.950 . S
H778 C804 0.950 . S
H779 C806 0.950 1_455 S
H780 C809 0.950 . S
H781 C810 0.950 . S
H782 C812 0.950 . S
H783 C813 0.950 . S
C784 H766 0.951 . S
C784 C785 1.366 . S
C784 C786 1.388 . S
C785 C784 1.366 . S
C785 C789 1.385 . S
C786 H767 0.951 . S
C786 C784 1.388 . S
C786 C787 1.366 . S
C787 C786 1.366 . S
C787 C788 1.414 . S
C787 C790 1.499 1_554 S
C788 H768 0.950 1_554 S
C788 C787 1.414 . S
C788 C789 1.374 . S
C789 H769 0.950 . S
C789 C785 1.385 . S
C789 C788 1.374 . S
C790 C787 1.499 1_556 S
C790 C791 1.373 . S
C790 C792 1.389 . S
C791 H770 0.950 . S
C791 C790 1.373 . S
C791 C807 1.377 . S
C792 C790 1.389 . S
C792 C793 1.524 1_656 S
C792 C806 1.377 . S
C793 C792 1.524 1_454 S
C793 C794 1.397 . S
C793 C798 1.363 . S
C794 H771 0.950 . S
C794 C793 1.397 . S
C794 C795 1.334 . S
C795 H772 0.950 . S
C795 C794 1.334 . S
C795 C796 1.287 . S
C796 C795 1.287 . S
C796 C797 1.524 . S
C796 H815 0.913 . S
C797 H773 0.950 . S
C797 C796 1.524 . S
C797 C798 1.415 . S
C798 H774 0.950 . S
C798 C793 1.363 . S
C798 C797 1.415 . S
C799 H775 0.951 . S
C799 C800 1.366 . S
C799 C801 1.388 . S
C800 C799 1.366 . S
C800 C804 1.385 . S
C801 H776 0.951 . S
C801 C799 1.388 . S
C801 C802 1.366 . S
C802 C801 1.366 . S
C802 C803 1.414 . S
C802 C805 1.499 . S
C803 H777 0.950 . S
C803 C802 1.414 . S
C803 C804 1.374 . S
C804 H778 0.950 . S
C804 C800 1.385 . S
C804 C803 1.374 . S
C805 C802 1.499 . S
C805 C806 1.373 . S
C805 C807 1.389 . S
C806 H779 0.950 1_655 S
C806 C792 1.377 . S
C806 C805 1.373 . S
C807 C791 1.377 . S
C807 C805 1.389 . S
C807 C808 1.524 . S
C808 C807 1.524 . S
C808 C809 1.397 . S
C808 C813 1.363 . S
C809 H780 0.950 . S
C809 C808 1.397 . S
C809 C810 1.334 . S
C810 H781 0.950 . S
C810 C809 1.334 . S
C810 C811 1.287 . S
C811 C810 1.287 . S
C811 C812 1.524 . S
C811 H814 0.999 . S
C812 H782 0.950 . S
C812 C811 1.524 . S
C812 C813 1.415 . S
C813 H783 0.950 . S
C813 C808 1.363 . S
C813 C812 1.415 . S
H814 C811 0.999 . S
H815 C796 0.913 . S
H816 C834 0.951 . S
H817 C836 0.951 . S
H818 C838 0.950 . S
H819 C839 0.950 . S
H820 C841 0.950 . S
H821 C844 0.950 . S
H822 C845 0.950 . S
H823 C847 0.950 . S
H824 C848 0.950 . S
H825 C849 0.951 . S
H826 C851 0.951 . S
H827 C853 0.959 . S
H828 C854 0.950 . S
H829 C856 0.950 . S
H830 C859 0.950 . S
H831 C860 0.950 . S
H832 C862 0.942 1_455 S
H833 C863 0.950 . S
C834 H816 0.951 . S
C834 C835 1.366 . S
C834 C836 1.388 . S
C835 C834 1.366 . S
C835 C839 1.385 . S
C836 H817 0.951 . S
C836 C834 1.388 . S
C836 C837 1.366 . S
C837 C836 1.366 . S
C837 C838 1.414 . S
C837 C840 1.499 . S
C838 H818 0.950 . S
C838 C837 1.414 . S
C838 C839 1.374 . S
C839 H819 0.950 . S
C839 C835 1.385 . S
C839 C838 1.374 . S
C840 C837 1.499 . S
C840 C841 1.373 . S
C840 C842 1.389 . S
C841 H820 0.950 . S
C841 C840 1.373 . S
C841 C857 1.377 . S
C842 C840 1.389 . S
C842 C843 1.524 . S
C842 C856 1.377 . S
C843 C842 1.524 . S
C843 C844 1.397 . S
C843 C848 1.363 . S
C844 H821 0.950 . S
C844 C843 1.397 . S
C844 C845 1.334 . S
C845 H822 0.950 . S
C845 C844 1.334 . S
C845 C846 1.287 . S
C846 C845 1.287 . S
C846 C847 1.524 . S
C846 H865 0.913 . S
C847 H823 0.950 . S
C847 C846 1.524 . S
C847 C848 1.415 . S
C848 H824 0.950 . S
C848 C843 1.363 . S
C848 C847 1.415 . S
C849 H825 0.951 . S
C849 C850 1.377 . S
C849 C851 1.388 . S
C850 C849 1.377 . S
C850 C854 1.380 1_455 S
C851 H826 0.951 . S
C851 C849 1.388 . S
C851 C852 1.366 . S
C852 C851 1.366 . S
C852 C853 1.414 . S
C852 C855 1.499 . S
C853 H827 0.959 . S
C853 C852 1.414 . S
C853 C854 1.374 1_455 S
C854 H828 0.950 . S
C854 C850 1.380 1_655 S
C854 C853 1.374 1_655 S
C855 C852 1.499 . S
C855 C856 1.373 . S
C855 C857 1.389 . S
C856 H829 0.950 . S
C856 C842 1.377 . S
C856 C855 1.373 . S
C857 C841 1.377 . S
C857 C855 1.389 . S
C857 C858 1.524 . S
C858 C857 1.524 . S
C858 C859 1.397 1_455 S
C858 C863 1.363 . S
C859 H830 0.950 . S
C859 C858 1.397 1_655 S
C859 C860 1.334 . S
C860 H831 0.950 . S
C860 C859 1.334 . S
C860 C861 1.287 . S
C861 C860 1.287 . S
C861 C862 1.524 . S
C861 H864 0.999 . S
C862 H832 0.942 1_655 S
C862 C861 1.524 . S
C862 C863 1.415 1_655 S
C863 H833 0.950 . S
C863 C858 1.363 . S
C863 C862 1.415 1_455 S
H864 C861 0.999 . S
H865 C846 0.913 . S
H866 C884 0.951 . S
H867 C886 0.951 . S
H868 C888 0.950 . S
H869 C889 0.950 . S
H870 C891 0.950 . S
H871 C894 0.950 . S
H872 C895 0.950 . S
H873 C897 0.946 1_565 S
H874 C898 0.950 . S
H875 C899 0.951 . S
H876 C901 0.951 . S
H877 C903 0.950 . S
H878 C904 0.950 . S
H879 C906 0.950 . S
H880 C909 0.950 . S
H881 C910 0.950 . S
H882 C912 0.950 . S
H883 C913 0.950 . S
C884 H866 0.951 . S
C884 C885 1.366 . S
C884 C886 1.388 . S
C885 C884 1.366 . S
C885 C889 1.385 . S
C886 H867 0.951 . S
C886 C884 1.388 . S
C886 C887 1.366 . S
C887 C886 1.366 . S
C887 C888 1.414 . S
C887 C890 1.499 . S
C888 H868 0.950 . S
C888 C887 1.414 . S
C888 C889 1.374 . S
C889 H869 0.950 . S
C889 C885 1.385 . S
C889 C888 1.374 . S
C890 C887 1.499 . S
C890 C891 1.373 . S
C890 C892 1.389 . S
C891 H870 0.950 . S
C891 C890 1.373 . S
C891 C907 1.377 . S
C892 C890 1.389 . S
C892 C893 1.524 . S
C892 C906 1.377 . S
C893 C892 1.524 . S
C893 C894 1.397 . S
C893 C898 1.363 . S
C894 H871 0.950 . S
C894 C893 1.397 . S
C894 C895 1.334 1_545 S
C895 H872 0.950 . S
C895 C894 1.334 1_565 S
C895 C896 1.287 . S
C896 C895 1.287 . S
C896 C897 1.518 1_565 S
C896 H915 0.913 . S
C897 H873 0.946 1_545 S
C897 C896 1.518 1_545 S
C897 C898 1.425 . S
C898 H874 0.950 . S
C898 C893 1.363 . S
C898 C897 1.425 . S
C899 H875 0.951 . S
C899 C900 1.366 . S
C899 C901 1.388 . S
C900 C899 1.366 . S
C900 C904 1.385 . S
C901 H876 0.951 . S
C901 C899 1.388 . S
C901 C902 1.366 . S
C902 C901 1.366 . S
C902 C903 1.414 . S
C902 C905 1.499 . S
C903 H877 0.950 . S
C903 C902 1.414 . S
C903 C904 1.374 . S
C904 H878 0.950 . S
C904 C900 1.385 . S
C904 C903 1.374 . S
C905 C902 1.499 . S
C905 C906 1.373 . S
C905 C907 1.389 . S
C906 H879 0.950 . S
C906 C892 1.377 . S
C906 C905 1.373 . S
C907 C891 1.377 . S
C907 C905 1.389 . S
C907 C908 1.524 . S
C908 C907 1.524 . S
C908 C909 1.397 . S
C908 C913 1.363 . S
C909 H880 0.950 . S
C909 C908 1.397 . S
C909 C910 1.334 . S
C910 H881 0.950 . S
C910 C909 1.334 . S
C910 C911 1.287 . S
C911 C910 1.287 . S
C911 C912 1.524 . S
C911 H914 0.999 . S
C912 H882 0.950 . S
C912 C911 1.524 . S
C912 C913 1.415 . S
C913 H883 0.950 . S
C913 C908 1.363 . S
C913 C912 1.415 . S
H914 C911 0.999 . S
H915 C896 0.913 . S
H916 C934 0.951 . S
H917 C936 0.951 . S
H918 C938 0.950 . S
H919 C939 0.950 . S
H920 C941 0.950 . S
H921 C944 0.950 . S
H922 C945 0.950 . S
H923 C947 0.950 . S
H924 C948 0.950 . S
H925 C949 0.951 . S
H926 C951 0.951 . S
H927 C953 0.950 . S
H928 C954 0.950 . S
H929 C956 0.950 . S
H930 C959 0.950 . S
H931 C960 0.950 . S
H932 C962 0.950 . S
H933 C963 0.950 . S
C934 H916 0.951 . S
C934 C935 1.366 . S
C934 C936 1.388 . S
C935 C934 1.366 . S
C935 C939 1.385 . S
C936 H917 0.951 . S
C936 C934 1.388 . S
C936 C937 1.366 . S
C937 C936 1.366 . S
C937 C938 1.414 . S
C937 C940 1.499 . S
C938 H918 0.950 . S
C938 C937 1.414 . S
C938 C939 1.374 . S
C939 H919 0.950 . S
C939 C935 1.385 . S
C939 C938 1.374 . S
C940 C937 1.499 . S
C940 C941 1.373 . S
C940 C942 1.389 . S
C941 H920 0.950 . S
C941 C940 1.373 . S
C941 C957 1.377 . S
C942 C940 1.389 . S
C942 C943 1.524 . S
C942 C956 1.377 . S
C943 C942 1.524 . S
C943 C944 1.397 . S
C943 C948 1.363 . S
C944 H921 0.950 . S
C944 C943 1.397 . S
C944 C945 1.334 . S
C945 H922 0.950 . S
C945 C944 1.334 . S
C945 C946 1.287 . S
C946 C945 1.287 . S
C946 C947 1.524 . S
C946 H965 0.913 . S
C947 H923 0.950 . S
C947 C946 1.524 . S
C947 C948 1.415 . S
C948 H924 0.950 . S
C948 C943 1.363 . S
C948 C947 1.415 . S
C949 H925 0.951 . S
C949 C950 1.366 . S
C949 C951 1.388 . S
C950 C949 1.366 . S
C950 C954 1.385 . S
C951 H926 0.951 . S
C951 C949 1.388 . S
C951 C952 1.366 . S
C952 C951 1.366 . S
C952 C953 1.414 . S
C952 C955 1.499 . S
C953 H927 0.950 . S
C953 C952 1.414 . S
C953 C954 1.374 . S
C954 H928 0.950 . S
C954 C950 1.385 . S
C954 C953 1.374 . S
C955 C952 1.499 . S
C955 C956 1.373 . S
C955 C957 1.389 . S
C956 H929 0.950 . S
C956 C942 1.377 . S
C956 C955 1.373 . S
C957 C941 1.377 . S
C957 C955 1.389 . S
C957 C958 1.524 . S
C958 C957 1.524 . S
C958 C959 1.397 . S
C958 C963 1.363 . S
C959 H930 0.950 . S
C959 C958 1.397 . S
C959 C960 1.334 . S
C960 H931 0.950 . S
C960 C959 1.334 . S
C960 C961 1.287 . S
C961 C960 1.287 . S
C961 C962 1.524 . S
C961 H964 0.999 . S
C962 H932 0.950 . S
C962 C961 1.524 . S
C962 C963 1.415 . S
C963 H933 0.950 . S
C963 C958 1.363 . S
C963 C962 1.415 . S
H964 C961 0.999 . S
H965 C946 0.913 . S
H966 C984 0.951 . S
H967 C986 0.951 . S
H968 C988 0.950 . S
H969 C989 0.950 . S
H970 C991 0.950 . S
H971 C994 0.950 . S
H972 C995 0.950 . S
H973 C997 0.950 . S
H974 C998 0.950 . S
H975 C999 0.951 . S
H976 C1001 0.951 . S
H977 C1003 0.950 . S
H978 C1004 0.950 . S
H979 C1006 0.950 . S
H980 C1009 0.950 . S
H981 C1010 0.950 . S
H982 C1012 0.950 . S
H983 C1013 0.950 . S
C984 H966 0.951 . S
C984 C985 1.366 . S
C984 C986 1.388 . S
C985 C984 1.366 . S
C985 C989 1.385 . S
C986 H967 0.951 . S
C986 C984 1.388 . S
C986 C987 1.366 . S
C987 C986 1.366 . S
C987 C988 1.414 . S
C987 C990 1.499 . S
C988 H968 0.950 . S
C988 C987 1.414 . S
C988 C989 1.374 . S
C989 H969 0.950 . S
C989 C985 1.385 . S
C989 C988 1.374 . S
C990 C987 1.499 . S
C990 C991 1.373 . S
C990 C992 1.389 . S
C991 H970 0.950 . S
C991 C990 1.373 . S
C991 C1007 1.377 . S
C992 C990 1.389 . S
C992 C993 1.524 . S
C992 C1006 1.377 . S
C993 C992 1.524 . S
C993 C994 1.397 . S
C993 C998 1.363 . S
C994 H971 0.950 . S
C994 C993 1.397 . S
C994 C995 1.334 . S
C995 H972 0.950 . S
C995 C994 1.334 . S
C995 C996 1.287 . S
C996 C995 1.287 . S
C996 C997 1.524 . S
C996 H1015 0.913 . S
C997 H973 0.950 . S
C997 C996 1.524 . S
C997 C998 1.415 . S
C998 H974 0.950 . S
C998 C993 1.363 . S
C998 C997 1.415 . S
C999 H975 0.951 . S
C999 C1000 1.366 . S
C999 C1001 1.388 . S
C1000 C999 1.366 . S
C1000 C1004 1.385 . S
C1001 H976 0.951 . S
C1001 C999 1.388 . S
C1001 C1002 1.366 . S
C1002 C1001 1.366 . S
C1002 C1003 1.414 . S
C1002 C1005 1.499 . S
C1003 H977 0.950 . S
C1003 C1002 1.414 . S
C1003 C1004 1.374 . S
C1004 H978 0.950 . S
C1004 C1000 1.385 . S
C1004 C1003 1.374 . S
C1005 C1002 1.499 . S
C1005 C1006 1.373 . S
C1005 C1007 1.389 . S
C1006 H979 0.950 . S
C1006 C992 1.377 . S
C1006 C1005 1.373 . S
C1007 C991 1.377 . S
C1007 C1005 1.389 . S
C1007 C1008 1.524 . S
C1008 C1007 1.524 . S
C1008 C1009 1.397 . S
C1008 C1013 1.363 . S
C1009 H980 0.950 . S
C1009 C1008 1.397 . S
C1009 C1010 1.334 . S
C1010 H981 0.950 . S
C1010 C1009 1.334 . S
C1010 C1011 1.287 . S
C1011 C1010 1.287 . S
C1011 C1012 1.524 . S
C1011 H1014 0.999 . S
C1012 H982 0.950 . S
C1012 C1011 1.524 . S
C1012 C1013 1.415 . S
C1013 H983 0.950 . S
C1013 C1008 1.363 . S
C1013 C1012 1.415 . S
H1014 C1011 0.999 . S
H1015 C996 0.913 . S
H1016 C1034 0.951 . S
H1017 C1036 0.951 . S
H1018 C1038 0.950 . S
H1019 C1039 0.950 . S
H1020 C1041 0.950 1_455 S
H1021 C1044 0.950 . S
H1022 C1045 0.950 . S
H1023 C1047 0.950 . S
H1024 C1048 0.950 . S
H1025 C1049 0.951 . S
H1026 C1051 0.951 . S
H1027 C1053 0.950 . S
H1028 C1054 0.950 . S
H1029 C1056 0.950 . S
H1030 C1059 0.950 . S
H1031 C1060 0.950 . S
H1032 C1062 0.950 . S
H1033 C1063 0.950 1_556 S
C1034 H1016 0.951 . S
C1034 C1035 1.366 . S
C1034 C1036 1.388 . S
C1035 C1034 1.366 . S
C1035 C1039 1.385 . S
C1036 H1017 0.951 . S
C1036 C1034 1.388 . S
C1036 C1037 1.366 . S
C1037 C1036 1.366 . S
C1037 C1038 1.414 . S
C1037 C1040 1.499 . S
C1038 H1018 0.950 . S
C1038 C1037 1.414 . S
C1038 C1039 1.374 . S
C1039 H1019 0.950 . S
C1039 C1035 1.385 . S
C1039 C1038 1.374 . S
C1040 C1037 1.499 . S
C1040 C1041 1.373 . S
C1040 C1042 1.389 1_554 S
C1041 H1020 0.950 1_655 S
C1041 C1040 1.373 . S
C1041 C1057 1.377 1_654 S
C1042 C1040 1.389 1_556 S
C1042 C1043 1.524 . S
C1042 C1056 1.377 . S
C1043 C1042 1.524 . S
C1043 C1044 1.397 . S
C1043 C1048 1.363 . S
C1044 H1021 0.950 . S
C1044 C1043 1.397 . S
C1044 C1045 1.334 . S
C1045 H1022 0.950 . S
C1045 C1044 1.334 . S
C1045 C1046 1.287 . S
C1046 C1045 1.287 . S
C1046 C1047 1.524 . S
C1046 H1065 0.913 . S
C1047 H1023 0.950 . S
C1047 C1046 1.524 . S
C1047 C1048 1.415 . S
C1048 H1024 0.950 . S
C1048 C1043 1.363 . S
C1048 C1047 1.415 . S
C1049 H1025 0.951 . S
C1049 C1050 1.366 . S
C1049 C1051 1.388 . S
C1050 C1049 1.366 . S
C1050 C1054 1.385 1_455 S
C1051 H1026 0.951 . S
C1051 C1049 1.388 . S
C1051 C1052 1.356 1_455 S
C1052 C1051 1.356 1_655 S
C1052 C1053 1.420 . S
C1052 C1055 1.503 . S
C1053 H1027 0.950 . S
C1053 C1052 1.420 . S
C1053 C1054 1.374 . S
C1054 H1028 0.950 . S
C1054 C1050 1.385 1_655 S
C1054 C1053 1.374 . S
C1055 C1052 1.503 . S
C1055 C1056 1.373 . S
C1055 C1057 1.389 1_655 S
C1056 H1029 0.950 . S
C1056 C1042 1.377 . S
C1056 C1055 1.373 . S
C1057 C1041 1.377 1_456 S
C1057 C1055 1.389 1_455 S
C1057 C1058 1.524 1_556 S
C1058 C1057 1.524 1_554 S
C1058 C1059 1.397 . S
C1058 C1063 1.363 . S
C1059 H1030 0.950 . S
C1059 C1058 1.397 . S
C1059 C1060 1.334 . S
C1060 H1031 0.950 . S
C1060 C1059 1.334 . S
C1060 C1061 1.287 . S
C1061 C1060 1.287 . S
C1061 C1062 1.524 . S
C1061 H1064 0.999 . S
C1062 H1032 0.950 . S
C1062 C1061 1.524 . S
C1062 C1063 1.415 . S
C1063 H1033 0.950 1_554 S
C1063 C1058 1.363 . S
C1063 C1062 1.415 . S
H1064 C1061 0.999 . S
H1065 C1046 0.913 . S
H1066 C1084 0.951 . S
H1067 C1086 0.951 1_556 S
H1068 C1088 0.950 . S
H1069 C1089 0.950 . S
H1070 C1091 0.950 . S
H1071 C1094 0.950 . S
H1072 C1095 0.950 1_545 S
H1073 C1097 0.950 . S
H1074 C1098 0.950 . S
H1075 C1099 0.951 . S
H1076 C1101 0.951 . S
H1077 C1103 0.950 . S
H1078 C1104 0.950 . S
H1079 C1106 0.950 . S
H1080 C1109 0.950 . S
H1081 C1110 0.950 . S
H1082 C1112 0.950 . S
H1083 C1113 0.950 . S
C1084 H1066 0.951 . S
C1084 C1085 1.366 . S
C1084 C1086 1.388 . S
C1085 C1084 1.366 . S
C1085 C1089 1.385 . S
C1086 H1067 0.951 1_554 S
C1086 C1084 1.388 . S
C1086 C1087 1.366 . S
C1087 C1086 1.366 . S
C1087 C1088 1.414 . S
C1087 C1090 1.499 1_554 S
C1088 H1068 0.950 . S
C1088 C1087 1.414 . S
C1088 C1089 1.374 . S
C1089 H1069 0.950 . S
C1089 C1085 1.385 . S
C1089 C1088 1.374 . S
C1090 C1087 1.499 1_556 S
C1090 C1091 1.373 1_556 S
C1090 C1092 1.389 . S
C1091 H1070 0.950 . S
C1091 C1090 1.373 1_554 S
C1091 C1107 1.377 1_554 S
C1092 C1090 1.389 . S
C1092 C1093 1.524 . S
C1092 C1106 1.377 . S
C1093 C1092 1.524 . S
C1093 C1094 1.397 . S
C1093 C1098 1.363 . S
C1094 H1071 0.950 . S
C1094 C1093 1.397 . S
C1094 C1095 1.334 . S
C1095 H1072 0.950 1_565 S
C1095 C1094 1.334 . S
C1095 C1096 1.287 . S
C1096 C1095 1.287 . S
C1096 C1097 1.524 . S
C1096 H1115 0.913 . S
C1097 H1073 0.950 . S
C1097 C1096 1.524 . S
C1097 C1098 1.415 . S
C1098 H1074 0.950 . S
C1098 C1093 1.363 . S
C1098 C1097 1.415 . S
C1099 H1075 0.951 . S
C1099 C1100 1.366 . S
C1099 C1101 1.388 . S
C1100 C1099 1.366 . S
C1100 C1104 1.385 1_545 S
C1101 H1076 0.951 . S
C1101 C1099 1.388 . S
C1101 C1102 1.366 1_545 S
C1102 C1101 1.366 1_565 S
C1102 C1103 1.414 . S
C1102 C1105 1.499 . S
C1103 H1077 0.950 . S
C1103 C1102 1.414 . S
C1103 C1104 1.374 . S
C1104 H1078 0.950 . S
C1104 C1100 1.385 1_565 S
C1104 C1103 1.374 . S
C1105 C1102 1.499 . S
C1105 C1106 1.373 . S
C1105 C1107 1.389 . S
C1106 H1079 0.950 . S
C1106 C1092 1.377 . S
C1106 C1105 1.373 . S
C1107 C1091 1.377 1_556 S
C1107 C1105 1.389 . S
C1107 C1108 1.524 . S
C1108 C1107 1.524 . S
C1108 C1109 1.397 . S
C1108 C1113 1.363 1_556 S
C1109 H1080 0.950 . S
C1109 C1108 1.397 . S
C1109 C1110 1.334 . S
C1110 H1081 0.950 . S
C1110 C1109 1.334 . S
C1110 C1111 1.287 1_556 S
C1111 C1110 1.287 1_554 S
C1111 C1112 1.524 . S
C1111 H1114 0.999 . S
C1112 H1082 0.950 . S
C1112 C1111 1.524 . S
C1112 C1113 1.415 . S
C1113 H1083 0.950 . S
C1113 C1108 1.363 1_554 S
C1113 C1112 1.415 . S
H1114 C1111 0.999 . S
H1115 C1096 0.913 . S
H1116 C1134 0.951 . S
H1117 C1136 0.951 . S
H1118 C1138 0.950 . S
H1119 C1139 0.950 . S
H1120 C1141 0.936 1_554 S
H1121 C1144 0.950 . S
H1122 C1145 0.950 . S
H1123 C1147 0.950 . S
H1124 C1148 0.950 . S
H1125 C1149 0.951 . S
H1126 C1151 0.951 . S
H1127 C1153 0.950 . S
H1128 C1154 0.950 . S
H1129 C1156 0.950 . S
H1130 C1159 0.950 . S
H1131 C1160 0.950 . S
H1132 C1162 0.950 . S
H1133 C1163 0.950 . S
C1134 H1116 0.951 . S
C1134 C1135 1.366 . S
C1134 C1136 1.388 1_554 S
C1135 C1134 1.366 . S
C1135 C1139 1.385 . S
C1136 H1117 0.951 . S
C1136 C1134 1.388 1_556 S
C1136 C1137 1.366 . S
C1137 C1136 1.366 . S
C1137 C1138 1.414 1_556 S
C1137 C1140 1.499 . S
C1138 H1118 0.950 . S
C1138 C1137 1.414 1_554 S
C1138 C1139 1.374 . S
C1139 H1119 0.950 . S
C1139 C1135 1.385 . S
C1139 C1138 1.374 . S
C1140 C1137 1.499 . S
C1140 C1141 1.373 . S
C1140 C1142 1.389 . S
C1141 H1120 0.936 1_556 S
C1141 C1140 1.373 . S
C1141 C1157 1.377 . S
C1142 C1140 1.389 . S
C1142 C1143 1.524 . S
C1142 C1156 1.377 . S
C1143 C1142 1.524 . S
C1143 C1144 1.397 . S
C1143 C1148 1.363 . S
C1144 H1121 0.950 . S
C1144 C1143 1.397 . S
C1144 C1145 1.334 . S
C1145 H1122 0.950 . S
C1145 C1144 1.334 . S
C1145 C1146 1.287 . S
C1146 C1145 1.287 . S
C1146 C1147 1.524 . S
C1146 H1165 0.913 . S
C1147 H1123 0.950 . S
C1147 C1146 1.524 . S
C1147 C1148 1.415 . S
C1148 H1124 0.950 . S
C1148 C1143 1.363 . S
C1148 C1147 1.415 . S
C1149 H1125 0.951 . S
C1149 C1150 1.366 . S
C1149 C1151 1.388 . S
C1150 C1149 1.366 . S
C1150 C1154 1.385 . S
C1151 H1126 0.951 . S
C1151 C1149 1.388 . S
C1151 C1152 1.366 . S
C1152 C1151 1.366 . S
C1152 C1153 1.414 . S
C1152 C1155 1.499 . S
C1153 H1127 0.950 . S
C1153 C1152 1.414 . S
C1153 C1154 1.374 . S
C1154 H1128 0.950 . S
C1154 C1150 1.385 . S
C1154 C1153 1.374 . S
C1155 C1152 1.499 . S
C1155 C1156 1.373 . S
C1155 C1157 1.389 . S
C1156 H1129 0.950 . S
C1156 C1142 1.377 . S
C1156 C1155 1.373 . S
C1157 C1141 1.377 . S
C1157 C1155 1.389 . S
C1157 C1158 1.524 . S
C1158 C1157 1.524 . S
C1158 C1159 1.397 . S
C1158 C1163 1.363 . S
C1159 H1130 0.950 . S
C1159 C1158 1.397 . S
C1159 C1160 1.334 . S
C1160 H1131 0.950 . S
C1160 C1159 1.334 . S
C1160 C1161 1.287 1_556 S
C1161 C1160 1.287 1_554 S
C1161 C1162 1.524 . S
C1161 H1164 0.999 . S
C1162 H1132 0.950 . S
C1162 C1161 1.524 . S
C1162 C1163 1.415 1_554 S
C1163 H1133 0.950 . S
C1163 C1158 1.363 . S
C1163 C1162 1.415 1_556 S
H1164 C1161 0.999 . S
H1165 C1146 0.913 . S
H1166 C1184 0.951 1_556 S
H1167 C1186 0.951 . S
H1168 C1188 0.950 . S
H1169 C1189 0.950 . S
H1170 C1191 0.950 . S
H1171 C1194 0.950 . S
H1172 C1195 0.950 . S
H1173 C1197 0.950 . S
H1174 C1198 0.950 . S
H1175 C1199 0.951 . S
H1176 C1201 0.951 . S
H1177 C1203 0.950 . S
H1178 C1204 0.950 . S
H1179 C1206 0.950 . S
H1180 C1209 0.950 . S
H1181 C1210 0.950 . S
H1182 C1212 0.950 . S
H1183 C1213 0.950 1_554 S
C1184 H1166 0.951 1_554 S
C1184 C1185 1.366 . S
C1184 C1186 1.388 1_554 S
C1185 C1184 1.366 . S
C1185 C1189 1.385 . S
C1186 H1167 0.951 . S
C1186 C1184 1.388 1_556 S
C1186 C1187 1.366 1_556 S
C1187 C1186 1.366 1_554 S
C1187 C1188 1.414 . S
C1187 C1190 1.499 1_554 S
C1188 H1168 0.950 . S
C1188 C1187 1.414 . S
C1188 C1189 1.374 . S
C1189 H1169 0.950 . S
C1189 C1185 1.385 . S
C1189 C1188 1.374 . S
C1190 C1187 1.499 1_556 S
C1190 C1191 1.373 . S
C1190 C1192 1.389 . S
C1191 H1170 0.950 . S
C1191 C1190 1.373 . S
C1191 C1207 1.377 . S
C1192 C1190 1.389 . S
C1192 C1193 1.524 . S
C1192 C1206 1.377 . S
C1193 C1192 1.524 . S
C1193 C1194 1.397 1_556 S
C1193 C1198 1.363 . S
C1194 H1171 0.950 . S
C1194 C1193 1.397 1_554 S
C1194 C1195 1.334 . S
C1195 H1172 0.950 . S
C1195 C1194 1.334 . S
C1195 C1196 1.287 . S
C1196 C1195 1.287 . S
C1196 C1197 1.524 1_554 S
C1196 H1215 0.913 . S
C1197 H1173 0.950 . S
C1197 C1196 1.524 1_556 S
C1197 C1198 1.415 . S
C1198 H1174 0.950 . S
C1198 C1193 1.363 . S
C1198 C1197 1.415 . S
C1199 H1175 0.951 . S
C1199 C1200 1.366 . S
C1199 C1201 1.388 . S
C1200 C1199 1.366 . S
C1200 C1204 1.385 . S
C1201 H1176 0.951 . S
C1201 C1199 1.388 . S
C1201 C1202 1.366 . S
C1202 C1201 1.366 . S
C1202 C1203 1.414 . S
C1202 C1205 1.499 . S
C1203 H1177 0.950 . S
C1203 C1202 1.414 . S
C1203 C1204 1.374 . S
C1204 H1178 0.950 . S
C1204 C1200 1.385 . S
C1204 C1203 1.374 . S
C1205 C1202 1.499 . S
C1205 C1206 1.373 . S
C1205 C1207 1.389 . S
C1206 H1179 0.950 . S
C1206 C1192 1.377 . S
C1206 C1205 1.373 . S
C1207 C1191 1.377 . S
C1207 C1205 1.389 . S
C1207 C1208 1.524 . S
C1208 C1207 1.524 . S
C1208 C1209 1.397 . S
C1208 C1213 1.363 . S
C1209 H1180 0.950 . S
C1209 C1208 1.397 . S
C1209 C1210 1.334 . S
C1210 H1181 0.950 . S
C1210 C1209 1.334 . S
C1210 C1211 1.287 . S
C1211 C1210 1.287 . S
C1211 C1212 1.524 . S
C1211 H1214 0.999 . S
C1212 H1182 0.950 . S
C1212 C1211 1.524 . S
C1212 C1213 1.415 . S
C1213 H1183 0.950 1_556 S
C1213 C1208 1.363 . S
C1213 C1212 1.415 . S
H1214 C1211 0.999 . S
H1215 C1196 0.913 . S
H1216 C1234 0.951 . S
H1217 C1236 0.951 . S
H1218 C1238 0.950 . S
H1219 C1239 0.950 . S
H1220 C1241 0.950 . S
H1221 C1244 0.950 . S
H1222 C1245 0.950 . S
H1223 C1247 0.950 . S
H1224 C1248 0.950 . S
H1225 C1249 0.951 . S
H1226 C1251 0.951 . S
H1227 C1253 0.950 . S
H1228 C1254 0.950 . S
H1229 C1256 0.950 . S
H1230 C1259 0.950 . S
H1231 C1260 0.950 . S
H1232 C1262 0.950 . S
H1233 C1263 0.950 . S
C1234 H1216 0.951 . S
C1234 C1235 1.366 . S
C1234 C1236 1.388 . S
C1235 C1234 1.366 . S
C1235 C1239 1.385 . S
C1236 H1217 0.951 . S
C1236 C1234 1.388 . S
C1236 C1237 1.366 . S
C1237 C1236 1.366 . S
C1237 C1238 1.414 . S
C1237 C1240 1.499 . S
C1238 H1218 0.950 . S
C1238 C1237 1.414 . S
C1238 C1239 1.374 . S
C1239 H1219 0.950 . S
C1239 C1235 1.385 . S
C1239 C1238 1.374 . S
C1240 C1237 1.499 . S
C1240 C1241 1.373 . S
C1240 C1242 1.389 . S
C1241 H1220 0.950 . S
C1241 C1240 1.373 . S
C1241 C1257 1.377 . S
C1242 C1240 1.389 . S
C1242 C1243 1.524 . S
C1242 C1256 1.377 . S
C1243 C1242 1.524 . S
C1243 C1244 1.397 . S
C1243 C1248 1.363 . S
C1244 H1221 0.950 . S
C1244 C1243 1.397 . S
C1244 C1245 1.334 . S
C1245 H1222 0.950 . S
C1245 C1244 1.334 . S
C1245 C1246 1.287 . S
C1246 C1245 1.287 . S
C1246 C1247 1.524 . S
C1246 H1265 0.913 . S
C1247 H1223 0.950 . S
C1247 C1246 1.524 . S
C1247 C1248 1.415 . S
C1248 H1224 0.950 . S
C1248 C1243 1.363 . S
C1248 C1247 1.415 . S
C1249 H1225 0.951 . S
C1249 C1250 1.366 . S
C1249 C1251 1.388 . S
C1250 C1249 1.366 . S
C1250 C1254 1.385 . S
C1251 H1226 0.951 . S
C1251 C1249 1.388 . S
C1251 C1252 1.366 . S
C1252 C1251 1.366 . S
C1252 C1253 1.414 . S
C1252 C1255 1.499 . S
C1253 H1227 0.950 . S
C1253 C1252 1.414 . S
C1253 C1254 1.374 . S
C1254 H1228 0.950 . S
C1254 C1250 1.385 . S
C1254 C1253 1.374 . S
C1255 C1252 1.499 . S
C1255 C1256 1.373 . S
C1255 C1257 1.389 . S
C1256 H1229 0.950 . S
C1256 C1242 1.377 . S
C1256 C1255 1.373 . S
C1257 C1241 1.377 . S
C1257 C1255 1.389 . S
C1257 C1258 1.524 . S
C1258 C1257 1.524 . S
C1258 C1259 1.397 1_455 S
C1258 C1263 1.363 . S
C1259 H1230 0.950 . S
C1259 C1258 1.397 1_655 S
C1259 C1260 1.334 . S
C1260 H1231 0.950 . S
C1260 C1259 1.334 . S
C1260 C1261 1.287 . S
C1261 C1260 1.287 . S
C1261 C1262 1.524 . S
C1261 H1264 0.999 . S
C1262 H1232 0.950 . S
C1262 C1261 1.524 . S
C1262 C1263 1.415 1_655 S
C1263 H1233 0.950 . S
C1263 C1258 1.363 . S
C1263 C1262 1.415 1_455 S
H1264 C1261 0.999 . S
H1265 C1246 0.913 . S
H1266 C1284 0.951 . S
H1267 C1286 0.951 . S
H1268 C1288 0.950 . S
H1269 C1289 0.950 . S
H1270 C1291 0.950 . S
H1271 C1294 0.950 . S
H1272 C1295 0.950 . S
H1273 C1297 0.950 . S
H1274 C1298 0.950 . S
H1275 C1299 0.951 . S
H1276 C1301 0.951 . S
H1277 C1303 0.950 . S
H1278 C1304 0.950 . S
H1279 C1306 0.950 . S
H1280 C1309 0.950 . S
H1281 C1310 0.950 . S
H1282 C1312 0.950 . S
H1283 C1313 0.950 . S
C1284 H1266 0.951 . S
C1284 C1285 1.366 . S
C1284 C1286 1.388 . S
C1285 C1284 1.366 . S
C1285 C1289 1.385 . S
C1286 H1267 0.951 . S
C1286 C1284 1.388 . S
C1286 C1287 1.366 . S
C1287 C1286 1.366 . S
C1287 C1288 1.414 . S
C1287 C1290 1.499 . S
C1288 H1268 0.950 . S
C1288 C1287 1.414 . S
C1288 C1289 1.374 . S
C1289 H1269 0.950 . S
C1289 C1285 1.385 . S
C1289 C1288 1.374 . S
C1290 C1287 1.499 . S
C1290 C1291 1.373 . S
C1290 C1292 1.389 . S
C1291 H1270 0.950 . S
C1291 C1290 1.373 . S
C1291 C1307 1.377 . S
C1292 C1290 1.389 . S
C1292 C1293 1.524 . S
C1292 C1306 1.377 . S
C1293 C1292 1.524 . S
C1293 C1294 1.397 . S
C1293 C1298 1.363 . S
C1294 H1271 0.950 . S
C1294 C1293 1.397 . S
C1294 C1295 1.334 1_545 S
C1295 H1272 0.950 . S
C1295 C1294 1.334 1_565 S
C1295 C1296 1.287 . S
C1296 C1295 1.287 . S
C1296 C1297 1.524 . S
C1296 H1315 0.913 . S
C1297 H1273 0.950 . S
C1297 C1296 1.524 . S
C1297 C1298 1.415 1_565 S
C1298 H1274 0.950 . S
C1298 C1293 1.363 . S
C1298 C1297 1.415 1_545 S
C1299 H1275 0.951 . S
C1299 C1300 1.366 . S
C1299 C1301 1.388 . S
C1300 C1299 1.366 . S
C1300 C1304 1.385 . S
C1301 H1276 0.951 . S
C1301 C1299 1.388 . S
C1301 C1302 1.366 . S
C1302 C1301 1.366 . S
C1302 C1303 1.414 . S
C1302 C1305 1.499 . S
C1303 H1277 0.950 . S
C1303 C1302 1.414 . S
C1303 C1304 1.374 . S
C1304 H1278 0.950 . S
C1304 C1300 1.385 . S
C1304 C1303 1.374 . S
C1305 C1302 1.499 . S
C1305 C1306 1.373 . S
C1305 C1307 1.389 . S
C1306 H1279 0.950 . S
C1306 C1292 1.377 . S
C1306 C1305 1.373 . S
C1307 C1291 1.377 . S
C1307 C1305 1.389 . S
C1307 C1308 1.524 . S
C1308 C1307 1.524 . S
C1308 C1309 1.397 . S
C1308 C1313 1.363 . S
C1309 H1280 0.950 . S
C1309 C1308 1.397 . S
C1309 C1310 1.334 . S
C1310 H1281 0.950 . S
C1310 C1309 1.334 . S
C1310 C1311 1.287 . S
C1311 C1310 1.287 . S
C1311 C1312 1.524 . S
C1311 H1314 0.999 . S
C1312 H1282 0.950 . S
C1312 C1311 1.524 . S
C1312 C1313 1.415 . S
C1313 H1283 0.950 . S
C1313 C1308 1.363 . S
C1313 C1312 1.415 . S
H1314 C1311 0.999 . S
H1315 C1296 0.913 . S
H1316 C1334 0.951 . S
H1317 C1336 0.951 . S
H1318 C1338 0.950 . S
H1319 C1339 0.950 . S
H1320 C1341 0.950 . S
H1321 C1344 0.950 . S
H1322 C1345 0.950 . S
H1323 C1347 0.953 . S
H1324 C1348 0.950 . S
H1325 C1349 0.951 . S
H1326 C1351 0.951 . S
H1327 C1353 0.950 . S
H1328 C1354 0.950 . S
H1329 C1356 0.950 . S
H1330 C1359 0.950 . S
H1331 C1360 0.950 . S
H1332 C1362 0.950 . S
H1333 C1363 0.950 . S
C1334 H1316 0.951 . S
C1334 C1335 1.366 . S
C1334 C1336 1.388 . S
C1335 C1334 1.366 . S
C1335 C1339 1.385 . S
C1336 H1317 0.951 . S
C1336 C1334 1.388 . S
C1336 C1337 1.366 . S
C1337 C1336 1.366 . S
C1337 C1338 1.414 . S
C1337 C1340 1.499 . S
C1338 H1318 0.950 . S
C1338 C1337 1.414 . S
C1338 C1339 1.374 . S
C1339 H1319 0.950 . S
C1339 C1335 1.385 . S
C1339 C1338 1.374 . S
C1340 C1337 1.499 . S
C1340 C1341 1.373 . S
C1340 C1342 1.389 . S
C1341 H1320 0.950 . S
C1341 C1340 1.373 . S
C1341 C1357 1.377 . S
C1342 C1340 1.389 . S
C1342 C1343 1.524 . S
C1342 C1356 1.377 . S
C1343 C1342 1.524 . S
C1343 C1344 1.397 . S
C1343 C1348 1.363 . S
C1344 H1321 0.950 . S
C1344 C1343 1.397 . S
C1344 C1345 1.334 . S
C1345 H1322 0.950 . S
C1345 C1344 1.334 . S
C1345 C1346 1.287 . S
C1346 C1345 1.287 . S
C1346 C1347 1.524 . S
C1346 H1365 0.913 . S
C1347 H1323 0.953 . S
C1347 C1346 1.524 . S
C1347 C1348 1.415 . S
C1348 H1324 0.950 . S
C1348 C1343 1.363 . S
C1348 C1347 1.415 . S
C1349 H1325 0.951 . S
C1349 C1350 1.366 . S
C1349 C1351 1.388 . S
C1350 C1349 1.366 . S
C1350 C1354 1.385 . S
C1351 H1326 0.951 . S
C1351 C1349 1.388 . S
C1351 C1352 1.366 . S
C1352 C1351 1.366 . S
C1352 C1353 1.414 . S
C1352 C1355 1.499 . S
C1353 H1327 0.950 . S
C1353 C1352 1.414 . S
C1353 C1354 1.374 . S
C1354 H1328 0.950 . S
C1354 C1350 1.385 . S
C1354 C1353 1.374 . S
C1355 C1352 1.499 . S
C1355 C1356 1.373 . S
C1355 C1357 1.389 . S
C1356 H1329 0.950 . S
C1356 C1342 1.377 . S
C1356 C1355 1.373 . S
C1357 C1341 1.377 . S
C1357 C1355 1.389 . S
C1357 C1358 1.524 . S
C1358 C1357 1.524 . S
C1358 C1359 1.397 . S
C1358 C1363 1.363 . S
C1359 H1330 0.950 . S
C1359 C1358 1.397 . S
C1359 C1360 1.334 . S
C1360 H1331 0.950 . S
C1360 C1359 1.334 . S
C1360 C1361 1.287 . S
C1361 C1360 1.287 . S
C1361 C1362 1.524 . S
C1361 H1364 0.999 . S
C1362 H1332 0.950 . S
C1362 C1361 1.524 . S
C1362 C1363 1.415 . S
C1363 H1333 0.950 . S
C1363 C1358 1.363 . S
C1363 C1362 1.415 . S
H1364 C1361 0.999 . S
H1365 C1346 0.913 . S
H1366 C1384 0.951 . S
H1367 C1386 0.951 . S
H1368 C1388 0.950 . S
H1369 C1389 0.950 . S
H1370 C1391 0.950 . S
H1371 C1394 0.950 . S
H1372 C1395 0.950 . S
H1373 C1397 0.950 . S
H1374 C1398 0.950 . S
H1375 C1399 0.951 . S
H1376 C1401 0.951 . S
H1377 C1403 0.950 . S
H1378 C1404 0.950 . S
H1379 C1406 0.950 . S
H1380 C1409 0.950 . S
H1381 C1410 0.950 . S
H1382 C1412 0.950 . S
H1383 C1413 0.950 . S
C1384 H1366 0.951 . S
C1384 C1385 1.366 . S
C1384 C1386 1.388 . S
C1385 C1384 1.366 . S
C1385 C1389 1.385 . S
C1386 H1367 0.951 . S
C1386 C1384 1.388 . S
C1386 C1387 1.366 . S
C1387 C1386 1.366 . S
C1387 C1388 1.414 . S
C1387 C1390 1.499 . S
C1388 H1368 0.950 . S
C1388 C1387 1.414 . S
C1388 C1389 1.374 . S
C1389 H1369 0.950 . S
C1389 C1385 1.385 . S
C1389 C1388 1.374 . S
C1390 C1387 1.499 . S
C1390 C1391 1.373 . S
C1390 C1392 1.389 . S
C1391 H1370 0.950 . S
C1391 C1390 1.373 . S
C1391 C1407 1.377 . S
C1392 C1390 1.389 . S
C1392 C1393 1.524 . S
C1392 C1406 1.377 . S
C1393 C1392 1.524 . S
C1393 C1394 1.397 . S
C1393 C1398 1.363 . S
C1394 H1371 0.950 . S
C1394 C1393 1.397 . S
C1394 C1395 1.334 . S
C1395 H1372 0.950 . S
C1395 C1394 1.334 . S
C1395 C1396 1.287 . S
C1396 C1395 1.287 . S
C1396 C1397 1.524 . S
C1396 H1415 0.913 . S
C1397 H1373 0.950 . S
C1397 C1396 1.524 . S
C1397 C1398 1.415 . S
C1398 H1374 0.950 . S
C1398 C1393 1.363 . S
C1398 C1397 1.415 . S
C1399 H1375 0.951 . S
C1399 C1400 1.366 . S
C1399 C1401 1.388 . S
C1400 C1399 1.366 . S
C1400 C1404 1.385 . S
C1401 H1376 0.951 . S
C1401 C1399 1.388 . S
C1401 C1402 1.366 . S
C1402 C1401 1.366 . S
C1402 C1403 1.414 . S
C1402 C1405 1.499 . S
C1403 H1377 0.950 . S
C1403 C1402 1.414 . S
C1403 C1404 1.374 . S
C1404 H1378 0.950 . S
C1404 C1400 1.385 . S
C1404 C1403 1.374 . S
C1405 C1402 1.499 . S
C1405 C1406 1.373 . S
C1405 C1407 1.389 . S
C1406 H1379 0.950 . S
C1406 C1392 1.377 . S
C1406 C1405 1.373 . S
C1407 C1391 1.377 . S
C1407 C1405 1.389 . S
C1407 C1408 1.524 . S
C1408 C1407 1.524 . S
C1408 C1409 1.397 . S
C1408 C1413 1.363 . S
C1409 H1380 0.950 . S
C1409 C1408 1.397 . S
C1409 C1410 1.334 . S
C1410 H1381 0.950 . S
C1410 C1409 1.334 . S
C1410 C1411 1.287 . S
C1411 C1410 1.287 . S
C1411 C1412 1.524 . S
C1411 H1414 0.999 . S
C1412 H1382 0.950 . S
C1412 C1411 1.524 . S
C1412 C1413 1.415 . S
C1413 H1383 0.950 . S
C1413 C1408 1.363 . S
C1413 C1412 1.415 . S
H1414 C1411 0.999 . S
H1415 C1396 0.913 . S
H1416 C1434 0.951 . S
H1417 C1436 0.951 . S
H1418 C1438 0.950 . S
H1419 C1439 0.950 . S
H1420 C1441 0.950 . S
H1421 C1444 0.950 . S
H1422 C1445 0.950 . S
H1423 C1447 0.950 . S
H1424 C1448 0.950 . S
H1425 C1449 0.951 1_455 S
H1426 C1451 0.971 . S
H1427 C1453 0.950 . S
H1428 C1454 0.950 . S
H1429 C1456 0.950 . S
H1430 C1459 0.950 . S
H1431 C1460 0.950 . S
H1432 C1462 0.950 . S
H1433 C1463 0.950 . S
C1434 H1416 0.951 . S
C1434 C1435 1.366 . S
C1434 C1436 1.388 . S
C1435 C1434 1.366 . S
C1435 C1439 1.385 . S
C1436 H1417 0.951 . S
C1436 C1434 1.388 . S
C1436 C1437 1.366 . S
C1437 C1436 1.366 . S
C1437 C1438 1.414 . S
C1437 C1440 1.499 . S
C1438 H1418 0.950 . S
C1438 C1437 1.414 . S
C1438 C1439 1.374 . S
C1439 H1419 0.950 . S
C1439 C1435 1.385 . S
C1439 C1438 1.374 . S
C1440 C1437 1.499 . S
C1440 C1441 1.373 . S
C1440 C1442 1.389 . S
C1441 H1420 0.950 . S
C1441 C1440 1.373 . S
C1441 C1457 1.377 . S
C1442 C1440 1.389 . S
C1442 C1443 1.524 . S
C1442 C1456 1.377 . S
C1443 C1442 1.524 . S
C1443 C1444 1.397 1_655 S
C1443 C1448 1.363 . S
C1444 H1421 0.950 . S
C1444 C1443 1.397 1_455 S
C1444 C1445 1.334 . S
C1445 H1422 0.950 . S
C1445 C1444 1.334 . S
C1445 C1446 1.287 . S
C1446 C1445 1.287 . S
C1446 C1447 1.524 1_455 S
C1446 H1465 0.913 . S
C1447 H1423 0.950 . S
C1447 C1446 1.524 1_655 S
C1447 C1448 1.415 . S
C1448 H1424 0.950 . S
C1448 C1443 1.363 . S
C1448 C1447 1.415 . S
C1449 H1425 0.951 1_655 S
C1449 C1450 1.366 . S
C1449 C1451 1.388 . S
C1450 C1449 1.366 . S
C1450 C1454 1.385 . S
C1451 H1426 0.971 . S
C1451 C1449 1.388 . S
C1451 C1452 1.366 . S
C1452 C1451 1.366 . S
C1452 C1453 1.414 . S
C1452 C1455 1.499 . S
C1453 H1427 0.950 . S
C1453 C1452 1.414 . S
C1453 C1454 1.374 . S
C1454 H1428 0.950 . S
C1454 C1450 1.385 . S
C1454 C1453 1.374 . S
C1455 C1452 1.499 . S
C1455 C1456 1.373 . S
C1455 C1457 1.389 . S
C1456 H1429 0.950 . S
C1456 C1442 1.377 . S
C1456 C1455 1.373 . S
C1457 C1441 1.377 . S
C1457 C1455 1.389 . S
C1457 C1458 1.524 . S
C1458 C1457 1.524 . S
C1458 C1459 1.397 . S
C1458 C1463 1.363 . S
C1459 H1430 0.950 . S
C1459 C1458 1.397 . S
C1459 C1460 1.334 . S
C1460 H1431 0.950 . S
C1460 C1459 1.334 . S
C1460 C1461 1.287 . S
C1461 C1460 1.287 . S
C1461 C1462 1.524 . S
C1461 H1464 0.999 . S
C1462 H1432 0.950 . S
C1462 C1461 1.524 . S
C1462 C1463 1.415 . S
C1463 H1433 0.950 . S
C1463 C1458 1.363 . S
C1463 C1462 1.415 . S
H1464 C1461 0.999 . S
H1465 C1446 0.913 . S
H1466 C1484 0.951 . S
H1467 C1486 0.951 . S
H1468 C1488 0.950 . S
H1469 C1489 0.950 . S
H1470 C1491 0.950 . S
H1471 C1494 0.950 . S
H1472 C1495 0.950 . S
H1473 C1497 0.950 . S
H1474 C1498 0.950 . S
H1475 C1499 0.951 1_545 S
H1476 C1501 0.951 . S
H1477 C1503 0.950 . S
H1478 C1504 0.950 . S
H1479 C1506 0.950 . S
H1480 C1509 0.950 . S
H1481 C1510 0.950 . S
H1482 C1512 0.950 . S
H1483 C1513 0.950 . S
C1484 H1466 0.951 . S
C1484 C1485 1.366 . S
C1484 C1486 1.388 . S
C1485 C1484 1.366 . S
C1485 C1489 1.385 . S
C1486 H1467 0.951 . S
C1486 C1484 1.388 . S
C1486 C1487 1.366 . S
C1487 C1486 1.366 . S
C1487 C1488 1.414 . S
C1487 C1490 1.499 . S
C1488 H1468 0.950 . S
C1488 C1487 1.414 . S
C1488 C1489 1.374 . S
C1489 H1469 0.950 . S
C1489 C1485 1.385 . S
C1489 C1488 1.374 . S
C1490 C1487 1.499 . S
C1490 C1491 1.373 . S
C1490 C1492 1.389 . S
C1491 H1470 0.950 . S
C1491 C1490 1.373 . S
C1491 C1507 1.377 . S
C1492 C1490 1.389 . S
C1492 C1493 1.524 . S
C1492 C1506 1.377 . S
C1493 C1492 1.524 . S
C1493 C1494 1.397 . S
C1493 C1498 1.363 . S
C1494 H1471 0.950 . S
C1494 C1493 1.397 . S
C1494 C1495 1.334 . S
C1495 H1472 0.950 . S
C1495 C1494 1.334 . S
C1495 C1496 1.287 . S
C1496 C1495 1.287 . S
C1496 C1497 1.524 . S
C1496 H1515 0.913 . S
C1497 H1473 0.950 . S
C1497 C1496 1.524 . S
C1497 C1498 1.415 . S
C1498 H1474 0.950 . S
C1498 C1493 1.363 . S
C1498 C1497 1.415 . S
C1499 H1475 0.951 1_565 S
C1499 C1500 1.366 . S
C1499 C1501 1.388 . S
C1500 C1499 1.366 . S
C1500 C1504 1.385 . S
C1501 H1476 0.951 . S
C1501 C1499 1.388 . S
C1501 C1502 1.366 . S
C1502 C1501 1.366 . S
C1502 C1503 1.414 . S
C1502 C1505 1.499 . S
C1503 H1477 0.950 . S
C1503 C1502 1.414 . S
C1503 C1504 1.374 . S
C1504 H1478 0.950 . S
C1504 C1500 1.385 . S
C1504 C1503 1.374 . S
C1505 C1502 1.499 . S
C1505 C1506 1.373 . S
C1505 C1507 1.389 . S
C1506 H1479 0.950 . S
C1506 C1492 1.377 . S
C1506 C1505 1.373 . S
C1507 C1491 1.377 . S
C1507 C1505 1.389 . S
C1507 C1508 1.524 . S
C1508 C1507 1.524 . S
C1508 C1509 1.397 . S
C1508 C1513 1.363 . S
C1509 H1480 0.950 . S
C1509 C1508 1.397 . S
C1509 C1510 1.334 . S
C1510 H1481 0.950 . S
C1510 C1509 1.334 . S
C1510 C1511 1.287 . S
C1511 C1510 1.287 . S
C1511 C1512 1.524 . S
C1511 H1514 0.999 . S
C1512 H1482 0.950 . S
C1512 C1511 1.524 . S
C1512 C1513 1.415 . S
C1513 H1483 0.950 . S
C1513 C1508 1.363 . S
C1513 C1512 1.415 . S
H1514 C1511 0.999 . S
H1515 C1496 0.913 . S
H1516 C1534 0.951 . S
H1517 C1536 0.951 . S
H1518 C1538 0.950 . S
H1519 C1539 0.950 . S
H1520 C1541 0.950 . S
H1521 C1544 0.950 . S
H1522 C1545 0.950 . S
H1523 C1547 0.950 . S
H1524 C1548 0.950 . S
H1525 C1549 0.951 . S
H1526 C1551 0.951 . S
H1527 C1553 0.950 . S
H1528 C1554 0.950 . S
H1529 C1556 0.950 . S
H1530 C1559 0.950 . S
H1531 C1560 0.950 . S
H1532 C1562 0.950 . S
H1533 C1563 0.950 . S
C1534 H1516 0.951 . S
C1534 C1535 1.366 . S
C1534 C1536 1.388 . S
C1535 C1534 1.366 . S
C1535 C1539 1.385 . S
C1536 H1517 0.951 . S
C1536 C1534 1.388 . S
C1536 C1537 1.366 . S
C1537 C1536 1.366 . S
C1537 C1538 1.414 . S
C1537 C1540 1.499 . S
C1538 H1518 0.950 . S
C1538 C1537 1.414 . S
C1538 C1539 1.374 . S
C1539 H1519 0.950 . S
C1539 C1535 1.385 . S
C1539 C1538 1.374 . S
C1540 C1537 1.499 . S
C1540 C1541 1.373 . S
C1540 C1542 1.389 . S
C1541 H1520 0.950 . S
C1541 C1540 1.373 . S
C1541 C1557 1.377 . S
C1542 C1540 1.389 . S
C1542 C1543 1.524 . S
C1542 C1556 1.377 . S
C1543 C1542 1.524 . S
C1543 C1544 1.397 . S
C1543 C1548 1.363 . S
C1544 H1521 0.950 . S
C1544 C1543 1.397 . S
C1544 C1545 1.334 . S
C1545 H1522 0.950 . S
C1545 C1544 1.334 . S
C1545 C1546 1.287 . S
C1546 C1545 1.287 . S
C1546 C1547 1.524 . S
C1546 H1565 0.913 . S
C1547 H1523 0.950 . S
C1547 C1546 1.524 . S
C1547 C1548 1.415 . S
C1548 H1524 0.950 . S
C1548 C1543 1.363 . S
C1548 C1547 1.415 . S
C1549 H1525 0.951 . S
C1549 C1550 1.366 . S
C1549 C1551 1.388 . S
C1550 C1549 1.366 . S
C1550 C1554 1.385 . S
C1551 H1526 0.951 . S
C1551 C1549 1.388 . S
C1551 C1552 1.366 . S
C1552 C1551 1.366 . S
C1552 C1553 1.414 . S
C1552 C1555 1.499 . S
C1553 H1527 0.950 . S
C1553 C1552 1.414 . S
C1553 C1554 1.374 . S
C1554 H1528 0.950 . S
C1554 C1550 1.385 . S
C1554 C1553 1.374 . S
C1555 C1552 1.499 . S
C1555 C1556 1.373 . S
C1555 C1557 1.389 . S
C1556 H1529 0.950 . S
C1556 C1542 1.377 . S
C1556 C1555 1.373 . S
C1557 C1541 1.377 . S
C1557 C1555 1.389 . S
C1557 C1558 1.524 . S
C1558 C1557 1.524 . S
C1558 C1559 1.397 . S
C1558 C1563 1.363 . S
C1559 H1530 0.950 . S
C1559 C1558 1.397 . S
C1559 C1560 1.334 . S
C1560 H1531 0.950 . S
C1560 C1559 1.334 . S
C1560 C1561 1.287 . S
C1561 C1560 1.287 . S
C1561 C1562 1.524 . S
C1561 H1564 0.999 . S
C1562 H1532 0.950 . S
C1562 C1561 1.524 . S
C1562 C1563 1.415 . S
C1563 H1533 0.950 . S
C1563 C1558 1.363 . S
C1563 C1562 1.415 . S
H1564 C1561 0.999 . S
H1565 C1546 0.913 . S
H1566 C1584 0.951 . S
H1567 C1586 0.951 . S
H1568 C1588 0.950 . S
H1569 C1589 0.950 . S
H1570 C1591 0.950 . S
H1571 C1594 0.950 . S
H1572 C1595 0.950 . S
H1573 C1597 0.950 . S
H1574 C1598 0.950 . S
H1575 C1599 0.951 . S
H1576 C1601 0.951 . S
H1577 C1603 0.950 . S
H1578 C1604 0.950 . S
H1579 C1606 0.950 . S
H1580 C1609 0.950 . S
H1581 C1610 0.950 . S
H1582 C1612 0.950 . S
H1583 C1613 0.950 . S
C1584 H1566 0.951 . S
C1584 C1585 1.366 . S
C1584 C1586 1.388 . S
C1585 C1584 1.366 . S
C1585 C1589 1.385 . S
C1586 H1567 0.951 . S
C1586 C1584 1.388 . S
C1586 C1587 1.366 . S
C1587 C1586 1.366 . S
C1587 C1588 1.414 . S
C1587 C1590 1.499 . S
C1588 H1568 0.950 . S
C1588 C1587 1.414 . S
C1588 C1589 1.374 . S
C1589 H1569 0.950 . S
C1589 C1585 1.385 . S
C1589 C1588 1.374 . S
C1590 C1587 1.499 . S
C1590 C1591 1.373 . S
C1590 C1592 1.389 . S
C1591 H1570 0.950 . S
C1591 C1590 1.373 . S
C1591 C1607 1.377 . S
C1592 C1590 1.389 . S
C1592 C1593 1.524 . S
C1592 C1606 1.377 . S
C1593 C1592 1.524 . S
C1593 C1594 1.397 . S
C1593 C1598 1.363 . S
C1594 H1571 0.950 . S
C1594 C1593 1.397 . S
C1594 C1595 1.334 . S
C1595 H1572 0.950 . S
C1595 C1594 1.334 . S
C1595 C1596 1.287 . S
C1596 C1595 1.287 . S
C1596 C1597 1.524 . S
C1596 H1615 0.913 . S
C1597 H1573 0.950 . S
C1597 C1596 1.524 . S
C1597 C1598 1.415 . S
C1598 H1574 0.950 . S
C1598 C1593 1.363 . S
C1598 C1597 1.415 . S
C1599 H1575 0.951 . S
C1599 C1600 1.366 . S
C1599 C1601 1.388 . S
C1600 C1599 1.366 . S
C1600 C1604 1.385 . S
C1601 H1576 0.951 . S
C1601 C1599 1.388 . S
C1601 C1602 1.366 . S
C1602 C1601 1.366 . S
C1602 C1603 1.414 . S
C1602 C1605 1.499 . S
C1603 H1577 0.950 . S
C1603 C1602 1.414 . S
C1603 C1604 1.374 . S
C1604 H1578 0.950 . S
C1604 C1600 1.385 . S
C1604 C1603 1.374 . S
C1605 C1602 1.499 . S
C1605 C1606 1.373 . S
C1605 C1607 1.389 . S
C1606 H1579 0.950 . S
C1606 C1592 1.377 . S
C1606 C1605 1.373 . S
C1607 C1591 1.377 . S
C1607 C1605 1.389 . S
C1607 C1608 1.524 . S
C1608 C1607 1.524 . S
C1608 C1609 1.397 . S
C1608 C1613 1.363 . S
C1609 H1580 0.950 . S
C1609 C1608 1.397 . S
C1609 C1610 1.334 . S
C1610 H1581 0.950 . S
C1610 C1609 1.334 . S
C1610 C1611 1.287 . S
C1611 C1610 1.287 . S
C1611 C1612 1.524 . S
C1611 H1614 0.999 . S
C1612 H1582 0.950 . S
C1612 C1611 1.524 . S
C1612 C1613 1.415 . S
C1613 H1583 0.950 . S
C1613 C1608 1.363 . S
C1613 C1612 1.415 . S
H1614 C1611 0.999 . S
H1615 C1596 0.913 . S
C435 C215 2.429 . S
C450 C287 2.531 . S
C500 C313 1.830 . S
C485 C247 1.674 . S
C550 C353 1.955 . S
C535 C151 1.881 . S
C600 C407 2.518 . S
C585 C183 2.429 . S
C650 C268 2.531 . S
C635 C87 2.340 . S
C685 C119 1.742 . S
C700 C298 1.829 . S
C735 C23 1.797 . S
C750 C338 1.955 . S
C785 C55 2.361 . S
C800 C388 2.518 1_655 S
C850 C264 0.237 . S
C835 C189 0.138 . S
C900 C325 0.488 . S
C885 C221 0.449 . S
C950 C365 0.309 . S
C935 C253 0.369 . S
C985 C157 0.268 . S
C1000 C384 0.316 . S
C1035 C61 0.570 . S
C1050 C285 0.226 . S
C1100 C304 0.488 . S
C1085 C93 0.579 . S
C1150 C344 0.313 . S
C1135 C125 0.326 . S
C1185 C29 0.705 . S
C1200 C405 0.316 . S
C1235 C177 2.052 . S
C1250 C258 2.231 . S
C1285 C209 2.803 . S
C1300 C308 2.992 . S
C1350 C348 2.694 . S
C1335 C241 2.453 . S
C1400 C378 1.990 . S
C1385 C145 1.856 . S
C1435 C49 1.997 . S
C1450 C273 2.232 . S
C1500 C327 2.991 . S
C1485 C81 2.732 . S
C1550 C367 2.693 . S
C1535 C113 2.536 . S
C1585 C17 1.779 . S
C1600 C393 1.990 . S
