# Generated by pormake.
# Topology eea, (3,6)-cn, num edge types: 1
# Building blocks:
#     Node 0, Type 0, BuildingBlock: CUQRIR_clean_linker_1, # of connection points: 3
#     Node 1, Type 0, BuildingBlock: CUQRIR_clean_linker_1, # of connection points: 3
#     Node 2, Type 0, BuildingBlock: CUQRIR_clean_linker_1, # of connection points: 3
#     Node 3, Type 0, BuildingBlock: CUQRIR_clean_linker_1, # of connection points: 3
#     Node 4, Type 0, BuildingBlock: CUQRIR_clean_linker_1, # of connection points: 3
#     Node 5, Type 0, BuildingBlock: CUQRIR_clean_linker_1, # of connection points: 3
#     Node 6, Type 0, BuildingBlock: CUQRIR_clean_linker_1, # of connection points: 3
#     Node 7, Type 0, BuildingBlock: CUQRIR_clean_linker_1, # of connection points: 3
#     Node 8, Type 0, BuildingBlock: CUQRIR_clean_linker_1, # of connection points: 3
#     Node 9, Type 0, BuildingBlock: CUQRIR_clean_linker_1, # of connection points: 3
#     Node 10, Type 0, BuildingBlock: CUQRIR_clean_linker_1, # of connection points: 3
#     Node 11, Type 0, BuildingBlock: CUQRIR_clean_linker_1, # of connection points: 3
#     Node 12, Type 0, BuildingBlock: CUQRIR_clean_linker_1, # of connection points: 3
#     Node 13, Type 0, BuildingBlock: CUQRIR_clean_linker_1, # of connection points: 3
#     Node 14, Type 0, BuildingBlock: CUQRIR_clean_linker_1, # of connection points: 3
#     Node 15, Type 0, BuildingBlock: CUQRIR_clean_linker_1, # of connection points: 3
#     Node 16, Type 0, BuildingBlock: CUQRIR_clean_linker_1, # of connection points: 3
#     Node 17, Type 0, BuildingBlock: CUQRIR_clean_linker_1, # of connection points: 3
#     Node 18, Type 1, BuildingBlock: LEVNOQ01_clean_sbu_1, # of connection points: 6
#     Node 19, Type 1, BuildingBlock: LEVNOQ01_clean_sbu_1, # of connection points: 6
#     Node 20, Type 1, BuildingBlock: LEVNOQ01_clean_sbu_1, # of connection points: 6
#     Node 21, Type 1, BuildingBlock: LEVNOQ01_clean_sbu_1, # of connection points: 6
#     Node 22, Type 1, BuildingBlock: LEVNOQ01_clean_sbu_1, # of connection points: 6
#     Node 23, Type 1, BuildingBlock: LEVNOQ01_clean_sbu_1, # of connection points: 6
#     Node 24, Type 1, BuildingBlock: LEVNOQ01_clean_sbu_1, # of connection points: 6
#     Node 25, Type 1, BuildingBlock: LEVNOQ01_clean_sbu_1, # of connection points: 6
#     Node 26, Type 1, BuildingBlock: LEVNOQ01_clean_sbu_1, # of connection points: 6
#     Edge 27, Type (0, 1), None
#     Edge 28, Type (0, 1), None
#     Edge 29, Type (0, 1), None
#     Edge 30, Type (0, 1), None
#     Edge 31, Type (0, 1), None
#     Edge 32, Type (0, 1), None
#     Edge 33, Type (0, 1), None
#     Edge 34, Type (0, 1), None
#     Edge 35, Type (0, 1), None
#     Edge 36, Type (0, 1), None
#     Edge 37, Type (0, 1), None
#     Edge 38, Type (0, 1), None
#     Edge 39, Type (0, 1), None
#     Edge 40, Type (0, 1), None
#     Edge 41, Type (0, 1), None
#     Edge 42, Type (0, 1), None
#     Edge 43, Type (0, 1), None
#     Edge 44, Type (0, 1), None
#     Edge 45, Type (0, 1), None
#     Edge 46, Type (0, 1), None
#     Edge 47, Type (0, 1), None
#     Edge 48, Type (0, 1), None
#     Edge 49, Type (0, 1), None
#     Edge 50, Type (0, 1), None
#     Edge 51, Type (0, 1), None
#     Edge 52, Type (0, 1), None
#     Edge 53, Type (0, 1), None
#     Edge 54, Type (0, 1), None
#     Edge 55, Type (0, 1), None
#     Edge 56, Type (0, 1), None
#     Edge 57, Type (0, 1), None
#     Edge 58, Type (0, 1), None
#     Edge 59, Type (0, 1), None
#     Edge 60, Type (0, 1), None
#     Edge 61, Type (0, 1), None
#     Edge 62, Type (0, 1), None
#     Edge 63, Type (0, 1), None
#     Edge 64, Type (0, 1), None
#     Edge 65, Type (0, 1), None
#     Edge 66, Type (0, 1), None
#     Edge 67, Type (0, 1), None
#     Edge 68, Type (0, 1), None
#     Edge 69, Type (0, 1), None
#     Edge 70, Type (0, 1), None
#     Edge 71, Type (0, 1), None
#     Edge 72, Type (0, 1), None
#     Edge 73, Type (0, 1), None
#     Edge 74, Type (0, 1), None
#     Edge 75, Type (0, 1), None
#     Edge 76, Type (0, 1), None
#     Edge 77, Type (0, 1), None
#     Edge 78, Type (0, 1), None
#     Edge 79, Type (0, 1), None
#     Edge 80, Type (0, 1), None
# Relax obj value: 0.119
# Max RMSD: 0.163
# Mean RMSD: 0.137
data_MOF--net-eea--node1-LEVNOQ01_clean_sbu_1--node2-CUQRIR_clean_linker_1--edge1-none
_symmetry_space_group_name_H-M    P1
_symmetry_Int_Tables_number       1
_symmetry_cell_setting            triclinic
loop_
_symmetry_equiv_pos_as_xyz
'x, y, z'
_cell_length_a     21.823186
_cell_length_b     21.582104
_cell_length_c     16.789086
_cell_angle_alpha  79.415202
_cell_angle_beta   90.873686
_cell_angle_gamma 121.94073
loop_
_atom_site_label
_atom_site_type_symbol
_atom_site_fract_x
_atom_site_fract_y
_atom_site_fract_z
_atom_type_partial_charge
C0 C 0.17014 0.09294 0.34804 0.0
N1 N 0.18934 0.148 0.38923 0.0
N2 N 0.20181 0.0544 0.37353 0.0
C3 C 0.12249 0.07827 0.27893 0.0
C4 C 0.24438 0.0906 0.43014 0.0
N5 N 0.23479 0.14562 0.44208 0.0
C6 C 0.31296 0.0914 0.44875 0.0
H7 H 0.09472 0.01881 0.27423 0.0
H8 H 0.15665 0.11331 0.2209 0.0
H9 H 0.08132 0.09238 0.28785 0.0
H10 H 0.35876 0.13935 0.40641 0.0
H11 H 0.30896 0.03987 0.43949 0.0
H12 H 0.32721 0.09929 0.51095 0.0
C13 C 0.89348 0.13944 0.32454 0.0
N14 N 0.9182 0.18283 0.38098 0.0
N15 N 0.82356 0.08295 0.34536 0.0
C16 C 0.93794 0.14957 0.24963 0.0
C17 C 0.80472 0.0948 0.41538 0.0
N18 N 0.86183 0.15583 0.43728 0.0
C19 C 0.72671 0.06172 0.44623 0.0
H20 H 0.9602 0.20616 0.21158 0.0
H21 H 0.9056 0.10737 0.21254 0.0
H22 H -0.01588 0.14399 0.26818 0.0
H23 H 0.69138 0.00499 0.43408 0.0
H24 H 0.7079 0.09737 0.41373 0.0
H25 H 0.71975 0.05877 0.51194 0.0
C26 C 0.89101 0.81511 0.31951 0.0
N27 N 0.90934 0.78701 0.38757 0.0
N28 N 0.85385 0.84622 0.3374 0.0
C29 C 0.89866 0.80142 0.23683 0.0
C30 C 0.8635 0.84723 0.41724 0.0
N31 N 0.88574 0.80172 0.44962 0.0
C32 C 0.87098 0.9083 0.45578 0.0
H33 H 0.95702 0.8329 0.21434 0.0
H34 H 0.86976 0.81948 0.19295 0.0
H35 H 0.87698 0.74122 0.24122 0.0
H36 H 0.86093 0.89128 0.52283 0.0
H37 H 0.83508 0.92744 0.43098 0.0
H38 H 0.92765 0.95687 0.44103 0.0
C39 C 0.08831 0.21548 0.74531 0.0
N40 N 0.1412 0.23538 0.6877 0.0
N41 N 0.02233 0.18179 0.71618 0.0
C42 C 0.10195 0.24029 0.82507 0.0
C43 C 0.03949 0.17313 0.64306 0.0
N44 N 0.11163 0.21501 0.62049 0.0
C45 C -0.01673 0.12977 0.5892 0.0
H46 H 0.14117 0.22838 0.85558 0.0
H47 H 0.05054 0.21195 0.86522 0.0
H48 H 0.1265 0.30155 0.81354 0.0
H49 H 0.95755 0.16039 0.56443 0.0
H50 H 0.93992 0.0754 0.62615 0.0
H51 H 0.0072 0.12003 0.5387 0.0
C52 C 0.7924 0.91525 0.71801 0.0
N53 N 0.77793 0.86548 0.67043 0.0
N54 N 0.75744 0.9511 0.69838 0.0
C55 C 0.84009 0.92828 0.78713 0.0
C56 C 0.71926 0.92108 0.6367 0.0
N57 N 0.73397 0.87153 0.61665 0.0
C58 C 0.65 0.91941 0.61894 0.0
H59 H 0.80608 0.89217 0.84493 0.0
H60 H 0.86735 0.98726 0.7936 0.0
H61 H 0.88172 0.91512 0.77668 0.0
H62 H 0.65174 0.96806 0.63459 0.0
H63 H 0.60381 0.86801 0.65705 0.0
H64 H 0.63781 0.91822 0.55516 0.0
C65 C 0.0853 0.88313 0.74124 0.0
N66 N 0.05702 0.83166 0.69308 0.0
N67 N 0.1545 0.93976 0.71228 0.0
C68 C 0.0455 0.87907 0.81638 0.0
C69 C 0.16889 0.91765 0.64783 0.0
N70 N 0.11038 0.85287 0.63594 0.0
C71 C 0.24465 0.94642 0.61296 0.0
H72 H -0.0002 0.88575 0.79861 0.0
H73 H 0.08149 0.92335 0.84964 0.0
H74 H 0.02244 0.82355 0.85736 0.0
H75 H 0.26353 0.91149 0.64727 0.0
H76 H 0.28264 0.00462 0.6192 0.0
H77 H 0.24589 0.94223 0.54846 0.0
C78 C 0.8368 0.42628 0.68137 0.0
N79 N 0.856 0.48133 0.72256 0.0
N80 N 0.86847 0.38773 0.70686 0.0
C81 C 0.78916 0.41161 0.61226 0.0
C82 C 0.91104 0.42393 0.76347 0.0
N83 N 0.90146 0.47895 0.77542 0.0
C84 C 0.97962 0.42472 0.7821 0.0
H85 H 0.76139 0.35215 0.60755 0.0
H86 H 0.82333 0.44665 0.55423 0.0
H87 H 0.74799 0.42572 0.62117 0.0
H88 H 0.02541 0.47267 0.73976 0.0
H89 H 0.97561 0.37319 0.77283 0.0
H90 H -0.00614 0.4326 0.8443 0.0
C91 C 0.56015 0.47278 0.65787 0.0
N92 N 0.58487 0.51617 0.71432 0.0
N93 N 0.49023 0.41628 0.67869 0.0
C94 C 0.6046 0.4829 0.58297 0.0
C95 C 0.47139 0.42814 0.74871 0.0
N96 N 0.52849 0.48916 0.77061 0.0
C97 C 0.39338 0.39505 0.77957 0.0
H98 H 0.62686 0.53949 0.54492 0.0
H99 H 0.57227 0.4407 0.54587 0.0
H100 H 0.65079 0.47733 0.60151 0.0
H101 H 0.35805 0.33833 0.76741 0.0
H102 H 0.37456 0.43071 0.74706 0.0
H103 H 0.38642 0.3921 0.84528 0.0
C104 C 0.55768 0.14844 0.65284 0.0
N105 N 0.57601 0.12034 0.72091 0.0
N106 N 0.52051 0.17955 0.67073 0.0
C107 C 0.56532 0.13475 0.57016 0.0
C108 C 0.53017 0.18056 0.75057 0.0
N109 N 0.5524 0.13505 0.78296 0.0
C110 C 0.53765 0.24164 0.78911 0.0
H111 H 0.62368 0.16623 0.54767 0.0
H112 H 0.53643 0.15281 0.52628 0.0
H113 H 0.54365 0.07455 0.57456 0.0
H114 H 0.5276 0.22462 0.85616 0.0
H115 H 0.50175 0.26078 0.76431 0.0
H116 H 0.59432 0.2902 0.77436 0.0
C117 C 0.75498 0.54881 0.07865 0.0
N118 N 0.80787 0.56872 0.02104 0.0
N119 N 0.689 0.51512 0.04952 0.0
C120 C 0.76862 0.57362 0.15841 0.0
C121 C 0.70615 0.50646 0.97639 0.0
N122 N 0.7783 0.54834 0.95382 0.0
C123 C 0.64994 0.4631 0.92253 0.0
H124 H 0.80784 0.5617 0.18891 0.0
H125 H 0.7172 0.54528 0.19856 0.0
H126 H 0.79317 0.63488 0.14687 0.0
H127 H 0.62422 0.49372 0.89777 0.0
H128 H 0.60659 0.40874 0.95948 0.0
H129 H 0.67387 0.45336 0.87203 0.0
C130 C 0.45906 0.24858 0.05135 0.0
N131 N 0.44459 0.19881 1.00376 0.0
N132 N 0.42411 0.28444 0.03171 0.0
C133 C 0.50676 0.26161 0.12046 0.0
C134 C 0.38593 0.25442 0.97003 0.0
N135 N 0.40063 0.20486 0.94998 0.0
C136 C 0.31666 0.25275 0.95227 0.0
H137 H 0.47275 0.22551 0.17826 0.0
H138 H 0.53401 0.32059 0.12694 0.0
H139 H 0.54838 0.24845 0.11001 0.0
H140 H 0.3184 0.30139 0.96792 0.0
H141 H 0.27047 0.20134 0.99039 0.0
H142 H 0.30448 0.25155 0.88849 0.0
C143 C 0.75196 0.21647 0.07458 0.0
N144 N 0.72368 0.16499 0.02641 0.0
N145 N 0.82117 0.27309 0.04562 0.0
C146 C 0.71216 0.2124 0.14971 0.0
C147 C 0.83556 0.25097 0.98117 0.0
N148 N 0.77705 0.1862 0.96928 0.0
C149 C 0.91132 0.27974 0.94631 0.0
H150 H 0.66646 0.21909 0.13193 0.0
H151 H 0.74815 0.25669 0.18297 0.0
H152 H 0.6891 0.15689 0.19069 0.0
H153 H 0.93019 0.2448 0.98062 0.0
H154 H 0.94932 0.33794 0.95255 0.0
H155 H 0.91256 0.27555 0.88181 0.0
C156 C 0.50347 0.75961 0.0147 0.0
N157 N 0.52267 0.81467 0.05589 0.0
N158 N 0.53514 0.72106 0.0402 0.0
C159 C 0.45583 0.74494 0.94559 0.0
C160 C 0.57771 0.75726 0.09681 0.0
N161 N 0.56812 0.81229 0.10875 0.0
C162 C 0.64628 0.75805 0.11544 0.0
H163 H 0.42806 0.68548 0.94088 0.0
H164 H 0.49 0.77998 0.88756 0.0
H165 H 0.41466 0.75905 0.95451 0.0
H166 H 0.69208 0.806 0.0731 0.0
H167 H 0.64228 0.70653 0.10616 0.0
H168 H 0.66052 0.76594 0.17764 0.0
C169 C 0.22682 0.80611 0.9912 0.0
N170 N 0.25153 0.8495 0.04765 0.0
N171 N 0.1569 0.74961 0.01202 0.0
C172 C 0.27127 0.81624 0.9163 0.0
C173 C 0.13806 0.76147 0.08204 0.0
N174 N 0.19516 0.8225 0.10394 0.0
C175 C 0.06005 0.72838 0.1129 0.0
H176 H 0.29353 0.87282 0.87825 0.0
H177 H 0.23894 0.77404 0.8792 0.0
H178 H 0.31745 0.81066 0.93485 0.0
H179 H 0.02471 0.67166 0.10074 0.0
H180 H 0.04123 0.76404 0.08039 0.0
H181 H 0.05308 0.72544 0.17861 0.0
C182 C 0.22434 0.48177 0.98618 0.0
N183 N 0.24267 0.45367 0.05424 0.0
N184 N 0.18718 0.51288 1.00407 0.0
C185 C 0.23199 0.46809 0.90349 0.0
C186 C 0.19684 0.51389 0.08391 0.0
N187 N 0.21907 0.46839 0.11629 0.0
C188 C 0.20432 0.57497 0.12245 0.0
H189 H 0.29035 0.49956 0.88101 0.0
H190 H 0.20309 0.48615 0.85961 0.0
H191 H 0.21031 0.40789 0.90789 0.0
H192 H 0.19426 0.55795 0.18949 0.0
H193 H 0.16841 0.59411 0.09765 0.0
H194 H 0.26098 0.62353 0.10769 0.0
C195 C 0.42164 0.88215 0.41198 0.0
N196 N 0.47454 0.90205 0.35437 0.0
N197 N 0.35566 0.84845 0.38285 0.0
C198 C 0.43528 0.90696 0.49174 0.0
C199 C 0.37282 0.8398 0.30972 0.0
N200 N 0.44497 0.88167 0.28716 0.0
C201 C 0.3166 0.79643 0.25586 0.0
H202 H 0.4745 0.89504 0.52225 0.0
H203 H 0.38387 0.87861 0.53189 0.0
H204 H 0.45983 0.96822 0.4802 0.0
H205 H 0.29089 0.82705 0.2311 0.0
H206 H 0.27325 0.74207 0.29282 0.0
H207 H 0.34053 0.7867 0.20537 0.0
C208 C 0.12573 0.58191 0.38468 0.0
N209 N 0.11126 0.53214 0.3371 0.0
N210 N 0.09078 0.61777 0.36505 0.0
C211 C 0.17342 0.59495 0.4538 0.0
C212 C 0.0526 0.58775 0.30336 0.0
N213 N 0.0673 0.5382 0.28332 0.0
C214 C -0.01667 0.58608 0.28561 0.0
H215 H 0.13941 0.55884 0.5116 0.0
H216 H 0.20068 0.65392 0.46027 0.0
H217 H 0.21505 0.58178 0.44335 0.0
H218 H -0.01493 0.63473 0.30125 0.0
H219 H 0.93714 0.53468 0.32372 0.0
H220 H 0.97115 0.58488 0.22183 0.0
C221 C 0.41863 0.5498 0.40791 0.0
N222 N 0.39035 0.49833 0.35975 0.0
N223 N 0.48783 0.60642 0.37895 0.0
C224 C 0.37883 0.54574 0.48304 0.0
C225 C 0.50223 0.5843 0.3145 0.0
N226 N 0.44372 0.51953 0.30262 0.0
C227 C 0.57799 0.61307 0.27964 0.0
H228 H 0.33313 0.55242 0.46527 0.0
H229 H 0.41482 0.59003 0.51631 0.0
H230 H 0.35577 0.49022 0.52402 0.0
H231 H 0.59686 0.57813 0.31395 0.0
H232 H 0.61598 0.67127 0.28588 0.0
H233 H 0.57923 0.60889 0.21514 0.0
O234 O 0.49813 0.01699 0.8593 0.0
Mg235 Mg 0.52163 0.98981 0.97722 0.0
O236 O 0.51735 0.10495 0.92069 0.0
Mg237 Mg 0.4866 0.00845 0.0358 0.0
O238 O 0.49926 0.9037 0.07773 0.0
O239 O 0.52702 0.90217 0.95276 0.0
O240 O 0.46009 0.91039 0.14706 0.0
O241 O 0.37235 0.92841 0.99315 0.0
Mg242 Mg 0.45196 0.02559 0.09627 0.0
O243 O 0.47329 0.11077 0.98833 0.0
O244 O 0.49033 0.99958 0.21091 0.0
O245 O 0.34323 0.93349 0.11157 0.0
O246 O 0.43342 0.10811 0.10931 0.0
C247 C 0.65217 0.10882 0.02645 0.0
C248 C 0.52053 0.08496 0.85472 0.0
C249 C 0.51565 0.87374 0.02889 0.0
C250 C 0.47053 0.93198 0.21439 0.0
C251 C 0.32277 0.90516 0.05011 0.0
C252 C 0.448 0.13699 0.03272 0.0
O253 O 0.6325 0.07542 0.96832 0.0
O254 O 0.60184 0.09112 0.07984 0.0
O255 O 0.95216 0.59223 0.81293 0.0
Mg256 Mg -0.001 0.66537 0.89778 0.0
O257 O 0.94962 0.49883 0.89643 0.0
Mg258 Mg -0.01288 0.52045 0.02394 0.0
O259 O 0.0609 0.6453 0.97503 0.0
O260 O 0.10419 0.75673 0.89496 0.0
O261 O 0.02278 0.53426 0.1577 0.0
O262 O 0.09089 0.52313 0.99487 0.0
Mg263 Mg -0.00126 0.38697 0.11692 0.0
O264 O 0.91324 0.38903 0.06532 0.0
O265 O 0.04073 0.44494 0.21552 0.0
O266 O 0.07427 0.41263 0.01697 0.0
O267 O 0.90061 0.2855 0.13946 0.0
C268 C 0.87697 0.58856 0.02928 0.0
C269 C 0.93633 0.52528 0.82866 0.0
C270 C 0.10924 0.71607 0.95826 0.0
C271 C 0.04199 0.50394 0.21816 0.0
C272 C 0.11622 0.48258 0.99101 0.0
C273 C 0.87399 0.31656 0.09026 0.0
O274 O 0.92351 0.65142 0.98579 0.0
O275 O 0.88897 0.53525 0.04512 0.0
O276 O 0.40979 0.41025 0.26471 0.0
Mg277 Mg 0.34978 0.34667 0.17776 0.0
O278 O 0.46213 0.51464 0.17024 0.0
Mg279 Mg 0.47161 0.49517 0.03762 0.0
O280 O 0.41821 0.37353 0.08148 0.0
O281 O 0.3534 0.25711 0.14827 0.0
O282 O 0.48781 0.47984 0.90215 0.0
O283 O 0.57816 0.4987 0.06043 0.0
Mg284 Mg 0.61164 0.64311 0.92679 0.0
O285 O 0.52913 0.62156 1.00062 0.0
O286 O 0.56885 0.5906 0.8276 0.0
O287 O 0.67263 0.60918 1.00296 0.0
O288 O 0.61162 0.73706 0.93679 0.0
C289 C 0.29477 0.43652 0.06127 0.0
C290 C 0.44121 0.48081 0.24501 0.0
C291 C 0.39962 0.30566 0.08809 0.0
C292 C 0.52664 0.52082 0.83424 0.0
C293 C 0.64656 0.54399 0.04664 0.0
C294 C 0.55546 0.6924 0.98874 0.0
O295 O 0.2856 0.38648 0.12205 0.0
O296 O 0.35665 0.48011 0.01846 0.0
O297 O 0.1648 0.35032 0.19264 0.0
Mg298 Mg 0.1883 0.32314 0.31056 0.0
O299 O 0.18402 0.43829 0.25402 0.0
Mg300 Mg 0.15326 0.34179 0.36913 0.0
O301 O 0.16592 0.23703 0.41106 0.0
O302 O 0.19369 0.23551 0.2861 0.0
O303 O 0.12676 0.24372 0.4804 0.0
O304 O 0.03901 0.26175 0.32648 0.0
Mg305 Mg 0.11863 0.35892 0.42961 0.0
O306 O 0.13996 0.44411 0.32167 0.0
O307 O 0.157 0.33291 0.54425 0.0
O308 O 0.0099 0.26683 0.4449 0.0
O309 O 0.10009 0.44144 0.44264 0.0
C310 C 0.31884 0.44215 0.35978 0.0
C311 C 0.1872 0.41829 0.18806 0.0
C312 C 0.18232 0.20707 0.36222 0.0
C313 C 0.1372 0.26531 0.54772 0.0
C314 C -0.01057 0.2385 0.38344 0.0
C315 C 0.11467 0.47032 0.36606 0.0
O316 O 0.29916 0.40876 0.30166 0.0
O317 O 0.26851 0.42446 0.41317 0.0
O318 O 0.61882 0.92556 0.14626 0.0
Mg319 Mg 0.66567 0.9987 0.23111 0.0
O320 O 0.61629 0.83216 0.22976 0.0
Mg321 Mg 0.65379 0.85378 0.35727 0.0
O322 O 0.72756 0.97863 0.30836 0.0
O323 O 0.77086 0.09007 0.22829 0.0
O324 O 0.68944 0.86759 0.49103 0.0
O325 O 0.75755 0.85646 0.3282 0.0
Mg326 Mg 0.66541 0.7203 0.45025 0.0
O327 O 0.5799 0.72237 0.39865 0.0
O328 O 0.7074 0.77827 0.54885 0.0
O329 O 0.74094 0.74597 0.3503 0.0
O330 O 0.56728 0.61884 0.47279 0.0
C331 C 0.54364 0.92189 0.36261 0.0
C332 C 0.60299 0.85861 0.162 0.0
C333 C 0.7759 0.0494 0.29159 0.0
C334 C 0.70865 0.83727 0.55149 0.0
C335 C 0.78288 0.81592 0.32434 0.0
C336 C 0.54066 0.6499 0.42359 0.0
O337 O 0.59017 0.98475 0.31912 0.0
O338 O 0.55564 0.86859 0.37845 0.0
O339 O 0.07646 0.74359 0.59804 0.0
Mg340 Mg 0.01645 0.68001 0.51109 0.0
O341 O 0.12879 0.84798 0.50357 0.0
Mg342 Mg 0.13828 0.82851 0.37095 0.0
O343 O 0.08487 0.70686 0.41481 0.0
O344 O 0.02007 0.59045 0.4816 0.0
O345 O 0.15448 0.81317 0.23548 0.0
O346 O 0.24483 0.83204 0.39377 0.0
Mg347 Mg 0.27831 0.97645 0.26011 0.0
O348 O 0.1958 0.9549 0.33395 0.0
O349 O 0.23552 0.92393 0.16093 0.0
O350 O 0.3393 0.94252 0.33629 0.0
O351 O 0.27829 0.0704 0.27012 0.0
C352 C 0.96143 0.76986 0.3946 0.0
C353 C 0.10788 0.81415 0.57833 0.0
C354 C 0.06628 0.639 0.42142 0.0
C355 C 0.1933 0.85415 0.16757 0.0
C356 C 0.31322 0.87732 0.37997 0.0
C357 C 0.22212 0.02573 0.32207 0.0
O358 O 0.95227 0.71982 0.45538 0.0
O359 O 0.02332 0.81345 0.35179 0.0
O360 O 0.83147 0.68366 0.52597 0.0
Mg361 Mg 0.85497 0.65648 0.64389 0.0
O362 O 0.85068 0.77162 0.58735 0.0
Mg363 Mg 0.81993 0.67512 0.70247 0.0
O364 O 0.83259 0.57037 0.7444 0.0
O365 O 0.86036 0.56884 0.61943 0.0
O366 O 0.79342 0.57705 0.81373 0.0
O367 O 0.70568 0.59508 0.65982 0.0
Mg368 Mg 0.78529 0.69226 0.76294 0.0
O369 O 0.80662 0.77744 0.655 0.0
O370 O 0.82366 0.66625 0.87758 0.0
O371 O 0.67656 0.60016 0.77823 0.0
O372 O 0.76675 0.77477 0.77598 0.0
C373 C -0.01449 0.77548 0.69311 0.0
C374 C 0.85386 0.75163 0.52139 0.0
C375 C 0.84898 0.5404 0.69556 0.0
C376 C 0.80387 0.59864 0.88105 0.0
C377 C 0.6561 0.57183 0.71678 0.0
C378 C 0.78134 0.80366 0.69939 0.0
O379 O 0.96583 0.74209 0.63499 0.0
O380 O 0.93517 0.75779 0.7465 0.0
O381 O 0.28549 0.2589 0.47959 0.0
Mg382 Mg 0.33234 0.33204 0.56444 0.0
O383 O 0.28296 0.1655 0.5631 0.0
Mg384 Mg 0.32046 0.18712 0.6906 0.0
O385 O 0.39423 0.31197 0.64169 0.0
O386 O 0.43752 0.4234 0.56162 0.0
O387 O 0.35611 0.20092 0.82437 0.0
O388 O 0.42422 0.1898 0.66154 0.0
Mg389 Mg 0.33208 0.05364 0.78358 0.0
O390 O 0.24657 0.0557 0.73198 0.0
O391 O 0.37407 0.1116 0.88219 0.0
O392 O 0.4076 0.0793 0.68363 0.0
O393 O 0.23395 0.95217 0.80612 0.0
C394 C 0.2103 0.25522 0.69595 0.0
C395 C 0.26966 0.19195 0.49533 0.0
C396 C 0.44257 0.38274 0.62493 0.0
C397 C 0.37532 0.17061 0.88482 0.0
C398 C 0.44955 0.14925 0.65768 0.0
C399 C 0.20733 0.98323 0.75692 0.0
O400 O 0.25684 0.31809 0.65245 0.0
O401 O 0.22231 0.20192 0.71178 0.0
O402 O 0.74313 0.07692 0.93137 0.0
Mg403 Mg 0.68311 0.01334 0.84442 0.0
O404 O 0.79546 0.18131 0.8369 0.0
Mg405 Mg 0.80495 0.16184 0.70428 0.0
O406 O 0.75154 0.04019 0.74814 0.0
O407 O 0.68673 0.92378 0.81494 0.0
O408 O 0.82115 0.14651 0.56882 0.0
O409 O 0.9115 0.16537 0.7271 0.0
Mg410 Mg 0.94498 0.30978 0.59345 0.0
O411 O 0.86246 0.28823 0.66729 0.0
O412 O 0.90218 0.25727 0.49427 0.0
O413 O 0.00596 0.27585 0.66963 0.0
O414 O 0.94495 0.40373 0.60345 0.0
C415 C 0.6281 0.10319 0.72793 0.0
C416 C 0.77454 0.14748 0.91167 0.0
C417 C 0.73295 0.97233 0.75475 0.0
C418 C 0.85997 0.18749 0.50091 0.0
C419 C 0.97989 0.21066 0.71331 0.0
C420 C 0.88879 0.35906 0.65541 0.0
O421 O 0.61894 0.05315 0.78872 0.0
O422 O 0.68998 0.14678 0.68513 0.0
loop_
_geom_bond_atom_site_label_1
_geom_bond_atom_site_label_2
_geom_bond_distance
_geom_bond_site_symmetry_2
_ccdc_geom_bond_type
C0 N1 1.317 . S
C0 N2 1.348 . S
C0 C3 1.485 . S
N1 C0 1.317 . S
N1 N5 1.370 . S
N2 C0 1.348 . S
N2 C4 1.346 . S
C3 C0 1.485 . S
C3 H7 0.960 . S
C3 H8 0.961 . S
C3 H9 0.960 . S
C4 N2 1.346 . S
C4 N5 1.307 . S
C4 C6 1.486 . S
N5 N1 1.370 . S
N5 C4 1.307 . S
C6 C4 1.486 . S
C6 H10 0.960 . S
C6 H11 0.960 1_545 S
C6 H12 0.959 . S
H7 C3 0.960 . S
H8 C3 0.961 . S
H9 C3 0.960 . S
H10 C6 0.960 . S
H11 C6 0.960 1_565 S
H12 C6 0.959 . S
C13 N14 1.317 . S
C13 N15 1.348 . S
C13 C16 1.485 . S
N14 C13 1.317 . S
N14 N18 1.370 . S
N15 C13 1.348 . S
N15 C17 1.346 . S
C16 C13 1.485 . S
C16 H20 0.960 . S
C16 H21 0.961 . S
C16 H22 0.946 1_655 S
C17 N15 1.346 . S
C17 N18 1.307 . S
C17 C19 1.486 . S
N18 N14 1.370 . S
N18 C17 1.307 . S
C19 C17 1.486 . S
C19 H23 0.960 . S
C19 H24 0.960 . S
C19 H25 0.959 . S
H20 C16 0.960 . S
H21 C16 0.961 . S
H22 C16 0.946 1_455 S
H23 C19 0.960 . S
H24 C19 0.960 . S
H25 C19 0.959 . S
C26 N27 1.317 . S
C26 N28 1.348 . S
C26 C29 1.485 . S
N27 C26 1.317 . S
N27 N31 1.370 . S
N28 C26 1.348 . S
N28 C30 1.346 . S
C29 C26 1.485 . S
C29 H33 0.960 . S
C29 H34 0.961 . S
C29 H35 0.960 . S
C30 N28 1.346 . S
C30 N31 1.307 . S
C30 C32 1.486 . S
N31 N27 1.370 . S
N31 C30 1.307 . S
C32 C30 1.486 . S
C32 H36 0.960 . S
C32 H37 0.960 . S
C32 H38 0.959 . S
H33 C29 0.960 . S
H34 C29 0.961 . S
H35 C29 0.960 . S
H36 C32 0.960 . S
H37 C32 0.960 . S
H38 C32 0.959 . S
C39 N40 1.317 . S
C39 N41 1.348 . S
C39 C42 1.485 . S
N40 C39 1.317 . S
N40 N44 1.370 . S
N41 C39 1.348 . S
N41 C43 1.346 . S
C42 C39 1.485 . S
C42 H46 0.960 . S
C42 H47 0.961 . S
C42 H48 0.960 . S
C43 N41 1.346 . S
C43 N44 1.307 . S
C43 C45 1.486 . S
N44 N40 1.370 . S
N44 C43 1.307 . S
C45 C43 1.486 . S
C45 H49 0.960 . S
C45 H50 0.960 1_455 S
C45 H51 0.959 . S
H46 C42 0.960 . S
H47 C42 0.961 . S
H48 C42 0.960 . S
H49 C45 0.960 . S
H50 C45 0.960 1_655 S
H51 C45 0.959 . S
C52 N53 1.317 . S
C52 N54 1.348 . S
C52 C55 1.485 . S
N53 C52 1.317 . S
N53 N57 1.370 . S
N54 C52 1.348 . S
N54 C56 1.346 . S
C55 C52 1.485 . S
C55 H59 0.960 . S
C55 H60 0.961 . S
C55 H61 0.960 . S
C56 N54 1.346 . S
C56 N57 1.307 . S
C56 C58 1.486 . S
N57 N53 1.370 . S
N57 C56 1.307 . S
C58 C56 1.486 . S
C58 H62 0.960 1_565 S
C58 H63 0.960 . S
C58 H64 0.959 . S
H59 C55 0.960 . S
H60 C55 0.961 . S
H61 C55 0.960 . S
H62 C58 0.960 1_545 S
H63 C58 0.960 . S
H64 C58 0.959 . S
C65 N66 1.317 . S
C65 N67 1.348 . S
C65 C68 1.485 . S
N66 C65 1.317 . S
N66 N70 1.370 . S
N67 C65 1.348 . S
N67 C69 1.346 . S
C68 C65 1.485 . S
C68 H72 0.960 . S
C68 H73 0.961 . S
C68 H74 0.960 . S
C69 N67 1.346 . S
C69 N70 1.307 . S
C69 C71 1.486 . S
N70 N66 1.370 . S
N70 C69 1.307 . S
C71 C69 1.486 . S
C71 H75 0.960 . S
C71 H76 0.960 1_565 S
C71 H77 0.959 . S
H72 C68 0.960 . S
H73 C68 0.961 . S
H74 C68 0.960 . S
H75 C71 0.960 . S
H76 C71 0.960 1_545 S
H77 C71 0.959 . S
C78 N79 1.317 . S
C78 N80 1.348 . S
C78 C81 1.485 . S
N79 C78 1.317 . S
N79 N83 1.370 . S
N80 C78 1.348 . S
N80 C82 1.346 . S
C81 C78 1.485 . S
C81 H85 0.960 . S
C81 H86 0.961 . S
C81 H87 0.960 . S
C82 N80 1.346 . S
C82 N83 1.307 . S
C82 C84 1.486 . S
N83 N79 1.370 . S
N83 C82 1.307 . S
C84 C82 1.486 . S
C84 H88 0.960 1_655 S
C84 H89 0.960 . S
C84 H90 0.959 . S
H85 C81 0.960 . S
H86 C81 0.961 . S
H87 C81 0.960 . S
H88 C84 0.960 1_455 S
H89 C84 0.960 . S
H90 C84 0.959 . S
C91 N92 1.317 . S
C91 N93 1.348 . S
C91 C94 1.485 . S
N92 C91 1.317 . S
N92 N96 1.370 . S
N93 C91 1.348 . S
N93 C95 1.346 . S
C94 C91 1.485 . S
C94 H98 0.960 . S
C94 H99 0.961 . S
C94 H100 0.960 . S
C95 N93 1.346 . S
C95 N96 1.307 . S
C95 C97 1.486 . S
N96 N92 1.370 . S
N96 C95 1.307 . S
C97 C95 1.486 . S
C97 H101 0.960 . S
C97 H102 0.960 . S
C97 H103 0.959 . S
H98 C94 0.960 . S
H99 C94 0.961 . S
H100 C94 0.960 . S
H101 C97 0.960 . S
H102 C97 0.960 . S
H103 C97 0.959 . S
C104 N105 1.317 . S
C104 N106 1.348 . S
C104 C107 1.485 . S
N105 C104 1.317 . S
N105 N109 1.370 . S
N106 C104 1.348 . S
N106 C108 1.346 . S
C107 C104 1.485 . S
C107 H111 0.960 . S
C107 H112 0.961 . S
C107 H113 0.960 . S
C108 N106 1.346 . S
C108 N109 1.307 . S
C108 C110 1.486 . S
N109 N105 1.370 . S
N109 C108 1.307 . S
C110 C108 1.486 . S
C110 H114 0.960 . S
C110 H115 0.960 . S
C110 H116 0.959 . S
H111 C107 0.960 . S
H112 C107 0.961 . S
H113 C107 0.960 . S
H114 C110 0.960 . S
H115 C110 0.960 . S
H116 C110 0.959 . S
C117 N118 1.317 . S
C117 N119 1.348 . S
C117 C120 1.485 . S
N118 C117 1.317 . S
N118 N122 1.370 1_554 S
N119 C117 1.348 . S
N119 C121 1.346 1_554 S
C120 C117 1.485 . S
C120 H124 0.960 . S
C120 H125 0.961 . S
C120 H126 0.960 . S
C121 N119 1.346 1_556 S
C121 N122 1.307 . S
C121 C123 1.486 . S
N122 N118 1.370 1_556 S
N122 C121 1.307 . S
C123 C121 1.486 . S
C123 H127 0.960 . S
C123 H128 0.960 . S
C123 H129 0.959 . S
H124 C120 0.960 . S
H125 C120 0.961 . S
H126 C120 0.960 . S
H127 C123 0.960 . S
H128 C123 0.960 . S
H129 C123 0.959 . S
C130 N131 1.317 . S
C130 N132 1.348 . S
C130 C133 1.485 . S
N131 C130 1.317 . S
N131 N135 1.370 1_554 S
N132 C130 1.348 . S
N132 C134 1.346 1_554 S
C133 C130 1.485 . S
C133 H137 0.960 . S
C133 H138 0.961 . S
C133 H139 0.960 . S
C134 N132 1.346 1_556 S
C134 N135 1.307 . S
C134 C136 1.486 . S
N135 N131 1.370 1_556 S
N135 C134 1.307 . S
C136 C134 1.486 . S
C136 H140 0.960 . S
C136 H141 0.960 . S
C136 H142 0.959 . S
H137 C133 0.960 . S
H138 C133 0.961 . S
H139 C133 0.960 . S
H140 C136 0.960 . S
H141 C136 0.960 . S
H142 C136 0.959 . S
C143 N144 1.317 . S
C143 N145 1.348 . S
C143 C146 1.485 . S
N144 C143 1.317 . S
N144 N148 1.370 1_554 S
N145 C143 1.348 . S
N145 C147 1.346 1_554 S
C146 C143 1.485 . S
C146 H150 0.960 . S
C146 H151 0.961 . S
C146 H152 0.960 . S
C147 N145 1.346 1_556 S
C147 N148 1.307 . S
C147 C149 1.486 . S
N148 N144 1.370 1_556 S
N148 C147 1.307 . S
C149 C147 1.486 . S
C149 H153 0.960 . S
C149 H154 0.960 . S
C149 H155 0.959 . S
H150 C146 0.960 . S
H151 C146 0.961 . S
H152 C146 0.960 . S
H153 C149 0.960 . S
H154 C149 0.960 . S
H155 C149 0.959 . S
C156 N157 1.317 1_556 S
C156 N158 1.348 1_556 S
C156 C159 1.485 . S
N157 C156 1.317 1_554 S
N157 N161 1.370 . S
N158 C156 1.348 1_554 S
N158 C160 1.346 . S
C159 C156 1.485 . S
C159 H163 0.960 . S
C159 H164 0.961 . S
C159 H165 0.960 . S
C160 N158 1.346 . S
C160 N161 1.307 . S
C160 C162 1.486 . S
N161 N157 1.370 . S
N161 C160 1.307 . S
C162 C160 1.486 . S
C162 H166 0.960 . S
C162 H167 0.960 . S
C162 H168 0.959 . S
H163 C159 0.960 . S
H164 C159 0.961 . S
H165 C159 0.960 . S
H166 C162 0.960 . S
H167 C162 0.960 . S
H168 C162 0.959 . S
C169 N170 1.317 1_556 S
C169 N171 1.348 1_556 S
C169 C172 1.485 . S
N170 C169 1.317 1_554 S
N170 N174 1.370 . S
N171 C169 1.348 1_554 S
N171 C173 1.346 . S
C172 C169 1.485 . S
C172 H176 0.960 . S
C172 H177 0.961 . S
C172 H178 0.960 . S
C173 N171 1.346 . S
C173 N174 1.307 . S
C173 C175 1.486 . S
N174 N170 1.370 . S
N174 C173 1.307 . S
C175 C173 1.486 . S
C175 H179 0.960 . S
C175 H180 0.960 . S
C175 H181 0.959 . S
H176 C172 0.960 . S
H177 C172 0.961 . S
H178 C172 0.960 . S
H179 C175 0.960 . S
H180 C175 0.960 . S
H181 C175 0.959 . S
C182 N183 1.317 1_556 S
C182 N184 1.348 1_556 S
C182 C185 1.485 . S
N183 C182 1.317 1_554 S
N183 N187 1.370 . S
N184 C182 1.348 1_554 S
N184 C186 1.346 . S
C185 C182 1.485 . S
C185 H189 0.960 . S
C185 H190 0.961 . S
C185 H191 0.960 . S
C186 N184 1.346 . S
C186 N187 1.307 . S
C186 C188 1.486 . S
N187 N183 1.370 . S
N187 C186 1.307 . S
C188 C186 1.486 . S
C188 H192 0.960 . S
C188 H193 0.960 . S
C188 H194 0.959 . S
H189 C185 0.960 . S
H190 C185 0.961 . S
H191 C185 0.960 . S
H192 C188 0.960 . S
H193 C188 0.960 . S
H194 C188 0.959 . S
C195 N196 1.317 . S
C195 N197 1.348 . S
C195 C198 1.485 . S
N196 C195 1.317 . S
N196 N200 1.370 . S
N197 C195 1.348 . S
N197 C199 1.346 . S
C198 C195 1.485 . S
C198 H202 0.960 . S
C198 H203 0.961 . S
C198 H204 0.960 . S
C199 N197 1.346 . S
C199 N200 1.307 . S
C199 C201 1.486 . S
N200 N196 1.370 . S
N200 C199 1.307 . S
C201 C199 1.486 . S
C201 H205 0.960 . S
C201 H206 0.960 . S
C201 H207 0.959 . S
H202 C198 0.960 . S
H203 C198 0.961 . S
H204 C198 0.960 . S
H205 C201 0.960 . S
H206 C201 0.960 . S
H207 C201 0.959 . S
C208 N209 1.317 . S
C208 N210 1.348 . S
C208 C211 1.485 . S
N209 C208 1.317 . S
N209 N213 1.370 . S
N210 C208 1.348 . S
N210 C212 1.346 . S
C211 C208 1.485 . S
C211 H215 0.960 . S
C211 H216 0.961 . S
C211 H217 0.960 . S
C212 N210 1.346 . S
C212 N213 1.307 . S
C212 C214 1.486 . S
N213 N209 1.370 . S
N213 C212 1.307 . S
C214 C212 1.486 . S
C214 H218 0.960 . S
C214 H219 0.960 . S
C214 H220 0.959 . S
H215 C211 0.960 . S
H216 C211 0.961 . S
H217 C211 0.960 . S
H218 C214 0.960 . S
H219 C214 0.960 . S
H220 C214 0.959 . S
C221 N222 1.317 . S
C221 N223 1.348 . S
C221 C224 1.485 . S
N222 C221 1.317 . S
N222 N226 1.370 . S
N223 C221 1.348 . S
N223 C225 1.346 . S
C224 C221 1.485 . S
C224 H228 0.960 . S
C224 H229 0.961 . S
C224 H230 0.960 . S
C225 N223 1.346 . S
C225 N226 1.307 . S
C225 C227 1.486 . S
N226 N222 1.370 . S
N226 C225 1.307 . S
C227 C225 1.486 . S
C227 H231 0.960 . S
C227 H232 0.960 . S
C227 H233 0.959 . S
H228 C224 0.960 . S
H229 C224 0.961 . S
H230 C224 0.960 . S
H231 C227 0.960 . S
H232 C227 0.960 . S
H233 C227 0.959 . S
O234 Mg235 1.990 . S
O234 C248 1.253 . S
Mg235 O234 1.990 . S
Mg235 O238 2.180 1_546 S
Mg235 O239 2.117 1_545 S
Mg235 O253 2.030 . S
O236 Mg237 2.072 1_556 S
O236 C248 1.260 . S
Mg237 O236 2.072 1_554 S
Mg237 O238 2.099 1_545 S
Mg237 O240 2.079 1_545 S
Mg237 O241 2.072 1_545 S
Mg237 O243 2.099 . S
Mg237 O254 2.079 . S
O238 Mg235 2.180 1_564 S
O238 Mg237 2.099 1_565 S
O238 C249 1.279 1_554 S
O239 Mg235 2.117 1_565 S
O239 C249 1.250 . S
O240 Mg237 2.079 1_565 S
O240 C250 1.264 . S
O241 Mg237 2.072 1_565 S
O241 C251 1.260 . S
Mg242 O243 2.180 . S
Mg242 O244 2.030 1_545 S
Mg242 O245 1.990 1_545 S
Mg242 O246 2.117 . S
O243 Mg237 2.099 . S
O243 Mg242 2.180 . S
O243 C252 1.279 . S
O244 Mg242 2.030 1_565 S
O244 C250 1.248 . S
O245 Mg242 1.990 1_565 S
O245 C251 1.253 . S
O246 Mg242 2.117 . S
O246 C252 1.250 . S
C247 O253 1.248 1_554 S
C247 O254 1.264 . S
C248 O234 1.253 . S
C248 O236 1.260 . S
C249 O238 1.279 1_556 S
C249 O239 1.250 . S
C250 O240 1.264 . S
C250 O244 1.248 . S
C251 O241 1.260 . S
C251 O245 1.253 . S
C252 O243 1.279 . S
C252 O246 1.250 . S
O253 Mg235 2.030 . S
O253 C247 1.248 1_556 S
O254 Mg237 2.079 . S
O254 C247 1.264 . S
O255 Mg256 1.990 . S
O255 C269 1.253 1_455 S
Mg256 O255 1.990 . S
Mg256 O259 2.180 . S
Mg256 O260 2.117 . S
Mg256 O274 2.030 1_455 S
O257 Mg258 2.072 1_656 S
O257 C269 1.260 . S
Mg258 O257 2.072 1_454 S
Mg258 O259 2.099 1_554 S
Mg258 O261 2.079 . S
Mg258 O262 2.072 . S
Mg258 O264 2.099 1_455 S
Mg258 O275 2.079 1_455 S
O259 Mg256 2.180 . S
O259 Mg258 2.099 1_556 S
O259 C270 1.279 . S
O260 Mg256 2.117 . S
O260 C270 1.250 . S
O261 Mg258 2.079 . S
O261 C271 1.264 . S
O262 Mg258 2.072 . S
O262 C272 1.260 . S
Mg263 O264 2.180 1_455 S
Mg263 O265 2.030 . S
Mg263 O266 1.990 . S
Mg263 O267 2.117 1_455 S
O264 Mg258 2.099 1_655 S
O264 Mg263 2.180 1_655 S
O264 C273 1.279 . S
O265 Mg263 2.030 . S
O265 C271 1.248 . S
O266 Mg263 1.990 . S
O266 C272 1.253 . S
O267 Mg263 2.117 1_655 S
O267 C273 1.250 . S
C268 O274 1.248 . S
C268 O275 1.264 1_556 S
C269 O255 1.253 1_655 S
C269 O257 1.260 . S
C270 O259 1.279 . S
C270 O260 1.250 . S
C271 O261 1.264 . S
C271 O265 1.248 . S
C272 O262 1.260 . S
C272 O266 1.253 . S
C273 O264 1.279 . S
C273 O267 1.250 . S
O274 Mg256 2.030 1_655 S
O274 C268 1.248 . S
O275 Mg258 2.079 1_655 S
O275 C268 1.264 1_554 S
O276 Mg277 1.990 . S
O276 C290 1.253 . S
Mg277 O276 1.990 . S
Mg277 O280 2.180 . S
Mg277 O281 2.117 . S
Mg277 O295 2.030 . S
O278 Mg279 2.072 . S
O278 C290 1.260 . S
Mg279 O278 2.072 . S
Mg279 O280 2.099 . S
Mg279 O282 2.079 1_554 S
Mg279 O283 2.072 . S
Mg279 O285 2.099 1_554 S
Mg279 O296 2.079 . S
O280 Mg277 2.180 . S
O280 Mg279 2.099 . S
O280 C291 1.279 . S
O281 Mg277 2.117 . S
O281 C291 1.250 . S
O282 Mg279 2.079 1_556 S
O282 C292 1.264 . S
O283 Mg279 2.072 . S
O283 C293 1.260 . S
Mg284 O285 2.180 . S
Mg284 O286 2.030 . S
Mg284 O287 1.990 . S
Mg284 O288 2.117 . S
O285 Mg279 2.099 1_556 S
O285 Mg284 2.180 . S
O285 C294 1.279 1_556 S
O286 Mg284 2.030 . S
O286 C292 1.248 . S
O287 Mg284 1.990 . S
O287 C293 1.253 1_556 S
O288 Mg284 2.117 . S
O288 C294 1.250 1_556 S
C289 O295 1.248 . S
C289 O296 1.264 . S
C290 O276 1.253 . S
C290 O278 1.260 . S
C291 O280 1.279 . S
C291 O281 1.250 . S
C292 O282 1.264 . S
C292 O286 1.248 . S
C293 O283 1.260 . S
C293 O287 1.253 1_554 S
C294 O285 1.279 1_554 S
C294 O288 1.250 1_554 S
O295 Mg277 2.030 . S
O295 C289 1.248 . S
O296 Mg279 2.079 . S
O296 C289 1.264 . S
O297 Mg298 1.990 . S
O297 C311 1.253 . S
Mg298 O297 1.990 . S
Mg298 O301 2.180 . S
Mg298 O302 2.117 . S
Mg298 O316 2.030 . S
O299 Mg300 2.072 . S
O299 C311 1.260 . S
Mg300 O299 2.072 . S
Mg300 O301 2.099 . S
Mg300 O303 2.079 . S
Mg300 O304 2.072 . S
Mg300 O306 2.099 . S
Mg300 O317 2.079 . S
O301 Mg298 2.180 . S
O301 Mg300 2.099 . S
O301 C312 1.279 . S
O302 Mg298 2.117 . S
O302 C312 1.250 . S
O303 Mg300 2.079 . S
O303 C313 1.264 . S
O304 Mg300 2.072 . S
O304 C314 1.260 . S
Mg305 O306 2.180 . S
Mg305 O307 2.030 . S
Mg305 O308 1.990 . S
Mg305 O309 2.117 . S
O306 Mg300 2.099 . S
O306 Mg305 2.180 . S
O306 C315 1.279 . S
O307 Mg305 2.030 . S
O307 C313 1.248 . S
O308 Mg305 1.990 . S
O308 C314 1.255 . S
O309 Mg305 2.117 . S
O309 C315 1.250 . S
C310 O316 1.248 . S
C310 O317 1.264 . S
C311 O297 1.253 . S
C311 O299 1.260 . S
C312 O301 1.279 . S
C312 O302 1.250 . S
C313 O303 1.264 . S
C313 O307 1.248 . S
C314 O304 1.260 . S
C314 O308 1.255 . S
C315 O306 1.279 . S
C315 O309 1.250 . S
O316 Mg298 2.030 . S
O316 C310 1.248 . S
O317 Mg300 2.079 . S
O317 C310 1.264 . S
O318 Mg319 1.990 1_565 S
O318 C332 1.253 . S
Mg319 O318 1.990 1_545 S
Mg319 O322 2.180 1_545 S
Mg319 O323 2.117 . S
Mg319 O337 2.030 1_545 S
O320 Mg321 2.072 . S
O320 C332 1.260 . S
Mg321 O320 2.072 . S
Mg321 O322 2.099 . S
Mg321 O324 2.079 . S
Mg321 O325 2.072 . S
Mg321 O327 2.099 . S
Mg321 O338 2.079 . S
O322 Mg319 2.180 1_565 S
O322 Mg321 2.099 . S
O322 C333 1.279 1_565 S
O323 Mg319 2.117 . S
O323 C333 1.250 . S
O324 Mg321 2.079 . S
O324 C334 1.264 . S
O325 Mg321 2.072 . S
O325 C335 1.260 . S
Mg326 O327 2.180 . S
Mg326 O328 2.030 . S
Mg326 O329 1.990 . S
Mg326 O330 2.117 . S
O327 Mg321 2.099 . S
O327 Mg326 2.180 . S
O327 C336 1.279 . S
O328 Mg326 2.030 . S
O328 C334 1.248 . S
O329 Mg326 1.990 . S
O329 C335 1.253 . S
O330 Mg326 2.117 . S
O330 C336 1.250 . S
C331 O337 1.248 . S
C331 O338 1.264 . S
C332 O318 1.253 . S
C332 O320 1.260 . S
C333 O322 1.279 1_545 S
C333 O323 1.250 . S
C334 O324 1.264 . S
C334 O328 1.248 . S
C335 O325 1.260 . S
C335 O329 1.253 . S
C336 O327 1.279 . S
C336 O330 1.250 . S
O337 Mg319 2.030 1_565 S
O337 C331 1.248 . S
O338 Mg321 2.079 . S
O338 C331 1.264 . S
O339 Mg340 1.990 . S
O339 C353 1.253 . S
Mg340 O339 1.990 . S
Mg340 O343 2.180 . S
Mg340 O344 2.117 . S
Mg340 O358 2.030 1_455 S
O341 Mg342 2.072 . S
O341 C353 1.260 . S
Mg342 O341 2.072 . S
Mg342 O343 2.099 . S
Mg342 O345 2.079 . S
Mg342 O346 2.072 . S
Mg342 O348 2.099 . S
Mg342 O359 2.079 . S
O343 Mg340 2.180 . S
O343 Mg342 2.099 . S
O343 C354 1.279 . S
O344 Mg340 2.117 . S
O344 C354 1.250 . S
O345 Mg342 2.079 . S
O345 C355 1.264 . S
O346 Mg342 2.072 . S
O346 C356 1.260 . S
Mg347 O348 2.180 . S
Mg347 O349 2.030 . S
Mg347 O350 1.990 . S
Mg347 O351 2.117 1_565 S
O348 Mg342 2.099 . S
O348 Mg347 2.180 . S
O348 C357 1.279 1_565 S
O349 Mg347 2.030 . S
O349 C355 1.248 . S
O350 Mg347 1.990 . S
O350 C356 1.253 . S
O351 Mg347 2.117 1_545 S
O351 C357 1.250 . S
C352 O358 1.248 . S
C352 O359 1.264 1_655 S
C353 O339 1.253 . S
C353 O341 1.260 . S
C354 O343 1.279 . S
C354 O344 1.250 . S
C355 O345 1.264 . S
C355 O349 1.248 . S
C356 O346 1.260 . S
C356 O350 1.253 . S
C357 O348 1.279 1_545 S
C357 O351 1.250 . S
O358 Mg340 2.030 1_655 S
O358 C352 1.248 . S
O359 Mg342 2.079 . S
O359 C352 1.264 1_455 S
O360 Mg361 1.990 . S
O360 C374 1.253 . S
Mg361 O360 1.990 . S
Mg361 O364 2.180 . S
Mg361 O365 2.117 . S
Mg361 O379 2.030 1_655 S
O362 Mg363 2.072 . S
O362 C374 1.260 . S
Mg363 O362 2.072 . S
Mg363 O364 2.099 . S
Mg363 O366 2.079 . S
Mg363 O367 2.072 . S
Mg363 O369 2.099 . S
Mg363 O380 2.079 . S
O364 Mg361 2.180 . S
O364 Mg363 2.099 . S
O364 C375 1.279 . S
O365 Mg361 2.117 . S
O365 C375 1.250 . S
O366 Mg363 2.079 . S
O366 C376 1.264 . S
O367 Mg363 2.072 . S
O367 C377 1.260 . S
Mg368 O369 2.180 . S
Mg368 O370 2.030 . S
Mg368 O371 1.990 . S
Mg368 O372 2.117 . S
O369 Mg363 2.099 . S
O369 Mg368 2.180 . S
O369 C378 1.279 . S
O370 Mg368 2.030 . S
O370 C376 1.248 . S
O371 Mg368 1.990 . S
O371 C377 1.253 . S
O372 Mg368 2.117 . S
O372 C378 1.250 . S
C373 O379 1.248 . S
C373 O380 1.264 1_455 S
C374 O360 1.253 . S
C374 O362 1.260 . S
C375 O364 1.279 . S
C375 O365 1.250 . S
C376 O366 1.264 . S
C376 O370 1.248 . S
C377 O367 1.260 . S
C377 O371 1.253 . S
C378 O369 1.279 . S
C378 O372 1.250 . S
O379 Mg361 2.030 1_455 S
O379 C373 1.248 . S
O380 Mg363 2.079 . S
O380 C373 1.264 1_655 S
O381 Mg382 1.990 . S
O381 C395 1.253 . S
Mg382 O381 1.990 . S
Mg382 O385 2.180 . S
Mg382 O386 2.117 . S
Mg382 O400 2.030 . S
O383 Mg384 2.072 . S
O383 C395 1.260 . S
Mg384 O383 2.072 . S
Mg384 O385 2.099 . S
Mg384 O387 2.079 . S
Mg384 O388 2.072 . S
Mg384 O390 2.099 . S
Mg384 O401 2.079 . S
O385 Mg382 2.180 . S
O385 Mg384 2.099 . S
O385 C396 1.279 . S
O386 Mg382 2.117 . S
O386 C396 1.250 . S
O387 Mg384 2.079 . S
O387 C397 1.264 . S
O388 Mg384 2.072 . S
O388 C398 1.260 . S
Mg389 O390 2.180 . S
Mg389 O391 2.030 . S
Mg389 O392 1.990 . S
Mg389 O393 2.117 1_545 S
O390 Mg384 2.099 . S
O390 Mg389 2.180 . S
O390 C399 1.279 . S
O391 Mg389 2.030 . S
O391 C397 1.248 . S
O392 Mg389 1.990 . S
O392 C398 1.253 . S
O393 Mg389 2.117 1_565 S
O393 C399 1.250 1_565 S
C394 O400 1.248 . S
C394 O401 1.264 . S
C395 O381 1.253 . S
C395 O383 1.260 . S
C396 O385 1.279 . S
C396 O386 1.250 . S
C397 O387 1.264 . S
C397 O391 1.248 . S
C398 O388 1.260 . S
C398 O392 1.253 . S
C399 O390 1.279 . S
C399 O393 1.250 1_545 S
O400 Mg382 2.030 . S
O400 C394 1.248 . S
O401 Mg384 2.079 . S
O401 C394 1.264 . S
O402 Mg403 1.990 . S
O402 C416 1.253 . S
Mg403 O402 1.990 . S
Mg403 O406 2.180 . S
Mg403 O407 2.117 1_545 S
Mg403 O421 2.030 . S
O404 Mg405 2.072 . S
O404 C416 1.260 . S
Mg405 O404 2.072 . S
Mg405 O406 2.099 . S
Mg405 O408 2.079 . S
Mg405 O409 2.072 . S
Mg405 O411 2.099 . S
Mg405 O422 2.079 . S
O406 Mg403 2.180 . S
O406 Mg405 2.099 . S
O406 C417 1.279 1_545 S
O407 Mg403 2.117 1_565 S
O407 C417 1.250 . S
O408 Mg405 2.079 . S
O408 C418 1.264 . S
O409 Mg405 2.072 . S
O409 C419 1.260 . S
Mg410 O411 2.180 . S
Mg410 O412 2.030 . S
Mg410 O413 1.990 1_655 S
Mg410 O414 2.117 . S
O411 Mg405 2.099 . S
O411 Mg410 2.180 . S
O411 C420 1.279 . S
O412 Mg410 2.030 . S
O412 C418 1.248 . S
O413 Mg410 1.990 1_455 S
O413 C419 1.253 1_455 S
O414 Mg410 2.117 . S
O414 C420 1.250 . S
C415 O421 1.248 . S
C415 O422 1.264 . S
C416 O402 1.253 . S
C416 O404 1.260 . S
C417 O406 1.279 1_565 S
C417 O407 1.250 . S
C418 O408 1.264 . S
C418 O412 1.248 . S
C419 O409 1.260 . S
C419 O413 1.253 1_655 S
C420 O411 1.279 . S
C420 O414 1.250 . S
O421 Mg403 2.030 . S
O421 C415 1.248 . S
O422 Mg405 2.079 . S
O422 C415 1.264 . S
N170 C251 1.710 . S
N184 C272 1.082 . S
N158 C294 1.243 . S
N145 C273 1.206 . S
C293 N119 1.123 . S
N131 C252 1.391 . S
C247 N144 1.420 . S
C268 N118 1.332 1_556 S
N132 C291 1.478 . S
N171 C270 1.477 1_554 S
N183 C289 1.286 . S
C249 N157 1.305 1_556 S
C314 N14 1.709 1_455 S
N28 C335 1.082 . S
N2 C357 1.243 . S
N223 C336 1.206 . S
N197 C356 1.123 . S
N209 C315 1.391 . S
N222 C310 1.420 . S
N196 C331 1.332 . S
C354 N210 1.478 . S
N15 C333 1.477 . S
C352 N27 1.286 . S
N1 C312 1.305 . S
C377 N92 1.710 . S
N106 C398 1.082 . S
C420 N80 1.243 . S
C399 N67 1.206 1_545 S
C419 N41 1.124 1_655 S
N53 C378 1.392 . S
N66 C373 1.420 . S
N40 C394 1.332 . S
C417 N54 1.478 . S
N93 C396 1.478 . S
N105 C415 1.285 . S
N79 C375 1.305 . S
N200 C250 1.192 . S
C271 N213 1.673 . S
N226 C290 1.625 . S
N83 C269 1.669 . S
N96 C292 1.718 . S
C248 N109 1.404 . S
N44 C313 1.193 . S
N57 C334 1.673 . S
N70 C353 1.625 . S
N161 C332 1.669 . S
C355 N174 1.718 . S
N187 C311 1.404 . S
N122 C376 1.192 . S
N135 C397 1.673 . S
C416 N148 1.624 . S
N5 C395 1.669 . S
N18 C418 1.719 . S
N31 C374 1.404 . S
