# Generated by pormake.
# Topology zzz, (3,6)-cn, num edge types: 1
# Building blocks:
#     Node 0, Type 0, BuildingBlock: BETDAH_clean_linker_0, # of connection points: 3
#     Node 1, Type 0, BuildingBlock: BETDAH_clean_linker_0, # of connection points: 3
#     Node 2, Type 0, BuildingBlock: BETDAH_clean_linker_0, # of connection points: 3
#     Node 3, Type 0, BuildingBlock: BETDAH_clean_linker_0, # of connection points: 3
#     Node 4, Type 0, BuildingBlock: BETDAH_clean_linker_0, # of connection points: 3
#     Node 5, Type 0, BuildingBlock: BETDAH_clean_linker_0, # of connection points: 3
#     Node 6, Type 0, BuildingBlock: BETDAH_clean_linker_0, # of connection points: 3
#     Node 7, Type 0, BuildingBlock: BETDAH_clean_linker_0, # of connection points: 3
#     Node 8, Type 1, BuildingBlock: GEDQOX_clean_sbu_0, # of connection points: 6
#     Node 9, Type 1, BuildingBlock: GEDQOX_clean_sbu_0, # of connection points: 6
#     Node 10, Type 1, BuildingBlock: GEDQOX_clean_sbu_0, # of connection points: 6
#     Node 11, Type 1, BuildingBlock: GEDQOX_clean_sbu_0, # of connection points: 6
#     Edge 12, Type (0, 1), BuildingBlock: XUDNAN_clean_linker_2, # of connection points: 2
#     Edge 13, Type (0, 1), BuildingBlock: XUDNAN_clean_linker_2, # of connection points: 2
#     Edge 14, Type (0, 1), BuildingBlock: XUDNAN_clean_linker_2, # of connection points: 2
#     Edge 15, Type (0, 1), BuildingBlock: XUDNAN_clean_linker_2, # of connection points: 2
#     Edge 16, Type (0, 1), BuildingBlock: XUDNAN_clean_linker_2, # of connection points: 2
#     Edge 17, Type (0, 1), BuildingBlock: XUDNAN_clean_linker_2, # of connection points: 2
#     Edge 18, Type (0, 1), BuildingBlock: XUDNAN_clean_linker_2, # of connection points: 2
#     Edge 19, Type (0, 1), BuildingBlock: XUDNAN_clean_linker_2, # of connection points: 2
#     Edge 20, Type (0, 1), BuildingBlock: XUDNAN_clean_linker_2, # of connection points: 2
#     Edge 21, Type (0, 1), BuildingBlock: XUDNAN_clean_linker_2, # of connection points: 2
#     Edge 22, Type (0, 1), BuildingBlock: XUDNAN_clean_linker_2, # of connection points: 2
#     Edge 23, Type (0, 1), BuildingBlock: XUDNAN_clean_linker_2, # of connection points: 2
#     Edge 24, Type (0, 1), BuildingBlock: XUDNAN_clean_linker_2, # of connection points: 2
#     Edge 25, Type (0, 1), BuildingBlock: XUDNAN_clean_linker_2, # of connection points: 2
#     Edge 26, Type (0, 1), BuildingBlock: XUDNAN_clean_linker_2, # of connection points: 2
#     Edge 27, Type (0, 1), BuildingBlock: XUDNAN_clean_linker_2, # of connection points: 2
#     Edge 28, Type (0, 1), BuildingBlock: XUDNAN_clean_linker_2, # of connection points: 2
#     Edge 29, Type (0, 1), BuildingBlock: XUDNAN_clean_linker_2, # of connection points: 2
#     Edge 30, Type (0, 1), BuildingBlock: XUDNAN_clean_linker_2, # of connection points: 2
#     Edge 31, Type (0, 1), BuildingBlock: XUDNAN_clean_linker_2, # of connection points: 2
#     Edge 32, Type (0, 1), BuildingBlock: XUDNAN_clean_linker_2, # of connection points: 2
#     Edge 33, Type (0, 1), BuildingBlock: XUDNAN_clean_linker_2, # of connection points: 2
#     Edge 34, Type (0, 1), BuildingBlock: XUDNAN_clean_linker_2, # of connection points: 2
#     Edge 35, Type (0, 1), BuildingBlock: XUDNAN_clean_linker_2, # of connection points: 2
# Relax obj value: 0.130
# Max RMSD: 0.183
# Mean RMSD: 0.086
data_MOF--net-zzz--node1-GEDQOX_clean_sbu_0--node2-BETDAH_clean_linker_0--edge1-XUDNAN_clean_linker_2
_symmetry_space_group_name_H-M    P1
_symmetry_Int_Tables_number       1
_symmetry_cell_setting            triclinic
loop_
_symmetry_equiv_pos_as_xyz
'x, y, z'
_cell_length_a     54.546674
_cell_length_b     53.961031
_cell_length_c     17.368128
_cell_angle_alpha  79.506774
_cell_angle_beta   89.065018
_cell_angle_gamma 99.906871
loop_
_atom_site_label
_atom_site_type_symbol
_atom_site_fract_x
_atom_site_fract_y
_atom_site_fract_z
_atom_type_partial_charge
H0 H 0.85157 0.55622 0.16638 0.0
H1 H 0.78291 0.54697 0.0485 0.0
H2 H 0.78896 0.58511 0.24661 0.0
C3 C 0.83265 0.55976 0.16054 0.0
C4 C 0.82226 0.57204 0.21411 0.0
C5 C 0.81879 0.55102 0.1005 0.0
C6 C 0.79372 0.55401 0.0943 0.0
C7 C 0.78295 0.56634 0.14785 0.0
C8 C 0.79738 0.57542 0.20654 0.0
N9 N 0.7578 0.5702 0.14592 0.0
C10 C 0.73969 0.56142 0.0969 0.0
H11 H 0.02644 0.83033 0.28226 0.0
H12 H 0.02949 0.76868 0.15823 0.0
H13 H 0.01422 0.75313 0.40946 0.0
C14 C 0.0255 0.81003 0.28283 0.0
C15 C 0.01969 0.79293 0.35361 0.0
C16 C 0.02937 0.80176 0.21253 0.0
C17 C 0.02718 0.77526 0.21275 0.0
C18 C 0.02201 0.75748 0.2844 0.0
C19 C 0.01849 0.76662 0.35458 0.0
N20 N 0.01977 0.73042 0.28946 0.0
C21 C 0.02213 0.71683 0.22898 0.0
H22 H 0.69573 0.00761 0.18691 0.0
H23 H 0.75822 1.00236 0.04052 0.0
H24 H 0.74683 0.95811 0.27537 0.0
C25 C 0.71243 0.99974 0.17918 0.0
C26 C 0.71958 0.98205 0.24016 0.0
C27 C 0.72612 1.00706 0.10732 0.0
C28 C 0.74788 0.99716 0.0966 0.0
C29 C 0.75552 0.97965 0.15816 0.0
C30 C 0.74118 0.97206 0.22908 0.0
N31 N 0.77654 0.96798 0.14966 0.0
C32 C 0.79806 0.97954 0.10406 0.0
H33 H 0.53561 0.73363 0.4318 0.0
H34 H 0.53598 0.81154 0.32613 0.0
H35 H 0.54244 0.79119 0.57627 0.0
C36 C 0.53695 0.75345 0.43822 0.0
C37 C 0.53992 0.76002 0.51226 0.0
C38 C 0.53551 0.77194 0.37177 0.0
C39 C 0.53678 0.79752 0.37844 0.0
C40 C 0.53891 0.80464 0.45254 0.0
C41 C 0.54053 0.78576 0.51932 0.0
N42 N 0.53946 0.83044 0.4616 0.0
C43 C 0.53661 0.85028 0.40037 0.0
H44 H 0.20133 0.51278 0.65487 0.0
H45 H 0.26679 0.51598 0.79067 0.0
H46 H 0.25814 0.47098 0.60854 0.0
C47 C 0.21975 0.5083 0.66558 0.0
C48 C 0.22859 0.49197 0.62218 0.0
C49 C 0.23315 0.51711 0.72657 0.0
C50 C 0.25642 0.50977 0.74287 0.0
C51 C 0.26556 0.49323 0.69958 0.0
C52 C 0.25132 0.48409 0.64056 0.0
N53 N 0.288 0.48384 0.71734 0.0
C54 C 0.30929 0.4977 0.74263 0.0
H55 H 0.03142 0.2245 0.5781 0.0
H56 H 0.02621 0.28852 0.68841 0.0
H57 H 0.04884 0.30079 0.44241 0.0
C58 C 0.0339 0.24511 0.57408 0.0
C59 C 0.04134 0.26125 0.50217 0.0
C60 C 0.02846 0.25465 0.64075 0.0
C61 C 0.03059 0.28123 0.63669 0.0
C62 C 0.03821 0.29815 0.56485 0.0
C63 C 0.04324 0.28791 0.49775 0.0
N64 N 0.04089 0.32537 0.55682 0.0
C65 C 0.03723 0.33934 0.61541 0.0
H66 H 0.35012 0.05687 0.63765 0.0
H67 H 0.285 0.05474 0.7843 0.0
H68 H 0.29372 0.0992 0.54987 0.0
C69 C 0.33179 0.06155 0.64532 0.0
C70 C 0.32303 0.07793 0.58427 0.0
C71 C 0.31842 0.05297 0.71786 0.0
C72 C 0.29535 0.06072 0.72833 0.0
C73 C 0.28641 0.07736 0.66715 0.0
C74 C 0.30049 0.08608 0.59611 0.0
N75 N 0.26437 0.08737 0.67626 0.0
C76 C 0.24347 0.075 0.72373 0.0
H77 H 0.55143 0.34734 0.31122 0.0
H78 H 0.55409 0.27133 0.43575 0.0
H79 H 0.52098 0.28244 0.211 0.0
C80 C 0.54833 0.32679 0.31388 0.0
C81 C 0.53628 0.31691 0.25269 0.0
C82 C 0.55475 0.31059 0.38042 0.0
C83 C 0.54913 0.28393 0.38473 0.0
C84 C 0.5371 0.27364 0.32332 0.0
C85 C 0.53066 0.29027 0.25761 0.0
N86 N 0.5309 0.24675 0.32648 0.0
C87 C 0.53186 0.22851 0.39385 0.0
Nd88 Nd 0.01389 0.02185 0.83658 0.0
Nd89 Nd 0.02779 0.03338 0.99366 0.0
C90 C 0.99745 0.99916 0.71887 0.0
C91 C 1.00022 0.97485 0.69394 0.0
C92 C 0.99728 0.97217 0.61563 0.0
C93 C 0.99996 0.94922 0.59179 0.0
C94 C 0.0055 0.92826 0.64596 0.0
C95 C 0.00843 0.93116 0.7245 0.0
C96 C 0.00604 0.95419 0.74785 0.0
C97 C 0.06429 0.03646 0.85033 0.0
C98 C 0.02224 0.97493 0.97832 0.0
C99 C 0.04668 0.05622 0.10839 0.0
C100 C 0.04639 0.08089 0.13506 0.0
C101 C 0.04447 0.08123 0.21553 0.0
C102 C 0.0443 0.10425 0.2422 0.0
C103 C 0.04609 0.12767 0.18902 0.0
C104 C 0.04792 0.12721 0.10818 0.0
C105 C 0.04803 0.10415 0.08155 0.0
C106 C 0.97736 0.01858 0.98129 0.0
C107 C 0.01531 0.07939 0.85405 0.0
O108 O 0.98447 0.9971 0.78442 0.0
O109 O 0.0175 0.0167 0.71271 0.0
O110 O 0.05237 0.04448 0.7895 0.0
O111 O 0.04976 0.02106 0.90151 0.0
O112 O 0.00956 0.98252 0.9173 0.0
O113 O 0.03519 0.99185 0.01526 0.0
O114 O 0.0589 0.05722 0.04211 0.0
O115 O 0.02574 0.03982 0.11667 0.0
O116 O 0.98926 0.01132 0.04309 0.0
O117 O 0.99182 0.03381 0.92961 0.0
O118 O 0.0291 0.07317 0.91393 0.0
O119 O 1.00333 0.06167 0.81828 0.0
H120 H 0.99303 0.98791 0.57268 0.0
H121 H 0.99806 0.94812 0.53052 0.0
H122 H 0.01234 0.91556 0.76854 0.0
H123 H 0.00875 0.95583 0.80822 0.0
H124 H 0.04305 0.06358 0.25804 0.0
H125 H 0.04238 0.10356 0.30473 0.0
H126 H 0.04961 0.14475 0.06523 0.0
H127 H 0.0495 0.10457 0.01905 0.0
Nd128 Nd 0.52537 0.02206 0.84878 0.0
Nd129 Nd 0.52386 0.06064 0.96993 0.0
C130 C 0.5278 0.98525 0.76923 0.0
C131 C 0.54903 0.98031 0.72481 0.0
C132 C 0.54612 0.96097 0.67997 0.0
C133 C 0.56679 0.95629 0.63946 0.0
C134 C 0.59064 0.97077 0.64397 0.0
C135 C 0.59332 0.99016 0.68896 0.0
C136 C 0.57272 0.99492 0.72867 0.0
C137 C 0.53282 0.07358 0.78491 0.0
C138 C 0.57712 0.04941 0.91052 0.0
C139 C 0.51792 0.10047 0.03207 0.0
C140 C 0.49938 0.10465 0.08902 0.0
C141 C 0.48476 0.12351 0.06651 0.0
C142 C 0.46493 0.12562 0.11554 0.0
C143 C 0.45942 0.10896 0.18835 0.0
C144 C 0.47478 0.09077 0.21208 0.0
C145 C 0.49445 0.08853 0.1628 0.0
C146 C 0.52324 0.01113 0.04972 0.0
C147 C 0.47099 0.0282 0.92415 0.0
O148 O 0.53034 0.9825 0.84494 0.0
O149 O 0.51918 1.00604 0.74018 0.0
O150 O 0.54412 0.05737 0.75809 0.0
O151 O 0.51776 0.06212 0.84109 0.0
O152 O 0.56504 0.02835 0.8902 0.0
O153 O 0.5654 0.06717 0.92983 0.0
O154 O 0.50926 0.09666 0.96463 0.0
O155 O 0.53351 0.08526 0.05826 0.0
O156 O 0.52282 0.03029 0.08511 0.0
O157 O 0.52387 0.01925 0.97714 0.0
O158 O 0.48235 0.04534 0.96354 0.0
O159 O 0.48311 0.01653 0.87859 0.0
H160 H 0.52796 0.9495 0.67647 0.0
H161 H 0.56417 0.94121 0.60532 0.0
H162 H 0.6113 1.00201 0.69238 0.0
H163 H 0.57531 0.01008 0.76248 0.0
H164 H 0.48812 0.13605 0.00967 0.0
H165 H 0.45339 0.13968 0.09504 0.0
H166 H 0.47142 0.07798 0.26845 0.0
H167 H 0.50534 0.07373 0.18179 0.0
Nd168 Nd 0.51505 0.53782 0.96104 0.0
Nd169 Nd 0.53778 0.53143 0.81232 0.0
C170 C 0.49319 0.55527 0.0714 0.0
C171 C 0.49912 0.58125 0.08819 0.0
C172 C 0.48555 0.5892 0.14528 0.0
C173 C 0.4913 0.6145 0.15738 0.0
C174 C 0.51025 0.63241 0.11086 0.0
C175 C 0.52355 0.62405 0.05341 0.0
C176 C 0.51848 0.59869 0.04386 0.0
C177 C 0.56586 0.53909 0.96227 0.0
C178 C 0.53246 0.58851 0.82012 0.0
C179 C 0.56474 0.51626 0.70817 0.0
C180 C 0.56907 0.49089 0.69821 0.0
C181 C 0.59184 0.48819 0.66531 0.0
C182 C 0.59603 0.46403 0.65595 0.0
C183 C 0.57742 0.44218 0.67909 0.0
C184 C 0.55488 0.445 0.71424 0.0
C185 C 0.55081 0.46908 0.72408 0.0
C186 C 0.48788 0.53288 0.80549 0.0
C187 C 0.51674 0.48083 0.95025 0.0
O188 O 0.48374 0.55397 0.00325 0.0
O189 O 0.51082 0.54168 0.08536 0.0
O190 O 0.55044 0.52688 0.01964 0.0
O191 O 0.55445 0.55028 0.90796 0.0
O192 O 0.51686 0.57715 0.87992 0.0
O193 O 0.54632 0.5753 0.78662 0.0
O194 O 0.57396 0.52401 0.77038 0.0
O195 O 0.5422 0.52089 0.69616 0.0
O196 O 0.50428 0.54419 0.74952 0.0
O197 O 0.49768 0.52043 0.86206 0.0
O198 O 0.53411 0.49161 0.89452 0.0
O199 O 0.50255 0.49466 0.97916 0.0
H200 H 0.47068 0.57588 0.18062 0.0
H201 H 0.48101 0.61979 0.20378 0.0
H202 H 0.53785 0.63703 0.01492 0.0
H203 H 0.52968 0.59277 0.00102 0.0
H204 H 0.60632 0.50478 0.64643 0.0
H205 H 0.61375 0.46253 0.62984 0.0
H206 H 0.53995 0.42876 0.73174 0.0
H207 H 0.53321 0.47071 0.75086 0.0
Nd208 Nd 0.02653 0.54438 0.83952 0.0
Nd209 Nd 0.02602 0.5083 0.00382 0.0
C210 C 0.01663 0.57676 0.71457 0.0
C211 C 0.99378 0.58219 0.67613 0.0
C212 C 0.99504 0.60216 0.61127 0.0
C213 C 0.97358 0.606 0.57078 0.0
C214 C 0.95052 0.58994 0.59482 0.0
C215 C 0.94935 0.57032 0.66104 0.0
C216 C 0.97076 0.56645 0.70101 0.0
C217 C 0.03186 0.49454 0.83552 0.0
C218 C 0.97276 0.51653 0.93706 0.0
C219 C 0.03387 0.46943 0.11077 0.0
C220 C 0.05237 0.46591 0.1712 0.0
C221 C 0.0667 0.44663 0.17186 0.0
C222 C 0.0861 0.44461 0.223 0.0
C223 C 0.09153 0.46178 0.27499 0.0
C224 C 0.07659 0.48058 0.27589 0.0
C225 C 0.05732 0.48273 0.22427 0.0
C226 C 0.02842 0.55852 0.0265 0.0
C227 C 0.07939 0.5409 0.91468 0.0
O228 O 0.01996 0.58302 0.78345 0.0
O229 O 0.02191 0.55422 0.71193 0.0
O230 O 0.0442 0.51459 0.78916 0.0
O231 O 0.01706 0.5012 0.8818 0.0
O232 O 0.98509 0.535 0.88239 0.0
O233 O 0.98415 0.5012 0.98653 0.0
O234 O 0.0428 0.47362 0.03812 0.0
O235 O 0.01736 0.48373 0.12136 0.0
O236 O 0.02732 0.53896 0.08321 0.0
O237 O 0.02794 0.55055 0.96252 0.0
O238 O 0.06754 0.52076 0.96476 0.0
O239 O 0.06752 0.55568 0.86486 0.0
H240 H 0.01268 0.61444 0.59099 0.0
H241 H 0.97509 0.62139 0.52034 0.0
H242 H 0.93206 0.55728 0.6804 0.0
H243 H 0.96941 0.55064 0.7499 0.0
H244 H 0.06334 0.43357 0.13106 0.0
H245 H 0.09736 0.4301 0.21985 0.0
H246 H 0.07988 0.49383 0.31607 0.0
H247 H 0.04668 0.49789 0.22492 0.0
H248 H 0.20176 0.08764 0.66315 0.0
H249 H 0.22968 0.04263 0.8639 0.0
H250 H 0.18641 0.02849 0.92256 0.0
H251 H 0.1542 0.10883 0.7682 0.0
H252 H 0.13243 0.10697 0.6916 0.0
H253 H 0.16543 0.11347 0.66749 0.0
H254 H 0.16061 0.07462 0.59687 0.0
H255 H 0.12759 0.06809 0.62045 0.0
H256 H 0.14594 0.04346 0.64925 0.0
H257 H 0.13927 0.01922 0.95698 0.0
H258 H 0.0932 0.01475 0.96249 0.0
H259 H 0.09737 0.06631 0.73795 0.0
C260 C 0.19868 0.0748 0.71954 0.0
C261 C 0.21871 0.06608 0.75943 0.0
C262 C 0.21431 0.04937 0.83287 0.0
C263 C 0.18989 0.04135 0.86641 0.0
C264 C 0.17034 0.05037 0.82547 0.0
C265 C 0.17457 0.06673 0.7535 0.0
C266 C 0.1506 0.0735 0.72039 0.0
C267 C 0.15068 0.1024 0.71143 0.0
C268 C 0.14592 0.06436 0.64213 0.0
C269 C 0.13204 0.05827 0.78449 0.0
C270 C 0.14367 0.04512 0.84492 0.0
C271 C 0.13005 0.0295 0.90999 0.0
C272 C 0.10392 0.0271 0.91271 0.0
C273 C 0.09178 0.04018 0.85062 0.0
C274 C 0.10614 0.05611 0.78633 0.0
H275 H 0.55814 0.18956 0.41748 0.0
H276 H 0.50354 0.22366 0.52579 0.0
H277 H 0.49981 0.18893 0.64273 0.0
H278 H 0.5294 0.12501 0.48203 0.0
H279 H 0.55801 0.11286 0.49915 0.0
H280 H 0.5577 0.14129 0.42685 0.0
H281 H 0.59275 0.16633 0.49629 0.0
H282 H 0.59318 0.13792 0.56883 0.0
H283 H 0.58848 0.16708 0.59894 0.0
H284 H 0.49941 0.14871 0.74189 0.0
H285 H 0.50307 0.10644 0.81853 0.0
H286 H 0.5594 0.09897 0.64938 0.0
C287 C 0.54571 0.18979 0.46653 0.0
C288 C 0.53117 0.20914 0.46364 0.0
C289 C 0.51486 0.20893 0.52779 0.0
C290 C 0.51266 0.18933 0.5942 0.0
C291 C 0.52706 0.17026 0.59535 0.0
C292 C 0.5434 0.1704 0.53346 0.0
C293 C 0.55599 0.14711 0.54839 0.0
C294 C 0.5499 0.1306 0.48536 0.0
C295 C 0.58428 0.15509 0.55342 0.0
C296 C 0.54383 0.1336 0.62754 0.0
C297 C 0.52727 0.14734 0.65362 0.0
C298 C 0.51271 0.13806 0.72289 0.0
C299 C 0.51506 0.11407 0.76647 0.0
C300 C 0.53199 0.09968 0.74124 0.0
C301 C 0.54665 0.10974 0.671 0.0
H302 H 0.34208 0.47603 0.83647 0.0
H303 H 0.33228 0.54576 0.68134 0.0
H304 H 0.37675 0.56409 0.6913 0.0
H305 H 0.38874 0.50714 0.96233 0.0
H306 H 0.40606 0.48123 0.97193 0.0
H307 H 0.37287 0.47504 0.96093 0.0
H308 H 0.37976 0.4543 0.84092 0.0
H309 H 0.41291 0.46062 0.85108 0.0
H310 H 0.40003 0.47242 0.7595 0.0
H311 H 0.42293 0.5722 0.70297 0.0
H312 H 0.4675 0.57093 0.72192 0.0
H313 H 0.44784 0.49666 0.8745 0.0
C314 C 0.34923 0.49548 0.80686 0.0
C315 C 0.33389 0.50981 0.75927 0.0
C316 C 0.34379 0.53481 0.71914 0.0
C317 C 0.36899 0.54528 0.72437 0.0
C318 C 0.3839 0.53049 0.77041 0.0
C319 C 0.37435 0.50625 0.8119 0.0
C320 C 0.39477 0.49376 0.85282 0.0
C321 C 0.39034 0.48902 0.94233 0.0
C322 C 0.39699 0.46881 0.82434 0.0
C323 C 0.41741 0.51439 0.82577 0.0
C324 C 0.41065 0.53545 0.77848 0.0
C325 C 0.42838 0.55606 0.74113 0.0
C326 C 0.45364 0.55512 0.75193 0.0
C327 C 0.46102 0.53384 0.80019 0.0
C328 C 0.44264 0.51339 0.83857 0.0
H329 H 0.0601 0.38904 0.5907 0.0
H330 H 0.00792 0.33232 0.74936 0.0
H331 H 1.00186 0.36532 0.82743 0.0
H332 H 0.08853 0.42409 0.73757 0.0
H333 H 0.0916 0.45484 0.67337 0.0
H334 H 0.09246 0.42651 0.63303 0.0
H335 H 0.05637 0.43659 0.54458 0.0
H336 H 0.05535 0.46492 0.58463 0.0
H337 H 0.02764 0.441 0.58851 0.0
H338 H 1.00046 0.40597 0.88519 0.0
H339 H 1.00381 0.44953 0.91616 0.0
H340 H 0.05718 0.47933 0.71952 0.0
C341 C 0.04763 0.38355 0.6425 0.0
C342 C 0.0346 0.35811 0.66462 0.0
C343 C 0.0182 0.35166 0.73195 0.0
C344 C 0.01466 0.37032 0.77648 0.0
C345 C 0.02768 0.39539 0.75293 0.0
C346 C 0.04392 0.40195 0.68748 0.0
C347 C 0.0552 0.43027 0.67304 0.0
C348 C 0.08363 0.43415 0.67968 0.0
C349 C 0.04821 0.444 0.59295 0.0
C350 C 0.04266 0.43879 0.74001 0.0
C351 C 0.02689 0.41843 0.78573 0.0
C352 C 0.01288 0.42194 0.84984 0.0
C353 C 0.01489 0.44677 0.86713 0.0
C354 C 0.03078 0.46793 0.82061 0.0
C355 C 0.04495 0.46362 0.75668 0.0
H356 H 0.83931 0.96403 0.16007 0.0
H357 H 0.81247 0.01452 0.96975 0.0
H358 H 0.85583 0.02905 0.91242 0.0
H359 H 0.89522 1.0059 0.18467 0.0
H360 H 0.91334 0.98075 0.20652 0.0
H361 H 0.88028 0.97391 0.2292 0.0
H362 H 0.87546 0.93801 0.1467 0.0
H363 H 0.90854 0.94481 0.12357 0.0
H364 H 0.88704 0.94547 0.04581 0.0
H365 H 0.90278 0.03827 0.87851 0.0
H366 H 0.94879 0.04266 0.87346 0.0
H367 H 0.94403 0.9862 0.08807 0.0
C368 C 0.84264 0.97806 0.10607 0.0
C369 C 0.82288 0.98822 0.06873 0.0
C370 C 0.82761 1.00658 0.99862 0.0
C371 C 0.85209 0.01485 0.96584 0.0
C372 C 0.87136 1.00443 0.00422 0.0
C373 C 0.86683 0.98644 0.07293 0.0
C374 C 0.89064 0.97863 0.10419 0.0
C375 C 0.89513 0.98521 0.18597 0.0
C376 C 0.8904 0.95003 0.10509 0.0
C377 C 0.90945 0.9953 0.04317 0.0
C378 C 0.89804 0.00988 0.98545 0.0
C379 C 0.91184 0.02689 0.92335 0.0
C380 C 0.93794 0.02922 0.92087 0.0
C381 C 0.9499 0.0148 0.98049 0.0
C382 C 0.93538 0.99749 0.04177 0.0
H383 H 0.53865 0.90017 0.41041 0.0
H384 H 0.5274 0.84715 0.24901 0.0
H385 H 0.52242 0.8825 0.14168 0.0
H386 H 0.49327 0.93846 0.3288 0.0
H387 H 0.51147 0.96825 0.3438 0.0
H388 H 0.51417 0.93872 0.40811 0.0
H389 H 0.56157 0.94806 0.37755 0.0
H390 H 0.55932 0.97735 0.31164 0.0
H391 H 0.57356 0.95335 0.27727 0.0
H392 H 0.51864 0.92372 0.05152 0.0
H393 H 0.51653 0.96791 0.98562 0.0
H394 H 0.53032 0.99435 0.20451 0.0
C395 C 0.53513 0.89611 0.35236 0.0
C396 C 0.53354 0.87104 0.33761 0.0
C397 C 0.52884 0.86625 0.26139 0.0
C398 C 0.52592 0.88622 0.20003 0.0
C399 C 0.52762 0.91082 0.21615 0.0
C400 C 0.53203 0.91585 0.29047 0.0
C401 C 0.53281 0.94398 0.29207 0.0
C402 C 0.51167 0.94755 0.34641 0.0
C403 C 0.55835 0.9564 0.316 0.0
C404 C 0.52858 0.95402 0.20688 0.0
C405 C 0.5255 0.93455 0.16416 0.0
C406 C 0.52121 0.93913 0.08431 0.0
C407 C 0.52025 0.9643 0.04708 0.0
C408 C 0.52371 0.98456 0.08942 0.0
C409 C 0.52772 0.97923 0.17051 0.0
H410 H 0.69614 0.53312 0.16087 0.0
H411 H 0.73214 0.57805 0.94382 0.0
H412 H 0.69141 0.5743 0.88126 0.0
H413 H 0.64823 0.49013 0.07093 0.0
H414 H 0.62475 0.4899 0.14539 0.0
H415 H 0.65708 0.49319 0.16879 0.0
H416 H 0.65391 0.53503 0.21849 0.0
H417 H 0.62172 0.53206 0.19442 0.0
H418 H 0.64342 0.56084 0.15392 0.0
H419 H 0.64607 0.56995 0.84813 0.0
H420 H 0.60014 0.56379 0.84469 0.0
H421 H 0.59364 0.52124 0.08353 0.0
C422 C 0.69547 0.54137 0.09937 0.0
C423 C 0.71715 0.55539 0.05621 0.0
C424 C 0.71569 0.56677 0.97691 0.0
C425 C 0.69265 0.56481 0.94122 0.0
C426 C 0.67137 0.55134 0.98586 0.0
C427 C 0.67263 0.53955 0.06303 0.0
C428 C 0.64687 0.5278 0.09986 0.0
C429 C 0.64407 0.49852 0.12256 0.0
C430 C 0.64116 0.53965 0.17084 0.0
C431 C 0.63083 0.53544 0.03222 0.0
C432 C 0.64531 0.54885 0.9668 0.0
C433 C 0.6346 0.55912 0.8986 0.0
C434 C 0.60849 0.55558 0.89725 0.0
C435 C 0.59334 0.5419 0.96362 0.0
C436 C 0.60474 0.53156 0.03163 0.0
H437 H 0.01549 0.66581 0.28161 0.0
H438 H 0.03175 0.72349 0.07024 0.0
H439 H 0.03428 0.68936 0.99282 0.0
H440 H 0.05666 0.62516 0.23639 0.0
H441 H 0.03605 0.59584 0.27903 0.0
H442 H 0.03475 0.62474 0.31571 0.0
H443 H 0.98766 0.62003 0.29047 0.0
H444 H 0.98877 0.59112 0.25357 0.0
H445 H 0.9773 0.61726 0.19389 0.0
H446 H 0.03532 0.64753 0.93913 0.0
H447 H 0.03574 0.60345 0.91622 0.0
H448 H 0.01954 0.57392 0.16425 0.0
C449 C 0.0195 0.67122 0.21889 0.0
C450 C 0.02341 0.69724 0.18165 0.0
C451 C 0.02867 0.70364 0.09971 0.0
C452 C 0.03011 0.68434 0.05543 0.0
C453 C 0.02622 0.65872 0.09402 0.0
C454 C 0.021 0.65223 0.17413 0.0
C455 C 0.01794 0.62349 0.20238 0.0
C456 C 0.03752 0.61693 0.26188 0.0
C457 C 0.99135 0.61233 0.2371 0.0
C458 C 0.02261 0.61469 0.12609 0.0
C459 C 0.02712 0.63518 0.06389 0.0
C460 C 0.0318 0.63146 0.98768 0.0
C461 C 0.03198 0.60633 0.97503 0.0
C462 C 0.02774 0.58517 0.03826 0.0
C463 C 0.02296 0.58963 0.11455 0.0
H464 H 0.05648 0.22974 0.74451 0.0
H465 H 0.98055 0.23356 0.68359 0.0
H466 H 0.96742 0.18838 0.74786 0.0
H467 H 0.05908 0.17507 0.69653 0.0
H468 H 0.07715 0.16141 0.77383 0.0
H469 H 0.07991 0.19556 0.74747 0.0
H470 H 0.06796 0.19885 0.88962 0.0
H471 H 0.06633 0.16473 0.91791 0.0
H472 H 0.04004 0.17906 0.93856 0.0
H473 H 0.96538 0.14097 0.77988 0.0
H474 H 0.97253 0.09618 0.80723 0.0
H475 H 0.04934 0.12283 0.85485 0.0
C476 C 0.0368 0.22158 0.75059 0.0
C477 C 0.01937 0.23523 0.7112 0.0
C478 C 0.99396 0.22364 0.71586 0.0
C479 C 0.98644 0.19783 0.75121 0.0
C480 C 0.00451 0.18413 0.78321 0.0
C481 C 0.02904 0.19585 0.78628 0.0
C482 C 0.04534 0.17626 0.81515 0.0
C483 C 0.0666 0.17715 0.75461 0.0
C484 C 0.05551 0.17994 0.89508 0.0
C485 C 0.02654 0.15168 0.82283 0.0
C486 C 1.00308 0.15659 0.80423 0.0
C487 C 0.98344 0.1369 0.79734 0.0
C488 C 0.98774 0.11157 0.8118 0.0
C489 C 0.01141 0.10616 0.83357 0.0
C490 C 0.03095 0.12648 0.83957 0.0
H491 H 0.34543 0.01506 0.71257 0.0
H492 H 0.32161 0.0614 0.86873 0.0
H493 H 0.35407 0.05009 0.95883 0.0
H494 H 0.37269 0.96714 0.86572 0.0
H495 H 0.39831 0.96816 0.79765 0.0
H496 H 0.36791 0.97131 0.76203 0.0
H497 H 0.38725 0.01397 0.67076 0.0
H498 H 0.41747 0.01131 0.70679 0.0
H499 H 0.40449 0.03949 0.71263 0.0
H500 H 0.39503 0.04408 0.01177 0.0
H501 H 0.4398 0.04361 0.02389 0.0
H502 H 0.43965 1.00423 0.82713 0.0
C503 C 0.34635 0.02187 0.76757 0.0
C504 C 0.33099 0.03915 0.78352 0.0
C505 C 0.33282 0.04782 0.85569 0.0
C506 C 0.35139 0.04158 0.9071 0.0
C507 C 0.36786 0.02656 0.88568 0.0
C508 C 0.36527 0.01649 0.8179 0.0
C509 C 0.388 1.00548 0.79941 0.0
C510 C 0.38133 0.97628 0.80667 0.0
C511 C 0.39999 0.01835 0.71764 0.0
C512 C 0.40453 0.01252 0.86414 0.0
C513 C 0.39226 0.02388 0.91478 0.0
C514 C 0.40459 0.03463 0.97372 0.0
C515 C 0.43015 0.0344 0.97978 0.0
C516 C 0.44333 0.02384 0.92644 0.0
C517 C 0.43007 0.01201 0.86968 0.0
H518 H 0.58912 0.35431 0.37361 0.0
H519 H 0.54271 0.29349 0.53771 0.0
H520 H 0.55213 0.31811 0.64334 0.0
H521 H 0.63428 0.37983 0.51802 0.0
H522 H 0.63421 0.41227 0.469 0.0
H523 H 0.63078 0.38676 0.41366 0.0
H524 H 0.58979 0.39973 0.36015 0.0
H525 H 0.59298 0.42502 0.41539 0.0
H526 H 0.565 0.40111 0.42832 0.0
H527 H 0.55883 0.35274 0.72289 0.0
H528 H 0.56114 0.39396 0.76723 0.0
H529 H 0.59947 0.43342 0.54653 0.0
C530 C 0.58157 0.3458 0.43236 0.0
C531 C 0.56517 0.32198 0.44728 0.0
C532 C 0.55566 0.31149 0.52493 0.0
C533 C 0.56088 0.32541 0.58539 0.0
C534 C 0.57571 0.3497 0.5673 0.0
C535 C 0.5861 0.3597 0.49256 0.0
C536 C 0.59744 0.38775 0.48403 0.0
C537 C 0.62587 0.39189 0.4704 0.0
C538 C 0.58558 0.40435 0.41816 0.0
C539 C 0.59043 0.39244 0.56402 0.0
C540 C 0.57866 0.37012 0.61219 0.0
C541 C 0.5684 0.37023 0.68614 0.0
C542 C 0.56957 0.3938 0.71048 0.0
C543 C 0.58041 0.41702 0.66025 0.0
C544 C 0.59163 0.41606 0.58723 0.0
H545 H 0.20629 0.55514 0.68139 0.0
H546 H 0.22918 0.50785 0.88714 0.0
H547 H 0.19601 0.51838 0.96694 0.0
H548 H 0.17832 0.60228 0.78455 0.0
H549 H 0.1531 0.60174 0.71872 0.0
H550 H 0.18369 0.59873 0.68477 0.0
H551 H 0.16464 0.55651 0.64057 0.0
H552 H 0.13422 0.55901 0.67555 0.0
H553 H 0.14705 0.53067 0.71125 0.0
H554 H 0.15447 0.52352 0.01517 0.0
H555 H 0.10958 0.52405 0.029 0.0
H556 H 0.11139 0.56574 0.79006 0.0
C557 C 0.20505 0.54803 0.74406 0.0
C558 C 0.22035 0.53069 0.77805 0.0
C559 C 0.21803 0.52151 0.85995 0.0
C560 C 0.19904 0.52728 0.90567 0.0
C561 C 0.18268 0.54239 0.86872 0.0
C562 C 0.18576 0.55302 0.78972 0.0
C563 C 0.1632 0.56424 0.76049 0.0
C564 C 0.16999 0.59349 0.73569 0.0
C565 C 0.15161 0.55185 0.69308 0.0
C566 C 0.14623 0.5568 0.83398 0.0
C567 C 0.15809 0.54486 0.89631 0.0
C568 C 0.14527 0.53348 0.96749 0.0
C569 C 0.11968 0.53374 0.9746 0.0
C570 C 0.107 0.54512 0.91073 0.0
C571 C 0.12069 0.5575 0.84048 0.0
H572 H 0.06429 0.84519 0.18465 0.0
H573 H 1.0004 0.80502 0.08591 0.0
H574 H 0.99452 0.84581 0.00353 0.0
H575 H 0.03691 0.89279 0.21658 0.0
H576 H 0.06321 0.91868 0.19555 0.0
H577 H 0.06816 0.88639 0.22734 0.0
H578 H 0.09629 0.88925 0.10347 0.0
H579 H 0.09243 0.92205 0.0724 0.0
H580 H 0.08503 0.89944 0.0079 0.0
H581 H 0.98923 0.89091 0.95908 0.0
H582 H 0.98845 0.93694 0.93757 0.0
H583 H 0.05508 0.94925 0.06904 0.0
C584 C 0.05007 0.84482 0.14185 0.0
C585 C 0.03297 0.82192 0.1407 0.0
C586 C 0.01401 0.82217 0.0863 0.0
C587 C 0.01035 0.84538 0.0402 0.0
C588 C 0.02595 0.86802 0.04901 0.0
C589 C 0.04585 0.86789 0.09712 0.0
C590 C 0.05753 0.89494 0.1052 0.0
C591 C 0.05637 0.89838 0.19125 0.0
C592 C 0.08442 0.90183 0.07012 0.0
C593 C 0.04056 0.9103 0.05642 0.0
C594 C 0.02263 0.89434 0.02414 0.0
C595 C 1.00363 0.90363 0.98203 0.0
C596 C 1.00335 0.92991 0.97044 0.0
C597 C 0.02202 0.94694 1.00027 0.0
C598 C 0.04069 0.93685 0.04488 0.0
H599 H 0.69737 0.99023 0.99658 0.0
H600 H 0.72733 0.05838 0.08543 0.0
H601 H 0.69552 0.08071 0.01807 0.0
H602 H 0.67196 0.02403 0.80414 0.0
H603 H 0.64491 0.99897 0.8162 0.0
H604 H 0.67468 0.99166 0.84719 0.0
H605 H 0.65472 0.97155 0.98564 0.0
H606 H 0.62519 0.97932 0.95617 0.0
H607 H 0.63936 0.99066 0.03927 0.0
H608 H 0.6546 0.09111 0.97382 0.0
H609 H 0.61 0.08975 0.94826 0.0
H610 H 0.60615 0.01449 0.88893 0.0
C611 C 0.69824 0.01043 0.99669 0.0
C612 C 0.71522 0.02298 0.04346 0.0
C613 C 0.715 0.04888 0.04729 0.0
C614 C 0.69685 0.06159 0.00967 0.0
C615 C 0.67914 0.04812 0.96834 0.0
C616 C 0.68004 0.02321 0.9601 0.0
C617 C 0.65656 0.0114 0.9252 0.0
C618 C 0.66238 1.00622 0.84331 0.0
C619 C 0.64319 0.98681 0.97987 0.0
C620 C 0.64168 0.03281 0.92022 0.0
C621 C 0.65515 0.05404 0.94369 0.0
C622 C 0.64414 0.07491 0.95303 0.0
C623 C 0.61872 0.0739 0.93886 0.0
C624 C 0.60452 0.05208 0.91627 0.0
C625 C 0.61647 0.03165 0.90501 0.0
H626 H 0.49421 0.74661 0.31869 0.0
H627 H 0.57258 0.77568 0.26283 0.0
H628 H 0.57252 0.74737 0.16595 0.0
H629 H 0.49612 0.68676 0.33013 0.0
H630 H 0.46741 0.67622 0.28619 0.0
H631 H 0.47069 0.70417 0.33003 0.0
H632 H 0.46043 0.73172 0.20049 0.0
H633 H 0.45614 0.7036 0.15631 0.0
H634 H 0.47763 0.73194 0.11079 0.0
H635 H 0.56732 0.70785 0.11223 0.0
H636 H 0.5562 0.66431 0.08724 0.0
H637 H 0.47958 0.66186 0.16634 0.0
C638 C 0.51082 0.74815 0.28185 0.0
C639 C 0.53324 0.76357 0.29604 0.0
C640 C 0.55513 0.76444 0.25053 0.0
C641 C 0.55525 0.74832 0.19585 0.0
C642 C 0.53319 0.73187 0.18696 0.0
C643 C 0.51111 0.73225 0.22681 0.0
C644 C 0.49104 0.71014 0.21597 0.0
C645 C 0.48074 0.69335 0.29527 0.0
C646 C 0.47007 0.71994 0.168 0.0
C647 C 0.50585 0.69607 0.16969 0.0
C648 C 0.52999 0.70911 0.15262 0.0
C649 C 0.54817 0.69804 0.12161 0.0
C650 C 0.54154 0.67311 0.10737 0.0
C651 C 0.51674 0.65942 0.12304 0.0
C652 C 0.49868 0.67149 0.15332 0.0
H653 H 0.85165 0.5741 0.98026 0.0
H654 H 0.81743 0.5 0.11204 0.0
H655 H 0.85113 0.48066 0.06349 0.0
H656 H 0.88141 0.54939 0.80971 0.0
H657 H 0.90849 0.57406 0.8062 0.0
H658 H 0.87813 0.58017 0.83099 0.0
H659 H 0.89505 0.5933 0.95895 0.0
H660 H 0.92511 0.58653 0.93603 0.0
H661 H 0.90868 0.57086 0.0276 0.0
H662 H 0.89352 0.4723 0.03208 0.0
H663 H 0.93864 0.47445 0.00634 0.0
H664 H 0.94515 0.55377 0.89073 0.0
C665 C 0.85043 0.55351 0.99406 0.0
C666 C 0.83162 0.53831 0.04759 0.0
C667 C 0.83121 0.51169 0.06876 0.0
C668 C 0.85044 0.50063 0.04197 0.0
C669 C 0.86972 0.51646 0.99326 0.0
C670 C 0.86947 0.54226 0.96749 0.0
C671 C 0.89398 0.55584 0.92499 0.0
C672 C 0.89027 0.56542 0.83779 0.0
C673 C 0.90642 0.5779 0.9643 0.0
C674 C 0.90859 0.53411 0.93547 0.0
C675 C 0.89423 0.51147 0.97409 0.0
C676 C 0.90468 0.48969 0.99942 0.0
C677 C 0.93037 0.49113 0.98512 0.0
C678 C 0.94534 0.51416 0.94561 0.0
C679 C 0.93409 0.53569 0.9192 0.0
H680 H 0.067 0.2221 0.49712 0.0
H681 H 0.02395 0.27152 0.35334 0.0
H682 H 0.02318 0.2446 0.2515 0.0
H683 H 0.10273 0.20522 0.33636 0.0
H684 H 0.1009 0.17274 0.38791 0.0
H685 H 0.10138 0.1983 0.44204 0.0
H686 H 0.06034 0.17412 0.51748 0.0
H687 H 0.05947 0.1487 0.46288 0.0
H688 H 0.03336 0.16511 0.46339 0.0
H689 H 0.02281 0.20851 0.17286 0.0
H690 H 0.02429 0.16868 0.12324 0.0
H691 H 0.067 0.14267 0.3212 0.0
C692 C 0.05791 0.22768 0.44334 0.0
C693 C 0.04558 0.24907 0.43326 0.0
C694 C 0.03385 0.25556 0.36206 0.0
C695 C 0.03315 0.24019 0.30418 0.0
C696 C 0.04441 0.21847 0.31807 0.0
C697 C 0.05685 0.21247 0.38571 0.0
C698 C 0.0658 0.18715 0.39007 0.0
C699 C 0.0944 0.1911 0.389 0.0
C700 C 0.05404 0.16763 0.46275 0.0
C701 C 0.05604 0.17943 0.31509 0.0
C702 C 0.04394 0.19779 0.27387 0.0
C703 C 0.03258 0.19425 0.2043 0.0
C704 C 0.03361 0.1715 0.17634 0.0
C705 C 0.04583 0.15229 0.21783 0.0
C706 C 0.05729 0.15666 0.28799 0.0
H707 H 0.34664 0.05015 0.50034 0.0
H708 H 0.33578 0.12759 0.50528 0.0
H709 H 0.36762 0.14414 0.39642 0.0
H710 H 0.4107 0.06406 0.47521 0.0
H711 H 0.41337 0.04176 0.41117 0.0
H712 H 0.38726 0.03574 0.48071 0.0
H713 H 0.35664 0.03285 0.36873 0.0
H714 H 0.38268 0.03848 0.29878 0.0
H715 H 0.35955 0.05886 0.28576 0.0
H716 H 0.40446 0.15235 0.29869 0.0
H717 H 0.44128 0.1514 0.21516 0.0
H718 H 0.42723 0.06832 0.27442 0.0
C719 C 0.35059 0.07056 0.47733 0.0
C720 C 0.33874 0.08762 0.5109 0.0
C721 C 0.34441 0.11418 0.47955 0.0
C722 C 0.36256 0.12374 0.41811 0.0
C723 C 0.37461 0.10642 0.38841 0.0
C724 C 0.36857 0.08034 0.41635 0.0
C725 C 0.38526 0.06584 0.37847 0.0
C726 C 0.40002 0.05099 0.44006 0.0
C727 C 0.37013 0.04796 0.33004 0.0
C728 C 0.40213 0.08787 0.32633 0.0
C729 C 0.39565 0.11112 0.33235 0.0
C730 C 0.40942 0.13421 0.29249 0.0
C731 C 0.43029 0.13347 0.24506 0.0
C732 C 0.43722 0.10979 0.23806 0.0
C733 C 0.4227 0.08677 0.27902 0.0
H734 H 0.56523 0.35519 0.14902 0.0
H735 H 0.48851 0.32077 0.21751 0.0
H736 H 0.47441 0.35763 0.13468 0.0
H737 H 0.56082 0.41642 0.15675 0.0
H738 H 0.58097 0.43187 0.07214 0.0
H739 H 0.58493 0.40101 0.12475 0.0
H740 H 0.57993 0.38232 0.99745 0.0
H741 H 0.57635 0.41331 0.94382 0.0
H742 H 0.55283 0.38564 0.94105 0.0
H743 H 0.46956 0.40185 0.06722 0.0
H744 H 0.47385 0.4476 0.00523 0.0
H745 H 0.55351 0.45208 0.97173 0.0
C746 C 0.54544 0.35498 0.1436 0.0
C747 C 0.52786 0.33505 0.18831 0.0
C748 C 0.50215 0.33561 0.18215 0.0
C749 C 0.49403 0.35654 0.13568 0.0
C750 C 0.51189 0.37644 0.0946 0.0
C751 C 0.53706 0.37549 0.09634 0.0
C752 C 0.55254 0.40007 0.05123 0.0
C753 C 0.57088 0.4131 0.10441 0.0
C754 C 0.56622 0.39503 0.9791 0.0
C755 C 0.53227 0.4155 0.0272 0.0
C756 C 0.50894 0.40154 0.05267 0.0
C757 C 0.48764 0.41269 0.04496 0.0
C758 C 0.49025 0.4387 0.01021 0.0
C759 C 0.51393 0.45316 0.98274 0.0
C760 C 0.5351 0.44125 0.99041 0.0
H761 H 0.20517 0.51975 0.50877 0.0
H762 H 0.21504 0.44216 0.60245 0.0
H763 H 0.18231 0.42566 0.518 0.0
H764 H 0.14074 0.50669 0.50879 0.0
H765 H 0.13811 0.52886 0.41946 0.0
H766 H 0.16449 0.53467 0.47868 0.0
H767 H 0.19465 0.53675 0.35977 0.0
H768 H 0.16835 0.53137 0.29971 0.0
H769 H 0.19107 0.51053 0.3073 0.0
H770 H 0.14486 0.41772 0.43468 0.0
H771 H 0.10838 0.41907 0.3525 0.0
H772 H 0.12394 0.50219 0.31311 0.0
C773 C 0.20084 0.49931 0.51017 0.0
C774 C 0.21267 0.4822 0.56181 0.0
C775 C 0.20645 0.45559 0.5624 0.0
C776 C 0.18776 0.44607 0.51511 0.0
C777 C 0.17572 0.46347 0.46723 0.0
C778 C 0.18231 0.48957 0.46364 0.0
C779 C 0.16571 0.50423 0.41111 0.0
C780 C 0.15142 0.5195 0.45729 0.0
C781 C 0.18085 0.52175 0.34026 0.0
C782 C 0.14839 0.48231 0.38661 0.0
C783 C 0.15442 0.45893 0.41935 0.0
C784 C 0.14026 0.43595 0.40766 0.0
C785 C 0.11959 0.43693 0.36066 0.0
C786 C 0.11323 0.46073 0.32583 0.0
C787 C 0.128 0.48364 0.33927 0.0
H788 H 0.98631 0.82382 0.36997 0.0
H789 H 0.04417 0.78906 0.49137 0.0
H790 H 0.0444 0.81773 0.58827 0.0
H791 H 0.01185 0.88537 0.3795 0.0
H792 H 0.98301 0.89654 0.3921 0.0
H793 H 0.98359 0.87009 0.34277 0.0
H794 H 0.94939 0.84143 0.4407 0.0
H795 H 0.94818 0.86799 0.48946 0.0
H796 H 0.95375 0.83795 0.54454 0.0
H797 H 0.0428 0.85526 0.65828 0.0
H798 H 0.03761 0.89529 0.70081 0.0
H799 H 0.9805 0.90534 0.53231 0.0
C800 C 0.99829 0.82152 0.41896 0.0
C801 C 0.01497 0.80394 0.424 0.0
C802 C 0.03086 0.80194 0.48753 0.0
C803 C 0.03126 0.81837 0.54226 0.0
C804 C 0.01553 0.83653 0.53279 0.0
C805 C 0.99903 0.83784 0.47327 0.0
C806 C 0.98579 0.86048 0.47059 0.0
C807 C 0.99141 0.87922 0.39158 0.0
C808 C 0.9576 0.85142 0.48735 0.0
C809 C 0.99772 0.87215 0.5369 0.0
C810 C 0.01473 0.85804 0.5724 0.0
C811 C 0.02911 0.86607 0.6319 0.0
C812 C 0.02592 0.8889 0.65594 0.0
C813 C 0.00844 0.90367 0.62075 0.0
C814 C 0.99414 0.89485 0.56056 0.0
H815 H 0.66885 0.9692 0.25713 0.0
H816 H 0.7353 0.97789 0.39051 0.0
H817 H 0.70894 0.97036 0.51283 0.0
H818 H 0.63632 1.00353 0.35418 0.0
H819 H 0.60599 0.9842 0.35373 0.0
H820 H 0.62915 0.98518 0.27788 0.0
H821 H 0.62533 0.93632 0.30915 0.0
H822 H 0.60198 0.93371 0.38624 0.0
H823 H 0.62969 0.92036 0.40727 0.0
H824 H 0.67546 0.96778 0.61714 0.0
H825 H 0.63778 0.96957 0.69531 0.0
H826 H 0.59341 0.96335 0.49236 0.0
C827 C 0.67786 0.96908 0.31227 0.0
C828 C 0.70411 0.97415 0.3145 0.0
C829 C 0.71522 0.97375 0.38769 0.0
C830 C 0.7004 0.96955 0.45734 0.0
C831 C 0.67454 0.96545 0.45267 0.0
C832 C 0.66339 0.96492 0.38199 0.0
C833 C 0.63538 0.96226 0.39155 0.0
C834 C 0.62618 0.98514 0.34135 0.0
C835 C 0.62233 0.93665 0.37237 0.0
C836 C 0.63253 0.96251 0.47814 0.0
C837 C 0.65527 0.96397 0.51267 0.0
C838 C 0.65752 0.96625 0.59097 0.0
C839 C 0.63605 0.96744 0.63472 0.0
C840 C 0.61265 0.96653 0.59995 0.0
C841 C 0.61091 0.96354 0.52103 0.0
H842 H 0.56676 0.72131 0.51973 0.0
H843 H 0.51544 0.751 0.65708 0.0
H844 H 0.51137 0.71157 0.75839 0.0
H845 H 0.53364 0.66002 0.54716 0.0
H846 H 0.56016 0.64405 0.55187 0.0
H847 H 0.56294 0.67629 0.49812 0.0
H848 H 0.5998 0.69132 0.58066 0.0
H849 H 0.5974 0.65899 0.63413 0.0
H850 H 0.59596 0.68477 0.68613 0.0
H851 H 0.50813 0.66654 0.83398 0.0
H852 H 0.50734 0.62063 0.88175 0.0
H853 H 0.56008 0.61963 0.69281 0.0
C854 C 0.5551 0.7198 0.57204 0.0
C855 C 0.5414 0.73927 0.58055 0.0
C856 C 0.52637 0.73655 0.6498 0.0
C857 C 0.52384 0.71413 0.70736 0.0
C858 C 0.53663 0.69476 0.69495 0.0
C859 C 0.55221 0.69754 0.62936 0.0
C860 C 0.56205 0.6731 0.62598 0.0
C861 C 0.55422 0.66277 0.55138 0.0
C862 C 0.59049 0.6773 0.63211 0.0
C863 C 0.54896 0.65577 0.69872 0.0
C864 C 0.5346 0.66873 0.73812 0.0
C865 C 0.51964 0.65638 0.80431 0.0
C866 C 0.5193 0.63018 0.83089 0.0
C867 C 0.53383 0.61642 0.79152 0.0
C868 C 0.54897 0.62957 0.72478 0.0
H869 H 0.87271 0.59088 0.21188 0.0
H870 H 0.80597 0.57024 0.36628 0.0
H871 H 0.83142 0.57848 0.4778 0.0
H872 H 0.90917 0.55767 0.33995 0.0
H873 H 0.93774 0.58034 0.31387 0.0
H874 H 0.91403 0.57755 0.24368 0.0
H875 H 0.91313 0.62602 0.22798 0.0
H876 H 0.93694 0.62896 0.29817 0.0
H877 H 0.90786 0.63941 0.31336 0.0
H878 H 0.86438 0.58404 0.57517 0.0
H879 H 0.9023 0.58545 0.65096 0.0
H880 H 0.94768 0.59928 0.43459 0.0
C881 C 0.8633 0.58829 0.26889 0.0
C882 C 0.83718 0.57996 0.27973 0.0
C883 C 0.82579 0.57711 0.35558 0.0
C884 C 0.84014 0.58162 0.4196 0.0
C885 C 0.86588 0.58898 0.40708 0.0
C886 C 0.87737 0.59233 0.33353 0.0
C887 C 0.90551 0.5977 0.337 0.0
C888 C 0.91729 0.57708 0.30688 0.0
C889 C 0.9165 0.62463 0.29144 0.0
C890 C 0.90805 0.59609 0.42439 0.0
C891 C 0.88498 0.59149 0.46359 0.0
C892 C 0.88254 0.58787 0.54503 0.0
C893 C 0.90419 0.58853 0.58762 0.0
C894 C 0.92801 0.59246 0.54885 0.0
C895 C 0.92985 0.59675 0.46599 0.0
loop_
_geom_bond_atom_site_label_1
_geom_bond_atom_site_label_2
_geom_bond_distance
_geom_bond_site_symmetry_2
_ccdc_geom_bond_type
H0 C3 0.929 . S
H1 C6 0.929 . S
H2 C8 0.930 . S
C3 H0 0.929 . S
C3 C4 1.398 . S
C3 C5 1.396 1_554 S
C4 C3 1.398 . S
C4 C8 1.407 . S
C5 C3 1.396 1_556 S
C5 C6 1.394 . S
C6 H1 0.929 . S
C6 C5 1.394 . S
C6 C7 1.382 1_556 S
C7 C6 1.382 1_554 S
C7 C8 1.392 . S
C7 N9 1.420 . S
C8 H2 0.930 . S
C8 C4 1.407 . S
C8 C7 1.392 . S
N9 C7 1.420 . S
N9 C10 1.244 1_554 S
C10 N9 1.244 1_556 S
H11 C14 0.929 . S
H12 C17 0.929 . S
H13 C19 0.930 . S
C14 H11 0.929 . S
C14 C15 1.398 . S
C14 C16 1.396 . S
C15 C14 1.398 . S
C15 C19 1.407 1_655 S
C16 C14 1.396 . S
C16 C17 1.394 1_655 S
C17 H12 0.929 . S
C17 C16 1.394 1_455 S
C17 C18 1.382 . S
C18 C17 1.382 . S
C18 C19 1.392 . S
C18 N20 1.420 . S
C19 H13 0.930 . S
C19 C15 1.407 1_455 S
C19 C18 1.392 . S
N20 C18 1.420 . S
N20 C21 1.244 1_455 S
C21 N20 1.244 1_655 S
H22 C25 0.929 . S
H23 C28 0.929 1_556 S
H24 C30 0.930 . S
C25 H22 0.929 . S
C25 C26 1.398 . S
C25 C27 1.396 . S
C26 C25 1.398 . S
C26 C30 1.407 . S
C27 C25 1.396 . S
C27 C28 1.394 . S
C28 H23 0.929 1_554 S
C28 C27 1.394 . S
C28 C29 1.382 . S
C29 C28 1.382 . S
C29 C30 1.392 . S
C29 N31 1.420 . S
C30 H24 0.930 . S
C30 C26 1.407 . S
C30 C29 1.392 . S
N31 C29 1.420 . S
N31 C32 1.244 . S
C32 N31 1.244 . S
H33 C36 0.929 . S
H34 C39 0.929 . S
H35 C41 0.930 . S
C36 H33 0.929 . S
C36 C37 1.398 . S
C36 C38 1.396 . S
C37 C36 1.398 . S
C37 C41 1.407 . S
C38 C36 1.396 . S
C38 C39 1.394 . S
C39 H34 0.929 . S
C39 C38 1.394 . S
C39 C40 1.382 . S
C40 C39 1.382 . S
C40 C41 1.392 . S
C40 N42 1.420 . S
C41 H35 0.930 . S
C41 C37 1.407 . S
C41 C40 1.392 . S
N42 C40 1.420 . S
N42 C43 1.244 . S
C43 N42 1.244 . S
H44 C47 0.929 . S
H45 C50 0.929 . S
H46 C52 0.930 . S
C47 H44 0.929 . S
C47 C48 1.398 . S
C47 C49 1.396 . S
C48 C47 1.398 . S
C48 C52 1.407 . S
C49 C47 1.396 . S
C49 C50 1.394 . S
C50 H45 0.929 . S
C50 C49 1.394 . S
C50 C51 1.382 . S
C51 C50 1.382 . S
C51 C52 1.392 . S
C51 N53 1.420 . S
C52 H46 0.930 . S
C52 C48 1.407 . S
C52 C51 1.392 . S
N53 C51 1.420 . S
N53 C54 1.244 . S
C54 N53 1.244 . S
H55 C58 0.929 . S
H56 C61 0.929 . S
H57 C63 0.930 . S
C58 H55 0.929 . S
C58 C59 1.398 . S
C58 C60 1.396 . S
C59 C58 1.398 . S
C59 C63 1.407 . S
C60 C58 1.396 . S
C60 C61 1.394 . S
C61 H56 0.929 . S
C61 C60 1.394 . S
C61 C62 1.382 . S
C62 C61 1.382 . S
C62 C63 1.392 . S
C62 N64 1.420 . S
C63 H57 0.930 . S
C63 C59 1.407 . S
C63 C62 1.392 . S
N64 C62 1.420 . S
N64 C65 1.244 . S
C65 N64 1.244 . S
H66 C69 0.929 . S
H67 C72 0.929 . S
H68 C74 0.930 . S
C69 H66 0.929 . S
C69 C70 1.398 . S
C69 C71 1.396 . S
C70 C69 1.398 . S
C70 C74 1.407 . S
C71 C69 1.396 . S
C71 C72 1.394 . S
C72 H67 0.929 . S
C72 C71 1.394 . S
C72 C73 1.382 . S
C73 C72 1.382 . S
C73 C74 1.392 . S
C73 N75 1.420 . S
C74 H68 0.930 . S
C74 C70 1.407 . S
C74 C73 1.392 . S
N75 C73 1.420 . S
N75 C76 1.244 . S
C76 N75 1.244 . S
H77 C80 0.929 . S
H78 C83 0.929 . S
H79 C85 0.930 . S
C80 H77 0.929 . S
C80 C81 1.398 . S
C80 C82 1.396 . S
C81 C80 1.398 . S
C81 C85 1.407 . S
C82 C80 1.396 . S
C82 C83 1.394 . S
C83 H78 0.929 . S
C83 C82 1.394 . S
C83 C84 1.382 . S
C84 C83 1.382 . S
C84 C85 1.392 . S
C84 N86 1.420 . S
C85 H79 0.930 . S
C85 C81 1.407 . S
C85 C84 1.392 . S
N86 C84 1.420 . S
N86 C87 1.244 . S
C87 N86 1.244 . S
Nd88 C90 2.836 1_545 S
Nd88 O108 2.500 1_445 S
Nd88 O109 2.492 1_545 S
Nd88 O110 2.487 . S
Nd88 O111 2.682 . S
Nd88 O112 2.410 1_545 S
Nd88 O117 2.414 1_455 S
Nd88 O119 2.424 . S
Nd89 C99 2.836 . S
Nd89 O111 2.414 1_554 S
Nd89 O113 2.424 1_545 S
Nd89 O114 2.500 . S
Nd89 O115 2.492 . S
Nd89 O116 2.487 1_455 S
Nd89 O117 2.682 1_454 S
Nd89 O118 2.410 1_554 S
C90 Nd88 2.836 1_565 S
C90 C91 1.498 . S
C90 O108 1.258 1_455 S
C90 O109 1.239 . S
C91 C90 1.498 . S
C91 C92 1.366 1_455 S
C91 C96 1.407 . S
C92 C91 1.366 1_655 S
C92 C93 1.392 . S
C92 H120 0.930 . S
C93 C92 1.392 . S
C93 C94 1.398 1_655 S
C93 H121 0.929 . S
C94 C93 1.398 1_455 S
C94 C95 1.352 . S
C95 C94 1.352 . S
C95 C96 1.384 . S
C95 H122 0.930 . S
C96 C91 1.407 . S
C96 C95 1.384 . S
C96 H123 0.929 . S
C97 O110 1.241 . S
C97 O111 1.273 . S
C98 O112 1.251 . S
C98 O113 1.268 1_556 S
C99 Nd89 2.836 . S
C99 C100 1.498 . S
C99 O114 1.258 . S
C99 O115 1.239 . S
C100 C99 1.498 . S
C100 C101 1.366 . S
C100 C105 1.407 . S
C101 C100 1.366 . S
C101 C102 1.392 . S
C101 H124 0.930 . S
C102 C101 1.392 . S
C102 C103 1.398 . S
C102 H125 0.929 . S
C103 C102 1.398 . S
C103 C104 1.352 . S
C104 C103 1.352 . S
C104 C105 1.384 . S
C104 H126 0.930 . S
C105 C100 1.407 . S
C105 C104 1.384 . S
C105 H127 0.929 . S
C106 O116 1.241 1_556 S
C106 O117 1.273 . S
C107 O118 1.251 . S
C107 O119 1.268 . S
O108 Nd88 2.500 1_665 S
O108 C90 1.258 1_655 S
O109 Nd88 2.492 1_565 S
O109 C90 1.239 . S
O110 Nd88 2.487 . S
O110 C97 1.241 . S
O111 Nd88 2.682 . S
O111 Nd89 2.414 1_556 S
O111 C97 1.273 . S
O112 Nd88 2.410 1_565 S
O112 C98 1.251 . S
O113 Nd89 2.424 1_565 S
O113 C98 1.268 1_554 S
O114 Nd89 2.500 . S
O114 C99 1.258 . S
O115 Nd89 2.492 . S
O115 C99 1.239 . S
O116 Nd89 2.487 1_655 S
O116 C106 1.241 1_554 S
O117 Nd88 2.414 1_655 S
O117 Nd89 2.682 1_656 S
O117 C106 1.273 . S
O118 Nd89 2.410 1_556 S
O118 C107 1.251 . S
O119 Nd88 2.424 . S
O119 C107 1.268 . S
H120 C92 0.930 . S
H121 C93 0.929 . S
H122 C95 0.930 . S
H123 C96 0.929 . S
H124 C101 0.930 . S
H125 C102 0.929 . S
H126 C104 0.930 . S
H127 C105 0.929 . S
Nd128 C130 2.836 1_545 S
Nd128 O148 2.500 1_545 S
Nd128 O149 2.492 . S
Nd128 O150 2.487 . S
Nd128 O151 2.682 . S
Nd128 O152 2.410 . S
Nd128 O157 2.414 1_545 S
Nd128 O159 2.424 . S
Nd129 C139 2.836 . S
Nd129 O151 2.414 1_554 S
Nd129 O153 2.424 1_554 S
Nd129 O154 2.500 . S
Nd129 O155 2.492 . S
Nd129 O156 2.487 1_545 S
Nd129 O157 2.682 1_544 S
Nd129 O158 2.410 1_554 S
C130 Nd128 2.836 1_565 S
C130 C131 1.498 . S
C130 O148 1.258 . S
C130 O149 1.239 1_565 S
C131 C130 1.498 . S
C131 C132 1.366 . S
C131 C136 1.407 . S
C132 C131 1.366 . S
C132 C133 1.392 . S
C132 H160 0.930 . S
C133 C132 1.392 . S
C133 C134 1.398 . S
C133 H161 0.929 . S
C134 C133 1.398 . S
C134 C135 1.352 . S
C135 C134 1.352 . S
C135 C136 1.384 . S
C135 H162 0.930 . S
C136 C131 1.407 . S
C136 C135 1.384 . S
C136 H163 0.929 1_565 S
C137 O150 1.241 . S
C137 O151 1.273 . S
C138 O152 1.251 . S
C138 O153 1.268 . S
C139 Nd129 2.836 . S
C139 C140 1.498 . S
C139 O154 1.258 . S
C139 O155 1.239 . S
C140 C139 1.498 . S
C140 C141 1.366 . S
C140 C145 1.407 . S
C141 C140 1.366 . S
C141 C142 1.392 . S
C141 H164 0.930 . S
C142 C141 1.392 . S
C142 C143 1.398 . S
C142 H165 0.929 . S
C143 C142 1.398 . S
C143 C144 1.352 . S
C144 C143 1.352 . S
C144 C145 1.384 . S
C144 H166 0.930 . S
C145 C140 1.407 . S
C145 C144 1.384 . S
C145 H167 0.929 . S
C146 O156 1.241 . S
C146 O157 1.273 1_554 S
C147 O158 1.251 . S
C147 O159 1.268 . S
O148 Nd128 2.500 1_565 S
O148 C130 1.258 . S
O149 Nd128 2.492 . S
O149 C130 1.239 1_545 S
O150 Nd128 2.487 . S
O150 C137 1.241 . S
O151 Nd128 2.682 . S
O151 Nd129 2.414 1_556 S
O151 C137 1.273 . S
O152 Nd128 2.410 . S
O152 C138 1.251 . S
O153 Nd129 2.424 1_556 S
O153 C138 1.268 . S
O154 Nd129 2.500 . S
O154 C139 1.258 . S
O155 Nd129 2.492 . S
O155 C139 1.239 . S
O156 Nd129 2.487 1_565 S
O156 C146 1.241 . S
O157 Nd128 2.414 1_565 S
O157 Nd129 2.682 1_566 S
O157 C146 1.273 1_556 S
O158 Nd129 2.410 1_556 S
O158 C147 1.251 . S
O159 Nd128 2.424 . S
O159 C147 1.268 . S
H160 C132 0.930 . S
H161 C133 0.929 . S
H162 C135 0.930 . S
H163 C136 0.929 1_545 S
H164 C141 0.930 . S
H165 C142 0.929 . S
H166 C144 0.930 . S
H167 C145 0.929 . S
Nd168 C170 2.836 . S
Nd168 O188 2.500 . S
Nd168 O189 2.492 . S
Nd168 O190 2.487 1_554 S
Nd168 O191 2.682 1_554 S
Nd168 O192 2.410 1_554 S
Nd168 O197 2.414 1_554 S
Nd168 O199 2.424 . S
Nd169 C179 2.836 . S
Nd169 O191 2.414 . S
Nd169 O193 2.424 . S
Nd169 O194 2.500 . S
Nd169 O195 2.492 . S
Nd169 O196 2.487 . S
Nd169 O197 2.682 . S
Nd169 O198 2.410 . S
C170 Nd168 2.836 . S
C170 C171 1.498 . S
C170 O188 1.258 . S
C170 O189 1.239 . S
C171 C170 1.498 . S
C171 C172 1.366 . S
C171 C176 1.407 . S
C172 C171 1.366 . S
C172 C173 1.392 . S
C172 H200 0.930 . S
C173 C172 1.392 . S
C173 C174 1.398 . S
C173 H201 0.929 . S
C174 C173 1.398 . S
C174 C175 1.352 . S
C175 C174 1.352 . S
C175 C176 1.384 . S
C175 H202 0.930 . S
C176 C171 1.407 . S
C176 C175 1.384 . S
C176 H203 0.929 . S
C177 O190 1.241 . S
C177 O191 1.273 . S
C178 O192 1.251 . S
C178 O193 1.268 . S
C179 Nd169 2.836 . S
C179 C180 1.498 . S
C179 O194 1.258 . S
C179 O195 1.239 . S
C180 C179 1.498 . S
C180 C181 1.366 . S
C180 C185 1.407 . S
C181 C180 1.366 . S
C181 C182 1.392 . S
C181 H204 0.930 . S
C182 C181 1.392 . S
C182 C183 1.398 . S
C182 H205 0.929 . S
C183 C182 1.398 . S
C183 C184 1.352 . S
C184 C183 1.352 . S
C184 C185 1.384 . S
C184 H206 0.930 . S
C185 C180 1.407 . S
C185 C184 1.384 . S
C185 H207 0.929 . S
C186 O196 1.241 . S
C186 O197 1.273 . S
C187 O198 1.251 . S
C187 O199 1.268 1_556 S
O188 Nd168 2.500 . S
O188 C170 1.258 . S
O189 Nd168 2.492 . S
O189 C170 1.239 . S
O190 Nd168 2.487 1_556 S
O190 C177 1.241 . S
O191 Nd168 2.682 1_556 S
O191 Nd169 2.414 . S
O191 C177 1.273 . S
O192 Nd168 2.410 1_556 S
O192 C178 1.251 . S
O193 Nd169 2.424 . S
O193 C178 1.268 . S
O194 Nd169 2.500 . S
O194 C179 1.258 . S
O195 Nd169 2.492 . S
O195 C179 1.239 . S
O196 Nd169 2.487 . S
O196 C186 1.241 . S
O197 Nd168 2.414 1_556 S
O197 Nd169 2.682 . S
O197 C186 1.273 . S
O198 Nd169 2.410 . S
O198 C187 1.251 . S
O199 Nd168 2.424 . S
O199 C187 1.268 1_554 S
H200 C172 0.930 . S
H201 C173 0.929 . S
H202 C175 0.930 . S
H203 C176 0.929 . S
H204 C181 0.930 . S
H205 C182 0.929 . S
H206 C184 0.930 . S
H207 C185 0.929 . S
Nd208 C210 2.836 1_455 S
Nd208 O228 2.500 1_455 S
Nd208 O229 2.492 1_455 S
Nd208 O230 2.487 . S
Nd208 O231 2.682 . S
Nd208 O232 2.410 1_455 S
Nd208 O237 2.414 . S
Nd208 O239 2.424 . S
Nd209 C219 2.836 . S
Nd209 O231 2.414 1_554 S
Nd209 O233 2.424 1_454 S
Nd209 O234 2.500 . S
Nd209 O235 2.492 . S
Nd209 O236 2.487 . S
Nd209 O237 2.682 1_554 S
Nd209 O238 2.410 1_554 S
C210 Nd208 2.836 1_655 S
C210 C211 1.498 . S
C210 O228 1.258 . S
C210 O229 1.239 . S
C211 C210 1.498 . S
C211 C212 1.366 . S
C211 C216 1.407 . S
C212 C211 1.366 . S
C212 C213 1.392 . S
C212 H240 0.930 . S
C213 C212 1.392 . S
C213 C214 1.398 . S
C213 H241 0.929 . S
C214 C213 1.398 . S
C214 C215 1.352 . S
C215 C214 1.352 . S
C215 C216 1.384 . S
C215 H242 0.930 . S
C216 C211 1.407 . S
C216 C215 1.384 . S
C216 H243 0.929 . S
C217 O230 1.241 . S
C217 O231 1.273 . S
C218 O232 1.251 . S
C218 O233 1.268 . S
C219 Nd209 2.836 . S
C219 C220 1.498 . S
C219 O234 1.258 . S
C219 O235 1.239 . S
C220 C219 1.498 . S
C220 C221 1.366 . S
C220 C225 1.407 . S
C221 C220 1.366 . S
C221 C222 1.392 . S
C221 H244 0.930 . S
C222 C221 1.392 . S
C222 C223 1.398 . S
C222 H245 0.929 . S
C223 C222 1.398 . S
C223 C224 1.352 . S
C224 C223 1.352 . S
C224 C225 1.384 . S
C224 H246 0.930 . S
C225 C220 1.407 . S
C225 C224 1.384 . S
C225 H247 0.929 . S
C226 O236 1.241 1_556 S
C226 O237 1.273 . S
C227 O238 1.251 . S
C227 O239 1.268 . S
O228 Nd208 2.500 1_655 S
O228 C210 1.258 . S
O229 Nd208 2.492 1_655 S
O229 C210 1.239 . S
O230 Nd208 2.487 . S
O230 C217 1.241 . S
O231 Nd208 2.682 . S
O231 Nd209 2.414 1_556 S
O231 C217 1.273 . S
O232 Nd208 2.410 1_655 S
O232 C218 1.251 . S
O233 Nd209 2.424 1_656 S
O233 C218 1.268 . S
O234 Nd209 2.500 . S
O234 C219 1.258 . S
O235 Nd209 2.492 . S
O235 C219 1.239 . S
O236 Nd209 2.487 . S
O236 C226 1.241 1_554 S
O237 Nd208 2.414 . S
O237 Nd209 2.682 1_556 S
O237 C226 1.273 . S
O238 Nd209 2.410 1_556 S
O238 C227 1.251 . S
O239 Nd208 2.424 . S
O239 C227 1.268 . S
H240 C212 0.930 . S
H241 C213 0.929 . S
H242 C215 0.930 . S
H243 C216 0.929 . S
H244 C221 0.930 . S
H245 C222 0.929 . S
H246 C224 0.930 . S
H247 C225 0.929 . S
H248 C260 0.930 . S
H249 C262 0.930 . S
H250 C263 0.930 . S
H251 C267 0.959 . S
H252 C267 0.959 1_554 S
H253 C267 0.961 1_554 S
H254 C268 0.960 . S
H255 C268 0.961 1_554 S
H256 C268 0.959 . S
H257 C271 0.929 . S
H258 C272 0.931 . S
H259 C274 0.930 . S
C260 H248 0.930 . S
C260 C261 1.399 . S
C260 C265 1.399 . S
C261 C260 1.399 . S
C261 C262 1.376 . S
C262 H249 0.930 . S
C262 C261 1.376 . S
C262 C263 1.388 . S
C263 H250 0.930 . S
C263 C262 1.388 . S
C263 C264 1.390 . S
C264 C263 1.390 . S
C264 C265 1.394 . S
C264 C270 1.465 . S
C265 C260 1.399 . S
C265 C264 1.394 . S
C265 C266 1.516 . S
C266 C265 1.516 . S
C266 C267 1.502 . S
C266 C268 1.561 . S
C266 C269 1.526 . S
C267 H251 0.959 . S
C267 H252 0.959 1_556 S
C267 H253 0.961 1_556 S
C267 C266 1.502 . S
C268 H254 0.960 . S
C268 H255 0.961 1_556 S
C268 H256 0.959 . S
C268 C266 1.561 . S
C269 C266 1.526 . S
C269 C270 1.396 . S
C269 C274 1.390 . S
C270 C264 1.465 . S
C270 C269 1.396 . S
C270 C271 1.399 . S
C271 H257 0.929 . S
C271 C270 1.399 . S
C271 C272 1.385 . S
C272 H258 0.931 . S
C272 C271 1.385 . S
C272 C273 1.389 . S
C273 C272 1.389 . S
C273 C274 1.387 . S
C274 H259 0.930 . S
C274 C269 1.390 . S
C274 C273 1.387 . S
H275 C287 0.930 . S
H276 C289 0.930 . S
H277 C290 0.930 . S
H278 C294 0.959 . S
H279 C294 0.959 . S
H280 C294 0.961 . S
H281 C295 0.960 . S
H282 C295 0.961 . S
H283 C295 0.959 . S
H284 C298 0.929 . S
H285 C299 0.931 . S
H286 C301 0.930 . S
C287 H275 0.930 . S
C287 C288 1.399 . S
C287 C292 1.399 . S
C288 C287 1.399 . S
C288 C289 1.376 . S
C289 H276 0.930 . S
C289 C288 1.376 . S
C289 C290 1.388 . S
C290 H277 0.930 . S
C290 C289 1.388 . S
C290 C291 1.390 . S
C291 C290 1.390 . S
C291 C292 1.394 . S
C291 C297 1.465 . S
C292 C287 1.399 . S
C292 C291 1.394 . S
C292 C293 1.516 . S
C293 C292 1.516 . S
C293 C294 1.502 . S
C293 C295 1.561 . S
C293 C296 1.526 . S
C294 H278 0.959 . S
C294 H279 0.959 . S
C294 H280 0.961 . S
C294 C293 1.502 . S
C295 H281 0.960 . S
C295 H282 0.961 . S
C295 H283 0.959 . S
C295 C293 1.561 . S
C296 C293 1.526 . S
C296 C297 1.396 . S
C296 C301 1.390 . S
C297 C291 1.465 . S
C297 C296 1.396 . S
C297 C298 1.399 . S
C298 H284 0.929 . S
C298 C297 1.399 . S
C298 C299 1.385 . S
C299 H285 0.931 . S
C299 C298 1.385 . S
C299 C300 1.389 . S
C300 C299 1.389 . S
C300 C301 1.387 . S
C301 H286 0.930 . S
C301 C296 1.390 . S
C301 C300 1.387 . S
H302 C314 0.930 . S
H303 C316 0.930 . S
H304 C317 0.930 . S
H305 C321 0.959 . S
H306 C321 0.959 . S
H307 C321 0.961 . S
H308 C322 0.960 . S
H309 C322 0.961 . S
H310 C322 0.959 . S
H311 C325 0.929 . S
H312 C326 0.931 . S
H313 C328 0.930 . S
C314 H302 0.930 . S
C314 C315 1.399 . S
C314 C319 1.399 . S
C315 C314 1.399 . S
C315 C316 1.376 . S
C316 H303 0.930 . S
C316 C315 1.376 . S
C316 C317 1.388 . S
C317 H304 0.930 . S
C317 C316 1.388 . S
C317 C318 1.390 . S
C318 C317 1.390 . S
C318 C319 1.394 . S
C318 C324 1.465 . S
C319 C314 1.399 . S
C319 C318 1.394 . S
C319 C320 1.516 . S
C320 C319 1.516 . S
C320 C321 1.502 . S
C320 C322 1.561 . S
C320 C323 1.526 . S
C321 H305 0.959 . S
C321 H306 0.959 . S
C321 H307 0.961 . S
C321 C320 1.502 . S
C322 H308 0.960 . S
C322 H309 0.961 . S
C322 H310 0.959 . S
C322 C320 1.561 . S
C323 C320 1.526 . S
C323 C324 1.396 . S
C323 C328 1.390 . S
C324 C318 1.465 . S
C324 C323 1.396 . S
C324 C325 1.399 . S
C325 H311 0.929 . S
C325 C324 1.399 . S
C325 C326 1.385 . S
C326 H312 0.931 . S
C326 C325 1.385 . S
C326 C327 1.389 . S
C327 C326 1.389 . S
C327 C328 1.387 . S
C328 H313 0.930 . S
C328 C323 1.390 . S
C328 C327 1.387 . S
H329 C341 0.930 . S
H330 C343 0.930 . S
H331 C344 0.930 . S
H332 C348 0.959 . S
H333 C348 0.959 . S
H334 C348 0.961 . S
H335 C349 0.960 . S
H336 C349 0.961 . S
H337 C349 0.959 . S
H338 C352 0.925 1_655 S
H339 C353 0.928 1_655 S
H340 C355 0.930 . S
C341 H329 0.930 . S
C341 C342 1.399 . S
C341 C346 1.399 . S
C342 C341 1.399 . S
C342 C343 1.376 . S
C343 H330 0.930 . S
C343 C342 1.376 . S
C343 C344 1.388 . S
C344 H331 0.930 . S
C344 C343 1.388 . S
C344 C345 1.390 . S
C345 C344 1.390 . S
C345 C346 1.394 . S
C345 C351 1.465 . S
C346 C341 1.399 . S
C346 C345 1.394 . S
C346 C347 1.516 . S
C347 C346 1.516 . S
C347 C348 1.502 . S
C347 C349 1.561 . S
C347 C350 1.526 . S
C348 H332 0.959 . S
C348 H333 0.959 . S
C348 H334 0.961 . S
C348 C347 1.502 . S
C349 H335 0.960 . S
C349 H336 0.961 . S
C349 H337 0.959 . S
C349 C347 1.561 . S
C350 C347 1.526 . S
C350 C351 1.396 . S
C350 C355 1.390 . S
C351 C345 1.465 . S
C351 C350 1.396 . S
C351 C352 1.399 . S
C352 H338 0.925 1_455 S
C352 C351 1.399 . S
C352 C353 1.385 . S
C353 H339 0.928 1_455 S
C353 C352 1.385 . S
C353 C354 1.389 . S
C354 C353 1.389 . S
C354 C355 1.387 . S
C355 H340 0.930 . S
C355 C350 1.390 . S
C355 C354 1.387 . S
H356 C368 0.930 . S
H357 C370 0.930 . S
H358 C371 0.930 . S
H359 C375 0.959 . S
H360 C375 0.959 . S
H361 C375 0.961 . S
H362 C376 0.960 . S
H363 C376 0.961 . S
H364 C376 0.959 . S
H365 C379 0.929 . S
H366 C380 0.931 . S
H367 C382 0.930 . S
C368 H356 0.930 . S
C368 C369 1.399 1_556 S
C368 C373 1.399 . S
C369 C368 1.399 1_554 S
C369 C370 1.376 . S
C370 H357 0.930 . S
C370 C369 1.376 . S
C370 C371 1.388 . S
C371 H358 0.930 . S
C371 C370 1.388 . S
C371 C372 1.390 . S
C372 C371 1.390 . S
C372 C373 1.394 1_554 S
C372 C378 1.465 . S
C373 C368 1.399 . S
C373 C372 1.394 1_556 S
C373 C374 1.516 . S
C374 C373 1.516 . S
C374 C375 1.502 . S
C374 C376 1.561 . S
C374 C377 1.526 . S
C375 H359 0.959 . S
C375 H360 0.959 . S
C375 H361 0.961 . S
C375 C374 1.502 . S
C376 H362 0.960 . S
C376 H363 0.961 . S
C376 H364 0.959 . S
C376 C374 1.561 . S
C377 C374 1.526 . S
C377 C378 1.396 1_556 S
C377 C382 1.390 . S
C378 C372 1.465 . S
C378 C377 1.396 1_554 S
C378 C379 1.399 1_565 S
C379 H365 0.929 . S
C379 C378 1.399 1_545 S
C379 C380 1.385 . S
C380 H366 0.931 . S
C380 C379 1.385 . S
C380 C381 1.389 1_554 S
C381 C380 1.389 1_556 S
C381 C382 1.387 1_545 S
C382 H367 0.930 . S
C382 C377 1.390 . S
C382 C381 1.387 1_565 S
H383 C395 0.930 . S
H384 C397 0.930 . S
H385 C398 0.930 . S
H386 C402 0.959 . S
H387 C402 0.959 . S
H388 C402 0.961 . S
H389 C403 0.960 . S
H390 C403 0.961 . S
H391 C403 0.959 . S
H392 C406 0.929 . S
H393 C407 0.931 1_556 S
H394 C409 0.930 . S
C395 H383 0.930 . S
C395 C396 1.399 . S
C395 C400 1.399 . S
C396 C395 1.399 . S
C396 C397 1.376 . S
C397 H384 0.930 . S
C397 C396 1.376 . S
C397 C398 1.388 . S
C398 H385 0.930 . S
C398 C397 1.388 . S
C398 C399 1.390 . S
C399 C398 1.390 . S
C399 C400 1.394 . S
C399 C405 1.465 . S
C400 C395 1.399 . S
C400 C399 1.394 . S
C400 C401 1.516 . S
C401 C400 1.516 . S
C401 C402 1.502 . S
C401 C403 1.561 . S
C401 C404 1.526 . S
C402 H386 0.959 . S
C402 H387 0.959 . S
C402 H388 0.961 . S
C402 C401 1.502 . S
C403 H389 0.960 . S
C403 H390 0.961 . S
C403 H391 0.959 . S
C403 C401 1.561 . S
C404 C401 1.526 . S
C404 C405 1.396 . S
C404 C409 1.390 . S
C405 C399 1.465 . S
C405 C404 1.396 . S
C405 C406 1.399 . S
C406 H392 0.929 . S
C406 C405 1.399 . S
C406 C407 1.385 . S
C407 H393 0.931 1_554 S
C407 C406 1.385 . S
C407 C408 1.389 . S
C408 C407 1.389 . S
C408 C409 1.387 . S
C409 H394 0.930 . S
C409 C404 1.390 . S
C409 C408 1.387 . S
H410 C422 0.930 1_554 S
H411 C424 0.930 . S
H412 C425 0.930 . S
H413 C429 0.959 1_556 S
H414 C429 0.959 . S
H415 C429 0.961 . S
H416 C430 0.960 . S
H417 C430 0.961 . S
H418 C430 0.959 . S
H419 C433 0.929 . S
H420 C434 0.931 . S
H421 C436 0.930 . S
C422 H410 0.930 1_556 S
C422 C423 1.399 . S
C422 C427 1.399 . S
C423 C422 1.399 . S
C423 C424 1.376 . S
C424 H411 0.930 . S
C424 C423 1.376 . S
C424 C425 1.388 . S
C425 H412 0.930 . S
C425 C424 1.388 . S
C425 C426 1.390 . S
C426 C425 1.390 . S
C426 C427 1.394 . S
C426 C432 1.465 . S
C427 C422 1.399 . S
C427 C426 1.394 . S
C427 C428 1.516 1_556 S
C428 C427 1.516 1_554 S
C428 C429 1.502 . S
C428 C430 1.561 . S
C428 C431 1.526 1_554 S
C429 H413 0.959 1_554 S
C429 H414 0.959 . S
C429 H415 0.961 . S
C429 C428 1.502 . S
C430 H416 0.960 . S
C430 H417 0.961 . S
C430 H418 0.959 . S
C430 C428 1.561 . S
C431 C428 1.526 1_556 S
C431 C432 1.396 . S
C431 C436 1.390 . S
C432 C426 1.465 . S
C432 C431 1.396 . S
C432 C433 1.399 . S
C433 H419 0.929 . S
C433 C432 1.399 . S
C433 C434 1.385 . S
C434 H420 0.931 . S
C434 C433 1.385 . S
C434 C435 1.389 . S
C435 C434 1.389 . S
C435 C436 1.387 . S
C436 H421 0.930 . S
C436 C431 1.390 . S
C436 C435 1.387 . S
H437 C449 0.931 . S
H438 C451 0.930 . S
H439 C452 0.930 . S
H440 C456 0.959 . S
H441 C456 0.959 . S
H442 C456 0.961 . S
H443 C457 0.960 . S
H444 C457 0.961 . S
H445 C457 0.959 . S
H446 C460 0.929 . S
H447 C461 0.931 . S
H448 C463 0.930 . S
C449 H437 0.931 . S
C449 C450 1.397 1_656 S
C449 C454 1.400 1_655 S
C450 C449 1.397 1_454 S
C450 C451 1.376 . S
C451 H438 0.930 . S
C451 C450 1.376 . S
C451 C452 1.388 . S
C452 H439 0.930 . S
C452 C451 1.388 . S
C452 C453 1.390 . S
C453 C452 1.390 . S
C453 C454 1.394 1_554 S
C453 C459 1.465 . S
C454 C449 1.400 1_455 S
C454 C453 1.394 1_556 S
C454 C455 1.516 . S
C455 C454 1.516 . S
C455 C456 1.502 1_455 S
C455 C457 1.561 . S
C455 C458 1.526 . S
C456 H440 0.959 . S
C456 H441 0.959 . S
C456 H442 0.961 . S
C456 C455 1.502 1_655 S
C457 H443 0.960 . S
C457 H444 0.961 . S
C457 H445 0.959 . S
C457 C455 1.561 . S
C458 C455 1.526 . S
C458 C459 1.396 1_556 S
C458 C463 1.390 . S
C459 C453 1.465 . S
C459 C458 1.396 1_554 S
C459 C460 1.399 . S
C460 H446 0.929 . S
C460 C459 1.399 . S
C460 C461 1.385 . S
C461 H447 0.931 . S
C461 C460 1.385 . S
C461 C462 1.389 1_554 S
C462 C461 1.389 1_556 S
C462 C463 1.387 . S
C463 H448 0.930 . S
C463 C458 1.390 . S
C463 C462 1.387 . S
H464 C476 0.930 . S
H465 C478 0.930 . S
H466 C479 0.930 . S
H467 C483 0.959 . S
H468 C483 0.959 . S
H469 C483 0.961 . S
H470 C484 0.960 . S
H471 C484 0.961 1_554 S
H472 C484 0.959 . S
H473 C487 0.929 . S
H474 C488 0.931 . S
H475 C490 0.930 . S
C476 H464 0.930 . S
C476 C477 1.399 . S
C476 C481 1.399 . S
C477 C476 1.399 . S
C477 C478 1.376 . S
C478 H465 0.930 . S
C478 C477 1.376 . S
C478 C479 1.388 . S
C479 H466 0.930 . S
C479 C478 1.388 . S
C479 C480 1.390 . S
C480 C479 1.390 . S
C480 C481 1.394 . S
C480 C486 1.465 . S
C481 C476 1.399 . S
C481 C480 1.394 . S
C481 C482 1.516 . S
C482 C481 1.516 . S
C482 C483 1.502 . S
C482 C484 1.561 . S
C482 C485 1.526 . S
C483 H467 0.959 . S
C483 H468 0.959 . S
C483 H469 0.961 . S
C483 C482 1.502 . S
C484 H470 0.960 . S
C484 H471 0.961 1_556 S
C484 H472 0.959 . S
C484 C482 1.561 . S
C485 C482 1.526 . S
C485 C486 1.396 . S
C485 C490 1.390 . S
C486 C480 1.465 . S
C486 C485 1.396 . S
C486 C487 1.399 . S
C487 H473 0.929 . S
C487 C486 1.399 . S
C487 C488 1.385 . S
C488 H474 0.931 . S
C488 C487 1.385 . S
C488 C489 1.389 . S
C489 C488 1.389 . S
C489 C490 1.387 . S
C490 H475 0.930 . S
C490 C485 1.390 . S
C490 C489 1.387 . S
H491 C503 0.930 . S
H492 C505 0.930 . S
H493 C506 0.930 . S
H494 C510 0.959 . S
H495 C510 0.959 . S
H496 C510 0.961 . S
H497 C511 0.960 . S
H498 C511 0.961 . S
H499 C511 0.959 . S
H500 C514 0.929 . S
H501 C515 0.931 . S
H502 C517 0.930 . S
C503 H491 0.930 . S
C503 C504 1.399 . S
C503 C508 1.399 . S
C504 C503 1.399 . S
C504 C505 1.376 . S
C505 H492 0.930 . S
C505 C504 1.376 . S
C505 C506 1.388 . S
C506 H493 0.930 . S
C506 C505 1.388 . S
C506 C507 1.390 . S
C507 C506 1.390 . S
C507 C508 1.394 . S
C507 C513 1.465 . S
C508 C503 1.399 . S
C508 C507 1.394 . S
C508 C509 1.516 . S
C509 C508 1.516 . S
C509 C510 1.502 . S
C509 C511 1.561 . S
C509 C512 1.526 . S
C510 H494 0.959 . S
C510 H495 0.959 . S
C510 H496 0.961 . S
C510 C509 1.502 . S
C511 H497 0.960 . S
C511 H498 0.961 . S
C511 H499 0.959 . S
C511 C509 1.561 . S
C512 C509 1.526 . S
C512 C513 1.396 . S
C512 C517 1.390 . S
C513 C507 1.465 . S
C513 C512 1.396 . S
C513 C514 1.399 . S
C514 H500 0.929 . S
C514 C513 1.399 . S
C514 C515 1.385 . S
C515 H501 0.931 . S
C515 C514 1.385 . S
C515 C516 1.389 . S
C516 C515 1.389 . S
C516 C517 1.387 . S
C517 H502 0.930 . S
C517 C512 1.390 . S
C517 C516 1.387 . S
H518 C530 0.930 . S
H519 C532 0.930 . S
H520 C533 0.930 . S
H521 C537 0.959 . S
H522 C537 0.959 . S
H523 C537 0.961 . S
H524 C538 0.960 . S
H525 C538 0.961 . S
H526 C538 0.959 . S
H527 C541 0.929 . S
H528 C542 0.931 . S
H529 C544 0.930 . S
C530 H518 0.930 . S
C530 C531 1.399 . S
C530 C535 1.399 . S
C531 C530 1.399 . S
C531 C532 1.376 . S
C532 H519 0.930 . S
C532 C531 1.376 . S
C532 C533 1.388 . S
C533 H520 0.930 . S
C533 C532 1.388 . S
C533 C534 1.390 . S
C534 C533 1.390 . S
C534 C535 1.394 . S
C534 C540 1.465 . S
C535 C530 1.399 . S
C535 C534 1.394 . S
C535 C536 1.516 . S
C536 C535 1.516 . S
C536 C537 1.502 . S
C536 C538 1.561 . S
C536 C539 1.526 . S
C537 H521 0.959 . S
C537 H522 0.959 . S
C537 H523 0.961 . S
C537 C536 1.502 . S
C538 H524 0.960 . S
C538 H525 0.961 . S
C538 H526 0.959 . S
C538 C536 1.561 . S
C539 C536 1.526 . S
C539 C540 1.396 . S
C539 C544 1.390 . S
C540 C534 1.465 . S
C540 C539 1.396 . S
C540 C541 1.399 . S
C541 H527 0.929 . S
C541 C540 1.399 . S
C541 C542 1.385 . S
C542 H528 0.931 . S
C542 C541 1.385 . S
C542 C543 1.389 . S
C543 C542 1.389 . S
C543 C544 1.387 . S
C544 H529 0.930 . S
C544 C539 1.390 . S
C544 C543 1.387 . S
H545 C557 0.930 . S
H546 C559 0.930 1_554 S
H547 C560 0.930 1_554 S
H548 C564 0.959 . S
H549 C564 0.959 . S
H550 C564 0.961 . S
H551 C565 0.960 . S
H552 C565 0.961 . S
H553 C565 0.959 . S
H554 C568 0.929 1_554 S
H555 C569 0.931 1_554 S
H556 C571 0.930 . S
C557 H545 0.930 . S
C557 C558 1.399 . S
C557 C562 1.399 . S
C558 C557 1.399 . S
C558 C559 1.376 . S
C559 H546 0.930 1_556 S
C559 C558 1.376 . S
C559 C560 1.388 . S
C560 H547 0.930 1_556 S
C560 C559 1.388 . S
C560 C561 1.390 . S
C561 C560 1.390 . S
C561 C562 1.394 . S
C561 C567 1.465 . S
C562 C557 1.399 . S
C562 C561 1.394 . S
C562 C563 1.516 . S
C563 C562 1.516 . S
C563 C564 1.502 . S
C563 C565 1.561 . S
C563 C566 1.526 . S
C564 H548 0.959 . S
C564 H549 0.959 . S
C564 H550 0.961 . S
C564 C563 1.502 . S
C565 H551 0.960 . S
C565 H552 0.961 . S
C565 H553 0.959 . S
C565 C563 1.561 . S
C566 C563 1.526 . S
C566 C567 1.396 . S
C566 C571 1.390 . S
C567 C561 1.465 . S
C567 C566 1.396 . S
C567 C568 1.399 . S
C568 H554 0.929 1_556 S
C568 C567 1.399 . S
C568 C569 1.385 . S
C569 H555 0.931 1_556 S
C569 C568 1.385 . S
C569 C570 1.389 . S
C570 C569 1.389 . S
C570 C571 1.387 . S
C571 H556 0.930 . S
C571 C566 1.390 . S
C571 C570 1.387 . S
H572 C584 0.930 . S
H573 C586 0.930 . S
H574 C587 0.930 . S
H575 C591 0.959 . S
H576 C591 0.959 . S
H577 C591 0.961 . S
H578 C592 0.960 . S
H579 C592 0.961 . S
H580 C592 0.959 1_655 S
H581 C595 0.929 . S
H582 C596 0.931 . S
H583 C598 0.930 . S
C584 H572 0.930 . S
C584 C585 1.399 1_456 S
C584 C589 1.399 . S
C585 C584 1.399 1_654 S
C585 C586 1.376 . S
C586 H573 0.930 . S
C586 C585 1.376 . S
C586 C587 1.388 . S
C587 H574 0.930 . S
C587 C586 1.388 . S
C587 C588 1.390 . S
C588 C587 1.390 . S
C588 C589 1.394 1_654 S
C588 C594 1.465 1_655 S
C589 C584 1.399 . S
C589 C588 1.394 1_456 S
C589 C590 1.516 . S
C590 C589 1.516 . S
C590 C591 1.502 . S
C590 C592 1.561 . S
C590 C593 1.526 . S
C591 H575 0.959 . S
C591 H576 0.959 . S
C591 H577 0.961 . S
C591 C590 1.502 . S
C592 H578 0.960 . S
C592 H579 0.961 . S
C592 H580 0.959 1_455 S
C592 C590 1.561 . S
C593 C590 1.526 . S
C593 C594 1.396 1_556 S
C593 C598 1.390 . S
C594 C588 1.465 1_455 S
C594 C593 1.396 1_554 S
C594 C595 1.399 1_455 S
C595 H581 0.929 . S
C595 C594 1.399 1_655 S
C595 C596 1.385 1_655 S
C596 H582 0.931 . S
C596 C595 1.385 1_455 S
C596 C597 1.389 1_554 S
C597 C596 1.389 1_556 S
C597 C598 1.387 . S
C598 H583 0.930 . S
C598 C593 1.390 . S
C598 C597 1.387 . S
H599 C611 0.930 . S
H600 C613 0.930 . S
H601 C614 0.930 . S
H602 C618 0.959 . S
H603 C618 0.959 . S
H604 C618 0.961 1_565 S
H605 C619 0.960 . S
H606 C619 0.961 . S
H607 C619 0.959 . S
H608 C622 0.929 . S
H609 C623 0.948 . S
H610 C625 0.930 . S
C611 H599 0.930 . S
C611 C612 1.399 1_556 S
C611 C616 1.399 . S
C612 C611 1.399 1_554 S
C612 C613 1.376 . S
C613 H600 0.930 . S
C613 C612 1.376 . S
C613 C614 1.388 . S
C614 H601 0.930 . S
C614 C613 1.388 . S
C614 C615 1.390 . S
C615 C614 1.390 . S
C615 C616 1.394 1_554 S
C615 C621 1.465 . S
C616 C611 1.399 . S
C616 C615 1.394 1_556 S
C616 C617 1.516 . S
C617 C616 1.516 . S
C617 C618 1.502 1_565 S
C617 C619 1.561 . S
C617 C620 1.526 . S
C618 H602 0.959 . S
C618 H603 0.959 . S
C618 H604 0.961 1_545 S
C618 C617 1.502 1_545 S
C619 H605 0.960 . S
C619 H606 0.961 . S
C619 H607 0.959 . S
C619 C617 1.561 . S
C620 C617 1.526 . S
C620 C621 1.396 1_556 S
C620 C625 1.390 1_565 S
C621 C615 1.465 . S
C621 C620 1.396 1_554 S
C621 C622 1.399 . S
C622 H608 0.929 . S
C622 C621 1.399 . S
C622 C623 1.364 1_565 S
C623 H609 0.948 . S
C623 C622 1.364 1_545 S
C623 C624 1.395 1_554 S
C624 C623 1.395 1_556 S
C624 C625 1.387 . S
C625 H610 0.930 . S
C625 C620 1.390 1_545 S
C625 C624 1.387 . S
H626 C638 0.930 . S
H627 C640 0.930 . S
H628 C641 0.930 . S
H629 C645 0.959 . S
H630 C645 0.959 . S
H631 C645 0.961 . S
H632 C646 0.960 . S
H633 C646 0.961 . S
H634 C646 0.959 . S
H635 C649 0.929 . S
H636 C650 0.931 . S
H637 C652 0.930 . S
C638 H626 0.930 . S
C638 C639 1.399 . S
C638 C643 1.399 . S
C639 C638 1.399 . S
C639 C640 1.376 . S
C640 H627 0.930 . S
C640 C639 1.376 . S
C640 C641 1.388 . S
C641 H628 0.930 . S
C641 C640 1.388 . S
C641 C642 1.390 . S
C642 C641 1.390 . S
C642 C643 1.394 . S
C642 C648 1.465 . S
C643 C638 1.399 . S
C643 C642 1.394 . S
C643 C644 1.516 . S
C644 C643 1.516 . S
C644 C645 1.502 . S
C644 C646 1.561 . S
C644 C647 1.526 . S
C645 H629 0.959 . S
C645 H630 0.959 . S
C645 H631 0.961 . S
C645 C644 1.502 . S
C646 H632 0.960 . S
C646 H633 0.961 . S
C646 H634 0.959 . S
C646 C644 1.561 . S
C647 C644 1.526 . S
C647 C648 1.396 . S
C647 C652 1.390 . S
C648 C642 1.465 . S
C648 C647 1.396 . S
C648 C649 1.399 . S
C649 H635 0.929 . S
C649 C648 1.399 . S
C649 C650 1.385 . S
C650 H636 0.931 . S
C650 C649 1.385 . S
C650 C651 1.389 . S
C651 C650 1.389 . S
C651 C652 1.387 . S
C652 H637 0.930 . S
C652 C647 1.390 . S
C652 C651 1.387 . S
H653 C665 0.930 . S
H654 C667 0.930 . S
H655 C668 0.930 . S
H656 C672 0.959 . S
H657 C672 0.959 . S
H658 C672 0.961 . S
H659 C673 0.960 . S
H660 C673 0.961 . S
H661 C673 0.959 . S
H662 C676 0.929 . S
H663 C677 0.931 . S
H664 C679 0.930 . S
C665 H653 0.930 . S
C665 C666 1.399 . S
C665 C670 1.399 . S
C666 C665 1.399 . S
C666 C667 1.376 1_556 S
C667 H654 0.930 . S
C667 C666 1.376 1_554 S
C667 C668 1.388 . S
C668 H655 0.930 . S
C668 C667 1.388 . S
C668 C669 1.390 1_554 S
C669 C668 1.390 1_556 S
C669 C670 1.394 . S
C669 C675 1.465 . S
C670 C665 1.399 . S
C670 C669 1.394 . S
C670 C671 1.516 . S
C671 C670 1.516 . S
C671 C672 1.502 . S
C671 C673 1.561 . S
C671 C674 1.526 . S
C672 H656 0.959 . S
C672 H657 0.959 . S
C672 H658 0.961 . S
C672 C671 1.502 . S
C673 H659 0.960 . S
C673 H660 0.961 . S
C673 H661 0.959 . S
C673 C671 1.561 . S
C674 C671 1.526 . S
C674 C675 1.396 . S
C674 C679 1.390 . S
C675 C669 1.465 . S
C675 C674 1.396 . S
C675 C676 1.399 1_556 S
C676 H662 0.929 . S
C676 C675 1.399 1_554 S
C676 C677 1.385 . S
C677 H663 0.931 . S
C677 C676 1.385 . S
C677 C678 1.389 1_554 S
C678 C677 1.389 1_556 S
C678 C679 1.387 . S
C679 H664 0.930 . S
C679 C674 1.390 . S
C679 C678 1.387 . S
H680 C692 0.930 . S
H681 C694 0.930 . S
H682 C695 0.930 . S
H683 C699 0.959 . S
H684 C699 0.959 . S
H685 C699 0.961 . S
H686 C700 0.960 . S
H687 C700 0.961 . S
H688 C700 0.959 . S
H689 C703 0.929 . S
H690 C704 0.931 . S
H691 C706 0.930 . S
C692 H680 0.930 . S
C692 C693 1.399 . S
C692 C697 1.399 . S
C693 C692 1.399 . S
C693 C694 1.376 . S
C694 H681 0.930 . S
C694 C693 1.376 . S
C694 C695 1.388 . S
C695 H682 0.930 . S
C695 C694 1.388 . S
C695 C696 1.390 . S
C696 C695 1.390 . S
C696 C697 1.394 . S
C696 C702 1.465 . S
C697 C692 1.399 . S
C697 C696 1.394 . S
C697 C698 1.516 . S
C698 C697 1.516 . S
C698 C699 1.502 . S
C698 C700 1.561 . S
C698 C701 1.526 . S
C699 H683 0.959 . S
C699 H684 0.959 . S
C699 H685 0.961 . S
C699 C698 1.502 . S
C700 H686 0.960 . S
C700 H687 0.961 . S
C700 H688 0.959 . S
C700 C698 1.561 . S
C701 C698 1.526 . S
C701 C702 1.396 . S
C701 C706 1.390 . S
C702 C696 1.465 . S
C702 C701 1.396 . S
C702 C703 1.399 . S
C703 H689 0.929 . S
C703 C702 1.399 . S
C703 C704 1.385 . S
C704 H690 0.931 . S
C704 C703 1.385 . S
C704 C705 1.389 . S
C705 C704 1.389 . S
C705 C706 1.387 . S
C706 H691 0.930 . S
C706 C701 1.390 . S
C706 C705 1.387 . S
H707 C719 0.930 . S
H708 C721 0.930 . S
H709 C722 0.930 . S
H710 C726 0.959 . S
H711 C726 0.959 . S
H712 C726 0.961 . S
H713 C727 0.960 . S
H714 C727 0.961 . S
H715 C727 0.959 . S
H716 C730 0.929 . S
H717 C731 0.931 . S
H718 C733 0.930 . S
C719 H707 0.930 . S
C719 C720 1.399 . S
C719 C724 1.399 . S
C720 C719 1.399 . S
C720 C721 1.376 . S
C721 H708 0.930 . S
C721 C720 1.376 . S
C721 C722 1.388 . S
C722 H709 0.930 . S
C722 C721 1.388 . S
C722 C723 1.390 . S
C723 C722 1.390 . S
C723 C724 1.394 . S
C723 C729 1.465 . S
C724 C719 1.399 . S
C724 C723 1.394 . S
C724 C725 1.516 . S
C725 C724 1.516 . S
C725 C726 1.502 . S
C725 C727 1.561 . S
C725 C728 1.526 . S
C726 H710 0.959 . S
C726 H711 0.959 . S
C726 H712 0.961 . S
C726 C725 1.502 . S
C727 H713 0.960 . S
C727 H714 0.961 . S
C727 H715 0.959 . S
C727 C725 1.561 . S
C728 C725 1.526 . S
C728 C729 1.396 . S
C728 C733 1.390 . S
C729 C723 1.465 . S
C729 C728 1.396 . S
C729 C730 1.399 . S
C730 H716 0.929 . S
C730 C729 1.399 . S
C730 C731 1.385 . S
C731 H717 0.931 . S
C731 C730 1.385 . S
C731 C732 1.389 . S
C732 C731 1.389 . S
C732 C733 1.387 . S
C733 H718 0.930 . S
C733 C728 1.390 . S
C733 C732 1.387 . S
H734 C746 0.930 . S
H735 C748 0.930 . S
H736 C749 0.930 . S
H737 C753 0.959 . S
H738 C753 0.959 . S
H739 C753 0.961 . S
H740 C754 0.960 . S
H741 C754 0.961 1_556 S
H742 C754 0.959 . S
H743 C757 0.929 . S
H744 C758 0.931 . S
H745 C760 0.930 1_556 S
C746 H734 0.930 . S
C746 C747 1.399 . S
C746 C751 1.399 . S
C747 C746 1.399 . S
C747 C748 1.376 . S
C748 H735 0.930 . S
C748 C747 1.376 . S
C748 C749 1.388 . S
C749 H736 0.930 . S
C749 C748 1.388 . S
C749 C750 1.390 . S
C750 C749 1.390 . S
C750 C751 1.394 . S
C750 C756 1.465 . S
C751 C746 1.399 . S
C751 C750 1.394 . S
C751 C752 1.516 . S
C752 C751 1.516 . S
C752 C753 1.502 1_554 S
C752 C754 1.561 . S
C752 C755 1.526 . S
C753 H737 0.959 . S
C753 H738 0.959 . S
C753 H739 0.961 . S
C753 C752 1.502 1_556 S
C754 H740 0.960 . S
C754 H741 0.961 1_554 S
C754 H742 0.959 . S
C754 C752 1.561 . S
C755 C752 1.526 . S
C755 C756 1.396 . S
C755 C760 1.390 . S
C756 C750 1.465 . S
C756 C755 1.396 . S
C756 C757 1.399 . S
C757 H743 0.929 . S
C757 C756 1.399 . S
C757 C758 1.385 . S
C758 H744 0.931 . S
C758 C757 1.385 . S
C758 C759 1.389 . S
C759 C758 1.389 . S
C759 C760 1.387 . S
C760 H745 0.930 1_554 S
C760 C755 1.390 . S
C760 C759 1.387 . S
H761 C773 0.930 . S
H762 C775 0.930 . S
H763 C776 0.930 . S
H764 C780 0.959 . S
H765 C780 0.959 . S
H766 C780 0.961 . S
H767 C781 0.960 . S
H768 C781 0.961 . S
H769 C781 0.959 . S
H770 C784 0.929 . S
H771 C785 0.931 . S
H772 C787 0.930 . S
C773 H761 0.930 . S
C773 C774 1.399 . S
C773 C778 1.399 . S
C774 C773 1.399 . S
C774 C775 1.376 . S
C775 H762 0.930 . S
C775 C774 1.376 . S
C775 C776 1.388 . S
C776 H763 0.930 . S
C776 C775 1.388 . S
C776 C777 1.390 . S
C777 C776 1.390 . S
C777 C778 1.394 . S
C777 C783 1.465 . S
C778 C773 1.399 . S
C778 C777 1.394 . S
C778 C779 1.516 . S
C779 C778 1.516 . S
C779 C780 1.502 . S
C779 C781 1.561 . S
C779 C782 1.526 . S
C780 H764 0.959 . S
C780 H765 0.959 . S
C780 H766 0.961 . S
C780 C779 1.502 . S
C781 H767 0.960 . S
C781 H768 0.961 . S
C781 H769 0.959 . S
C781 C779 1.561 . S
C782 C779 1.526 . S
C782 C783 1.396 . S
C782 C787 1.390 . S
C783 C777 1.465 . S
C783 C782 1.396 . S
C783 C784 1.399 . S
C784 H770 0.929 . S
C784 C783 1.399 . S
C784 C785 1.385 . S
C785 H771 0.931 . S
C785 C784 1.385 . S
C785 C786 1.389 . S
C786 C785 1.389 . S
C786 C787 1.387 . S
C787 H772 0.930 . S
C787 C782 1.390 . S
C787 C786 1.387 . S
H788 C800 0.930 . S
H789 C802 0.930 . S
H790 C803 0.930 . S
H791 C807 0.959 . S
H792 C807 0.959 . S
H793 C807 0.961 . S
H794 C808 0.960 . S
H795 C808 0.961 . S
H796 C808 0.959 . S
H797 C811 0.929 . S
H798 C812 0.931 . S
H799 C814 0.930 . S
C800 H788 0.930 . S
C800 C801 1.403 . S
C800 C805 1.399 . S
C801 C800 1.403 . S
C801 C802 1.373 1_655 S
C802 H789 0.930 . S
C802 C801 1.373 1_455 S
C802 C803 1.388 . S
C803 H790 0.930 . S
C803 C802 1.388 . S
C803 C804 1.390 . S
C804 C803 1.390 . S
C804 C805 1.394 1_455 S
C804 C810 1.465 . S
C805 C800 1.399 . S
C805 C804 1.394 1_655 S
C805 C806 1.516 . S
C806 C805 1.516 . S
C806 C807 1.502 . S
C806 C808 1.561 1_655 S
C806 C809 1.526 . S
C807 H791 0.959 . S
C807 H792 0.959 . S
C807 H793 0.961 . S
C807 C806 1.502 . S
C808 H794 0.960 . S
C808 H795 0.961 . S
C808 H796 0.959 . S
C808 C806 1.561 1_455 S
C809 C806 1.526 . S
C809 C810 1.396 1_655 S
C809 C814 1.390 . S
C810 C804 1.465 . S
C810 C809 1.396 1_455 S
C810 C811 1.399 . S
C811 H797 0.929 . S
C811 C810 1.399 . S
C811 C812 1.385 . S
C812 H798 0.931 . S
C812 C811 1.385 . S
C812 C813 1.389 . S
C813 C812 1.389 . S
C813 C814 1.387 1_455 S
C814 H799 0.930 . S
C814 C809 1.390 . S
C814 C813 1.387 1_655 S
H815 C827 0.930 . S
H816 C829 0.930 . S
H817 C830 0.930 . S
H818 C834 0.959 . S
H819 C834 0.959 . S
H820 C834 0.961 . S
H821 C835 0.960 . S
H822 C835 0.961 . S
H823 C835 0.959 . S
H824 C838 0.929 1_545 S
H825 C839 0.931 . S
H826 C841 0.930 . S
C827 H815 0.930 . S
C827 C828 1.399 . S
C827 C832 1.399 . S
C828 C827 1.399 . S
C828 C829 1.376 . S
C829 H816 0.930 . S
C829 C828 1.376 . S
C829 C830 1.388 . S
C830 H817 0.930 . S
C830 C829 1.388 . S
C830 C831 1.390 . S
C831 C830 1.390 . S
C831 C832 1.394 . S
C831 C837 1.465 . S
C832 C827 1.399 . S
C832 C831 1.394 . S
C832 C833 1.516 . S
C833 C832 1.516 . S
C833 C834 1.502 . S
C833 C835 1.561 . S
C833 C836 1.526 . S
C834 H818 0.959 . S
C834 H819 0.959 . S
C834 H820 0.961 . S
C834 C833 1.502 . S
C835 H821 0.960 . S
C835 H822 0.961 . S
C835 H823 0.959 . S
C835 C833 1.561 . S
C836 C833 1.526 . S
C836 C837 1.396 . S
C836 C841 1.390 . S
C837 C831 1.465 . S
C837 C836 1.396 . S
C837 C838 1.399 . S
C838 H824 0.929 1_565 S
C838 C837 1.399 . S
C838 C839 1.385 . S
C839 H825 0.931 . S
C839 C838 1.385 . S
C839 C840 1.389 . S
C840 C839 1.389 . S
C840 C841 1.387 . S
C841 H826 0.930 . S
C841 C836 1.390 . S
C841 C840 1.387 . S
H842 C854 0.930 . S
H843 C856 0.930 . S
H844 C857 0.930 . S
H845 C861 0.959 . S
H846 C861 0.959 . S
H847 C861 0.961 . S
H848 C862 0.960 . S
H849 C862 0.961 . S
H850 C862 0.959 . S
H851 C865 0.929 . S
H852 C866 0.931 . S
H853 C868 0.930 . S
C854 H842 0.930 . S
C854 C855 1.399 . S
C854 C859 1.399 . S
C855 C854 1.399 . S
C855 C856 1.376 . S
C856 H843 0.930 . S
C856 C855 1.376 . S
C856 C857 1.388 . S
C857 H844 0.930 . S
C857 C856 1.388 . S
C857 C858 1.390 . S
C858 C857 1.390 . S
C858 C859 1.394 . S
C858 C864 1.465 . S
C859 C854 1.399 . S
C859 C858 1.394 . S
C859 C860 1.516 . S
C860 C859 1.516 . S
C860 C861 1.502 . S
C860 C862 1.561 . S
C860 C863 1.526 . S
C861 H845 0.959 . S
C861 H846 0.959 . S
C861 H847 0.961 . S
C861 C860 1.502 . S
C862 H848 0.960 . S
C862 H849 0.961 . S
C862 H850 0.959 . S
C862 C860 1.561 . S
C863 C860 1.526 . S
C863 C864 1.396 . S
C863 C868 1.390 . S
C864 C858 1.465 . S
C864 C863 1.396 . S
C864 C865 1.399 . S
C865 H851 0.929 . S
C865 C864 1.399 . S
C865 C866 1.385 . S
C866 H852 0.931 . S
C866 C865 1.385 . S
C866 C867 1.389 . S
C867 C866 1.389 . S
C867 C868 1.387 . S
C868 H853 0.930 . S
C868 C863 1.390 . S
C868 C867 1.387 . S
H869 C881 0.930 . S
H870 C883 0.930 . S
H871 C884 0.930 . S
H872 C888 0.959 . S
H873 C888 0.959 . S
H874 C888 0.961 . S
H875 C889 0.960 . S
H876 C889 0.961 . S
H877 C889 0.959 . S
H878 C892 0.929 . S
H879 C893 0.931 . S
H880 C895 0.930 . S
C881 H869 0.930 . S
C881 C882 1.399 . S
C881 C886 1.399 . S
C882 C881 1.399 . S
C882 C883 1.376 . S
C883 H870 0.930 . S
C883 C882 1.376 . S
C883 C884 1.388 . S
C884 H871 0.930 . S
C884 C883 1.388 . S
C884 C885 1.390 . S
C885 C884 1.390 . S
C885 C886 1.394 . S
C885 C891 1.465 . S
C886 C881 1.399 . S
C886 C885 1.394 . S
C886 C887 1.516 . S
C887 C886 1.516 . S
C887 C888 1.502 . S
C887 C889 1.561 . S
C887 C890 1.526 . S
C888 H872 0.959 . S
C888 H873 0.959 . S
C888 H874 0.961 . S
C888 C887 1.502 . S
C889 H875 0.960 . S
C889 H876 0.961 . S
C889 H877 0.959 . S
C889 C887 1.561 . S
C890 C887 1.526 . S
C890 C891 1.396 . S
C890 C895 1.390 . S
C891 C885 1.465 . S
C891 C890 1.396 . S
C891 C892 1.399 . S
C892 H878 0.929 . S
C892 C891 1.399 . S
C892 C893 1.385 . S
C893 H879 0.931 . S
C893 C892 1.385 . S
C893 C894 1.389 . S
C894 C893 1.389 . S
C894 C895 1.387 . S
C895 H880 0.930 . S
C895 C890 1.390 . S
C895 C894 1.387 . S
C261 C76 1.693 . S
C273 C97 1.632 . S
C300 C137 1.262 . S
C288 C87 1.335 . S
C327 C186 1.343 . S
C315 C54 1.342 . S
C354 C217 1.677 . S
C342 C65 1.703 . S
C381 C106 1.642 . S
C369 C32 1.671 . S
C396 C43 1.275 . S
C408 C146 1.352 . S
C423 C10 1.373 . S
C435 C177 1.319 . S
C450 C21 1.732 1_455 S
C462 C226 1.612 . S
C489 C107 0.938 . S
C477 C60 0.847 . S
C516 C147 1.481 . S
C504 C71 1.318 . S
C543 C183 0.795 . S
C531 C82 0.790 . S
C558 C49 1.106 . S
C570 C227 1.134 . S
C585 C16 0.854 . S
C597 C98 0.947 . S
C624 C138 1.487 . S
C612 C27 1.289 . S
C651 C174 0.738 . S
C639 C38 0.746 . S
C666 C5 0.965 . S
C678 C218 1.135 . S
C693 C59 1.592 . S
C705 C103 1.650 . S
C720 C70 1.434 . S
C732 C143 1.442 . S
C759 C187 1.933 1_554 S
C747 C81 1.734 . S
C786 C223 1.445 . S
C774 C48 1.435 . S
C801 C15 1.596 . S
C813 C94 1.646 . S
C840 C134 1.395 . S
C828 C26 1.412 . S
C867 C178 1.936 . S
C855 C37 1.764 . S
C882 C4 1.432 . S
C894 C214 1.402 . S
