# Generated by pormake.
# Topology zzz, (3,6)-cn, num edge types: 1
# Building blocks:
#     Node 0, Type 0, BuildingBlock: PAMTOO_clean_linker_0, # of connection points: 3
#     Node 1, Type 0, BuildingBlock: PAMTOO_clean_linker_0, # of connection points: 3
#     Node 2, Type 0, BuildingBlock: PAMTOO_clean_linker_0, # of connection points: 3
#     Node 3, Type 0, BuildingBlock: PAMTOO_clean_linker_0, # of connection points: 3
#     Node 4, Type 0, BuildingBlock: PAMTOO_clean_linker_0, # of connection points: 3
#     Node 5, Type 0, BuildingBlock: PAMTOO_clean_linker_0, # of connection points: 3
#     Node 6, Type 0, BuildingBlock: PAMTOO_clean_linker_0, # of connection points: 3
#     Node 7, Type 0, BuildingBlock: PAMTOO_clean_linker_0, # of connection points: 3
#     Node 8, Type 1, BuildingBlock: MIFKUJ_clean_sbu_0, # of connection points: 6
#     Node 9, Type 1, BuildingBlock: MIFKUJ_clean_sbu_0, # of connection points: 6
#     Node 10, Type 1, BuildingBlock: MIFKUJ_clean_sbu_0, # of connection points: 6
#     Node 11, Type 1, BuildingBlock: MIFKUJ_clean_sbu_0, # of connection points: 6
#     Edge 12, Type (0, 1), BuildingBlock: KIFKEQ_clean_linker_1, # of connection points: 2
#     Edge 13, Type (0, 1), BuildingBlock: KIFKEQ_clean_linker_1, # of connection points: 2
#     Edge 14, Type (0, 1), BuildingBlock: KIFKEQ_clean_linker_1, # of connection points: 2
#     Edge 15, Type (0, 1), BuildingBlock: KIFKEQ_clean_linker_1, # of connection points: 2
#     Edge 16, Type (0, 1), BuildingBlock: KIFKEQ_clean_linker_1, # of connection points: 2
#     Edge 17, Type (0, 1), BuildingBlock: KIFKEQ_clean_linker_1, # of connection points: 2
#     Edge 18, Type (0, 1), BuildingBlock: KIFKEQ_clean_linker_1, # of connection points: 2
#     Edge 19, Type (0, 1), BuildingBlock: KIFKEQ_clean_linker_1, # of connection points: 2
#     Edge 20, Type (0, 1), BuildingBlock: KIFKEQ_clean_linker_1, # of connection points: 2
#     Edge 21, Type (0, 1), BuildingBlock: KIFKEQ_clean_linker_1, # of connection points: 2
#     Edge 22, Type (0, 1), BuildingBlock: KIFKEQ_clean_linker_1, # of connection points: 2
#     Edge 23, Type (0, 1), BuildingBlock: KIFKEQ_clean_linker_1, # of connection points: 2
#     Edge 24, Type (0, 1), BuildingBlock: KIFKEQ_clean_linker_1, # of connection points: 2
#     Edge 25, Type (0, 1), BuildingBlock: KIFKEQ_clean_linker_1, # of connection points: 2
#     Edge 26, Type (0, 1), BuildingBlock: KIFKEQ_clean_linker_1, # of connection points: 2
#     Edge 27, Type (0, 1), BuildingBlock: KIFKEQ_clean_linker_1, # of connection points: 2
#     Edge 28, Type (0, 1), BuildingBlock: KIFKEQ_clean_linker_1, # of connection points: 2
#     Edge 29, Type (0, 1), BuildingBlock: KIFKEQ_clean_linker_1, # of connection points: 2
#     Edge 30, Type (0, 1), BuildingBlock: KIFKEQ_clean_linker_1, # of connection points: 2
#     Edge 31, Type (0, 1), BuildingBlock: KIFKEQ_clean_linker_1, # of connection points: 2
#     Edge 32, Type (0, 1), BuildingBlock: KIFKEQ_clean_linker_1, # of connection points: 2
#     Edge 33, Type (0, 1), BuildingBlock: KIFKEQ_clean_linker_1, # of connection points: 2
#     Edge 34, Type (0, 1), BuildingBlock: KIFKEQ_clean_linker_1, # of connection points: 2
#     Edge 35, Type (0, 1), BuildingBlock: KIFKEQ_clean_linker_1, # of connection points: 2
# Relax obj value: 0.115
# Max RMSD: 0.119
# Mean RMSD: 0.083
data_MOF--net-zzz--node1-MIFKUJ_clean_sbu_0--node2-PAMTOO_clean_linker_0--edge1-KIFKEQ_clean_linker_1
_symmetry_space_group_name_H-M    P1
_symmetry_Int_Tables_number       1
_symmetry_cell_setting            triclinic
loop_
_symmetry_equiv_pos_as_xyz
'x, y, z'
_cell_length_a     51.588623
_cell_length_b     51.317673
_cell_length_c     16.45684
_cell_angle_alpha  89.911008
_cell_angle_beta   90.634384
_cell_angle_gamma 89.897383
loop_
_atom_site_label
_atom_site_type_symbol
_atom_site_fract_x
_atom_site_fract_y
_atom_site_fract_z
_atom_type_partial_charge
H0 H 0.80649 0.46605 0.07002 0.0
H1 H 0.73617 0.49119 0.95145 0.0
H2 H 0.7449 0.49909 0.21059 0.0
H3 H 0.67985 0.50032 0.1448 0.0
C4 C 0.6909 0.49206 0.09334 0.0
O5 O 0.71348 0.50623 0.08458 0.0
H6 H 0.69531 0.47139 0.10931 0.0
C7 C 0.78675 0.47325 0.07385 0.0
C8 C 0.77735 0.48135 0.14919 0.0
C9 C 0.77227 0.47687 0.00229 0.0
C10 C 0.7474 0.48777 0.00651 0.0
C11 C 0.73726 0.49513 0.08176 0.0
C12 C 0.7524 0.49239 0.15305 0.0
H13 H 0.98289 0.80439 0.06156 0.0
H14 H 0.97016 0.73028 0.94595 0.0
H15 H 0.94413 0.7433 0.19043 0.0
H16 H 0.94839 0.67649 0.1373 0.0
C17 C 0.96014 0.68784 0.09362 0.0
O18 O 0.94622 0.70966 0.0702 0.0
H19 H 0.97839 0.69338 0.12612 0.0
C20 C 0.97596 0.78444 0.0638 0.0
C21 C 0.96331 0.77582 0.13343 0.0
C22 C 0.97889 0.76822 -0.00384 0.0
C23 C 0.96874 0.74289 -0.00152 0.0
C24 C 0.9565 0.73383 0.06893 0.0
C25 C 0.95393 0.75024 0.1367 0.0
H26 H 0.70844 0.00833 0.10175 0.0
H27 H 0.77813 0.01359 0.96206 0.0
H28 H 0.78143 0.98619 0.20958 0.0
H29 H 0.83463 0.01433 0.15199 0.0
C30 C 0.82652 0.01582 0.08928 0.0
O31 O 0.80862 0.99612 0.07835 0.0
H32 H 0.81732 0.03537 0.08239 0.0
C33 C 0.72934 0.00648 0.09733 0.0
C34 C 0.74337 0.99657 0.16365 0.0
C35 C 0.74159 0.01295 0.02463 0.0
C36 C 0.76843 0.00925 0.01849 0.0
C37 C 0.78284 0.99997 0.08548 0.0
C38 C 0.77034 0.99377 0.15846 0.0
H39 H 0.5238 0.70665 0.09277 0.0
H40 H 0.53117 0.77926 0.96429 0.0
H41 H 0.5553 0.77348 0.21517 0.0
H42 H 0.54474 0.83805 0.14972 0.0
C43 C 0.53511 0.82519 0.10442 0.0
O44 O 0.55138 0.80444 0.08854 0.0
H45 H 0.51661 0.81837 0.13162 0.0
C46 C 0.52892 0.72716 0.0921 0.0
C47 C 0.53998 0.73824 0.16174 0.0
C48 C 0.52533 0.74171 0.02089 0.0
C49 C 0.5331 0.76789 0.01956 0.0
C50 C 0.5435 0.7794 0.09015 0.0
C51 C 0.54681 0.76463 0.16142 0.0
H52 H 0.20526 0.52527 0.1009 0.0
H53 H 0.27777 0.52922 0.23161 0.0
H54 H 0.2742 0.49373 -0.00533 0.0
H55 H 0.31831 0.46825 0.1074 0.0
C56 C 0.3132 0.48222 0.15626 0.0
O57 O 0.30453 0.50512 0.12074 0.0
H58 H 0.29771 0.47288 0.19293 0.0
C59 C 0.22601 0.52184 0.10399 0.0
C60 C 0.23794 0.50893 0.03966 0.0
C61 C 0.24009 0.52943 0.17322 0.0
C62 C 0.2667 0.52396 0.17782 0.0
C63 C 0.27902 0.51106 0.11375 0.0
C64 C 0.26469 0.50378 0.04395 0.0
H65 H 0.03841 0.20984 0.17903 0.0
H66 H 0.0254 0.28636 0.27517 0.0
H67 H 0.04294 0.27672 0.02158 0.0
H68 H 0.0605 0.33463 0.08884 0.0
C69 C 0.0547 0.32654 0.14862 0.0
O70 O 0.03337 0.31069 0.13727 0.0
H71 H 0.07171 0.3154 0.17274 0.0
C72 C 0.03769 0.23079 0.16988 0.0
C73 C 0.04182 0.24119 0.09247 0.0
C74 C 0.03164 0.24684 0.23544 0.0
C75 C 0.02998 0.27381 0.22444 0.0
C76 C 0.03445 0.28459 0.14744 0.0
C77 C 0.03998 0.26829 0.08115 0.0
H78 H 0.29949 0.9883 0.10095 0.0
H79 H 0.22604 0.97556 0.21521 0.0
H80 H 0.22886 0.00259 0.96734 0.0
H81 H 0.16985 0.01449 0.05225 0.0
C82 C 0.18373 0.01144 0.10345 0.0
O83 O 0.19829 0.98944 0.08737 0.0
H84 H 0.19625 0.02911 0.10685 0.0
C85 C 0.27845 0.98847 0.09808 0.0
C86 C 0.26597 0.99685 0.02689 0.0
C87 C 0.26437 0.98037 0.16568 0.0
C88 C 0.23722 0.98125 0.16274 0.0
C89 C 0.22445 0.98919 0.09098 0.0
C90 C 0.23882 0.99661 0.02262 0.0
H91 H 0.48071 0.29488 0.09133 0.0
H92 H 0.497 0.22404 0.22169 0.0
H93 H 0.49856 0.22489 0.96009 0.0
H94 H 0.48457 0.16652 0.02865 0.0
C95 C 0.48347 0.17677 0.08794 0.0
O96 O 0.50272 0.19547 0.09048 0.0
H97 H 0.46383 0.18575 0.09193 0.0
C98 C 0.48467 0.27409 0.09109 0.0
C99 C 0.48867 0.26142 0.0172 0.0
C100 C 0.48799 0.26092 0.1649 0.0
C101 C 0.49436 0.23439 0.16478 0.0
C102 C 0.49737 0.22123 0.09072 0.0
C103 C 0.49514 0.23488 0.01695 0.0
Zn104 Zn 0.02032 0.04484 0.64527 0.0
Zn105 Zn 0.00452 0.96695 0.58567 0.0
C106 C 0.01666 0.08156 0.76499 0.0
O107 O 0.99323 0.08003 0.73331 0.0
C108 C 0.00477 0.93171 0.46038 0.0
O109 O 0.02878 0.93154 0.48792 0.0
O110 O 0.01066 0.07462 0.57054 0.0
O111 O 0.04893 0.02574 0.58813 0.0
O112 O 0.03729 0.98558 0.55316 0.0
C113 C 0.02901 0.09113 0.56763 0.0
O114 O 0.05147 0.08523 0.60132 0.0
O115 O 0.03362 0.0651 0.74256 0.0
C116 C 0.99375 0.92122 0.6637 0.0
O117 O 0.97111 0.9298 0.63766 0.0
O118 O 0.01359 0.93554 0.65399 0.0
O119 O 0.97676 0.98557 0.64836 0.0
O120 O 0.98825 0.02588 0.68056 0.0
O121 O 0.9893 0.94891 0.48729 0.0
C122 C 0.05344 0.00428 0.55238 0.0
C123 C 0.97238 0.00703 0.68402 0.0
Zn124 Zn 0.46312 0.99374 0.59351 0.0
Zn125 Zn 0.54432 0.99992 0.58422 0.0
C126 C 0.42428 0.98795 0.70395 0.0
O127 O 0.42945 0.96412 0.67982 0.0
C128 C 0.58482 0.00617 0.47898 0.0
O129 O 0.57926 0.03001 0.50219 0.0
O130 O 0.43682 0.9796 0.51377 0.0
O131 O 0.48044 0.02413 0.53822 0.0
O132 O 0.5232 0.02843 0.53283 0.0
C133 C 0.41992 0.99687 0.49638 0.0
O134 O 0.42379 0.02084 0.52166 0.0
O135 O 0.43896 0.00635 0.68072 0.0
C136 C 0.58584 0.99745 0.68703 0.0
O137 O 0.5827 0.9736 0.6598 0.0
O138 O 0.56901 0.0146 0.66791 0.0
O139 O 0.52669 0.96937 0.63623 0.0
O140 O 0.48406 0.96434 0.64225 0.0
O141 O 0.56992 0.98773 0.50047 0.0
C142 C 0.50049 0.03662 0.51666 0.0
C143 C 0.50694 0.95634 0.65714 0.0
Zn144 Zn 0.51177 0.46113 0.58934 0.0
Zn145 Zn 0.50935 0.54182 0.60087 0.0
C146 C 0.51818 0.42039 0.69204 0.0
O147 O 0.54018 0.42258 0.65309 0.0
C148 C 0.50701 0.58349 0.49539 0.0
O149 O 0.4833 0.58209 0.52342 0.0
O150 O 0.51646 0.43335 0.50382 0.0
O151 O 0.48246 0.48362 0.5479 0.0
O152 O 0.47651 0.52622 0.5532 0.0
C153 C 0.49594 0.41956 0.50117 0.0
O154 O 0.47563 0.42743 0.542 0.0
O155 O 0.50114 0.43819 0.68306 0.0
C156 C 0.52016 0.58283 0.70162 0.0
O157 O 0.54285 0.57613 0.67269 0.0
O158 O 0.50067 0.56848 0.6858 0.0
O159 O 0.53929 0.51971 0.64398 0.0
O160 O 0.54531 0.47719 0.6278 0.0
O161 O 0.52309 0.56563 0.51442 0.0
C162 C 0.46876 0.50367 0.53277 0.0
C163 C 0.5529 0.49921 0.65399 0.0
Zn164 Zn 0.04209 0.52386 0.58541 0.0
Zn165 Zn 0.97325 0.50028 0.60832 0.0
C166 C 0.07943 0.52469 0.70557 0.0
O167 O 0.07475 0.54925 0.68787 0.0
C168 C 0.93985 0.48202 0.48906 0.0
O169 O 0.94688 0.46095 0.52919 0.0
O170 O 0.07003 0.53959 0.51661 0.0
O171 O 0.02453 0.49776 0.51106 0.0
O172 O 1.00122 0.47306 0.59168 0.0
C173 C 0.08634 0.5221 0.49747 0.0
O174 O 0.08114 0.49771 0.51547 0.0
O175 O 0.06474 0.5074 0.67409 0.0
C176 C 0.92529 0.50052 0.67645 0.0
O177 O 0.92624 0.52227 0.63438 0.0
O178 O 0.94566 0.48658 0.68298 0.0
O179 O 0.98221 0.53563 0.65436 0.0
O180 O 0.02111 0.55258 0.63477 0.0
O181 O 0.95189 0.50317 0.50385 0.0
C182 C 0.01652 0.47539 0.53215 0.0
C183 C 0.99832 0.55417 0.66273 0.0
H184 H 0.17022 0.96646 0.18788 0.0
H185 H 0.16186 0.05016 0.19101 0.0
H186 H 0.14278 0.9631 0.307 0.0
H187 H 0.13353 0.04685 0.30801 0.0
H188 H 0.09522 0.03714 0.54729 0.0
H189 H 0.13012 0.03718 0.44875 0.0
H190 H 0.09827 0.96772 0.33826 0.0
H191 H 0.06404 0.9672 0.43812 0.0
C192 C 0.16277 0.98418 0.21457 0.0
C193 C 0.16859 0.00869 0.181 0.0
C194 C 0.14682 0.98225 0.28252 0.0
C195 C 0.13592 0.0047 0.31749 0.0
C196 C 0.14199 0.02917 0.28409 0.0
C197 C 0.15809 0.0311 0.21669 0.0
C198 C 0.09594 0.02161 0.50285 0.0
C199 C 0.07669 1.00225 0.50046 0.0
C200 C 0.11586 0.02174 0.44589 0.0
C201 C 0.11689 0.00265 0.3847 0.0
C202 C 0.09834 0.98259 0.38487 0.0
C203 C 0.07857 0.98234 0.44221 0.0
H204 H 0.45876 0.13061 0.10265 0.0
H205 H 0.51424 0.17938 0.22856 0.0
H206 H 0.46202 0.09847 0.21199 0.0
H207 H 0.51714 0.14758 0.33819 0.0
H208 H 0.5386 0.06849 0.45878 0.0
H209 H 0.53412 0.10341 0.35944 0.0
H210 H 0.4511 0.09266 0.35553 0.0
H211 H 0.45552 0.0574 0.45398 0.0
C212 C 0.47163 0.13441 0.15371 0.0
C213 C 0.48646 0.15729 0.1562 0.0
C214 C 0.47332 0.11618 0.21664 0.0
C215 C 0.48984 0.12051 0.28378 0.0
C216 C 0.50448 0.14356 0.28681 0.0
C217 C 0.50274 0.16183 0.22391 0.0
C218 C 0.51933 0.0737 0.4375 0.0
C219 C 0.49743 0.05992 0.46401 0.0
C220 C 0.51678 0.09383 0.38074 0.0
C221 C 0.49228 0.10064 0.34908 0.0
C222 C 0.47028 0.08756 0.3778 0.0
C223 C 0.47282 0.06746 0.43474 0.0
H224 H 0.31394 0.50676 0.3041 0.0
H225 H 0.3642 0.4692 0.13228 0.0
H226 H 0.35077 0.51276 0.39763 0.0
H227 H 0.40101 0.47514 0.2252 0.0
H228 H 0.45254 0.46108 0.44668 0.0
H229 H 0.41493 0.45714 0.3575 0.0
H230 H 0.39294 0.5363 0.41293 0.0
H231 H 0.43061 0.54018 0.50388 0.0
C232 C 0.33295 0.50006 0.28616 0.0
C233 C 0.33624 0.48742 0.21128 0.0
C234 C 0.35402 0.50351 0.33952 0.0
C235 C 0.37879 0.49422 0.31924 0.0
C236 C 0.38211 0.48213 0.24332 0.0
C237 C 0.3611 0.47885 0.18986 0.0
C238 C 0.43953 0.47755 0.44125 0.0
C239 C 0.4446 0.50088 0.48326 0.0
C240 C 0.4181 0.47539 0.38906 0.0
C241 C 0.40103 0.49648 0.37743 0.0
C242 C 0.40565 0.51965 0.42082 0.0
C243 C 0.42727 0.52188 0.4728 0.0
H244 H 0.03868 0.37616 0.11271 0.0
H245 H 0.05515 0.32496 0.31485 0.0
H246 H 0.02855 0.41141 0.20709 0.0
H247 H 0.04515 0.36023 0.40987 0.0
H248 H 1.00031 0.4246 0.54928 0.0
H249 H 0.00854 0.38808 0.45751 0.0
H250 H 0.05341 0.43864 0.30347 0.0
H251 H 0.04514 0.47496 0.39391 0.0
C252 C 0.0402 0.37255 0.17746 0.0
C253 C 0.04813 0.3481 0.20677 0.0
C254 C 0.03447 0.39268 0.23148 0.0
C255 C 0.03629 0.38867 0.31596 0.0
C256 C 0.04346 0.36389 0.34519 0.0
C257 C 0.04933 0.34379 0.29102 0.0
C258 C 0.01197 0.42789 0.49592 0.0
C259 C 0.02195 0.45277 0.47889 0.0
C260 C 0.01674 0.40695 0.44353 0.0
C261 C 0.03145 0.41054 0.37291 0.0
C262 C 0.04163 0.43533 0.35658 0.0
C263 C 0.03699 0.45614 0.40889 0.0
H264 H 0.8224 1.00218 0.92765 0.0
H265 H 0.87814 0.02599 0.11029 0.0
H266 H 0.85664 1.00067 0.82653 0.0
H267 H 0.9125 0.02434 0.00929 0.0
H268 H 0.96105 0.04606 0.79103 0.0
H269 H 0.92537 0.04822 0.88594 0.0
H270 H 0.89623 0.97489 0.79506 0.0
H271 H 0.93183 0.97285 0.69871 0.0
C272 C 0.84203 0.00679 0.94638 0.0
C273 C 0.84774 0.01362 0.02734 0.0
C274 C 0.86163 0.0059 0.88848 0.0
C275 C 0.88727 0.0123 0.90997 0.0
C276 C 0.89289 0.01948 0.99071 0.0
C277 C 0.87331 0.02021 0.04869 0.0
C278 C 0.9469 0.03056 0.79018 0.0
C279 C 0.94936 0.00932 0.73687 0.0
C280 C 0.92657 0.03167 0.84535 0.0
C281 C 0.90812 0.01162 0.84849 0.0
C282 C 0.91008 0.99072 0.79376 0.0
C283 C 0.93053 0.98953 0.73872 0.0
H284 H 0.49345 0.85632 0.07246 0.0
H285 H 0.56523 0.83028 0.96708 0.0
H286 H 0.48593 0.88499 0.95609 0.0
H287 H 0.55725 0.85793 0.84918 0.0
H288 H 0.55249 0.93695 0.71864 0.0
H289 H 0.55826 0.90296 0.81937 0.0
H290 H 0.47582 0.88803 0.81402 0.0
H291 H 0.4699 0.92292 0.71477 0.0
C292 C 0.50729 0.85632 0.02343 0.0
C293 C 0.52964 0.84075 0.02828 0.0
C294 C 0.50294 0.8726 0.95647 0.0
C295 C 0.52094 0.87373 0.89292 0.0
C296 C 0.54311 0.85777 0.89731 0.0
C297 C 0.54757 0.84171 0.96462 0.0
C298 C 0.53559 0.92628 0.73795 0.0
C299 C 0.5107 0.93295 0.70902 0.0
C300 C 0.53892 0.90657 0.79563 0.0
C301 C 0.51749 0.8928 0.82543 0.0
C302 C 0.49271 0.89857 0.79356 0.0
C303 C 0.48934 0.91845 0.73613 0.0
H304 H 0.67946 0.53499 -0.00124 0.0
H305 H 0.66352 0.45282 0.01991 0.0
H306 H 0.64951 0.53792 0.88282 0.0
H307 H 0.63294 0.45572 0.90642 0.0
H308 H 0.5912 0.46236 0.66809 0.0
H309 H 0.62733 0.46151 0.76456 0.0
H310 H 0.60428 0.53699 0.85502 0.0
H311 H 0.56871 0.53816 0.75692 0.0
C312 C 0.66976 0.5175 0.97784 0.0
C313 C 0.6742 0.49358 0.01732 0.0
C314 C 0.65239 0.51919 0.91194 0.0
C315 C 0.63874 0.49705 0.88469 0.0
C316 C 0.64343 0.47309 0.92415 0.0
C317 C 0.66088 0.47141 0.98963 0.0
C318 C 0.59409 0.47898 0.70764 0.0
C319 C 0.57695 0.50032 0.70463 0.0
C320 C 0.61473 0.4784 0.76357 0.0
C321 C 0.61866 0.49902 0.81866 0.0
C322 C 0.60215 0.52086 0.8132 0.0
C323 C 0.58164 0.52153 0.75677 0.0
H324 H 0.92579 0.67006 0.9788 0.0
H325 H 0.00674 0.66727 0.04647 0.0
H326 H 0.93408 0.64088 0.86466 0.0
H327 H 0.01506 0.63741 0.93447 0.0
H328 H 0.02705 0.59801 0.69429 0.0
H329 H 0.01727 0.63282 0.78983 0.0
H330 H 0.94415 0.59604 0.84396 0.0
H331 H 0.95351 0.56179 0.74693 0.0
C332 C 0.94538 0.66327 0.96872 0.0
C333 C 0.96566 0.67102 0.02083 0.0
C334 C 0.95014 0.64643 0.90383 0.0
C335 C 0.97525 0.63673 0.89025 0.0
C336 C 0.99557 0.64482 0.94208 0.0
C337 C 0.99082 0.66178 0.00665 0.0
C338 C 0.00871 0.59756 0.72563 0.0
C339 C 0.99115 0.57698 0.71312 0.0
C340 C 1.00319 0.61743 0.78096 0.0
C341 C 0.98004 0.61714 0.82534 0.0
C342 C 0.96205 0.59711 0.81034 0.0
C343 C 0.96749 0.57733 0.75479 0.0
H344 H 0.06801 0.23256 0.34496 0.0
H345 H 0.98584 0.23057 0.29606 0.0
H346 H 0.06353 0.19762 0.44349 0.0
H347 H 0.98083 0.19593 0.39711 0.0
H348 H 0.9955 0.10719 0.4474 0.0
H349 H 0.9923 0.15085 0.38857 0.0
H350 H 0.04845 0.17885 0.56482 0.0
H351 H 0.05246 0.13508 0.62044 0.0
C352 C 0.04877 0.22552 0.35896 0.0
C353 C 0.02724 0.23425 0.31413 0.0
C354 C 0.04611 0.2054 0.41519 0.0
C355 C 0.02182 0.19362 0.42737 0.0
C356 C 0.99986 0.20423 0.38801 0.0
C357 C 1.00259 0.22434 0.33135 0.0
C358 C 0.00694 0.1228 0.47367 0.0
C359 C 0.02472 0.11772 0.53669 0.0
C360 C 0.00493 0.14789 0.44076 0.0
C361 C 0.02035 0.16837 0.47146 0.0
C362 C 0.03677 0.16346 0.53842 0.0
C363 C 0.03911 0.13837 0.57014 0.0
H364 H 0.26244 0.00246 0.31568 0.0
H365 H 0.30056 0.94227 0.17863 0.0
H366 H 0.29783 1.00154 0.41576 0.0
H367 H 0.3363 0.94188 0.27617 0.0
H368 H 0.40044 0.94813 0.46334 0.0
H369 H 0.35756 0.93763 0.40711 0.0
H370 H 0.33994 0.01986 0.38988 0.0
H371 H 0.3821 0.03019 0.4468 0.0
C372 C 0.27783 0.98825 0.30903 0.0
C373 C 0.27911 0.97273 0.23924 0.0
C374 C 0.29828 0.98795 0.36549 0.0
C375 C 0.32029 0.97226 0.35235 0.0
C376 C 0.31977 0.95428 0.28812 0.0
C377 C 0.29929 0.95448 0.23213 0.0
C378 C 0.38734 0.96389 0.44737 0.0
C379 C 0.39474 0.98999 0.45879 0.0
C380 C 0.36275 0.95789 0.41576 0.0
C381 C 0.34515 0.97788 0.39513 0.0
C382 C 0.35264 0.00391 0.40722 0.0
C383 C 0.37706 0.00987 0.4387 0.0
H384 H 0.52753 0.26943 0.27177 0.0
H385 H 0.44757 0.28877 0.22154 0.0
H386 H 0.53036 0.30572 0.36818 0.0
H387 H 0.45027 0.32506 0.31615 0.0
H388 H 0.45796 0.38335 0.51333 0.0
H389 H 0.45632 0.34026 0.45343 0.0
H390 H 0.53091 0.35325 0.34371 0.0
H391 H 0.53296 0.39647 0.40616 0.0
C392 C 0.51031 0.28084 0.284 0.0
C393 C 0.4873 0.27642 0.23999 0.0
C394 C 0.51203 0.30181 0.33794 0.0
C395 C 0.49068 0.31848 0.34875 0.0
C396 C 0.46704 0.31252 0.30973 0.0
C397 C 0.46539 0.29171 0.25574 0.0
C398 C 0.47409 0.37711 0.47649 0.0
C399 C 0.49543 0.39353 0.46324 0.0
C400 C 0.47313 0.35232 0.4424 0.0
C401 C 0.4934 0.34337 0.39361 0.0
C402 C 0.51512 0.35948 0.38195 0.0
C403 C 0.51616 0.38434 0.41672 0.0
H404 H 0.24332 0.51356 0.33112 0.0
H405 H 0.20354 0.56793 0.17265 0.0
H406 H 0.20915 0.51848 0.43112 0.0
H407 H 0.16879 0.57191 0.27053 0.0
H408 H 0.10537 0.57043 0.45668 0.0
H409 H 0.14818 0.58026 0.40104 0.0
H410 H 0.16736 0.49825 0.40818 0.0
H411 H 0.12537 0.48861 0.46386 0.0
C412 C 0.22784 0.52738 0.31908 0.0
C413 C 0.22562 0.53979 0.24331 0.0
C414 C 0.20809 0.52997 0.37589 0.0
C415 C 0.18582 0.5448 0.35727 0.0
C416 C 0.18554 0.56015 0.28654 0.0
C417 C 0.20539 0.55774 0.23016 0.0
C418 C 0.11888 0.55461 0.44661 0.0
C419 C 0.11189 0.52873 0.46375 0.0
C420 C 0.14339 0.56024 0.41527 0.0
C421 C 0.16132 0.5401 0.40123 0.0
C422 C 0.15437 0.51436 0.42019 0.0
C423 C 0.13002 0.50876 0.45097 0.0
H424 H 0.0239 0.7953 0.98247 0.0
H425 H 0.95804 0.76804 0.84314 0.0
H426 H 0.03185 0.82876 0.88149 0.0
H427 H 0.96679 0.80066 0.73901 0.0
H428 H 0.9542 0.88887 0.70112 0.0
H429 H 0.9565 0.84538 0.75679 0.0
H430 H 0.04025 0.84863 0.75365 0.0
H431 H 0.03784 0.89303 0.69936 0.0
C432 C 0.01189 0.79571 0.92803 0.0
C433 C 0.98987 0.77972 0.92167 0.0
C434 C 0.0165 0.81485 0.86978 0.0
C435 C 0.99933 0.81805 0.80363 0.0
C436 C 0.97982 0.79926 0.7909 0.0
C437 C 0.97501 0.7803 0.84986 0.0
C438 C 0.97316 0.88035 0.71181 0.0
C439 C 0.99584 0.89456 0.69697 0.0
C440 C 0.9745 0.85511 0.7426 0.0
C441 C 0.99858 0.84325 0.75898 0.0
C442 C 0.02138 0.85721 0.74207 0.0
C443 C 0.02002 0.88268 0.71144 0.0
H444 H 0.70312 0.04939 0.02045 0.0
H445 H 0.74254 0.99307 0.87119 0.0
H446 H 0.66695 0.05028 0.92424 0.0
H447 H 0.70684 0.99477 0.7728 0.0
H448 H 0.62371 0.96428 0.73653 0.0
H449 H 0.66513 0.97466 0.79831 0.0
H450 H 0.64592 0.05665 0.79145 0.0
H451 H 0.60376 0.04611 0.72962 0.0
C452 C 0.70447 0.038 0.96525 0.0
C453 C 0.72522 0.02062 0.95418 0.0
C454 C 0.68381 0.03862 0.90988 0.0
C455 C 0.68371 0.02198 0.84227 0.0
C456 C 0.70611 0.00727 0.8257 0.0
C457 C 0.72671 0.00653 0.88143 0.0
C458 C 0.62822 0.98457 0.74791 0.0
C459 C 0.61036 0.00437 0.72864 0.0
C460 C 0.65221 0.99056 0.78229 0.0
C461 C 0.65906 0.01653 0.79835 0.0
C462 C 0.6412 0.03645 0.77943 0.0
C463 C 0.61704 0.03042 0.74462 0.0
H464 H 0.48195 0.71222 0.00457 0.0
H465 H 0.5491 0.73862 0.87434 0.0
H466 H 0.47708 0.67592 0.911 0.0
H467 H 0.54367 0.70286 0.77791 0.0
H468 H 0.55844 0.61473 0.75545 0.0
H469 H 0.55449 0.65841 0.80936 0.0
H470 H 0.47113 0.65421 0.78279 0.0
H471 H 0.47514 0.60983 0.73001 0.0
C472 C 0.49489 0.71092 0.9533 0.0
C473 C 0.51624 0.72777 0.94752 0.0
C474 C 0.49211 0.69011 0.89954 0.0
C475 C 0.51054 0.68598 0.83868 0.0
C476 C 0.52965 0.70509 0.82591 0.0
C477 C 0.53254 0.72583 0.88022 0.0
C478 C 0.53923 0.62305 0.76113 0.0
C479 C 0.51709 0.60872 0.73929 0.0
C480 C 0.53697 0.64833 0.79082 0.0
C481 C 0.5125 0.66006 0.7991 0.0
C482 C 0.49026 0.64574 0.77716 0.0
C483 C 0.49254 0.62028 0.74757 0.0
H484 H 0.77807 0.51305 0.88426 0.0
H485 H 0.79821 0.43398 0.9484 0.0
H486 H 0.81301 0.51403 0.78689 0.0
H487 H 0.83297 0.4345 0.84882 0.0
H488 H 0.91605 0.46731 0.80309 0.0
H489 H 0.87396 0.45607 0.85955 0.0
H490 H 0.83578 0.50081 0.66997 0.0
H491 H 0.87782 0.51283 0.6161 0.0
C492 C 0.78914 0.4954 0.8743 0.0
C493 C 0.78572 0.47357 0.92429 0.0
C494 C 0.80933 0.49594 0.81862 0.0
C495 C 0.82627 0.47453 0.81157 0.0
C496 C 0.82072 0.45155 0.8545 0.0
C497 C 0.80064 0.4511 0.91064 0.0
C498 C 0.89861 0.4745 0.77336 0.0
C499 C 0.90014 0.49146 0.70682 0.0
C500 C 0.87445 0.46786 0.80495 0.0
C501 C 0.85142 0.47773 0.7696 0.0
C502 C 0.85309 0.49333 0.6997 0.0
C503 C 0.87719 0.50027 0.66904 0.0
H504 H 0.07669 0.20144 0.08506 0.0
H505 H 0.01502 0.2388 0.94903 0.0
H506 H 0.07367 0.1634 -0.003 0.0
H507 H 0.01244 0.20102 0.85897 0.0
H508 H 0.98398 0.11694 0.83054 0.0
H509 H 0.99472 0.15835 0.89304 0.0
H510 H 0.07629 0.14205 0.8639 0.0
H511 H 0.06544 0.10007 0.80142 0.0
C512 C 0.06314 0.20185 0.03428 0.0
C513 C 0.04579 0.22282 0.02447 0.0
C514 C 0.06144 0.18008 0.98374 0.0
C515 C 0.04236 0.17893 0.92235 0.0
C516 C 0.02692 0.20112 0.90714 0.0
C517 C 0.02862 0.22291 0.95784 0.0
C518 C 0.00424 0.12205 0.83773 0.0
C519 C 0.02386 0.10515 0.81138 0.0
C520 C 0.0104 0.14601 0.87254 0.0
C521 C 0.03635 0.15376 0.88191 0.0
C522 C 0.05609 0.13664 0.85724 0.0
C523 C 0.0499 0.11254 0.82212 0.0
H524 H 0.30249 0.03469 0.02442 0.0
H525 H 0.26728 0.97483 0.87663 0.0
H526 H 0.3393 0.03644 0.93313 0.0
H527 H 0.30389 0.97692 0.78349 0.0
H528 H 0.38941 0.95236 0.75639 0.0
H529 H 0.34726 0.96012 0.81504 0.0
H530 H 0.35979 0.04321 0.80052 0.0
H531 H 0.40256 0.03539 0.74175 0.0
C532 C 0.30216 0.02275 0.97015 0.0
C533 C 0.28231 0.00442 0.95772 0.0
C534 C 0.32324 0.02374 0.91783 0.0
C535 C 0.3248 0.00636 0.85226 0.0
C536 C 0.30345 0.99015 0.83469 0.0
C537 C 0.28233 0.98917 0.88717 0.0
C538 C 0.3833 0.97233 0.76562 0.0
C539 C 0.39945 0.99326 0.74489 0.0
C540 C 0.35889 0.97678 0.79818 0.0
C541 C 0.34994 1.00229 0.81106 0.0
C542 C 0.36614 0.02332 0.791 0.0
C543 C 0.39066 0.01885 0.75793 0.0
H544 H 0.44938 0.28965 0.94973 0.0
H545 H 0.53043 0.27117 0.92482 0.0
H546 H 0.45425 0.32661 0.85741 0.0
H547 H 0.53588 0.30864 0.83613 0.0
H548 H 0.53896 0.37338 0.65698 0.0
H549 H 0.52852 0.33134 0.71538 0.0
H550 H 0.47274 0.36839 0.87223 0.0
H551 H 0.48233 0.41049 0.80987 0.0
C552 C 0.46804 0.29309 0.9221 0.0
C553 C 0.48951 0.2776 0.94339 0.0
C554 C 0.47098 0.31449 0.87056 0.0
C555 C 0.49557 0.32103 0.84067 0.0
C556 C 0.51659 0.30417 0.8572 0.0
C557 C 0.51352 0.28256 0.90773 0.0
C558 C 0.52449 0.37257 0.70414 0.0
C559 C 0.51175 0.39526 0.73009 0.0
C560 C 0.51848 0.34841 0.73758 0.0
C561 C 0.49992 0.34636 0.799 0.0
C562 C 0.48685 0.3691 0.82409 0.0
C563 C 0.49253 0.39329 0.78928 0.0
H564 H 0.23709 0.53009 0.88816 0.0
H565 H 0.1998 0.47271 0.03813 0.0
H566 H 0.19984 0.52959 0.79465 0.0
H567 H 0.16241 0.47233 0.94572 0.0
H568 H 0.09913 0.47595 0.744 0.0
H569 H 0.1413 0.4661 0.80822 0.0
H570 H 0.15707 0.54848 0.82726 0.0
H571 H 0.11556 0.55825 0.76447 0.0
C572 C 0.22146 0.51648 0.89891 0.0
C573 C 0.22128 0.50137 0.9699 0.0
C574 C 0.19996 0.51645 0.84621 0.0
C575 C 0.17792 0.50133 0.86382 0.0
C576 C 0.17903 0.48414 0.93026 0.0
C577 C 0.20048 0.48426 0.98301 0.0
C578 C 0.1116 0.49189 0.7624 0.0
C579 C 0.10386 0.51788 0.74934 0.0
C580 C 0.13578 0.48625 0.79867 0.0
C581 C 0.15277 0.5065 0.82135 0.0
C582 C 0.14483 0.53238 0.80858 0.0
C583 C 0.12076 0.53798 0.77343 0.0
H584 H 0.93474 0.82001 0.1317 0.0
H585 H 0.98677 0.77456 0.28206 0.0
H586 H 0.94137 0.85771 0.21968 0.0
H587 H 0.99326 0.81219 0.3714 0.0
H588 H 0.03326 0.89175 0.40025 0.0
H589 H 0.0178 0.85193 0.33723 0.0
H590 H 0.93889 0.87945 0.35424 0.0
H591 H 0.95445 0.91976 0.4177 0.0
C592 C 0.9467 0.81785 0.18588 0.0
C593 C 0.96027 0.79453 0.20053 0.0
C594 C 0.95056 0.83943 0.2361 0.0
C595 C 0.96824 0.83806 0.30146 0.0
C596 C 0.97987 0.81392 0.32048 0.0
C597 C 0.97592 0.79229 0.27028 0.0
C598 C 0.0126 0.88947 0.39036 0.0
C599 C 0.9951 0.909 0.41382 0.0
C600 C 1.00371 0.86643 0.35523 0.0
C601 C 0.97708 0.86229 0.34232 0.0
C602 C 0.95952 0.88205 0.36387 0.0
C603 C 0.96845 0.90518 0.39961 0.0
H604 H 0.71 0.95643 0.17685 0.0
H605 H 0.74183 0.02163 0.30877 0.0
H606 H 0.67316 0.9552 0.26796 0.0
H607 H 0.70529 0.0201 0.40223 0.0
H608 H 0.61897 0.0418 0.42228 0.0
H609 H 0.66176 0.03425 0.36785 0.0
H610 H 0.65171 0.95122 0.39816 0.0
H611 H 0.60828 0.95884 0.45201 0.0
C612 C 0.70974 0.96957 0.22833 0.0
C613 C 0.72857 0.98916 0.23608 0.0
C614 C 0.68858 0.96897 0.2804 0.0
C615 C 0.68594 0.988 0.34103 0.0
C616 C 0.70649 0.00557 0.35474 0.0
C617 C 0.72764 0.00622 0.30231 0.0
C618 C 0.62579 0.02189 0.41736 0.0
C619 C 0.61011 1.00091 0.44088 0.0
C620 C 0.65056 0.01757 0.38728 0.0
C621 C 0.66041 0.99214 0.38 0.0
C622 C 0.6447 0.97105 0.40316 0.0
C623 C 0.61978 0.9754 0.43343 0.0
H624 H 0.57131 0.69618 0.1702 0.0
H625 H 0.51681 0.74108 0.3092 0.0
H626 H 0.56691 0.65982 0.26406 0.0
H627 H 0.51277 0.70487 0.40539 0.0
H628 H 0.47672 0.62354 0.44255 0.0
H629 H 0.49027 0.66417 0.38089 0.0
H630 H 0.57024 0.63924 0.39608 0.0
H631 H 0.55653 0.59805 0.45677 0.0
C632 C 0.55929 0.6986 0.22327 0.0
C633 C 0.54426 0.7212 0.23266 0.0
C634 C 0.55673 0.67778 0.27706 0.0
C635 C 0.53904 0.67924 0.34116 0.0
C636 C 0.52613 0.703 0.35542 0.0
C637 C 0.52868 0.72385 0.30131 0.0
C638 C 0.49721 0.62665 0.43272 0.0
C639 C 0.51553 0.60746 0.45382 0.0
C640 C 0.50503 0.65016 0.39847 0.0
C641 C 0.53139 0.65515 0.38467 0.0
C642 C 0.54978 0.63597 0.40588 0.0
C643 C 0.54192 0.61233 0.44014 0.0
H644 H 0.80471 0.43962 0.20409 0.0
H645 H 0.79213 0.52141 0.249 0.0
H646 H 0.84305 0.44034 0.29076 0.0
H647 H 0.83023 0.52211 0.33932 0.0
H648 H 0.91881 0.52078 0.39265 0.0
H649 H 0.87651 0.52069 0.32385 0.0
H650 H 0.86136 0.44392 0.42057 0.0
H651 H 0.90371 0.44357 0.48541 0.0
C652 C 0.8097 0.45758 0.23507 0.0
C653 C 0.79547 0.48045 0.2198 0.0
C654 C 0.83174 0.45805 0.28493 0.0
C655 C 0.84008 0.48139 0.32151 0.0
C656 C 0.82472 0.50391 0.31083 0.0
C657 C 0.8026 0.50343 0.26043 0.0
C658 C 0.90651 0.50382 0.39831 0.0
C659 C 0.9149 0.48202 0.44327 0.0
C660 C 0.88208 0.50388 0.35989 0.0
C661 C 0.8654 0.48225 0.36639 0.0
C662 C 0.87376 0.46071 0.41263 0.0
C663 C 0.89818 0.46052 0.44991 0.0
loop_
_geom_bond_atom_site_label_1
_geom_bond_atom_site_label_2
_geom_bond_distance
_geom_bond_site_symmetry_2
_ccdc_geom_bond_type
H0 C7 0.929 . S
H1 C10 0.930 . S
H2 C12 0.929 . S
H3 C4 0.969 . S
C4 H3 0.969 . S
C4 O5 1.550 1_556 S
C4 H6 0.973 . S
O5 C4 1.550 1_554 S
O5 C11 1.412 . S
H6 C4 0.973 . S
C7 H0 0.929 . S
C7 C8 1.400 . S
C7 C9 1.364 1_554 S
C8 C7 1.400 . S
C8 C12 1.377 . S
C9 C7 1.364 1_556 S
C9 C10 1.374 . S
C10 H1 0.930 . S
C10 C9 1.374 . S
C10 C11 1.383 1_556 S
C11 O5 1.412 . S
C11 C10 1.383 1_554 S
C11 C12 1.394 . S
C12 H2 0.929 . S
C12 C8 1.377 . S
C12 C11 1.394 . S
H13 C20 0.929 . S
H14 C23 0.930 . S
H15 C25 0.929 . S
H16 C17 0.969 . S
C17 H16 0.969 . S
C17 O18 1.550 1_556 S
C17 H19 0.973 . S
O18 C17 1.550 1_554 S
O18 C24 1.412 . S
H19 C17 0.973 . S
C20 H13 0.929 . S
C20 C21 1.400 . S
C20 C22 1.364 1_554 S
C21 C20 1.400 . S
C21 C25 1.377 . S
C22 C20 1.364 1_556 S
C22 C23 1.374 . S
C23 H14 0.930 . S
C23 C22 1.374 . S
C23 C24 1.383 1_556 S
C24 O18 1.412 . S
C24 C23 1.383 1_554 S
C24 C25 1.394 . S
C25 H15 0.929 . S
C25 C21 1.377 . S
C25 C24 1.394 . S
H26 C33 0.928 1_565 S
H27 C36 0.931 . S
H28 C38 0.928 1_565 S
H29 C30 0.969 . S
C30 H29 0.969 . S
C30 O31 1.550 1_546 S
C30 H32 0.973 1_545 S
O31 C30 1.550 1_564 S
O31 C37 1.405 1_565 S
H32 C30 0.973 1_565 S
C33 H26 0.928 1_545 S
C33 C34 1.399 . S
C33 C35 1.364 1_554 S
C34 C33 1.399 . S
C34 C38 1.377 . S
C35 C33 1.364 1_556 S
C35 C36 1.374 1_545 S
C36 H27 0.931 . S
C36 C35 1.374 1_565 S
C36 C37 1.382 1_566 S
C37 O31 1.405 1_545 S
C37 C36 1.382 1_544 S
C37 C38 1.394 . S
C38 H28 0.928 1_545 S
C38 C34 1.377 . S
C38 C37 1.394 . S
H39 C46 0.929 . S
H40 C49 0.930 . S
H41 C51 0.929 . S
H42 C43 0.969 . S
C43 H42 0.969 . S
C43 O44 1.550 1_556 S
C43 H45 0.973 . S
O44 C43 1.550 1_554 S
O44 C50 1.412 . S
H45 C43 0.973 . S
C46 H39 0.929 . S
C46 C47 1.400 . S
C46 C48 1.364 1_554 S
C47 C46 1.400 . S
C47 C51 1.377 . S
C48 C46 1.364 1_556 S
C48 C49 1.374 . S
C49 H40 0.930 . S
C49 C48 1.374 . S
C49 C50 1.383 1_556 S
C50 O44 1.412 . S
C50 C49 1.383 1_554 S
C50 C51 1.394 . S
C51 H41 0.929 . S
C51 C47 1.377 . S
C51 C50 1.394 . S
H52 C59 0.929 . S
H53 C62 0.930 . S
H54 C64 0.929 . S
H55 C56 0.969 . S
C56 H55 0.969 . S
C56 O57 1.550 . S
C56 H58 0.973 . S
O57 C56 1.550 . S
O57 C63 1.412 . S
H58 C56 0.973 . S
C59 H52 0.929 . S
C59 C60 1.400 . S
C59 C61 1.364 . S
C60 C59 1.400 . S
C60 C64 1.377 . S
C61 C59 1.364 . S
C61 C62 1.374 . S
C62 H53 0.930 . S
C62 C61 1.374 . S
C62 C63 1.383 . S
C63 O57 1.412 . S
C63 C62 1.383 . S
C63 C64 1.394 . S
C64 H54 0.929 . S
C64 C60 1.377 . S
C64 C63 1.394 . S
H65 C72 0.929 . S
H66 C75 0.930 . S
H67 C77 0.929 . S
H68 C69 0.969 . S
C69 H68 0.969 . S
C69 O70 1.550 . S
C69 H71 0.973 . S
O70 C69 1.550 . S
O70 C76 1.412 . S
H71 C69 0.973 . S
C72 H65 0.929 . S
C72 C73 1.400 . S
C72 C74 1.364 . S
C73 C72 1.400 . S
C73 C77 1.377 . S
C74 C72 1.364 . S
C74 C75 1.374 . S
C75 H66 0.930 . S
C75 C74 1.374 . S
C75 C76 1.383 . S
C76 O70 1.412 . S
C76 C75 1.383 . S
C76 C77 1.394 . S
C77 H67 0.929 . S
C77 C73 1.377 . S
C77 C76 1.394 . S
H78 C85 0.928 1_565 S
H79 C88 0.930 . S
H80 C90 0.928 1_565 S
H81 C82 0.969 . S
C82 H81 0.969 . S
C82 O83 1.550 1_545 S
C82 H84 0.973 1_545 S
O83 C82 1.550 1_565 S
O83 C89 1.402 1_565 S
H84 C82 0.973 1_565 S
C85 H78 0.928 1_545 S
C85 C86 1.400 . S
C85 C87 1.364 . S
C86 C85 1.400 . S
C86 C90 1.377 . S
C87 C85 1.364 . S
C87 C88 1.374 1_545 S
C88 H79 0.930 . S
C88 C87 1.374 1_565 S
C88 C89 1.382 1_565 S
C89 O83 1.402 1_545 S
C89 C88 1.382 1_545 S
C89 C90 1.394 . S
C90 H80 0.928 1_545 S
C90 C86 1.377 . S
C90 C89 1.394 . S
H91 C98 0.929 . S
H92 C101 0.930 . S
H93 C103 0.929 . S
H94 C95 0.969 . S
C95 H94 0.969 . S
C95 O96 1.550 . S
C95 H97 0.973 . S
O96 C95 1.550 . S
O96 C102 1.412 . S
H97 C95 0.973 . S
C98 H91 0.929 . S
C98 C99 1.400 . S
C98 C100 1.364 . S
C99 C98 1.400 . S
C99 C103 1.377 . S
C100 C98 1.364 . S
C100 C101 1.374 . S
C101 H92 0.930 . S
C101 C100 1.374 . S
C101 C102 1.383 . S
C102 O96 1.412 . S
C102 C101 1.383 . S
C102 C103 1.394 . S
C103 H93 0.929 . S
C103 C99 1.377 . S
C103 C102 1.394 . S
Zn104 O110 1.969 1_455 S
Zn104 O111 1.965 . S
Zn104 O115 2.024 . S
Zn104 O120 1.969 1_455 S
Zn105 O112 1.983 . S
Zn105 O118 1.975 . S
Zn105 O119 1.958 1_455 S
Zn105 O121 2.015 1_455 S
C106 O107 1.229 . S
C106 O115 1.058 . S
O107 C106 1.229 . S
C108 O109 1.229 1_655 S
C108 O121 1.058 . S
O109 C108 1.229 1_455 S
O110 Zn104 1.969 1_655 S
O110 C113 1.267 1_655 S
O111 Zn104 1.965 . S
O111 C122 1.260 1_545 S
O112 Zn105 1.983 . S
O112 C122 1.258 . S
C113 O110 1.267 1_455 S
C113 O114 1.228 . S
O114 C113 1.228 . S
O115 Zn104 2.024 . S
O115 C106 1.058 . S
C116 O117 1.228 . S
C116 O118 1.267 1_655 S
O117 C116 1.228 . S
O118 Zn105 1.975 . S
O118 C116 1.267 1_455 S
O119 Zn105 1.958 1_655 S
O119 C123 1.260 1_565 S
O120 Zn104 1.969 1_655 S
O120 C123 1.258 . S
O121 Zn105 2.015 1_655 S
O121 C108 1.058 . S
C122 O111 1.260 1_565 S
C122 O112 1.258 . S
C123 O119 1.260 1_545 S
C123 O120 1.258 . S
Zn124 O130 1.969 . S
Zn124 O131 1.965 1_565 S
Zn124 O135 2.024 1_565 S
Zn124 O140 1.969 . S
Zn125 O132 1.969 . S
Zn125 O138 1.969 . S
Zn125 O139 1.965 1_545 S
Zn125 O141 2.024 1_545 S
C126 O127 1.229 1_545 S
C126 O135 1.058 . S
O127 C126 1.229 1_565 S
C128 O129 1.229 1_565 S
C128 O141 1.058 . S
O129 C128 1.229 1_545 S
O130 Zn124 1.969 . S
O130 C133 1.267 . S
O131 Zn124 1.965 1_545 S
O131 C142 1.260 . S
O132 Zn125 1.969 . S
O132 C142 1.258 . S
C133 O130 1.267 . S
C133 O134 1.228 1_565 S
O134 C133 1.228 1_545 S
O135 Zn124 2.024 1_545 S
O135 C126 1.058 . S
C136 O137 1.228 1_545 S
C136 O138 1.267 . S
O137 C136 1.228 1_565 S
O138 Zn125 1.969 . S
O138 C136 1.267 . S
O139 Zn125 1.965 1_565 S
O139 C143 1.260 . S
O140 Zn124 1.969 . S
O140 C143 1.258 . S
O141 Zn125 2.024 1_565 S
O141 C128 1.058 . S
C142 O131 1.260 . S
C142 O132 1.258 . S
C143 O139 1.260 . S
C143 O140 1.258 . S
Zn144 O150 1.969 . S
Zn144 O151 1.965 . S
Zn144 O155 2.024 . S
Zn144 O160 1.969 . S
Zn145 O152 1.969 . S
Zn145 O158 1.969 . S
Zn145 O159 1.965 . S
Zn145 O161 2.024 . S
C146 O147 1.229 . S
C146 O155 1.058 . S
O147 C146 1.229 . S
C148 O149 1.229 . S
C148 O161 1.058 . S
O149 C148 1.229 . S
O150 Zn144 1.969 . S
O150 C153 1.267 . S
O151 Zn144 1.965 . S
O151 C162 1.260 . S
O152 Zn145 1.969 . S
O152 C162 1.258 . S
C153 O150 1.267 . S
C153 O154 1.228 . S
O154 C153 1.228 . S
O155 Zn144 2.024 . S
O155 C146 1.058 . S
C156 O157 1.228 . S
C156 O158 1.267 . S
O157 C156 1.228 . S
O158 Zn145 1.969 . S
O158 C156 1.267 . S
O159 Zn145 1.965 . S
O159 C163 1.260 . S
O160 Zn144 1.969 . S
O160 C163 1.258 . S
O161 Zn145 2.024 . S
O161 C148 1.058 . S
C162 O151 1.260 . S
C162 O152 1.258 . S
C163 O159 1.260 . S
C163 O160 1.258 . S
Zn164 O170 1.969 . S
Zn164 O171 1.965 . S
Zn164 O175 2.024 . S
Zn164 O180 1.969 . S
Zn165 O172 1.969 . S
Zn165 O178 1.969 . S
Zn165 O179 1.965 . S
Zn165 O181 2.024 . S
C166 O167 1.229 . S
C166 O175 1.058 . S
O167 C166 1.229 . S
C168 O169 1.229 . S
C168 O181 1.058 . S
O169 C168 1.229 . S
O170 Zn164 1.969 . S
O170 C173 1.267 . S
O171 Zn164 1.965 . S
O171 C182 1.260 . S
O172 Zn165 1.969 . S
O172 C182 1.258 1_655 S
C173 O170 1.267 . S
C173 O174 1.228 . S
O174 C173 1.228 . S
O175 Zn164 2.024 . S
O175 C166 1.058 . S
C176 O177 1.228 . S
C176 O178 1.267 . S
O177 C176 1.228 . S
O178 Zn165 1.969 . S
O178 C176 1.267 . S
O179 Zn165 1.965 . S
O179 C183 1.260 1_655 S
O180 Zn164 1.969 . S
O180 C183 1.258 . S
O181 Zn165 2.024 . S
O181 C168 1.058 . S
C182 O171 1.260 . S
C182 O172 1.258 1_455 S
C183 O179 1.260 1_455 S
C183 O180 1.258 . S
H184 C192 0.950 . S
H185 C197 0.950 . S
H186 C194 0.950 . S
H187 C196 0.950 . S
H188 C198 0.950 . S
H189 C200 0.950 . S
H190 C202 0.950 . S
H191 C203 0.950 . S
C192 H184 0.950 . S
C192 C193 1.396 . S
C192 C194 1.391 . S
C193 C192 1.396 . S
C193 C197 1.383 1_565 S
C194 H186 0.950 . S
C194 C192 1.391 . S
C194 C195 1.426 . S
C195 C194 1.426 . S
C195 C196 1.373 1_565 S
C195 C201 1.491 . S
C196 H187 0.950 . S
C196 C195 1.373 1_545 S
C196 C197 1.391 . S
C197 H185 0.950 . S
C197 C193 1.383 1_545 S
C197 C196 1.391 . S
C198 H188 0.950 . S
C198 C199 1.386 1_545 S
C198 C200 1.391 . S
C199 C198 1.386 1_565 S
C199 C203 1.393 . S
C200 H189 0.950 . S
C200 C198 1.391 . S
C200 C201 1.378 1_545 S
C201 C195 1.491 . S
C201 C200 1.378 1_565 S
C201 C202 1.421 . S
C202 H190 0.950 . S
C202 C201 1.421 . S
C202 C203 1.391 . S
C203 H191 0.950 . S
C203 C199 1.393 . S
C203 C202 1.391 . S
H204 C212 0.950 . S
H205 C217 0.950 . S
H206 C214 0.950 . S
H207 C216 0.950 . S
H208 C218 0.950 . S
H209 C220 0.950 . S
H210 C222 0.950 . S
H211 C223 0.950 . S
C212 H204 0.950 . S
C212 C213 1.386 . S
C212 C214 1.391 . S
C213 C212 1.386 . S
C213 C217 1.393 . S
C214 H206 0.950 . S
C214 C212 1.391 . S
C214 C215 1.400 . S
C215 C214 1.400 . S
C215 C216 1.398 . S
C215 C221 1.491 . S
C216 H207 0.950 . S
C216 C215 1.398 . S
C216 C217 1.391 . S
C217 H205 0.950 . S
C217 C213 1.393 . S
C217 C216 1.391 . S
C218 H208 0.950 . S
C218 C219 1.386 . S
C218 C220 1.391 . S
C219 C218 1.386 . S
C219 C223 1.393 . S
C220 H209 0.950 . S
C220 C218 1.391 . S
C220 C221 1.400 . S
C221 C215 1.491 . S
C221 C220 1.400 . S
C221 C222 1.398 . S
C222 H210 0.950 . S
C222 C221 1.398 . S
C222 C223 1.391 . S
C223 H211 0.950 . S
C223 C219 1.393 . S
C223 C222 1.391 . S
H224 C232 0.950 . S
H225 C237 0.950 . S
H226 C234 0.950 . S
H227 C236 0.950 . S
H228 C238 0.950 . S
H229 C240 0.950 . S
H230 C242 0.950 . S
H231 C243 0.950 . S
C232 H224 0.950 . S
C232 C233 1.386 . S
C232 C234 1.391 . S
C233 C232 1.386 . S
C233 C237 1.393 . S
C234 H226 0.950 . S
C234 C232 1.391 . S
C234 C235 1.400 . S
C235 C234 1.400 . S
C235 C236 1.398 . S
C235 C241 1.491 . S
C236 H227 0.950 . S
C236 C235 1.398 . S
C236 C237 1.391 . S
C237 H225 0.950 . S
C237 C233 1.393 . S
C237 C236 1.391 . S
C238 H228 0.950 . S
C238 C239 1.386 . S
C238 C240 1.391 . S
C239 C238 1.386 . S
C239 C243 1.393 . S
C240 H229 0.950 . S
C240 C238 1.391 . S
C240 C241 1.400 . S
C241 C235 1.491 . S
C241 C240 1.400 . S
C241 C242 1.398 . S
C242 H230 0.950 . S
C242 C241 1.398 . S
C242 C243 1.391 . S
C243 H231 0.950 . S
C243 C239 1.393 . S
C243 C242 1.391 . S
H244 C252 0.950 . S
H245 C257 0.950 . S
H246 C254 0.950 1_655 S
H247 C256 0.950 . S
H248 C258 0.950 . S
H249 C260 0.950 . S
H250 C262 0.950 1_655 S
H251 C263 0.950 . S
C252 H244 0.950 . S
C252 C253 1.386 . S
C252 C254 1.391 . S
C253 C252 1.386 . S
C253 C257 1.393 . S
C254 H246 0.950 1_455 S
C254 C252 1.391 . S
C254 C255 1.400 . S
C255 C254 1.400 . S
C255 C256 1.398 . S
C255 C261 1.491 . S
C256 H247 0.950 . S
C256 C255 1.398 . S
C256 C257 1.391 . S
C257 H245 0.950 . S
C257 C253 1.393 . S
C257 C256 1.391 . S
C258 H248 0.950 . S
C258 C259 1.386 . S
C258 C260 1.391 . S
C259 C258 1.386 . S
C259 C263 1.393 1_455 S
C260 H249 0.950 . S
C260 C258 1.391 . S
C260 C261 1.400 . S
C261 C255 1.491 . S
C261 C260 1.400 . S
C261 C262 1.398 . S
C262 H250 0.950 1_455 S
C262 C261 1.398 . S
C262 C263 1.391 1_455 S
C263 H251 0.950 . S
C263 C259 1.393 1_655 S
C263 C262 1.391 1_655 S
H264 C272 0.950 . S
H265 C277 0.950 1_554 S
H266 C274 0.950 . S
H267 C276 0.950 . S
H268 C278 0.950 . S
H269 C280 0.950 . S
H270 C282 0.950 . S
H271 C283 0.950 . S
C272 H264 0.950 . S
C272 C273 1.358 1_565 S
C272 C274 1.391 . S
C273 C272 1.358 1_545 S
C273 C277 1.422 . S
C274 H266 0.950 . S
C274 C272 1.391 . S
C274 C275 1.400 1_565 S
C275 C274 1.400 1_545 S
C275 C276 1.398 . S
C275 C281 1.491 . S
C276 H267 0.950 . S
C276 C275 1.398 . S
C276 C277 1.391 . S
C277 H265 0.950 1_556 S
C277 C273 1.422 . S
C277 C276 1.391 . S
C278 H268 0.950 . S
C278 C279 1.412 . S
C278 C280 1.391 . S
C279 C278 1.412 . S
C279 C283 1.366 1_545 S
C280 H269 0.950 . S
C280 C278 1.391 . S
C280 C281 1.420 . S
C281 C275 1.491 . S
C281 C280 1.420 . S
C281 C282 1.378 1_545 S
C282 H270 0.950 . S
C282 C281 1.378 1_565 S
C282 C283 1.391 . S
C283 H271 0.950 . S
C283 C279 1.366 1_565 S
C283 C282 1.391 . S
H284 C292 0.950 1_554 S
H285 C297 0.950 . S
H286 C294 0.950 . S
H287 C296 0.950 . S
H288 C298 0.950 . S
H289 C300 0.950 . S
H290 C302 0.950 . S
H291 C303 0.950 . S
C292 H284 0.950 1_556 S
C292 C293 1.386 . S
C292 C294 1.391 . S
C293 C292 1.386 . S
C293 C297 1.393 . S
C294 H286 0.950 . S
C294 C292 1.391 . S
C294 C295 1.400 . S
C295 C294 1.400 . S
C295 C296 1.398 . S
C295 C301 1.491 . S
C296 H287 0.950 . S
C296 C295 1.398 . S
C296 C297 1.391 . S
C297 H285 0.950 . S
C297 C293 1.393 . S
C297 C296 1.391 . S
C298 H288 0.950 . S
C298 C299 1.386 . S
C298 C300 1.391 . S
C299 C298 1.386 . S
C299 C303 1.393 . S
C300 H289 0.950 . S
C300 C298 1.391 . S
C300 C301 1.400 . S
C301 C295 1.491 . S
C301 C300 1.400 . S
C301 C302 1.398 . S
C302 H290 0.950 . S
C302 C301 1.398 . S
C302 C303 1.391 . S
C303 H291 0.950 . S
C303 C299 1.393 . S
C303 C302 1.391 . S
H304 C312 0.950 1_554 S
H305 C317 0.950 . S
H306 C314 0.950 . S
H307 C316 0.950 . S
H308 C318 0.950 . S
H309 C320 0.950 . S
H310 C322 0.950 . S
H311 C323 0.950 . S
C312 H304 0.950 1_556 S
C312 C313 1.386 . S
C312 C314 1.391 . S
C313 C312 1.386 . S
C313 C317 1.393 . S
C314 H306 0.950 . S
C314 C312 1.391 . S
C314 C315 1.400 . S
C315 C314 1.400 . S
C315 C316 1.398 . S
C315 C321 1.491 . S
C316 H307 0.950 . S
C316 C315 1.398 . S
C316 C317 1.391 . S
C317 H305 0.950 . S
C317 C313 1.393 . S
C317 C316 1.391 . S
C318 H308 0.950 . S
C318 C319 1.386 . S
C318 C320 1.391 . S
C319 C318 1.386 . S
C319 C323 1.393 . S
C320 H309 0.950 . S
C320 C318 1.391 . S
C320 C321 1.400 . S
C321 C315 1.491 . S
C321 C320 1.400 . S
C321 C322 1.398 . S
C322 H310 0.950 . S
C322 C321 1.398 . S
C322 C323 1.391 . S
C323 H311 0.950 . S
C323 C319 1.393 . S
C323 C322 1.391 . S
H324 C332 0.950 . S
H325 C337 0.950 . S
H326 C334 0.950 . S
H327 C336 0.950 1_455 S
H328 C338 0.950 . S
H329 C340 0.950 . S
H330 C342 0.950 . S
H331 C343 0.950 . S
C332 H324 0.950 . S
C332 C333 1.386 . S
C332 C334 1.391 . S
C333 C332 1.386 . S
C333 C337 1.393 . S
C334 H326 0.950 . S
C334 C332 1.391 . S
C334 C335 1.400 . S
C335 C334 1.400 . S
C335 C336 1.398 . S
C335 C341 1.491 . S
C336 H327 0.950 1_655 S
C336 C335 1.398 . S
C336 C337 1.391 . S
C337 H325 0.950 . S
C337 C333 1.393 . S
C337 C336 1.391 . S
C338 H328 0.950 . S
C338 C339 1.386 1_455 S
C338 C340 1.391 . S
C339 C338 1.386 1_655 S
C339 C343 1.393 . S
C340 H329 0.950 . S
C340 C338 1.391 . S
C340 C341 1.400 1_455 S
C341 C335 1.491 . S
C341 C340 1.400 1_655 S
C341 C342 1.398 . S
C342 H330 0.950 . S
C342 C341 1.398 . S
C342 C343 1.391 . S
C343 H331 0.950 . S
C343 C339 1.393 . S
C343 C342 1.391 . S
H344 C352 0.950 . S
H345 C357 0.950 . S
H346 C354 0.950 . S
H347 C356 0.950 . S
H348 C358 0.950 . S
H349 C360 0.950 . S
H350 C362 0.950 . S
H351 C363 0.950 . S
C352 H344 0.950 . S
C352 C353 1.386 . S
C352 C354 1.391 . S
C353 C352 1.386 . S
C353 C357 1.393 . S
C354 H346 0.950 . S
C354 C352 1.391 . S
C354 C355 1.400 . S
C355 C354 1.400 . S
C355 C356 1.398 . S
C355 C361 1.491 . S
C356 H347 0.950 . S
C356 C355 1.398 . S
C356 C357 1.391 . S
C357 H345 0.950 . S
C357 C353 1.393 . S
C357 C356 1.391 . S
C358 H348 0.950 . S
C358 C359 1.386 . S
C358 C360 1.391 . S
C359 C358 1.386 . S
C359 C363 1.393 . S
C360 H349 0.950 . S
C360 C358 1.391 . S
C360 C361 1.400 . S
C361 C355 1.491 . S
C361 C360 1.400 . S
C361 C362 1.398 . S
C362 H350 0.950 . S
C362 C361 1.398 . S
C362 C363 1.391 . S
C363 H351 0.950 . S
C363 C359 1.393 . S
C363 C362 1.391 . S
H364 C372 0.950 . S
H365 C377 0.950 . S
H366 C374 0.950 . S
H367 C376 0.950 . S
H368 C378 0.950 . S
H369 C380 0.950 . S
H370 C382 0.950 . S
H371 C383 0.950 . S
C372 H364 0.950 . S
C372 C373 1.385 . S
C372 C374 1.391 . S
C373 C372 1.385 . S
C373 C377 1.393 1_545 S
C374 H366 0.950 . S
C374 C372 1.391 . S
C374 C375 1.400 1_545 S
C375 C374 1.400 1_565 S
C375 C376 1.398 . S
C375 C381 1.491 . S
C376 H367 0.950 . S
C376 C375 1.398 . S
C376 C377 1.391 . S
C377 H365 0.950 . S
C377 C373 1.393 1_565 S
C377 C376 1.391 . S
C378 H368 0.950 . S
C378 C379 1.386 . S
C378 C380 1.391 . S
C379 C378 1.386 . S
C379 C383 1.393 1_565 S
C380 H369 0.950 . S
C380 C378 1.391 . S
C380 C381 1.400 . S
C381 C375 1.491 . S
C381 C380 1.400 . S
C381 C382 1.398 1_565 S
C382 H370 0.950 . S
C382 C381 1.398 1_545 S
C382 C383 1.391 . S
C383 H371 0.950 . S
C383 C379 1.393 1_545 S
C383 C382 1.391 . S
H384 C392 0.950 . S
H385 C397 0.950 . S
H386 C394 0.950 . S
H387 C396 0.950 . S
H388 C398 0.950 . S
H389 C400 0.950 . S
H390 C402 0.950 . S
H391 C403 0.950 . S
C392 H384 0.950 . S
C392 C393 1.386 . S
C392 C394 1.391 . S
C393 C392 1.386 . S
C393 C397 1.393 . S
C394 H386 0.950 . S
C394 C392 1.391 . S
C394 C395 1.400 . S
C395 C394 1.400 . S
C395 C396 1.398 . S
C395 C401 1.491 . S
C396 H387 0.950 . S
C396 C395 1.398 . S
C396 C397 1.391 . S
C397 H385 0.950 . S
C397 C393 1.393 . S
C397 C396 1.391 . S
C398 H388 0.950 . S
C398 C399 1.386 . S
C398 C400 1.391 . S
C399 C398 1.386 . S
C399 C403 1.393 . S
C400 H389 0.950 . S
C400 C398 1.391 . S
C400 C401 1.400 . S
C401 C395 1.491 . S
C401 C400 1.400 . S
C401 C402 1.398 . S
C402 H390 0.950 . S
C402 C401 1.398 . S
C402 C403 1.391 . S
C403 H391 0.950 . S
C403 C399 1.393 . S
C403 C402 1.391 . S
H404 C412 0.950 . S
H405 C417 0.950 . S
H406 C414 0.950 . S
H407 C416 0.950 . S
H408 C418 0.950 . S
H409 C420 0.950 . S
H410 C422 0.950 . S
H411 C423 0.950 . S
C412 H404 0.950 . S
C412 C413 1.386 . S
C412 C414 1.391 . S
C413 C412 1.386 . S
C413 C417 1.393 . S
C414 H406 0.950 . S
C414 C412 1.391 . S
C414 C415 1.400 . S
C415 C414 1.400 . S
C415 C416 1.398 . S
C415 C421 1.491 . S
C416 H407 0.950 . S
C416 C415 1.398 . S
C416 C417 1.391 . S
C417 H405 0.950 . S
C417 C413 1.393 . S
C417 C416 1.391 . S
C418 H408 0.950 . S
C418 C419 1.386 . S
C418 C420 1.391 . S
C419 C418 1.386 . S
C419 C423 1.393 . S
C420 H409 0.950 . S
C420 C418 1.391 . S
C420 C421 1.400 . S
C421 C415 1.491 . S
C421 C420 1.400 . S
C421 C422 1.398 . S
C422 H410 0.950 . S
C422 C421 1.398 . S
C422 C423 1.391 . S
C423 H411 0.950 . S
C423 C419 1.393 . S
C423 C422 1.391 . S
H424 C432 0.950 . S
H425 C437 0.950 . S
H426 C434 0.950 1_455 S
H427 C436 0.950 . S
H428 C438 0.950 . S
H429 C440 0.950 . S
H430 C442 0.950 . S
H431 C443 0.950 . S
C432 H424 0.950 . S
C432 C433 1.386 . S
C432 C434 1.391 . S
C433 C432 1.386 . S
C433 C437 1.393 . S
C434 H426 0.950 1_655 S
C434 C432 1.391 . S
C434 C435 1.400 . S
C435 C434 1.400 . S
C435 C436 1.398 . S
C435 C441 1.491 . S
C436 H427 0.950 . S
C436 C435 1.398 . S
C436 C437 1.391 . S
C437 H425 0.950 . S
C437 C433 1.393 . S
C437 C436 1.391 . S
C438 H428 0.950 . S
C438 C439 1.413 . S
C438 C440 1.391 . S
C439 C438 1.413 . S
C439 C443 1.375 1_655 S
C440 H429 0.950 . S
C440 C438 1.391 . S
C440 C441 1.400 . S
C441 C435 1.491 . S
C441 C440 1.400 . S
C441 C442 1.398 1_655 S
C442 H430 0.950 . S
C442 C441 1.398 1_455 S
C442 C443 1.391 . S
C443 H431 0.950 . S
C443 C439 1.375 1_455 S
C443 C442 1.391 . S
H444 C452 0.950 . S
H445 C457 0.950 . S
H446 C454 0.950 . S
H447 C456 0.950 . S
H448 C458 0.950 . S
H449 C460 0.950 . S
H450 C462 0.950 . S
H451 C463 0.950 . S
C452 H444 0.950 . S
C452 C453 1.382 1_545 S
C452 C454 1.391 . S
C453 C452 1.382 1_565 S
C453 C457 1.396 . S
C454 H446 0.950 . S
C454 C452 1.391 . S
C454 C455 1.400 . S
C455 C454 1.400 . S
C455 C456 1.398 1_545 S
C455 C461 1.491 . S
C456 H447 0.950 . S
C456 C455 1.398 1_565 S
C456 C457 1.391 . S
C457 H445 0.950 . S
C457 C453 1.396 . S
C457 C456 1.391 . S
C458 H448 0.950 . S
C458 C459 1.386 1_565 S
C458 C460 1.391 . S
C459 C458 1.386 1_545 S
C459 C463 1.393 . S
C460 H449 0.950 . S
C460 C458 1.391 . S
C460 C461 1.400 1_565 S
C461 C455 1.491 . S
C461 C460 1.400 1_545 S
C461 C462 1.398 . S
C462 H450 0.950 . S
C462 C461 1.398 . S
C462 C463 1.391 . S
C463 H451 0.950 . S
C463 C459 1.393 . S
C463 C462 1.391 . S
H464 C472 0.950 . S
H465 C477 0.950 1_554 S
H466 C474 0.950 . S
H467 C476 0.950 . S
H468 C478 0.950 . S
H469 C480 0.950 . S
H470 C482 0.950 . S
H471 C483 0.950 . S
C472 H464 0.950 . S
C472 C473 1.386 . S
C472 C474 1.391 . S
C473 C472 1.386 . S
C473 C477 1.393 . S
C474 H466 0.950 . S
C474 C472 1.391 . S
C474 C475 1.400 . S
C475 C474 1.400 . S
C475 C476 1.398 . S
C475 C481 1.491 . S
C476 H467 0.950 . S
C476 C475 1.398 . S
C476 C477 1.391 . S
C477 H465 0.950 1_556 S
C477 C473 1.393 . S
C477 C476 1.391 . S
C478 H468 0.950 . S
C478 C479 1.386 . S
C478 C480 1.391 . S
C479 C478 1.386 . S
C479 C483 1.393 . S
C480 H469 0.950 . S
C480 C478 1.391 . S
C480 C481 1.400 . S
C481 C475 1.491 . S
C481 C480 1.400 . S
C481 C482 1.398 . S
C482 H470 0.950 . S
C482 C481 1.398 . S
C482 C483 1.391 . S
C483 H471 0.950 . S
C483 C479 1.393 . S
C483 C482 1.391 . S
H484 C492 0.950 . S
H485 C497 0.950 1_554 S
H486 C494 0.950 . S
H487 C496 0.950 . S
H488 C498 0.950 . S
H489 C500 0.950 . S
H490 C502 0.950 . S
H491 C503 0.950 . S
C492 H484 0.950 . S
C492 C493 1.386 . S
C492 C494 1.391 . S
C493 C492 1.386 . S
C493 C497 1.393 . S
C494 H486 0.950 . S
C494 C492 1.391 . S
C494 C495 1.400 . S
C495 C494 1.400 . S
C495 C496 1.398 . S
C495 C501 1.491 . S
C496 H487 0.950 . S
C496 C495 1.398 . S
C496 C497 1.391 . S
C497 H485 0.950 1_556 S
C497 C493 1.393 . S
C497 C496 1.391 . S
C498 H488 0.950 . S
C498 C499 1.386 . S
C498 C500 1.391 . S
C499 C498 1.386 . S
C499 C503 1.393 . S
C500 H489 0.950 . S
C500 C498 1.391 . S
C500 C501 1.400 . S
C501 C495 1.491 . S
C501 C500 1.400 . S
C501 C502 1.398 . S
C502 H490 0.950 . S
C502 C501 1.398 . S
C502 C503 1.391 . S
C503 H491 0.950 . S
C503 C499 1.393 . S
C503 C502 1.391 . S
H504 C512 0.950 . S
H505 C517 0.950 . S
H506 C514 0.950 . S
H507 C516 0.950 . S
H508 C518 0.950 1_655 S
H509 C520 0.950 1_655 S
H510 C522 0.950 . S
H511 C523 0.950 . S
C512 H504 0.950 . S
C512 C513 1.386 . S
C512 C514 1.391 1_554 S
C513 C512 1.386 . S
C513 C517 1.393 1_554 S
C514 H506 0.950 . S
C514 C512 1.391 1_556 S
C514 C515 1.400 . S
C515 C514 1.400 . S
C515 C516 1.398 . S
C515 C521 1.491 . S
C516 H507 0.950 . S
C516 C515 1.398 . S
C516 C517 1.391 . S
C517 H505 0.950 . S
C517 C513 1.393 1_556 S
C517 C516 1.391 . S
C518 H508 0.950 1_455 S
C518 C519 1.386 . S
C518 C520 1.391 . S
C519 C518 1.386 . S
C519 C523 1.393 . S
C520 H509 0.950 1_455 S
C520 C518 1.391 . S
C520 C521 1.400 . S
C521 C515 1.491 . S
C521 C520 1.400 . S
C521 C522 1.398 . S
C522 H510 0.950 . S
C522 C521 1.398 . S
C522 C523 1.391 . S
C523 H511 0.950 . S
C523 C519 1.393 . S
C523 C522 1.391 . S
H524 C532 0.950 . S
H525 C537 0.950 . S
H526 C534 0.950 . S
H527 C536 0.950 . S
H528 C538 0.950 . S
H529 C540 0.950 . S
H530 C542 0.950 . S
H531 C543 0.950 . S
C532 H524 0.950 . S
C532 C533 1.401 . S
C532 C534 1.391 1_554 S
C533 C532 1.401 . S
C533 C537 1.379 1_544 S
C534 H526 0.950 . S
C534 C532 1.391 1_556 S
C534 C535 1.400 . S
C535 C534 1.400 . S
C535 C536 1.398 1_545 S
C535 C541 1.491 . S
C536 H527 0.950 . S
C536 C535 1.398 1_565 S
C536 C537 1.391 . S
C537 H525 0.950 . S
C537 C533 1.379 1_566 S
C537 C536 1.391 . S
C538 H528 0.950 . S
C538 C539 1.386 1_565 S
C538 C540 1.391 . S
C539 C538 1.386 1_545 S
C539 C543 1.393 . S
C540 H529 0.950 . S
C540 C538 1.391 . S
C540 C541 1.400 1_565 S
C541 C535 1.491 . S
C541 C540 1.400 1_545 S
C541 C542 1.398 . S
C542 H530 0.950 . S
C542 C541 1.398 . S
C542 C543 1.391 . S
C543 H531 0.950 . S
C543 C539 1.393 . S
C543 C542 1.391 . S
H544 C552 0.950 . S
H545 C557 0.950 . S
H546 C554 0.950 . S
H547 C556 0.950 . S
H548 C558 0.950 . S
H549 C560 0.950 . S
H550 C562 0.950 . S
H551 C563 0.950 . S
C552 H544 0.950 . S
C552 C553 1.386 . S
C552 C554 1.391 1_554 S
C553 C552 1.386 . S
C553 C557 1.393 1_554 S
C554 H546 0.950 . S
C554 C552 1.391 1_556 S
C554 C555 1.400 . S
C555 C554 1.400 . S
C555 C556 1.398 . S
C555 C561 1.491 . S
C556 H547 0.950 . S
C556 C555 1.398 . S
C556 C557 1.391 . S
C557 H545 0.950 . S
C557 C553 1.393 1_556 S
C557 C556 1.391 . S
C558 H548 0.950 . S
C558 C559 1.386 . S
C558 C560 1.391 . S
C559 C558 1.386 . S
C559 C563 1.393 . S
C560 H549 0.950 . S
C560 C558 1.391 . S
C560 C561 1.400 . S
C561 C555 1.491 . S
C561 C560 1.400 . S
C561 C562 1.398 . S
C562 H550 0.950 . S
C562 C561 1.398 . S
C562 C563 1.391 . S
C563 H551 0.950 . S
C563 C559 1.393 . S
C563 C562 1.391 . S
H564 C572 0.950 . S
H565 C577 0.950 . S
H566 C574 0.950 . S
H567 C576 0.950 . S
H568 C578 0.950 . S
H569 C580 0.950 . S
H570 C582 0.950 . S
H571 C583 0.950 . S
C572 H564 0.950 . S
C572 C573 1.386 . S
C572 C574 1.391 . S
C573 C572 1.386 . S
C573 C577 1.393 1_554 S
C574 H566 0.950 . S
C574 C572 1.391 . S
C574 C575 1.400 1_554 S
C575 C574 1.400 1_556 S
C575 C576 1.398 . S
C575 C581 1.491 . S
C576 H567 0.950 . S
C576 C575 1.398 . S
C576 C577 1.391 . S
C577 H565 0.950 . S
C577 C573 1.393 1_556 S
C577 C576 1.391 . S
C578 H568 0.950 . S
C578 C579 1.386 . S
C578 C580 1.391 . S
C579 C578 1.386 . S
C579 C583 1.393 . S
C580 H569 0.950 . S
C580 C578 1.391 . S
C580 C581 1.400 . S
C581 C575 1.491 . S
C581 C580 1.400 . S
C581 C582 1.398 . S
C582 H570 0.950 . S
C582 C581 1.398 . S
C582 C583 1.391 . S
C583 H571 0.950 . S
C583 C579 1.393 . S
C583 C582 1.391 . S
H584 C592 0.950 . S
H585 C597 0.981 . S
H586 C594 0.950 . S
H587 C596 0.950 1_455 S
H588 C598 0.910 1_455 S
H589 C600 0.950 1_455 S
H590 C602 0.950 . S
H591 C603 0.950 . S
C592 H584 0.950 . S
C592 C593 1.386 . S
C592 C594 1.391 . S
C593 C592 1.386 . S
C593 C597 1.393 . S
C594 H586 0.950 . S
C594 C592 1.391 . S
C594 C595 1.400 . S
C595 C594 1.400 . S
C595 C596 1.398 . S
C595 C601 1.491 . S
C596 H587 0.950 1_655 S
C596 C595 1.398 . S
C596 C597 1.391 . S
C597 H585 0.981 . S
C597 C593 1.393 . S
C597 C596 1.391 . S
C598 H588 0.910 1_655 S
C598 C599 1.420 . S
C598 C600 1.398 . S
C599 C598 1.420 . S
C599 C603 1.393 . S
C600 H589 0.950 1_655 S
C600 C598 1.398 . S
C600 C601 1.400 . S
C601 C595 1.491 . S
C601 C600 1.400 . S
C601 C602 1.398 . S
C602 H590 0.950 . S
C602 C601 1.398 . S
C602 C603 1.391 . S
C603 H591 0.950 . S
C603 C599 1.393 . S
C603 C602 1.391 . S
H604 C612 0.950 . S
H605 C617 0.950 . S
H606 C614 0.950 . S
H607 C616 0.950 . S
H608 C618 0.950 . S
H609 C620 0.950 . S
H610 C622 0.950 . S
H611 C623 0.950 . S
C612 H604 0.950 . S
C612 C613 1.386 1_565 S
C612 C614 1.391 . S
C613 C612 1.386 1_545 S
C613 C617 1.392 . S
C614 H606 0.950 . S
C614 C612 1.391 . S
C614 C615 1.400 . S
C615 C614 1.400 . S
C615 C616 1.398 1_565 S
C615 C621 1.491 . S
C616 H607 0.950 . S
C616 C615 1.398 1_545 S
C616 C617 1.391 . S
C617 H605 0.950 . S
C617 C613 1.392 . S
C617 C616 1.391 . S
C618 H608 0.950 . S
C618 C619 1.386 1_545 S
C618 C620 1.391 . S
C619 C618 1.386 1_565 S
C619 C623 1.393 . S
C620 H609 0.950 . S
C620 C618 1.391 . S
C620 C621 1.400 1_545 S
C621 C615 1.491 . S
C621 C620 1.400 1_565 S
C621 C622 1.398 . S
C622 H610 0.950 . S
C622 C621 1.398 . S
C622 C623 1.391 . S
C623 H611 0.950 . S
C623 C619 1.393 . S
C623 C622 1.391 . S
H624 C632 0.950 . S
H625 C637 0.950 . S
H626 C634 0.950 . S
H627 C636 0.950 . S
H628 C638 0.950 . S
H629 C640 0.950 . S
H630 C642 0.950 . S
H631 C643 0.950 . S
C632 H624 0.950 . S
C632 C633 1.386 . S
C632 C634 1.391 . S
C633 C632 1.386 . S
C633 C637 1.393 . S
C634 H626 0.950 . S
C634 C632 1.391 . S
C634 C635 1.400 . S
C635 C634 1.400 . S
C635 C636 1.398 . S
C635 C641 1.491 . S
C636 H627 0.950 . S
C636 C635 1.398 . S
C636 C637 1.391 . S
C637 H625 0.950 . S
C637 C633 1.393 . S
C637 C636 1.391 . S
C638 H628 0.950 . S
C638 C639 1.386 . S
C638 C640 1.391 . S
C639 C638 1.386 . S
C639 C643 1.393 . S
C640 H629 0.950 . S
C640 C638 1.391 . S
C640 C641 1.400 . S
C641 C635 1.491 . S
C641 C640 1.400 . S
C641 C642 1.398 . S
C642 H630 0.950 . S
C642 C641 1.398 . S
C642 C643 1.391 . S
C643 H631 0.950 . S
C643 C639 1.393 . S
C643 C642 1.391 . S
H644 C652 0.950 . S
H645 C657 0.950 . S
H646 C654 0.950 . S
H647 C656 0.950 . S
H648 C658 0.950 . S
H649 C660 0.950 . S
H650 C662 0.950 . S
H651 C663 0.950 . S
C652 H644 0.950 . S
C652 C653 1.386 . S
C652 C654 1.391 . S
C653 C652 1.386 . S
C653 C657 1.393 . S
C654 H646 0.950 . S
C654 C652 1.391 . S
C654 C655 1.400 . S
C655 C654 1.400 . S
C655 C656 1.398 . S
C655 C661 1.491 . S
C656 H647 0.950 . S
C656 C655 1.398 . S
C656 C657 1.391 . S
C657 H645 0.950 . S
C657 C653 1.393 . S
C657 C656 1.391 . S
C658 H648 0.950 . S
C658 C659 1.386 . S
C658 C660 1.391 . S
C659 C658 1.386 . S
C659 C663 1.393 . S
C660 H649 0.950 . S
C660 C658 1.391 . S
C660 C661 1.400 . S
C661 C655 1.491 . S
C661 C660 1.400 . S
C661 C662 1.398 . S
C662 H650 0.950 . S
C662 C661 1.398 . S
C662 C663 1.391 . S
C663 H651 0.950 . S
C663 C659 1.393 . S
C663 C662 1.391 . S
C193 C82 1.357 1_565 S
C199 C122 1.458 . S
C219 C142 1.545 . S
C213 C95 1.449 . S
C239 C162 1.466 . S
C233 C56 1.375 . S
C259 C182 1.540 . S
C253 C69 1.449 . S
C279 C123 1.470 . S
C273 C30 1.359 . S
C293 C43 1.434 . S
C299 C143 1.558 . S
C313 C4 1.371 . S
C319 C163 1.455 . S
C333 C17 1.391 . S
C339 C183 1.543 1_655 S
C359 C113 0.829 . S
C353 C74 0.847 . S
C379 C133 0.856 . S
C373 C87 0.862 . S
C399 C153 0.867 . S
C393 C100 0.866 . S
C413 C61 0.859 . S
C419 C173 0.864 . S
C433 C22 0.874 . S
C439 C116 0.869 . S
C459 C136 0.859 . S
C453 C35 0.861 1_565 S
C479 C156 0.883 . S
C473 C48 0.886 . S
C493 C9 0.829 . S
C499 C176 0.830 . S
C513 C73 1.538 . S
C519 C106 1.484 . S
C533 C86 1.492 . S
C539 C126 1.441 . S
C559 C146 1.484 . S
C553 C99 1.533 . S
C579 C166 1.460 . S
C573 C60 1.506 . S
C593 C21 1.560 . S
C599 C108 1.518 . S
C619 C128 1.466 . S
C613 C34 1.512 . S
C639 C148 1.502 . S
C633 C47 1.541 . S
C653 C8 1.491 . S
C659 C168 1.442 . S
