# Generated by pormake.
# Topology dag, (6,3)-cn, num edge types: 1
# Building blocks:
#     Node 0, Type 0, BuildingBlock: OJICUG_clean_sbu_0, # of connection points: 6
#     Node 1, Type 0, BuildingBlock: OJICUG_clean_sbu_0, # of connection points: 6
#     Node 2, Type 0, BuildingBlock: OJICUG_clean_sbu_0, # of connection points: 6
#     Node 3, Type 0, BuildingBlock: OJICUG_clean_sbu_0, # of connection points: 6
#     Node 4, Type 1, BuildingBlock: CUQRIR_clean_linker_1, # of connection points: 3
#     Node 5, Type 1, BuildingBlock: CUQRIR_clean_linker_1, # of connection points: 3
#     Node 6, Type 1, BuildingBlock: CUQRIR_clean_linker_1, # of connection points: 3
#     Node 7, Type 1, BuildingBlock: CUQRIR_clean_linker_1, # of connection points: 3
#     Node 8, Type 1, BuildingBlock: CUQRIR_clean_linker_1, # of connection points: 3
#     Node 9, Type 1, BuildingBlock: CUQRIR_clean_linker_1, # of connection points: 3
#     Node 10, Type 1, BuildingBlock: CUQRIR_clean_linker_1, # of connection points: 3
#     Node 11, Type 1, BuildingBlock: CUQRIR_clean_linker_1, # of connection points: 3
#     Edge 12, Type (0, 1), BuildingBlock: TEMPAE_clean_linker_10, # of connection points: 2
#     Edge 13, Type (0, 1), BuildingBlock: TEMPAE_clean_linker_10, # of connection points: 2
#     Edge 14, Type (0, 1), BuildingBlock: TEMPAE_clean_linker_10, # of connection points: 2
#     Edge 15, Type (0, 1), BuildingBlock: TEMPAE_clean_linker_10, # of connection points: 2
#     Edge 16, Type (0, 1), BuildingBlock: TEMPAE_clean_linker_10, # of connection points: 2
#     Edge 17, Type (0, 1), BuildingBlock: TEMPAE_clean_linker_10, # of connection points: 2
#     Edge 18, Type (0, 1), BuildingBlock: TEMPAE_clean_linker_10, # of connection points: 2
#     Edge 19, Type (0, 1), BuildingBlock: TEMPAE_clean_linker_10, # of connection points: 2
#     Edge 20, Type (0, 1), BuildingBlock: TEMPAE_clean_linker_10, # of connection points: 2
#     Edge 21, Type (0, 1), BuildingBlock: TEMPAE_clean_linker_10, # of connection points: 2
#     Edge 22, Type (0, 1), BuildingBlock: TEMPAE_clean_linker_10, # of connection points: 2
#     Edge 23, Type (0, 1), BuildingBlock: TEMPAE_clean_linker_10, # of connection points: 2
#     Edge 24, Type (0, 1), BuildingBlock: TEMPAE_clean_linker_10, # of connection points: 2
#     Edge 25, Type (0, 1), BuildingBlock: TEMPAE_clean_linker_10, # of connection points: 2
#     Edge 26, Type (0, 1), BuildingBlock: TEMPAE_clean_linker_10, # of connection points: 2
#     Edge 27, Type (0, 1), BuildingBlock: TEMPAE_clean_linker_10, # of connection points: 2
#     Edge 28, Type (0, 1), BuildingBlock: TEMPAE_clean_linker_10, # of connection points: 2
#     Edge 29, Type (0, 1), BuildingBlock: TEMPAE_clean_linker_10, # of connection points: 2
#     Edge 30, Type (0, 1), BuildingBlock: TEMPAE_clean_linker_10, # of connection points: 2
#     Edge 31, Type (0, 1), BuildingBlock: TEMPAE_clean_linker_10, # of connection points: 2
#     Edge 32, Type (0, 1), BuildingBlock: TEMPAE_clean_linker_10, # of connection points: 2
#     Edge 33, Type (0, 1), BuildingBlock: TEMPAE_clean_linker_10, # of connection points: 2
#     Edge 34, Type (0, 1), BuildingBlock: TEMPAE_clean_linker_10, # of connection points: 2
#     Edge 35, Type (0, 1), BuildingBlock: TEMPAE_clean_linker_10, # of connection points: 2
# Relax obj value: 0.084
# Max RMSD: 0.086
# Mean RMSD: 0.077
data_MOF--net-dag--node1-OJICUG_clean_sbu_0--node2-CUQRIR_clean_linker_1--edge1-TEMPAE_clean_linker_10
_symmetry_space_group_name_H-M    P1
_symmetry_Int_Tables_number       1
_symmetry_cell_setting            triclinic
loop_
_symmetry_equiv_pos_as_xyz
'x, y, z'
_cell_length_a     35.566474
_cell_length_b     36.075229
_cell_length_c     37.163926
_cell_angle_alpha  92.549546
_cell_angle_beta   90.086423
_cell_angle_gamma 90.030718
loop_
_atom_site_label
_atom_site_type_symbol
_atom_site_fract_x
_atom_site_fract_y
_atom_site_fract_z
_atom_type_partial_charge
Sc0 Sc 0.07904 0.90545 0.02777 0.0
Sc1 Sc 0.10113 0.81013 0.02568 0.0
Sc2 Sc 0.16886 0.87665 0.05477 0.0
O3 O 0.11635 0.86404 0.03603 0.0
C4 C 0.15554 0.94018 -0.00075 0.0
C5 C 0.06441 0.85016 0.95933 0.0
C6 C 0.18637 0.80995 -0.00184 0.0
C7 C 0.02568 0.84411 0.06002 0.0
C8 C 0.11845 0.93452 0.10098 0.0
C9 C 0.14728 0.80579 0.09904 0.0
O10 O 0.11989 0.93817 0.00061 0.0
O11 O 0.07772 0.82157 0.97368 0.0
O12 O 0.1958 0.839 0.01655 0.0
O13 O 0.03388 0.87752 0.05386 0.0
O14 O 0.14834 0.91581 0.09557 0.0
O15 O 0.12249 0.79341 0.07688 0.0
O16 O 0.09102 0.9335 0.07897 0.0
O17 O 0.04697 0.817 0.05098 0.0
O18 O 0.16634 0.83496 0.09415 0.0
O19 O 0.06291 0.88183 0.97575 0.0
O20 O 0.17696 0.91975 0.01728 0.0
O21 O 0.1534 0.79634 -0.00107 0.0
Sc22 Sc 0.66904 0.62075 0.47328 0.0
Sc23 Sc 0.60216 0.68868 0.50022 0.0
Sc24 Sc 0.57807 0.59395 0.49864 0.0
O25 O 0.61645 0.63448 0.49079 0.0
C26 C 0.61913 0.56266 0.42708 0.0
C27 C 0.64912 0.69111 0.4275 0.0
C28 C 0.52688 0.65505 0.46414 0.0
C29 C 0.68708 0.68784 0.52915 0.0
C30 C 0.65284 0.55891 0.53024 0.0
C31 C 0.5622 0.65103 0.56547 0.0
O32 O 0.64869 0.58201 0.43198 0.0
O33 O 0.62358 0.7037 0.44863 0.0
O34 O 0.53516 0.62144 0.46925 0.0
O35 O 0.69596 0.65781 0.51216 0.0
O36 O 0.61726 0.56222 0.52902 0.0
O37 O 0.57906 0.67851 0.5525 0.0
O38 O 0.67492 0.57761 0.51116 0.0
O39 O 0.65471 0.70248 0.52671 0.0
O40 O 0.55877 0.61976 0.54859 0.0
O41 O 0.66842 0.66241 0.43369 0.0
O42 O 0.59193 0.56362 0.44923 0.0
O43 O 0.54757 0.68205 0.47507 0.0
Sc44 Sc 0.89951 0.18444 0.00606 0.0
Sc45 Sc 0.83178 0.11857 0.97636 0.0
Sc46 Sc 0.92139 0.08889 0.00395 0.0
O47 O 0.88424 0.13061 0.99551 0.0
C48 C 0.97534 0.15028 0.97284 0.0
C49 C 0.8535 0.18994 0.93298 0.0
C50 C 0.88231 0.0606 0.93055 0.0
C51 C 0.81423 0.18468 0.03349 0.0
C52 C 0.93615 0.14406 0.07211 0.0
C53 C 0.84454 0.05349 0.03026 0.0
O54 O 0.95369 0.17742 0.98075 0.0
O55 O 0.83414 0.16096 0.9377 0.0
O56 O 0.9093 0.06078 0.95301 0.0
O57 O 0.84718 0.19829 0.03258 0.0
O58 O 0.93777 0.11237 0.05578 0.0
O59 O 0.82328 0.07471 0.01297 0.0
O60 O 0.92236 0.17262 0.05815 0.0
O61 O 0.80473 0.15563 0.01512 0.0
O62 O 0.8802 0.05546 0.02969 0.0
O63 O 0.87865 0.20172 0.95499 0.0
O64 O 0.96729 0.1169 0.97918 0.0
O65 O 0.85286 0.08021 0.93504 0.0
Sc66 Sc 0.42298 0.4077 0.52843 0.0
Sc67 Sc 0.33218 0.38006 0.55388 0.0
Sc68 Sc 0.39947 0.31264 0.52697 0.0
O69 O 0.38487 0.36677 0.53632 0.0
C70 C 0.43726 0.3523 0.46074 0.0
C71 C 0.34704 0.44421 0.50009 0.0
C72 C 0.3149 0.31264 0.49779 0.0
C73 C 0.38371 0.43697 0.60097 0.0
C74 C 0.4756 0.34542 0.56031 0.0
C75 C 0.35185 0.30974 0.59948 0.0
O76 O 0.43801 0.38449 0.47618 0.0
O77 O 0.32491 0.42211 0.51522 0.0
O78 O 0.34792 0.29932 0.49885 0.0
O79 O 0.4121 0.43422 0.58028 0.0
O80 O 0.45289 0.31876 0.554 0.0
O81 O 0.33373 0.33938 0.59426 0.0
O82 O 0.46865 0.37853 0.55221 0.0
O83 O 0.35286 0.42015 0.59414 0.0
O84 O 0.3764 0.2965 0.57762 0.0
O85 O 0.38257 0.44291 0.50341 0.0
O86 O 0.42433 0.32377 0.47549 0.0
O87 O 0.30515 0.3416 0.51614 0.0
C88 C 0.09782 0.18547 0.32248 0.0
N89 N 0.08613 0.15915 0.29798 0.0
N90 N 0.12782 0.17325 0.34104 0.0
C91 C 0.08011 0.22306 0.32826 0.0
C92 C 0.13405 0.13858 0.32675 0.0
N93 N 0.10856 0.12997 0.30065 0.0
C94 C 0.16754 0.11513 0.3355 0.0
H95 H 0.0935 0.24265 0.30999 0.0
H96 H 0.0843 0.23377 0.35644 0.0
H97 H 0.0496 0.22178 0.32199 0.0
H98 H 0.16257 0.10231 0.36166 0.0
H99 H 0.19311 0.13266 0.33839 0.0
H100 H 0.17249 0.09274 0.31463 0.0
C101 C 0.36967 0.64353 0.82422 0.0
N102 N 0.39427 0.6356 0.79727 0.0
N103 N 0.37511 0.67857 0.83789 0.0
C104 C 0.33764 0.61886 0.83448 0.0
C105 C 0.40367 0.69173 0.81804 0.0
N106 N 0.41534 0.66557 0.79341 0.0
C107 C 0.42008 0.73003 0.82275 0.0
H108 H 0.31178 0.63548 0.8395 0.0
H109 H 0.34504 0.60541 0.85981 0.0
H110 H 0.3318 0.59689 0.81338 0.0
H111 H 0.45034 0.72983 0.81551 0.0
H112 H 0.41657 0.74099 0.85092 0.0
H113 H 0.40518 0.74879 0.80466 0.0
C114 C 0.71405 0.83031 0.17807 0.0
N115 N 0.74341 0.83633 0.15612 0.0
N116 N 0.71837 0.79784 0.19447 0.0
C117 C 0.68373 0.85818 0.18689 0.0
C118 C 0.75176 0.78465 0.18204 0.0
N119 N 0.76715 0.80819 0.15887 0.0
C120 C 0.77069 0.75054 0.19523 0.0
H121 H 0.69469 0.87908 0.20708 0.0
H122 H 0.65869 0.84456 0.19825 0.0
H123 H 0.67562 0.87287 0.16244 0.0
H124 H 0.74973 0.72824 0.19882 0.0
H125 H 0.78376 0.75731 0.22185 0.0
H126 H 0.79273 0.7403 0.17618 0.0
C127 C 0.77912 0.34559 0.69578 0.0
N128 N 0.7499 0.35087 0.67329 0.0
N129 N 0.7763 0.31214 0.71062 0.0
C130 C 0.8102 0.37298 0.70364 0.0
C131 C 0.74409 0.29745 0.69673 0.0
N132 N 0.72817 0.32094 0.67386 0.0
C133 C 0.72617 0.26245 0.7091 0.0
H134 H 0.81565 0.38984 0.67994 0.0
H135 H 0.83632 0.35846 0.7113 0.0
H136 H 0.80174 0.39191 0.72655 0.0
H137 H 0.72437 0.26357 0.73894 0.0
H138 H 0.74422 0.23845 0.70098 0.0
H139 H 0.69768 0.25794 0.69756 0.0
C140 C 0.59629 0.30869 0.20927 0.0
N141 N 0.58478 0.33518 0.23363 0.0
N142 N 0.62558 0.3211 0.18992 0.0
C143 C 0.57914 0.27072 0.20446 0.0
C144 C 0.63162 0.35604 0.2036 0.0
N145 N 0.60667 0.36464 0.23009 0.0
C146 C 0.66454 0.37982 0.19389 0.0
H147 H 0.5933 0.25174 0.22285 0.0
H148 H 0.5829 0.25955 0.17639 0.0
H149 H 0.54876 0.27157 0.21124 0.0
H150 H 0.66976 0.4025 0.21441 0.0
H151 H 0.65871 0.39225 0.16769 0.0
H152 H 0.69028 0.36261 0.19066 0.0
C153 C 0.24368 0.20646 0.84053 0.0
N154 N 0.22929 0.18238 0.86368 0.0
N155 N 0.27624 0.19319 0.82622 0.0
C156 C 0.22337 0.23994 0.82763 0.0
C157 C 0.28089 0.15999 0.84116 0.0
N158 N 0.25238 0.15345 0.86405 0.0
C159 C 0.31275 0.13381 0.83247 0.0
H160 H 0.21182 0.23331 0.80034 0.0
H161 H 0.2433 0.26339 0.82549 0.0
H162 H 0.2 0.24848 0.84589 0.0
H163 H 0.33829 0.14948 0.82518 0.0
H164 H 0.30477 0.11536 0.80902 0.0
H165 H 0.31899 0.11642 0.85564 0.0
C166 C 0.21594 0.6623 0.34552 0.0
N167 N 0.24576 0.65759 0.36736 0.0
N168 N 0.21883 0.69478 0.32887 0.0
C169 C 0.18644 0.63336 0.33727 0.0
C170 C 0.25185 0.70931 0.34099 0.0
N171 N 0.26836 0.68658 0.36426 0.0
C172 C 0.26926 0.74407 0.32753 0.0
H173 H 0.19777 0.61268 0.31713 0.0
H174 H 0.16077 0.64602 0.32607 0.0
H175 H 0.17925 0.61864 0.36193 0.0
H176 H 0.2474 0.76554 0.32403 0.0
H177 H 0.28221 0.7377 0.30082 0.0
H178 H 0.29114 0.75524 0.34637 0.0
C179 C 0.8664 0.85871 0.70146 0.0
N180 N 0.89008 0.86814 0.72883 0.0
N181 N 0.8744 0.82425 0.68768 0.0
C182 C 0.8333 0.88151 0.69038 0.0
C183 C 0.90371 0.81302 0.70782 0.0
N184 N 0.91342 0.83985 0.73264 0.0
C185 C 0.9202 0.77467 0.70572 0.0
H186 H 0.80736 0.87005 0.70219 0.0
H187 H 0.83005 0.87999 0.66068 0.0
H188 H 0.8364 0.91098 0.69976 0.0
H189 H 0.95098 0.77586 0.71048 0.0
H190 H 0.91444 0.76058 0.67913 0.0
H191 H 0.90745 0.7582 0.72707 0.0
C192 C 0.0819 0.97679 0.14338 0.0
C193 C 0.11592 0.9593 0.13388 0.0
C194 C 0.07966 0.00205 0.17312 0.0
C195 C 0.1124 0.01033 0.19376 0.0
C196 C 0.14634 0.99138 0.18544 0.0
C197 C 0.14773 0.96618 0.15559 0.0
C198 C 0.04193 0.01958 0.18149 0.0
C199 C 0.18146 0.9983 0.20763 0.0
C200 C 0.1212 0.10617 0.23912 0.0
C201 C 0.11065 0.09953 0.27445 0.0
C202 C 0.12207 0.0773 0.21266 0.0
C203 C 0.11219 0.0409 0.22196 0.0
C204 C 0.10171 0.03408 0.25784 0.0
C205 C 0.10117 0.06362 0.2838 0.0
C206 C 0.13382 0.08579 0.17487 0.0
C207 C 0.09045 0.9958 0.26852 0.0
H208 H 0.05687 0.97112 0.12738 0.0
H209 H 0.17407 0.95249 0.14885 0.0
H210 H 0.02166 0.99751 0.18817 0.0
H211 H 0.0425 0.04054 0.20419 0.0
H212 H 0.03087 0.03269 0.15717 0.0
H213 H 0.20436 0.97855 0.20002 0.0
H214 H 0.19176 0.02691 0.20395 0.0
H215 H 0.17517 0.99596 0.23668 0.0
H216 H 0.12867 0.13414 0.23233 0.0
H217 H 0.09283 0.05896 0.31127 0.0
H218 H 0.16222 0.07418 0.16944 0.0
H219 H 0.13478 0.1161 0.17082 0.0
H220 H 0.11434 0.07262 0.15476 0.0
H221 H 0.06457 0.98706 0.25372 0.0
H222 H 0.08504 0.99469 0.29789 0.0
H223 H 0.11283 0.97552 0.26092 0.0
C224 C 0.55887 0.68011 0.62791 0.0
C225 C 0.54391 0.65593 0.60098 0.0
C226 C 0.54119 0.68466 0.66164 0.0
C227 C 0.50738 0.6653 0.66803 0.0
C228 C 0.49196 0.64134 0.64065 0.0
C229 C 0.51063 0.63663 0.60765 0.0
C230 C 0.5587 0.70996 0.69044 0.0
C231 C 0.45516 0.62139 0.64578 0.0
C232 C 0.47151 0.64388 0.76066 0.0
C233 C 0.44237 0.66965 0.76514 0.0
C234 C 0.49453 0.64359 0.73007 0.0
C235 C 0.48786 0.66956 0.7033 0.0
C236 C 0.45941 0.69672 0.70857 0.0
C237 C 0.43697 0.69643 0.73956 0.0
C238 C 0.52438 0.61406 0.72533 0.0
C239 C 0.45099 0.72447 0.68043 0.0
H240 H 0.58467 0.69499 0.6228 0.0
H241 H 0.49863 0.61843 0.58664 0.0
H242 H 0.5387 0.73233 0.69869 0.0
H243 H 0.56482 0.69411 0.71468 0.0
H244 H 0.5852 0.72284 0.68127 0.0
H245 H 0.44935 0.60042 0.62368 0.0
H246 H 0.45493 0.60741 0.67173 0.0
H247 H 0.43191 0.64189 0.64668 0.0
H248 H 0.47523 0.62312 0.78055 0.0
H249 H 0.41379 0.71575 0.74287 0.0
H250 H 0.55163 0.62675 0.71814 0.0
H251 H 0.51639 0.59432 0.70285 0.0
H252 H 0.52828 0.59821 0.75002 0.0
H253 H 0.47724 0.73778 0.67141 0.0
H254 H 0.4313 0.74644 0.69054 0.0
H255 H 0.43813 0.70994 0.65651 0.0
C256 C 0.79417 0.02935 0.06973 0.0
C257 C 0.82719 0.02335 0.04985 0.0
C258 C 0.77751 0.00036 0.08808 0.0
C259 C 0.79375 0.96451 0.08544 0.0
C260 C 0.82658 0.95825 0.06453 0.0
C261 C 0.84318 0.9879 0.0474 0.0
C262 C 0.74275 0.00808 0.1104 0.0
C263 C 0.84358 0.92009 0.05903 0.0
C264 C 0.7786 0.89461 0.15703 0.0
C265 C 0.75249 0.87067 0.14021 0.0
C266 C 0.79119 0.92619 0.14003 0.0
C267 C 0.77729 0.93365 0.10535 0.0
C268 C 0.75008 0.90984 0.0887 0.0
C269 C 0.73787 0.87854 0.10652 0.0
C270 C 0.82061 0.95059 0.15839 0.0
C271 C 0.73528 0.91639 0.05145 0.0
H272 H 0.78179 0.05683 0.07141 0.0
H273 H 0.86821 0.98311 0.03121 0.0
H274 H 0.71944 0.98975 0.10075 0.0
H275 H 0.74833 0.00178 0.13888 0.0
H276 H 0.73343 0.03741 0.10941 0.0
H277 H 0.87329 0.92137 0.04997 0.0
H278 H 0.84232 0.90433 0.08389 0.0
H279 H 0.82729 0.90427 0.03799 0.0
H280 H 0.78988 0.88784 0.18304 0.0
H281 H 0.71798 0.85937 0.0937 0.0
H282 H 0.81071 0.97977 0.16034 0.0
H283 H 0.84674 0.94996 0.1421 0.0
H284 H 0.82747 0.94166 0.18586 0.0
H285 H 0.72572 0.94551 0.04963 0.0
H286 H 0.71157 0.89753 0.04388 0.0
H287 H 0.75819 0.9118 0.03153 0.0
C288 C 0.51592 0.31049 0.60234 0.0
C289 C 0.51234 0.33766 0.57676 0.0
C290 C 0.55069 0.30411 0.61893 0.0
C291 C 0.58258 0.32481 0.60898 0.0
C292 C 0.57927 0.35132 0.58219 0.0
C293 C 0.54409 0.35768 0.56668 0.0
C294 C 0.55314 0.27593 0.64767 0.0
C295 C 0.61289 0.37274 0.56954 0.0
C296 C 0.66332 0.3434 0.67367 0.0
C297 C 0.6906 0.3189 0.6598 0.0
C298 C 0.62748 0.34456 0.65817 0.0
C299 C 0.61898 0.32065 0.62799 0.0
C300 C 0.64631 0.29508 0.61451 0.0
C301 C 0.68195 0.29444 0.63078 0.0
C302 C 0.59924 0.37242 0.67312 0.0
C303 C 0.6385 0.26963 0.58205 0.0
H304 H 0.49132 0.29498 0.61009 0.0
H305 H 0.54149 0.37813 0.54629 0.0
H306 H 0.57547 0.25535 0.64086 0.0
H307 H 0.56097 0.29002 0.67376 0.0
H308 H 0.52617 0.26098 0.65115 0.0
H309 H 0.60459 0.39659 0.55336 0.0
H310 H 0.6302 0.38322 0.59261 0.0
H311 H 0.63093 0.35398 0.5526 0.0
H312 H 0.67056 0.36224 0.69615 0.0
H313 H 0.70355 0.27583 0.62018 0.0
H314 H 0.57281 0.3581 0.68018 0.0
H315 H 0.59218 0.39246 0.65234 0.0
H316 H 0.60991 0.38813 0.69743 0.0
H317 H 0.61146 0.25482 0.5853 0.0
H318 H 0.66119 0.24884 0.5773 0.0
H319 H 0.6359 0.2863 0.55779 0.0
C320 C 0.58237 0.51971 0.3855 0.0
C321 C 0.61647 0.53736 0.39459 0.0
C322 C 0.57984 0.49408 0.35611 0.0
C323 C 0.61237 0.48562 0.33536 0.0
C324 C 0.64641 0.50468 0.34325 0.0
C325 C 0.64809 0.53026 0.37279 0.0
C326 C 0.54204 0.4764 0.34819 0.0
C327 C 0.68129 0.49751 0.3209 0.0
C328 C 0.62021 0.38923 0.2912 0.0
C329 C 0.60909 0.3954 0.25589 0.0
C330 C 0.62163 0.41846 0.31724 0.0
C331 C 0.61182 0.45473 0.30753 0.0
C332 C 0.6008 0.46108 0.27167 0.0
C333 C 0.59965 0.43118 0.24613 0.0
C334 C 0.6338 0.41047 0.35507 0.0
C335 C 0.58956 0.49923 0.26058 0.0
H336 H 0.55747 0.52557 0.40156 0.0
H337 H 0.67447 0.54408 0.37923 0.0
H338 H 0.52182 0.49828 0.34087 0.0
H339 H 0.54247 0.4548 0.32606 0.0
H340 H 0.53098 0.46403 0.37288 0.0
H341 H 0.70428 0.51732 0.32817 0.0
H342 H 0.69159 0.46895 0.3248 0.0
H343 H 0.6747 0.49953 0.29185 0.0
H344 H 0.62771 0.36137 0.29829 0.0
H345 H 0.59092 0.43548 0.21868 0.0
H346 H 0.66217 0.42235 0.36024 0.0
H347 H 0.635 0.38023 0.35944 0.0
H348 H 0.61441 0.42372 0.37514 0.0
H349 H 0.56385 0.50821 0.27545 0.0
H350 H 0.58385 0.49996 0.23122 0.0
H351 H 0.61207 0.51955 0.26779 0.0
C352 C 0.0437 0.13727 0.96643 0.0
C353 C 0.01224 0.15792 0.95673 0.0
C354 C 0.07915 0.14412 0.95174 0.0
C355 C 0.083 0.17175 0.92609 0.0
C356 C 0.05131 0.19286 0.91634 0.0
C357 C 0.0163 0.186 0.93217 0.0
C358 C 0.11248 0.12228 0.96444 0.0
C359 C 0.0543 0.22225 0.88882 0.0
C360 C 0.18217 0.20507 0.90759 0.0
C361 C 0.19162 0.18248 0.87747 0.0
C362 C 0.14646 0.20261 0.92336 0.0
C363 C 0.11983 0.17714 0.90825 0.0
C364 C 0.12922 0.15492 0.87718 0.0
C365 C 0.16515 0.15785 0.86221 0.0
C366 C 0.13776 0.22611 0.9569 0.0
C367 C 0.1018 0.12714 0.86057 0.0
H368 H 0.04072 0.11612 0.98608 0.0
H369 H 0.99192 0.202 0.92473 0.0
H370 H 0.1319 0.11484 0.94201 0.0
H371 H 0.12846 0.13964 0.98456 0.0
H372 H 0.10372 0.09647 0.97736 0.0
H373 H 0.02723 0.2369 0.88491 0.0
H374 H 0.07601 0.24297 0.89723 0.0
H375 H 0.06331 0.20937 0.86256 0.0
H376 H 0.20321 0.22371 0.91932 0.0
H377 H 0.17306 0.14037 0.83897 0.0
H378 H 0.1345 0.20797 0.98003 0.0
H379 H 0.1108 0.24107 0.95371 0.0
H380 H 0.16028 0.24669 0.96344 0.0
H381 H 0.09448 0.10624 0.88045 0.0
H382 H 0.11331 0.11245 0.8361 0.0
H383 H 0.07537 0.14134 0.85329 0.0
C384 C 0.298 0.46786 0.45872 0.0
C385 C 0.33069 0.47404 0.4792 0.0
C386 C 0.28206 0.49643 0.43927 0.0
C387 C 0.29868 0.53215 0.44125 0.0
C388 C 0.33138 0.53858 0.46243 0.0
C389 C 0.34723 0.5093 0.48078 0.0
C390 C 0.2475 0.48845 0.41658 0.0
C391 C 0.34898 0.57659 0.46706 0.0
C392 C 0.28267 0.6004 0.36813 0.0
C393 C 0.25594 0.62408 0.38426 0.0
C394 C 0.296 0.56961 0.38597 0.0
C395 C 0.28231 0.56273 0.42082 0.0
C396 C 0.25475 0.58644 0.43691 0.0
C397 C 0.2417 0.61686 0.41822 0.0
C398 C 0.32572 0.54526 0.36817 0.0
C399 C 0.24029 0.58064 0.47439 0.0
H400 H 0.28521 0.44054 0.45753 0.0
H401 H 0.37206 0.51431 0.49728 0.0
H402 H 0.22409 0.50678 0.42587 0.0
H403 H 0.25331 0.49456 0.38812 0.0
H404 H 0.23819 0.45913 0.41768 0.0
H405 H 0.37897 0.57497 0.47525 0.0
H406 H 0.34709 0.59219 0.44213 0.0
H407 H 0.33365 0.59273 0.48849 0.0
H408 H 0.29369 0.6067 0.34192 0.0
H409 H 0.2214 0.63586 0.43053 0.0
H410 H 0.3159 0.51604 0.36626 0.0
H411 H 0.35166 0.54607 0.38482 0.0
H412 H 0.33288 0.55404 0.34073 0.0
H413 H 0.23019 0.55173 0.47659 0.0
H414 H 0.21703 0.59997 0.48199 0.0
H415 H 0.26354 0.585 0.49408 0.0
C416 C 0.04024 0.81115 0.90662 0.0
C417 C 0.04834 0.8463 0.92247 0.0
C418 C 0.0217 0.80746 0.87325 0.0
C419 C 0.01088 0.83964 0.85539 0.0
C420 C 0.02099 0.87514 0.87023 0.0
C421 C 0.03953 0.87797 0.90355 0.0
C422 C 0.01284 0.76914 0.85754 0.0
C423 C 0.01252 0.91057 0.85157 0.0
C424 C 0.9771 0.83637 0.75815 0.0
C425 C 0.93813 0.83602 0.76287 0.0
C426 C 0.00139 0.83638 0.78801 0.0
C427 C 0.98606 0.83633 0.82318 0.0
C428 C 0.94654 0.83537 0.82782 0.0
C429 C 0.92308 0.83487 0.7975 0.0
C430 C 0.04328 0.83789 0.78208 0.0
C431 C 0.92891 0.83563 0.86478 0.0
H432 H 0.04733 0.78646 0.92076 0.0
H433 H 0.04658 0.90527 0.91501 0.0
H434 H 0.98207 0.76426 0.85853 0.0
H435 H 0.02143 0.7667 0.82883 0.0
H436 H 0.02714 0.74708 0.87237 0.0
H437 H 0.0027 0.93241 0.87138 0.0
H438 H 0.03889 0.92086 0.83958 0.0
H439 H 0.99132 0.90718 0.82981 0.0
H440 H 0.98837 0.83768 0.73116 0.0
H441 H 0.89281 0.83452 0.80073 0.0
H442 H 0.05762 0.81642 0.7976 0.0
H443 H 0.05411 0.86533 0.79204 0.0
H444 H 0.0508 0.83374 0.75318 0.0
H445 H 0.93413 0.80862 0.87701 0.0
H446 H 0.89806 0.84032 0.86383 0.0
H447 H 0.94175 0.85751 0.88279 0.0
C448 C 0.86973 0.04464 0.86554 0.0
C449 C 0.88437 0.03476 0.89879 0.0
C450 C 0.87067 0.01959 0.83553 0.0
C451 C 0.88554 0.98356 0.83931 0.0
C452 C 0.90015 0.97347 0.87298 0.0
C453 C 0.89982 -0.00061 0.90218 0.0
C454 C 0.85549 0.03151 0.7999 0.0
C455 C 0.91452 0.93484 0.87888 0.0
C456 C 0.85528 0.90438 0.77523 0.0
C457 C 0.88726 0.89967 0.75367 0.0
C458 C 0.85392 0.93225 0.80269 0.0
C459 C 0.88525 0.95605 0.80837 0.0
C460 C 0.91731 0.95184 0.786 0.0
C461 C 0.918 0.92342 0.75899 0.0
C462 C 0.81972 0.93511 0.82665 0.0
C463 C 0.95133 0.97649 0.79147 0.0
H464 H 0.85786 0.07208 0.86296 0.0
H465 H 0.91049 0.9915 0.9281 0.0
H466 H 0.87733 0.02776 0.77875 0.0
H467 H 0.83121 0.0138 0.79156 0.0
H468 H 0.84629 0.06096 0.8011 0.0
H469 H 0.93337 0.93421 0.90272 0.0
H470 H 0.89024 0.91636 0.88355 0.0
H471 H 0.92982 0.92322 0.85503 0.0
H472 H 0.83203 0.88516 0.77145 0.0
H473 H 0.9428 0.91912 0.74242 0.0
H474 H 0.80876 0.96391 0.82791 0.0
H475 H 0.82764 0.92821 0.85446 0.0
H476 H 0.79684 0.91606 0.8172 0.0
H477 H 0.94305 0.00599 0.78952 0.0
H478 H 0.97376 0.96995 0.77141 0.0
H479 H 0.96302 0.97333 0.81886 0.0
C480 C 0.43989 0.32332 0.39832 0.0
C481 C 0.45508 0.34751 0.42509 0.0
C482 C 0.45748 0.31853 0.36458 0.0
C483 C 0.49155 0.33747 0.35816 0.0
C484 C 0.50719 0.3614 0.38546 0.0
C485 C 0.48847 0.36653 0.41838 0.0
C486 C 0.43971 0.29333 0.33586 0.0
C487 C 0.5444 0.38063 0.38045 0.0
C488 C 0.56205 0.30489 0.28736 0.0
C489 C 0.55737 0.33165 0.26163 0.0
C490 C 0.53928 0.30507 0.31814 0.0
C491 C 0.51121 0.33266 0.32303 0.0
C492 C 0.50524 0.35861 0.29609 0.0
C493 C 0.5286 0.35786 0.26573 0.0
C494 C 0.54703 0.27737 0.3465 0.0
C495 C 0.47582 0.3886 0.30045 0.0
H496 H 0.41402 0.30862 0.40362 0.0
H497 H 0.50061 0.38465 0.43939 0.0
H498 H 0.43418 0.30906 0.31141 0.0
H499 H 0.45932 0.27049 0.32798 0.0
H500 H 0.41286 0.2811 0.34493 0.0
H501 H 0.56729 0.35976 0.38046 0.0
H502 H 0.5454 0.39392 0.35417 0.0
H503 H 0.55016 0.402 0.40221 0.0
H504 H 0.58497 0.28523 0.28434 0.0
H505 H 0.52545 0.37861 0.24573 0.0
H506 H 0.5205 0.26456 0.35547 0.0
H507 H 0.55999 0.29184 0.3704 0.0
H508 H 0.5664 0.25502 0.33662 0.0
H509 H 0.44834 0.37639 0.30766 0.0
H510 H 0.47227 0.40426 0.27559 0.0
H511 H 0.48402 0.40843 0.32278 0.0
C512 C 0.21166 0.97469 0.97726 0.0
C513 C 0.17274 0.96819 0.97631 0.0
C514 C 0.22787 0.00254 0.95714 0.0
C515 C 0.2046 0.02463 0.93583 0.0
C516 C 0.16553 0.01717 0.93352 0.0
C517 C 0.15015 0.98905 0.95376 0.0
C518 C 0.26986 0.00857 0.95893 0.0
C519 C 0.13937 0.03821 0.90968 0.0
C520 C 0.23578 0.12279 0.91935 0.0
C521 C 0.24498 0.12018 0.88277 0.0
C522 C 0.22312 0.09174 0.93712 0.0
C523 C 0.22068 0.057 0.91794 0.0
C524 C 0.23129 0.05395 0.88122 0.0
C525 C 0.24294 0.08577 0.86392 0.0
C526 C 0.21142 0.09644 0.97611 0.0
C527 C 0.22872 0.01749 0.85988 0.0
H528 H 0.22951 0.95841 0.99417 0.0
H529 H 0.12017 0.98375 0.95207 0.0
H530 H 0.28169 0.00921 0.93135 0.0
H531 H 0.27603 0.03579 0.97274 0.0
H532 H 0.28444 0.98661 0.97365 0.0
H533 H 0.1513 0.06464 0.90077 0.0
H534 H 0.13274 0.02047 0.88533 0.0
H535 H 0.11235 0.04418 0.92373 0.0
H536 H 0.23745 0.14956 0.93369 0.0
H537 H 0.24909 0.08408 0.83537 0.0
H538 H 0.23245 0.08299 0.99331 0.0
H539 H 0.18395 0.08279 0.98054 0.0
H540 H 0.20917 0.12612 0.98517 0.0
H541 H 0.24194 0.99502 0.87495 0.0
H542 H 0.24248 0.01871 0.83314 0.0
H543 H 0.1987 0.01007 0.85564 0.0
C544 C 0.4699 0.63383 0.42948 0.0
C545 C 0.49084 0.66292 0.44589 0.0
C546 C 0.43452 0.64017 0.41436 0.0
C547 C 0.41957 0.6766 0.41568 0.0
C548 C 0.44123 0.70638 0.43069 0.0
C549 C 0.47658 0.69919 0.44574 0.0
C550 C 0.41398 0.60739 0.39682 0.0
C551 C 0.42694 0.7458 0.43109 0.0
C552 C 0.3365 0.69016 0.35361 0.0
C553 C 0.30633 0.68852 0.37763 0.0
C554 C 0.37371 0.68799 0.36585 0.0
C555 C 0.3807 0.68322 0.40286 0.0
C556 C 0.3502 0.68192 0.42727 0.0
C557 C 0.31334 0.685 0.41433 0.0
C558 C 0.40542 0.68916 0.33901 0.0
C559 C 0.35631 0.67646 0.46691 0.0
H560 H 0.48095 0.6058 0.42864 0.0
H561 H 0.49268 0.72195 0.45799 0.0
H562 H 0.41674 0.58273 0.41349 0.0
H563 H 0.38373 0.6126 0.39203 0.0
H564 H 0.42733 0.60019 0.37046 0.0
H565 H 0.44864 0.76616 0.44055 0.0
H566 H 0.41765 0.75281 0.40369 0.0
H567 H 0.40219 0.7487 0.44909 0.0
H568 H 0.33087 0.69187 0.32508 0.0
H569 H 0.28978 0.68368 0.43268 0.0
H570 H 0.4182 0.66117 0.33558 0.0
H571 H 0.42774 0.70854 0.34899 0.0
H572 H 0.39565 0.69785 0.31225 0.0
H573 H 0.37711 0.65414 0.47103 0.0
H574 H 0.32979 0.66941 0.48082 0.0
H575 H 0.36772 0.70238 0.47986 0.0
C576 C 0.4202 0.48012 0.64263 0.0
C577 C 0.38631 0.46192 0.63374 0.0
C578 C 0.42245 0.50599 0.67183 0.0
C579 C 0.38993 0.51396 0.69275 0.0
C580 C 0.3562 0.49427 0.68517 0.0
C581 C 0.35474 0.46859 0.6557 0.0
C582 C 0.45987 0.52471 0.67916 0.0
C583 C 0.32135 0.50098 0.70768 0.0
C584 C 0.40231 0.56912 0.78157 0.0
C585 C 0.39226 0.60468 0.77163 0.0
C586 C 0.40148 0.53906 0.75622 0.0
C587 C 0.39012 0.545 0.72038 0.0
C588 C 0.3797 0.58105 0.71048 0.0
C589 C 0.38084 0.61045 0.73633 0.0
C590 C 0.41344 0.50118 0.76747 0.0
C591 C 0.36721 0.58859 0.67264 0.0
H592 H 0.44506 0.47476 0.62637 0.0
H593 H 0.32853 0.45434 0.64946 0.0
H594 H 0.45932 0.54608 0.7015 0.0
H595 H 0.48098 0.50338 0.68576 0.0
H596 H 0.46986 0.53771 0.65438 0.0
H597 H 0.29869 0.48069 0.7007 0.0
H598 H 0.32818 0.49931 0.73672 0.0
H599 H 0.31048 0.5293 0.70361 0.0
H600 H 0.41127 0.56513 0.80901 0.0
H601 H 0.37286 0.63815 0.72911 0.0
H602 H 0.43914 0.49248 0.75243 0.0
H603 H 0.39118 0.48047 0.76058 0.0
H604 H 0.41945 0.50073 0.79679 0.0
H605 H 0.38692 0.57578 0.6526 0.0
H606 H 0.36519 0.61876 0.66816 0.0
H607 H 0.33918 0.57593 0.66753 0.0
C608 C 0.9751 0.80014 0.0779 0.0
C609 C 0.98927 0.83645 0.07758 0.0
C610 C 0.93974 0.7929 0.09274 0.0
C611 C 0.91795 0.82266 0.10748 0.0
C612 C 0.93277 0.85918 0.10861 0.0
C613 C 0.96815 0.86558 0.09353 0.0
C614 C 0.92563 0.7534 0.09258 0.0
C615 C 0.91223 0.89195 0.12601 0.0
C616 C 0.81186 0.81199 0.10891 0.0
C617 C 0.80512 0.80796 0.14556 0.0
C618 C 0.84856 0.81624 0.09599 0.0
C619 C 0.87919 0.81578 0.12041 0.0
C620 C 0.87249 0.81082 0.15742 0.0
C621 C 0.83542 0.80737 0.16961 0.0
C622 C 0.85436 0.82172 0.05634 0.0
C623 C 0.90433 0.81058 0.18427 0.0
H624 H 0.99135 0.77735 0.06598 0.0
H625 H 0.97914 0.89365 0.09424 0.0
H626 H 0.91671 0.74646 0.12009 0.0
H627 H 0.90067 0.75028 0.07479 0.0
H628 H 0.94731 0.73311 0.08304 0.0
H629 H 0.91354 0.91601 0.10841 0.0
H630 H 0.88241 0.88622 0.13229 0.0
H631 H 0.92673 0.90044 0.15153 0.0
H632 H 0.78819 0.8126 0.09054 0.0
H633 H 0.82996 0.80536 0.19813 0.0
H634 H 0.86582 0.79587 0.04336 0.0
H635 H 0.87498 0.84419 0.0521 0.0
H636 H 0.82767 0.82854 0.04253 0.0
H637 H 0.92685 0.79136 0.17454 0.0
H638 H 0.89484 0.80219 0.21119 0.0
H639 H 0.91676 0.83877 0.18722 0.0
C640 C 0.64598 0.51066 0.57627 0.0
C641 C 0.66927 0.53148 0.55435 0.0
C642 C 0.66083 0.48318 0.59767 0.0
C643 C 0.70007 0.47637 0.59724 0.0
C644 C 0.72395 0.49838 0.5765 0.0
C645 C 0.70827 0.52554 0.55518 0.0
C646 C 0.63386 0.46204 0.62056 0.0
C647 C 0.76605 0.49297 0.57656 0.0
C648 C 0.7379 0.41803 0.67175 0.0
C649 C 0.74136 0.38332 0.65372 0.0
C650 C 0.7255 0.44898 0.65347 0.0
C651 C 0.7159 0.44476 0.61652 0.0
C652 C 0.71969 0.40969 0.59821 0.0
C653 C 0.7328 0.37949 0.61702 0.0
C654 C 0.72124 0.48579 0.67392 0.0
C655 C 0.70922 0.40379 0.55897 0.0
H656 H 0.61588 0.51542 0.57649 0.0
H657 H 0.72666 0.54179 0.53879 0.0
H658 H 0.64627 0.43699 0.63202 0.0
H659 H 0.62408 0.48069 0.64319 0.0
H660 H 0.60859 0.45368 0.60457 0.0
H661 H 0.78095 0.51464 0.56174 0.0
H662 H 0.77677 0.49344 0.60465 0.0
H663 H 0.77309 0.46545 0.56387 0.0
H664 H 0.74361 0.42059 0.70038 0.0
H665 H 0.73553 0.35247 0.60334 0.0
H666 H 0.69094 0.49282 0.67626 0.0
H667 H 0.73505 0.50811 0.65912 0.0
H668 H 0.73344 0.48539 0.70144 0.0
H669 H 0.68145 0.41638 0.55351 0.0
H670 H 0.7082 0.3739 0.55043 0.0
H671 H 0.73024 0.41763 0.5421 0.0
C672 C 0.93864 0.17168 0.13507 0.0
C673 C 0.95405 0.14833 0.1078 0.0
C674 C 0.95644 0.17612 0.1688 0.0
C675 C 0.9909 0.15768 0.1747 0.0
C676 C 0.00672 0.13457 0.14692 0.0
C677 C 0.98782 0.12976 0.11402 0.0
C678 C 0.93852 0.20049 0.19803 0.0
C679 C 0.04432 0.11593 0.15139 0.0
C680 C 0.06195 0.19014 0.2452 0.0
C681 C 0.05813 0.1628 0.27046 0.0
C682 C 0.03861 0.19022 0.21476 0.0
C683 C 0.01089 0.16226 0.20972 0.0
C684 C 0.00577 0.13572 0.23625 0.0
C685 C 0.02966 0.13624 0.26629 0.0
C686 C 0.04543 0.21861 0.18685 0.0
C687 C 0.97673 0.10534 0.23171 0.0
H688 H 0.91249 0.18605 0.13016 0.0
H689 H 0.00012 0.1123 0.09264 0.0
H690 H 0.93367 0.18426 0.22228 0.0
H691 H 0.95773 0.22364 0.20606 0.0
H692 H 0.91129 0.21227 0.18936 0.0
H693 H 0.05026 0.09508 0.12923 0.0
H694 H 0.06683 0.13723 0.15167 0.0
H695 H 0.04581 0.10213 0.17739 0.0
H696 H 0.08464 0.21009 0.24825 0.0
H697 H 0.02716 0.11507 0.28595 0.0
H698 H 0.01853 0.23107 0.17833 0.0
H699 H 0.05835 0.20484 0.16261 0.0
H700 H 0.06449 0.24117 0.19695 0.0
H701 H 0.9489 0.11732 0.22533 0.0
H702 H 0.97404 0.08897 0.2562 0.0
H703 H 0.98466 0.08621 0.20876 0.0
C704 C 0.18714 0.7927 0.15224 0.0
C705 C 0.15406 0.78595 0.13243 0.0
C706 C 0.1938 0.7752 0.18449 0.0
C707 C 0.16652 0.7506 0.19754 0.0
C708 C 0.13307 0.74352 0.17774 0.0
C709 C 0.12732 0.76114 0.14522 0.0
C710 C 0.23007 0.78313 0.20465 0.0
C711 C 0.10327 0.71772 0.19112 0.0
C712 C 0.2066 0.6853 0.26441 0.0
C713 C 0.19964 0.70504 0.29692 0.0
C714 C 0.19381 0.69861 0.23175 0.0
C715 C 0.17358 0.73241 0.23192 0.0
C716 C 0.16443 0.75113 0.26509 0.0
C717 C 0.17787 0.73724 0.29733 0.0
C718 C 0.20439 0.67799 0.197 0.0
C719 C 0.14264 0.78706 0.26638 0.0
H720 H 0.20806 0.81164 0.14244 0.0
H721 H 0.10155 0.756 0.13019 0.0
H722 H 0.22389 0.79538 0.23191 0.0
H723 H 0.24566 0.75691 0.20822 0.0
H724 H 0.24862 0.80253 0.19051 0.0
H725 H 0.07893 0.71499 0.17242 0.0
H726 H 0.11538 0.68978 0.19464 0.0
H727 H 0.09301 0.72812 0.21788 0.0
H728 H 0.22387 0.66056 0.26454 0.0
H729 H 0.17285 0.75228 0.32276 0.0
H730 H 0.22585 0.69414 0.18274 0.0
H731 H 0.17963 0.67482 0.17895 0.0
H732 H 0.21608 0.65005 0.20168 0.0
H733 H 0.16054 0.80951 0.25624 0.0
H734 H 0.13349 0.7953 0.29417 0.0
H735 H 0.1175 0.78467 0.24873 0.0
C736 C 0.75265 0.69275 0.55391 0.0
C737 C 0.71582 0.70669 0.55251 0.0
C738 C 0.78023 0.71055 0.5755 0.0
C739 C 0.77079 0.743 0.59628 0.0
C740 C 0.73371 0.75715 0.59518 0.0
C741 C 0.70669 0.73887 0.5733 0.0
C742 C 0.81952 0.6947 0.57598 0.0
C743 C 0.72258 0.79165 0.61711 0.0
C744 C 0.83 0.77283 0.67752 0.0
C745 C 0.85093 0.80189 0.66397 0.0
C746 C 0.80434 0.75281 0.65555 0.0
C747 C 0.79965 0.76228 0.61923 0.0
C748 C 0.82158 0.79111 0.60525 0.0
C749 C 0.847 0.81064 0.62792 0.0
C750 C 0.78148 0.7223 0.67145 0.0
C751 C 0.81749 0.80191 0.56666 0.0
H752 H 0.76009 0.66796 0.53798 0.0
H753 H 0.67837 0.74986 0.57254 0.0
H754 H 0.83996 0.71559 0.56698 0.0
H755 H 0.82738 0.68801 0.60385 0.0
H756 H 0.82228 0.66917 0.55834 0.0
H757 H 0.69252 0.79896 0.61339 0.0
H758 H 0.72767 0.7876 0.64614 0.0
H759 H 0.74014 0.81544 0.6094 0.0
H760 H 0.83308 0.76658 0.70563 0.0
H761 H 0.86344 0.83322 0.6178 0.0
H762 H 0.78476 0.6961 0.65498 0.0
H763 H 0.75122 0.72974 0.67109 0.0
H764 H 0.78982 0.71726 0.69963 0.0
H765 H 0.82169 0.77731 0.54811 0.0
H766 H 0.83787 0.82376 0.55958 0.0
H767 H 0.78861 0.81232 0.56207 0.0
C768 C 0.74769 0.19264 0.05465 0.0
C769 C 0.7855 0.20384 0.05646 0.0
C770 C 0.72011 0.21101 0.07567 0.0
C771 C 0.7306 0.24115 0.09922 0.0
C772 C 0.76867 0.25247 0.10139 0.0
C773 C 0.79564 0.23375 0.07994 0.0
C774 C 0.67974 0.19825 0.07262 0.0
C775 C 0.78092 0.28436 0.12643 0.0
C776 C 0.65744 0.31153 0.13166 0.0
C777 C 0.64993 0.29974 0.16624 0.0
C778 C 0.68315 0.29226 0.10917 0.0
C779 C 0.70183 0.26072 0.12189 0.0
C780 C 0.69386 0.2485 0.15675 0.0
C781 C 0.66795 0.26825 0.17853 0.0
C782 C 0.69078 0.30599 0.0721 0.0
C783 C 0.71337 0.21517 0.17136 0.0
H784 H 0.73948 0.16966 0.03656 0.0
H785 H 0.82475 0.24257 0.08168 0.0
H786 H 0.66946 0.18989 0.09924 0.0
H787 H 0.66168 0.22142 0.06427 0.0
H788 H 0.67618 0.17446 0.05287 0.0
H789 H 0.81165 0.28963 0.12501 0.0
H790 H 0.76583 0.31003 0.11962 0.0
H791 H 0.77354 0.27848 0.1546 0.0
H792 H 0.64334 0.336 0.12248 0.0
H793 H 0.66244 0.25976 0.20563 0.0
H794 H 0.68583 0.28338 0.05142 0.0
H795 H 0.7207 0.31436 0.07003 0.0
H796 H 0.67283 0.33005 0.06581 0.0
H797 H 0.70914 0.19053 0.15286 0.0
H798 H 0.70297 0.20857 0.19851 0.0
H799 H 0.74408 0.22037 0.17309 0.0
C800 C 0.37051 0.26586 0.64676 0.0
C801 C 0.34398 0.29013 0.63274 0.0
C802 C 0.36357 0.24819 0.679 0.0
C803 C 0.32908 0.25456 0.69718 0.0
C804 C 0.30206 0.27868 0.68291 0.0
C805 C 0.30996 0.29637 0.65102 0.0
C806 C 0.39317 0.22302 0.69379 0.0
C807 C 0.2647 0.28576 0.70128 0.0
C808 C 0.28879 0.18672 0.7616 0.0
C809 C 0.29433 0.20591 0.79467 0.0
C810 C 0.30166 0.20138 0.72959 0.0
C811 C 0.32067 0.23592 0.73102 0.0
C812 C 0.32803 0.25439 0.76475 0.0
C813 C 0.31442 0.2392 0.79628 0.0
C814 C 0.29286 0.18107 0.69417 0.0
C815 C 0.34856 0.29104 0.76736 0.0
H816 H 0.397 0.26119 0.63289 0.0
H817 H 0.28923 0.3149 0.64021 0.0
H818 H 0.40147 0.2332 0.72128 0.0
H819 H 0.38161 0.19466 0.69609 0.0
H820 H 0.4187 0.22133 0.6766 0.0
H821 H 0.24655 0.30488 0.68633 0.0
H822 H 0.24943 0.25919 0.70393 0.0
H823 H 0.26928 0.29795 0.72887 0.0
H824 H 0.2728 0.16111 0.76078 0.0
H825 H 0.3184 0.25376 0.82215 0.0
H826 H 0.31853 0.17824 0.67738 0.0
H827 H 0.27215 0.19729 0.679 0.0
H828 H 0.28103 0.15301 0.69795 0.0
H829 H 0.37473 0.28953 0.75115 0.0
H830 H 0.35588 0.29949 0.79562 0.0
H831 H 0.33062 0.31294 0.75623 0.0
C832 C 0.68957 0.70296 0.37444 0.0
C833 C 0.65618 0.70991 0.39359 0.0
C834 C 0.69632 0.71935 0.34162 0.0
C835 C 0.66883 0.74299 0.32739 0.0
C836 C 0.63508 0.75025 0.34652 0.0
C837 C 0.62923 0.73377 0.37958 0.0
C838 C 0.7329 0.71131 0.32217 0.0
C839 C 0.60506 0.77504 0.33188 0.0
C840 C 0.70736 0.80754 0.25906 0.0
C841 C 0.70045 0.78715 0.22688 0.0
C842 C 0.69536 0.79446 0.29204 0.0
C843 C 0.67598 0.7602 0.29255 0.0
C844 C 0.66714 0.74056 0.25975 0.0
C845 C 0.67977 0.75426 0.22717 0.0
C846 C 0.7056 0.81606 0.3264 0.0
C847 C 0.64627 0.7041 0.25922 0.0
H848 H 0.71062 0.68472 0.38516 0.0
H849 H 0.60322 0.73903 0.39408 0.0
H850 H 0.72718 0.69813 0.29517 0.0
H851 H 0.74818 0.73759 0.31801 0.0
H852 H 0.75153 0.69267 0.33716 0.0
H853 H 0.58039 0.77789 0.35009 0.0
H854 H 0.61676 0.80305 0.32778 0.0
H855 H 0.59538 0.76369 0.30522 0.0
H856 H 0.72383 0.83279 0.2584 0.0
H857 H 0.67482 0.7387 0.20198 0.0
H858 H 0.72697 0.80043 0.34136 0.0
H859 H 0.68065 0.81957 0.34409 0.0
H860 H 0.71722 0.84389 0.32115 0.0
H861 H 0.66452 0.68249 0.27041 0.0
H862 H 0.6377 0.69471 0.23153 0.0
H863 H 0.62082 0.70645 0.2764 0.0
C864 C 0.81154 0.20689 0.88262 0.0
C865 C 0.84628 0.21063 0.90027 0.0
C866 C 0.80409 0.22573 0.8513 0.0
C867 C 0.83231 0.24843 0.83691 0.0
C868 C 0.86752 0.25229 0.85446 0.0
C869 C 0.87401 0.23354 0.8862 0.0
C870 C 0.76594 0.22136 0.83363 0.0
C871 C 0.89838 0.27583 0.83949 0.0
C872 C 0.81497 0.26518 0.73861 0.0
C873 C 0.79643 0.29931 0.74106 0.0
C874 C 0.8294 0.24936 0.76951 0.0
C875 C 0.82439 0.26803 0.8035 0.0
C876 C 0.80736 0.30353 0.80571 0.0
C877 C 0.79366 0.31882 0.77428 0.0
C878 C 0.84785 0.2117 0.76603 0.0
C879 C 0.80106 0.32409 0.84146 0.0
H880 H 0.78991 0.18944 0.89352 0.0
H881 H 0.90102 0.23627 0.8996 0.0
H882 H 0.75245 0.24892 0.83157 0.0
H883 H 0.7691 0.20923 0.80584 0.0
H884 H 0.74686 0.20328 0.84873 0.0
H885 H 0.92426 0.27574 0.85626 0.0
H886 H 0.90554 0.26551 0.81177 0.0
H887 H 0.88859 0.30488 0.83768 0.0
H888 H 0.81685 0.25037 0.71265 0.0
H889 H 0.77876 0.34504 0.77584 0.0
H890 H 0.82886 0.19058 0.77701 0.0
H891 H 0.87431 0.2115 0.78188 0.0
H892 H 0.85425 0.2034 0.73755 0.0
H893 H 0.7794 0.30938 0.8569 0.0
H894 H 0.79144 0.35304 0.83815 0.0
H895 H 0.82722 0.32474 0.85775 0.0
C896 C 0.29716 0.26395 0.45062 0.0
C897 C 0.28642 0.29312 0.47468 0.0
C898 C 0.27049 0.24473 0.4291 0.0
C899 C 0.23211 0.25477 0.43181 0.0
C900 C 0.22102 0.28419 0.45593 0.0
C901 C 0.24831 0.3031 0.47699 0.0
C902 C 0.28341 0.21369 0.40344 0.0
C903 C 0.1803 0.29556 0.45958 0.0
C904 C 0.16916 0.22694 0.3527 0.0
C905 C 0.1523 0.19468 0.36464 0.0
C906 C 0.19477 0.24715 0.37453 0.0
C907 C 0.20366 0.23462 0.40909 0.0
C908 C 0.18624 0.20221 0.42143 0.0
C909 C 0.16079 0.18251 0.3989 0.0
C910 C 0.21293 0.28138 0.36031 0.0
C911 C 0.1949 0.1881 0.45817 0.0
H912 H 0.3265 0.25609 0.44847 0.0
H913 H 0.23966 0.32549 0.49555 0.0
H914 H 0.26931 0.18739 0.40997 0.0
H915 H 0.27537 0.21979 0.37546 0.0
H916 H 0.31432 0.20943 0.40444 0.0
H917 H 0.17628 0.31892 0.47971 0.0
H918 H 0.16932 0.30401 0.43321 0.0
H919 H 0.16316 0.27165 0.46774 0.0
H920 H 0.16291 0.23576 0.32585 0.0
H921 H 0.14756 0.15748 0.40784 0.0
H922 H 0.24378 0.27728 0.3583 0.0
H923 H 0.20808 0.30558 0.3792 0.0
H924 H 0.20196 0.28806 0.33335 0.0
H925 H 0.22513 0.18079 0.45986 0.0
H926 H 0.17793 0.16327 0.46418 0.0
H927 H 0.18942 0.21016 0.47926 0.0
C928 C 0.25287 0.80266 0.97674 0.0
C929 C 0.21518 0.79102 0.97511 0.0
C930 C 0.28049 0.78491 0.95531 0.0
C931 C 0.27019 0.75492 0.93151 0.0
C932 C 0.23228 0.743 0.92966 0.0
C933 C 0.20525 0.76113 0.95153 0.0
C934 C 0.32068 0.79827 0.95807 0.0
C935 C 0.22024 0.71122 0.9044 0.0
C936 C 0.33199 0.73051 0.85087 0.0
C937 C 0.3509 0.69915 0.86233 0.0
C938 C 0.30605 0.74933 0.87337 0.0
C939 C 0.29894 0.7363 0.90809 0.0
C940 C 0.31853 0.70492 0.91998 0.0
C941 C 0.34427 0.68661 0.89681 0.0
C942 C 0.28559 0.78255 0.85965 0.0
C943 C 0.31183 0.69034 0.95688 0.0
H944 H 0.26094 0.82562 0.99493 0.0
H945 H 0.17626 0.75194 0.94996 0.0
H946 H 0.33931 0.77519 0.96556 0.0
H947 H 0.33032 0.8075 0.93153 0.0
H948 H 0.32417 0.82164 0.97829 0.0
H949 H 0.18969 0.70521 0.90634 0.0
H950 H 0.22682 0.71774 0.8762 0.0
H951 H 0.23612 0.68578 0.91048 0.0
H952 H 0.3368 0.73958 0.82386 0.0
H953 H 0.35906 0.66225 0.90535 0.0
H954 H 0.28965 0.80695 0.87849 0.0
H955 H 0.25496 0.77678 0.85831 0.0
H956 H 0.29536 0.78986 0.83248 0.0
H957 H 0.31664 0.71268 0.97787 0.0
H958 H 0.3304 0.66653 0.96248 0.0
H959 H 0.28214 0.68131 0.95923 0.0
loop_
_geom_bond_atom_site_label_1
_geom_bond_atom_site_label_2
_geom_bond_distance
_geom_bond_site_symmetry_2
_ccdc_geom_bond_type
Sc0 O3 2.025 . S
Sc0 O10 2.105 1_554 S
Sc0 O13 2.105 . S
Sc0 O16 2.105 . S
Sc0 O19 2.105 1_554 S
Sc1 O3 2.025 . S
Sc1 O11 2.105 1_554 S
Sc1 O15 2.105 . S
Sc1 O17 2.105 . S
Sc1 O21 2.105 1_554 S
Sc2 O3 2.025 . S
Sc2 O12 2.105 1_554 S
Sc2 O14 2.105 . S
Sc2 O18 2.105 . S
Sc2 O20 2.105 1_554 S
O3 Sc0 2.025 . S
O3 Sc1 2.025 . S
O3 Sc2 2.025 . S
C4 O10 1.268 . S
C4 O20 1.268 . S
C5 O11 1.268 . S
C5 O19 1.268 . S
C6 O12 1.268 . S
C6 O21 1.268 . S
C7 O13 1.268 . S
C7 O17 1.268 . S
C8 O14 1.268 . S
C8 O16 1.268 . S
C9 O15 1.268 . S
C9 O18 1.268 . S
O10 Sc0 2.105 1_556 S
O10 C4 1.268 . S
O11 Sc1 2.105 1_556 S
O11 C5 1.268 . S
O12 Sc2 2.105 1_556 S
O12 C6 1.268 . S
O13 Sc0 2.105 . S
O13 C7 1.268 . S
O14 Sc2 2.105 . S
O14 C8 1.268 . S
O15 Sc1 2.105 . S
O15 C9 1.268 . S
O16 Sc0 2.105 . S
O16 C8 1.268 . S
O17 Sc1 2.105 . S
O17 C7 1.268 . S
O18 Sc2 2.105 . S
O18 C9 1.268 . S
O19 Sc0 2.105 1_556 S
O19 C5 1.268 . S
O20 Sc2 2.105 1_556 S
O20 C4 1.268 . S
O21 Sc1 2.105 1_556 S
O21 C6 1.268 . S
Sc22 O25 2.025 . S
Sc22 O32 2.105 . S
Sc22 O35 2.105 . S
Sc22 O38 2.105 . S
Sc22 O41 2.105 . S
Sc23 O25 2.025 . S
Sc23 O33 2.105 . S
Sc23 O37 2.105 . S
Sc23 O39 2.105 . S
Sc23 O43 2.105 . S
Sc24 O25 2.025 . S
Sc24 O34 2.105 . S
Sc24 O36 2.105 . S
Sc24 O40 2.105 . S
Sc24 O42 2.105 . S
O25 Sc22 2.025 . S
O25 Sc23 2.025 . S
O25 Sc24 2.025 . S
C26 O32 1.268 . S
C26 O42 1.268 . S
C27 O33 1.268 . S
C27 O41 1.268 . S
C28 O34 1.268 . S
C28 O43 1.268 . S
C29 O35 1.268 . S
C29 O39 1.268 . S
C30 O36 1.268 . S
C30 O38 1.268 . S
C31 O37 1.268 . S
C31 O40 1.268 . S
O32 Sc22 2.105 . S
O32 C26 1.268 . S
O33 Sc23 2.105 . S
O33 C27 1.268 . S
O34 Sc24 2.105 . S
O34 C28 1.268 . S
O35 Sc22 2.105 . S
O35 C29 1.268 . S
O36 Sc24 2.105 . S
O36 C30 1.268 . S
O37 Sc23 2.105 . S
O37 C31 1.268 . S
O38 Sc22 2.105 . S
O38 C30 1.268 . S
O39 Sc23 2.105 . S
O39 C29 1.268 . S
O40 Sc24 2.105 . S
O40 C31 1.268 . S
O41 Sc22 2.105 . S
O41 C27 1.268 . S
O42 Sc24 2.105 . S
O42 C26 1.268 . S
O43 Sc23 2.105 . S
O43 C28 1.268 . S
Sc44 O47 2.025 . S
Sc44 O54 2.105 1_554 S
Sc44 O57 2.105 . S
Sc44 O60 2.105 . S
Sc44 O63 2.105 1_554 S
Sc45 O47 2.025 1_556 S
Sc45 O55 2.105 . S
Sc45 O59 2.105 1_556 S
Sc45 O61 2.105 1_556 S
Sc45 O65 2.105 . S
Sc46 O47 2.025 . S
Sc46 O56 2.105 1_554 S
Sc46 O58 2.105 . S
Sc46 O62 2.105 . S
Sc46 O64 2.105 1_554 S
O47 Sc44 2.025 . S
O47 Sc45 2.025 1_554 S
O47 Sc46 2.025 . S
C48 O54 1.268 . S
C48 O64 1.268 . S
C49 O55 1.268 . S
C49 O63 1.268 . S
C50 O56 1.268 . S
C50 O65 1.268 . S
C51 O57 1.268 . S
C51 O61 1.268 . S
C52 O58 1.268 . S
C52 O60 1.268 . S
C53 O59 1.268 . S
C53 O62 1.268 . S
O54 Sc44 2.105 1_556 S
O54 C48 1.268 . S
O55 Sc45 2.105 . S
O55 C49 1.268 . S
O56 Sc46 2.105 1_556 S
O56 C50 1.268 . S
O57 Sc44 2.105 . S
O57 C51 1.268 . S
O58 Sc46 2.105 . S
O58 C52 1.268 . S
O59 Sc45 2.105 1_554 S
O59 C53 1.268 . S
O60 Sc44 2.105 . S
O60 C52 1.268 . S
O61 Sc45 2.105 1_554 S
O61 C51 1.268 . S
O62 Sc46 2.105 . S
O62 C53 1.268 . S
O63 Sc44 2.105 1_556 S
O63 C49 1.268 . S
O64 Sc46 2.105 1_556 S
O64 C48 1.268 . S
O65 Sc45 2.105 . S
O65 C50 1.268 . S
Sc66 O69 2.025 . S
Sc66 O76 2.105 . S
Sc66 O79 2.105 . S
Sc66 O82 2.105 . S
Sc66 O85 2.105 . S
Sc67 O69 2.025 . S
Sc67 O77 2.105 . S
Sc67 O81 2.105 . S
Sc67 O83 2.105 . S
Sc67 O87 2.105 . S
Sc68 O69 2.025 . S
Sc68 O78 2.105 . S
Sc68 O80 2.105 . S
Sc68 O84 2.105 . S
Sc68 O86 2.105 . S
O69 Sc66 2.025 . S
O69 Sc67 2.025 . S
O69 Sc68 2.025 . S
C70 O76 1.268 . S
C70 O86 1.268 . S
C71 O77 1.268 . S
C71 O85 1.268 . S
C72 O78 1.268 . S
C72 O87 1.268 . S
C73 O79 1.268 . S
C73 O83 1.268 . S
C74 O80 1.268 . S
C74 O82 1.268 . S
C75 O81 1.268 . S
C75 O84 1.268 . S
O76 Sc66 2.105 . S
O76 C70 1.268 . S
O77 Sc67 2.105 . S
O77 C71 1.268 . S
O78 Sc68 2.105 . S
O78 C72 1.268 . S
O79 Sc66 2.105 . S
O79 C73 1.268 . S
O80 Sc68 2.105 . S
O80 C74 1.268 . S
O81 Sc67 2.105 . S
O81 C75 1.268 . S
O82 Sc66 2.105 . S
O82 C74 1.268 . S
O83 Sc67 2.105 . S
O83 C73 1.268 . S
O84 Sc68 2.105 . S
O84 C75 1.268 . S
O85 Sc66 2.105 . S
O85 C71 1.268 . S
O86 Sc68 2.105 . S
O86 C70 1.268 . S
O87 Sc67 2.105 . S
O87 C72 1.268 . S
C88 N89 1.317 . S
C88 N90 1.348 . S
C88 C91 1.485 . S
N89 C88 1.317 . S
N89 N93 1.370 . S
N90 C88 1.348 . S
N90 C92 1.346 . S
C91 C88 1.485 . S
C91 H95 0.960 . S
C91 H96 0.961 . S
C91 H97 0.960 . S
C92 N90 1.346 . S
C92 N93 1.307 . S
C92 C94 1.486 . S
N93 N89 1.370 . S
N93 C92 1.307 . S
C94 C92 1.486 . S
C94 H98 0.960 . S
C94 H99 0.960 . S
C94 H100 0.959 . S
H95 C91 0.960 . S
H96 C91 0.961 . S
H97 C91 0.960 . S
H98 C94 0.960 . S
H99 C94 0.960 . S
H100 C94 0.959 . S
C101 N102 1.317 . S
C101 N103 1.348 . S
C101 C104 1.485 . S
N102 C101 1.317 . S
N102 N106 1.370 . S
N103 C101 1.348 . S
N103 C105 1.346 . S
C104 C101 1.485 . S
C104 H108 0.960 . S
C104 H109 0.961 . S
C104 H110 0.960 . S
C105 N103 1.346 . S
C105 N106 1.307 . S
C105 C107 1.486 . S
N106 N102 1.370 . S
N106 C105 1.307 . S
C107 C105 1.486 . S
C107 H111 0.960 . S
C107 H112 0.960 . S
C107 H113 0.959 . S
H108 C104 0.960 . S
H109 C104 0.961 . S
H110 C104 0.960 . S
H111 C107 0.960 . S
H112 C107 0.960 . S
H113 C107 0.959 . S
C114 N115 1.317 . S
C114 N116 1.348 . S
C114 C117 1.485 . S
N115 C114 1.317 . S
N115 N119 1.370 . S
N116 C114 1.348 . S
N116 C118 1.346 . S
C117 C114 1.485 . S
C117 H121 0.960 . S
C117 H122 0.961 . S
C117 H123 0.960 . S
C118 N116 1.346 . S
C118 N119 1.307 . S
C118 C120 1.486 . S
N119 N115 1.370 . S
N119 C118 1.307 . S
C120 C118 1.486 . S
C120 H124 0.960 . S
C120 H125 0.960 . S
C120 H126 0.959 . S
H121 C117 0.960 . S
H122 C117 0.961 . S
H123 C117 0.960 . S
H124 C120 0.960 . S
H125 C120 0.960 . S
H126 C120 0.959 . S
C127 N128 1.317 . S
C127 N129 1.348 . S
C127 C130 1.485 . S
N128 C127 1.317 . S
N128 N132 1.370 . S
N129 C127 1.348 . S
N129 C131 1.346 . S
C130 C127 1.485 . S
C130 H134 0.960 . S
C130 H135 0.961 . S
C130 H136 0.960 . S
C131 N129 1.346 . S
C131 N132 1.307 . S
C131 C133 1.486 . S
N132 N128 1.370 . S
N132 C131 1.307 . S
C133 C131 1.486 . S
C133 H137 0.960 . S
C133 H138 0.960 . S
C133 H139 0.959 . S
H134 C130 0.960 . S
H135 C130 0.961 . S
H136 C130 0.960 . S
H137 C133 0.960 . S
H138 C133 0.960 . S
H139 C133 0.959 . S
C140 N141 1.317 . S
C140 N142 1.348 . S
C140 C143 1.485 . S
N141 C140 1.317 . S
N141 N145 1.370 . S
N142 C140 1.348 . S
N142 C144 1.346 . S
C143 C140 1.485 . S
C143 H147 0.960 . S
C143 H148 0.961 . S
C143 H149 0.960 . S
C144 N142 1.346 . S
C144 N145 1.307 . S
C144 C146 1.486 . S
N145 N141 1.370 . S
N145 C144 1.307 . S
C146 C144 1.486 . S
C146 H150 0.960 . S
C146 H151 0.960 . S
C146 H152 0.959 . S
H147 C143 0.960 . S
H148 C143 0.961 . S
H149 C143 0.960 . S
H150 C146 0.960 . S
H151 C146 0.960 . S
H152 C146 0.959 . S
C153 N154 1.317 . S
C153 N155 1.348 . S
C153 C156 1.485 . S
N154 C153 1.317 . S
N154 N158 1.370 . S
N155 C153 1.348 . S
N155 C157 1.346 . S
C156 C153 1.485 . S
C156 H160 0.960 . S
C156 H161 0.961 . S
C156 H162 0.960 . S
C157 N155 1.346 . S
C157 N158 1.307 . S
C157 C159 1.486 . S
N158 N154 1.370 . S
N158 C157 1.307 . S
C159 C157 1.486 . S
C159 H163 0.960 . S
C159 H164 0.960 . S
C159 H165 0.959 . S
H160 C156 0.960 . S
H161 C156 0.961 . S
H162 C156 0.960 . S
H163 C159 0.960 . S
H164 C159 0.960 . S
H165 C159 0.959 . S
C166 N167 1.317 . S
C166 N168 1.348 . S
C166 C169 1.485 . S
N167 C166 1.317 . S
N167 N171 1.370 . S
N168 C166 1.348 . S
N168 C170 1.346 . S
C169 C166 1.485 . S
C169 H173 0.960 . S
C169 H174 0.961 . S
C169 H175 0.960 . S
C170 N168 1.346 . S
C170 N171 1.307 . S
C170 C172 1.486 . S
N171 N167 1.370 . S
N171 C170 1.307 . S
C172 C170 1.486 . S
C172 H176 0.960 . S
C172 H177 0.960 . S
C172 H178 0.959 . S
H173 C169 0.960 . S
H174 C169 0.961 . S
H175 C169 0.960 . S
H176 C172 0.960 . S
H177 C172 0.960 . S
H178 C172 0.959 . S
C179 N180 1.317 . S
C179 N181 1.348 . S
C179 C182 1.485 . S
N180 C179 1.317 . S
N180 N184 1.370 . S
N181 C179 1.348 . S
N181 C183 1.346 . S
C182 C179 1.485 . S
C182 H186 0.960 . S
C182 H187 0.961 . S
C182 H188 0.960 . S
C183 N181 1.346 . S
C183 N184 1.307 . S
C183 C185 1.486 . S
N184 N180 1.370 . S
N184 C183 1.307 . S
C185 C183 1.486 . S
C185 H189 0.960 . S
C185 H190 0.960 . S
C185 H191 0.959 . S
H186 C182 0.960 . S
H187 C182 0.961 . S
H188 C182 0.960 . S
H189 C185 0.960 . S
H190 C185 0.960 . S
H191 C185 0.959 . S
C192 C193 1.391 . S
C192 C194 1.394 . S
C192 H208 0.931 . S
C193 C192 1.391 . S
C193 C197 1.376 . S
C194 C192 1.394 . S
C194 C195 1.369 1_565 S
C194 C198 1.531 . S
C195 C194 1.369 1_545 S
C195 C196 1.410 . S
C195 C203 1.503 . S
C196 C195 1.410 . S
C196 C197 1.392 1_545 S
C196 C199 1.511 . S
C197 C193 1.376 . S
C197 C196 1.392 1_565 S
C197 H209 0.929 . S
C198 C194 1.531 . S
C198 H210 0.960 . S
C198 H211 0.962 . S
C198 H212 0.960 . S
C199 C196 1.511 . S
C199 H213 0.961 . S
C199 H214 0.961 . S
C199 H215 0.961 . S
C200 C201 1.370 . S
C200 C202 1.363 . S
C200 H216 0.931 . S
C201 C200 1.370 . S
C201 C205 1.408 . S
C202 C200 1.363 . S
C202 C203 1.370 . S
C202 C206 1.524 . S
C203 C195 1.503 . S
C203 C202 1.370 . S
C203 C204 1.403 . S
C204 C203 1.403 . S
C204 C205 1.404 . S
C204 C207 1.539 . S
C205 C201 1.408 . S
C205 C204 1.404 . S
C205 H217 0.930 . S
C206 C202 1.524 . S
C206 H218 0.956 . S
C206 H219 0.961 . S
C206 H220 0.961 . S
C207 C204 1.539 . S
C207 H221 0.958 . S
C207 H222 0.961 . S
C207 H223 0.960 . S
H208 C192 0.931 . S
H209 C197 0.929 . S
H210 C198 0.960 . S
H211 C198 0.962 . S
H212 C198 0.960 . S
H213 C199 0.961 . S
H214 C199 0.961 . S
H215 C199 0.961 . S
H216 C200 0.931 . S
H217 C205 0.930 . S
H218 C206 0.956 . S
H219 C206 0.961 . S
H220 C206 0.961 . S
H221 C207 0.958 . S
H222 C207 0.961 . S
H223 C207 0.960 . S
C224 C225 1.391 . S
C224 C226 1.394 . S
C224 H240 0.931 . S
C225 C224 1.391 . S
C225 C229 1.376 . S
C226 C224 1.394 . S
C226 C227 1.369 . S
C226 C230 1.531 . S
C227 C226 1.369 . S
C227 C228 1.410 . S
C227 C235 1.503 . S
C228 C227 1.410 . S
C228 C229 1.392 . S
C228 C231 1.511 . S
C229 C225 1.376 . S
C229 C228 1.392 . S
C229 H241 0.929 . S
C230 C226 1.531 . S
C230 H242 0.960 . S
C230 H243 0.962 . S
C230 H244 0.960 . S
C231 C228 1.511 . S
C231 H245 0.961 . S
C231 H246 0.961 . S
C231 H247 0.961 . S
C232 C233 1.370 . S
C232 C234 1.363 . S
C232 H248 0.931 . S
C233 C232 1.370 . S
C233 C237 1.408 . S
C234 C232 1.363 . S
C234 C235 1.370 . S
C234 C238 1.524 . S
C235 C227 1.503 . S
C235 C234 1.370 . S
C235 C236 1.403 . S
C236 C235 1.403 . S
C236 C237 1.404 . S
C236 C239 1.539 . S
C237 C233 1.408 . S
C237 C236 1.404 . S
C237 H249 0.930 . S
C238 C234 1.524 . S
C238 H250 0.956 . S
C238 H251 0.961 . S
C238 H252 0.961 . S
C239 C236 1.539 . S
C239 H253 0.958 . S
C239 H254 0.961 . S
C239 H255 0.960 . S
H240 C224 0.931 . S
H241 C229 0.929 . S
H242 C230 0.960 . S
H243 C230 0.962 . S
H244 C230 0.960 . S
H245 C231 0.961 . S
H246 C231 0.961 . S
H247 C231 0.961 . S
H248 C232 0.931 . S
H249 C237 0.930 . S
H250 C238 0.956 . S
H251 C238 0.961 . S
H252 C238 0.961 . S
H253 C239 0.958 . S
H254 C239 0.961 . S
H255 C239 0.960 . S
C256 C257 1.391 . S
C256 C258 1.394 1_545 S
C256 H272 0.931 . S
C257 C256 1.391 . S
C257 C261 1.376 . S
C258 C256 1.394 1_565 S
C258 C259 1.369 . S
C258 C262 1.531 . S
C259 C258 1.369 . S
C259 C260 1.410 . S
C259 C267 1.503 . S
C260 C259 1.410 . S
C260 C261 1.392 1_565 S
C260 C263 1.511 . S
C261 C257 1.376 . S
C261 C260 1.392 1_545 S
C261 H273 0.929 . S
C262 C258 1.531 . S
C262 H274 0.960 . S
C262 H275 0.962 . S
C262 H276 0.960 . S
C263 C260 1.511 . S
C263 H277 0.961 . S
C263 H278 0.961 . S
C263 H279 0.961 . S
C264 C265 1.370 . S
C264 C266 1.363 . S
C264 H280 0.931 . S
C265 C264 1.370 . S
C265 C269 1.408 . S
C266 C264 1.363 . S
C266 C267 1.370 . S
C266 C270 1.524 . S
C267 C259 1.503 . S
C267 C266 1.370 . S
C267 C268 1.403 . S
C268 C267 1.403 . S
C268 C269 1.404 . S
C268 C271 1.539 . S
C269 C265 1.408 . S
C269 C268 1.404 . S
C269 H281 0.930 . S
C270 C266 1.524 . S
C270 H282 0.955 1_565 S
C270 H283 0.961 1_565 S
C270 H284 0.961 . S
C271 C268 1.539 . S
C271 H285 0.958 . S
C271 H286 0.961 . S
C271 H287 0.960 . S
H272 C256 0.931 . S
H273 C261 0.929 . S
H274 C262 0.960 . S
H275 C262 0.962 . S
H276 C262 0.960 . S
H277 C263 0.961 . S
H278 C263 0.961 . S
H279 C263 0.961 . S
H280 C264 0.931 . S
H281 C269 0.930 . S
H282 C270 0.955 1_545 S
H283 C270 0.961 1_545 S
H284 C270 0.961 . S
H285 C271 0.958 . S
H286 C271 0.961 . S
H287 C271 0.960 . S
C288 C289 1.391 . S
C288 C290 1.394 . S
C288 H304 0.931 . S
C289 C288 1.391 . S
C289 C293 1.376 . S
C290 C288 1.394 . S
C290 C291 1.369 . S
C290 C294 1.531 . S
C291 C290 1.369 . S
C291 C292 1.410 . S
C291 C299 1.503 . S
C292 C291 1.410 . S
C292 C293 1.392 . S
C292 C295 1.511 . S
C293 C289 1.376 . S
C293 C292 1.392 . S
C293 H305 0.929 . S
C294 C290 1.531 . S
C294 H306 0.960 . S
C294 H307 0.962 . S
C294 H308 0.960 . S
C295 C292 1.511 . S
C295 H309 0.961 . S
C295 H310 0.961 . S
C295 H311 0.961 . S
C296 C297 1.370 . S
C296 C298 1.363 . S
C296 H312 0.931 . S
C297 C296 1.370 . S
C297 C301 1.408 . S
C298 C296 1.363 . S
C298 C299 1.370 . S
C298 C302 1.524 . S
C299 C291 1.503 . S
C299 C298 1.370 . S
C299 C300 1.403 . S
C300 C299 1.403 . S
C300 C301 1.404 . S
C300 C303 1.539 . S
C301 C297 1.408 . S
C301 C300 1.404 . S
C301 H313 0.930 . S
C302 C298 1.524 . S
C302 H314 0.956 . S
C302 H315 0.961 . S
C302 H316 0.961 . S
C303 C300 1.539 . S
C303 H317 0.958 . S
C303 H318 0.961 . S
C303 H319 0.960 . S
H304 C288 0.931 . S
H305 C293 0.929 . S
H306 C294 0.960 . S
H307 C294 0.962 . S
H308 C294 0.960 . S
H309 C295 0.961 . S
H310 C295 0.961 . S
H311 C295 0.961 . S
H312 C296 0.931 . S
H313 C301 0.930 . S
H314 C302 0.956 . S
H315 C302 0.961 . S
H316 C302 0.961 . S
H317 C303 0.958 . S
H318 C303 0.961 . S
H319 C303 0.960 . S
C320 C321 1.391 . S
C320 C322 1.394 . S
C320 H336 0.931 . S
C321 C320 1.391 . S
C321 C325 1.376 . S
C322 C320 1.394 . S
C322 C323 1.369 . S
C322 C326 1.531 . S
C323 C322 1.369 . S
C323 C324 1.410 . S
C323 C331 1.503 . S
C324 C323 1.410 . S
C324 C325 1.392 . S
C324 C327 1.511 . S
C325 C321 1.376 . S
C325 C324 1.392 . S
C325 H337 0.929 . S
C326 C322 1.531 . S
C326 H338 0.960 . S
C326 H339 0.962 . S
C326 H340 0.960 . S
C327 C324 1.511 . S
C327 H341 0.961 . S
C327 H342 0.961 . S
C327 H343 0.961 . S
C328 C329 1.370 . S
C328 C330 1.363 . S
C328 H344 0.931 . S
C329 C328 1.370 . S
C329 C333 1.408 . S
C330 C328 1.363 . S
C330 C331 1.370 . S
C330 C334 1.524 . S
C331 C323 1.503 . S
C331 C330 1.370 . S
C331 C332 1.403 . S
C332 C331 1.403 . S
C332 C333 1.404 . S
C332 C335 1.539 . S
C333 C329 1.408 . S
C333 C332 1.404 . S
C333 H345 0.930 . S
C334 C330 1.524 . S
C334 H346 0.956 . S
C334 H347 0.961 . S
C334 H348 0.961 . S
C335 C332 1.539 . S
C335 H349 0.958 . S
C335 H350 0.961 . S
C335 H351 0.960 . S
H336 C320 0.931 . S
H337 C325 0.929 . S
H338 C326 0.960 . S
H339 C326 0.962 . S
H340 C326 0.960 . S
H341 C327 0.961 . S
H342 C327 0.961 . S
H343 C327 0.961 . S
H344 C328 0.931 . S
H345 C333 0.930 . S
H346 C334 0.956 . S
H347 C334 0.961 . S
H348 C334 0.961 . S
H349 C335 0.958 . S
H350 C335 0.961 . S
H351 C335 0.960 . S
C352 C353 1.391 1_455 S
C352 C354 1.394 . S
C352 H368 0.931 . S
C353 C352 1.391 1_655 S
C353 C357 1.376 . S
C354 C352 1.394 . S
C354 C355 1.369 . S
C354 C358 1.531 . S
C355 C354 1.369 . S
C355 C356 1.410 . S
C355 C363 1.503 . S
C356 C355 1.410 . S
C356 C357 1.392 1_455 S
C356 C359 1.511 . S
C357 C353 1.376 . S
C357 C356 1.392 1_655 S
C357 H369 0.929 . S
C358 C354 1.531 . S
C358 H370 0.960 . S
C358 H371 0.962 . S
C358 H372 0.960 . S
C359 C356 1.511 . S
C359 H373 0.961 1_455 S
C359 H374 0.961 . S
C359 H375 0.961 . S
C360 C361 1.370 . S
C360 C362 1.363 . S
C360 H376 0.931 . S
C361 C360 1.370 . S
C361 C365 1.408 . S
C362 C360 1.363 . S
C362 C363 1.370 . S
C362 C366 1.524 . S
C363 C355 1.503 . S
C363 C362 1.370 . S
C363 C364 1.403 . S
C364 C363 1.403 . S
C364 C365 1.404 . S
C364 C367 1.539 . S
C365 C361 1.408 . S
C365 C364 1.404 . S
C365 H377 0.930 . S
C366 C362 1.524 . S
C366 H378 0.956 . S
C366 H379 0.961 . S
C366 H380 0.961 . S
C367 C364 1.539 . S
C367 H381 0.958 . S
C367 H382 0.961 . S
C367 H383 0.960 . S
H368 C352 0.931 . S
H369 C357 0.929 . S
H370 C358 0.960 . S
H371 C358 0.962 . S
H372 C358 0.960 . S
H373 C359 0.961 1_655 S
H374 C359 0.961 . S
H375 C359 0.961 . S
H376 C360 0.931 . S
H377 C365 0.930 . S
H378 C366 0.956 . S
H379 C366 0.961 . S
H380 C366 0.961 . S
H381 C367 0.958 . S
H382 C367 0.961 . S
H383 C367 0.960 . S
C384 C385 1.391 . S
C384 C386 1.394 . S
C384 H400 0.931 . S
C385 C384 1.391 . S
C385 C389 1.376 . S
C386 C384 1.394 . S
C386 C387 1.369 . S
C386 C390 1.531 . S
C387 C386 1.369 . S
C387 C388 1.410 . S
C387 C395 1.503 . S
C388 C387 1.410 . S
C388 C389 1.392 . S
C388 C391 1.511 . S
C389 C385 1.376 . S
C389 C388 1.392 . S
C389 H401 0.929 . S
C390 C386 1.531 . S
C390 H402 0.960 . S
C390 H403 0.962 . S
C390 H404 0.960 . S
C391 C388 1.511 . S
C391 H405 0.961 . S
C391 H406 0.961 . S
C391 H407 0.961 . S
C392 C393 1.370 . S
C392 C394 1.363 . S
C392 H408 0.931 . S
C393 C392 1.370 . S
C393 C397 1.408 . S
C394 C392 1.363 . S
C394 C395 1.370 . S
C394 C398 1.524 . S
C395 C387 1.503 . S
C395 C394 1.370 . S
C395 C396 1.403 . S
C396 C395 1.403 . S
C396 C397 1.404 . S
C396 C399 1.539 . S
C397 C393 1.408 . S
C397 C396 1.404 . S
C397 H409 0.930 . S
C398 C394 1.524 . S
C398 H410 0.956 . S
C398 H411 0.961 . S
C398 H412 0.961 . S
C399 C396 1.539 . S
C399 H413 0.958 . S
C399 H414 0.961 . S
C399 H415 0.960 . S
H400 C384 0.931 . S
H401 C389 0.929 . S
H402 C390 0.960 . S
H403 C390 0.962 . S
H404 C390 0.960 . S
H405 C391 0.961 . S
H406 C391 0.961 . S
H407 C391 0.961 . S
H408 C392 0.931 . S
H409 C397 0.930 . S
H410 C398 0.956 . S
H411 C398 0.961 . S
H412 C398 0.961 . S
H413 C399 0.958 . S
H414 C399 0.961 . S
H415 C399 0.960 . S
C416 C417 1.391 . S
C416 C418 1.394 1_455 S
C416 H432 0.931 . S
C417 C416 1.391 . S
C417 C421 1.376 . S
C418 C416 1.394 1_655 S
C418 C419 1.369 1_655 S
C418 C422 1.531 . S
C419 C418 1.369 1_455 S
C419 C420 1.410 . S
C419 C427 1.503 1_455 S
C420 C419 1.410 . S
C420 C421 1.392 . S
C420 C423 1.511 . S
C421 C417 1.376 . S
C421 C420 1.392 . S
C421 H433 0.929 . S
C422 C418 1.531 . S
C422 H434 0.960 . S
C422 H435 0.962 . S
C422 H436 0.960 . S
C423 C420 1.511 . S
C423 H437 0.961 . S
C423 H438 0.961 . S
C423 H439 0.961 . S
C424 C425 1.370 . S
C424 C426 1.363 . S
C424 H440 0.931 . S
C425 C424 1.370 . S
C425 C429 1.408 . S
C426 C424 1.363 . S
C426 C427 1.370 . S
C426 C430 1.524 1_655 S
C427 C419 1.503 1_655 S
C427 C426 1.370 . S
C427 C428 1.403 . S
C428 C427 1.403 . S
C428 C429 1.404 . S
C428 C431 1.539 . S
C429 C425 1.408 . S
C429 C428 1.404 . S
C429 H441 0.930 . S
C430 C426 1.524 1_455 S
C430 H442 0.956 . S
C430 H443 0.961 . S
C430 H444 0.961 . S
C431 C428 1.539 . S
C431 H445 0.958 . S
C431 H446 0.961 . S
C431 H447 0.960 . S
H432 C416 0.931 . S
H433 C421 0.929 . S
H434 C422 0.960 . S
H435 C422 0.962 . S
H436 C422 0.960 . S
H437 C423 0.961 . S
H438 C423 0.961 . S
H439 C423 0.961 . S
H440 C424 0.931 . S
H441 C429 0.930 . S
H442 C430 0.956 . S
H443 C430 0.961 . S
H444 C430 0.961 . S
H445 C431 0.958 . S
H446 C431 0.961 . S
H447 C431 0.960 . S
C448 C449 1.391 . S
C448 C450 1.394 . S
C448 H464 0.931 . S
C449 C448 1.391 . S
C449 C453 1.376 . S
C450 C448 1.394 . S
C450 C451 1.369 1_545 S
C450 C454 1.531 1_545 S
C451 C450 1.369 1_565 S
C451 C452 1.410 1_565 S
C451 C459 1.503 . S
C452 C451 1.410 1_545 S
C452 C453 1.392 . S
C452 C455 1.511 1_545 S
C453 C449 1.376 . S
C453 C452 1.392 . S
C453 H465 0.929 . S
C454 C450 1.531 1_565 S
C454 H466 0.960 . S
C454 H467 0.962 . S
C454 H468 0.960 1_565 S
C455 C452 1.511 1_565 S
C455 H469 0.961 . S
C455 H470 0.961 . S
C455 H471 0.961 1_565 S
C456 C457 1.370 . S
C456 C458 1.363 . S
C456 H472 0.931 . S
C457 C456 1.370 . S
C457 C461 1.408 . S
C458 C456 1.363 . S
C458 C459 1.370 . S
C458 C462 1.524 . S
C459 C451 1.503 . S
C459 C458 1.370 . S
C459 C460 1.403 . S
C460 C459 1.403 . S
C460 C461 1.404 . S
C460 C463 1.539 1_565 S
C461 C457 1.408 . S
C461 C460 1.404 . S
C461 H473 0.930 . S
C462 C458 1.524 . S
C462 H474 0.956 . S
C462 H475 0.961 . S
C462 H476 0.961 . S
C463 C460 1.539 1_545 S
C463 H477 0.958 . S
C463 H478 0.961 . S
C463 H479 0.960 . S
H464 C448 0.931 . S
H465 C453 0.929 . S
H466 C454 0.960 . S
H467 C454 0.962 . S
H468 C454 0.960 1_545 S
H469 C455 0.961 . S
H470 C455 0.961 . S
H471 C455 0.961 1_545 S
H472 C456 0.931 . S
H473 C461 0.930 . S
H474 C462 0.956 . S
H475 C462 0.961 . S
H476 C462 0.961 . S
H477 C463 0.958 . S
H478 C463 0.961 . S
H479 C463 0.960 . S
C480 C481 1.391 . S
C480 C482 1.394 . S
C480 H496 0.931 . S
C481 C480 1.391 . S
C481 C485 1.376 . S
C482 C480 1.394 . S
C482 C483 1.369 . S
C482 C486 1.531 . S
C483 C482 1.369 . S
C483 C484 1.410 . S
C483 C491 1.503 . S
C484 C483 1.410 . S
C484 C485 1.392 . S
C484 C487 1.511 . S
C485 C481 1.376 . S
C485 C484 1.392 . S
C485 H497 0.929 . S
C486 C482 1.531 . S
C486 H498 0.960 . S
C486 H499 0.962 . S
C486 H500 0.960 . S
C487 C484 1.511 . S
C487 H501 0.961 . S
C487 H502 0.961 . S
C487 H503 0.961 . S
C488 C489 1.370 . S
C488 C490 1.363 . S
C488 H504 0.931 . S
C489 C488 1.370 . S
C489 C493 1.408 . S
C490 C488 1.363 . S
C490 C491 1.370 . S
C490 C494 1.524 . S
C491 C483 1.503 . S
C491 C490 1.370 . S
C491 C492 1.403 . S
C492 C491 1.403 . S
C492 C493 1.404 . S
C492 C495 1.539 . S
C493 C489 1.408 . S
C493 C492 1.404 . S
C493 H505 0.930 . S
C494 C490 1.524 . S
C494 H506 0.956 . S
C494 H507 0.961 . S
C494 H508 0.961 . S
C495 C492 1.539 . S
C495 H509 0.958 . S
C495 H510 0.961 . S
C495 H511 0.960 . S
H496 C480 0.931 . S
H497 C485 0.929 . S
H498 C486 0.960 . S
H499 C486 0.962 . S
H500 C486 0.960 . S
H501 C487 0.961 . S
H502 C487 0.961 . S
H503 C487 0.961 . S
H504 C488 0.931 . S
H505 C493 0.930 . S
H506 C494 0.956 . S
H507 C494 0.961 . S
H508 C494 0.961 . S
H509 C495 0.958 . S
H510 C495 0.961 . S
H511 C495 0.960 . S
C512 C513 1.391 . S
C512 C514 1.394 . S
C512 H528 0.931 . S
C513 C512 1.391 . S
C513 C517 1.376 . S
C514 C512 1.394 . S
C514 C515 1.369 1_565 S
C514 C518 1.531 . S
C515 C514 1.369 1_545 S
C515 C516 1.410 . S
C515 C523 1.503 . S
C516 C515 1.410 . S
C516 C517 1.392 1_545 S
C516 C519 1.511 . S
C517 C513 1.376 . S
C517 C516 1.392 1_565 S
C517 H529 0.929 . S
C518 C514 1.531 . S
C518 H530 0.960 1_565 S
C518 H531 0.962 . S
C518 H532 0.960 . S
C519 C516 1.511 . S
C519 H533 0.961 . S
C519 H534 0.961 . S
C519 H535 0.961 . S
C520 C521 1.370 . S
C520 C522 1.363 . S
C520 H536 0.931 . S
C521 C520 1.370 . S
C521 C525 1.408 . S
C522 C520 1.363 . S
C522 C523 1.370 . S
C522 C526 1.524 . S
C523 C515 1.503 . S
C523 C522 1.370 . S
C523 C524 1.403 . S
C524 C523 1.403 . S
C524 C525 1.404 . S
C524 C527 1.539 . S
C525 C521 1.408 . S
C525 C524 1.404 . S
C525 H537 0.930 . S
C526 C522 1.524 . S
C526 H538 0.956 . S
C526 H539 0.961 . S
C526 H540 0.961 . S
C527 C524 1.539 . S
C527 H541 0.958 . S
C527 H542 0.961 . S
C527 H543 0.960 . S
H528 C512 0.931 . S
H529 C517 0.929 . S
H530 C518 0.960 1_545 S
H531 C518 0.962 . S
H532 C518 0.960 . S
H533 C519 0.961 . S
H534 C519 0.961 . S
H535 C519 0.961 . S
H536 C520 0.931 . S
H537 C525 0.930 . S
H538 C526 0.956 . S
H539 C526 0.961 . S
H540 C526 0.961 . S
H541 C527 0.958 . S
H542 C527 0.961 . S
H543 C527 0.960 . S
C544 C545 1.391 . S
C544 C546 1.394 . S
C544 H560 0.931 . S
C545 C544 1.391 . S
C545 C549 1.376 . S
C546 C544 1.394 . S
C546 C547 1.369 . S
C546 C550 1.531 . S
C547 C546 1.369 . S
C547 C548 1.410 . S
C547 C555 1.503 . S
C548 C547 1.410 . S
C548 C549 1.392 . S
C548 C551 1.511 . S
C549 C545 1.376 . S
C549 C548 1.392 . S
C549 H561 0.929 . S
C550 C546 1.531 . S
C550 H562 0.960 . S
C550 H563 0.962 . S
C550 H564 0.960 . S
C551 C548 1.511 . S
C551 H565 0.961 . S
C551 H566 0.961 . S
C551 H567 0.961 . S
C552 C553 1.370 . S
C552 C554 1.363 . S
C552 H568 0.931 . S
C553 C552 1.370 . S
C553 C557 1.408 . S
C554 C552 1.363 . S
C554 C555 1.370 . S
C554 C558 1.524 . S
C555 C547 1.503 . S
C555 C554 1.370 . S
C555 C556 1.403 . S
C556 C555 1.403 . S
C556 C557 1.404 . S
C556 C559 1.539 . S
C557 C553 1.408 . S
C557 C556 1.404 . S
C557 H569 0.930 . S
C558 C554 1.524 . S
C558 H570 0.956 . S
C558 H571 0.961 . S
C558 H572 0.961 . S
C559 C556 1.539 . S
C559 H573 0.958 . S
C559 H574 0.961 . S
C559 H575 0.960 . S
H560 C544 0.931 . S
H561 C549 0.929 . S
H562 C550 0.960 . S
H563 C550 0.962 . S
H564 C550 0.960 . S
H565 C551 0.961 . S
H566 C551 0.961 . S
H567 C551 0.961 . S
H568 C552 0.931 . S
H569 C557 0.930 . S
H570 C558 0.956 . S
H571 C558 0.961 . S
H572 C558 0.961 . S
H573 C559 0.958 . S
H574 C559 0.961 . S
H575 C559 0.960 . S
C576 C577 1.391 . S
C576 C578 1.394 . S
C576 H592 0.931 . S
C577 C576 1.391 . S
C577 C581 1.376 . S
C578 C576 1.394 . S
C578 C579 1.369 . S
C578 C582 1.531 . S
C579 C578 1.369 . S
C579 C580 1.410 . S
C579 C587 1.503 . S
C580 C579 1.410 . S
C580 C581 1.392 . S
C580 C583 1.511 . S
C581 C577 1.376 . S
C581 C580 1.392 . S
C581 H593 0.929 . S
C582 C578 1.531 . S
C582 H594 0.960 . S
C582 H595 0.962 . S
C582 H596 0.960 . S
C583 C580 1.511 . S
C583 H597 0.961 . S
C583 H598 0.961 . S
C583 H599 0.961 . S
C584 C585 1.370 . S
C584 C586 1.363 . S
C584 H600 0.931 . S
C585 C584 1.370 . S
C585 C589 1.408 . S
C586 C584 1.363 . S
C586 C587 1.370 . S
C586 C590 1.524 . S
C587 C579 1.503 . S
C587 C586 1.370 . S
C587 C588 1.403 . S
C588 C587 1.403 . S
C588 C589 1.404 . S
C588 C591 1.539 . S
C589 C585 1.408 . S
C589 C588 1.404 . S
C589 H601 0.930 . S
C590 C586 1.524 . S
C590 H602 0.956 . S
C590 H603 0.961 . S
C590 H604 0.961 . S
C591 C588 1.539 . S
C591 H605 0.958 . S
C591 H606 0.961 . S
C591 H607 0.960 . S
H592 C576 0.931 . S
H593 C581 0.929 . S
H594 C582 0.960 . S
H595 C582 0.962 . S
H596 C582 0.960 . S
H597 C583 0.961 . S
H598 C583 0.961 . S
H599 C583 0.961 . S
H600 C584 0.931 . S
H601 C589 0.930 . S
H602 C590 0.956 . S
H603 C590 0.961 . S
H604 C590 0.961 . S
H605 C591 0.958 . S
H606 C591 0.961 . S
H607 C591 0.960 . S
C608 C609 1.391 . S
C608 C610 1.394 1_455 S
C608 H624 0.931 . S
C609 C608 1.391 . S
C609 C613 1.376 . S
C610 C608 1.394 1_655 S
C610 C611 1.369 . S
C610 C614 1.531 . S
C611 C610 1.369 . S
C611 C612 1.410 . S
C611 C619 1.503 . S
C612 C611 1.410 . S
C612 C613 1.392 1_655 S
C612 C615 1.511 . S
C613 C609 1.376 . S
C613 C612 1.392 1_455 S
C613 H625 0.929 . S
C614 C610 1.531 . S
C614 H626 0.960 . S
C614 H627 0.962 . S
C614 H628 0.960 . S
C615 C612 1.511 . S
C615 H629 0.961 . S
C615 H630 0.961 . S
C615 H631 0.961 . S
C616 C617 1.370 . S
C616 C618 1.363 . S
C616 H632 0.931 . S
C617 C616 1.370 . S
C617 C621 1.408 . S
C618 C616 1.363 . S
C618 C619 1.370 . S
C618 C622 1.524 . S
C619 C611 1.503 . S
C619 C618 1.370 . S
C619 C620 1.403 . S
C620 C619 1.403 . S
C620 C621 1.404 . S
C620 C623 1.539 . S
C621 C617 1.408 . S
C621 C620 1.404 . S
C621 H633 0.930 . S
C622 C618 1.524 . S
C622 H634 0.956 . S
C622 H635 0.961 . S
C622 H636 0.961 . S
C623 C620 1.539 . S
C623 H637 0.958 . S
C623 H638 0.961 . S
C623 H639 0.960 . S
H624 C608 0.931 . S
H625 C613 0.929 . S
H626 C614 0.960 . S
H627 C614 0.962 . S
H628 C614 0.960 . S
H629 C615 0.961 . S
H630 C615 0.961 . S
H631 C615 0.961 . S
H632 C616 0.931 . S
H633 C621 0.930 . S
H634 C622 0.956 . S
H635 C622 0.961 . S
H636 C622 0.961 . S
H637 C623 0.958 . S
H638 C623 0.961 . S
H639 C623 0.960 . S
C640 C641 1.391 . S
C640 C642 1.394 . S
C640 H656 0.931 . S
C641 C640 1.391 . S
C641 C645 1.376 . S
C642 C640 1.394 . S
C642 C643 1.369 . S
C642 C646 1.531 . S
C643 C642 1.369 . S
C643 C644 1.410 . S
C643 C651 1.503 . S
C644 C643 1.410 . S
C644 C645 1.392 . S
C644 C647 1.511 . S
C645 C641 1.376 . S
C645 C644 1.392 . S
C645 H657 0.929 . S
C646 C642 1.531 . S
C646 H658 0.960 . S
C646 H659 0.962 . S
C646 H660 0.960 . S
C647 C644 1.511 . S
C647 H661 0.961 . S
C647 H662 0.961 . S
C647 H663 0.961 . S
C648 C649 1.370 . S
C648 C650 1.363 . S
C648 H664 0.931 . S
C649 C648 1.370 . S
C649 C653 1.408 . S
C650 C648 1.363 . S
C650 C651 1.370 . S
C650 C654 1.524 . S
C651 C643 1.503 . S
C651 C650 1.370 . S
C651 C652 1.403 . S
C652 C651 1.403 . S
C652 C653 1.404 . S
C652 C655 1.539 . S
C653 C649 1.408 . S
C653 C652 1.404 . S
C653 H665 0.930 . S
C654 C650 1.524 . S
C654 H666 0.956 . S
C654 H667 0.961 . S
C654 H668 0.961 . S
C655 C652 1.539 . S
C655 H669 0.958 . S
C655 H670 0.961 . S
C655 H671 0.960 . S
H656 C640 0.931 . S
H657 C645 0.929 . S
H658 C646 0.960 . S
H659 C646 0.962 . S
H660 C646 0.960 . S
H661 C647 0.961 . S
H662 C647 0.961 . S
H663 C647 0.961 . S
H664 C648 0.931 . S
H665 C653 0.930 . S
H666 C654 0.956 . S
H667 C654 0.961 . S
H668 C654 0.961 . S
H669 C655 0.958 . S
H670 C655 0.961 . S
H671 C655 0.960 . S
C672 C673 1.391 . S
C672 C674 1.394 . S
C672 H688 0.931 . S
C673 C672 1.391 . S
C673 C677 1.376 . S
C674 C672 1.394 . S
C674 C675 1.369 . S
C674 C678 1.531 . S
C675 C674 1.369 . S
C675 C676 1.410 . S
C675 C683 1.503 1_655 S
C676 C675 1.410 . S
C676 C677 1.392 . S
C676 C679 1.511 1_655 S
C677 C673 1.376 . S
C677 C676 1.392 . S
C677 H689 0.929 . S
C678 C674 1.531 . S
C678 H690 0.960 . S
C678 H691 0.962 . S
C678 H692 0.960 . S
C679 C676 1.511 1_455 S
C679 H693 0.961 . S
C679 H694 0.961 . S
C679 H695 0.961 . S
C680 C681 1.370 . S
C680 C682 1.363 . S
C680 H696 0.931 . S
C681 C680 1.370 . S
C681 C685 1.408 . S
C682 C680 1.363 . S
C682 C683 1.370 . S
C682 C686 1.524 . S
C683 C675 1.503 1_455 S
C683 C682 1.370 . S
C683 C684 1.403 . S
C684 C683 1.403 . S
C684 C685 1.404 . S
C684 C687 1.539 1_455 S
C685 C681 1.408 . S
C685 C684 1.404 . S
C685 H697 0.930 . S
C686 C682 1.524 . S
C686 H698 0.956 . S
C686 H699 0.961 . S
C686 H700 0.961 . S
C687 C684 1.539 1_655 S
C687 H701 0.958 . S
C687 H702 0.961 . S
C687 H703 0.960 . S
H688 C672 0.931 . S
H689 C677 0.929 . S
H690 C678 0.960 . S
H691 C678 0.962 . S
H692 C678 0.960 . S
H693 C679 0.961 . S
H694 C679 0.961 . S
H695 C679 0.961 . S
H696 C680 0.931 . S
H697 C685 0.930 . S
H698 C686 0.956 . S
H699 C686 0.961 . S
H700 C686 0.961 . S
H701 C687 0.958 . S
H702 C687 0.961 . S
H703 C687 0.960 . S
C704 C705 1.391 . S
C704 C706 1.394 . S
C704 H720 0.931 . S
C705 C704 1.391 . S
C705 C709 1.376 . S
C706 C704 1.394 . S
C706 C707 1.369 . S
C706 C710 1.531 . S
C707 C706 1.369 . S
C707 C708 1.410 . S
C707 C715 1.503 . S
C708 C707 1.410 . S
C708 C709 1.392 . S
C708 C711 1.511 . S
C709 C705 1.376 . S
C709 C708 1.392 . S
C709 H721 0.929 . S
C710 C706 1.531 . S
C710 H722 0.960 . S
C710 H723 0.962 . S
C710 H724 0.960 . S
C711 C708 1.511 . S
C711 H725 0.961 . S
C711 H726 0.961 . S
C711 H727 0.961 . S
C712 C713 1.370 . S
C712 C714 1.363 . S
C712 H728 0.931 . S
C713 C712 1.370 . S
C713 C717 1.408 . S
C714 C712 1.363 . S
C714 C715 1.370 . S
C714 C718 1.524 . S
C715 C707 1.503 . S
C715 C714 1.370 . S
C715 C716 1.403 . S
C716 C715 1.403 . S
C716 C717 1.404 . S
C716 C719 1.539 . S
C717 C713 1.408 . S
C717 C716 1.404 . S
C717 H729 0.930 . S
C718 C714 1.524 . S
C718 H730 0.956 . S
C718 H731 0.961 . S
C718 H732 0.961 . S
C719 C716 1.539 . S
C719 H733 0.958 . S
C719 H734 0.961 . S
C719 H735 0.960 . S
H720 C704 0.931 . S
H721 C709 0.929 . S
H722 C710 0.960 . S
H723 C710 0.962 . S
H724 C710 0.960 . S
H725 C711 0.961 . S
H726 C711 0.961 . S
H727 C711 0.961 . S
H728 C712 0.931 . S
H729 C717 0.930 . S
H730 C718 0.956 . S
H731 C718 0.961 . S
H732 C718 0.961 . S
H733 C719 0.958 . S
H734 C719 0.961 . S
H735 C719 0.960 . S
C736 C737 1.391 . S
C736 C738 1.394 . S
C736 H752 0.931 . S
C737 C736 1.391 . S
C737 C741 1.376 . S
C738 C736 1.394 . S
C738 C739 1.369 . S
C738 C742 1.531 . S
C739 C738 1.369 . S
C739 C740 1.410 . S
C739 C747 1.503 . S
C740 C739 1.410 . S
C740 C741 1.392 . S
C740 C743 1.511 . S
C741 C737 1.376 . S
C741 C740 1.392 . S
C741 H753 0.929 . S
C742 C738 1.531 . S
C742 H754 0.960 . S
C742 H755 0.962 . S
C742 H756 0.960 . S
C743 C740 1.511 . S
C743 H757 0.961 . S
C743 H758 0.961 . S
C743 H759 0.961 . S
C744 C745 1.370 . S
C744 C746 1.363 . S
C744 H760 0.931 . S
C745 C744 1.370 . S
C745 C749 1.408 . S
C746 C744 1.363 . S
C746 C747 1.370 . S
C746 C750 1.524 . S
C747 C739 1.503 . S
C747 C746 1.370 . S
C747 C748 1.403 . S
C748 C747 1.403 . S
C748 C749 1.404 . S
C748 C751 1.539 . S
C749 C745 1.408 . S
C749 C748 1.404 . S
C749 H761 0.930 . S
C750 C746 1.524 . S
C750 H762 0.956 . S
C750 H763 0.961 . S
C750 H764 0.961 . S
C751 C748 1.539 . S
C751 H765 0.958 . S
C751 H766 0.961 . S
C751 H767 0.960 . S
H752 C736 0.931 . S
H753 C741 0.929 . S
H754 C742 0.960 . S
H755 C742 0.962 . S
H756 C742 0.960 . S
H757 C743 0.961 . S
H758 C743 0.961 . S
H759 C743 0.961 . S
H760 C744 0.931 . S
H761 C749 0.930 . S
H762 C750 0.956 . S
H763 C750 0.961 . S
H764 C750 0.961 . S
H765 C751 0.958 . S
H766 C751 0.961 . S
H767 C751 0.960 . S
C768 C769 1.391 . S
C768 C770 1.394 . S
C768 H784 0.931 . S
C769 C768 1.391 . S
C769 C773 1.376 . S
C770 C768 1.394 . S
C770 C771 1.369 . S
C770 C774 1.531 . S
C771 C770 1.369 . S
C771 C772 1.410 . S
C771 C779 1.503 . S
C772 C771 1.410 . S
C772 C773 1.392 . S
C772 C775 1.511 . S
C773 C769 1.376 . S
C773 C772 1.392 . S
C773 H785 0.929 . S
C774 C770 1.531 . S
C774 H786 0.960 . S
C774 H787 0.962 . S
C774 H788 0.960 . S
C775 C772 1.511 . S
C775 H789 0.961 . S
C775 H790 0.961 . S
C775 H791 0.961 . S
C776 C777 1.370 . S
C776 C778 1.363 . S
C776 H792 0.931 . S
C777 C776 1.370 . S
C777 C781 1.408 . S
C778 C776 1.363 . S
C778 C779 1.370 . S
C778 C782 1.524 . S
C779 C771 1.503 . S
C779 C778 1.370 . S
C779 C780 1.403 . S
C780 C779 1.403 . S
C780 C781 1.404 . S
C780 C783 1.539 . S
C781 C777 1.408 . S
C781 C780 1.404 . S
C781 H793 0.930 . S
C782 C778 1.524 . S
C782 H794 0.956 . S
C782 H795 0.961 . S
C782 H796 0.961 . S
C783 C780 1.539 . S
C783 H797 0.958 . S
C783 H798 0.961 . S
C783 H799 0.960 . S
H784 C768 0.931 . S
H785 C773 0.929 . S
H786 C774 0.960 . S
H787 C774 0.962 . S
H788 C774 0.960 . S
H789 C775 0.961 . S
H790 C775 0.961 . S
H791 C775 0.961 . S
H792 C776 0.931 . S
H793 C781 0.930 . S
H794 C782 0.956 . S
H795 C782 0.961 . S
H796 C782 0.961 . S
H797 C783 0.958 . S
H798 C783 0.961 . S
H799 C783 0.960 . S
C800 C801 1.391 . S
C800 C802 1.394 . S
C800 H816 0.931 . S
C801 C800 1.391 . S
C801 C805 1.376 . S
C802 C800 1.394 . S
C802 C803 1.369 . S
C802 C806 1.531 . S
C803 C802 1.369 . S
C803 C804 1.410 . S
C803 C811 1.503 . S
C804 C803 1.410 . S
C804 C805 1.392 . S
C804 C807 1.511 . S
C805 C801 1.376 . S
C805 C804 1.392 . S
C805 H817 0.929 . S
C806 C802 1.531 . S
C806 H818 0.960 . S
C806 H819 0.962 . S
C806 H820 0.960 . S
C807 C804 1.511 . S
C807 H821 0.961 . S
C807 H822 0.961 . S
C807 H823 0.961 . S
C808 C809 1.370 . S
C808 C810 1.363 . S
C808 H824 0.931 . S
C809 C808 1.370 . S
C809 C813 1.408 . S
C810 C808 1.363 . S
C810 C811 1.370 . S
C810 C814 1.524 . S
C811 C803 1.503 . S
C811 C810 1.370 . S
C811 C812 1.403 . S
C812 C811 1.403 . S
C812 C813 1.404 . S
C812 C815 1.539 . S
C813 C809 1.408 . S
C813 C812 1.404 . S
C813 H825 0.930 . S
C814 C810 1.524 . S
C814 H826 0.956 . S
C814 H827 0.961 . S
C814 H828 0.961 . S
C815 C812 1.539 . S
C815 H829 0.958 . S
C815 H830 0.961 . S
C815 H831 0.960 . S
H816 C800 0.931 . S
H817 C805 0.929 . S
H818 C806 0.960 . S
H819 C806 0.962 . S
H820 C806 0.960 . S
H821 C807 0.961 . S
H822 C807 0.961 . S
H823 C807 0.961 . S
H824 C808 0.931 . S
H825 C813 0.930 . S
H826 C814 0.956 . S
H827 C814 0.961 . S
H828 C814 0.961 . S
H829 C815 0.958 . S
H830 C815 0.961 . S
H831 C815 0.960 . S
C832 C833 1.391 . S
C832 C834 1.394 . S
C832 H848 0.931 . S
C833 C832 1.391 . S
C833 C837 1.376 . S
C834 C832 1.394 . S
C834 C835 1.369 . S
C834 C838 1.531 . S
C835 C834 1.369 . S
C835 C836 1.410 . S
C835 C843 1.503 . S
C836 C835 1.410 . S
C836 C837 1.392 . S
C836 C839 1.511 . S
C837 C833 1.376 . S
C837 C836 1.392 . S
C837 H849 0.929 . S
C838 C834 1.531 . S
C838 H850 0.960 . S
C838 H851 0.962 . S
C838 H852 0.960 . S
C839 C836 1.511 . S
C839 H853 0.961 . S
C839 H854 0.961 . S
C839 H855 0.961 . S
C840 C841 1.370 . S
C840 C842 1.363 . S
C840 H856 0.931 . S
C841 C840 1.370 . S
C841 C845 1.408 . S
C842 C840 1.363 . S
C842 C843 1.370 . S
C842 C846 1.524 . S
C843 C835 1.503 . S
C843 C842 1.370 . S
C843 C844 1.403 . S
C844 C843 1.403 . S
C844 C845 1.404 . S
C844 C847 1.539 . S
C845 C841 1.408 . S
C845 C844 1.404 . S
C845 H857 0.930 . S
C846 C842 1.524 . S
C846 H858 0.956 . S
C846 H859 0.961 . S
C846 H860 0.961 . S
C847 C844 1.539 . S
C847 H861 0.958 . S
C847 H862 0.961 . S
C847 H863 0.960 . S
H848 C832 0.931 . S
H849 C837 0.929 . S
H850 C838 0.960 . S
H851 C838 0.962 . S
H852 C838 0.960 . S
H853 C839 0.961 . S
H854 C839 0.961 . S
H855 C839 0.961 . S
H856 C840 0.931 . S
H857 C845 0.930 . S
H858 C846 0.956 . S
H859 C846 0.961 . S
H860 C846 0.961 . S
H861 C847 0.958 . S
H862 C847 0.961 . S
H863 C847 0.960 . S
C864 C865 1.391 . S
C864 C866 1.394 . S
C864 H880 0.931 . S
C865 C864 1.391 . S
C865 C869 1.376 . S
C866 C864 1.394 . S
C866 C867 1.369 . S
C866 C870 1.531 . S
C867 C866 1.369 . S
C867 C868 1.410 . S
C867 C875 1.503 . S
C868 C867 1.410 . S
C868 C869 1.392 . S
C868 C871 1.511 . S
C869 C865 1.376 . S
C869 C868 1.392 . S
C869 H881 0.929 . S
C870 C866 1.531 . S
C870 H882 0.960 . S
C870 H883 0.962 . S
C870 H884 0.960 . S
C871 C868 1.511 . S
C871 H885 0.961 . S
C871 H886 0.961 . S
C871 H887 0.961 . S
C872 C873 1.370 . S
C872 C874 1.363 . S
C872 H888 0.931 . S
C873 C872 1.370 . S
C873 C877 1.408 . S
C874 C872 1.363 . S
C874 C875 1.370 . S
C874 C878 1.524 . S
C875 C867 1.503 . S
C875 C874 1.370 . S
C875 C876 1.403 . S
C876 C875 1.403 . S
C876 C877 1.404 . S
C876 C879 1.539 . S
C877 C873 1.408 . S
C877 C876 1.404 . S
C877 H889 0.930 . S
C878 C874 1.524 . S
C878 H890 0.956 . S
C878 H891 0.961 . S
C878 H892 0.961 . S
C879 C876 1.539 . S
C879 H893 0.958 . S
C879 H894 0.961 . S
C879 H895 0.960 . S
H880 C864 0.931 . S
H881 C869 0.929 . S
H882 C870 0.960 . S
H883 C870 0.962 . S
H884 C870 0.960 . S
H885 C871 0.961 . S
H886 C871 0.961 . S
H887 C871 0.961 . S
H888 C872 0.931 . S
H889 C877 0.930 . S
H890 C878 0.956 . S
H891 C878 0.961 . S
H892 C878 0.961 . S
H893 C879 0.958 . S
H894 C879 0.961 . S
H895 C879 0.960 . S
C896 C897 1.391 . S
C896 C898 1.394 . S
C896 H912 0.931 . S
C897 C896 1.391 . S
C897 C901 1.376 . S
C898 C896 1.394 . S
C898 C899 1.369 . S
C898 C902 1.531 . S
C899 C898 1.369 . S
C899 C900 1.410 . S
C899 C907 1.503 . S
C900 C899 1.410 . S
C900 C901 1.392 . S
C900 C903 1.511 . S
C901 C897 1.376 . S
C901 C900 1.392 . S
C901 H913 0.929 . S
C902 C898 1.531 . S
C902 H914 0.960 . S
C902 H915 0.962 . S
C902 H916 0.960 . S
C903 C900 1.511 . S
C903 H917 0.961 . S
C903 H918 0.961 . S
C903 H919 0.961 . S
C904 C905 1.370 . S
C904 C906 1.363 . S
C904 H920 0.931 . S
C905 C904 1.370 . S
C905 C909 1.408 . S
C906 C904 1.363 . S
C906 C907 1.370 . S
C906 C910 1.524 . S
C907 C899 1.503 . S
C907 C906 1.370 . S
C907 C908 1.403 . S
C908 C907 1.403 . S
C908 C909 1.404 . S
C908 C911 1.539 . S
C909 C905 1.408 . S
C909 C908 1.404 . S
C909 H921 0.930 . S
C910 C906 1.524 . S
C910 H922 0.956 . S
C910 H923 0.961 . S
C910 H924 0.961 . S
C911 C908 1.539 . S
C911 H925 0.958 . S
C911 H926 0.961 . S
C911 H927 0.960 . S
H912 C896 0.931 . S
H913 C901 0.929 . S
H914 C902 0.960 . S
H915 C902 0.962 . S
H916 C902 0.960 . S
H917 C903 0.961 . S
H918 C903 0.961 . S
H919 C903 0.961 . S
H920 C904 0.931 . S
H921 C909 0.930 . S
H922 C910 0.956 . S
H923 C910 0.961 . S
H924 C910 0.961 . S
H925 C911 0.958 . S
H926 C911 0.961 . S
H927 C911 0.960 . S
C928 C929 1.391 . S
C928 C930 1.394 . S
C928 H944 0.931 . S
C929 C928 1.391 . S
C929 C933 1.376 . S
C930 C928 1.394 . S
C930 C931 1.369 . S
C930 C934 1.531 . S
C931 C930 1.369 . S
C931 C932 1.410 . S
C931 C939 1.503 . S
C932 C931 1.410 . S
C932 C933 1.392 . S
C932 C935 1.511 . S
C933 C929 1.376 . S
C933 C932 1.392 . S
C933 H945 0.929 . S
C934 C930 1.531 . S
C934 H946 0.960 . S
C934 H947 0.962 . S
C934 H948 0.960 . S
C935 C932 1.511 . S
C935 H949 0.961 . S
C935 H950 0.961 . S
C935 H951 0.961 . S
C936 C937 1.370 . S
C936 C938 1.363 . S
C936 H952 0.931 . S
C937 C936 1.370 . S
C937 C941 1.408 . S
C938 C936 1.363 . S
C938 C939 1.370 . S
C938 C942 1.524 . S
C939 C931 1.503 . S
C939 C938 1.370 . S
C939 C940 1.403 . S
C940 C939 1.403 . S
C940 C941 1.404 . S
C940 C943 1.539 . S
C941 C937 1.408 . S
C941 C940 1.404 . S
C941 H953 0.930 . S
C942 C938 1.524 . S
C942 H954 0.956 . S
C942 H955 0.961 . S
C942 H956 0.961 . S
C943 C940 1.539 . S
C943 H957 0.958 . S
C943 H958 0.961 . S
C943 H959 0.960 . S
H944 C928 0.931 . S
H945 C933 0.929 . S
H946 C934 0.960 . S
H947 C934 0.962 . S
H948 C934 0.960 . S
H949 C935 0.961 . S
H950 C935 0.961 . S
H951 C935 0.961 . S
H952 C936 0.931 . S
H953 C941 0.930 . S
H954 C942 0.956 . S
H955 C942 0.961 . S
H956 C942 0.961 . S
H957 C943 0.958 . S
H958 C943 0.961 . S
H959 C943 0.960 . S
C193 C8 1.358 . S
C201 N93 1.363 . S
C225 C31 1.293 . S
C233 N106 1.298 . S
C257 C53 1.271 . S
C265 N115 1.328 . S
C297 N132 1.368 . S
C289 C74 1.345 . S
C329 N145 1.364 . S
C321 C26 1.359 . S
C353 C48 1.330 . S
C361 N154 1.368 . S
C385 C71 1.292 . S
C393 N167 1.332 . S
C417 C5 1.253 . S
C425 N184 1.293 . S
C449 C50 1.362 . S
C457 N180 1.367 . S
C489 N141 1.290 . S
C481 C70 1.259 . S
C521 N158 1.327 . S
C513 C4 1.321 . S
C545 C28 1.310 . S
C553 N171 1.371 . S
C585 N102 1.362 . S
C577 C73 1.322 . S
C609 C7 1.366 . S
C617 N119 1.368 . S
C649 N128 1.325 . S
C641 C30 1.309 . S
C681 N89 1.298 . S
C673 C52 1.291 . S
C713 N168 1.376 . S
C705 C9 1.378 . S
C745 N181 1.373 . S
C737 C29 1.336 . S
C769 C51 1.356 . S
C777 N142 1.366 . S
C809 N155 1.371 . S
C801 C75 1.372 . S
C841 N116 1.376 . S
C833 C27 1.371 . S
C865 C49 1.359 . S
C873 N129 1.364 . S
C905 N90 1.371 . S
C897 C72 1.344 . S
C937 N103 1.367 . S
C929 C6 1.338 . S
