# Generated by pormake.
# Topology ssb, (4,4)-cn, num edge types: 1
# Building blocks:
#     Node 0, Type 0, BuildingBlock: GIZVER_clean_linker_0, # of connection points: 4
#     Node 1, Type 0, BuildingBlock: GIZVER_clean_linker_0, # of connection points: 4
#     Node 2, Type 0, BuildingBlock: GIZVER_clean_linker_0, # of connection points: 4
#     Node 3, Type 0, BuildingBlock: GIZVER_clean_linker_0, # of connection points: 4
#     Node 4, Type 0, BuildingBlock: GIZVER_clean_linker_0, # of connection points: 4
#     Node 5, Type 0, BuildingBlock: GIZVER_clean_linker_0, # of connection points: 4
#     Node 6, Type 0, BuildingBlock: GIZVER_clean_linker_0, # of connection points: 4
#     Node 7, Type 0, BuildingBlock: GIZVER_clean_linker_0, # of connection points: 4
#     Node 8, Type 1, BuildingBlock: NAWXER_clean_sbu_0, # of connection points: 4
#     Node 9, Type 1, BuildingBlock: NAWXER_clean_sbu_0, # of connection points: 4
#     Node 10, Type 1, BuildingBlock: NAWXER_clean_sbu_0, # of connection points: 4
#     Node 11, Type 1, BuildingBlock: NAWXER_clean_sbu_0, # of connection points: 4
#     Node 12, Type 1, BuildingBlock: NAWXER_clean_sbu_0, # of connection points: 4
#     Node 13, Type 1, BuildingBlock: NAWXER_clean_sbu_0, # of connection points: 4
#     Node 14, Type 1, BuildingBlock: NAWXER_clean_sbu_0, # of connection points: 4
#     Node 15, Type 1, BuildingBlock: NAWXER_clean_sbu_0, # of connection points: 4
#     Edge 16, Type (0, 1), BuildingBlock: ZUJKAS_clean_linker_0, # of connection points: 2
#     Edge 17, Type (0, 1), BuildingBlock: ZUJKAS_clean_linker_0, # of connection points: 2
#     Edge 18, Type (0, 1), BuildingBlock: ZUJKAS_clean_linker_0, # of connection points: 2
#     Edge 19, Type (0, 1), BuildingBlock: ZUJKAS_clean_linker_0, # of connection points: 2
#     Edge 20, Type (0, 1), BuildingBlock: ZUJKAS_clean_linker_0, # of connection points: 2
#     Edge 21, Type (0, 1), BuildingBlock: ZUJKAS_clean_linker_0, # of connection points: 2
#     Edge 22, Type (0, 1), BuildingBlock: ZUJKAS_clean_linker_0, # of connection points: 2
#     Edge 23, Type (0, 1), BuildingBlock: ZUJKAS_clean_linker_0, # of connection points: 2
#     Edge 24, Type (0, 1), BuildingBlock: ZUJKAS_clean_linker_0, # of connection points: 2
#     Edge 25, Type (0, 1), BuildingBlock: ZUJKAS_clean_linker_0, # of connection points: 2
#     Edge 26, Type (0, 1), BuildingBlock: ZUJKAS_clean_linker_0, # of connection points: 2
#     Edge 27, Type (0, 1), BuildingBlock: ZUJKAS_clean_linker_0, # of connection points: 2
#     Edge 28, Type (0, 1), BuildingBlock: ZUJKAS_clean_linker_0, # of connection points: 2
#     Edge 29, Type (0, 1), BuildingBlock: ZUJKAS_clean_linker_0, # of connection points: 2
#     Edge 30, Type (0, 1), BuildingBlock: ZUJKAS_clean_linker_0, # of connection points: 2
#     Edge 31, Type (0, 1), BuildingBlock: ZUJKAS_clean_linker_0, # of connection points: 2
#     Edge 32, Type (0, 1), BuildingBlock: ZUJKAS_clean_linker_0, # of connection points: 2
#     Edge 33, Type (0, 1), BuildingBlock: ZUJKAS_clean_linker_0, # of connection points: 2
#     Edge 34, Type (0, 1), BuildingBlock: ZUJKAS_clean_linker_0, # of connection points: 2
#     Edge 35, Type (0, 1), BuildingBlock: ZUJKAS_clean_linker_0, # of connection points: 2
#     Edge 36, Type (0, 1), BuildingBlock: ZUJKAS_clean_linker_0, # of connection points: 2
#     Edge 37, Type (0, 1), BuildingBlock: ZUJKAS_clean_linker_0, # of connection points: 2
#     Edge 38, Type (0, 1), BuildingBlock: ZUJKAS_clean_linker_0, # of connection points: 2
#     Edge 39, Type (0, 1), BuildingBlock: ZUJKAS_clean_linker_0, # of connection points: 2
#     Edge 40, Type (0, 1), BuildingBlock: ZUJKAS_clean_linker_0, # of connection points: 2
#     Edge 41, Type (0, 1), BuildingBlock: ZUJKAS_clean_linker_0, # of connection points: 2
#     Edge 42, Type (0, 1), BuildingBlock: ZUJKAS_clean_linker_0, # of connection points: 2
#     Edge 43, Type (0, 1), BuildingBlock: ZUJKAS_clean_linker_0, # of connection points: 2
#     Edge 44, Type (0, 1), BuildingBlock: ZUJKAS_clean_linker_0, # of connection points: 2
#     Edge 45, Type (0, 1), BuildingBlock: ZUJKAS_clean_linker_0, # of connection points: 2
#     Edge 46, Type (0, 1), BuildingBlock: ZUJKAS_clean_linker_0, # of connection points: 2
#     Edge 47, Type (0, 1), BuildingBlock: ZUJKAS_clean_linker_0, # of connection points: 2
# Relax obj value: 0.000
# Max RMSD: 0.030
# Mean RMSD: 0.015
data_MOF--net-ssb--node1-NAWXER_clean_sbu_0--node2-GIZVER_clean_linker_0--edge1-ZUJKAS_clean_linker_0
_symmetry_space_group_name_H-M    P1
_symmetry_Int_Tables_number       1
_symmetry_cell_setting            triclinic
loop_
_symmetry_equiv_pos_as_xyz
'x, y, z'
_cell_length_a     59.686878
_cell_length_b     59.660785
_cell_length_c     51.484051
_cell_angle_alpha  90.076965
_cell_angle_beta   89.711884
_cell_angle_gamma 90.044587
loop_
_atom_site_label
_atom_site_type_symbol
_atom_site_fract_x
_atom_site_fract_y
_atom_site_fract_z
_atom_type_partial_charge
H0 H 0.24339 0.18957 0.25331 0.0
H1 H 0.19262 0.24095 0.25416 0.0
H2 H 0.21368 0.21046 0.32547 0.0
H3 H 0.22273 0.19921 0.21375 0.0
H4 H 0.2018 0.22044 0.21409 0.0
H5 H 0.26322 0.2094 0.21088 0.0
H6 H 0.27631 0.27159 0.17136 0.0
H7 H 0.21125 0.25898 0.20439 0.0
C8 C 0.23241 0.20076 0.264 0.0
C9 C 0.2307 0.1988 0.29113 0.0
C10 C 0.21911 0.21637 0.25052 0.0
C11 C 0.20375 0.22976 0.26449 0.0
C12 C 0.20195 0.22787 0.29163 0.0
C13 C 0.21587 0.21279 0.30471 0.0
C14 C 0.21891 0.21633 0.22115 0.0
C15 C 0.2356 0.23265 0.20956 0.0
C16 C 0.2578 0.22585 0.20463 0.0
C17 C 0.27271 0.23983 0.19089 0.0
C18 C 0.26514 0.26091 0.18246 0.0
C19 C 0.24304 0.26803 0.18716 0.0
C20 C 0.22849 0.25395 0.20122 0.0
H21 H 0.81197 0.27016 0.27118 0.0
H22 H 0.76332 0.21675 0.27217 0.0
H23 H 0.79744 0.23536 0.34224 0.0
H24 H 0.80313 0.24556 0.23155 0.0
H25 H 0.77878 0.22849 0.23181 0.0
H26 H 0.80049 0.2866 0.22785 0.0
H27 H 0.74177 0.30976 0.18814 0.0
H28 H 0.74205 0.24448 0.22331 0.0
C29 C 0.8019 0.25816 0.28188 0.0
C30 C 0.80591 0.25487 0.30849 0.0
C31 C 0.78644 0.24449 0.26859 0.0
C32 C 0.77464 0.22785 0.28242 0.0
C33 C 0.77838 0.22455 0.30907 0.0
C34 C 0.79378 0.23837 0.32193 0.0
C35 C 0.78569 0.2446 0.23921 0.0
C36 C 0.77236 0.26386 0.22805 0.0
C37 C 0.78317 0.28423 0.22226 0.0
C38 C 0.77223 0.30093 0.20791 0.0
C39 C 0.75007 0.29723 0.19988 0.0
C40 C 0.73901 0.27694 0.20513 0.0
C41 C 0.75009 0.2605 0.21986 0.0
H42 H 0.76612 0.72702 0.31239 0.0
H43 H 0.70724 0.76787 0.30324 0.0
H44 H 0.76642 0.79555 0.3381 0.0
H45 H 0.73002 0.70964 0.30429 0.0
H46 H 0.7051 0.72607 0.30365 0.0
H47 H 0.74839 0.69903 0.26434 0.0
H48 H 0.71749 0.7169 0.19215 0.0
H49 H 0.69436 0.74699 0.26316 0.0
C50 C 0.7579 0.74315 0.31399 0.0
C51 C 0.76904 0.76114 0.32598 0.0
C52 C 0.73556 0.74547 0.30571 0.0
C53 C 0.72459 0.76618 0.30899 0.0
C54 C 0.7357 0.78444 0.32042 0.0
C55 C 0.75794 0.78175 0.32857 0.0
C56 C 0.72264 0.72528 0.29627 0.0
C57 C 0.72215 0.72397 0.26698 0.0
C58 C 0.73656 0.70917 0.25362 0.0
C59 C 0.73504 0.70673 0.22655 0.0
C60 C 0.71939 0.71955 0.21288 0.0
C61 C 0.7046 0.73398 0.22586 0.0
C62 C 0.7061 0.73624 0.25294 0.0
H63 H 0.22304 0.75187 0.27203 0.0
H64 H 0.27623 0.80045 0.27362 0.0
H65 H 0.24233 0.7818 0.34441 0.0
H66 H 0.23388 0.77023 0.23273 0.0
H67 H 0.25104 0.79452 0.23424 0.0
H68 H 0.25026 0.73314 0.22431 0.0
H69 H 0.3144 0.73377 0.18602 0.0
H70 H 0.29134 0.79245 0.22659 0.0
C71 C 0.2341 0.76274 0.28297 0.0
C72 C 0.2314 0.76461 0.31002 0.0
C73 C 0.25023 0.77566 0.26974 0.0
C74 C 0.26412 0.79022 0.28394 0.0
C75 C 0.26162 0.79248 0.31105 0.0
C76 C 0.24534 0.77936 0.32382 0.0
C77 C 0.25006 0.77667 0.2404 0.0
C78 C 0.26914 0.76386 0.22792 0.0
C79 C 0.26598 0.74147 0.22 0.0
C80 C 0.28216 0.7306 0.20455 0.0
C81 C 0.30207 0.74197 0.19829 0.0
C82 C 0.3056 0.76426 0.20607 0.0
C83 C 0.2891 0.77505 0.22111 0.0
H84 H 0.28781 0.75161 0.77369 0.0
H85 H 0.2317 0.70625 0.77825 0.0
H86 H 0.27351 0.71686 0.84488 0.0
H87 H 0.27149 0.73486 0.73428 0.0
H88 H 0.24766 0.717 0.73621 0.0
H89 H 0.26735 0.77619 0.73559 0.0
H90 H 0.20349 0.8004 0.71003 0.0
H91 H 0.21005 0.73226 0.73577 0.0
C92 C 0.27709 0.7406 0.78497 0.0
C93 C 0.28239 0.73601 0.81097 0.0
C94 C 0.25855 0.73023 0.77313 0.0
C95 C 0.24532 0.71511 0.78761 0.0
C96 C 0.25084 0.71 0.81345 0.0
C97 C 0.26899 0.72101 0.82508 0.0
C98 C 0.25504 0.73267 0.74424 0.0
C99 C 0.24014 0.75229 0.73757 0.0
C100 C 0.24953 0.7736 0.73294 0.0
C101 C 0.23621 0.79118 0.72346 0.0
C102 C 0.21337 0.78732 0.71903 0.0
C103 C 0.20374 0.76615 0.72313 0.0
C104 C 0.21717 0.7488 0.73298 0.0
H105 H 0.29613 0.24263 0.79239 0.0
H106 H 0.24239 0.28994 0.782 0.0
H107 H 0.30299 0.31039 0.81958 0.0
H108 H 0.25928 0.22951 0.78234 0.0
H109 H 0.23624 0.24822 0.7839 0.0
H110 H 0.27585 0.21908 0.74105 0.0
H111 H 0.2357 0.23195 0.67363 0.0
H112 H 0.22256 0.26766 0.74461 0.0
C113 C 0.2899 0.25967 0.79337 0.0
C114 C 0.30232 0.27602 0.80676 0.0
C115 C 0.26834 0.26465 0.78378 0.0
C116 C 0.25953 0.28635 0.78746 0.0
C117 C 0.2722 0.30291 0.80004 0.0
C118 C 0.29371 0.2978 0.80885 0.0
C119 C 0.25309 0.24588 0.77494 0.0
C120 C 0.25039 0.2445 0.74574 0.0
C121 C 0.26298 0.22874 0.7314 0.0
C122 C 0.25752 0.22382 0.70547 0.0
C123 C 0.24 0.23566 0.69362 0.0
C124 C 0.2273 0.2515 0.70747 0.0
C125 C 0.23288 0.25619 0.73343 0.0
H126 H 0.7064 0.23508 0.77166 0.0
H127 H 0.74492 0.29614 0.77405 0.0
H128 H 0.71735 0.26863 0.84437 0.0
H129 H 0.71081 0.2628 0.73279 0.0
H130 H 0.73355 0.28205 0.73329 0.0
H131 H 0.71658 0.22379 0.72292 0.0
H132 H 0.78084 0.20482 0.69208 0.0
H133 H 0.773 0.26831 0.73061 0.0
C134 C 0.71438 0.24832 0.78269 0.0
C135 C 0.71115 0.24946 0.80971 0.0
C136 C 0.7271 0.26483 0.76974 0.0
C137 C 0.73619 0.28275 0.7841 0.0
C138 C 0.73238 0.28445 0.81098 0.0
C139 C 0.7205 0.26734 0.82366 0.0
C140 C 0.72804 0.26531 0.74041 0.0
C141 C 0.74333 0.24754 0.72919 0.0
C142 C 0.73433 0.22706 0.7205 0.0
C143 C 0.74771 0.21173 0.70673 0.0
C144 C 0.77053 0.21649 0.70299 0.0
C145 C 0.77985 0.23682 0.7114 0.0
C146 C 0.76616 0.25228 0.72467 0.0
H147 H 0.77045 0.70983 0.76501 0.0
H148 H 0.71616 0.75719 0.76576 0.0
H149 H 0.74142 0.73081 0.8376 0.0
H150 H 0.74409 0.71525 0.72681 0.0
H151 H 0.72634 0.73918 0.72597 0.0
H152 H 0.78441 0.71847 0.71833 0.0
H153 H 0.8056 0.77804 0.67815 0.0
H154 H 0.74182 0.77663 0.71713 0.0
C155 C 0.75887 0.72037 0.77576 0.0
C156 C 0.75808 0.71907 0.803 0.0
C157 C 0.74408 0.73442 0.76222 0.0
C158 C 0.72832 0.74725 0.77623 0.0
C159 C 0.72703 0.74587 0.80348 0.0
C160 C 0.74243 0.7322 0.81664 0.0
C161 C 0.74288 0.73311 0.73294 0.0
C162 C 0.76133 0.74629 0.71977 0.0
C163 C 0.78162 0.73577 0.71286 0.0
C164 C 0.79787 0.74719 0.69806 0.0
C165 C 0.79374 0.76948 0.6907 0.0
C166 C 0.77362 0.78025 0.6974 0.0
C167 C 0.75758 0.76861 0.71223 0.0
C168 C 0.97572 0.26147 0.55388 0.0
C169 C 0.03245 0.26133 0.48461 0.0
O170 O 0.98237 0.28122 0.54765 0.0
Zn171 Zn 0.00551 0.29652 0.52084 0.0
O172 O 0.98414 0.24457 0.54236 0.0
Zn173 Zn 0.00444 0.26067 0.51954 0.0
O174 O 0.02862 0.2744 0.54563 0.0
O175 O 0.02696 0.31127 0.5439 0.0
O176 O 0.02313 0.24438 0.49505 0.0
O177 O 0.02732 0.28107 0.49261 0.0
O178 O 0.98543 0.31383 0.4984 0.0
O179 O 0.98192 0.27725 0.49391 0.0
C180 C 0.03574 0.29359 0.55321 0.0
C181 C 0.97613 0.29713 0.4874 0.0
C182 C 0.70718 0.02955 0.5402 0.0
C183 C 0.70322 0.9748 0.46966 0.0
O184 O 0.72651 0.02375 0.53148 0.0
Zn185 Zn 0.74023 0.00186 0.50224 0.0
O186 O 0.68965 0.02111 0.5302 0.0
Zn187 Zn 0.70479 0.00234 0.50493 0.0
O188 O 0.72119 0.97815 0.52948 0.0
O189 O 0.75757 0.98093 0.52249 0.0
O190 O 0.68701 0.98351 0.48218 0.0
O191 O 0.72336 0.98036 0.47533 0.0
O192 O 0.75589 0.02238 0.47964 0.0
O193 O 0.71922 0.02685 0.4788 0.0
C194 C 0.74125 0.9717 0.5343 0.0
C195 C 0.73886 0.03267 0.47101 0.0
C196 C 0.97941 0.71043 0.53251 0.0
C197 C 0.03784 0.71884 0.46561 0.0
O198 O 0.98379 0.73077 0.52638 0.0
Zn199 Zn 0.00463 0.74922 0.50021 0.0
O200 O 0.98931 0.69453 0.52059 0.0
Zn201 Zn 0.00795 0.71352 0.49824 0.0
O202 O 0.02875 0.73011 0.52633 0.0
O203 O 0.02215 0.76651 0.5247 0.0
O204 O 0.03019 0.70054 0.47473 0.0
O205 O 0.02957 0.73748 0.47352 0.0
O206 O 0.98299 0.76408 0.47819 0.0
O207 O 0.98344 0.72744 0.47263 0.0
C208 C 0.03255 0.75002 0.53466 0.0
C209 C 0.97538 0.74673 0.4669 0.0
C210 C 0.30153 0.03477 0.54828 0.0
C211 C 0.30233 0.97157 0.48665 0.0
O212 O 0.31884 0.02579 0.53817 0.0
Zn213 Zn 0.30316 0.00347 0.51701 0.0
O214 O 0.28208 0.02744 0.5421 0.0
Zn215 Zn 0.26725 0.00251 0.51789 0.0
O216 O 0.25169 0.98392 0.5429 0.0
O217 O 0.28852 0.98186 0.54605 0.0
O218 O 0.28275 0.97777 0.49395 0.0
O219 O 0.31945 0.98211 0.49488 0.0
O220 O 0.28701 0.02404 0.48865 0.0
O221 O 0.25045 0.02012 0.49298 0.0
C222 C 0.26895 0.97585 0.55387 0.0
C223 C 0.26711 0.02894 0.48135 0.0
C224 C 0.48039 0.80081 0.03011 0.0
C225 C 0.54013 0.79574 0.96413 0.0
O226 O 0.4905 0.81728 0.01955 0.0
Zn227 Zn 0.51013 0.79944 0.99704 0.0
O228 O 0.48577 0.78077 0.02362 0.0
Zn229 Zn 0.50854 0.76358 0.99842 0.0
O230 O 0.52682 0.74727 0.02302 0.0
O231 O 0.53147 0.78392 0.02513 0.0
O232 O 0.53277 0.77673 0.97199 0.0
O233 O 0.53169 0.81363 0.97345 0.0
O234 O 0.48639 0.78426 0.97111 0.0
O235 O 0.48831 0.74754 0.97573 0.0
C236 C 0.53627 0.7642 0.03328 0.0
C237 C 0.47963 0.76456 0.96486 0.0
C238 C 0.24758 0.53183 0.05347 0.0
C239 C 0.24593 0.47797 0.9817 0.0
O240 O 0.26415 0.52302 0.0417 0.0
Zn241 Zn 0.24733 0.50402 0.01829 0.0
O242 O 0.22762 0.52608 0.04711 0.0
Zn243 Zn 0.21161 0.50415 0.01965 0.0
O244 O 0.19625 0.4822 0.04158 0.0
O245 O 0.23299 0.47945 0.04343 0.0
O246 O 0.22632 0.48367 0.98956 0.0
O247 O 0.26314 0.48542 0.99336 0.0
O248 O 0.23122 0.52801 0.9935 0.0
O249 O 0.19459 0.52538 0.99882 0.0
C250 C 0.21357 0.47263 0.05061 0.0
C251 C 0.21137 0.53452 0.98773 0.0
C252 C 0.53852 0.21063 0.98962 0.0
C253 C 0.47879 0.21194 0.05568 0.0
O254 O 0.53221 0.23036 0.99629 0.0
Zn255 Zn 0.50916 0.24617 0.02253 0.0
O256 O 0.52972 0.19366 1.00064 0.0
Zn257 Zn 0.50921 0.21037 0.02315 0.0
O258 O 0.48727 0.2254 0.99508 0.0
O259 O 0.48991 0.26217 0.99848 0.0
O260 O 0.48806 0.19473 0.04576 0.0
O261 O 0.48536 0.23149 0.04867 0.0
O262 O 0.52909 0.26262 0.04543 0.0
O263 O 0.53206 0.226 0.04984 0.0
C264 C 0.48144 0.24502 0.98753 0.0
C265 C 0.53818 0.24584 0.05635 0.0
C266 C 0.77265 0.53469 0.03963 0.0
C267 C 0.77127 0.47718 0.97185 0.0
O268 O 0.79225 0.52942 0.03131 0.0
Zn269 Zn 0.80713 0.50718 1.00327 0.0
O270 O 0.75556 0.52521 0.02986 0.0
Zn271 Zn 0.77138 0.50618 1.00546 0.0
O272 O 0.78834 0.48357 0.03065 0.0
O273 O 0.82483 0.48747 0.02545 0.0
O274 O 0.75467 0.48594 0.98361 0.0
O275 O 0.7912 0.48369 0.97735 0.0
O276 O 0.82169 0.52817 0.97953 0.0
O277 O 0.78479 0.52966 0.97824 0.0
C278 C 0.80835 0.47792 0.03667 0.0
C279 C 0.80392 0.53659 0.97013 0.0
H280 H 0.20505 0.25231 0.33626 0.0
H281 H 0.1745 0.26087 0.36661 0.0
H282 H 0.12668 0.23463 0.31189 0.0
H283 H 0.15721 0.22635 0.28129 0.0
H284 H 0.11055 0.2719 0.3398 0.0
H285 H 0.14653 0.20759 0.40515 0.0
H286 H 0.16574 0.2297 0.39707 0.0
H287 H 0.15584 0.21118 0.37202 0.0
C288 C 0.18795 0.24899 0.33044 0.0
C289 C 0.18348 0.23858 0.3065 0.0
C290 C 0.17055 0.25368 0.34786 0.0
C291 C 0.14841 0.24779 0.3418 0.0
C292 C 0.14368 0.23914 0.31703 0.0
H293 H 0.04518 0.22272 0.45934 0.0
H294 H 0.07201 0.21914 0.42334 0.0
C295 C 0.1611 0.23458 0.29948 0.0
C296 C 0.13058 0.24895 0.36199 0.0
H297 H 0.11634 0.22905 0.42205 0.0
C298 C 0.11176 0.26251 0.35776 0.0
C299 C 0.13193 0.23624 0.38515 0.0
C300 C 0.15097 0.22017 0.39008 0.0
C301 C 0.09457 0.26423 0.37644 0.0
C302 C 0.09646 0.25235 0.40014 0.0
C303 C 0.11499 0.23831 0.40401 0.0
C304 C 0.0797 0.25457 0.42145 0.0
C305 C 0.07441 0.27852 0.37044 0.0
C306 C 0.07537 0.27558 0.43262 0.0
C307 C 0.06006 0.27768 0.45309 0.0
C308 C 0.04888 0.25874 0.46309 0.0
C309 C 0.05346 0.23763 0.45211 0.0
C310 C 0.06877 0.23557 0.43151 0.0
H311 H 0.07225 0.28073 0.34917 0.0
H312 H 0.05885 0.27106 0.37861 0.0
H313 H 0.07672 0.29537 0.37917 0.0
H314 H 0.08404 0.29039 0.42572 0.0
H315 H 0.05709 0.29419 0.46117 0.0
H316 H 0.75867 0.22368 0.35714 0.0
H317 H 0.74913 0.19055 0.38298 0.0
H318 H 0.76808 0.14786 0.31889 0.0
H319 H 0.77733 0.18094 0.29283 0.0
H320 H 0.7308 0.13209 0.34467 0.0
H321 H 0.79844 0.15243 0.41433 0.0
H322 H 0.77812 0.17437 0.41099 0.0
H323 H 0.79547 0.16674 0.38371 0.0
C324 C 0.76047 0.20723 0.34845 0.0
C325 C 0.76886 0.2049 0.32302 0.0
C326 C 0.75516 0.18832 0.36328 0.0
C327 C 0.75845 0.16671 0.3531 0.0
C328 C 0.76555 0.16437 0.32719 0.0
H329 H 0.77724 0.04692 0.44664 0.0
H330 H 0.78152 0.0785 0.41675 0.0
C331 C 0.7707 0.18329 0.31227 0.0
C332 C 0.7556 0.14661 0.36982 0.0
H333 H 0.77447 0.12224 0.42558 0.0
C334 C 0.74035 0.1299 0.36235 0.0
C335 C 0.76843 0.14354 0.3926 0.0
C336 C 0.7862 0.16009 0.40079 0.0
C337 C 0.73727 0.11042 0.3773 0.0
C338 C 0.74946 0.10779 0.40063 0.0
C339 C 0.76497 0.12434 0.40784 0.0
C340 C 0.74653 0.08801 0.41789 0.0
C341 C 0.72135 0.09264 0.36764 0.0
C342 C 0.72548 0.0829 0.42863 0.0
C343 C 0.72296 0.06476 0.44559 0.0
C344 C 0.74151 0.05152 0.45246 0.0
C345 C 0.7626 0.05674 0.44177 0.0
C346 C 0.76508 0.0748 0.42467 0.0
H347 H 0.71863 0.09401 0.34637 0.0
H348 H 0.72768 0.07557 0.37201 0.0
H349 H 0.70488 0.09476 0.37742 0.0
H350 H 0.71104 0.09317 0.42427 0.0
H351 H 0.7065 0.06134 0.45362 0.0
H352 H 0.78191 0.77446 0.37419 0.0
H353 H 0.81872 0.77108 0.39414 0.0
H354 H 0.84357 0.73706 0.3259 0.0
H355 H 0.80657 0.7408 0.30543 0.0
H356 H 0.8426 0.7313 0.40452 0.0
H357 H 0.8895 0.7886 0.33857 0.0
H358 H 0.85928 0.78847 0.34059 0.0
H359 H 0.87365 0.76656 0.32339 0.0
C360 C 0.79525 0.76648 0.36325 0.0
C361 C 0.79142 0.75818 0.33807 0.0
C362 C 0.81624 0.76444 0.37476 0.0
C363 C 0.83395 0.75412 0.36138 0.0
C364 C 0.8302 0.74543 0.33639 0.0
H365 H 0.95663 0.71276 0.43883 0.0
H366 H 0.92344 0.71429 0.4114 0.0
C367 C 0.80905 0.74739 0.32482 0.0
C368 C 0.85607 0.75218 0.37417 0.0
H369 H 0.91008 0.77124 0.37204 0.0
C370 C 0.85741 0.73989 0.39733 0.0
C371 C 0.87525 0.76367 0.3649 0.0
C372 C 0.87447 0.77773 0.34061 0.0
C373 C 0.87736 0.73886 0.41158 0.0
C374 C 0.89659 0.75021 0.40224 0.0
C375 C 0.89532 0.76246 0.37904 0.0
C376 C 0.91798 0.74982 0.41677 0.0
C377 C 0.87751 0.72615 0.43691 0.0
C378 C 0.92639 0.76949 0.42815 0.0
C379 C 0.94548 0.76872 0.44386 0.0
C380 C 0.95649 0.74825 0.44837 0.0
C381 C 0.94849 0.72879 0.436 0.0
C382 C 0.92947 0.72959 0.42033 0.0
H383 H 0.86029 0.72263 0.44412 0.0
H384 H 0.88618 0.70988 0.43402 0.0
H385 H 0.88669 0.73567 0.45206 0.0
H386 H 0.91778 0.7853 0.42554 0.0
H387 H 0.95122 0.78402 0.45301 0.0
H388 H 0.27805 0.79053 0.36084 0.0
H389 H 0.29134 0.82169 0.38742 0.0
H390 H 0.28768 0.86564 0.32118 0.0
H391 H 0.27291 0.83503 0.2949 0.0
H392 H 0.32573 0.85157 0.38739 0.0
H393 H 0.24521 0.89586 0.37089 0.0
H394 H 0.24973 0.86733 0.36067 0.0
H395 H 0.26078 0.89017 0.34173 0.0
C396 C 0.28003 0.80681 0.35186 0.0
C397 C 0.27387 0.81025 0.32579 0.0
C398 C 0.28788 0.8246 0.36706 0.0
C399 C 0.28996 0.84618 0.3565 0.0
C400 C 0.28565 0.84927 0.32995 0.0
H401 H 0.33646 0.96112 0.45224 0.0
H402 H 0.33634 0.931 0.41948 0.0
C403 C 0.27749 0.83158 0.31481 0.0
C404 C 0.2947 0.86561 0.37382 0.0
H405 H 0.27177 0.91424 0.39672 0.0
C406 C 0.31402 0.86537 0.38934 0.0
C407 C 0.27927 0.8835 0.37659 0.0
C408 C 0.25749 0.88422 0.36179 0.0
C409 C 0.31809 0.88227 0.40787 0.0
C410 C 0.30263 0.9001 0.41059 0.0
C411 C 0.28368 0.90063 0.39455 0.0
C412 C 0.30431 0.91728 0.43149 0.0
C413 C 0.33835 0.88041 0.42511 0.0
C414 C 0.28646 0.9196 0.4491 0.0
C415 C 0.28636 0.93684 0.46737 0.0
C416 C 0.30419 0.9522 0.4687 0.0
C417 C 0.32256 0.94945 0.45177 0.0
C418 C 0.32253 0.93221 0.43312 0.0
H419 H 0.34597 0.86343 0.42425 0.0
H420 H 0.35117 0.89273 0.41871 0.0
H421 H 0.33388 0.88423 0.44561 0.0
H422 H 0.27228 0.90826 0.44837 0.0
H423 H 0.27204 0.93832 0.48028 0.0
H424 H 0.16642 0.7927 0.72734 0.0
H425 H 0.13251 0.79023 0.70092 0.0
H426 H 0.15567 0.72765 0.66863 0.0
H427 H 0.18978 0.73022 0.69444 0.0
H428 H 0.13747 0.78886 0.64525 0.0
H429 H 0.08769 0.71709 0.68254 0.0
H430 H 0.10804 0.73177 0.70212 0.0
H431 H 0.1171 0.71159 0.67839 0.0
C432 C 0.16404 0.77814 0.71507 0.0
C433 C 0.1809 0.76175 0.71285 0.0
C434 C 0.14465 0.77675 0.70003 0.0
C435 C 0.14159 0.75876 0.68287 0.0
C436 C 0.15756 0.74151 0.68205 0.0
H437 H 0.06312 0.72009 0.55254 0.0
H438 H 0.08827 0.72414 0.58939 0.0
C439 C 0.17704 0.74296 0.69694 0.0
C440 C 0.12349 0.75946 0.66332 0.0
H441 H 0.07865 0.7303 0.64016 0.0
C442 C 0.12437 0.77627 0.64429 0.0
C443 C 0.1066 0.74293 0.66211 0.0
C444 C 0.10459 0.7249 0.68249 0.0
C445 C 0.10941 0.77641 0.62333 0.0
C446 C 0.09274 0.75958 0.62178 0.0
C447 C 0.09144 0.74318 0.64134 0.0
C448 C 0.07746 0.75773 0.5992 0.0
C449 C 0.11235 0.79389 0.60242 0.0
C450 C 0.063 0.77532 0.59233 0.0
C451 C 0.04875 0.77317 0.57092 0.0
C452 C 0.04845 0.75323 0.55633 0.0
C453 C 0.06289 0.73567 0.56337 0.0
C454 C 0.07725 0.73792 0.58451 0.0
H455 H 0.12914 0.80192 0.60323 0.0
H456 H 0.11012 0.78646 0.58282 0.0
H457 H 0.09957 0.8072 0.6051 0.0
H458 H 0.06253 0.79059 0.6037 0.0
H459 H 0.03763 0.78689 0.56617 0.0
H460 H 0.30224 0.21245 0.70187 0.0
H461 H 0.31862 0.18022 0.67848 0.0
H462 H 0.25258 0.15943 0.65501 0.0
H463 H 0.23621 0.19115 0.6782 0.0
H464 H 0.28561 0.12505 0.68061 0.0
H465 H 0.31643 0.17169 0.59367 0.0
H466 H 0.32048 0.18281 0.62595 0.0
H467 H 0.29292 0.18206 0.61236 0.0
C468 C 0.29128 0.20096 0.69172 0.0
C469 C 0.26796 0.20452 0.6916 0.0
C470 C 0.30064 0.18266 0.67833 0.0
C471 C 0.28677 0.1676 0.6649 0.0
C472 C 0.26355 0.17096 0.66511 0.0
H473 H 0.26757 0.05314 0.57644 0.0
H474 H 0.26899 0.08447 0.60653 0.0
C475 C 0.25425 0.1892 0.67825 0.0
C476 C 0.29597 0.14802 0.65068 0.0
H477 H 0.31535 0.13228 0.59083 0.0
C478 C 0.2926 0.12661 0.6612 0.0
C479 C 0.30519 0.15013 0.62546 0.0
C480 C 0.30905 0.17286 0.61348 0.0
C481 C 0.29711 0.10721 0.64662 0.0
C482 C 0.30469 0.1093 0.62064 0.0
C483 C 0.30949 0.1307 0.61071 0.0
C484 C 0.30468 0.08983 0.60261 0.0
C485 C 0.29294 0.08463 0.65888 0.0
C486 C 0.32427 0.08263 0.58982 0.0
C487 C 0.32355 0.06452 0.57234 0.0
C488 C 0.30314 0.05358 0.56715 0.0
C489 C 0.28362 0.06105 0.57994 0.0
C490 C 0.2844 0.07893 0.59736 0.0
H491 H 0.2946 0.08546 0.68035 0.0
H492 H 0.2756 0.07914 0.65444 0.0
H493 H 0.30475 0.07182 0.65122 0.0
H494 H 0.34008 0.09098 0.59341 0.0
H495 H 0.33885 0.05927 0.56273 0.0
H496 H 0.81768 0.21125 0.71532 0.0
H497 H 0.85351 0.2173 0.69295 0.0
H498 H 0.82976 0.28093 0.66467 0.0
H499 H 0.79383 0.27492 0.68691 0.0
H500 H 0.84481 0.24926 0.62556 0.0
H501 H 0.90733 0.26119 0.70406 0.0
H502 H 0.88834 0.23801 0.70811 0.0
H503 H 0.87773 0.26614 0.70888 0.0
C504 C 0.82033 0.22679 0.70488 0.0
C505 C 0.80297 0.24263 0.7029 0.0
C506 C 0.84082 0.23025 0.69218 0.0
C507 C 0.84432 0.24959 0.67723 0.0
C508 C 0.82743 0.26594 0.67624 0.0
H509 H 0.95916 0.29335 0.58689 0.0
H510 H 0.928 0.28981 0.61764 0.0
C511 C 0.80699 0.26257 0.68912 0.0
C512 C 0.86448 0.25157 0.6604 0.0
H513 H 0.92158 0.256 0.66128 0.0
C514 C 0.86159 0.25082 0.63336 0.0
C515 C 0.88633 0.25357 0.67064 0.0
C516 C 0.89025 0.25495 0.69951 0.0
C517 C 0.87998 0.25176 0.6163 0.0
C518 C 0.90185 0.25342 0.62652 0.0
C519 C 0.90478 0.25449 0.65354 0.0
C520 C 0.92175 0.25486 0.60925 0.0
C521 C 0.87595 0.25121 0.5874 0.0
C522 C 0.92881 0.23623 0.59466 0.0
C523 C 0.94674 0.23814 0.57712 0.0
C524 C 0.9578 0.25877 0.57374 0.0
C525 C 0.95095 0.27724 0.58888 0.0
C526 C 0.93319 0.27525 0.60654 0.0
H527 H 0.85796 0.25339 0.58259 0.0
H528 H 0.88578 0.26456 0.57754 0.0
H529 H 0.8816 0.23483 0.57949 0.0
H530 H 0.92023 0.22031 0.5966 0.0
H531 H 0.95157 0.2236 0.56579 0.0
H532 H 0.8009 0.81714 0.69571 0.0
H533 H 0.79483 0.85185 0.67127 0.0
H534 H 0.72948 0.82834 0.64857 0.0
H535 H 0.73546 0.79356 0.67281 0.0
H536 H 0.76061 0.84178 0.60661 0.0
H537 H 0.7508 0.90625 0.68406 0.0
H538 H 0.77368 0.88684 0.68742 0.0
H539 H 0.7454 0.87684 0.6897 0.0
C540 C 0.78509 0.81956 0.68587 0.0
C541 C 0.76864 0.80265 0.6862 0.0
C542 C 0.78162 0.83941 0.67203 0.0
C543 C 0.76168 0.84266 0.65823 0.0
C544 C 0.74493 0.82616 0.65923 0.0
H545 H 0.71085 0.95321 0.56782 0.0
H546 H 0.71672 0.92247 0.59842 0.0
C547 C 0.74831 0.80639 0.67324 0.0
C548 C 0.75908 0.86232 0.64096 0.0
H549 H 0.75292 0.91926 0.64065 0.0
C550 C 0.75892 0.85872 0.61402 0.0
C551 C 0.75688 0.88436 0.65076 0.0
C552 C 0.75654 0.88896 0.67957 0.0
C553 C 0.75674 0.87663 0.59657 0.0
C554 C 0.75469 0.89868 0.60634 0.0
C555 C 0.75467 0.90231 0.63328 0.0
C556 C 0.7517 0.91803 0.58872 0.0
C557 C 0.75632 0.8719 0.56778 0.0
C558 C 0.76956 0.92584 0.57336 0.0
C559 C 0.76632 0.94351 0.5559 0.0
C560 C 0.74511 0.95353 0.5534 0.0
C561 C 0.72737 0.9458 0.56913 0.0
C562 C 0.73068 0.9283 0.58671 0.0
H563 H 0.75506 0.85369 0.56351 0.0
H564 H 0.74198 0.88064 0.55861 0.0
H565 H 0.77193 0.87841 0.55871 0.0
H566 H 0.78594 0.91814 0.57476 0.0
H567 H 0.78033 0.94907 0.54411 0.0
H568 H 0.84067 0.76343 0.69468 0.0
H569 H 0.87217 0.74716 0.67082 0.0
H570 H 0.83289 0.68808 0.65481 0.0
H571 H 0.80092 0.70468 0.67776 0.0
H572 H 0.8971 0.70825 0.67432 0.0
H573 H 0.84849 0.71018 0.58227 0.0
H574 H 0.83881 0.72393 0.61145 0.0
H575 H 0.83651 0.69402 0.60827 0.0
C576 C 0.83875 0.74691 0.68622 0.0
C577 C 0.81814 0.73553 0.6878 0.0
C578 C 0.85683 0.73756 0.67271 0.0
C579 C 0.85474 0.71661 0.66052 0.0
C580 C 0.83473 0.70449 0.66357 0.0
H581 H 0.95317 0.67302 0.5411 0.0
H582 H 0.92352 0.66882 0.57428 0.0
C583 C 0.81654 0.71389 0.67701 0.0
C584 C 0.87306 0.7085 0.64326 0.0
H585 H 0.88628 0.70009 0.57929 0.0
C586 C 0.89465 0.70609 0.6536 0.0
C587 C 0.86988 0.70561 0.61619 0.0
C588 C 0.84725 0.7087 0.60374 0.0
C589 C 0.91326 0.7019 0.6375 0.0
C590 C 0.91023 0.70026 0.61035 0.0
C591 C 0.88851 0.70126 0.60015 0.0
C592 C 0.92944 0.70119 0.592 0.0
C593 C 0.93615 0.70006 0.64956 0.0
C594 C 0.94247 0.72071 0.591 0.0
C595 C 0.95902 0.72324 0.57206 0.0
C596 C 0.96305 0.70624 0.55367 0.0
C597 C 0.9505 0.68632 0.5551 0.0
C598 C 0.93359 0.68393 0.57399 0.0
H599 H 0.93502 0.69466 0.67018 0.0
H600 H 0.94686 0.68803 0.6387 0.0
H601 H 0.94441 0.71673 0.64908 0.0
H602 H 0.9393 0.73441 0.60437 0.0
H603 H 0.96846 0.73875 0.57158 0.0
H604 H 0.27249 0.79648 0.6916 0.0
H605 H 0.28259 0.83025 0.66718 0.0
H606 H 0.2313 0.86737 0.70786 0.0
H607 H 0.22139 0.83377 0.73258 0.0
H608 H 0.25093 0.84988 0.63477 0.0
H609 H 0.28342 0.91225 0.70516 0.0
H610 H 0.28249 0.88257 0.71203 0.0
H611 H 0.25756 0.89928 0.71494 0.0
C612 C 0.26401 0.81206 0.6961 0.0
C613 C 0.24615 0.8125 0.71399 0.0
C614 C 0.26965 0.8313 0.68197 0.0
C615 C 0.25773 0.85134 0.68573 0.0
C616 C 0.24096 0.85221 0.70489 0.0
H617 H 0.23089 0.95472 0.57143 0.0
H618 H 0.2283 0.9251 0.60427 0.0
C619 C 0.23525 0.83298 0.71894 0.0
C620 C 0.26065 0.87029 0.66736 0.0
H621 H 0.27258 0.92623 0.66358 0.0
C622 C 0.25585 0.86653 0.64104 0.0
C623 C 0.26705 0.89199 0.67558 0.0
C624 C 0.27313 0.8968 0.70343 0.0
C625 C 0.25687 0.88395 0.62279 0.0
C626 C 0.2626 0.90579 0.63112 0.0
C627 C 0.2679 0.90951 0.65733 0.0
C628 C 0.2638 0.92479 0.61262 0.0
C629 C 0.25198 0.87881 0.59467 0.0
C630 C 0.28449 0.93481 0.60698 0.0
C631 C 0.28603 0.95167 0.58825 0.0
C632 C 0.26685 0.959 0.57491 0.0
C633 C 0.24599 0.94943 0.58125 0.0
C634 C 0.24449 0.93245 0.59994 0.0
H635 H 0.25256 0.86053 0.59059 0.0
H636 H 0.23496 0.88496 0.58985 0.0
H637 H 0.26415 0.88743 0.5817 0.0
H638 H 0.29957 0.92917 0.61661 0.0
H639 H 0.30236 0.95875 0.58398 0.0
H640 H 0.21322 0.29548 0.70536 0.0
H641 H 0.17941 0.31008 0.6838 0.0
H642 H 0.16117 0.24286 0.66146 0.0
H643 H 0.19458 0.22832 0.6827 0.0
H644 H 0.1671 0.30168 0.62744 0.0
H645 H 0.1042 0.2704 0.69824 0.0
H646 H 0.13323 0.27497 0.7066 0.0
H647 H 0.12513 0.25017 0.68916 0.0
C648 C 0.20187 0.28388 0.69597 0.0
C649 C 0.20663 0.26079 0.69552 0.0
C650 C 0.18265 0.29222 0.68363 0.0
C651 C 0.16773 0.27751 0.67119 0.0
C652 C 0.17235 0.25448 0.67111 0.0
H653 H 0.05614 0.2584 0.57688 0.0
H654 H 0.08743 0.25897 0.60688 0.0
C655 C 0.19155 0.24622 0.6831 0.0
C656 C 0.14757 0.2858 0.65743 0.0
H657 H 0.09081 0.27898 0.65563 0.0
C658 C 0.15033 0.29724 0.63382 0.0
C659 C 0.12576 0.27994 0.66583 0.0
C660 C 0.12179 0.26836 0.69146 0.0
C661 C 0.13196 0.30156 0.6175 0.0
C662 C 0.11026 0.29455 0.62527 0.0
C663 C 0.10742 0.28431 0.64962 0.0
C664 C 0.09082 0.29507 0.60729 0.0
C665 C 0.1361 0.31222 0.59136 0.0
C666 C 0.08205 0.31525 0.59759 0.0
C667 C 0.06397 0.315 0.58019 0.0
C668 C 0.05437 0.29455 0.57227 0.0
C669 C 0.06306 0.27448 0.58241 0.0
C670 C 0.08099 0.27476 0.59968 0.0
H671 H 0.15424 0.3134 0.58662 0.0
H672 H 0.12764 0.30252 0.57581 0.0
H673 H 0.12903 0.32942 0.59136 0.0
H674 H 0.08913 0.33116 0.60351 0.0
H675 H 0.05765 0.33076 0.57283 0.0
H676 H 0.7173 0.18113 0.72609 0.0
H677 H 0.70154 0.14843 0.70332 0.0
H678 H 0.73959 0.16573 0.63477 0.0
H679 H 0.75479 0.19839 0.65693 0.0
H680 H 0.69445 0.15422 0.62491 0.0
H681 H 0.73802 0.09102 0.68623 0.0
H682 H 0.72077 0.11158 0.70228 0.0
H683 H 0.74607 0.12018 0.6862 0.0
C684 C 0.72216 0.17795 0.70613 0.0
C685 C 0.73759 0.19208 0.69345 0.0
C686 C 0.71326 0.15925 0.69321 0.0
C687 C 0.71962 0.15455 0.66746 0.0
C688 C 0.73453 0.169 0.65467 0.0
H689 H 0.74178 0.04965 0.5654 0.0
H690 H 0.74 0.07832 0.59899 0.0
C691 C 0.74339 0.18753 0.66747 0.0
C692 C 0.71153 0.13439 0.6535 0.0
H693 H 0.72023 0.078 0.64866 0.0
C694 C 0.69962 0.13745 0.63033 0.0
C695 C 0.71843 0.11261 0.66066 0.0
C696 C 0.73163 0.10847 0.68511 0.0
C697 C 0.69563 0.11951 0.61329 0.0
C698 C 0.70349 0.0979 0.61984 0.0
C699 C 0.71418 0.0946 0.64377 0.0
C700 C 0.7038 0.07937 0.60062 0.0
C701 C 0.68447 0.12412 0.5876 0.0
C702 C 0.68397 0.07021 0.59055 0.0
C703 C 0.68491 0.05377 0.57109 0.0
C704 C 0.70571 0.04623 0.5615 0.0
C705 C 0.72547 0.0551 0.57219 0.0
C706 C 0.7245 0.07145 0.59152 0.0
H707 H 0.68235 0.14235 0.58397 0.0
H708 H 0.69441 0.11681 0.57139 0.0
H709 H 0.66765 0.11619 0.58744 0.0
H710 H 0.66781 0.07589 0.59757 0.0
H711 H 0.66939 0.04717 0.56338 0.0
H712 H 0.81346 0.30004 0.31533 0.0
H713 H 0.84369 0.31751 0.34102 0.0
H714 H 0.8708 0.25204 0.35714 0.0
H715 H 0.84087 0.23473 0.33194 0.0
H716 H 0.85323 0.30664 0.39645 0.0
H717 H 0.92538 0.29002 0.3313 0.0
H718 H 0.8968 0.29091 0.31984 0.0
H719 H 0.90737 0.26614 0.33543 0.0
C720 C 0.8261 0.28953 0.32413 0.0
C721 C 0.82486 0.26608 0.32179 0.0
C722 C 0.84326 0.29946 0.33881 0.0
C723 C 0.85959 0.28606 0.35077 0.0
C724 C 0.85857 0.26272 0.34783 0.0
H725 H 0.9568 0.26414 0.45887 0.0
H726 H 0.9291 0.26749 0.42475 0.0
C727 C 0.8414 0.25284 0.33355 0.0
C728 C 0.87717 0.2958 0.36769 0.0
H729 H 0.93372 0.29413 0.37691 0.0
C730 C 0.87089 0.30461 0.39195 0.0
C731 C 0.90016 0.29315 0.36173 0.0
C732 C 0.90788 0.28474 0.33555 0.0
C733 C 0.88697 0.30899 0.41124 0.0
C734 C 0.90982 0.3046 0.40593 0.0
C735 C 0.91618 0.29744 0.38098 0.0
C736 C 0.92675 0.30359 0.42693 0.0
C737 C 0.87933 0.31657 0.43779 0.0
C738 C 0.93472 0.32288 0.4396 0.0
C739 C 0.95081 0.32105 0.45936 0.0
C740 C 0.95904 0.29989 0.46673 0.0
C741 C 0.95088 0.28073 0.45387 0.0
C742 C 0.93503 0.28258 0.43423 0.0
H743 H 0.86082 0.31813 0.43917 0.0
H744 H 0.88509 0.30451 0.45274 0.0
H745 H 0.88692 0.3331 0.44232 0.0
H746 H 0.92863 0.33929 0.4341 0.0
H747 H 0.95676 0.33613 0.46882 0.0
H748 H 0.69375 0.78958 0.34144 0.0
H749 H 0.67757 0.82393 0.35959 0.0
H750 H 0.7354 0.86121 0.3335 0.0
H751 H 0.7511 0.82726 0.31442 0.0
H752 H 0.69633 0.8455 0.39854 0.0
H753 H 0.68743 0.90574 0.31826 0.0
H754 H 0.69121 0.8761 0.31259 0.0
H755 H 0.71506 0.89406 0.31802 0.0
C756 C 0.70258 0.80527 0.33868 0.0
C757 C 0.72378 0.80568 0.32663 0.0
C758 C 0.69338 0.82487 0.34922 0.0
C759 C 0.70515 0.84525 0.34777 0.0
C760 C 0.7257 0.84588 0.3344 0.0
H761 H 0.73327 0.95952 0.43392 0.0
H762 H 0.72849 0.92901 0.40287 0.0
C763 C 0.73483 0.82636 0.32377 0.0
C764 C 0.69787 0.86497 0.36335 0.0
H765 H 0.69376 0.92205 0.36125 0.0
C766 C 0.69511 0.86216 0.39027 0.0
C767 C 0.69625 0.88674 0.35262 0.0
C768 C 0.69741 0.89078 0.32373 0.0
C769 C 0.69248 0.88064 0.4069 0.0
C770 C 0.69247 0.90247 0.39631 0.0
C771 C 0.69388 0.90526 0.3693 0.0
C772 C 0.69395 0.92249 0.41324 0.0
C773 C 0.69123 0.87682 0.43585 0.0
C774 C 0.67591 0.92923 0.429 0.0
C775 C 0.67855 0.94681 0.44683 0.0
C776 C 0.69935 0.95773 0.44925 0.0
C777 C 0.71708 0.95136 0.43273 0.0
C778 C 0.71437 0.93399 0.41486 0.0
H779 H 0.69347 0.85891 0.44108 0.0
H780 H 0.70427 0.88687 0.44585 0.0
H781 H 0.67466 0.88243 0.44326 0.0
H782 H 0.65998 0.92057 0.42791 0.0
H783 H 0.66457 0.95134 0.45926 0.0
H784 H 0.18764 0.76178 0.29466 0.0
H785 H 0.15561 0.74837 0.32011 0.0
H786 H 0.20002 0.72886 0.38186 0.0
H787 H 0.23216 0.74244 0.35659 0.0
H788 H 0.14305 0.70784 0.34347 0.0
H789 H 0.15868 0.77421 0.41702 0.0
H790 H 0.17276 0.77373 0.38596 0.0
H791 H 0.1818 0.75552 0.41164 0.0
C792 C 0.19066 0.75418 0.31342 0.0
C793 C 0.21244 0.75335 0.3237 0.0
C794 C 0.17231 0.74659 0.32798 0.0
C795 C 0.17536 0.73801 0.3531 0.0
C796 C 0.19721 0.73587 0.36276 0.0
H797 H 0.06612 0.68432 0.45145 0.0
H798 H 0.09957 0.6868 0.4236 0.0
C799 C 0.21556 0.74359 0.34829 0.0
C800 C 0.15558 0.73291 0.36977 0.0
H801 H 0.12882 0.74944 0.42537 0.0
C802 C 0.13996 0.71682 0.36146 0.0
C803 C 0.15143 0.74487 0.39307 0.0
C804 C 0.16691 0.76319 0.40241 0.0
C805 C 0.12025 0.71248 0.37575 0.0
C806 C 0.11622 0.72437 0.39912 0.0
C807 C 0.13198 0.74024 0.40753 0.0
C808 C 0.09514 0.72191 0.4144 0.0
C809 C 0.10355 0.69581 0.3653 0.0
C810 C 0.08156 0.74077 0.41855 0.0
C811 C 0.06267 0.73946 0.43455 0.0
C812 C 0.05683 0.71922 0.44686 0.0
C813 C 0.07007 0.70012 0.44215 0.0
C814 C 0.08915 0.70149 0.42615 0.0
H815 H 0.1068 0.69174 0.34456 0.0
H816 H 0.10467 0.68006 0.37664 0.0
H817 H 0.0862 0.70233 0.36725 0.0
H818 H 0.0858 0.75669 0.40968 0.0
H819 H 0.05283 0.75449 0.43759 0.0
H820 H 0.22859 0.15417 0.27998 0.0
H821 H 0.23696 0.12326 0.30975 0.0
H822 H 0.26422 0.17033 0.36484 0.0
H823 H 0.25553 0.20127 0.33535 0.0
H824 H 0.27424 0.10649 0.33614 0.0
H825 H 0.21155 0.14233 0.40433 0.0
H826 H 0.2147 0.15207 0.37135 0.0
H827 H 0.23369 0.16147 0.39612 0.0
C828 C 0.23704 0.15781 0.29808 0.0
C829 C 0.24131 0.18009 0.30546 0.0
C830 C 0.24165 0.14018 0.31515 0.0
C831 C 0.25063 0.14459 0.33979 0.0
C832 C 0.25676 0.16663 0.34619 0.0
H833 H 0.29937 0.05276 0.45577 0.0
H834 H 0.29464 0.07938 0.4204 0.0
C835 C 0.252 0.18425 0.32925 0.0
C836 C 0.25197 0.12653 0.35954 0.0
H837 H 0.23329 0.11196 0.42004 0.0
C838 C 0.26525 0.10762 0.35445 0.0
C839 C 0.23975 0.12776 0.38316 0.0
C840 C 0.22393 0.14687 0.38902 0.0
C841 C 0.26723 0.09025 0.37273 0.0
C842 C 0.25593 0.09207 0.39692 0.0
C843 C 0.24211 0.11066 0.40163 0.0
C844 C 0.2587 0.07527 0.41795 0.0
C845 C 0.28119 0.07001 0.36581 0.0
C846 C 0.23996 0.06453 0.42897 0.0
C847 C 0.24256 0.04941 0.44955 0.0
C848 C 0.26397 0.04483 0.45953 0.0
C849 C 0.28264 0.05572 0.44847 0.0
C850 C 0.28002 0.07085 0.42805 0.0
H851 H 0.28266 0.06787 0.34443 0.0
H852 H 0.29833 0.07224 0.37364 0.0
H853 H 0.27395 0.05447 0.37423 0.0
H854 H 0.22331 0.06784 0.42163 0.0
H855 H 0.22784 0.04136 0.45762 0.0
H856 H 0.70199 0.72746 0.84252 0.0
H857 H 0.67055 0.744 0.86605 0.0
H858 H 0.67664 0.8043 0.82061 0.0
H859 H 0.70875 0.78799 0.79706 0.0
H860 H 0.67164 0.7982 0.88979 0.0
H861 H 0.60765 0.76801 0.8195 0.0
H862 H 0.63214 0.75109 0.82541 0.0
H863 H 0.63503 0.77739 0.80897 0.0
C864 C 0.69703 0.74442 0.83777 0.0
C865 C 0.70814 0.7565 0.81806 0.0
C866 C 0.67893 0.75377 0.85116 0.0
C867 C 0.67139 0.77535 0.84512 0.0
C868 C 0.68232 0.78761 0.82556 0.0
H869 H 0.56317 0.8323 0.94459 0.0
H870 H 0.59462 0.83182 0.91349 0.0
C871 C 0.70055 0.77823 0.81207 0.0
C872 C 0.65162 0.7844 0.85908 0.0
H873 H 0.59458 0.78078 0.86027 0.0
C874 C 0.65473 0.79495 0.88316 0.0
C875 C 0.6297 0.7799 0.85034 0.0
C876 C 0.62571 0.76853 0.82461 0.0
C877 C 0.6364 0.80009 0.8994 0.0
C878 C 0.61446 0.79462 0.89118 0.0
C879 C 0.61138 0.78506 0.8665 0.0
C880 C 0.59492 0.79573 0.90914 0.0
C881 C 0.64072 0.80996 0.9259 0.0
C882 C 0.58439 0.77572 0.91656 0.0
C883 C 0.56653 0.77594 0.9341 0.0
C884 C 0.55862 0.79623 0.94469 0.0
C885 C 0.56889 0.81639 0.93688 0.0
C886 C 0.58691 0.81614 0.91922 0.0
H887 H 0.65885 0.81035 0.93066 0.0
H888 H 0.63426 0.82739 0.92656 0.0
H889 H 0.63177 0.80018 0.94109 0.0
H890 H 0.59026 0.75978 0.90905 0.0
H891 H 0.55905 0.76006 0.93952 0.0
H892 H 0.20571 0.70227 0.82105 0.0
H893 H 0.18853 0.67187 0.84688 0.0
H894 H 0.25419 0.64535 0.86295 0.0
H895 H 0.27124 0.67526 0.83739 0.0
H896 H 0.21905 0.61288 0.84585 0.0
H897 H 0.19467 0.66742 0.92943 0.0
H898 H 0.18747 0.67558 0.89681 0.0
H899 H 0.2162 0.67597 0.90673 0.0
C900 C 0.21636 0.68982 0.83 0.0
C901 C 0.2398 0.69127 0.82755 0.0
C902 C 0.20658 0.67258 0.84479 0.0
C903 C 0.22014 0.65652 0.85699 0.0
C904 C 0.24344 0.65763 0.8538 0.0
H905 H 0.24387 0.55233 0.95692 0.0
H906 H 0.24026 0.58098 0.92371 0.0
C907 C 0.25316 0.6748 0.83931 0.0
C908 C 0.21068 0.63857 0.87364 0.0
H909 H 0.1944 0.62848 0.93626 0.0
C910 C 0.21308 0.61628 0.8654 0.0
C911 C 0.20284 0.64305 0.89908 0.0
C912 C 0.20011 0.66676 0.90877 0.0
C913 C 0.20921 0.59836 0.88247 0.0
C914 C 0.20317 0.60288 0.90855 0.0
C915 C 0.19908 0.62509 0.91625 0.0
C916 C 0.20452 0.58523 0.92875 0.0
C917 C 0.21266 0.57473 0.87279 0.0
C918 C 0.18564 0.57841 0.9431 0.0
C919 C 0.18763 0.56182 0.96231 0.0
C920 C 0.20861 0.55213 0.96766 0.0
C921 C 0.22744 0.55935 0.95339 0.0
C922 C 0.2254 0.57567 0.93422 0.0
H923 H 0.21024 0.5736 0.85144 0.0
H924 H 0.23007 0.56943 0.87709 0.0
H925 H 0.20099 0.56288 0.88253 0.0
H926 H 0.1694 0.58577 0.93931 0.0
H927 H 0.17282 0.55669 0.973 0.0
H928 H 0.34026 0.25262 0.79206 0.0
H929 H 0.3731 0.24406 0.8193 0.0
H930 H 0.34143 0.27719 0.88426 0.0
H931 H 0.30891 0.2855 0.85759 0.0
H932 H 0.40097 0.27674 0.84844 0.0
H933 H 0.35929 0.21428 0.91204 0.0
H934 H 0.34849 0.22192 0.88055 0.0
H935 H 0.34368 0.23978 0.90817 0.0
C936 C 0.34036 0.25791 0.81219 0.0
C937 C 0.32215 0.26992 0.82262 0.0
C938 C 0.35908 0.25312 0.82766 0.0
C939 C 0.35959 0.2599 0.85383 0.0
C940 C 0.34131 0.27165 0.86421 0.0
H941 H 0.46231 0.28346 0.96812 0.0
H942 H 0.43425 0.2863 0.93365 0.0
C943 C 0.32282 0.27653 0.84885 0.0
C944 C 0.37916 0.25525 0.87063 0.0
H945 H 0.39332 0.23024 0.92782 0.0
C946 C 0.39947 0.26632 0.86561 0.0
C947 C 0.37717 0.24155 0.89292 0.0
C948 C 0.35605 0.22852 0.89868 0.0
C949 C 0.41759 0.26474 0.8829 0.0
C950 C 0.41516 0.25201 0.90594 0.0
C951 C 0.39512 0.24023 0.91034 0.0
C952 C 0.43305 0.25064 0.92588 0.0
C953 C 0.43915 0.27672 0.87633 0.0
C954 C 0.44141 0.22966 0.93335 0.0
C955 C 0.4572 0.22798 0.95318 0.0
C956 C 0.465 0.24725 0.96612 0.0
C957 C 0.45674 0.26831 0.95851 0.0
C958 C 0.44083 0.26996 0.93865 0.0
H959 H 0.44053 0.28017 0.85518 0.0
H960 H 0.43957 0.29302 0.88671 0.0
H961 H 0.45392 0.26676 0.88243 0.0
H962 H 0.43559 0.21452 0.9239 0.0
H963 H 0.4632 0.21147 0.95844 0.0
H964 H 0.7719 0.30827 0.80968 0.0
H965 H 0.78085 0.34272 0.83386 0.0
H966 H 0.71497 0.3419 0.86857 0.0
H967 H 0.70585 0.30792 0.8444 0.0
H968 H 0.72947 0.38472 0.84736 0.0
H969 H 0.79141 0.34608 0.91432 0.0
H970 H 0.79528 0.34126 0.88007 0.0
H971 H 0.77137 0.32956 0.89637 0.0
C972 C 0.75937 0.31549 0.82246 0.0
C973 C 0.7383 0.30521 0.82543 0.0
C974 C 0.76452 0.33506 0.83633 0.0
C975 C 0.74863 0.34467 0.8532 0.0
C976 C 0.7275 0.33466 0.85579 0.0
H977 H 0.73222 0.45558 0.95925 0.0
H978 H 0.72742 0.42444 0.92883 0.0
C979 C 0.7224 0.31513 0.84212 0.0
C980 C 0.75372 0.36521 0.86829 0.0
H981 H 0.78385 0.38445 0.9199 0.0
C982 C 0.74147 0.38475 0.86312 0.0
C983 C 0.76939 0.36515 0.88877 0.0
C984 C 0.78258 0.3444 0.89546 0.0
C985 C 0.74437 0.40426 0.87803 0.0
C986 C 0.75954 0.40402 0.89907 0.0
C987 C 0.77217 0.3846 0.90383 0.0
C988 C 0.76223 0.4235 0.9168 0.0
C989 C 0.73128 0.42498 0.87094 0.0
C990 C 0.78345 0.43305 0.92059 0.0
C991 C 0.78628 0.45068 0.93818 0.0
C992 C 0.76794 0.45911 0.95242 0.0
C993 C 0.74665 0.44962 0.94847 0.0
C994 C 0.74386 0.43189 0.93094 0.0
H995 H 0.72599 0.42461 0.85029 0.0
H996 H 0.71594 0.42586 0.88315 0.0
H997 H 0.74127 0.44042 0.87431 0.0
H998 H 0.79787 0.42678 0.91 0.0
H999 H 0.80292 0.45758 0.94074 0.0
H1000 H 0.70111 0.2577 0.22644 0.0
H1001 H 0.6651 0.25051 0.20477 0.0
H1002 H 0.69157 0.27852 0.13382 0.0
H1003 H 0.72738 0.28528 0.15495 0.0
H1004 H 0.63586 0.28226 0.17886 0.0
H1005 H 0.66743 0.21653 0.11189 0.0
H1006 H 0.68249 0.22508 0.14058 0.0
H1007 H 0.6839 0.24173 0.11153 0.0
C1008 C 0.69923 0.26217 0.20619 0.0
C1009 C 0.71706 0.27221 0.19251 0.0
C1010 C 0.67866 0.25817 0.19388 0.0
C1011 C 0.67572 0.26382 0.16761 0.0
C1012 C 0.6935 0.2738 0.154 0.0
H1013 H 0.55912 0.28487 0.07124 0.0
H1014 H 0.59114 0.28884 0.10048 0.0
C1015 C 0.71392 0.27786 0.16623 0.0
C1016 C 0.65416 0.25955 0.15414 0.0
H1017 H 0.63197 0.23257 0.10168 0.0
C1018 C 0.6349 0.27122 0.16215 0.0
C1019 C 0.65288 0.24498 0.13249 0.0
C1020 C 0.67271 0.23119 0.12372 0.0
C1021 C 0.61459 0.26927 0.14852 0.0
C1022 C 0.61363 0.25553 0.1261 0.0
C1023 C 0.63272 0.24329 0.11868 0.0
C1024 C 0.59313 0.25354 0.10988 0.0
C1025 C 0.59434 0.28187 0.15832 0.0
C1026 C 0.58369 0.23238 0.10515 0.0
C1027 C 0.56554 0.23004 0.08829 0.0
C1028 C 0.55641 0.24881 0.07564 0.0
C1029 C 0.56562 0.27008 0.08075 0.0
C1030 C 0.58386 0.27239 0.09761 0.0
H1031 H 0.59595 0.28626 0.17921 0.0
H1032 H 0.59264 0.29771 0.14723 0.0
H1033 H 0.5788 0.27191 0.15564 0.0
H1034 H 0.59057 0.21758 0.11429 0.0
H1035 H 0.5589 0.2134 0.08488 0.0
H1036 H 0.73572 0.66218 0.23784 0.0
H1037 H 0.74648 0.63182 0.20829 0.0
H1038 H 0.77128 0.68036 0.15314 0.0
H1039 H 0.7601 0.71074 0.18244 0.0
H1040 H 0.74031 0.65313 0.13215 0.0
H1041 H 0.80349 0.60177 0.18341 0.0
H1042 H 0.77859 0.60663 0.20227 0.0
H1043 H 0.79632 0.62986 0.19356 0.0
C1044 C 0.74428 0.66629 0.21986 0.0
C1045 C 0.74713 0.68876 0.2124 0.0
C1046 C 0.7504 0.64893 0.20295 0.0
C1047 C 0.75974 0.65379 0.1785 0.0
C1048 C 0.76407 0.67621 0.17188 0.0
H1049 H 0.80589 0.55943 0.06194 0.0
H1050 H 0.80236 0.58788 0.09578 0.0
C1051 C 0.7578 0.69354 0.18866 0.0
C1052 C 0.76228 0.63595 0.15856 0.0
H1053 H 0.78652 0.58521 0.14607 0.0
C1054 C 0.75055 0.63835 0.13515 0.0
C1055 C 0.77566 0.6167 0.16244 0.0
C1056 C 0.78941 0.61363 0.18668 0.0
C1057 C 0.75169 0.62201 0.11557 0.0
C1058 C 0.76452 0.60243 0.11975 0.0
C1059 C 0.77646 0.6001 0.14304 0.0
C1060 C 0.76641 0.58461 0.09972 0.0
C1061 C 0.73949 0.62609 0.09041 0.0
C1062 C 0.74737 0.5731 0.09087 0.0
C1063 C 0.74928 0.55687 0.07131 0.0
C1064 C 0.77033 0.55172 0.06046 0.0
C1065 C 0.78939 0.563 0.06978 0.0
C1066 C 0.78745 0.57925 0.08921 0.0
H1067 H 0.73538 0.64411 0.08776 0.0
H1068 H 0.74963 0.6204 0.07351 0.0
H1069 H 0.72353 0.61654 0.09053 0.0
H1070 H 0.73101 0.57668 0.09908 0.0
H1071 H 0.73431 0.54837 0.06475 0.0
H1072 H 0.30614 0.80611 0.1842 0.0
H1073 H 0.3364 0.82287 0.15841 0.0
H1074 H 0.37906 0.76678 0.17645 0.0
H1075 H 0.34917 0.75029 0.20287 0.0
H1076 H 0.40228 0.8084 0.17364 0.0
H1077 H 0.34814 0.793 0.08756 0.0
H1078 H 0.33668 0.81063 0.11263 0.0
H1079 H 0.34171 0.7815 0.1191 0.0
C1080 C 0.3222 0.79771 0.18339 0.0
C1081 C 0.32517 0.77671 0.19531 0.0
C1082 C 0.33941 0.80721 0.16842 0.0
C1083 C 0.3598 0.79583 0.16506 0.0
C1084 C 0.36341 0.77579 0.17865 0.0
H1085 H 0.45262 0.76891 0.0496 0.0
H1086 H 0.42355 0.77291 0.08244 0.0
C1087 C 0.34627 0.76632 0.19363 0.0
C1088 C 0.37644 0.80314 0.14526 0.0
H1089 H 0.38492 0.80466 0.0796 0.0
C1090 C 0.39841 0.80809 0.15308 0.0
C1091 C 0.37137 0.80247 0.11842 0.0
C1092 C 0.34827 0.79648 0.10877 0.0
C1093 C 0.41563 0.81149 0.13473 0.0
C1094 C 0.41069 0.80994 0.10798 0.0
C1095 C 0.38855 0.80605 0.10017 0.0
C1096 C 0.42861 0.80846 0.08803 0.0
C1097 C 0.43927 0.8153 0.14395 0.0
C1098 C 0.44107 0.82726 0.08011 0.0
C1099 C 0.45786 0.82508 0.06102 0.0
C1100 C 0.46242 0.80403 0.04979 0.0
C1101 C 0.44971 0.78538 0.05784 0.0
C1102 C 0.43301 0.78761 0.07663 0.0
H1103 H 0.44048 0.81531 0.16547 0.0
H1104 H 0.45045 0.80204 0.13606 0.0
H1105 H 0.44548 0.83164 0.13654 0.0
H1106 H 0.43778 0.84356 0.0886 0.0
H1107 H 0.46735 0.83974 0.05526 0.0
H1108 H 0.21659 0.30057 0.20968 0.0
H1109 H 0.20428 0.3361 0.19029 0.0
H1110 H 0.23931 0.31935 0.11944 0.0
H1111 H 0.25102 0.28382 0.13824 0.0
H1112 H 0.23032 0.37085 0.1723 0.0
H1113 H 0.17854 0.33799 0.09219 0.0
H1114 H 0.18716 0.32079 0.11919 0.0
H1115 H 0.20587 0.32553 0.09218 0.0
C1116 C 0.22138 0.30437 0.18985 0.0
C1117 C 0.23491 0.28941 0.17558 0.0
C1118 C 0.21441 0.32469 0.17883 0.0
C1119 C 0.22057 0.33025 0.15325 0.0
C1120 C 0.23393 0.31526 0.13899 0.0
H1121 H 0.24781 0.45087 0.07452 0.0
H1122 H 0.24598 0.41786 0.10207 0.0
C1123 C 0.2409 0.29506 0.14994 0.0
C1124 C 0.21432 0.35221 0.1417 0.0
H1125 H 0.19271 0.37568 0.08676 0.0
C1126 C 0.22173 0.37194 0.15383 0.0
C1127 C 0.20272 0.35375 0.11784 0.0
C1128 C 0.1929 0.33338 0.10475 0.0
C1129 C 0.21919 0.39296 0.1419 0.0
C1130 C 0.20932 0.39424 0.11698 0.0
C1131 C 0.20055 0.37471 0.10569 0.0
C1132 C 0.20984 0.41519 0.10134 0.0
C1133 C 0.22748 0.41355 0.15593 0.0
C1134 C 0.19012 0.42453 0.09118 0.0
C1135 C 0.19111 0.44351 0.0751 0.0
C1136 C 0.21187 0.4533 0.0687 0.0
C1137 C 0.23151 0.4439 0.07907 0.0
C1138 C 0.2305 0.42506 0.09507 0.0
H1139 H 0.22716 0.41108 0.17731 0.0
H1140 H 0.24509 0.41688 0.15009 0.0
H1141 H 0.21726 0.4285 0.15112 0.0
H1142 H 0.174 0.41705 0.09554 0.0
H1143 H 0.17568 0.45025 0.06736 0.0
H1144 H 0.31191 0.26383 0.19074 0.0
H1145 H 0.34792 0.25291 0.17188 0.0
H1146 H 0.32176 0.18704 0.15546 0.0
H1147 H 0.28532 0.19816 0.17326 0.0
H1148 H 0.37863 0.21993 0.18207 0.0
H1149 H 0.34183 0.20765 0.08403 0.0
H1150 H 0.32653 0.22071 0.11026 0.0
H1151 H 0.32965 0.19076 0.10925 0.0
C1152 C 0.31378 0.247 0.18313 0.0
C1153 C 0.29556 0.23201 0.18318 0.0
C1154 C 0.33445 0.24073 0.17249 0.0
C1155 C 0.33743 0.21931 0.1617 0.0
C1156 C 0.31972 0.20383 0.16312 0.0
H1157 H 0.45263 0.175 0.06637 0.0
H1158 H 0.41921 0.17349 0.09444 0.0
C1159 C 0.29896 0.21013 0.17364 0.0
C1160 C 0.35875 0.21379 0.14799 0.0
H1161 H 0.38057 0.20163 0.08805 0.0
C1162 C 0.37903 0.21573 0.16156 0.0
C1163 C 0.35931 0.2083 0.1212 0.0
C1164 C 0.33822 0.20689 0.10521 0.0
C1165 C 0.39979 0.2128 0.14899 0.0
C1166 C 0.40033 0.208 0.12208 0.0
C1167 C 0.38009 0.2052 0.10871 0.0
C1168 C 0.42158 0.20805 0.10691 0.0
C1169 C 0.42101 0.21516 0.16454 0.0
C1170 C 0.43395 0.22794 0.10462 0.0
C1171 C 0.45284 0.2289 0.08855 0.0
C1172 C 0.45986 0.20996 0.07436 0.0
C1173 C 0.44776 0.18984 0.07714 0.0
C1174 C 0.42865 0.18896 0.09312 0.0
H1175 H 0.41792 0.2123 0.18557 0.0
H1176 H 0.43402 0.2032 0.15767 0.0
H1177 H 0.42767 0.23241 0.16217 0.0
H1178 H 0.4286 0.24298 0.11469 0.0
H1179 H 0.46173 0.24467 0.08689 0.0
H1180 H 0.75766 0.34437 0.2059 0.0
H1181 H 0.77413 0.37496 0.18064 0.0
H1182 H 0.83107 0.33339 0.16207 0.0
H1183 H 0.81435 0.30244 0.1866 0.0
H1184 H 0.81552 0.39877 0.17908 0.0
H1185 H 0.802 0.34585 0.09124 0.0
H1186 H 0.79013 0.33879 0.12244 0.0
H1187 H 0.81939 0.33417 0.11618 0.0
C1188 C 0.77386 0.34186 0.19678 0.0
C1189 C 0.78452 0.32087 0.19794 0.0
C1190 C 0.78332 0.35939 0.18248 0.0
C1191 C 0.80361 0.35629 0.16907 0.0
C1192 C 0.81522 0.33601 0.17196 0.0
H1193 H 0.84781 0.46252 0.05823 0.0
H1194 H 0.8518 0.43293 0.0913 0.0
C1195 C 0.80574 0.31841 0.18622 0.0
C1196 C 0.81098 0.37333 0.14987 0.0
H1197 H 0.81326 0.38294 0.0845 0.0
C1198 C 0.81555 0.39522 0.15842 0.0
C1199 C 0.81076 0.36868 0.12288 0.0
C1200 C 0.80517 0.34567 0.11248 0.0
C1201 C 0.81903 0.41276 0.14062 0.0
C1202 C 0.81788 0.40822 0.11374 0.0
C1203 C 0.81438 0.3862 0.10519 0.0
C1204 C 0.81623 0.42647 0.09443 0.0
C1205 C 0.82251 0.4363 0.15048 0.0
C1206 C 0.795 0.43242 0.08538 0.0
C1207 C 0.79266 0.44912 0.06674 0.0
C1208 C 0.81156 0.46025 0.05655 0.0
C1209 C 0.83294 0.45426 0.06566 0.0
C1210 C 0.83526 0.43745 0.08454 0.0
H1211 H 0.82395 0.43695 0.17198 0.0
H1212 H 0.83795 0.44349 0.14171 0.0
H1213 H 0.80823 0.44698 0.14446 0.0
H1214 H 0.78015 0.42407 0.09276 0.0
H1215 H 0.77593 0.4532 0.06024 0.0
H1216 H 0.70745 0.75815 0.18116 0.0
H1217 H 0.6769 0.76645 0.15116 0.0
H1218 H 0.62932 0.73899 0.20588 0.0
H1219 H 0.65984 0.731 0.23612 0.0
H1220 H 0.65171 0.73298 0.13033 0.0
H1221 H 0.59658 0.79446 0.18023 0.0
H1222 H 0.62499 0.78915 0.19043 0.0
H1223 H 0.6029 0.77008 0.19926 0.0
C1224 C 0.69038 0.75457 0.18709 0.0
C1225 C 0.68596 0.744 0.21094 0.0
C1226 C 0.67296 0.75921 0.16992 0.0
C1227 C 0.65082 0.75336 0.17626 0.0
C1228 C 0.6462 0.74402 0.20074 0.0
H1229 H 0.54902 0.7256 0.05835 0.0
H1230 H 0.57594 0.72213 0.09395 0.0
C1231 C 0.66365 0.73951 0.21804 0.0
C1232 C 0.63318 0.75465 0.15611 0.0
H1233 H 0.58215 0.7773 0.14205 0.0
C1234 C 0.63652 0.74273 0.13286 0.0
C1235 C 0.6134 0.76738 0.15945 0.0
C1236 C 0.60927 0.78117 0.18358 0.0
C1237 C 0.62071 0.74326 0.11281 0.0
C1238 C 0.60075 0.75567 0.1163 0.0
C1239 C 0.59737 0.7676 0.13955 0.0
C1240 C 0.58381 0.75754 0.09543 0.0
C1241 C 0.62582 0.731 0.0878 0.0
C1242 C 0.57894 0.77862 0.08489 0.0
C1243 C 0.56353 0.78065 0.06474 0.0
C1244 C 0.55259 0.76165 0.05468 0.0
C1245 C 0.55728 0.74053 0.06548 0.0
C1246 C 0.5727 0.73852 0.08577 0.0
H1247 H 0.6439 0.72684 0.08597 0.0
H1248 H 0.61622 0.71508 0.08736 0.0
H1249 H 0.62084 0.74115 0.07072 0.0
H1250 H 0.5873 0.7935 0.09205 0.0
H1251 H 0.5603 0.7972 0.05696 0.0
H1252 H 0.28911 0.71874 0.15406 0.0
H1253 H 0.28173 0.6828 0.13325 0.0
H1254 H 0.25636 0.6565 0.20559 0.0
H1255 H 0.26416 0.69264 0.22693 0.0
H1256 H 0.28746 0.62729 0.17725 0.0
H1257 H 0.21846 0.65878 0.11556 0.0
H1258 H 0.24346 0.67551 0.11386 0.0
H1259 H 0.22816 0.67364 0.14396 0.0
C1260 C 0.28218 0.70528 0.16571 0.0
C1261 C 0.2774 0.7085 0.19225 0.0
C1262 C 0.27777 0.6848 0.15368 0.0
C1263 C 0.26831 0.66707 0.16779 0.0
C1264 C 0.26361 0.67004 0.19435 0.0
H1265 H 0.21584 0.55102 0.08474 0.0
H1266 H 0.2206 0.58186 0.11543 0.0
C1267 C 0.26796 0.69068 0.20646 0.0
C1268 C 0.26348 0.64554 0.15447 0.0
H1269 H 0.23434 0.62358 0.10355 0.0
C1270 C 0.27566 0.62634 0.16133 0.0
C1271 C 0.24791 0.64431 0.13391 0.0
C1272 C 0.23357 0.66409 0.12649 0.0
C1273 C 0.27329 0.60614 0.14746 0.0
C1274 C 0.25858 0.60527 0.12599 0.0
C1275 C 0.24579 0.62427 0.11984 0.0
C1276 C 0.25633 0.58506 0.10925 0.0
C1277 C 0.28653 0.58594 0.15596 0.0
C1278 C 0.27488 0.57643 0.09562 0.0
C1279 C 0.27224 0.55866 0.07806 0.0
C1280 C 0.25094 0.54937 0.07357 0.0
C1281 C 0.23249 0.55779 0.08763 0.0
C1282 C 0.23516 0.57544 0.10523 0.0
H1283 H 0.29155 0.58728 0.17666 0.0
H1284 H 0.27677 0.57026 0.1533 0.0
H1285 H 0.30203 0.58473 0.14405 0.0
H1286 H 0.2913 0.58388 0.09792 0.0
H1287 H 0.28677 0.55268 0.06746 0.0
H1288 H 0.28716 0.75666 0.85786 0.0
H1289 H 0.32215 0.76411 0.88095 0.0
H1290 H 0.35985 0.73994 0.8149 0.0
H1291 H 0.32487 0.73306 0.79153 0.0
H1292 H 0.35112 0.73268 0.89494 0.0
H1293 H 0.39549 0.79482 0.83348 0.0
H1294 H 0.36615 0.78844 0.82944 0.0
H1295 H 0.38721 0.77021 0.81591 0.0
C1296 C 0.30296 0.75352 0.84806 0.0
C1297 C 0.30335 0.74442 0.82288 0.0
C1298 C 0.32292 0.75769 0.86127 0.0
C1299 C 0.34368 0.75272 0.84964 0.0
C1300 C 0.34411 0.74441 0.82409 0.0
H1301 H 0.4629 0.72583 0.9434 0.0
H1302 H 0.43094 0.72218 0.91399 0.0
C1303 C 0.32412 0.74047 0.81074 0.0
C1304 C 0.36455 0.75427 0.86519 0.0
H1305 H 0.41698 0.77724 0.86661 0.0
C1306 C 0.36549 0.74251 0.88878 0.0
C1307 C 0.38327 0.76715 0.85721 0.0
C1308 C 0.38296 0.78105 0.83275 0.0
C1309 C 0.38451 0.74332 0.90466 0.0
C1310 C 0.40346 0.75573 0.89638 0.0
C1311 C 0.40255 0.7675 0.87279 0.0
C1312 C 0.42385 0.75776 0.91267 0.0
C1313 C 0.38382 0.73142 0.93052 0.0
C1314 C 0.43106 0.77899 0.92085 0.0
C1315 C 0.44946 0.78113 0.93731 0.0
C1316 C 0.46106 0.76207 0.94604 0.0
C1317 C 0.45421 0.74082 0.93725 0.0
C1318 C 0.43587 0.73871 0.92055 0.0
H1319 H 0.36636 0.72782 0.93685 0.0
H1320 H 0.39277 0.71519 0.92877 0.0
H1321 H 0.39213 0.74153 0.94583 0.0
H1322 H 0.42211 0.79392 0.91497 0.0
H1323 H 0.45427 0.79777 0.94364 0.0
H1324 H 0.24305 0.3069 0.83971 0.0
H1325 H 0.23531 0.34077 0.86466 0.0
H1326 H 0.27138 0.38008 0.8078 0.0
H1327 H 0.28043 0.34565 0.78379 0.0
H1328 H 0.28616 0.39034 0.85165 0.0
H1329 H 0.19462 0.39197 0.86328 0.0
H1330 H 0.2046 0.3653 0.87402 0.0
H1331 H 0.20813 0.37338 0.84044 0.0
C1332 C 0.24851 0.32292 0.83204 0.0
C1333 C 0.26192 0.32384 0.80962 0.0
C1334 C 0.24405 0.34236 0.84629 0.0
C1335 C 0.25239 0.36323 0.83802 0.0
C1336 C 0.26465 0.36427 0.81461 0.0
H1337 H 0.21898 0.47658 0.93946 0.0
H1338 H 0.2215 0.4514 0.90209 0.0
C1339 C 0.2696 0.34469 0.80069 0.0
C1340 C 0.25087 0.38314 0.8555 0.0
H1341 H 0.21582 0.41015 0.89771 0.0
C1342 C 0.27063 0.39495 0.86129 0.0
C1343 C 0.23065 0.38962 0.8679 0.0
C1344 C 0.20831 0.37952 0.8608 0.0
C1345 C 0.27093 0.41226 0.8798 0.0
C1346 C 0.25115 0.41723 0.89399 0.0
C1347 C 0.23117 0.40613 0.88737 0.0
C1348 C 0.25073 0.4336 0.91594 0.0
C1349 C 0.29246 0.42511 0.8836 0.0
C1350 C 0.26635 0.43222 0.93629 0.0
C1351 C 0.26532 0.44712 0.95731 0.0
C1352 C 0.24813 0.4631 0.95888 0.0
C1353 C 0.23238 0.46434 0.93875 0.0
C1354 C 0.23379 0.44991 0.9174 0.0
H1355 H 0.30265 0.42532 0.86547 0.0
H1356 H 0.28926 0.44269 0.88962 0.0
H1357 H 0.3026 0.41674 0.89876 0.0
H1358 H 0.27908 0.41932 0.93627 0.0
H1359 H 0.27748 0.44563 0.97276 0.0
H1360 H 0.66719 0.24211 0.79891 0.0
H1361 H 0.63911 0.22631 0.82858 0.0
H1362 H 0.69149 0.20721 0.88153 0.0
H1363 H 0.71951 0.22372 0.85229 0.0
H1364 H 0.62915 0.18655 0.85513 0.0
H1365 H 0.65668 0.25395 0.92255 0.0
H1366 H 0.66622 0.25245 0.88935 0.0
H1367 H 0.67824 0.23444 0.91355 0.0
C1368 C 0.67273 0.23385 0.81647 0.0
C1369 C 0.69545 0.23426 0.82347 0.0
C1370 C 0.65669 0.22488 0.83345 0.0
C1371 C 0.66316 0.21609 0.85758 0.0
C1372 C 0.68608 0.21438 0.8633 0.0
H1373 H 0.56316 0.17317 0.97594 0.0
H1374 H 0.59381 0.17123 0.94384 0.0
C1375 C 0.70208 0.22364 0.84652 0.0
C1376 C 0.64595 0.21168 0.87792 0.0
H1377 H 0.62727 0.23093 0.93665 0.0
C1378 C 0.62881 0.19606 0.87309 0.0
C1379 C 0.64537 0.22437 0.9012 0.0
C1380 C 0.66246 0.24239 0.90697 0.0
C1381 C 0.61093 0.1931 0.89074 0.0
C1382 C 0.61037 0.20591 0.91388 0.0
C1383 C 0.62782 0.22103 0.91896 0.0
C1384 C 0.59086 0.20588 0.93191 0.0
C1385 C 0.59229 0.17708 0.884 0.0
C1386 C 0.5791 0.22593 0.93589 0.0
C1387 C 0.56192 0.22715 0.95426 0.0
C1388 C 0.55597 0.2083 0.96916 0.0
C1389 C 0.56732 0.18796 0.96473 0.0
C1390 C 0.58474 0.1868 0.94631 0.0
H1391 H 0.59332 0.17133 0.86349 0.0
H1392 H 0.5933 0.16216 0.89678 0.0
H1393 H 0.57572 0.18507 0.88729 0.0
H1394 H 0.58347 0.24085 0.92499 0.0
H1395 H 0.55345 0.24304 0.95693 0.0
H1396 H 0.7631 0.6748 0.7909 0.0
H1397 H 0.77843 0.64531 0.81853 0.0
H1398 H 0.79793 0.69492 0.87508 0.0
H1399 H 0.78225 0.72452 0.84766 0.0
H1400 H 0.81921 0.63515 0.84216 0.0
H1401 H 0.75345 0.6562 0.91508 0.0
H1402 H 0.75353 0.6678 0.88277 0.0
H1403 H 0.77207 0.67883 0.90707 0.0
C1404 C 0.77117 0.6795 0.8089 0.0
C1405 C 0.77127 0.70196 0.81725 0.0
C1406 C 0.77988 0.66261 0.82472 0.0
C1407 C 0.78889 0.66786 0.84912 0.0
C1408 C 0.79059 0.69044 0.85659 0.0
H1409 H 0.8397 0.56321 0.95573 0.0
H1410 H 0.83896 0.59551 0.9261 0.0
C1411 C 0.7817 0.70733 0.84089 0.0
C1412 C 0.79436 0.64957 0.86759 0.0
H1413 H 0.77766 0.62658 0.92522 0.0
C1414 C 0.8103 0.63334 0.86045 0.0
C1415 C 0.78248 0.6471 0.8913 0.0
C1416 C 0.76429 0.66326 0.8995 0.0
C1417 C 0.8144 0.61452 0.87619 0.0
C1418 C 0.80242 0.61206 0.89979 0.0
C1419 C 0.78691 0.62857 0.90718 0.0
C1420 C 0.80398 0.59161 0.91611 0.0
C1421 C 0.83078 0.59696 0.86697 0.0
C1422 C 0.78464 0.57874 0.92031 0.0
C1423 C 0.78496 0.56058 0.93728 0.0
C1424 C 0.80467 0.55476 0.95051 0.0
C1425 C 0.82429 0.56721 0.94573 0.0
C1426 C 0.82391 0.58561 0.92875 0.0
H1427 H 0.83551 0.59929 0.84625 0.0
H1428 H 0.84624 0.59798 0.8788 0.0
H1429 H 0.82362 0.5799 0.86944 0.0
H1430 H 0.76909 0.58302 0.91073 0.0
H1431 H 0.76957 0.55129 0.94032 0.0
loop_
_geom_bond_atom_site_label_1
_geom_bond_atom_site_label_2
_geom_bond_distance
_geom_bond_site_symmetry_2
_ccdc_geom_bond_type
H0 C8 0.930 . S
H1 C11 0.930 . S
H2 C13 0.930 . S
H3 C14 0.970 . S
H4 C14 0.970 . S
H5 C16 0.930 . S
H6 C18 0.930 . S
H7 C20 0.930 . S
C8 H0 0.930 . S
C8 C9 1.382 . S
C8 C10 1.426 . S
C9 C8 1.382 . S
C9 C13 1.389 . S
C10 C8 1.426 . S
C10 C11 1.375 . S
C10 C14 1.532 . S
C11 H1 0.930 . S
C11 C10 1.375 . S
C11 C12 1.416 . S
C12 C11 1.416 . S
C12 C13 1.371 . S
C13 H2 0.930 . S
C13 C9 1.389 . S
C13 C12 1.371 . S
C14 H3 0.970 . S
C14 H4 0.970 . S
C14 C10 1.532 . S
C14 C15 1.499 . S
C15 C14 1.499 . S
C15 C16 1.370 . S
C15 C20 1.415 . S
C16 H5 0.930 . S
C16 C15 1.370 . S
C16 C17 1.407 . S
C17 C16 1.407 . S
C17 C18 1.365 . S
C18 H6 0.930 . S
C18 C17 1.365 . S
C18 C19 1.393 . S
C19 C18 1.393 . S
C19 C20 1.387 . S
C20 H7 0.930 . S
C20 C15 1.415 . S
C20 C19 1.387 . S
H21 C29 0.930 . S
H22 C32 0.930 . S
H23 C34 0.930 . S
H24 C35 0.970 . S
H25 C35 0.970 . S
H26 C37 0.930 . S
H27 C39 0.930 . S
H28 C41 0.930 . S
C29 H21 0.930 . S
C29 C30 1.382 . S
C29 C31 1.426 . S
C30 C29 1.382 . S
C30 C34 1.389 . S
C31 C29 1.426 . S
C31 C32 1.375 . S
C31 C35 1.532 . S
C32 H22 0.930 . S
C32 C31 1.375 . S
C32 C33 1.416 . S
C33 C32 1.416 . S
C33 C34 1.371 . S
C34 H23 0.930 . S
C34 C30 1.389 . S
C34 C33 1.371 . S
C35 H24 0.970 . S
C35 H25 0.970 . S
C35 C31 1.532 . S
C35 C36 1.499 . S
C36 C35 1.499 . S
C36 C37 1.370 . S
C36 C41 1.415 . S
C37 H26 0.930 . S
C37 C36 1.370 . S
C37 C38 1.407 . S
C38 C37 1.407 . S
C38 C39 1.365 . S
C39 H27 0.930 . S
C39 C38 1.365 . S
C39 C40 1.393 . S
C40 C39 1.393 . S
C40 C41 1.387 . S
C41 H28 0.930 . S
C41 C36 1.415 . S
C41 C40 1.387 . S
H42 C50 0.930 . S
H43 C53 0.930 . S
H44 C55 0.930 . S
H45 C56 0.970 . S
H46 C56 0.970 . S
H47 C58 0.930 . S
H48 C60 0.930 . S
H49 C62 0.930 . S
C50 H42 0.930 . S
C50 C51 1.382 . S
C50 C52 1.426 . S
C51 C50 1.382 . S
C51 C55 1.389 . S
C52 C50 1.426 . S
C52 C53 1.375 . S
C52 C56 1.532 . S
C53 H43 0.930 . S
C53 C52 1.375 . S
C53 C54 1.416 . S
C54 C53 1.416 . S
C54 C55 1.371 . S
C55 H44 0.930 . S
C55 C51 1.389 . S
C55 C54 1.371 . S
C56 H45 0.970 . S
C56 H46 0.970 . S
C56 C52 1.532 . S
C56 C57 1.499 . S
C57 C56 1.499 . S
C57 C58 1.370 . S
C57 C62 1.415 . S
C58 H47 0.930 . S
C58 C57 1.370 . S
C58 C59 1.407 . S
C59 C58 1.407 . S
C59 C60 1.365 . S
C60 H48 0.930 . S
C60 C59 1.365 . S
C60 C61 1.393 . S
C61 C60 1.393 . S
C61 C62 1.387 . S
C62 H49 0.930 . S
C62 C57 1.415 . S
C62 C61 1.387 . S
H63 C71 0.930 . S
H64 C74 0.930 . S
H65 C76 0.930 . S
H66 C77 0.970 . S
H67 C77 0.970 . S
H68 C79 0.930 . S
H69 C81 0.930 . S
H70 C83 0.930 . S
C71 H63 0.930 . S
C71 C72 1.382 . S
C71 C73 1.426 . S
C72 C71 1.382 . S
C72 C76 1.389 . S
C73 C71 1.426 . S
C73 C74 1.375 . S
C73 C77 1.532 . S
C74 H64 0.930 . S
C74 C73 1.375 . S
C74 C75 1.416 . S
C75 C74 1.416 . S
C75 C76 1.371 . S
C76 H65 0.930 . S
C76 C72 1.389 . S
C76 C75 1.371 . S
C77 H66 0.970 . S
C77 H67 0.970 . S
C77 C73 1.532 . S
C77 C78 1.499 . S
C78 C77 1.499 . S
C78 C79 1.370 . S
C78 C83 1.415 . S
C79 H68 0.930 . S
C79 C78 1.370 . S
C79 C80 1.407 . S
C80 C79 1.407 . S
C80 C81 1.365 . S
C81 H69 0.930 . S
C81 C80 1.365 . S
C81 C82 1.393 . S
C82 C81 1.393 . S
C82 C83 1.387 . S
C83 H70 0.930 . S
C83 C78 1.415 . S
C83 C82 1.387 . S
H84 C92 0.930 . S
H85 C95 0.930 . S
H86 C97 0.930 . S
H87 C98 0.970 . S
H88 C98 0.970 . S
H89 C100 0.930 . S
H90 C102 0.930 . S
H91 C104 0.930 . S
C92 H84 0.930 . S
C92 C93 1.382 . S
C92 C94 1.426 . S
C93 C92 1.382 . S
C93 C97 1.389 . S
C94 C92 1.426 . S
C94 C95 1.375 . S
C94 C98 1.532 . S
C95 H85 0.930 . S
C95 C94 1.375 . S
C95 C96 1.416 . S
C96 C95 1.416 . S
C96 C97 1.371 . S
C97 H86 0.930 . S
C97 C93 1.389 . S
C97 C96 1.371 . S
C98 H87 0.970 . S
C98 H88 0.970 . S
C98 C94 1.532 . S
C98 C99 1.499 . S
C99 C98 1.499 . S
C99 C100 1.370 . S
C99 C104 1.415 . S
C100 H89 0.930 . S
C100 C99 1.370 . S
C100 C101 1.407 . S
C101 C100 1.407 . S
C101 C102 1.365 . S
C102 H90 0.930 . S
C102 C101 1.365 . S
C102 C103 1.393 . S
C103 C102 1.393 . S
C103 C104 1.387 . S
C104 H91 0.930 . S
C104 C99 1.415 . S
C104 C103 1.387 . S
H105 C113 0.930 . S
H106 C116 0.930 . S
H107 C118 0.930 . S
H108 C119 0.970 . S
H109 C119 0.970 . S
H110 C121 0.930 . S
H111 C123 0.930 . S
H112 C125 0.930 . S
C113 H105 0.930 . S
C113 C114 1.382 . S
C113 C115 1.426 . S
C114 C113 1.382 . S
C114 C118 1.389 . S
C115 C113 1.426 . S
C115 C116 1.375 . S
C115 C119 1.532 . S
C116 H106 0.930 . S
C116 C115 1.375 . S
C116 C117 1.416 . S
C117 C116 1.416 . S
C117 C118 1.371 . S
C118 H107 0.930 . S
C118 C114 1.389 . S
C118 C117 1.371 . S
C119 H108 0.970 . S
C119 H109 0.970 . S
C119 C115 1.532 . S
C119 C120 1.499 . S
C120 C119 1.499 . S
C120 C121 1.370 . S
C120 C125 1.415 . S
C121 H110 0.930 . S
C121 C120 1.370 . S
C121 C122 1.407 . S
C122 C121 1.407 . S
C122 C123 1.365 . S
C123 H111 0.930 . S
C123 C122 1.365 . S
C123 C124 1.393 . S
C124 C123 1.393 . S
C124 C125 1.387 . S
C125 H112 0.930 . S
C125 C120 1.415 . S
C125 C124 1.387 . S
H126 C134 0.930 . S
H127 C137 0.930 . S
H128 C139 0.930 . S
H129 C140 0.970 . S
H130 C140 0.970 . S
H131 C142 0.930 . S
H132 C144 0.930 . S
H133 C146 0.930 . S
C134 H126 0.930 . S
C134 C135 1.382 . S
C134 C136 1.426 . S
C135 C134 1.382 . S
C135 C139 1.389 . S
C136 C134 1.426 . S
C136 C137 1.375 . S
C136 C140 1.532 . S
C137 H127 0.930 . S
C137 C136 1.375 . S
C137 C138 1.416 . S
C138 C137 1.416 . S
C138 C139 1.371 . S
C139 H128 0.930 . S
C139 C135 1.389 . S
C139 C138 1.371 . S
C140 H129 0.970 . S
C140 H130 0.970 . S
C140 C136 1.532 . S
C140 C141 1.499 . S
C141 C140 1.499 . S
C141 C142 1.370 . S
C141 C146 1.415 . S
C142 H131 0.930 . S
C142 C141 1.370 . S
C142 C143 1.407 . S
C143 C142 1.407 . S
C143 C144 1.365 . S
C144 H132 0.930 . S
C144 C143 1.365 . S
C144 C145 1.393 . S
C145 C144 1.393 . S
C145 C146 1.387 . S
C146 H133 0.930 . S
C146 C141 1.415 . S
C146 C145 1.387 . S
H147 C155 0.930 . S
H148 C158 0.930 . S
H149 C160 0.930 . S
H150 C161 0.970 . S
H151 C161 0.970 . S
H152 C163 0.930 . S
H153 C165 0.930 . S
H154 C167 0.930 . S
C155 H147 0.930 . S
C155 C156 1.382 . S
C155 C157 1.426 . S
C156 C155 1.382 . S
C156 C160 1.389 . S
C157 C155 1.426 . S
C157 C158 1.375 . S
C157 C161 1.532 . S
C158 H148 0.930 . S
C158 C157 1.375 . S
C158 C159 1.416 . S
C159 C158 1.416 . S
C159 C160 1.371 . S
C160 H149 0.930 . S
C160 C156 1.389 . S
C160 C159 1.371 . S
C161 H150 0.970 . S
C161 H151 0.970 . S
C161 C157 1.532 . S
C161 C162 1.499 . S
C162 C161 1.499 . S
C162 C163 1.370 . S
C162 C167 1.415 . S
C163 H152 0.930 . S
C163 C162 1.370 . S
C163 C164 1.407 . S
C164 C163 1.407 . S
C164 C165 1.365 . S
C165 H153 0.930 . S
C165 C164 1.365 . S
C165 C166 1.393 . S
C166 C165 1.393 . S
C166 C167 1.387 . S
C167 H154 0.930 . S
C167 C162 1.415 . S
C167 C166 1.387 . S
C168 O170 1.247 . S
C168 O172 1.258 . S
C169 O176 1.247 . S
C169 O177 1.258 . S
O170 C168 1.247 . S
O170 Zn171 2.028 1_655 S
Zn171 O170 2.028 1_455 S
Zn171 O175 2.035 . S
Zn171 O177 2.035 . S
Zn171 O178 2.028 1_455 S
O172 C168 1.258 . S
O172 Zn173 2.035 1_655 S
Zn173 O172 2.035 1_455 S
Zn173 O174 2.028 . S
Zn173 O176 2.028 . S
Zn173 O179 2.035 1_455 S
O174 Zn173 2.028 . S
O174 C180 1.247 . S
O175 Zn171 2.035 . S
O175 C180 1.258 . S
O176 C169 1.247 . S
O176 Zn173 2.028 . S
O177 C169 1.258 . S
O177 Zn171 2.035 . S
O178 Zn171 2.028 1_655 S
O178 C181 1.247 . S
O179 Zn173 2.035 1_655 S
O179 C181 1.258 . S
C180 O174 1.247 . S
C180 O175 1.258 . S
C181 O178 1.247 . S
C181 O179 1.258 . S
C182 O184 1.247 . S
C182 O186 1.258 . S
C183 O190 1.247 . S
C183 O191 1.258 . S
O184 C182 1.247 . S
O184 Zn185 2.028 . S
Zn185 O184 2.028 . S
Zn185 O189 2.035 1_545 S
Zn185 O191 2.035 1_545 S
Zn185 O192 2.028 . S
O186 C182 1.258 . S
O186 Zn187 2.035 . S
Zn187 O186 2.035 . S
Zn187 O188 2.028 1_545 S
Zn187 O190 2.028 1_545 S
Zn187 O193 2.035 . S
O188 Zn187 2.028 1_565 S
O188 C194 1.247 . S
O189 Zn185 2.035 1_565 S
O189 C194 1.258 . S
O190 C183 1.247 . S
O190 Zn187 2.028 1_565 S
O191 C183 1.258 . S
O191 Zn185 2.035 1_565 S
O192 Zn185 2.028 . S
O192 C195 1.247 . S
O193 Zn187 2.035 . S
O193 C195 1.258 . S
C194 O188 1.247 . S
C194 O189 1.258 . S
C195 O192 1.247 . S
C195 O193 1.258 . S
C196 O198 1.247 . S
C196 O200 1.258 . S
C197 O204 1.247 . S
C197 O205 1.258 . S
O198 C196 1.247 . S
O198 Zn199 2.028 1_655 S
Zn199 O198 2.028 1_455 S
Zn199 O203 2.035 . S
Zn199 O205 2.035 . S
Zn199 O206 2.028 1_455 S
O200 C196 1.258 . S
O200 Zn201 2.035 1_655 S
Zn201 O200 2.035 1_455 S
Zn201 O202 2.028 . S
Zn201 O204 2.028 . S
Zn201 O207 2.035 1_455 S
O202 Zn201 2.028 . S
O202 C208 1.247 . S
O203 Zn199 2.035 . S
O203 C208 1.258 . S
O204 C197 1.247 . S
O204 Zn201 2.028 . S
O205 C197 1.258 . S
O205 Zn199 2.035 . S
O206 Zn199 2.028 1_655 S
O206 C209 1.247 . S
O207 Zn201 2.035 1_655 S
O207 C209 1.258 . S
C208 O202 1.247 . S
C208 O203 1.258 . S
C209 O206 1.247 . S
C209 O207 1.258 . S
C210 O212 1.247 . S
C210 O214 1.258 . S
C211 O218 1.247 . S
C211 O219 1.258 . S
O212 C210 1.247 . S
O212 Zn213 2.028 . S
Zn213 O212 2.028 . S
Zn213 O217 2.035 1_545 S
Zn213 O219 2.035 1_545 S
Zn213 O220 2.028 . S
O214 C210 1.258 . S
O214 Zn215 2.035 . S
Zn215 O214 2.035 . S
Zn215 O216 2.028 1_545 S
Zn215 O218 2.028 1_545 S
Zn215 O221 2.035 . S
O216 Zn215 2.028 1_565 S
O216 C222 1.247 . S
O217 Zn213 2.035 1_565 S
O217 C222 1.258 . S
O218 C211 1.247 . S
O218 Zn215 2.028 1_565 S
O219 C211 1.258 . S
O219 Zn213 2.035 1_565 S
O220 Zn213 2.028 . S
O220 C223 1.247 . S
O221 Zn215 2.035 . S
O221 C223 1.258 . S
C222 O216 1.247 . S
C222 O217 1.258 . S
C223 O220 1.247 . S
C223 O221 1.258 . S
C224 O226 1.247 . S
C224 O228 1.258 . S
C225 O232 1.247 . S
C225 O233 1.258 . S
O226 C224 1.247 . S
O226 Zn227 2.037 . S
Zn227 O226 2.037 . S
Zn227 O231 2.044 . S
Zn227 O233 2.027 1_554 S
Zn227 O234 2.019 1_554 S
O228 C224 1.258 . S
O228 Zn229 2.037 . S
Zn229 O228 2.037 . S
Zn229 O230 2.030 . S
Zn229 O232 2.026 1_554 S
Zn229 O235 2.033 1_554 S
O230 Zn229 2.030 . S
O230 C236 1.247 . S
O231 Zn227 2.044 . S
O231 C236 1.258 . S
O232 C225 1.247 . S
O232 Zn229 2.026 1_556 S
O233 C225 1.258 . S
O233 Zn227 2.027 1_556 S
O234 Zn227 2.019 1_556 S
O234 C237 1.247 . S
O235 Zn229 2.033 1_556 S
O235 C237 1.258 . S
C236 O230 1.247 . S
C236 O231 1.258 . S
C237 O234 1.247 . S
C237 O235 1.258 . S
C238 O240 1.247 . S
C238 O242 1.258 . S
C239 O246 1.247 . S
C239 O247 1.258 . S
O240 C238 1.247 . S
O240 Zn241 2.046 . S
Zn241 O240 2.046 . S
Zn241 O245 2.053 . S
Zn241 O247 2.018 1_554 S
Zn241 O248 2.010 1_554 S
O242 C238 1.258 . S
O242 Zn243 2.060 . S
Zn243 O242 2.060 . S
Zn243 O244 2.053 . S
Zn243 O246 2.003 1_554 S
Zn243 O249 2.010 1_554 S
O244 Zn243 2.053 . S
O244 C250 1.247 . S
O245 Zn241 2.053 . S
O245 C250 1.258 . S
O246 C239 1.247 . S
O246 Zn243 2.003 1_556 S
O247 C239 1.258 . S
O247 Zn241 2.018 1_556 S
O248 Zn241 2.010 1_556 S
O248 C251 1.247 . S
O249 Zn243 2.010 1_556 S
O249 C251 1.258 . S
C250 O244 1.247 . S
C250 O245 1.258 . S
C251 O248 1.247 . S
C251 O249 1.258 . S
C252 O254 1.247 . S
C252 O256 1.258 . S
C253 O260 1.247 . S
C253 O261 1.258 . S
O254 C252 1.247 . S
O254 Zn255 2.028 1_556 S
Zn255 O254 2.028 1_554 S
Zn255 O259 2.035 1_554 S
Zn255 O261 2.035 . S
Zn255 O262 2.028 . S
O256 C252 1.258 . S
O256 Zn257 2.035 1_556 S
Zn257 O256 2.035 1_554 S
Zn257 O258 2.028 1_554 S
Zn257 O260 2.028 . S
Zn257 O263 2.035 . S
O258 Zn257 2.028 1_556 S
O258 C264 1.247 . S
O259 Zn255 2.035 1_556 S
O259 C264 1.258 . S
O260 C253 1.247 . S
O260 Zn257 2.028 . S
O261 C253 1.258 . S
O261 Zn255 2.035 . S
O262 Zn255 2.028 . S
O262 C265 1.247 . S
O263 Zn257 2.035 . S
O263 C265 1.258 . S
C264 O258 1.247 . S
C264 O259 1.258 . S
C265 O262 1.247 . S
C265 O263 1.258 . S
C266 O268 1.247 . S
C266 O270 1.258 . S
C267 O274 1.247 . S
C267 O275 1.258 . S
O268 C266 1.247 . S
O268 Zn269 2.028 . S
Zn269 O268 2.028 . S
Zn269 O273 2.035 . S
Zn269 O275 2.035 1_554 S
Zn269 O276 2.028 1_554 S
O270 C266 1.258 . S
O270 Zn271 2.035 . S
Zn271 O270 2.035 . S
Zn271 O272 2.028 . S
Zn271 O274 2.028 1_554 S
Zn271 O277 2.035 1_554 S
O272 Zn271 2.028 . S
O272 C278 1.247 . S
O273 Zn269 2.035 . S
O273 C278 1.258 . S
O274 C267 1.247 . S
O274 Zn271 2.028 1_556 S
O275 C267 1.258 . S
O275 Zn269 2.035 1_556 S
O276 Zn269 2.028 1_556 S
O276 C279 1.247 . S
O277 Zn271 2.035 1_556 S
O277 C279 1.258 . S
C278 O272 1.247 . S
C278 O273 1.258 . S
C279 O276 1.247 . S
C279 O277 1.258 . S
H280 C288 0.929 . S
H281 C290 0.930 . S
H282 C292 0.930 . S
H283 C295 0.929 . S
H284 C298 0.930 . S
H285 C300 0.960 . S
H286 C300 0.960 . S
H287 C300 0.960 . S
C288 H280 0.929 . S
C288 C289 1.377 . S
C288 C290 1.384 . S
C289 C288 1.377 . S
C289 C295 1.390 . S
C290 H281 0.930 . S
C290 C288 1.384 . S
C290 C291 1.372 . S
C291 C290 1.372 . S
C291 C292 1.400 . S
C291 C296 1.490 . S
C292 H282 0.930 . S
C292 C291 1.400 . S
C292 C295 1.386 . S
H293 C309 0.930 . S
H294 C310 0.931 . S
C295 H283 0.929 . S
C295 C289 1.390 . S
C295 C292 1.386 . S
C296 C291 1.490 . S
C296 C298 1.395 . S
C296 C299 1.403 . S
H297 C303 0.930 . S
C298 H284 0.930 . S
C298 C296 1.395 . S
C298 C301 1.403 . S
C299 C296 1.403 . S
C299 C300 1.524 . S
C299 C303 1.400 . S
C300 H285 0.960 . S
C300 H286 0.960 . S
C300 H287 0.960 . S
C300 C299 1.524 . S
C301 C298 1.403 . S
C301 C302 1.392 . S
C301 C305 1.495 . S
C302 C301 1.392 . S
C302 C303 1.385 . S
C302 C304 1.478 . S
C303 H297 0.930 . S
C303 C299 1.400 . S
C303 C302 1.385 . S
C304 C302 1.478 . S
C304 C306 1.381 . S
C304 C310 1.383 . S
C305 C301 1.495 . S
C305 H311 0.959 . S
C305 H312 0.961 . S
C305 H313 0.960 . S
C306 C304 1.381 . S
C306 C307 1.394 . S
C306 H314 0.930 . S
C307 C306 1.394 . S
C307 C308 1.383 . S
C307 H315 0.929 . S
C308 C307 1.383 . S
C308 C309 1.377 . S
C309 H293 0.930 . S
C309 C308 1.377 . S
C309 C310 1.379 . S
C310 H294 0.931 . S
C310 C304 1.383 . S
C310 C309 1.379 . S
H311 C305 0.959 . S
H312 C305 0.961 . S
H313 C305 0.960 . S
H314 C306 0.930 . S
H315 C307 0.929 . S
H316 C324 0.929 . S
H317 C326 0.930 . S
H318 C328 0.930 . S
H319 C331 0.929 . S
H320 C334 0.930 . S
H321 C336 0.960 . S
H322 C336 0.960 . S
H323 C336 0.960 . S
C324 H316 0.929 . S
C324 C325 1.377 . S
C324 C326 1.384 . S
C325 C324 1.377 . S
C325 C331 1.390 . S
C326 H317 0.930 . S
C326 C324 1.384 . S
C326 C327 1.372 . S
C327 C326 1.372 . S
C327 C328 1.400 . S
C327 C332 1.490 . S
C328 H318 0.930 . S
C328 C327 1.400 . S
C328 C331 1.386 . S
H329 C345 0.930 . S
H330 C346 0.931 . S
C331 H319 0.929 . S
C331 C325 1.390 . S
C331 C328 1.386 . S
C332 C327 1.490 . S
C332 C334 1.395 . S
C332 C335 1.403 . S
H333 C339 0.930 . S
C334 H320 0.930 . S
C334 C332 1.395 . S
C334 C337 1.403 . S
C335 C332 1.403 . S
C335 C336 1.524 . S
C335 C339 1.400 . S
C336 H321 0.960 . S
C336 H322 0.960 . S
C336 H323 0.960 . S
C336 C335 1.524 . S
C337 C334 1.403 . S
C337 C338 1.392 . S
C337 C341 1.495 . S
C338 C337 1.392 . S
C338 C339 1.385 . S
C338 C340 1.478 . S
C339 H333 0.930 . S
C339 C335 1.400 . S
C339 C338 1.385 . S
C340 C338 1.478 . S
C340 C342 1.381 . S
C340 C346 1.383 . S
C341 C337 1.495 . S
C341 H347 0.959 . S
C341 H348 0.961 . S
C341 H349 0.960 . S
C342 C340 1.381 . S
C342 C343 1.394 . S
C342 H350 0.930 . S
C343 C342 1.394 . S
C343 C344 1.383 . S
C343 H351 0.929 . S
C344 C343 1.383 . S
C344 C345 1.377 . S
C345 H329 0.930 . S
C345 C344 1.377 . S
C345 C346 1.379 . S
C346 H330 0.931 . S
C346 C340 1.383 . S
C346 C345 1.379 . S
H347 C341 0.959 . S
H348 C341 0.961 . S
H349 C341 0.960 . S
H350 C342 0.930 . S
H351 C343 0.929 . S
H352 C360 0.929 . S
H353 C362 0.930 . S
H354 C364 0.930 . S
H355 C367 0.929 . S
H356 C370 0.930 . S
H357 C372 0.960 . S
H358 C372 0.960 . S
H359 C372 0.960 . S
C360 H352 0.929 . S
C360 C361 1.377 . S
C360 C362 1.384 . S
C361 C360 1.377 . S
C361 C367 1.390 . S
C362 H353 0.930 . S
C362 C360 1.384 . S
C362 C363 1.372 . S
C363 C362 1.372 . S
C363 C364 1.400 . S
C363 C368 1.490 . S
C364 H354 0.930 . S
C364 C363 1.400 . S
C364 C367 1.386 . S
H365 C381 0.930 . S
H366 C382 0.931 . S
C367 H355 0.929 . S
C367 C361 1.390 . S
C367 C364 1.386 . S
C368 C363 1.490 . S
C368 C370 1.395 . S
C368 C371 1.403 . S
H369 C375 0.930 . S
C370 H356 0.930 . S
C370 C368 1.395 . S
C370 C373 1.403 . S
C371 C368 1.403 . S
C371 C372 1.524 . S
C371 C375 1.400 . S
C372 H357 0.960 . S
C372 H358 0.960 . S
C372 H359 0.960 . S
C372 C371 1.524 . S
C373 C370 1.403 . S
C373 C374 1.392 . S
C373 C377 1.495 . S
C374 C373 1.392 . S
C374 C375 1.385 . S
C374 C376 1.478 . S
C375 H369 0.930 . S
C375 C371 1.400 . S
C375 C374 1.385 . S
C376 C374 1.478 . S
C376 C378 1.381 . S
C376 C382 1.383 . S
C377 C373 1.495 . S
C377 H383 0.959 . S
C377 H384 0.961 . S
C377 H385 0.960 . S
C378 C376 1.381 . S
C378 C379 1.394 . S
C378 H386 0.930 . S
C379 C378 1.394 . S
C379 C380 1.383 . S
C379 H387 0.929 . S
C380 C379 1.383 . S
C380 C381 1.377 . S
C381 H365 0.930 . S
C381 C380 1.377 . S
C381 C382 1.379 . S
C382 H366 0.931 . S
C382 C376 1.383 . S
C382 C381 1.379 . S
H383 C377 0.959 . S
H384 C377 0.961 . S
H385 C377 0.960 . S
H386 C378 0.930 . S
H387 C379 0.929 . S
H388 C396 0.929 . S
H389 C398 0.930 . S
H390 C400 0.930 . S
H391 C403 0.929 . S
H392 C406 0.930 . S
H393 C408 0.960 . S
H394 C408 0.960 . S
H395 C408 0.960 . S
C396 H388 0.929 . S
C396 C397 1.377 . S
C396 C398 1.384 . S
C397 C396 1.377 . S
C397 C403 1.390 . S
C398 H389 0.930 . S
C398 C396 1.384 . S
C398 C399 1.372 . S
C399 C398 1.372 . S
C399 C400 1.400 . S
C399 C404 1.490 . S
C400 H390 0.930 . S
C400 C399 1.400 . S
C400 C403 1.386 . S
H401 C417 0.930 . S
H402 C418 0.931 . S
C403 H391 0.929 . S
C403 C397 1.390 . S
C403 C400 1.386 . S
C404 C399 1.490 . S
C404 C406 1.395 . S
C404 C407 1.403 . S
H405 C411 0.930 . S
C406 H392 0.930 . S
C406 C404 1.395 . S
C406 C409 1.403 . S
C407 C404 1.403 . S
C407 C408 1.524 . S
C407 C411 1.400 . S
C408 H393 0.960 . S
C408 H394 0.960 . S
C408 H395 0.960 . S
C408 C407 1.524 . S
C409 C406 1.403 . S
C409 C410 1.392 . S
C409 C413 1.495 . S
C410 C409 1.392 . S
C410 C411 1.385 . S
C410 C412 1.478 . S
C411 H405 0.930 . S
C411 C407 1.400 . S
C411 C410 1.385 . S
C412 C410 1.478 . S
C412 C414 1.381 . S
C412 C418 1.383 . S
C413 C409 1.495 . S
C413 H419 0.959 . S
C413 H420 0.961 . S
C413 H421 0.960 . S
C414 C412 1.381 . S
C414 C415 1.394 . S
C414 H422 0.930 . S
C415 C414 1.394 . S
C415 C416 1.383 . S
C415 H423 0.929 . S
C416 C415 1.383 . S
C416 C417 1.377 . S
C417 H401 0.930 . S
C417 C416 1.377 . S
C417 C418 1.379 . S
C418 H402 0.931 . S
C418 C412 1.383 . S
C418 C417 1.379 . S
H419 C413 0.959 . S
H420 C413 0.961 . S
H421 C413 0.960 . S
H422 C414 0.930 . S
H423 C415 0.929 . S
H424 C432 0.929 . S
H425 C434 0.930 . S
H426 C436 0.930 . S
H427 C439 0.929 . S
H428 C442 0.930 . S
H429 C444 0.960 . S
H430 C444 0.960 . S
H431 C444 0.960 . S
C432 H424 0.929 . S
C432 C433 1.377 . S
C432 C434 1.384 . S
C433 C432 1.377 . S
C433 C439 1.390 . S
C434 H425 0.930 . S
C434 C432 1.384 . S
C434 C435 1.372 . S
C435 C434 1.372 . S
C435 C436 1.400 . S
C435 C440 1.490 . S
C436 H426 0.930 . S
C436 C435 1.400 . S
C436 C439 1.386 . S
H437 C453 0.930 . S
H438 C454 0.931 . S
C439 H427 0.929 . S
C439 C433 1.390 . S
C439 C436 1.386 . S
C440 C435 1.490 . S
C440 C442 1.395 . S
C440 C443 1.403 . S
H441 C447 0.930 . S
C442 H428 0.930 . S
C442 C440 1.395 . S
C442 C445 1.403 . S
C443 C440 1.403 . S
C443 C444 1.524 . S
C443 C447 1.400 . S
C444 H429 0.960 . S
C444 H430 0.960 . S
C444 H431 0.960 . S
C444 C443 1.524 . S
C445 C442 1.403 . S
C445 C446 1.392 . S
C445 C449 1.495 . S
C446 C445 1.392 . S
C446 C447 1.385 . S
C446 C448 1.478 . S
C447 H441 0.930 . S
C447 C443 1.400 . S
C447 C446 1.385 . S
C448 C446 1.478 . S
C448 C450 1.381 . S
C448 C454 1.383 . S
C449 C445 1.495 . S
C449 H455 0.959 . S
C449 H456 0.961 . S
C449 H457 0.960 . S
C450 C448 1.381 . S
C450 C451 1.394 . S
C450 H458 0.930 . S
C451 C450 1.394 . S
C451 C452 1.383 . S
C451 H459 0.929 . S
C452 C451 1.383 . S
C452 C453 1.377 . S
C453 H437 0.930 . S
C453 C452 1.377 . S
C453 C454 1.379 . S
C454 H438 0.931 . S
C454 C448 1.383 . S
C454 C453 1.379 . S
H455 C449 0.959 . S
H456 C449 0.961 . S
H457 C449 0.960 . S
H458 C450 0.930 . S
H459 C451 0.929 . S
H460 C468 0.929 . S
H461 C470 0.930 . S
H462 C472 0.930 . S
H463 C475 0.929 . S
H464 C478 0.930 . S
H465 C480 0.960 . S
H466 C480 0.960 . S
H467 C480 0.960 . S
C468 H460 0.929 . S
C468 C469 1.377 . S
C468 C470 1.384 . S
C469 C468 1.377 . S
C469 C475 1.390 . S
C470 H461 0.930 . S
C470 C468 1.384 . S
C470 C471 1.372 . S
C471 C470 1.372 . S
C471 C472 1.400 . S
C471 C476 1.490 . S
C472 H462 0.930 . S
C472 C471 1.400 . S
C472 C475 1.386 . S
H473 C489 0.930 . S
H474 C490 0.931 . S
C475 H463 0.929 . S
C475 C469 1.390 . S
C475 C472 1.386 . S
C476 C471 1.490 . S
C476 C478 1.395 . S
C476 C479 1.403 . S
H477 C483 0.930 . S
C478 H464 0.930 . S
C478 C476 1.395 . S
C478 C481 1.403 . S
C479 C476 1.403 . S
C479 C480 1.524 . S
C479 C483 1.400 . S
C480 H465 0.960 . S
C480 H466 0.960 . S
C480 H467 0.960 . S
C480 C479 1.524 . S
C481 C478 1.403 . S
C481 C482 1.392 . S
C481 C485 1.495 . S
C482 C481 1.392 . S
C482 C483 1.385 . S
C482 C484 1.478 . S
C483 H477 0.930 . S
C483 C479 1.400 . S
C483 C482 1.385 . S
C484 C482 1.478 . S
C484 C486 1.381 . S
C484 C490 1.383 . S
C485 C481 1.495 . S
C485 H491 0.959 . S
C485 H492 0.961 . S
C485 H493 0.960 . S
C486 C484 1.381 . S
C486 C487 1.394 . S
C486 H494 0.930 . S
C487 C486 1.394 . S
C487 C488 1.383 . S
C487 H495 0.929 . S
C488 C487 1.383 . S
C488 C489 1.377 . S
C489 H473 0.930 . S
C489 C488 1.377 . S
C489 C490 1.379 . S
C490 H474 0.931 . S
C490 C484 1.383 . S
C490 C489 1.379 . S
H491 C485 0.959 . S
H492 C485 0.961 . S
H493 C485 0.960 . S
H494 C486 0.930 . S
H495 C487 0.929 . S
H496 C504 0.929 . S
H497 C506 0.930 . S
H498 C508 0.930 . S
H499 C511 0.929 . S
H500 C514 0.930 . S
H501 C516 0.960 . S
H502 C516 0.960 . S
H503 C516 0.960 . S
C504 H496 0.929 . S
C504 C505 1.377 . S
C504 C506 1.384 . S
C505 C504 1.377 . S
C505 C511 1.390 . S
C506 H497 0.930 . S
C506 C504 1.384 . S
C506 C507 1.372 . S
C507 C506 1.372 . S
C507 C508 1.400 . S
C507 C512 1.490 . S
C508 H498 0.930 . S
C508 C507 1.400 . S
C508 C511 1.386 . S
H509 C525 0.930 . S
H510 C526 0.931 . S
C511 H499 0.929 . S
C511 C505 1.390 . S
C511 C508 1.386 . S
C512 C507 1.490 . S
C512 C514 1.395 . S
C512 C515 1.403 . S
H513 C519 0.930 . S
C514 H500 0.930 . S
C514 C512 1.395 . S
C514 C517 1.403 . S
C515 C512 1.403 . S
C515 C516 1.524 . S
C515 C519 1.400 . S
C516 H501 0.960 . S
C516 H502 0.960 . S
C516 H503 0.960 . S
C516 C515 1.524 . S
C517 C514 1.403 . S
C517 C518 1.392 . S
C517 C521 1.495 . S
C518 C517 1.392 . S
C518 C519 1.385 . S
C518 C520 1.478 . S
C519 H513 0.930 . S
C519 C515 1.400 . S
C519 C518 1.385 . S
C520 C518 1.478 . S
C520 C522 1.381 . S
C520 C526 1.383 . S
C521 C517 1.495 . S
C521 H527 0.959 . S
C521 H528 0.961 . S
C521 H529 0.960 . S
C522 C520 1.381 . S
C522 C523 1.394 . S
C522 H530 0.930 . S
C523 C522 1.394 . S
C523 C524 1.383 . S
C523 H531 0.929 . S
C524 C523 1.383 . S
C524 C525 1.377 . S
C525 H509 0.930 . S
C525 C524 1.377 . S
C525 C526 1.379 . S
C526 H510 0.931 . S
C526 C520 1.383 . S
C526 C525 1.379 . S
H527 C521 0.959 . S
H528 C521 0.961 . S
H529 C521 0.960 . S
H530 C522 0.930 . S
H531 C523 0.929 . S
H532 C540 0.929 . S
H533 C542 0.930 . S
H534 C544 0.930 . S
H535 C547 0.929 . S
H536 C550 0.930 . S
H537 C552 0.960 . S
H538 C552 0.960 . S
H539 C552 0.960 . S
C540 H532 0.929 . S
C540 C541 1.377 . S
C540 C542 1.384 . S
C541 C540 1.377 . S
C541 C547 1.390 . S
C542 H533 0.930 . S
C542 C540 1.384 . S
C542 C543 1.372 . S
C543 C542 1.372 . S
C543 C544 1.400 . S
C543 C548 1.490 . S
C544 H534 0.930 . S
C544 C543 1.400 . S
C544 C547 1.386 . S
H545 C561 0.930 . S
H546 C562 0.931 . S
C547 H535 0.929 . S
C547 C541 1.390 . S
C547 C544 1.386 . S
C548 C543 1.490 . S
C548 C550 1.395 . S
C548 C551 1.403 . S
H549 C555 0.930 . S
C550 H536 0.930 . S
C550 C548 1.395 . S
C550 C553 1.403 . S
C551 C548 1.403 . S
C551 C552 1.524 . S
C551 C555 1.400 . S
C552 H537 0.960 . S
C552 H538 0.960 . S
C552 H539 0.960 . S
C552 C551 1.524 . S
C553 C550 1.403 . S
C553 C554 1.392 . S
C553 C557 1.495 . S
C554 C553 1.392 . S
C554 C555 1.385 . S
C554 C556 1.478 . S
C555 H549 0.930 . S
C555 C551 1.400 . S
C555 C554 1.385 . S
C556 C554 1.478 . S
C556 C558 1.381 . S
C556 C562 1.383 . S
C557 C553 1.495 . S
C557 H563 0.959 . S
C557 H564 0.961 . S
C557 H565 0.960 . S
C558 C556 1.381 . S
C558 C559 1.394 . S
C558 H566 0.930 . S
C559 C558 1.394 . S
C559 C560 1.383 . S
C559 H567 0.929 . S
C560 C559 1.383 . S
C560 C561 1.377 . S
C561 H545 0.930 . S
C561 C560 1.377 . S
C561 C562 1.379 . S
C562 H546 0.931 . S
C562 C556 1.383 . S
C562 C561 1.379 . S
H563 C557 0.959 . S
H564 C557 0.961 . S
H565 C557 0.960 . S
H566 C558 0.930 . S
H567 C559 0.929 . S
H568 C576 0.929 . S
H569 C578 0.930 . S
H570 C580 0.930 . S
H571 C583 0.929 . S
H572 C586 0.930 . S
H573 C588 0.960 . S
H574 C588 0.960 . S
H575 C588 0.960 . S
C576 H568 0.929 . S
C576 C577 1.377 . S
C576 C578 1.384 . S
C577 C576 1.377 . S
C577 C583 1.390 . S
C578 H569 0.930 . S
C578 C576 1.384 . S
C578 C579 1.372 . S
C579 C578 1.372 . S
C579 C580 1.400 . S
C579 C584 1.490 . S
C580 H570 0.930 . S
C580 C579 1.400 . S
C580 C583 1.386 . S
H581 C597 0.930 . S
H582 C598 0.931 . S
C583 H571 0.929 . S
C583 C577 1.390 . S
C583 C580 1.386 . S
C584 C579 1.490 . S
C584 C586 1.395 . S
C584 C587 1.403 . S
H585 C591 0.930 . S
C586 H572 0.930 . S
C586 C584 1.395 . S
C586 C589 1.403 . S
C587 C584 1.403 . S
C587 C588 1.524 . S
C587 C591 1.400 . S
C588 H573 0.960 . S
C588 H574 0.960 . S
C588 H575 0.960 . S
C588 C587 1.524 . S
C589 C586 1.403 . S
C589 C590 1.392 . S
C589 C593 1.495 . S
C590 C589 1.392 . S
C590 C591 1.385 . S
C590 C592 1.478 . S
C591 H585 0.930 . S
C591 C587 1.400 . S
C591 C590 1.385 . S
C592 C590 1.478 . S
C592 C594 1.381 . S
C592 C598 1.383 . S
C593 C589 1.495 . S
C593 H599 0.959 . S
C593 H600 0.961 . S
C593 H601 0.960 . S
C594 C592 1.381 . S
C594 C595 1.394 . S
C594 H602 0.930 . S
C595 C594 1.394 . S
C595 C596 1.383 . S
C595 H603 0.929 . S
C596 C595 1.383 . S
C596 C597 1.377 . S
C597 H581 0.930 . S
C597 C596 1.377 . S
C597 C598 1.379 . S
C598 H582 0.931 . S
C598 C592 1.383 . S
C598 C597 1.379 . S
H599 C593 0.959 . S
H600 C593 0.961 . S
H601 C593 0.960 . S
H602 C594 0.930 . S
H603 C595 0.929 . S
H604 C612 0.929 . S
H605 C614 0.930 . S
H606 C616 0.930 . S
H607 C619 0.929 . S
H608 C622 0.930 . S
H609 C624 0.960 . S
H610 C624 0.960 . S
H611 C624 0.960 . S
C612 H604 0.929 . S
C612 C613 1.377 . S
C612 C614 1.384 . S
C613 C612 1.377 . S
C613 C619 1.390 . S
C614 H605 0.930 . S
C614 C612 1.384 . S
C614 C615 1.372 . S
C615 C614 1.372 . S
C615 C616 1.400 . S
C615 C620 1.490 . S
C616 H606 0.930 . S
C616 C615 1.400 . S
C616 C619 1.386 . S
H617 C633 0.930 . S
H618 C634 0.931 . S
C619 H607 0.929 . S
C619 C613 1.390 . S
C619 C616 1.386 . S
C620 C615 1.490 . S
C620 C622 1.395 . S
C620 C623 1.403 . S
H621 C627 0.930 . S
C622 H608 0.930 . S
C622 C620 1.395 . S
C622 C625 1.403 . S
C623 C620 1.403 . S
C623 C624 1.524 . S
C623 C627 1.400 . S
C624 H609 0.960 . S
C624 H610 0.960 . S
C624 H611 0.960 . S
C624 C623 1.524 . S
C625 C622 1.403 . S
C625 C626 1.392 . S
C625 C629 1.495 . S
C626 C625 1.392 . S
C626 C627 1.385 . S
C626 C628 1.478 . S
C627 H621 0.930 . S
C627 C623 1.400 . S
C627 C626 1.385 . S
C628 C626 1.478 . S
C628 C630 1.381 . S
C628 C634 1.383 . S
C629 C625 1.495 . S
C629 H635 0.959 . S
C629 H636 0.961 . S
C629 H637 0.960 . S
C630 C628 1.381 . S
C630 C631 1.394 . S
C630 H638 0.930 . S
C631 C630 1.394 . S
C631 C632 1.383 . S
C631 H639 0.929 . S
C632 C631 1.383 . S
C632 C633 1.377 . S
C633 H617 0.930 . S
C633 C632 1.377 . S
C633 C634 1.379 . S
C634 H618 0.931 . S
C634 C628 1.383 . S
C634 C633 1.379 . S
H635 C629 0.959 . S
H636 C629 0.961 . S
H637 C629 0.960 . S
H638 C630 0.930 . S
H639 C631 0.929 . S
H640 C648 0.929 . S
H641 C650 0.930 . S
H642 C652 0.930 . S
H643 C655 0.929 . S
H644 C658 0.930 . S
H645 C660 0.960 . S
H646 C660 0.960 . S
H647 C660 0.960 . S
C648 H640 0.929 . S
C648 C649 1.377 . S
C648 C650 1.384 . S
C649 C648 1.377 . S
C649 C655 1.390 . S
C650 H641 0.930 . S
C650 C648 1.384 . S
C650 C651 1.372 . S
C651 C650 1.372 . S
C651 C652 1.400 . S
C651 C656 1.490 . S
C652 H642 0.930 . S
C652 C651 1.400 . S
C652 C655 1.386 . S
H653 C669 0.930 . S
H654 C670 0.931 . S
C655 H643 0.929 . S
C655 C649 1.390 . S
C655 C652 1.386 . S
C656 C651 1.490 . S
C656 C658 1.395 . S
C656 C659 1.403 . S
H657 C663 0.930 . S
C658 H644 0.930 . S
C658 C656 1.395 . S
C658 C661 1.403 . S
C659 C656 1.403 . S
C659 C660 1.524 . S
C659 C663 1.400 . S
C660 H645 0.960 . S
C660 H646 0.960 . S
C660 H647 0.960 . S
C660 C659 1.524 . S
C661 C658 1.403 . S
C661 C662 1.392 . S
C661 C665 1.495 . S
C662 C661 1.392 . S
C662 C663 1.385 . S
C662 C664 1.478 . S
C663 H657 0.930 . S
C663 C659 1.400 . S
C663 C662 1.385 . S
C664 C662 1.478 . S
C664 C666 1.381 . S
C664 C670 1.383 . S
C665 C661 1.495 . S
C665 H671 0.959 . S
C665 H672 0.961 . S
C665 H673 0.960 . S
C666 C664 1.381 . S
C666 C667 1.394 . S
C666 H674 0.930 . S
C667 C666 1.394 . S
C667 C668 1.383 . S
C667 H675 0.929 . S
C668 C667 1.383 . S
C668 C669 1.377 . S
C669 H653 0.930 . S
C669 C668 1.377 . S
C669 C670 1.379 . S
C670 H654 0.931 . S
C670 C664 1.383 . S
C670 C669 1.379 . S
H671 C665 0.959 . S
H672 C665 0.961 . S
H673 C665 0.960 . S
H674 C666 0.930 . S
H675 C667 0.929 . S
H676 C684 0.929 . S
H677 C686 0.930 . S
H678 C688 0.930 . S
H679 C691 0.929 . S
H680 C694 0.930 . S
H681 C696 0.960 . S
H682 C696 0.960 . S
H683 C696 0.960 . S
C684 H676 0.929 . S
C684 C685 1.377 . S
C684 C686 1.384 . S
C685 C684 1.377 . S
C685 C691 1.390 . S
C686 H677 0.930 . S
C686 C684 1.384 . S
C686 C687 1.372 . S
C687 C686 1.372 . S
C687 C688 1.400 . S
C687 C692 1.490 . S
C688 H678 0.930 . S
C688 C687 1.400 . S
C688 C691 1.386 . S
H689 C705 0.930 . S
H690 C706 0.931 . S
C691 H679 0.929 . S
C691 C685 1.390 . S
C691 C688 1.386 . S
C692 C687 1.490 . S
C692 C694 1.395 . S
C692 C695 1.403 . S
H693 C699 0.930 . S
C694 H680 0.930 . S
C694 C692 1.395 . S
C694 C697 1.403 . S
C695 C692 1.403 . S
C695 C696 1.524 . S
C695 C699 1.400 . S
C696 H681 0.960 . S
C696 H682 0.960 . S
C696 H683 0.960 . S
C696 C695 1.524 . S
C697 C694 1.403 . S
C697 C698 1.392 . S
C697 C701 1.495 . S
C698 C697 1.392 . S
C698 C699 1.385 . S
C698 C700 1.478 . S
C699 H693 0.930 . S
C699 C695 1.400 . S
C699 C698 1.385 . S
C700 C698 1.478 . S
C700 C702 1.381 . S
C700 C706 1.383 . S
C701 C697 1.495 . S
C701 H707 0.959 . S
C701 H708 0.961 . S
C701 H709 0.960 . S
C702 C700 1.381 . S
C702 C703 1.394 . S
C702 H710 0.930 . S
C703 C702 1.394 . S
C703 C704 1.383 . S
C703 H711 0.929 . S
C704 C703 1.383 . S
C704 C705 1.377 . S
C705 H689 0.930 . S
C705 C704 1.377 . S
C705 C706 1.379 . S
C706 H690 0.931 . S
C706 C700 1.383 . S
C706 C705 1.379 . S
H707 C701 0.959 . S
H708 C701 0.961 . S
H709 C701 0.960 . S
H710 C702 0.930 . S
H711 C703 0.929 . S
H712 C720 0.929 . S
H713 C722 0.930 . S
H714 C724 0.930 . S
H715 C727 0.929 . S
H716 C730 0.930 . S
H717 C732 0.960 . S
H718 C732 0.960 . S
H719 C732 0.960 . S
C720 H712 0.929 . S
C720 C721 1.377 . S
C720 C722 1.384 . S
C721 C720 1.377 . S
C721 C727 1.390 . S
C722 H713 0.930 . S
C722 C720 1.384 . S
C722 C723 1.372 . S
C723 C722 1.372 . S
C723 C724 1.400 . S
C723 C728 1.490 . S
C724 H714 0.930 . S
C724 C723 1.400 . S
C724 C727 1.386 . S
H725 C741 0.930 . S
H726 C742 0.931 . S
C727 H715 0.929 . S
C727 C721 1.390 . S
C727 C724 1.386 . S
C728 C723 1.490 . S
C728 C730 1.395 . S
C728 C731 1.403 . S
H729 C735 0.930 . S
C730 H716 0.930 . S
C730 C728 1.395 . S
C730 C733 1.403 . S
C731 C728 1.403 . S
C731 C732 1.524 . S
C731 C735 1.400 . S
C732 H717 0.960 . S
C732 H718 0.960 . S
C732 H719 0.960 . S
C732 C731 1.524 . S
C733 C730 1.403 . S
C733 C734 1.392 . S
C733 C737 1.495 . S
C734 C733 1.392 . S
C734 C735 1.385 . S
C734 C736 1.478 . S
C735 H729 0.930 . S
C735 C731 1.400 . S
C735 C734 1.385 . S
C736 C734 1.478 . S
C736 C738 1.381 . S
C736 C742 1.383 . S
C737 C733 1.495 . S
C737 H743 0.959 . S
C737 H744 0.961 . S
C737 H745 0.960 . S
C738 C736 1.381 . S
C738 C739 1.394 . S
C738 H746 0.930 . S
C739 C738 1.394 . S
C739 C740 1.383 . S
C739 H747 0.929 . S
C740 C739 1.383 . S
C740 C741 1.377 . S
C741 H725 0.930 . S
C741 C740 1.377 . S
C741 C742 1.379 . S
C742 H726 0.931 . S
C742 C736 1.383 . S
C742 C741 1.379 . S
H743 C737 0.959 . S
H744 C737 0.961 . S
H745 C737 0.960 . S
H746 C738 0.930 . S
H747 C739 0.929 . S
H748 C756 0.929 . S
H749 C758 0.930 . S
H750 C760 0.930 . S
H751 C763 0.929 . S
H752 C766 0.930 . S
H753 C768 0.960 . S
H754 C768 0.960 . S
H755 C768 0.960 . S
C756 H748 0.929 . S
C756 C757 1.377 . S
C756 C758 1.384 . S
C757 C756 1.377 . S
C757 C763 1.390 . S
C758 H749 0.930 . S
C758 C756 1.384 . S
C758 C759 1.372 . S
C759 C758 1.372 . S
C759 C760 1.400 . S
C759 C764 1.490 . S
C760 H750 0.930 . S
C760 C759 1.400 . S
C760 C763 1.386 . S
H761 C777 0.930 . S
H762 C778 0.931 . S
C763 H751 0.929 . S
C763 C757 1.390 . S
C763 C760 1.386 . S
C764 C759 1.490 . S
C764 C766 1.395 . S
C764 C767 1.403 . S
H765 C771 0.930 . S
C766 H752 0.930 . S
C766 C764 1.395 . S
C766 C769 1.403 . S
C767 C764 1.403 . S
C767 C768 1.524 . S
C767 C771 1.400 . S
C768 H753 0.960 . S
C768 H754 0.960 . S
C768 H755 0.960 . S
C768 C767 1.524 . S
C769 C766 1.403 . S
C769 C770 1.392 . S
C769 C773 1.495 . S
C770 C769 1.392 . S
C770 C771 1.385 . S
C770 C772 1.478 . S
C771 H765 0.930 . S
C771 C767 1.400 . S
C771 C770 1.385 . S
C772 C770 1.478 . S
C772 C774 1.381 . S
C772 C778 1.383 . S
C773 C769 1.495 . S
C773 H779 0.959 . S
C773 H780 0.961 . S
C773 H781 0.960 . S
C774 C772 1.381 . S
C774 C775 1.394 . S
C774 H782 0.930 . S
C775 C774 1.394 . S
C775 C776 1.383 . S
C775 H783 0.929 . S
C776 C775 1.383 . S
C776 C777 1.377 . S
C777 H761 0.930 . S
C777 C776 1.377 . S
C777 C778 1.379 . S
C778 H762 0.931 . S
C778 C772 1.383 . S
C778 C777 1.379 . S
H779 C773 0.959 . S
H780 C773 0.961 . S
H781 C773 0.960 . S
H782 C774 0.930 . S
H783 C775 0.929 . S
H784 C792 0.929 . S
H785 C794 0.930 . S
H786 C796 0.930 . S
H787 C799 0.929 . S
H788 C802 0.930 . S
H789 C804 0.960 . S
H790 C804 0.960 . S
H791 C804 0.960 . S
C792 H784 0.929 . S
C792 C793 1.377 . S
C792 C794 1.384 . S
C793 C792 1.377 . S
C793 C799 1.390 . S
C794 H785 0.930 . S
C794 C792 1.384 . S
C794 C795 1.372 . S
C795 C794 1.372 . S
C795 C796 1.400 . S
C795 C800 1.490 . S
C796 H786 0.930 . S
C796 C795 1.400 . S
C796 C799 1.386 . S
H797 C813 0.930 . S
H798 C814 0.931 . S
C799 H787 0.929 . S
C799 C793 1.390 . S
C799 C796 1.386 . S
C800 C795 1.490 . S
C800 C802 1.395 . S
C800 C803 1.403 . S
H801 C807 0.930 . S
C802 H788 0.930 . S
C802 C800 1.395 . S
C802 C805 1.403 . S
C803 C800 1.403 . S
C803 C804 1.524 . S
C803 C807 1.400 . S
C804 H789 0.960 . S
C804 H790 0.960 . S
C804 H791 0.960 . S
C804 C803 1.524 . S
C805 C802 1.403 . S
C805 C806 1.392 . S
C805 C809 1.495 . S
C806 C805 1.392 . S
C806 C807 1.385 . S
C806 C808 1.478 . S
C807 H801 0.930 . S
C807 C803 1.400 . S
C807 C806 1.385 . S
C808 C806 1.478 . S
C808 C810 1.381 . S
C808 C814 1.383 . S
C809 C805 1.495 . S
C809 H815 0.959 . S
C809 H816 0.961 . S
C809 H817 0.960 . S
C810 C808 1.381 . S
C810 C811 1.394 . S
C810 H818 0.930 . S
C811 C810 1.394 . S
C811 C812 1.383 . S
C811 H819 0.929 . S
C812 C811 1.383 . S
C812 C813 1.377 . S
C813 H797 0.930 . S
C813 C812 1.377 . S
C813 C814 1.379 . S
C814 H798 0.931 . S
C814 C808 1.383 . S
C814 C813 1.379 . S
H815 C809 0.959 . S
H816 C809 0.961 . S
H817 C809 0.960 . S
H818 C810 0.930 . S
H819 C811 0.929 . S
H820 C828 0.929 . S
H821 C830 0.930 . S
H822 C832 0.930 . S
H823 C835 0.929 . S
H824 C838 0.930 . S
H825 C840 0.960 . S
H826 C840 0.960 . S
H827 C840 0.960 . S
C828 H820 0.929 . S
C828 C829 1.377 . S
C828 C830 1.384 . S
C829 C828 1.377 . S
C829 C835 1.390 . S
C830 H821 0.930 . S
C830 C828 1.384 . S
C830 C831 1.372 . S
C831 C830 1.372 . S
C831 C832 1.400 . S
C831 C836 1.490 . S
C832 H822 0.930 . S
C832 C831 1.400 . S
C832 C835 1.386 . S
H833 C849 0.930 . S
H834 C850 0.931 . S
C835 H823 0.929 . S
C835 C829 1.390 . S
C835 C832 1.386 . S
C836 C831 1.490 . S
C836 C838 1.395 . S
C836 C839 1.403 . S
H837 C843 0.930 . S
C838 H824 0.930 . S
C838 C836 1.395 . S
C838 C841 1.403 . S
C839 C836 1.403 . S
C839 C840 1.524 . S
C839 C843 1.400 . S
C840 H825 0.960 . S
C840 H826 0.960 . S
C840 H827 0.960 . S
C840 C839 1.524 . S
C841 C838 1.403 . S
C841 C842 1.392 . S
C841 C845 1.495 . S
C842 C841 1.392 . S
C842 C843 1.385 . S
C842 C844 1.478 . S
C843 H837 0.930 . S
C843 C839 1.400 . S
C843 C842 1.385 . S
C844 C842 1.478 . S
C844 C846 1.381 . S
C844 C850 1.383 . S
C845 C841 1.495 . S
C845 H851 0.959 . S
C845 H852 0.961 . S
C845 H853 0.960 . S
C846 C844 1.381 . S
C846 C847 1.394 . S
C846 H854 0.930 . S
C847 C846 1.394 . S
C847 C848 1.383 . S
C847 H855 0.929 . S
C848 C847 1.383 . S
C848 C849 1.377 . S
C849 H833 0.930 . S
C849 C848 1.377 . S
C849 C850 1.379 . S
C850 H834 0.931 . S
C850 C844 1.383 . S
C850 C849 1.379 . S
H851 C845 0.959 . S
H852 C845 0.961 . S
H853 C845 0.960 . S
H854 C846 0.930 . S
H855 C847 0.929 . S
H856 C864 0.929 . S
H857 C866 0.930 . S
H858 C868 0.930 . S
H859 C871 0.929 . S
H860 C874 0.930 . S
H861 C876 0.960 . S
H862 C876 0.960 . S
H863 C876 0.960 . S
C864 H856 0.929 . S
C864 C865 1.377 . S
C864 C866 1.384 . S
C865 C864 1.377 . S
C865 C871 1.390 . S
C866 H857 0.930 . S
C866 C864 1.384 . S
C866 C867 1.372 . S
C867 C866 1.372 . S
C867 C868 1.400 . S
C867 C872 1.490 . S
C868 H858 0.930 . S
C868 C867 1.400 . S
C868 C871 1.386 . S
H869 C885 0.930 . S
H870 C886 0.931 . S
C871 H859 0.929 . S
C871 C865 1.390 . S
C871 C868 1.386 . S
C872 C867 1.490 . S
C872 C874 1.395 . S
C872 C875 1.403 . S
H873 C879 0.930 . S
C874 H860 0.930 . S
C874 C872 1.395 . S
C874 C877 1.403 . S
C875 C872 1.403 . S
C875 C876 1.524 . S
C875 C879 1.400 . S
C876 H861 0.960 . S
C876 H862 0.960 . S
C876 H863 0.960 . S
C876 C875 1.524 . S
C877 C874 1.403 . S
C877 C878 1.392 . S
C877 C881 1.495 . S
C878 C877 1.392 . S
C878 C879 1.385 . S
C878 C880 1.478 . S
C879 H873 0.930 . S
C879 C875 1.400 . S
C879 C878 1.385 . S
C880 C878 1.478 . S
C880 C882 1.381 . S
C880 C886 1.383 . S
C881 C877 1.495 . S
C881 H887 0.959 . S
C881 H888 0.961 . S
C881 H889 0.960 . S
C882 C880 1.381 . S
C882 C883 1.394 . S
C882 H890 0.930 . S
C883 C882 1.394 . S
C883 C884 1.383 . S
C883 H891 0.929 . S
C884 C883 1.383 . S
C884 C885 1.377 . S
C885 H869 0.930 . S
C885 C884 1.377 . S
C885 C886 1.379 . S
C886 H870 0.931 . S
C886 C880 1.383 . S
C886 C885 1.379 . S
H887 C881 0.959 . S
H888 C881 0.961 . S
H889 C881 0.960 . S
H890 C882 0.930 . S
H891 C883 0.929 . S
H892 C900 0.929 . S
H893 C902 0.930 . S
H894 C904 0.930 . S
H895 C907 0.929 . S
H896 C910 0.930 . S
H897 C912 0.960 . S
H898 C912 0.960 . S
H899 C912 0.960 . S
C900 H892 0.929 . S
C900 C901 1.377 . S
C900 C902 1.384 . S
C901 C900 1.377 . S
C901 C907 1.390 . S
C902 H893 0.930 . S
C902 C900 1.384 . S
C902 C903 1.372 . S
C903 C902 1.372 . S
C903 C904 1.400 . S
C903 C908 1.490 . S
C904 H894 0.930 . S
C904 C903 1.400 . S
C904 C907 1.386 . S
H905 C921 0.930 . S
H906 C922 0.931 . S
C907 H895 0.929 . S
C907 C901 1.390 . S
C907 C904 1.386 . S
C908 C903 1.490 . S
C908 C910 1.395 . S
C908 C911 1.403 . S
H909 C915 0.930 . S
C910 H896 0.930 . S
C910 C908 1.395 . S
C910 C913 1.403 . S
C911 C908 1.403 . S
C911 C912 1.524 . S
C911 C915 1.400 . S
C912 H897 0.960 . S
C912 H898 0.960 . S
C912 H899 0.960 . S
C912 C911 1.524 . S
C913 C910 1.403 . S
C913 C914 1.392 . S
C913 C917 1.495 . S
C914 C913 1.392 . S
C914 C915 1.385 . S
C914 C916 1.478 . S
C915 H909 0.930 . S
C915 C911 1.400 . S
C915 C914 1.385 . S
C916 C914 1.478 . S
C916 C918 1.381 . S
C916 C922 1.383 . S
C917 C913 1.495 . S
C917 H923 0.959 . S
C917 H924 0.961 . S
C917 H925 0.960 . S
C918 C916 1.381 . S
C918 C919 1.394 . S
C918 H926 0.930 . S
C919 C918 1.394 . S
C919 C920 1.383 . S
C919 H927 0.929 . S
C920 C919 1.383 . S
C920 C921 1.377 . S
C921 H905 0.930 . S
C921 C920 1.377 . S
C921 C922 1.379 . S
C922 H906 0.931 . S
C922 C916 1.383 . S
C922 C921 1.379 . S
H923 C917 0.959 . S
H924 C917 0.961 . S
H925 C917 0.960 . S
H926 C918 0.930 . S
H927 C919 0.929 . S
H928 C936 0.929 . S
H929 C938 0.930 . S
H930 C940 0.930 . S
H931 C943 0.929 . S
H932 C946 0.930 . S
H933 C948 0.960 . S
H934 C948 0.960 . S
H935 C948 0.960 . S
C936 H928 0.929 . S
C936 C937 1.377 . S
C936 C938 1.384 . S
C937 C936 1.377 . S
C937 C943 1.390 . S
C938 H929 0.930 . S
C938 C936 1.384 . S
C938 C939 1.372 . S
C939 C938 1.372 . S
C939 C940 1.400 . S
C939 C944 1.490 . S
C940 H930 0.930 . S
C940 C939 1.400 . S
C940 C943 1.386 . S
H941 C957 0.930 . S
H942 C958 0.931 . S
C943 H931 0.929 . S
C943 C937 1.390 . S
C943 C940 1.386 . S
C944 C939 1.490 . S
C944 C946 1.395 . S
C944 C947 1.403 . S
H945 C951 0.930 . S
C946 H932 0.930 . S
C946 C944 1.395 . S
C946 C949 1.403 . S
C947 C944 1.403 . S
C947 C948 1.524 . S
C947 C951 1.400 . S
C948 H933 0.960 . S
C948 H934 0.960 . S
C948 H935 0.960 . S
C948 C947 1.524 . S
C949 C946 1.403 . S
C949 C950 1.392 . S
C949 C953 1.495 . S
C950 C949 1.392 . S
C950 C951 1.385 . S
C950 C952 1.478 . S
C951 H945 0.930 . S
C951 C947 1.400 . S
C951 C950 1.385 . S
C952 C950 1.478 . S
C952 C954 1.381 . S
C952 C958 1.383 . S
C953 C949 1.495 . S
C953 H959 0.959 . S
C953 H960 0.961 . S
C953 H961 0.960 . S
C954 C952 1.381 . S
C954 C955 1.394 . S
C954 H962 0.930 . S
C955 C954 1.394 . S
C955 C956 1.383 . S
C955 H963 0.929 . S
C956 C955 1.383 . S
C956 C957 1.377 . S
C957 H941 0.930 . S
C957 C956 1.377 . S
C957 C958 1.379 . S
C958 H942 0.931 . S
C958 C952 1.383 . S
C958 C957 1.379 . S
H959 C953 0.959 . S
H960 C953 0.961 . S
H961 C953 0.960 . S
H962 C954 0.930 . S
H963 C955 0.929 . S
H964 C972 0.929 . S
H965 C974 0.930 . S
H966 C976 0.930 . S
H967 C979 0.929 . S
H968 C982 0.930 . S
H969 C984 0.960 . S
H970 C984 0.960 . S
H971 C984 0.960 . S
C972 H964 0.929 . S
C972 C973 1.377 . S
C972 C974 1.384 . S
C973 C972 1.377 . S
C973 C979 1.390 . S
C974 H965 0.930 . S
C974 C972 1.384 . S
C974 C975 1.372 . S
C975 C974 1.372 . S
C975 C976 1.400 . S
C975 C980 1.490 . S
C976 H966 0.930 . S
C976 C975 1.400 . S
C976 C979 1.386 . S
H977 C993 0.930 . S
H978 C994 0.931 . S
C979 H967 0.929 . S
C979 C973 1.390 . S
C979 C976 1.386 . S
C980 C975 1.490 . S
C980 C982 1.395 . S
C980 C983 1.403 . S
H981 C987 0.930 . S
C982 H968 0.930 . S
C982 C980 1.395 . S
C982 C985 1.403 . S
C983 C980 1.403 . S
C983 C984 1.524 . S
C983 C987 1.400 . S
C984 H969 0.960 . S
C984 H970 0.960 . S
C984 H971 0.960 . S
C984 C983 1.524 . S
C985 C982 1.403 . S
C985 C986 1.392 . S
C985 C989 1.495 . S
C986 C985 1.392 . S
C986 C987 1.385 . S
C986 C988 1.478 . S
C987 H981 0.930 . S
C987 C983 1.400 . S
C987 C986 1.385 . S
C988 C986 1.478 . S
C988 C990 1.381 . S
C988 C994 1.383 . S
C989 C985 1.495 . S
C989 H995 0.959 . S
C989 H996 0.961 . S
C989 H997 0.960 . S
C990 C988 1.381 . S
C990 C991 1.394 . S
C990 H998 0.930 . S
C991 C990 1.394 . S
C991 C992 1.383 . S
C991 H999 0.929 . S
C992 C991 1.383 . S
C992 C993 1.377 . S
C993 H977 0.930 . S
C993 C992 1.377 . S
C993 C994 1.379 . S
C994 H978 0.931 . S
C994 C988 1.383 . S
C994 C993 1.379 . S
H995 C989 0.959 . S
H996 C989 0.961 . S
H997 C989 0.960 . S
H998 C990 0.930 . S
H999 C991 0.929 . S
H1000 C1008 0.929 . S
H1001 C1010 0.930 . S
H1002 C1012 0.930 . S
H1003 C1015 0.929 . S
H1004 C1018 0.930 . S
H1005 C1020 0.960 . S
H1006 C1020 0.960 . S
H1007 C1020 0.960 . S
C1008 H1000 0.929 . S
C1008 C1009 1.377 . S
C1008 C1010 1.384 . S
C1009 C1008 1.377 . S
C1009 C1015 1.390 . S
C1010 H1001 0.930 . S
C1010 C1008 1.384 . S
C1010 C1011 1.372 . S
C1011 C1010 1.372 . S
C1011 C1012 1.400 . S
C1011 C1016 1.490 . S
C1012 H1002 0.930 . S
C1012 C1011 1.400 . S
C1012 C1015 1.386 . S
H1013 C1029 0.930 . S
H1014 C1030 0.931 . S
C1015 H1003 0.929 . S
C1015 C1009 1.390 . S
C1015 C1012 1.386 . S
C1016 C1011 1.490 . S
C1016 C1018 1.395 . S
C1016 C1019 1.403 . S
H1017 C1023 0.930 . S
C1018 H1004 0.930 . S
C1018 C1016 1.395 . S
C1018 C1021 1.403 . S
C1019 C1016 1.403 . S
C1019 C1020 1.524 . S
C1019 C1023 1.400 . S
C1020 H1005 0.960 . S
C1020 H1006 0.960 . S
C1020 H1007 0.960 . S
C1020 C1019 1.524 . S
C1021 C1018 1.403 . S
C1021 C1022 1.392 . S
C1021 C1025 1.495 . S
C1022 C1021 1.392 . S
C1022 C1023 1.385 . S
C1022 C1024 1.478 . S
C1023 H1017 0.930 . S
C1023 C1019 1.400 . S
C1023 C1022 1.385 . S
C1024 C1022 1.478 . S
C1024 C1026 1.381 . S
C1024 C1030 1.383 . S
C1025 C1021 1.495 . S
C1025 H1031 0.959 . S
C1025 H1032 0.961 . S
C1025 H1033 0.960 . S
C1026 C1024 1.381 . S
C1026 C1027 1.394 . S
C1026 H1034 0.930 . S
C1027 C1026 1.394 . S
C1027 C1028 1.383 . S
C1027 H1035 0.929 . S
C1028 C1027 1.383 . S
C1028 C1029 1.377 . S
C1029 H1013 0.930 . S
C1029 C1028 1.377 . S
C1029 C1030 1.379 . S
C1030 H1014 0.931 . S
C1030 C1024 1.383 . S
C1030 C1029 1.379 . S
H1031 C1025 0.959 . S
H1032 C1025 0.961 . S
H1033 C1025 0.960 . S
H1034 C1026 0.930 . S
H1035 C1027 0.929 . S
H1036 C1044 0.929 . S
H1037 C1046 0.930 . S
H1038 C1048 0.930 . S
H1039 C1051 0.929 . S
H1040 C1054 0.930 . S
H1041 C1056 0.960 . S
H1042 C1056 0.960 . S
H1043 C1056 0.960 . S
C1044 H1036 0.929 . S
C1044 C1045 1.377 . S
C1044 C1046 1.384 . S
C1045 C1044 1.377 . S
C1045 C1051 1.390 . S
C1046 H1037 0.930 . S
C1046 C1044 1.384 . S
C1046 C1047 1.372 . S
C1047 C1046 1.372 . S
C1047 C1048 1.400 . S
C1047 C1052 1.490 . S
C1048 H1038 0.930 . S
C1048 C1047 1.400 . S
C1048 C1051 1.386 . S
H1049 C1065 0.930 . S
H1050 C1066 0.931 . S
C1051 H1039 0.929 . S
C1051 C1045 1.390 . S
C1051 C1048 1.386 . S
C1052 C1047 1.490 . S
C1052 C1054 1.395 . S
C1052 C1055 1.403 . S
H1053 C1059 0.930 . S
C1054 H1040 0.930 . S
C1054 C1052 1.395 . S
C1054 C1057 1.403 . S
C1055 C1052 1.403 . S
C1055 C1056 1.524 . S
C1055 C1059 1.400 . S
C1056 H1041 0.960 . S
C1056 H1042 0.960 . S
C1056 H1043 0.960 . S
C1056 C1055 1.524 . S
C1057 C1054 1.403 . S
C1057 C1058 1.392 . S
C1057 C1061 1.495 . S
C1058 C1057 1.392 . S
C1058 C1059 1.385 . S
C1058 C1060 1.478 . S
C1059 H1053 0.930 . S
C1059 C1055 1.400 . S
C1059 C1058 1.385 . S
C1060 C1058 1.478 . S
C1060 C1062 1.381 . S
C1060 C1066 1.383 . S
C1061 C1057 1.495 . S
C1061 H1067 0.959 . S
C1061 H1068 0.961 . S
C1061 H1069 0.960 . S
C1062 C1060 1.381 . S
C1062 C1063 1.394 . S
C1062 H1070 0.930 . S
C1063 C1062 1.394 . S
C1063 C1064 1.383 . S
C1063 H1071 0.929 . S
C1064 C1063 1.383 . S
C1064 C1065 1.377 . S
C1065 H1049 0.930 . S
C1065 C1064 1.377 . S
C1065 C1066 1.379 . S
C1066 H1050 0.931 . S
C1066 C1060 1.383 . S
C1066 C1065 1.379 . S
H1067 C1061 0.959 . S
H1068 C1061 0.961 . S
H1069 C1061 0.960 . S
H1070 C1062 0.930 . S
H1071 C1063 0.929 . S
H1072 C1080 0.929 . S
H1073 C1082 0.930 . S
H1074 C1084 0.930 . S
H1075 C1087 0.929 . S
H1076 C1090 0.930 . S
H1077 C1092 0.960 . S
H1078 C1092 0.960 . S
H1079 C1092 0.960 . S
C1080 H1072 0.929 . S
C1080 C1081 1.377 . S
C1080 C1082 1.384 . S
C1081 C1080 1.377 . S
C1081 C1087 1.390 . S
C1082 H1073 0.930 . S
C1082 C1080 1.384 . S
C1082 C1083 1.372 . S
C1083 C1082 1.372 . S
C1083 C1084 1.400 . S
C1083 C1088 1.490 . S
C1084 H1074 0.930 . S
C1084 C1083 1.400 . S
C1084 C1087 1.386 . S
H1085 C1101 0.930 . S
H1086 C1102 0.931 . S
C1087 H1075 0.929 . S
C1087 C1081 1.390 . S
C1087 C1084 1.386 . S
C1088 C1083 1.490 . S
C1088 C1090 1.395 . S
C1088 C1091 1.403 . S
H1089 C1095 0.930 . S
C1090 H1076 0.930 . S
C1090 C1088 1.395 . S
C1090 C1093 1.403 . S
C1091 C1088 1.403 . S
C1091 C1092 1.524 . S
C1091 C1095 1.400 . S
C1092 H1077 0.960 . S
C1092 H1078 0.960 . S
C1092 H1079 0.960 . S
C1092 C1091 1.524 . S
C1093 C1090 1.403 . S
C1093 C1094 1.392 . S
C1093 C1097 1.495 . S
C1094 C1093 1.392 . S
C1094 C1095 1.385 . S
C1094 C1096 1.478 . S
C1095 H1089 0.930 . S
C1095 C1091 1.400 . S
C1095 C1094 1.385 . S
C1096 C1094 1.478 . S
C1096 C1098 1.381 . S
C1096 C1102 1.383 . S
C1097 C1093 1.495 . S
C1097 H1103 0.959 . S
C1097 H1104 0.961 . S
C1097 H1105 0.960 . S
C1098 C1096 1.381 . S
C1098 C1099 1.394 . S
C1098 H1106 0.930 . S
C1099 C1098 1.394 . S
C1099 C1100 1.383 . S
C1099 H1107 0.929 . S
C1100 C1099 1.383 . S
C1100 C1101 1.377 . S
C1101 H1085 0.930 . S
C1101 C1100 1.377 . S
C1101 C1102 1.379 . S
C1102 H1086 0.931 . S
C1102 C1096 1.383 . S
C1102 C1101 1.379 . S
H1103 C1097 0.959 . S
H1104 C1097 0.961 . S
H1105 C1097 0.960 . S
H1106 C1098 0.930 . S
H1107 C1099 0.929 . S
H1108 C1116 0.929 . S
H1109 C1118 0.930 . S
H1110 C1120 0.930 . S
H1111 C1123 0.929 . S
H1112 C1126 0.930 . S
H1113 C1128 0.960 . S
H1114 C1128 0.960 . S
H1115 C1128 0.960 . S
C1116 H1108 0.929 . S
C1116 C1117 1.377 . S
C1116 C1118 1.384 . S
C1117 C1116 1.377 . S
C1117 C1123 1.390 . S
C1118 H1109 0.930 . S
C1118 C1116 1.384 . S
C1118 C1119 1.372 . S
C1119 C1118 1.372 . S
C1119 C1120 1.400 . S
C1119 C1124 1.490 . S
C1120 H1110 0.930 . S
C1120 C1119 1.400 . S
C1120 C1123 1.386 . S
H1121 C1137 0.930 . S
H1122 C1138 0.931 . S
C1123 H1111 0.929 . S
C1123 C1117 1.390 . S
C1123 C1120 1.386 . S
C1124 C1119 1.490 . S
C1124 C1126 1.395 . S
C1124 C1127 1.403 . S
H1125 C1131 0.930 . S
C1126 H1112 0.930 . S
C1126 C1124 1.395 . S
C1126 C1129 1.403 . S
C1127 C1124 1.403 . S
C1127 C1128 1.524 . S
C1127 C1131 1.400 . S
C1128 H1113 0.960 . S
C1128 H1114 0.960 . S
C1128 H1115 0.960 . S
C1128 C1127 1.524 . S
C1129 C1126 1.403 . S
C1129 C1130 1.392 . S
C1129 C1133 1.495 . S
C1130 C1129 1.392 . S
C1130 C1131 1.385 . S
C1130 C1132 1.478 . S
C1131 H1125 0.930 . S
C1131 C1127 1.400 . S
C1131 C1130 1.385 . S
C1132 C1130 1.478 . S
C1132 C1134 1.381 . S
C1132 C1138 1.383 . S
C1133 C1129 1.495 . S
C1133 H1139 0.959 . S
C1133 H1140 0.961 . S
C1133 H1141 0.960 . S
C1134 C1132 1.381 . S
C1134 C1135 1.394 . S
C1134 H1142 0.930 . S
C1135 C1134 1.394 . S
C1135 C1136 1.383 . S
C1135 H1143 0.929 . S
C1136 C1135 1.383 . S
C1136 C1137 1.377 . S
C1137 H1121 0.930 . S
C1137 C1136 1.377 . S
C1137 C1138 1.379 . S
C1138 H1122 0.931 . S
C1138 C1132 1.383 . S
C1138 C1137 1.379 . S
H1139 C1133 0.959 . S
H1140 C1133 0.961 . S
H1141 C1133 0.960 . S
H1142 C1134 0.930 . S
H1143 C1135 0.929 . S
H1144 C1152 0.929 . S
H1145 C1154 0.930 . S
H1146 C1156 0.930 . S
H1147 C1159 0.929 . S
H1148 C1162 0.930 . S
H1149 C1164 0.960 . S
H1150 C1164 0.960 . S
H1151 C1164 0.960 . S
C1152 H1144 0.929 . S
C1152 C1153 1.377 . S
C1152 C1154 1.384 . S
C1153 C1152 1.377 . S
C1153 C1159 1.390 . S
C1154 H1145 0.930 . S
C1154 C1152 1.384 . S
C1154 C1155 1.372 . S
C1155 C1154 1.372 . S
C1155 C1156 1.400 . S
C1155 C1160 1.490 . S
C1156 H1146 0.930 . S
C1156 C1155 1.400 . S
C1156 C1159 1.386 . S
H1157 C1173 0.930 . S
H1158 C1174 0.931 . S
C1159 H1147 0.929 . S
C1159 C1153 1.390 . S
C1159 C1156 1.386 . S
C1160 C1155 1.490 . S
C1160 C1162 1.395 . S
C1160 C1163 1.403 . S
H1161 C1167 0.930 . S
C1162 H1148 0.930 . S
C1162 C1160 1.395 . S
C1162 C1165 1.403 . S
C1163 C1160 1.403 . S
C1163 C1164 1.524 . S
C1163 C1167 1.400 . S
C1164 H1149 0.960 . S
C1164 H1150 0.960 . S
C1164 H1151 0.960 . S
C1164 C1163 1.524 . S
C1165 C1162 1.403 . S
C1165 C1166 1.392 . S
C1165 C1169 1.495 . S
C1166 C1165 1.392 . S
C1166 C1167 1.385 . S
C1166 C1168 1.478 . S
C1167 H1161 0.930 . S
C1167 C1163 1.400 . S
C1167 C1166 1.385 . S
C1168 C1166 1.478 . S
C1168 C1170 1.381 . S
C1168 C1174 1.383 . S
C1169 C1165 1.495 . S
C1169 H1175 0.959 . S
C1169 H1176 0.961 . S
C1169 H1177 0.960 . S
C1170 C1168 1.381 . S
C1170 C1171 1.394 . S
C1170 H1178 0.930 . S
C1171 C1170 1.394 . S
C1171 C1172 1.383 . S
C1171 H1179 0.929 . S
C1172 C1171 1.383 . S
C1172 C1173 1.377 . S
C1173 H1157 0.930 . S
C1173 C1172 1.377 . S
C1173 C1174 1.379 . S
C1174 H1158 0.931 . S
C1174 C1168 1.383 . S
C1174 C1173 1.379 . S
H1175 C1169 0.959 . S
H1176 C1169 0.961 . S
H1177 C1169 0.960 . S
H1178 C1170 0.930 . S
H1179 C1171 0.929 . S
H1180 C1188 0.929 . S
H1181 C1190 0.930 . S
H1182 C1192 0.930 . S
H1183 C1195 0.929 . S
H1184 C1198 0.930 . S
H1185 C1200 0.960 . S
H1186 C1200 0.960 . S
H1187 C1200 0.960 . S
C1188 H1180 0.929 . S
C1188 C1189 1.377 . S
C1188 C1190 1.384 . S
C1189 C1188 1.377 . S
C1189 C1195 1.390 . S
C1190 H1181 0.930 . S
C1190 C1188 1.384 . S
C1190 C1191 1.372 . S
C1191 C1190 1.372 . S
C1191 C1192 1.400 . S
C1191 C1196 1.490 . S
C1192 H1182 0.930 . S
C1192 C1191 1.400 . S
C1192 C1195 1.386 . S
H1193 C1209 0.930 . S
H1194 C1210 0.931 . S
C1195 H1183 0.929 . S
C1195 C1189 1.390 . S
C1195 C1192 1.386 . S
C1196 C1191 1.490 . S
C1196 C1198 1.395 . S
C1196 C1199 1.403 . S
H1197 C1203 0.930 . S
C1198 H1184 0.930 . S
C1198 C1196 1.395 . S
C1198 C1201 1.403 . S
C1199 C1196 1.403 . S
C1199 C1200 1.524 . S
C1199 C1203 1.400 . S
C1200 H1185 0.960 . S
C1200 H1186 0.960 . S
C1200 H1187 0.960 . S
C1200 C1199 1.524 . S
C1201 C1198 1.403 . S
C1201 C1202 1.392 . S
C1201 C1205 1.495 . S
C1202 C1201 1.392 . S
C1202 C1203 1.385 . S
C1202 C1204 1.478 . S
C1203 H1197 0.930 . S
C1203 C1199 1.400 . S
C1203 C1202 1.385 . S
C1204 C1202 1.478 . S
C1204 C1206 1.381 . S
C1204 C1210 1.383 . S
C1205 C1201 1.495 . S
C1205 H1211 0.959 . S
C1205 H1212 0.961 . S
C1205 H1213 0.960 . S
C1206 C1204 1.381 . S
C1206 C1207 1.394 . S
C1206 H1214 0.930 . S
C1207 C1206 1.394 . S
C1207 C1208 1.383 . S
C1207 H1215 0.929 . S
C1208 C1207 1.383 . S
C1208 C1209 1.377 . S
C1209 H1193 0.930 . S
C1209 C1208 1.377 . S
C1209 C1210 1.379 . S
C1210 H1194 0.931 . S
C1210 C1204 1.383 . S
C1210 C1209 1.379 . S
H1211 C1205 0.959 . S
H1212 C1205 0.961 . S
H1213 C1205 0.960 . S
H1214 C1206 0.930 . S
H1215 C1207 0.929 . S
H1216 C1224 0.929 . S
H1217 C1226 0.930 . S
H1218 C1228 0.930 . S
H1219 C1231 0.929 . S
H1220 C1234 0.930 . S
H1221 C1236 0.960 . S
H1222 C1236 0.960 . S
H1223 C1236 0.960 . S
C1224 H1216 0.929 . S
C1224 C1225 1.377 . S
C1224 C1226 1.384 . S
C1225 C1224 1.377 . S
C1225 C1231 1.390 . S
C1226 H1217 0.930 . S
C1226 C1224 1.384 . S
C1226 C1227 1.372 . S
C1227 C1226 1.372 . S
C1227 C1228 1.400 . S
C1227 C1232 1.490 . S
C1228 H1218 0.930 . S
C1228 C1227 1.400 . S
C1228 C1231 1.386 . S
H1229 C1245 0.930 . S
H1230 C1246 0.931 . S
C1231 H1219 0.929 . S
C1231 C1225 1.390 . S
C1231 C1228 1.386 . S
C1232 C1227 1.490 . S
C1232 C1234 1.395 . S
C1232 C1235 1.403 . S
H1233 C1239 0.930 . S
C1234 H1220 0.930 . S
C1234 C1232 1.395 . S
C1234 C1237 1.403 . S
C1235 C1232 1.403 . S
C1235 C1236 1.524 . S
C1235 C1239 1.400 . S
C1236 H1221 0.960 . S
C1236 H1222 0.960 . S
C1236 H1223 0.960 . S
C1236 C1235 1.524 . S
C1237 C1234 1.403 . S
C1237 C1238 1.392 . S
C1237 C1241 1.495 . S
C1238 C1237 1.392 . S
C1238 C1239 1.385 . S
C1238 C1240 1.478 . S
C1239 H1233 0.930 . S
C1239 C1235 1.400 . S
C1239 C1238 1.385 . S
C1240 C1238 1.478 . S
C1240 C1242 1.381 . S
C1240 C1246 1.383 . S
C1241 C1237 1.495 . S
C1241 H1247 0.959 . S
C1241 H1248 0.961 . S
C1241 H1249 0.960 . S
C1242 C1240 1.381 . S
C1242 C1243 1.394 . S
C1242 H1250 0.930 . S
C1243 C1242 1.394 . S
C1243 C1244 1.383 . S
C1243 H1251 0.929 . S
C1244 C1243 1.383 . S
C1244 C1245 1.377 . S
C1245 H1229 0.930 . S
C1245 C1244 1.377 . S
C1245 C1246 1.379 . S
C1246 H1230 0.931 . S
C1246 C1240 1.383 . S
C1246 C1245 1.379 . S
H1247 C1241 0.959 . S
H1248 C1241 0.961 . S
H1249 C1241 0.960 . S
H1250 C1242 0.930 . S
H1251 C1243 0.929 . S
H1252 C1260 0.929 . S
H1253 C1262 0.930 . S
H1254 C1264 0.930 . S
H1255 C1267 0.929 . S
H1256 C1270 0.930 . S
H1257 C1272 0.960 . S
H1258 C1272 0.960 . S
H1259 C1272 0.960 . S
C1260 H1252 0.929 . S
C1260 C1261 1.377 . S
C1260 C1262 1.384 . S
C1261 C1260 1.377 . S
C1261 C1267 1.390 . S
C1262 H1253 0.930 . S
C1262 C1260 1.384 . S
C1262 C1263 1.372 . S
C1263 C1262 1.372 . S
C1263 C1264 1.400 . S
C1263 C1268 1.490 . S
C1264 H1254 0.930 . S
C1264 C1263 1.400 . S
C1264 C1267 1.386 . S
H1265 C1281 0.930 . S
H1266 C1282 0.931 . S
C1267 H1255 0.929 . S
C1267 C1261 1.390 . S
C1267 C1264 1.386 . S
C1268 C1263 1.490 . S
C1268 C1270 1.395 . S
C1268 C1271 1.403 . S
H1269 C1275 0.930 . S
C1270 H1256 0.930 . S
C1270 C1268 1.395 . S
C1270 C1273 1.403 . S
C1271 C1268 1.403 . S
C1271 C1272 1.524 . S
C1271 C1275 1.400 . S
C1272 H1257 0.960 . S
C1272 H1258 0.960 . S
C1272 H1259 0.960 . S
C1272 C1271 1.524 . S
C1273 C1270 1.403 . S
C1273 C1274 1.392 . S
C1273 C1277 1.495 . S
C1274 C1273 1.392 . S
C1274 C1275 1.385 . S
C1274 C1276 1.478 . S
C1275 H1269 0.930 . S
C1275 C1271 1.400 . S
C1275 C1274 1.385 . S
C1276 C1274 1.478 . S
C1276 C1278 1.381 . S
C1276 C1282 1.383 . S
C1277 C1273 1.495 . S
C1277 H1283 0.959 . S
C1277 H1284 0.961 . S
C1277 H1285 0.960 . S
C1278 C1276 1.381 . S
C1278 C1279 1.394 . S
C1278 H1286 0.930 . S
C1279 C1278 1.394 . S
C1279 C1280 1.383 . S
C1279 H1287 0.929 . S
C1280 C1279 1.383 . S
C1280 C1281 1.377 . S
C1281 H1265 0.930 . S
C1281 C1280 1.377 . S
C1281 C1282 1.379 . S
C1282 H1266 0.931 . S
C1282 C1276 1.383 . S
C1282 C1281 1.379 . S
H1283 C1277 0.959 . S
H1284 C1277 0.961 . S
H1285 C1277 0.960 . S
H1286 C1278 0.930 . S
H1287 C1279 0.929 . S
H1288 C1296 0.929 . S
H1289 C1298 0.930 . S
H1290 C1300 0.930 . S
H1291 C1303 0.929 . S
H1292 C1306 0.930 . S
H1293 C1308 0.960 . S
H1294 C1308 0.960 . S
H1295 C1308 0.960 . S
C1296 H1288 0.929 . S
C1296 C1297 1.377 . S
C1296 C1298 1.384 . S
C1297 C1296 1.377 . S
C1297 C1303 1.390 . S
C1298 H1289 0.930 . S
C1298 C1296 1.384 . S
C1298 C1299 1.372 . S
C1299 C1298 1.372 . S
C1299 C1300 1.400 . S
C1299 C1304 1.490 . S
C1300 H1290 0.930 . S
C1300 C1299 1.400 . S
C1300 C1303 1.386 . S
H1301 C1317 0.930 . S
H1302 C1318 0.931 . S
C1303 H1291 0.929 . S
C1303 C1297 1.390 . S
C1303 C1300 1.386 . S
C1304 C1299 1.490 . S
C1304 C1306 1.395 . S
C1304 C1307 1.403 . S
H1305 C1311 0.930 . S
C1306 H1292 0.930 . S
C1306 C1304 1.395 . S
C1306 C1309 1.403 . S
C1307 C1304 1.403 . S
C1307 C1308 1.524 . S
C1307 C1311 1.400 . S
C1308 H1293 0.960 . S
C1308 H1294 0.960 . S
C1308 H1295 0.960 . S
C1308 C1307 1.524 . S
C1309 C1306 1.403 . S
C1309 C1310 1.392 . S
C1309 C1313 1.495 . S
C1310 C1309 1.392 . S
C1310 C1311 1.385 . S
C1310 C1312 1.478 . S
C1311 H1305 0.930 . S
C1311 C1307 1.400 . S
C1311 C1310 1.385 . S
C1312 C1310 1.478 . S
C1312 C1314 1.381 . S
C1312 C1318 1.383 . S
C1313 C1309 1.495 . S
C1313 H1319 0.959 . S
C1313 H1320 0.961 . S
C1313 H1321 0.960 . S
C1314 C1312 1.381 . S
C1314 C1315 1.394 . S
C1314 H1322 0.930 . S
C1315 C1314 1.394 . S
C1315 C1316 1.383 . S
C1315 H1323 0.929 . S
C1316 C1315 1.383 . S
C1316 C1317 1.377 . S
C1317 H1301 0.930 . S
C1317 C1316 1.377 . S
C1317 C1318 1.379 . S
C1318 H1302 0.931 . S
C1318 C1312 1.383 . S
C1318 C1317 1.379 . S
H1319 C1313 0.959 . S
H1320 C1313 0.961 . S
H1321 C1313 0.960 . S
H1322 C1314 0.930 . S
H1323 C1315 0.929 . S
H1324 C1332 0.929 . S
H1325 C1334 0.930 . S
H1326 C1336 0.930 . S
H1327 C1339 0.929 . S
H1328 C1342 0.930 . S
H1329 C1344 0.960 . S
H1330 C1344 0.960 . S
H1331 C1344 0.960 . S
C1332 H1324 0.929 . S
C1332 C1333 1.377 . S
C1332 C1334 1.384 . S
C1333 C1332 1.377 . S
C1333 C1339 1.390 . S
C1334 H1325 0.930 . S
C1334 C1332 1.384 . S
C1334 C1335 1.372 . S
C1335 C1334 1.372 . S
C1335 C1336 1.400 . S
C1335 C1340 1.490 . S
C1336 H1326 0.930 . S
C1336 C1335 1.400 . S
C1336 C1339 1.386 . S
H1337 C1353 0.930 . S
H1338 C1354 0.931 . S
C1339 H1327 0.929 . S
C1339 C1333 1.390 . S
C1339 C1336 1.386 . S
C1340 C1335 1.490 . S
C1340 C1342 1.395 . S
C1340 C1343 1.403 . S
H1341 C1347 0.930 . S
C1342 H1328 0.930 . S
C1342 C1340 1.395 . S
C1342 C1345 1.403 . S
C1343 C1340 1.403 . S
C1343 C1344 1.524 . S
C1343 C1347 1.400 . S
C1344 H1329 0.960 . S
C1344 H1330 0.960 . S
C1344 H1331 0.960 . S
C1344 C1343 1.524 . S
C1345 C1342 1.403 . S
C1345 C1346 1.392 . S
C1345 C1349 1.495 . S
C1346 C1345 1.392 . S
C1346 C1347 1.385 . S
C1346 C1348 1.478 . S
C1347 H1341 0.930 . S
C1347 C1343 1.400 . S
C1347 C1346 1.385 . S
C1348 C1346 1.478 . S
C1348 C1350 1.381 . S
C1348 C1354 1.383 . S
C1349 C1345 1.495 . S
C1349 H1355 0.959 . S
C1349 H1356 0.961 . S
C1349 H1357 0.960 . S
C1350 C1348 1.381 . S
C1350 C1351 1.394 . S
C1350 H1358 0.930 . S
C1351 C1350 1.394 . S
C1351 C1352 1.383 . S
C1351 H1359 0.929 . S
C1352 C1351 1.383 . S
C1352 C1353 1.377 . S
C1353 H1337 0.930 . S
C1353 C1352 1.377 . S
C1353 C1354 1.379 . S
C1354 H1338 0.931 . S
C1354 C1348 1.383 . S
C1354 C1353 1.379 . S
H1355 C1349 0.959 . S
H1356 C1349 0.961 . S
H1357 C1349 0.960 . S
H1358 C1350 0.930 . S
H1359 C1351 0.929 . S
H1360 C1368 0.929 . S
H1361 C1370 0.930 . S
H1362 C1372 0.930 . S
H1363 C1375 0.929 . S
H1364 C1378 0.930 . S
H1365 C1380 0.960 . S
H1366 C1380 0.960 . S
H1367 C1380 0.960 . S
C1368 H1360 0.929 . S
C1368 C1369 1.377 . S
C1368 C1370 1.384 . S
C1369 C1368 1.377 . S
C1369 C1375 1.390 . S
C1370 H1361 0.930 . S
C1370 C1368 1.384 . S
C1370 C1371 1.372 . S
C1371 C1370 1.372 . S
C1371 C1372 1.400 . S
C1371 C1376 1.490 . S
C1372 H1362 0.930 . S
C1372 C1371 1.400 . S
C1372 C1375 1.386 . S
H1373 C1389 0.930 . S
H1374 C1390 0.931 . S
C1375 H1363 0.929 . S
C1375 C1369 1.390 . S
C1375 C1372 1.386 . S
C1376 C1371 1.490 . S
C1376 C1378 1.395 . S
C1376 C1379 1.403 . S
H1377 C1383 0.930 . S
C1378 H1364 0.930 . S
C1378 C1376 1.395 . S
C1378 C1381 1.403 . S
C1379 C1376 1.403 . S
C1379 C1380 1.524 . S
C1379 C1383 1.400 . S
C1380 H1365 0.960 . S
C1380 H1366 0.960 . S
C1380 H1367 0.960 . S
C1380 C1379 1.524 . S
C1381 C1378 1.403 . S
C1381 C1382 1.392 . S
C1381 C1385 1.495 . S
C1382 C1381 1.392 . S
C1382 C1383 1.385 . S
C1382 C1384 1.478 . S
C1383 H1377 0.930 . S
C1383 C1379 1.400 . S
C1383 C1382 1.385 . S
C1384 C1382 1.478 . S
C1384 C1386 1.381 . S
C1384 C1390 1.383 . S
C1385 C1381 1.495 . S
C1385 H1391 0.959 . S
C1385 H1392 0.961 . S
C1385 H1393 0.960 . S
C1386 C1384 1.381 . S
C1386 C1387 1.394 . S
C1386 H1394 0.930 . S
C1387 C1386 1.394 . S
C1387 C1388 1.383 . S
C1387 H1395 0.929 . S
C1388 C1387 1.383 . S
C1388 C1389 1.377 . S
C1389 H1373 0.930 . S
C1389 C1388 1.377 . S
C1389 C1390 1.379 . S
C1390 H1374 0.931 . S
C1390 C1384 1.383 . S
C1390 C1389 1.379 . S
H1391 C1385 0.959 . S
H1392 C1385 0.961 . S
H1393 C1385 0.960 . S
H1394 C1386 0.930 . S
H1395 C1387 0.929 . S
H1396 C1404 0.929 . S
H1397 C1406 0.930 . S
H1398 C1408 0.930 . S
H1399 C1411 0.929 . S
H1400 C1414 0.930 . S
H1401 C1416 0.960 . S
H1402 C1416 0.960 . S
H1403 C1416 0.960 . S
C1404 H1396 0.929 . S
C1404 C1405 1.377 . S
C1404 C1406 1.384 . S
C1405 C1404 1.377 . S
C1405 C1411 1.390 . S
C1406 H1397 0.930 . S
C1406 C1404 1.384 . S
C1406 C1407 1.372 . S
C1407 C1406 1.372 . S
C1407 C1408 1.400 . S
C1407 C1412 1.490 . S
C1408 H1398 0.930 . S
C1408 C1407 1.400 . S
C1408 C1411 1.386 . S
H1409 C1425 0.930 . S
H1410 C1426 0.931 . S
C1411 H1399 0.929 . S
C1411 C1405 1.390 . S
C1411 C1408 1.386 . S
C1412 C1407 1.490 . S
C1412 C1414 1.395 . S
C1412 C1415 1.403 . S
H1413 C1419 0.930 . S
C1414 H1400 0.930 . S
C1414 C1412 1.395 . S
C1414 C1417 1.403 . S
C1415 C1412 1.403 . S
C1415 C1416 1.524 . S
C1415 C1419 1.400 . S
C1416 H1401 0.960 . S
C1416 H1402 0.960 . S
C1416 H1403 0.960 . S
C1416 C1415 1.524 . S
C1417 C1414 1.403 . S
C1417 C1418 1.392 . S
C1417 C1421 1.495 . S
C1418 C1417 1.392 . S
C1418 C1419 1.385 . S
C1418 C1420 1.478 . S
C1419 H1413 0.930 . S
C1419 C1415 1.400 . S
C1419 C1418 1.385 . S
C1420 C1418 1.478 . S
C1420 C1422 1.381 . S
C1420 C1426 1.383 . S
C1421 C1417 1.495 . S
C1421 H1427 0.959 . S
C1421 H1428 0.961 . S
C1421 H1429 0.960 . S
C1422 C1420 1.381 . S
C1422 C1423 1.394 . S
C1422 H1430 0.930 . S
C1423 C1422 1.394 . S
C1423 C1424 1.383 . S
C1423 H1431 0.929 . S
C1424 C1423 1.383 . S
C1424 C1425 1.377 . S
C1425 H1409 0.930 . S
C1425 C1424 1.377 . S
C1425 C1426 1.379 . S
C1426 H1410 0.931 . S
C1426 C1420 1.383 . S
C1426 C1425 1.379 . S
H1427 C1421 0.959 . S
H1428 C1421 0.961 . S
H1429 C1421 0.960 . S
H1430 C1422 0.930 . S
H1431 C1423 0.929 . S
C308 C169 1.499 . S
C289 C12 1.401 . S
C344 C195 1.505 . S
C325 C33 1.402 . S
C380 C209 1.507 . S
C361 C51 1.422 . S
C416 C211 1.508 . S
C397 C75 1.395 . S
C433 C103 1.436 . S
C452 C208 1.505 . S
C488 C210 1.501 . S
C469 C122 1.413 . S
C524 C168 1.497 . S
C505 C145 1.424 . S
C560 C194 1.502 . S
C541 C166 1.428 . S
C596 C196 1.505 . S
C577 C164 1.406 . S
C632 C222 1.519 . S
C613 C101 1.418 . S
C668 C180 1.503 . S
C649 C124 1.432 . S
C704 C182 1.503 . S
C685 C143 1.414 . S
C740 C181 1.503 . S
C721 C30 1.420 . S
C776 C183 1.512 . S
C757 C54 1.411 . S
C812 C197 1.494 . S
C793 C72 1.410 . S
C848 C223 1.500 . S
C829 C9 1.415 . S
C884 C225 1.506 . S
C865 C159 1.390 . S
C901 C96 1.410 . S
C920 C251 1.507 . S
C937 C114 1.423 . S
C956 C264 1.500 . S
C973 C138 1.410 . S
C992 C267 1.506 . S
C1009 C40 1.431 . S
C1028 C265 1.497 . S
C1045 C59 1.400 . S
C1064 C266 1.508 . S
C1081 C82 1.418 . S
C1100 C224 1.485 . S
C1136 C250 1.495 . S
C1117 C19 1.431 . S
C1172 C253 1.504 . S
C1153 C17 1.407 . S
C1189 C38 1.412 . S
C1208 C278 1.508 . S
C1225 C61 1.432 . S
C1244 C236 1.502 . S
C1261 C80 1.406 . S
C1280 C238 1.509 . S
C1316 C237 1.504 . S
C1297 C93 1.422 . S
C1352 C239 1.513 . S
C1333 C117 1.401 . S
C1369 C135 1.410 . S
C1388 C252 1.495 . S
C1424 C279 1.499 . S
C1405 C156 1.415 . S
