# Generated by pormake.
# Topology tbo, (3,4)-cn, num edge types: 1
# Building blocks:
#     Node 0, Type 0, BuildingBlock: MIDCAF_clean_linker_0, # of connection points: 3
#     Node 1, Type 0, BuildingBlock: MIDCAF_clean_linker_0, # of connection points: 3
#     Node 2, Type 0, BuildingBlock: MIDCAF_clean_linker_0, # of connection points: 3
#     Node 3, Type 0, BuildingBlock: MIDCAF_clean_linker_0, # of connection points: 3
#     Node 4, Type 0, BuildingBlock: MIDCAF_clean_linker_0, # of connection points: 3
#     Node 5, Type 0, BuildingBlock: MIDCAF_clean_linker_0, # of connection points: 3
#     Node 6, Type 0, BuildingBlock: MIDCAF_clean_linker_0, # of connection points: 3
#     Node 7, Type 0, BuildingBlock: MIDCAF_clean_linker_0, # of connection points: 3
#     Node 8, Type 0, BuildingBlock: MIDCAF_clean_linker_0, # of connection points: 3
#     Node 9, Type 0, BuildingBlock: MIDCAF_clean_linker_0, # of connection points: 3
#     Node 10, Type 0, BuildingBlock: MIDCAF_clean_linker_0, # of connection points: 3
#     Node 11, Type 0, BuildingBlock: MIDCAF_clean_linker_0, # of connection points: 3
#     Node 12, Type 0, BuildingBlock: MIDCAF_clean_linker_0, # of connection points: 3
#     Node 13, Type 0, BuildingBlock: MIDCAF_clean_linker_0, # of connection points: 3
#     Node 14, Type 0, BuildingBlock: MIDCAF_clean_linker_0, # of connection points: 3
#     Node 15, Type 0, BuildingBlock: MIDCAF_clean_linker_0, # of connection points: 3
#     Node 16, Type 0, BuildingBlock: MIDCAF_clean_linker_0, # of connection points: 3
#     Node 17, Type 0, BuildingBlock: MIDCAF_clean_linker_0, # of connection points: 3
#     Node 18, Type 0, BuildingBlock: MIDCAF_clean_linker_0, # of connection points: 3
#     Node 19, Type 0, BuildingBlock: MIDCAF_clean_linker_0, # of connection points: 3
#     Node 20, Type 0, BuildingBlock: MIDCAF_clean_linker_0, # of connection points: 3
#     Node 21, Type 0, BuildingBlock: MIDCAF_clean_linker_0, # of connection points: 3
#     Node 22, Type 0, BuildingBlock: MIDCAF_clean_linker_0, # of connection points: 3
#     Node 23, Type 0, BuildingBlock: MIDCAF_clean_linker_0, # of connection points: 3
#     Node 24, Type 0, BuildingBlock: MIDCAF_clean_linker_0, # of connection points: 3
#     Node 25, Type 0, BuildingBlock: MIDCAF_clean_linker_0, # of connection points: 3
#     Node 26, Type 0, BuildingBlock: MIDCAF_clean_linker_0, # of connection points: 3
#     Node 27, Type 0, BuildingBlock: MIDCAF_clean_linker_0, # of connection points: 3
#     Node 28, Type 0, BuildingBlock: MIDCAF_clean_linker_0, # of connection points: 3
#     Node 29, Type 0, BuildingBlock: MIDCAF_clean_linker_0, # of connection points: 3
#     Node 30, Type 0, BuildingBlock: MIDCAF_clean_linker_0, # of connection points: 3
#     Node 31, Type 0, BuildingBlock: MIDCAF_clean_linker_0, # of connection points: 3
#     Node 32, Type 1, BuildingBlock: ESEHIV_clean_sbu_0, # of connection points: 4
#     Node 33, Type 1, BuildingBlock: ESEHIV_clean_sbu_0, # of connection points: 4
#     Node 34, Type 1, BuildingBlock: ESEHIV_clean_sbu_0, # of connection points: 4
#     Node 35, Type 1, BuildingBlock: ESEHIV_clean_sbu_0, # of connection points: 4
#     Node 36, Type 1, BuildingBlock: ESEHIV_clean_sbu_0, # of connection points: 4
#     Node 37, Type 1, BuildingBlock: ESEHIV_clean_sbu_0, # of connection points: 4
#     Node 38, Type 1, BuildingBlock: ESEHIV_clean_sbu_0, # of connection points: 4
#     Node 39, Type 1, BuildingBlock: ESEHIV_clean_sbu_0, # of connection points: 4
#     Node 40, Type 1, BuildingBlock: ESEHIV_clean_sbu_0, # of connection points: 4
#     Node 41, Type 1, BuildingBlock: ESEHIV_clean_sbu_0, # of connection points: 4
#     Node 42, Type 1, BuildingBlock: ESEHIV_clean_sbu_0, # of connection points: 4
#     Node 43, Type 1, BuildingBlock: ESEHIV_clean_sbu_0, # of connection points: 4
#     Node 44, Type 1, BuildingBlock: ESEHIV_clean_sbu_0, # of connection points: 4
#     Node 45, Type 1, BuildingBlock: ESEHIV_clean_sbu_0, # of connection points: 4
#     Node 46, Type 1, BuildingBlock: ESEHIV_clean_sbu_0, # of connection points: 4
#     Node 47, Type 1, BuildingBlock: ESEHIV_clean_sbu_0, # of connection points: 4
#     Node 48, Type 1, BuildingBlock: ESEHIV_clean_sbu_0, # of connection points: 4
#     Node 49, Type 1, BuildingBlock: ESEHIV_clean_sbu_0, # of connection points: 4
#     Node 50, Type 1, BuildingBlock: ESEHIV_clean_sbu_0, # of connection points: 4
#     Node 51, Type 1, BuildingBlock: ESEHIV_clean_sbu_0, # of connection points: 4
#     Node 52, Type 1, BuildingBlock: ESEHIV_clean_sbu_0, # of connection points: 4
#     Node 53, Type 1, BuildingBlock: ESEHIV_clean_sbu_0, # of connection points: 4
#     Node 54, Type 1, BuildingBlock: ESEHIV_clean_sbu_0, # of connection points: 4
#     Node 55, Type 1, BuildingBlock: ESEHIV_clean_sbu_0, # of connection points: 4
#     Edge 56, Type (0, 1), BuildingBlock: XUDNAN_clean_linker_2, # of connection points: 2
#     Edge 57, Type (0, 1), BuildingBlock: XUDNAN_clean_linker_2, # of connection points: 2
#     Edge 58, Type (0, 1), BuildingBlock: XUDNAN_clean_linker_2, # of connection points: 2
#     Edge 59, Type (0, 1), BuildingBlock: XUDNAN_clean_linker_2, # of connection points: 2
#     Edge 60, Type (0, 1), BuildingBlock: XUDNAN_clean_linker_2, # of connection points: 2
#     Edge 61, Type (0, 1), BuildingBlock: XUDNAN_clean_linker_2, # of connection points: 2
#     Edge 62, Type (0, 1), BuildingBlock: XUDNAN_clean_linker_2, # of connection points: 2
#     Edge 63, Type (0, 1), BuildingBlock: XUDNAN_clean_linker_2, # of connection points: 2
#     Edge 64, Type (0, 1), BuildingBlock: XUDNAN_clean_linker_2, # of connection points: 2
#     Edge 65, Type (0, 1), BuildingBlock: XUDNAN_clean_linker_2, # of connection points: 2
#     Edge 66, Type (0, 1), BuildingBlock: XUDNAN_clean_linker_2, # of connection points: 2
#     Edge 67, Type (0, 1), BuildingBlock: XUDNAN_clean_linker_2, # of connection points: 2
#     Edge 68, Type (0, 1), BuildingBlock: XUDNAN_clean_linker_2, # of connection points: 2
#     Edge 69, Type (0, 1), BuildingBlock: XUDNAN_clean_linker_2, # of connection points: 2
#     Edge 70, Type (0, 1), BuildingBlock: XUDNAN_clean_linker_2, # of connection points: 2
#     Edge 71, Type (0, 1), BuildingBlock: XUDNAN_clean_linker_2, # of connection points: 2
#     Edge 72, Type (0, 1), BuildingBlock: XUDNAN_clean_linker_2, # of connection points: 2
#     Edge 73, Type (0, 1), BuildingBlock: XUDNAN_clean_linker_2, # of connection points: 2
#     Edge 74, Type (0, 1), BuildingBlock: XUDNAN_clean_linker_2, # of connection points: 2
#     Edge 75, Type (0, 1), BuildingBlock: XUDNAN_clean_linker_2, # of connection points: 2
#     Edge 76, Type (0, 1), BuildingBlock: XUDNAN_clean_linker_2, # of connection points: 2
#     Edge 77, Type (0, 1), BuildingBlock: XUDNAN_clean_linker_2, # of connection points: 2
#     Edge 78, Type (0, 1), BuildingBlock: XUDNAN_clean_linker_2, # of connection points: 2
#     Edge 79, Type (0, 1), BuildingBlock: XUDNAN_clean_linker_2, # of connection points: 2
#     Edge 80, Type (0, 1), BuildingBlock: XUDNAN_clean_linker_2, # of connection points: 2
#     Edge 81, Type (0, 1), BuildingBlock: XUDNAN_clean_linker_2, # of connection points: 2
#     Edge 82, Type (0, 1), BuildingBlock: XUDNAN_clean_linker_2, # of connection points: 2
#     Edge 83, Type (0, 1), BuildingBlock: XUDNAN_clean_linker_2, # of connection points: 2
#     Edge 84, Type (0, 1), BuildingBlock: XUDNAN_clean_linker_2, # of connection points: 2
#     Edge 85, Type (0, 1), BuildingBlock: XUDNAN_clean_linker_2, # of connection points: 2
#     Edge 86, Type (0, 1), BuildingBlock: XUDNAN_clean_linker_2, # of connection points: 2
#     Edge 87, Type (0, 1), BuildingBlock: XUDNAN_clean_linker_2, # of connection points: 2
#     Edge 88, Type (0, 1), BuildingBlock: XUDNAN_clean_linker_2, # of connection points: 2
#     Edge 89, Type (0, 1), BuildingBlock: XUDNAN_clean_linker_2, # of connection points: 2
#     Edge 90, Type (0, 1), BuildingBlock: XUDNAN_clean_linker_2, # of connection points: 2
#     Edge 91, Type (0, 1), BuildingBlock: XUDNAN_clean_linker_2, # of connection points: 2
#     Edge 92, Type (0, 1), BuildingBlock: XUDNAN_clean_linker_2, # of connection points: 2
#     Edge 93, Type (0, 1), BuildingBlock: XUDNAN_clean_linker_2, # of connection points: 2
#     Edge 94, Type (0, 1), BuildingBlock: XUDNAN_clean_linker_2, # of connection points: 2
#     Edge 95, Type (0, 1), BuildingBlock: XUDNAN_clean_linker_2, # of connection points: 2
#     Edge 96, Type (0, 1), BuildingBlock: XUDNAN_clean_linker_2, # of connection points: 2
#     Edge 97, Type (0, 1), BuildingBlock: XUDNAN_clean_linker_2, # of connection points: 2
#     Edge 98, Type (0, 1), BuildingBlock: XUDNAN_clean_linker_2, # of connection points: 2
#     Edge 99, Type (0, 1), BuildingBlock: XUDNAN_clean_linker_2, # of connection points: 2
#     Edge 100, Type (0, 1), BuildingBlock: XUDNAN_clean_linker_2, # of connection points: 2
#     Edge 101, Type (0, 1), BuildingBlock: XUDNAN_clean_linker_2, # of connection points: 2
#     Edge 102, Type (0, 1), BuildingBlock: XUDNAN_clean_linker_2, # of connection points: 2
#     Edge 103, Type (0, 1), BuildingBlock: XUDNAN_clean_linker_2, # of connection points: 2
#     Edge 104, Type (0, 1), BuildingBlock: XUDNAN_clean_linker_2, # of connection points: 2
#     Edge 105, Type (0, 1), BuildingBlock: XUDNAN_clean_linker_2, # of connection points: 2
#     Edge 106, Type (0, 1), BuildingBlock: XUDNAN_clean_linker_2, # of connection points: 2
#     Edge 107, Type (0, 1), BuildingBlock: XUDNAN_clean_linker_2, # of connection points: 2
#     Edge 108, Type (0, 1), BuildingBlock: XUDNAN_clean_linker_2, # of connection points: 2
#     Edge 109, Type (0, 1), BuildingBlock: XUDNAN_clean_linker_2, # of connection points: 2
#     Edge 110, Type (0, 1), BuildingBlock: XUDNAN_clean_linker_2, # of connection points: 2
#     Edge 111, Type (0, 1), BuildingBlock: XUDNAN_clean_linker_2, # of connection points: 2
#     Edge 112, Type (0, 1), BuildingBlock: XUDNAN_clean_linker_2, # of connection points: 2
#     Edge 113, Type (0, 1), BuildingBlock: XUDNAN_clean_linker_2, # of connection points: 2
#     Edge 114, Type (0, 1), BuildingBlock: XUDNAN_clean_linker_2, # of connection points: 2
#     Edge 115, Type (0, 1), BuildingBlock: XUDNAN_clean_linker_2, # of connection points: 2
#     Edge 116, Type (0, 1), BuildingBlock: XUDNAN_clean_linker_2, # of connection points: 2
#     Edge 117, Type (0, 1), BuildingBlock: XUDNAN_clean_linker_2, # of connection points: 2
#     Edge 118, Type (0, 1), BuildingBlock: XUDNAN_clean_linker_2, # of connection points: 2
#     Edge 119, Type (0, 1), BuildingBlock: XUDNAN_clean_linker_2, # of connection points: 2
#     Edge 120, Type (0, 1), BuildingBlock: XUDNAN_clean_linker_2, # of connection points: 2
#     Edge 121, Type (0, 1), BuildingBlock: XUDNAN_clean_linker_2, # of connection points: 2
#     Edge 122, Type (0, 1), BuildingBlock: XUDNAN_clean_linker_2, # of connection points: 2
#     Edge 123, Type (0, 1), BuildingBlock: XUDNAN_clean_linker_2, # of connection points: 2
#     Edge 124, Type (0, 1), BuildingBlock: XUDNAN_clean_linker_2, # of connection points: 2
#     Edge 125, Type (0, 1), BuildingBlock: XUDNAN_clean_linker_2, # of connection points: 2
#     Edge 126, Type (0, 1), BuildingBlock: XUDNAN_clean_linker_2, # of connection points: 2
#     Edge 127, Type (0, 1), BuildingBlock: XUDNAN_clean_linker_2, # of connection points: 2
#     Edge 128, Type (0, 1), BuildingBlock: XUDNAN_clean_linker_2, # of connection points: 2
#     Edge 129, Type (0, 1), BuildingBlock: XUDNAN_clean_linker_2, # of connection points: 2
#     Edge 130, Type (0, 1), BuildingBlock: XUDNAN_clean_linker_2, # of connection points: 2
#     Edge 131, Type (0, 1), BuildingBlock: XUDNAN_clean_linker_2, # of connection points: 2
#     Edge 132, Type (0, 1), BuildingBlock: XUDNAN_clean_linker_2, # of connection points: 2
#     Edge 133, Type (0, 1), BuildingBlock: XUDNAN_clean_linker_2, # of connection points: 2
#     Edge 134, Type (0, 1), BuildingBlock: XUDNAN_clean_linker_2, # of connection points: 2
#     Edge 135, Type (0, 1), BuildingBlock: XUDNAN_clean_linker_2, # of connection points: 2
#     Edge 136, Type (0, 1), BuildingBlock: XUDNAN_clean_linker_2, # of connection points: 2
#     Edge 137, Type (0, 1), BuildingBlock: XUDNAN_clean_linker_2, # of connection points: 2
#     Edge 138, Type (0, 1), BuildingBlock: XUDNAN_clean_linker_2, # of connection points: 2
#     Edge 139, Type (0, 1), BuildingBlock: XUDNAN_clean_linker_2, # of connection points: 2
#     Edge 140, Type (0, 1), BuildingBlock: XUDNAN_clean_linker_2, # of connection points: 2
#     Edge 141, Type (0, 1), BuildingBlock: XUDNAN_clean_linker_2, # of connection points: 2
#     Edge 142, Type (0, 1), BuildingBlock: XUDNAN_clean_linker_2, # of connection points: 2
#     Edge 143, Type (0, 1), BuildingBlock: XUDNAN_clean_linker_2, # of connection points: 2
#     Edge 144, Type (0, 1), BuildingBlock: XUDNAN_clean_linker_2, # of connection points: 2
#     Edge 145, Type (0, 1), BuildingBlock: XUDNAN_clean_linker_2, # of connection points: 2
#     Edge 146, Type (0, 1), BuildingBlock: XUDNAN_clean_linker_2, # of connection points: 2
#     Edge 147, Type (0, 1), BuildingBlock: XUDNAN_clean_linker_2, # of connection points: 2
#     Edge 148, Type (0, 1), BuildingBlock: XUDNAN_clean_linker_2, # of connection points: 2
#     Edge 149, Type (0, 1), BuildingBlock: XUDNAN_clean_linker_2, # of connection points: 2
#     Edge 150, Type (0, 1), BuildingBlock: XUDNAN_clean_linker_2, # of connection points: 2
#     Edge 151, Type (0, 1), BuildingBlock: XUDNAN_clean_linker_2, # of connection points: 2
# Relax obj value: 0.002
# Max RMSD: 0.119
# Mean RMSD: 0.047
data_MOF--net-tbo--node1-ESEHIV_clean_sbu_0--node2-MIDCAF_clean_linker_0--edge1-XUDNAN_clean_linker_2
_symmetry_space_group_name_H-M    P1
_symmetry_Int_Tables_number       1
_symmetry_cell_setting            triclinic
loop_
_symmetry_equiv_pos_as_xyz
'x, y, z'
_cell_length_a     90.311906
_cell_length_b     90.374619
_cell_length_c     90.40245
_cell_angle_alpha  89.99642
_cell_angle_beta   92.131239
_cell_angle_gamma 90.707894
loop_
_atom_site_label
_atom_site_type_symbol
_atom_site_fract_x
_atom_site_fract_y
_atom_site_fract_z
_atom_type_partial_charge
C0 C 0.13721 0.21686 0.19531 0.0
C1 C 0.1346 0.21621 0.21051 0.0
C2 C 0.14263 0.20612 0.21941 0.0
C3 C 0.15323 0.19704 0.21326 0.0
H4 H 0.17785 0.16038 0.22078 0.0
H5 H 0.18769 0.13989 0.23504 0.0
H6 H 0.21872 0.13103 0.20103 0.0
H7 H 0.2086 0.15162 0.18637 0.0
H8 H 0.21338 0.1872 0.16309 0.0
H9 H 0.22193 0.20126 0.14165 0.0
H10 H 0.17648 0.20993 0.12824 0.0
H11 H 0.16805 0.19623 0.14952 0.0
H12 H 0.14976 0.20889 0.17747 0.0
H13 H 0.13127 0.22459 0.18819 0.0
H14 H 0.14073 0.20527 0.23114 0.0
H15 H 0.15937 0.18954 0.22046 0.0
N16 N 0.17455 0.17797 0.19933 0.0
N17 N 0.19119 0.17436 0.18026 0.0
N18 N 0.17321 0.19291 0.1783 0.0
C19 C 0.18598 0.17035 0.19371 0.0
C20 C 0.18468 0.18564 0.17248 0.0
C21 C 0.16812 0.18925 0.19171 0.0
C22 C 0.19244 0.15779 0.20236 0.0
C23 C 0.18679 0.15417 0.21623 0.0
C24 C 0.19251 0.1424 0.22453 0.0
C25 C 0.2041 0.13386 0.21928 0.0
C26 C 0.20973 0.13734 0.20536 0.0
C27 C 0.20398 0.1492 0.197 0.0
C28 C 0.19007 0.19082 0.15808 0.0
C29 C 0.20527 0.19179 0.15531 0.0
C30 C 0.21015 0.19986 0.14307 0.0
C31 C 0.19987 0.207 0.13348 0.0
C32 C 0.18468 0.2049 0.13564 0.0
C33 C 0.17985 0.19698 0.1478 0.0
C34 C 0.15613 0.19799 0.19811 0.0
C35 C 0.14788 0.2079 0.18919 0.0
C36 C 0.84358 0.13553 0.21929 0.0
C37 C 0.8294 0.13123 0.21386 0.0
C38 C 0.82296 0.13901 0.20183 0.0
C39 C 0.83048 0.15088 0.19544 0.0
H40 H 0.83309 0.17501 0.15618 0.0
H41 H 0.82435 0.18548 0.13266 0.0
H42 H 0.85443 0.2226 0.13906 0.0
H43 H 0.86325 0.21216 0.16267 0.0
H44 H 0.8949 0.20111 0.18281 0.0
H45 H 0.9181 0.20977 0.19485 0.0
H46 H 0.90471 0.191 0.23623 0.0
H47 H 0.88158 0.18212 0.22421 0.0
H48 H 0.86193 0.15054 0.21755 0.0
H49 H 0.84879 0.12985 0.22863 0.0
H50 H 0.81211 0.13585 0.1973 0.0
H51 H 0.82515 0.15662 0.18622 0.0
N52 N 0.84733 0.17438 0.18157 0.0
N53 N 0.86724 0.19133 0.18232 0.0
N54 N 0.86509 0.17364 0.20114 0.0
C55 C 0.85461 0.18602 0.17547 0.0
C56 C 0.87253 0.18522 0.19518 0.0
C57 C 0.85251 0.16812 0.19441 0.0
C58 C 0.84896 0.19267 0.16134 0.0
C59 C 0.83783 0.18543 0.15266 0.0
C60 C 0.83285 0.1914 0.13912 0.0
C61 C 0.83875 0.20483 0.13398 0.0
C62 C 0.84962 0.21228 0.14278 0.0
C63 C 0.85473 0.20622 0.15626 0.0
C64 C 0.8864 0.19089 0.20254 0.0
C65 C 0.89687 0.19886 0.19448 0.0
C66 C 0.91019 0.20374 0.20134 0.0
C67 C 0.91319 0.201 0.21644 0.0
C68 C 0.90263 0.19329 0.22458 0.0
C69 C 0.88944 0.18817 0.21767 0.0
C70 C 0.84459 0.15534 0.201 0.0
C71 C 0.85106 0.14748 0.21298 0.0
C72 C 0.83624 0.81777 0.13159 0.0
C73 C 0.826 0.8249 0.12198 0.0
C74 C 0.82121 0.83912 0.12585 0.0
C75 C 0.82639 0.84593 0.13901 0.0
H76 H 0.82419 0.88537 0.16616 0.0
H77 H 0.81001 0.90566 0.17649 0.0
H78 H 0.82266 0.89141 0.22064 0.0
H79 H 0.83718 0.8714 0.21042 0.0
H80 H 0.87491 0.85734 0.20743 0.0
H81 H 0.89544 0.84564 0.22134 0.0
H82 H 0.89078 0.80708 0.19333 0.0
H83 H 0.87045 0.81863 0.17945 0.0
H84 H 0.84928 0.81867 0.1518 0.0
H85 H 0.84001 0.80674 0.12919 0.0
H86 H 0.81355 0.8451 0.11864 0.0
H87 H 0.82243 0.85685 0.1416 0.0
N88 N 0.83525 0.85797 0.1681 0.0
N89 N 0.85138 0.85785 0.18913 0.0
N90 N 0.85348 0.83981 0.17071 0.0
C91 C 0.83983 0.86402 0.18132 0.0
C92 C 0.85835 0.84579 0.18383 0.0
C93 C 0.84199 0.8458 0.16274 0.0
C94 C 0.83182 0.87676 0.18747 0.0
C95 C 0.82405 0.88664 0.17807 0.0
C96 C 0.81599 0.89828 0.18395 0.0
C97 C 0.81523 0.90004 0.19934 0.0
C98 C 0.82305 0.89025 0.20873 0.0
C99 C 0.8314 0.87884 0.20286 0.0
C100 C 0.87094 0.83893 0.19233 0.0
C101 C 0.87827 0.84637 0.20424 0.0
C102 C 0.89009 0.83972 0.21215 0.0
C103 C 0.89467 0.82541 0.20848 0.0
C104 C 0.88741 0.81805 0.19654 0.0
C105 C 0.87577 0.82473 0.18854 0.0
C106 C 0.83661 0.83876 0.14861 0.0
C107 C 0.84151 0.82462 0.14467 0.0
C108 C 0.13225 0.8022 0.17729 0.0
C109 C 0.1231 0.80857 0.18775 0.0
C110 C 0.12635 0.82309 0.19259 0.0
C111 C 0.13858 0.8309 0.18739 0.0
H112 H 0.17285 0.81825 0.1319 0.0
H113 H 0.18764 0.81329 0.11023 0.0
H114 H 0.22592 0.83327 0.13271 0.0
H115 H 0.2112 0.83852 0.15393 0.0
H116 H 0.2001 0.87135 0.16557 0.0
H117 H 0.20813 0.89484 0.17597 0.0
H118 H 0.17487 0.8912 0.20896 0.0
H119 H 0.16643 0.86757 0.1982 0.0
H120 H 0.15137 0.80468 0.16412 0.0
H121 H 0.1302 0.791 0.1734 0.0
H122 H 0.1194 0.82852 0.2004 0.0
H123 H 0.14072 0.84201 0.19149 0.0
N124 N 0.16933 0.82712 0.16089 0.0
N125 N 0.18576 0.8473 0.16335 0.0
N126 N 0.16548 0.84567 0.17862 0.0
C127 C 0.18171 0.83443 0.1566 0.0
C128 C 0.17777 0.85309 0.17427 0.0
C129 C 0.16119 0.83264 0.17201 0.0
C130 C 0.19081 0.82899 0.1445 0.0
C131 C 0.18449 0.82133 0.13224 0.0
C132 C 0.19296 0.8185 0.11985 0.0
C133 C 0.20788 0.8232 0.11961 0.0
C134 C 0.21436 0.82992 0.13232 0.0
C135 C 0.20592 0.83285 0.14454 0.0
C136 C 0.18258 0.86746 0.18104 0.0
C137 C 0.19444 0.87544 0.17507 0.0
C138 C 0.19917 0.88895 0.18112 0.0
C139 C 0.19227 0.89491 0.19341 0.0
C140 C 0.18037 0.88699 0.19942 0.0
C141 C 0.17557 0.87341 0.19329 0.0
C142 C 0.14788 0.82446 0.17711 0.0
C143 C 0.14447 0.81004 0.17201 0.0
C144 C 0.12601 0.82726 0.83174 0.0
C145 C 0.12234 0.83341 0.81779 0.0
C146 C 0.13173 0.84442 0.81218 0.0
C147 C 0.14453 0.84902 0.82021 0.0
H148 H 0.1751 0.88284 0.82327 0.0
H149 H 0.18715 0.90608 0.81707 0.0
H150 H 0.2202 0.89918 0.85207 0.0
H151 H 0.20826 0.8757 0.8582 0.0
H152 H 0.20941 0.83887 0.87001 0.0
H153 H 0.2192 0.82276 0.88976 0.0
H154 H 0.17472 0.8096 0.90012 0.0
H155 H 0.16484 0.82534 0.88006 0.0
H156 H 0.14134 0.82669 0.85036 0.0
H157 H 0.11891 0.81899 0.83661 0.0
H158 H 0.12941 0.84929 0.80141 0.0
H159 H 0.15158 0.85739 0.81543 0.0
N160 N 0.16987 0.85942 0.83825 0.0
N161 N 0.18801 0.855 0.85692 0.0
N162 N 0.16753 0.83886 0.85384 0.0
C163 C 0.18272 0.86351 0.84554 0.0
C164 C 0.18045 0.84268 0.86115 0.0
C165 C 0.16221 0.84713 0.84229 0.0
C166 C 0.19061 0.87736 0.84133 0.0
C167 C 0.18496 0.88618 0.82965 0.0
C168 C 0.19184 0.89959 0.82613 0.0
C169 C 0.20456 0.90459 0.83417 0.0
C170 C 0.21046 0.89562 0.8456 0.0
C171 C 0.20356 0.88218 0.84915 0.0
C172 C 0.18635 0.83335 0.87345 0.0
C173 C 0.2017 0.83257 0.87651 0.0
C174 C 0.20732 0.82334 0.88776 0.0
C175 C 0.19768 0.81499 0.8964 0.0
C176 C 0.18234 0.81597 0.8936 0.0
C177 C 0.17673 0.82492 0.8821 0.0
C178 C 0.14834 0.84264 0.83401 0.0
C179 C 0.13887 0.83175 0.8397 0.0
C180 C 0.14775 0.21394 0.85677 0.0
C181 C 0.14278 0.21452 0.84185 0.0
C182 C 0.14976 0.20549 0.83156 0.0
C183 C 0.16166 0.19648 0.83604 0.0
H184 H 0.1837 0.15601 0.82695 0.0
H185 H 0.19187 0.1348 0.81285 0.0
H186 H 0.23108 0.13192 0.84151 0.0
H187 H 0.22278 0.15278 0.85582 0.0
H188 H 0.22683 0.17376 0.88411 0.0
H189 H 0.24023 0.18152 0.90683 0.0
H190 H 0.20405 0.21009 0.91722 0.0
H191 H 0.1909 0.20271 0.89447 0.0
H192 H 0.16326 0.20517 0.87278 0.0
H193 H 0.14243 0.22036 0.86513 0.0
H194 H 0.14633 0.20569 0.81996 0.0
H195 H 0.16698 0.18991 0.82779 0.0
N196 N 0.18509 0.17645 0.84724 0.0
N197 N 0.2046 0.17235 0.86465 0.0
N198 N 0.18752 0.19109 0.86864 0.0
C199 C 0.1973 0.16867 0.85167 0.0
C200 C 0.19978 0.18354 0.87321 0.0
C201 C 0.18013 0.18769 0.85569 0.0
C202 C 0.20251 0.15611 0.84262 0.0
C203 C 0.19408 0.15088 0.83024 0.0
C204 C 0.19881 0.13874 0.82209 0.0
C205 C 0.21209 0.13153 0.82607 0.0
C206 C 0.22063 0.13695 0.83828 0.0
C207 C 0.21589 0.14903 0.84646 0.0
C208 C 0.2078 0.18768 0.88733 0.0
C209 C 0.22172 0.18168 0.89126 0.0
C210 C 0.22939 0.18608 0.90434 0.0
C211 C 0.22332 0.19655 0.91384 0.0
C212 C 0.20926 0.20227 0.91004 0.0
C213 C 0.20165 0.19794 0.89698 0.0
C214 C 0.16693 0.19639 0.85089 0.0
C215 C 0.1597 0.20512 0.8612 0.0
C216 C 0.84878 0.14104 0.81084 0.0
C217 C 0.83834 0.13351 0.81933 0.0
C218 C 0.83473 0.1395 0.83307 0.0
C219 C 0.84156 0.15259 0.83828 0.0
H220 H 0.83906 0.18507 0.87059 0.0
H221 H 0.83332 0.195 0.89483 0.0
H222 H 0.87029 0.22553 0.89255 0.0
H223 H 0.87614 0.21566 0.86846 0.0
H224 H 0.88705 0.22124 0.83185 0.0
H225 H 0.90747 0.23182 0.81802 0.0
H226 H 0.91813 0.18834 0.80225 0.0
H227 H 0.89745 0.17774 0.8157 0.0
H228 H 0.86364 0.15948 0.80918 0.0
H229 H 0.85162 0.13692 0.80007 0.0
H230 H 0.82685 0.13393 0.83996 0.0
H231 H 0.83862 0.1568 0.84899 0.0
N232 N 0.85548 0.18024 0.84815 0.0
N233 N 0.8737 0.19873 0.84564 0.0
N234 N 0.87114 0.17973 0.82803 0.0
C235 C 0.86241 0.19276 0.85333 0.0
C236 C 0.87814 0.19226 0.83301 0.0
C237 C 0.85974 0.17369 0.83547 0.0
C238 C 0.85817 0.19945 0.86757 0.0
C239 C 0.84593 0.19396 0.8752 0.0
C240 C 0.84256 0.1997 0.88906 0.0
C241 C 0.85143 0.21094 0.89565 0.0
C242 C 0.86338 0.2167 0.88785 0.0
C243 C 0.86669 0.21107 0.87399 0.0
C244 C 0.89062 0.19867 0.82483 0.0
C245 C 0.89374 0.21394 0.82543 0.0
C246 C 0.90537 0.22 0.81749 0.0
C247 C 0.91432 0.21086 0.80911 0.0
C248 C 0.91138 0.19558 0.80868 0.0
C249 C 0.89952 0.18956 0.81631 0.0
C250 C 0.85218 0.15998 0.82988 0.0
C251 C 0.85563 0.15406 0.81605 0.0
C252 C 0.81625 0.85114 0.87999 0.0
C253 C 0.81936 0.83688 0.88538 0.0
C254 C 0.83083 0.8289 0.87915 0.0
C255 C 0.83875 0.83483 0.86753 0.0
H256 H 0.87562 0.82776 0.84367 0.0
H257 H 0.89466 0.81244 0.83321 0.0
H258 H 0.89367 0.83944 0.7938 0.0
H259 H 0.87456 0.85474 0.80413 0.0
H260 H 0.85148 0.88092 0.80112 0.0
H261 H 0.84231 0.90261 0.78793 0.0
H262 H 0.81893 0.91574 0.82658 0.0
H263 H 0.82763 0.89374 0.83955 0.0
H264 H 0.82123 0.86795 0.86412 0.0
H265 H 0.80744 0.85753 0.88456 0.0
H266 H 0.83365 0.81798 0.88322 0.0
H267 H 0.84736 0.8282 0.86292 0.0
N268 N 0.85451 0.84682 0.84315 0.0
N269 N 0.85668 0.86393 0.82386 0.0
N270 N 0.83873 0.86722 0.84168 0.0
C271 C 0.86135 0.85139 0.8308 0.0
C272 C 0.84543 0.87196 0.82926 0.0
C273 C 0.84319 0.85461 0.84868 0.0
C274 C 0.87345 0.84247 0.82472 0.0
C275 C 0.87947 0.83049 0.83278 0.0
C276 C 0.89046 0.82174 0.82684 0.0
C277 C 0.89561 0.82468 0.81266 0.0
C278 C 0.88978 0.83678 0.80469 0.0
C279 C 0.87888 0.8456 0.81066 0.0
C280 C 0.84025 0.88551 0.8214 0.0
C281 C 0.84441 0.88845 0.80683 0.0
C282 C 0.8392 0.90097 0.79927 0.0
C283 C 0.82981 0.91099 0.80612 0.0
C284 C 0.82587 0.90816 0.82079 0.0
C285 C 0.83095 0.89555 0.82829 0.0
C286 C 0.83536 0.8489 0.86174 0.0
C287 C 0.82412 0.85706 0.86823 0.0
C288 C 0.14205 0.71208 0.68826 0.0
C289 C 0.13651 0.70366 0.69995 0.0
C290 C 0.14157 0.68914 0.70205 0.0
C291 C 0.1521 0.68325 0.69276 0.0
H292 H 0.1831 0.64898 0.68946 0.0
H293 H 0.19659 0.62629 0.69518 0.0
H294 H 0.22052 0.6313 0.65496 0.0
H295 H 0.20696 0.65364 0.64907 0.0
H296 H 0.19393 0.67565 0.62432 0.0
H297 H 0.19974 0.68834 0.60143 0.0
H298 H 0.18303 0.72909 0.6188 0.0
H299 H 0.17703 0.71637 0.64179 0.0
H300 H 0.1564 0.71303 0.67004 0.0
H301 H 0.13822 0.72324 0.68623 0.0
H302 H 0.13756 0.68242 0.71101 0.0
H303 H 0.15582 0.67204 0.69471 0.0
N304 N 0.17574 0.67265 0.67436 0.0
N305 N 0.18864 0.67438 0.65238 0.0
N306 N 0.17182 0.69277 0.65828 0.0
C307 C 0.18581 0.66704 0.6651 0.0
C308 C 0.18174 0.68722 0.64888 0.0
C309 C 0.16868 0.68553 0.67101 0.0
C310 C 0.19386 0.65318 0.66877 0.0
C311 C 0.19121 0.64523 0.68181 0.0
C312 C 0.199 0.63225 0.68514 0.0
C313 C 0.2096 0.62693 0.6755 0.0
C314 C 0.21226 0.63492 0.66251 0.0
C315 C 0.2045 0.64783 0.65918 0.0
C316 C 0.18502 0.69499 0.63491 0.0
C317 C 0.19145 0.68731 0.62329 0.0
C318 C 0.19469 0.69454 0.61013 0.0
C319 C 0.19177 0.70967 0.60833 0.0
C320 C 0.18541 0.71742 0.61993 0.0
C321 C 0.18193 0.71012 0.63304 0.0
C322 C 0.15764 0.6917 0.68105 0.0
C323 C 0.15243 0.70617 0.67891 0.0
C324 C 0.85301 0.64333 0.70388 0.0
C325 C 0.83859 0.63726 0.70376 0.0
C326 C 0.82789 0.64298 0.69363 0.0
C327 C 0.83145 0.65476 0.6842 0.0
H328 H 0.81743 0.67951 0.64591 0.0
H329 H 0.80229 0.6875 0.62448 0.0
H330 H 0.83634 0.71921 0.6135 0.0
H331 H 0.8512 0.71158 0.63496 0.0
H332 H 0.87827 0.71836 0.65725 0.0
H333 H 0.90094 0.73201 0.66451 0.0
H334 H 0.90732 0.70317 0.70224 0.0
H335 H 0.88504 0.68941 0.69493 0.0
H336 H 0.86774 0.65949 0.69522 0.0
H337 H 0.86167 0.63898 0.71119 0.0
H338 H 0.81666 0.63862 0.69325 0.0
H339 H 0.8229 0.65911 0.67676 0.0
N340 N 0.84095 0.67839 0.66372 0.0
N341 N 0.85742 0.69814 0.65925 0.0
N342 N 0.86213 0.68214 0.67915 0.0
C343 C 0.84483 0.69035 0.65543 0.0
C344 C 0.86611 0.69413 0.67113 0.0
C345 C 0.84964 0.67418 0.67559 0.0
C346 C 0.83554 0.69493 0.64228 0.0
C347 C 0.82168 0.6882 0.63893 0.0
C348 C 0.81301 0.69274 0.62658 0.0
C349 C 0.81801 0.70409 0.61727 0.0
C350 C 0.83194 0.71067 0.62056 0.0
C351 C 0.84055 0.7062 0.63289 0.0
C352 C 0.8798 0.70269 0.67544 0.0
C353 C 0.88453 0.71491 0.66708 0.0
C354 C 0.89749 0.7228 0.67127 0.0
C355 C 0.90605 0.71863 0.68389 0.0
C356 C 0.90121 0.70652 0.69228 0.0
C357 C 0.88832 0.69866 0.68811 0.0
C358 C 0.84577 0.66112 0.68477 0.0
C359 C 0.85652 0.6551 0.69461 0.0
C360 C 0.85526 0.3203 0.63556 0.0
C361 C 0.84162 0.32177 0.62772 0.0
C362 C 0.832 0.33301 0.63201 0.0
C363 C 0.83584 0.34234 0.644 0.0
H364 H 0.82604 0.38385 0.66518 0.0
H365 H 0.81214 0.40563 0.67237 0.0
H366 H 0.83645 0.40665 0.71444 0.0
H367 H 0.85051 0.38539 0.70716 0.0
H368 H 0.88141 0.37017 0.70988 0.0
H369 H 0.90432 0.36532 0.72393 0.0
H370 H 0.91312 0.32871 0.69499 0.0
H371 H 0.89004 0.33337 0.68101 0.0
H372 H 0.86967 0.32795 0.65324 0.0
H373 H 0.8631 0.312 0.63242 0.0
H374 H 0.82135 0.3344 0.62631 0.0
H375 H 0.82808 0.35074 0.64711 0.0
N376 N 0.84487 0.3617 0.66898 0.0
N377 N 0.86126 0.36689 0.68915 0.0
N378 N 0.86599 0.34716 0.67334 0.0
C379 C 0.84871 0.37013 0.68107 0.0
C380 C 0.86998 0.35546 0.68539 0.0
C381 C 0.85348 0.35014 0.66506 0.0
C382 C 0.83954 0.3829 0.6855 0.0
C383 C 0.82839 0.38872 0.67597 0.0
C384 C 0.82037 0.4012 0.68012 0.0
C385 C 0.82327 0.40809 0.69393 0.0
C386 C 0.83414 0.40196 0.70356 0.0
C387 C 0.84218 0.38963 0.6994 0.0
C388 C 0.88383 0.35222 0.69421 0.0
C389 C 0.88816 0.36104 0.70649 0.0
C390 C 0.90138 0.35831 0.71453 0.0
C391 C 0.91064 0.34667 0.71055 0.0
C392 C 0.9062 0.33768 0.69845 0.0
C393 C 0.89298 0.34043 0.69037 0.0
C394 C 0.84939 0.34066 0.652 0.0
C395 C 0.85907 0.32956 0.64751 0.0
C396 C 0.13686 0.33737 0.70266 0.0
C397 C 0.13417 0.32284 0.69761 0.0
C398 C 0.14337 0.31707 0.68683 0.0
C399 C 0.15514 0.32556 0.68147 0.0
H400 H 0.19316 0.32535 0.65316 0.0
H401 H 0.21093 0.31787 0.63476 0.0
H402 H 0.22663 0.36306 0.63189 0.0
H403 H 0.20929 0.37045 0.65018 0.0
H404 H 0.20513 0.392 0.6753 0.0
H405 H 0.21301 0.41432 0.68839 0.0
H406 H 0.18272 0.40432 0.72298 0.0
H407 H 0.17452 0.38193 0.70967 0.0
H408 H 0.15022 0.35691 0.70164 0.0
H409 H 0.12982 0.34234 0.71067 0.0
H410 H 0.14165 0.30589 0.68274 0.0
H411 H 0.16211 0.32073 0.67331 0.0
N412 N 0.17895 0.34452 0.67019 0.0
N413 N 0.19337 0.36625 0.67242 0.0
N414 N 0.17391 0.36228 0.68831 0.0
C415 C 0.19036 0.35315 0.66552 0.0
C416 C 0.18528 0.37091 0.68381 0.0
C417 C 0.17059 0.34912 0.68156 0.0
C418 C 0.19992 0.34847 0.65335 0.0
C419 C 0.20033 0.33369 0.64849 0.0
C420 C 0.21049 0.3294 0.63793 0.0
C421 C 0.2204 0.33982 0.63206 0.0
C422 C 0.21946 0.35467 0.63646 0.0
C423 C 0.20942 0.35891 0.64696 0.0
C424 C 0.18928 0.38502 0.69148 0.0
C425 C 0.20006 0.39451 0.68567 0.0
C426 C 0.20465 0.40731 0.69322 0.0
C427 C 0.19867 0.41099 0.70685 0.0
C428 C 0.18752 0.40181 0.71248 0.0
C429 C 0.18287 0.38895 0.70487 0.0
C430 C 0.15796 0.34001 0.68678 0.0
C431 C 0.14858 0.34579 0.69737 0.0
C432 C 0.13355 0.30183 0.35685 0.0
C433 C 0.1267 0.30625 0.34341 0.0
C434 C 0.13198 0.3191 0.33643 0.0
C435 C 0.14407 0.32714 0.34263 0.0
H436 H 0.17245 0.36361 0.33631 0.0
H437 H 0.1837 0.38472 0.32392 0.0
H438 H 0.21816 0.38689 0.35829 0.0
H439 H 0.20715 0.36574 0.37053 0.0
H440 H 0.2111 0.338 0.39339 0.0
H441 H 0.22309 0.32643 0.41501 0.0
H442 H 0.18356 0.30016 0.42155 0.0
H443 H 0.17181 0.31131 0.39978 0.0
H444 H 0.15053 0.30593 0.37338 0.0
H445 H 0.12961 0.29215 0.36265 0.0
H446 H 0.12698 0.32276 0.32601 0.0
H447 H 0.148 0.33684 0.33686 0.0
N448 N 0.1701 0.34267 0.35585 0.0
N449 N 0.18906 0.34403 0.37439 0.0
N450 N 0.171 0.32527 0.37506 0.0
C451 C 0.18247 0.34956 0.36177 0.0
C452 C 0.18334 0.33189 0.38112 0.0
C453 C 0.1643 0.33048 0.36247 0.0
C454 C 0.18892 0.36281 0.35441 0.0
C455 C 0.18241 0.36859 0.34127 0.0
C456 C 0.18881 0.38078 0.33418 0.0
C457 C 0.2019 0.38747 0.34003 0.0
C458 C 0.20822 0.38187 0.35331 0.0
C459 C 0.20184 0.36974 0.3604 0.0
C460 C 0.19051 0.32556 0.39474 0.0
C461 C 0.20495 0.3298 0.39947 0.0
C462 C 0.21181 0.32318 0.41193 0.0
C463 C 0.20434 0.31225 0.42004 0.0
C464 C 0.1898 0.30827 0.41544 0.0
C465 C 0.18301 0.31478 0.40296 0.0
C466 C 0.15109 0.32252 0.35597 0.0
C467 C 0.14555 0.30983 0.36305 0.0
C468 C 0.14378 0.69342 0.33716 0.0
C469 C 0.13462 0.68891 0.32506 0.0
C470 C 0.1397 0.67781 0.31564 0.0
C471 C 0.15356 0.6712 0.31848 0.0
H472 H 0.18075 0.62575 0.32298 0.0
H473 H 0.19086 0.60286 0.31347 0.0
H474 H 0.23364 0.62451 0.31015 0.0
H475 H 0.22369 0.6468 0.32073 0.0
H476 H 0.22345 0.65853 0.36432 0.0
H477 H 0.23828 0.67053 0.3843 0.0
H478 H 0.2133 0.71056 0.37781 0.0
H479 H 0.19843 0.69865 0.35807 0.0
H480 H 0.16415 0.69084 0.34942 0.0
H481 H 0.14036 0.7021 0.3445 0.0
H482 H 0.13287 0.67408 0.30624 0.0
H483 H 0.15715 0.66264 0.31109 0.0
N484 N 0.18223 0.65684 0.32692 0.0
N485 N 0.20489 0.65813 0.34072 0.0
N486 N 0.18667 0.67578 0.34436 0.0
C487 C 0.19598 0.65133 0.33023 0.0
C488 C 0.20027 0.67034 0.34787 0.0
C489 C 0.17754 0.66921 0.33396 0.0
C490 C 0.20146 0.638 0.32271 0.0
C491 C 0.19229 0.62556 0.3201 0.0
C492 C 0.19813 0.61243 0.31455 0.0
C493 C 0.21324 0.61155 0.31112 0.0
C494 C 0.22214 0.62438 0.31308 0.0
C495 C 0.21639 0.6373 0.31901 0.0
C496 C 0.20975 0.67763 0.35958 0.0
C497 C 0.22118 0.66991 0.36711 0.0
C498 C 0.22961 0.67673 0.3786 0.0
C499 C 0.22696 0.69148 0.38257 0.0
C500 C 0.21568 0.69922 0.37491 0.0
C501 C 0.20711 0.69236 0.36363 0.0
C502 C 0.16267 0.67572 0.33069 0.0
C503 C 0.15755 0.68696 0.33992 0.0
C504 C 0.83375 0.63263 0.31574 0.0
C505 C 0.82068 0.62864 0.32283 0.0
C506 C 0.81666 0.63686 0.33523 0.0
C507 C 0.82538 0.64891 0.34026 0.0
H508 H 0.82887 0.68087 0.37298 0.0
H509 H 0.82298 0.69429 0.39537 0.0
H510 H 0.86105 0.72287 0.38988 0.0
H511 H 0.86712 0.70937 0.3677 0.0
H512 H 0.89035 0.70162 0.34345 0.0
H513 H 0.91225 0.70849 0.33006 0.0
H514 H 0.89864 0.67856 0.2947 0.0
H515 H 0.87695 0.67132 0.30833 0.0
H516 H 0.85239 0.64733 0.31493 0.0
H517 H 0.83736 0.62638 0.30634 0.0
H518 H 0.80661 0.63416 0.34088 0.0
H519 H 0.82186 0.65506 0.34976 0.0
N520 N 0.84402 0.67373 0.35034 0.0
N521 N 0.8647 0.68931 0.3475 0.0
N522 N 0.85981 0.66995 0.3307 0.0
C523 C 0.85249 0.68547 0.35509 0.0
C524 C 0.86844 0.68163 0.33527 0.0
C525 C 0.8476 0.66589 0.33816 0.0
C526 C 0.84855 0.69393 0.36851 0.0
C527 C 0.83599 0.69003 0.37651 0.0
C528 C 0.83254 0.69779 0.38932 0.0
C529 C 0.84157 0.70962 0.3945 0.0
C530 C 0.85398 0.71367 0.38637 0.0
C531 C 0.85742 0.70594 0.37357 0.0
C532 C 0.8818 0.68591 0.32701 0.0
C533 C 0.89199 0.69649 0.33282 0.0
C534 C 0.90455 0.7005 0.32506 0.0
C535 C 0.90725 0.69416 0.3112 0.0
C536 C 0.89707 0.68355 0.30541 0.0
C537 C 0.88455 0.67946 0.31321 0.0
C538 C 0.83835 0.65301 0.33303 0.0
C539 C 0.84244 0.64464 0.32075 0.0
C540 C 0.81475 0.35687 0.39528 0.0
C541 C 0.82263 0.34793 0.4055 0.0
C542 C 0.83739 0.34442 0.40266 0.0
C543 C 0.84396 0.34935 0.38976 0.0
H544 H 0.87915 0.33957 0.36273 0.0
H545 H 0.90232 0.32906 0.35461 0.0
H546 H 0.89972 0.35621 0.3153 0.0
H547 H 0.87664 0.36643 0.32312 0.0
H548 H 0.8418 0.37555 0.31289 0.0
H549 H 0.83095 0.39341 0.29553 0.0
H550 H 0.8142 0.41823 0.33194 0.0
H551 H 0.82479 0.40006 0.34947 0.0
H552 H 0.81484 0.36852 0.37467 0.0
H553 H 0.80331 0.35967 0.39699 0.0
H554 H 0.84392 0.33781 0.41041 0.0
H555 H 0.85529 0.34625 0.38792 0.0
N556 N 0.85577 0.35658 0.36128 0.0
N557 N 0.85451 0.36986 0.33905 0.0
N558 N 0.83573 0.37238 0.35605 0.0
C559 C 0.86175 0.36023 0.34816 0.0
C560 C 0.8416 0.37601 0.34287 0.0
C561 C 0.84274 0.36258 0.3653 0.0
C562 C 0.87594 0.35382 0.34358 0.0
C563 C 0.88352 0.34328 0.35235 0.0
C564 C 0.89684 0.3373 0.34773 0.0
C565 C 0.90282 0.34172 0.33425 0.0
C566 C 0.89529 0.35233 0.32559 0.0
C567 C 0.88205 0.35827 0.33017 0.0
C568 C 0.83414 0.38643 0.33253 0.0
C569 C 0.83571 0.38474 0.31721 0.0
C570 C 0.82947 0.39492 0.30727 0.0
C571 C 0.8218 0.40716 0.31244 0.0
C572 C 0.82013 0.40887 0.32774 0.0
C573 C 0.82609 0.39846 0.33772 0.0
C574 C 0.83599 0.35803 0.37938 0.0
C575 C 0.82135 0.36189 0.3824 0.0
C576 C 0.64285 0.20809 0.67691 0.0
C577 C 0.63777 0.20111 0.68969 0.0
C578 C 0.64652 0.19003 0.69642 0.0
C579 C 0.66005 0.1861 0.69055 0.0
H580 H 0.69594 0.15825 0.69657 0.0
H581 H 0.70797 0.13578 0.70506 0.0
H582 H 0.73513 0.1364 0.6667 0.0
H583 H 0.72341 0.15931 0.65845 0.0
H584 H 0.72784 0.20069 0.64976 0.0
H585 H 0.73739 0.21756 0.63093 0.0
H586 H 0.69268 0.22654 0.61537 0.0
H587 H 0.68309 0.2101 0.63434 0.0
H588 H 0.65989 0.20988 0.66123 0.0
H589 H 0.6363 0.21648 0.67128 0.0
H590 H 0.64307 0.18456 0.70639 0.0
H591 H 0.66655 0.17762 0.6961 0.0
N592 N 0.6874 0.1775 0.67693 0.0
N593 N 0.70638 0.18263 0.66051 0.0
N594 N 0.68543 0.19773 0.66085 0.0
C595 C 0.7007 0.17399 0.67134 0.0
C596 C 0.69875 0.19454 0.65524 0.0
C597 C 0.67969 0.18935 0.67173 0.0
C598 C 0.70862 0.1606 0.67676 0.0
C599 C 0.70451 0.15365 0.68993 0.0
C600 C 0.71136 0.14065 0.69476 0.0
C601 C 0.72242 0.13407 0.68648 0.0
C602 C 0.72676 0.14117 0.67344 0.0
C603 C 0.71998 0.15431 0.66867 0.0
C604 C 0.70473 0.20409 0.64351 0.0
C605 C 0.72008 0.20625 0.64229 0.0
C606 C 0.72552 0.21595 0.63163 0.0
C607 C 0.71572 0.22334 0.62181 0.0
C608 C 0.70042 0.22097 0.62285 0.0
C609 C 0.69497 0.21158 0.63371 0.0
C610 C 0.66519 0.19321 0.67785 0.0
C611 C 0.65638 0.20423 0.67109 0.0
C612 C 0.3624 0.14216 0.72438 0.0
C613 C 0.35146 0.13341 0.71702 0.0
C614 C 0.34507 0.13856 0.7036 0.0
C615 C 0.34964 0.15202 0.69756 0.0
H616 H 0.336 0.18523 0.66857 0.0
H617 H 0.32311 0.19351 0.6461 0.0
H618 H 0.36137 0.21999 0.63518 0.0
H619 H 0.37405 0.21215 0.65809 0.0
H620 H 0.39711 0.21995 0.68739 0.0
H621 H 0.41926 0.23223 0.69808 0.0
H622 H 0.42204 0.19896 0.73234 0.0
H623 H 0.39988 0.18692 0.72194 0.0
H624 H 0.37567 0.16196 0.72415 0.0
H625 H 0.36759 0.13845 0.7347 0.0
H626 H 0.33646 0.13218 0.69776 0.0
H627 H 0.34451 0.15552 0.68714 0.0
N628 N 0.35907 0.18003 0.6855 0.0
N629 N 0.37615 0.19978 0.68472 0.0
N630 N 0.37813 0.18205 0.70368 0.0
C631 C 0.36397 0.19255 0.67884 0.0
C632 C 0.38327 0.19461 0.69722 0.0
C633 C 0.36606 0.17467 0.69789 0.0
C634 C 0.35611 0.19799 0.66518 0.0
C635 C 0.34169 0.19285 0.66141 0.0
C636 C 0.3343 0.19753 0.6484 0.0
C637 C 0.34117 0.20736 0.63864 0.0
C638 C 0.35558 0.21259 0.64246 0.0
C639 C 0.36292 0.20803 0.6556 0.0
C640 C 0.39663 0.20239 0.70375 0.0
C641 C 0.4024 0.21529 0.69724 0.0
C642 C 0.41515 0.22231 0.70335 0.0
C643 C 0.42245 0.21664 0.71612 0.0
C644 C 0.4166 0.20383 0.72266 0.0
C645 C 0.4039 0.19682 0.71659 0.0
C646 C 0.36081 0.16066 0.70473 0.0
C647 C 0.36707 0.15561 0.71827 0.0
C648 C 0.33986 0.83211 0.63321 0.0
C649 C 0.3279 0.83808 0.62492 0.0
C650 C 0.32136 0.85108 0.63002 0.0
C651 C 0.32678 0.85805 0.64299 0.0
H652 H 0.31587 0.88844 0.6764 0.0
H653 H 0.30356 0.90967 0.68684 0.0
H654 H 0.34361 0.92083 0.71229 0.0
H655 H 0.35568 0.89935 0.70232 0.0
H656 H 0.37829 0.87118 0.70924 0.0
H657 H 0.40227 0.86305 0.71959 0.0
H658 H 0.40688 0.83404 0.68217 0.0
H659 H 0.38312 0.84208 0.6718 0.0
H660 H 0.35471 0.83425 0.65207 0.0
H661 H 0.34525 0.82219 0.62953 0.0
H662 H 0.312 0.85587 0.62398 0.0
H663 H 0.32154 0.86811 0.6465 0.0
N664 N 0.3383 0.87179 0.67033 0.0
N665 N 0.35731 0.87424 0.68866 0.0
N666 N 0.35821 0.85537 0.67096 0.0
C667 C 0.34427 0.87901 0.6824 0.0
C668 C 0.36435 0.86241 0.68301 0.0
C669 C 0.34522 0.85993 0.66454 0.0
C670 C 0.33677 0.89208 0.68856 0.0
C671 C 0.32205 0.89541 0.68424 0.0
C672 C 0.315 0.90768 0.69017 0.0
C673 C 0.32252 0.91701 0.70049 0.0
C674 C 0.33731 0.91376 0.70464 0.0
C675 C 0.34429 0.90143 0.69883 0.0
C676 C 0.37874 0.85735 0.68963 0.0
C677 C 0.38441 0.86306 0.70322 0.0
C678 C 0.39811 0.85836 0.7092 0.0
C679 C 0.40651 0.84799 0.70164 0.0
C680 C 0.40078 0.8422 0.68816 0.0
C681 C 0.38708 0.84677 0.68226 0.0
C682 C 0.33895 0.85224 0.65113 0.0
C683 C 0.34535 0.83911 0.64611 0.0
C684 C 0.63235 0.82509 0.69746 0.0
C685 C 0.62457 0.81532 0.6878 0.0
C686 C 0.62988 0.81322 0.6735 0.0
C687 C 0.64241 0.82106 0.66889 0.0
H688 H 0.67749 0.82156 0.63827 0.0
H689 H 0.68975 0.81677 0.61512 0.0
H690 H 0.71539 0.85711 0.621 0.0
H691 H 0.70318 0.862 0.64395 0.0
H692 H 0.70466 0.87693 0.67778 0.0
H693 H 0.7118 0.8981 0.69339 0.0
H694 H 0.66872 0.89669 0.71271 0.0
H695 H 0.66191 0.87531 0.69768 0.0
H696 H 0.65027 0.84047 0.70064 0.0
H697 H 0.62889 0.8267 0.70868 0.0
H698 H 0.62414 0.80582 0.66575 0.0
H699 H 0.64604 0.81943 0.65773 0.0
N700 N 0.66982 0.83702 0.66109 0.0
N701 N 0.68566 0.85761 0.66515 0.0
N702 N 0.66695 0.85239 0.68166 0.0
C703 C 0.68143 0.84561 0.65681 0.0
C704 C 0.67843 0.86109 0.67757 0.0
C705 C 0.66257 0.84034 0.67358 0.0
C706 C 0.68923 0.84223 0.643 0.0
C707 C 0.68577 0.8294 0.63467 0.0
C708 C 0.69285 0.8266 0.62143 0.0
C709 C 0.70346 0.83662 0.61616 0.0
C710 C 0.7071 0.84928 0.62462 0.0
C711 C 0.70012 0.85204 0.63786 0.0
C712 C 0.68276 0.87431 0.68656 0.0
C713 C 0.69673 0.88116 0.68537 0.0
C714 C 0.7008 0.89336 0.69429 0.0
C715 C 0.69091 0.89909 0.70447 0.0
C716 C 0.67682 0.8924 0.70533 0.0
C717 C 0.67285 0.88014 0.6966 0.0
C718 C 0.64985 0.8312 0.67846 0.0
C719 C 0.64473 0.83296 0.69285 0.0
C720 C 0.61393 0.82178 0.33014 0.0
C721 C 0.61029 0.82802 0.31621 0.0
C722 C 0.62035 0.83823 0.31023 0.0
C723 C 0.63357 0.8421 0.31796 0.0
H724 H 0.6663 0.87605 0.32101 0.0
H725 H 0.68007 0.8989 0.31583 0.0
H726 H 0.71 0.89015 0.35306 0.0
H727 H 0.69638 0.86764 0.35834 0.0
H728 H 0.69113 0.84315 0.37945 0.0
H729 H 0.7015 0.82876 0.39976 0.0
H730 H 0.67068 0.79306 0.38918 0.0
H731 H 0.6599 0.80776 0.36878 0.0
H732 H 0.62953 0.8205 0.34849 0.0
H733 H 0.6064 0.81413 0.33532 0.0
H734 H 0.61812 0.84312 0.29945 0.0
H735 H 0.64102 0.84997 0.31296 0.0
N736 N 0.65899 0.85229 0.33624 0.0
N737 N 0.67641 0.84788 0.35551 0.0
N738 N 0.65625 0.8316 0.3518 0.0
C739 C 0.67163 0.85634 0.34393 0.0
C740 C 0.6689 0.83552 0.35955 0.0
C741 C 0.65121 0.83994 0.34011 0.0
C742 C 0.6801 0.86999 0.34017 0.0
C743 C 0.67583 0.879 0.32807 0.0
C744 C 0.68376 0.89205 0.32505 0.0
C745 C 0.69604 0.89642 0.33413 0.0
C746 C 0.70043 0.88727 0.34601 0.0
C747 C 0.69261 0.87426 0.34898 0.0
C748 C 0.67471 0.82661 0.37231 0.0
C749 C 0.68649 0.83224 0.38135 0.0
C750 C 0.69255 0.82391 0.39302 0.0
C751 C 0.68713 0.80962 0.396 0.0
C752 C 0.67511 0.80404 0.38721 0.0
C753 C 0.66896 0.81245 0.37549 0.0
C754 C 0.63721 0.83576 0.33183 0.0
C755 C 0.62722 0.82551 0.33778 0.0
C756 C 0.64332 0.20786 0.33263 0.0
C757 C 0.63354 0.20234 0.32143 0.0
C758 C 0.6368 0.18873 0.31477 0.0
C759 C 0.64961 0.18098 0.31903 0.0
H760 H 0.67278 0.13909 0.31641 0.0
H761 H 0.68022 0.1171 0.30278 0.0
H762 H 0.72618 0.12903 0.31083 0.0
H763 H 0.71884 0.15078 0.3249 0.0
H764 H 0.72543 0.17487 0.35444 0.0
H765 H 0.74045 0.18523 0.37507 0.0
H766 H 0.70077 0.20205 0.39411 0.0
H767 H 0.68608 0.19249 0.37321 0.0
H768 H 0.6634 0.20486 0.34547 0.0
H769 H 0.64132 0.21838 0.33787 0.0
H770 H 0.62941 0.18398 0.30629 0.0
H771 H 0.65177 0.1706 0.31358 0.0
N772 N 0.67765 0.16664 0.32668 0.0
N773 N 0.6996 0.16536 0.34144 0.0
N774 N 0.68228 0.18387 0.34571 0.0
C775 C 0.69073 0.1599 0.33015 0.0
C776 C 0.69534 0.17727 0.34938 0.0
C777 C 0.67341 0.17875 0.33432 0.0
C778 C 0.69522 0.14668 0.32174 0.0
C779 C 0.68447 0.13703 0.31529 0.0
C780 C 0.6887 0.12443 0.30754 0.0
C781 C 0.70374 0.12145 0.30577 0.0
C782 C 0.7145 0.13115 0.31204 0.0
C783 C 0.71029 0.14354 0.32012 0.0
C784 C 0.70458 0.18298 0.3621 0.0
C785 C 0.71998 0.18083 0.36305 0.0
C786 C 0.72858 0.18672 0.37494 0.0
C787 C 0.72194 0.19468 0.3863 0.0
C788 C 0.70645 0.19644 0.38544 0.0
C789 C 0.69795 0.19083 0.37346 0.0
C790 C 0.65948 0.18661 0.33011 0.0
C791 C 0.65608 0.2001 0.33693 0.0
C792 C 0.33328 0.13401 0.31789 0.0
C793 C 0.32757 0.12316 0.3273 0.0
C794 C 0.32713 0.12615 0.34255 0.0
C795 C 0.33275 0.13957 0.34833 0.0
H796 H 0.32507 0.17832 0.37716 0.0
H797 H 0.31617 0.19248 0.39784 0.0
H798 H 0.35635 0.21889 0.3989 0.0
H799 H 0.36542 0.20464 0.37823 0.0
H800 H 0.38783 0.20207 0.35055 0.0
H801 H 0.41155 0.2073 0.33908 0.0
H802 H 0.40408 0.17005 0.30976 0.0
H803 H 0.3807 0.16479 0.32099 0.0
H804 H 0.34405 0.15512 0.31621 0.0
H805 H 0.33386 0.13196 0.30612 0.0
H806 H 0.32273 0.11797 0.35002 0.0
H807 H 0.33273 0.14141 0.36017 0.0
N808 N 0.34306 0.17029 0.35731 0.0
N809 N 0.36375 0.18631 0.35613 0.0
N810 N 0.35998 0.16751 0.33853 0.0
C811 C 0.3511 0.18206 0.36284 0.0
C812 C 0.36827 0.17901 0.34396 0.0
C813 C 0.34744 0.16305 0.34507 0.0
C814 C 0.34596 0.19034 0.3759 0.0
C815 C 0.33209 0.18708 0.3818 0.0
C816 C 0.32693 0.19527 0.39364 0.0
C817 C 0.3355 0.2069 0.39996 0.0
C818 C 0.34951 0.20995 0.39434 0.0
C819 C 0.35466 0.20181 0.38242 0.0
C820 C 0.38235 0.18294 0.33681 0.0
C821 C 0.39124 0.19504 0.34162 0.0
C822 C 0.40478 0.19808 0.33504 0.0
C823 C 0.40972 0.18896 0.32367 0.0
C824 C 0.4007 0.1771 0.31869 0.0
C825 C 0.38721 0.17416 0.32513 0.0
C826 C 0.33922 0.15003 0.33898 0.0
C827 C 0.33917 0.14722 0.32369 0.0
C828 C 0.30139 0.85059 0.39771 0.0
C829 C 0.30595 0.83687 0.40349 0.0
C830 C 0.31727 0.82928 0.3965 0.0
C831 C 0.32385 0.83525 0.38403 0.0
H832 H 0.35579 0.82732 0.35388 0.0
H833 H 0.37824 0.81627 0.34494 0.0
H834 H 0.38421 0.85347 0.3157 0.0
H835 H 0.36178 0.86465 0.32469 0.0
H836 H 0.32432 0.88038 0.31635 0.0
H837 H 0.31081 0.90103 0.3048 0.0
H838 H 0.29887 0.91636 0.34789 0.0
H839 H 0.31199 0.89559 0.35944 0.0
H840 H 0.30411 0.86713 0.38111 0.0
H841 H 0.29287 0.85683 0.40293 0.0
H842 H 0.32091 0.81859 0.40051 0.0
H843 H 0.33245 0.82903 0.37889 0.0
N844 N 0.33769 0.84853 0.35866 0.0
N845 N 0.33775 0.86638 0.33976 0.0
N846 N 0.32024 0.86749 0.35828 0.0
C847 C 0.34373 0.85408 0.34622 0.0
C848 C 0.32601 0.87314 0.34579 0.0
C849 C 0.32594 0.85515 0.36475 0.0
C850 C 0.35696 0.84696 0.34009 0.0
C851 C 0.36182 0.83316 0.3455 0.0
C852 C 0.37466 0.82675 0.3403 0.0
C853 C 0.38306 0.83401 0.32965 0.0
C854 C 0.37809 0.84767 0.32405 0.0
C855 C 0.36516 0.85404 0.32915 0.0
C856 C 0.31916 0.88633 0.33879 0.0
C857 C 0.31894 0.88825 0.32335 0.0
C858 C 0.31116 0.89999 0.31675 0.0
C859 C 0.30379 0.91022 0.32549 0.0
C860 C 0.3045 0.90864 0.34093 0.0
C861 C 0.31196 0.89673 0.3475 0.0
C862 C 0.31922 0.84893 0.37819 0.0
C863 C 0.30793 0.85653 0.38522 0.0
C864 C 0.62201 0.72217 0.19245 0.0
C865 C 0.61584 0.71279 0.20306 0.0
C866 C 0.62084 0.69818 0.20427 0.0
C867 C 0.6321 0.69317 0.19536 0.0
H868 H 0.66731 0.66521 0.19819 0.0
H869 H 0.68272 0.64546 0.20807 0.0
H870 H 0.70976 0.64799 0.16975 0.0
H871 H 0.69423 0.66785 0.15966 0.0
H872 H 0.68874 0.69432 0.13676 0.0
H873 H 0.69496 0.7074 0.1142 0.0
H874 H 0.65952 0.73804 0.12093 0.0
H875 H 0.65308 0.72488 0.14329 0.0
H876 H 0.63773 0.72467 0.17544 0.0
H877 H 0.61827 0.73345 0.19119 0.0
H878 H 0.61634 0.69074 0.2124 0.0
H879 H 0.63587 0.68191 0.19677 0.0
N880 N 0.65886 0.68556 0.18039 0.0
N881 N 0.67419 0.68838 0.16019 0.0
N882 N 0.65469 0.70486 0.16351 0.0
C883 C 0.67055 0.68093 0.17264 0.0
C884 C 0.66629 0.70035 0.15552 0.0
C885 C 0.65087 0.69748 0.17594 0.0
C886 C 0.67955 0.66827 0.17815 0.0
C887 C 0.67647 0.66158 0.19177 0.0
C888 C 0.68536 0.65028 0.1975 0.0
C889 C 0.69755 0.64529 0.18976 0.0
C890 C 0.70041 0.65159 0.17593 0.0
C891 C 0.69154 0.66302 0.17021 0.0
C892 C 0.67034 0.70846 0.14189 0.0
C893 C 0.68225 0.70385 0.13346 0.0
C894 C 0.6859 0.71141 0.12055 0.0
C895 C 0.67771 0.72375 0.1157 0.0
C896 C 0.66591 0.72844 0.12419 0.0
C897 C 0.66227 0.72091 0.1371 0.0
C898 C 0.63844 0.70261 0.18487 0.0
C899 C 0.63311 0.7171 0.18338 0.0
C900 C 0.3243 0.64034 0.21223 0.0
C901 C 0.31023 0.6344 0.20822 0.0
C902 C 0.30261 0.64027 0.19574 0.0
C903 C 0.30879 0.65184 0.18761 0.0
H904 H 0.30574 0.67286 0.14654 0.0
H905 H 0.29424 0.68062 0.12306 0.0
H906 H 0.32055 0.72089 0.1247 0.0
H907 H 0.33241 0.71291 0.14787 0.0
H908 H 0.35571 0.71826 0.17637 0.0
H909 H 0.37876 0.73066 0.18482 0.0
H910 H 0.39324 0.69041 0.20618 0.0
H911 H 0.37006 0.67804 0.19807 0.0
H912 H 0.34127 0.65626 0.20766 0.0
H913 H 0.33064 0.63596 0.2216 0.0
H914 H 0.29168 0.63614 0.19239 0.0
H915 H 0.30247 0.65615 0.17818 0.0
N916 N 0.32214 0.67544 0.17072 0.0
N917 N 0.34004 0.69425 0.1685 0.0
N918 N 0.34172 0.67763 0.18844 0.0
C919 C 0.32755 0.68723 0.16318 0.0
C920 C 0.34723 0.68951 0.18107 0.0
C921 C 0.32909 0.6706 0.1834 0.0
C922 C 0.32008 0.69221 0.14912 0.0
C923 C 0.30907 0.68339 0.14192 0.0
C924 C 0.30239 0.68789 0.12845 0.0
C925 C 0.30647 0.70138 0.12187 0.0
C926 C 0.31732 0.71029 0.12922 0.0
C927 C 0.32407 0.70574 0.14261 0.0
C928 C 0.36104 0.69714 0.18653 0.0
C929 C 0.36377 0.71206 0.18292 0.0
C930 C 0.37692 0.7192 0.1878 0.0
C931 C 0.38778 0.71148 0.1961 0.0
C932 C 0.38508 0.69659 0.19972 0.0
C933 C 0.37178 0.68954 0.19514 0.0
C934 C 0.32276 0.65794 0.19177 0.0
C935 C 0.33046 0.65197 0.20415 0.0
C936 C 0.34987 0.31846 0.14189 0.0
C937 C 0.33455 0.31732 0.13879 0.0
C938 C 0.32485 0.3249 0.14786 0.0
C939 C 0.33038 0.33343 0.15983 0.0
H940 H 0.32435 0.37472 0.18231 0.0
H941 H 0.31194 0.39661 0.19117 0.0
H942 H 0.34436 0.4005 0.22734 0.0
H943 H 0.35667 0.37848 0.21866 0.0
H944 H 0.38912 0.32455 0.18623 0.0
H945 H 0.41129 0.31544 0.19899 0.0
H946 H 0.40425 0.34512 0.23544 0.0
H947 H 0.38214 0.35458 0.22247 0.0
H948 H 0.36724 0.32715 0.1563 0.0
H949 H 0.35757 0.31268 0.1351 0.0
H950 H 0.31299 0.32424 0.14566 0.0
H951 H 0.32263 0.33907 0.16667 0.0
N952 N 0.34411 0.3542 0.18184 0.0
N953 N 0.36232 0.35712 0.20089 0.0
N954 N 0.36443 0.33827 0.18331 0.0
C955 C 0.34948 0.36165 0.19405 0.0
C956 C 0.36987 0.34543 0.19561 0.0
C957 C 0.35157 0.34252 0.17639 0.0
C958 C 0.34158 0.37477 0.19971 0.0
C959 C 0.32883 0.38017 0.19219 0.0
C960 C 0.32175 0.39281 0.19723 0.0
C961 C 0.32717 0.40039 0.20994 0.0
C962 C 0.33977 0.39487 0.21759 0.0
C963 C 0.34689 0.38226 0.21254 0.0
C964 C 0.38372 0.34027 0.20331 0.0
C965 C 0.39225 0.32919 0.19695 0.0
C966 C 0.40497 0.32388 0.20434 0.0
C967 C 0.40951 0.32941 0.21836 0.0
C968 C 0.40115 0.34068 0.22463 0.0
C969 C 0.38842 0.34606 0.21719 0.0
C970 C 0.34569 0.33426 0.16319 0.0
C971 C 0.35537 0.32669 0.15406 0.0
C972 C 0.6328 0.3377 0.19814 0.0
C973 C 0.62697 0.32677 0.18841 0.0
C974 C 0.63499 0.32295 0.176 0.0
C975 C 0.64845 0.32997 0.17325 0.0
H976 H 0.68279 0.32588 0.1477 0.0
H977 H 0.69579 0.31652 0.12677 0.0
H978 H 0.72852 0.35154 0.13225 0.0
H979 H 0.71526 0.36122 0.15319 0.0
H980 H 0.71118 0.38465 0.17966 0.0
H981 H 0.719 0.40719 0.19259 0.0
H982 H 0.68021 0.40461 0.21905 0.0
H983 H 0.67247 0.38187 0.20634 0.0
H984 H 0.65041 0.35332 0.20293 0.0
H985 H 0.62681 0.34089 0.20777 0.0
H986 H 0.63091 0.31442 0.16843 0.0
H987 H 0.65422 0.32671 0.16351 0.0
N988 N 0.67662 0.34349 0.16832 0.0
N989 N 0.69417 0.36246 0.17241 0.0
N990 N 0.67327 0.3608 0.18713 0.0
C991 C 0.68947 0.35025 0.16469 0.0
C992 C 0.68614 0.36781 0.18368 0.0
C993 C 0.66844 0.34861 0.17947 0.0
C994 C 0.69792 0.34438 0.15219 0.0
C995 C 0.69277 0.33163 0.14454 0.0
C996 C 0.70031 0.32616 0.13255 0.0
C997 C 0.71324 0.33322 0.12783 0.0
C998 C 0.7185 0.3459 0.13551 0.0
C999 C 0.71094 0.35141 0.14757 0.0
C1000 C 0.69114 0.38139 0.19187 0.0
C1001 C 0.7043 0.38882 0.18826 0.0
C1002 C 0.70876 0.40183 0.19563 0.0
C1003 C 0.70019 0.4078 0.20681 0.0
C1004 C 0.68715 0.40027 0.21059 0.0
C1005 C 0.68267 0.38724 0.20322 0.0
C1006 C 0.65424 0.34108 0.1828 0.0
C1007 C 0.64627 0.34485 0.19532 0.0
C1008 C 0.6398 0.31779 0.84891 0.0
C1009 C 0.63195 0.32334 0.83644 0.0
C1010 C 0.63822 0.33515 0.82858 0.0
C1011 C 0.65184 0.34151 0.83336 0.0
H1012 H 0.68471 0.37318 0.82319 0.0
H1013 H 0.69478 0.39523 0.81161 0.0
H1014 H 0.72445 0.4022 0.84965 0.0
H1015 H 0.71476 0.37986 0.86099 0.0
H1016 H 0.72181 0.3495 0.88096 0.0
H1017 H 0.73454 0.3374 0.90192 0.0
H1018 H 0.69539 0.31076 0.90894 0.0
H1019 H 0.68286 0.32247 0.88793 0.0
H1020 H 0.65893 0.31947 0.86338 0.0
H1021 H 0.63544 0.30852 0.85507 0.0
H1022 H 0.63242 0.33972 0.81896 0.0
H1023 H 0.65624 0.35074 0.82719 0.0
N1024 N 0.67969 0.35502 0.84487 0.0
N1025 N 0.69953 0.35547 0.86249 0.0
N1026 N 0.68088 0.33734 0.86382 0.0
C1027 C 0.69257 0.36136 0.85026 0.0
C1028 C 0.69374 0.34344 0.86933 0.0
C1029 C 0.67376 0.34298 0.85162 0.0
C1030 C 0.69887 0.37471 0.84306 0.0
C1031 C 0.69341 0.37938 0.82908 0.0
C1032 C 0.69914 0.39211 0.82247 0.0
C1033 C 0.7104 0.40063 0.8297 0.0
C1034 C 0.71595 0.39586 0.84362 0.0
C1035 C 0.71031 0.38305 0.85018 0.0
C1036 C 0.70135 0.33685 0.88259 0.0
C1037 C 0.7159 0.3411 0.88701 0.0
C1038 C 0.72319 0.33421 0.89909 0.0
C1039 C 0.71607 0.32296 0.90702 0.0
C1040 C 0.70136 0.31911 0.90288 0.0
C1041 C 0.69413 0.32591 0.89082 0.0
C1042 C 0.65953 0.33611 0.84605 0.0
C1043 C 0.65336 0.32406 0.85364 0.0
C1044 C 0.65266 0.71526 0.83135 0.0
C1045 C 0.64141 0.70856 0.82244 0.0
C1046 C 0.64205 0.69331 0.81958 0.0
C1047 C 0.6539 0.68495 0.82533 0.0
H1048 H 0.68633 0.6539 0.81109 0.0
H1049 H 0.695 0.6326 0.7977 0.0
H1050 H 0.72173 0.61975 0.83612 0.0
H1051 H 0.71346 0.64145 0.84935 0.0
H1052 H 0.72331 0.6714 0.87207 0.0
H1053 H 0.73571 0.68158 0.89447 0.0
H1054 H 0.69823 0.7098 0.90092 0.0
H1055 H 0.68615 0.70006 0.8786 0.0
H1056 H 0.67277 0.71236 0.84423 0.0
H1057 H 0.65238 0.727 0.83373 0.0
H1058 H 0.63352 0.68793 0.81268 0.0
H1059 H 0.6542 0.67323 0.82286 0.0
N1060 N 0.6823 0.67056 0.83371 0.0
N1061 N 0.701 0.66738 0.85223 0.0
N1062 N 0.68473 0.68735 0.8534 0.0
C1063 C 0.69401 0.66275 0.83936 0.0
C1064 C 0.69635 0.67968 0.85934 0.0
C1065 C 0.67763 0.68289 0.84066 0.0
C1066 C 0.69919 0.64948 0.83134 0.0
C1067 C 0.69405 0.64655 0.81673 0.0
C1068 C 0.69897 0.63421 0.80904 0.0
C1069 C 0.70908 0.62433 0.81576 0.0
C1070 C 0.71414 0.6272 0.83043 0.0
C1071 C 0.70932 0.63964 0.83809 0.0
C1072 C 0.70379 0.68501 0.87337 0.0
C1073 C 0.71772 0.67975 0.87831 0.0
C1074 C 0.72482 0.68556 0.89119 0.0
C1075 C 0.7181 0.6967 0.89942 0.0
C1076 C 0.70397 0.70155 0.89468 0.0
C1077 C 0.69697 0.69586 0.88186 0.0
C1078 C 0.66512 0.69163 0.83435 0.0
C1079 C 0.66429 0.70686 0.83738 0.0
C1080 C 0.33542 0.63944 0.80367 0.0
C1081 C 0.32648 0.63113 0.81307 0.0
C1082 C 0.32685 0.6344 0.82826 0.0
C1083 C 0.33558 0.64615 0.83386 0.0
H1084 H 0.32818 0.68199 0.8604 0.0
H1085 H 0.31688 0.69579 0.87992 0.0
H1086 H 0.35406 0.72626 0.88169 0.0
H1087 H 0.36559 0.71239 0.86192 0.0
H1088 H 0.38066 0.71476 0.82602 0.0
H1089 H 0.40111 0.72466 0.81182 0.0
H1090 H 0.41212 0.68046 0.79842 0.0
H1091 H 0.39144 0.67051 0.81229 0.0
H1092 H 0.35097 0.65738 0.80177 0.0
H1093 H 0.33539 0.63704 0.79193 0.0
H1094 H 0.32003 0.62817 0.83571 0.0
H1095 H 0.33535 0.64867 0.84556 0.0
N1096 N 0.34749 0.67523 0.842 0.0
N1097 N 0.36617 0.69326 0.83992 0.0
N1098 N 0.36458 0.67325 0.82326 0.0
C1099 C 0.35417 0.68792 0.84696 0.0
C1100 C 0.37151 0.6859 0.82812 0.0
C1101 C 0.35256 0.66786 0.83019 0.0
C1102 C 0.3478 0.69611 0.85945 0.0
C1103 C 0.33407 0.69158 0.86491 0.0
C1104 C 0.32751 0.69954 0.87608 0.0
C1105 C 0.33451 0.71218 0.88221 0.0
C1106 C 0.34844 0.71653 0.87715 0.0
C1107 C 0.35499 0.70862 0.8658 0.0
C1108 C 0.38439 0.69185 0.82024 0.0
C1109 C 0.38748 0.70714 0.82012 0.0
C1110 C 0.39913 0.71282 0.81196 0.0
C1111 C 0.40813 0.70331 0.80404 0.0
C1112 C 0.40535 0.688 0.80448 0.0
C1113 C 0.39348 0.68234 0.81236 0.0
C1114 C 0.34435 0.65466 0.82443 0.0
C1115 C 0.3444 0.65099 0.80932 0.0
C1116 C 0.3272 0.33958 0.89523 0.0
C1117 C 0.33156 0.32549 0.90017 0.0
C1118 C 0.34288 0.31826 0.89285 0.0
C1119 C 0.34958 0.32487 0.88078 0.0
H1120 H 0.38741 0.32333 0.85626 0.0
H1121 H 0.40941 0.31253 0.84604 0.0
H1122 H 0.40481 0.34097 0.80783 0.0
H1123 H 0.38274 0.35184 0.81799 0.0
H1124 H 0.36604 0.38369 0.82535 0.0
H1125 H 0.35665 0.40704 0.81568 0.0
H1126 H 0.31661 0.40068 0.83979 0.0
H1127 H 0.32623 0.37765 0.84988 0.0
H1128 H 0.33009 0.35697 0.8795 0.0
H1129 H 0.31844 0.34538 0.90057 0.0
H1130 H 0.34662 0.30747 0.89651 0.0
H1131 H 0.35822 0.31891 0.87541 0.0
N1132 N 0.36385 0.33934 0.85646 0.0
N1133 N 0.36468 0.35825 0.83874 0.0
N1134 N 0.34655 0.35846 0.85667 0.0
C1135 C 0.37025 0.3455 0.84451 0.0
C1136 C 0.35283 0.3648 0.84474 0.0
C1137 C 0.352 0.34573 0.86261 0.0
C1138 C 0.38332 0.33854 0.83801 0.0
C1139 C 0.391 0.32726 0.84564 0.0
C1140 C 0.40365 0.3211 0.83983 0.0
C1141 C 0.40885 0.32595 0.82617 0.0
C1142 C 0.401 0.33695 0.81834 0.0
C1143 C 0.38841 0.34324 0.82423 0.0
C1144 C 0.34693 0.3788 0.83847 0.0
C1145 C 0.35522 0.38726 0.82858 0.0
C1146 C 0.34979 0.40064 0.82296 0.0
C1147 C 0.33588 0.40584 0.82698 0.0
C1148 C 0.32751 0.39723 0.83668 0.0
C1149 C 0.333 0.38394 0.84242 0.0
C1150 C 0.34507 0.33887 0.87566 0.0
C1151 C 0.33383 0.34617 0.88308 0.0
Cu1152 Cu 0.27519 0.26562 0.025 0.0
N1153 N 0.27946 0.28164 0.01267 0.0
N1154 N 0.28689 0.29322 0.99231 0.0
C1155 C 0.28613 0.28026 0.99969 0.0
C1156 C 0.2806 0.30323 1.00115 0.0
C1157 C 0.27597 0.29603 0.01369 0.0
O1158 O 0.27244 0.24849 0.01189 0.0
C1159 C 0.29971 0.27391 0.04425 0.0
O1160 O 0.30208 0.28438 0.03452 0.0
H1161 H 0.29017 0.26984 0.9957 0.0
H1162 H 0.2702 0.30086 0.02275 0.0
N1163 N 0.25748 0.26805 0.0346 0.0
N1164 N 0.24029 0.26401 0.05136 0.0
C1165 C 0.25376 0.26032 0.04665 0.0
C1166 C 0.24601 0.27702 0.0315 0.0
C1167 C 0.23538 0.27456 0.04184 0.0
C1168 C 0.26255 0.25047 1.00164 0.0
O1169 O 0.25526 0.26296 1.00148 0.0
H1170 H 0.26095 0.25224 0.05193 0.0
H1171 H 0.24536 0.28469 0.02232 0.0
O1172 O 0.29004 0.26385 0.04119 0.0
H1173 H 0.279 0.3148 0.99853 0.0
H1174 H 0.22477 0.27997 0.04213 0.0
Cu1175 Cu 0.78502 0.26371 0.01672 0.0
N1176 N 0.76839 0.26628 0.02966 0.0
N1177 N 0.75432 0.27679 0.04643 0.0
C1178 C 0.76542 0.27878 0.03699 0.0
C1179 C 0.75015 0.26244 0.04485 0.0
C1180 C 0.75888 0.25597 0.03448 0.0
O1181 O 0.79674 0.25349 0.03343 0.0
C1182 C 0.77304 0.28481 0.99393 0.0
O1183 O 0.78194 0.29489 0.99999 0.0
H1184 H 0.7718 0.28891 0.03593 0.0
H1185 H 0.75863 0.2445 0.03106 0.0
N1186 N 0.80203 0.26198 1.00415 0.0
N1187 N 0.81808 0.25459 0.9876 0.0
C1188 C 0.80437 0.25262 0.99287 0.0
C1189 C 0.81449 0.27014 1.00596 0.0
C1190 C 0.82442 0.26561 0.99579 0.0
C1191 C 0.80072 0.25878 0.04602 0.0
O1192 O 0.79786 0.27262 0.04917 0.0
H1193 H 0.79641 0.24435 0.98889 0.0
H1194 H 0.81626 0.27866 0.01426 0.0
O1195 O 0.77263 0.27182 0.99935 0.0
H1196 H 0.74155 0.25693 0.05089 0.0
H1197 H 0.83547 0.27009 0.99451 0.0
Cu1198 Cu 0.75745 0.77734 1.00724 0.0
N1199 N 0.76107 0.79316 0.99443 0.0
N1200 N 0.76868 0.80495 0.97426 0.0
C1201 C 0.76766 0.79188 0.9814 0.0
C1202 C 0.76264 0.81494 0.98329 0.0
C1203 C 0.75793 0.80762 0.99573 0.0
O1204 O 0.75735 0.75942 0.99506 0.0
C1205 C 0.7705 0.7884 0.03312 0.0
O1206 O 0.75902 0.79711 0.03143 0.0
H1207 H 0.77171 0.7815 0.97728 0.0
H1208 H 0.75249 0.81247 1.00498 0.0
N1209 N 0.73877 0.77856 0.01539 0.0
N1210 N 0.7199 0.77358 0.03003 0.0
C1211 C 0.7339 0.77022 0.02661 0.0
C1212 C 0.72749 0.78752 0.01153 0.0
C1213 C 0.71584 0.78447 0.02053 0.0
C1214 C 0.74791 0.7597 0.98419 0.0
O1215 O 0.73927 0.77124 0.98277 0.0
H1216 H 0.74049 0.76172 0.032 0.0
H1217 H 0.72772 0.79567 1.00278 0.0
O1218 O 0.77232 0.7783 0.02351 0.0
H1219 H 0.76143 0.82661 0.98095 0.0
H1220 H 0.70526 0.78999 0.02018 0.0
Cu1221 Cu 0.26709 0.76333 1.00279 0.0
N1222 N 0.26638 0.7813 0.01279 0.0
N1223 N 0.26016 0.79773 0.0299 0.0
C1224 C 0.26008 0.78334 0.02587 0.0
C1225 C 0.26692 0.80497 0.01887 0.0
C1226 C 0.27073 0.7948 0.00833 0.0
O1227 O 0.26788 0.74781 0.01779 0.0
C1228 C 0.24026 0.77128 0.98687 0.0
O1229 O 0.23878 0.7814 0.99711 0.0
H1230 H 0.25538 0.77437 0.03217 0.0
H1231 H 0.27591 0.7971 0.99797 0.0
N1232 N 0.28374 0.76252 0.99118 0.0
N1233 N 0.2967 0.75774 0.97117 0.0
C1234 C 0.28364 0.75606 0.97778 0.0
C1235 C 0.29737 0.76858 0.99317 0.0
C1236 C 0.30545 0.76553 0.98086 0.0
C1237 C 0.27927 0.74793 0.02656 0.0
O1238 O 0.28976 0.75782 0.02446 0.0
H1239 H 0.27406 0.75032 0.97293 0.0
H1240 H 0.30105 0.77505 1.00271 0.0
O1241 O 0.25044 0.76171 0.98848 0.0
H1242 H 0.26859 0.81682 0.01817 0.0
H1243 H 0.31668 0.76918 0.97897 0.0
Cu1244 Cu 0.01736 0.2751 0.26934 0.0
N1245 N 0.02975 0.27756 0.25348 0.0
N1246 N 0.05002 0.27396 0.24054 0.0
C1247 C 0.04439 0.27493 0.25412 0.0
C1248 C 0.03845 0.27624 0.23095 0.0
C1249 C 0.02595 0.27842 0.23898 0.0
O1250 O 0.03 0.27535 0.28712 0.0
C1251 C 0.99347 0.25407 0.2699 0.0
O1252 O 0.98745 0.26326 0.27911 0.0
H1253 H 0.05052 0.27243 0.26428 0.0
H1254 H 0.01473 0.27939 0.23453 0.0
N1255 N 1.00401 0.29057 0.27052 0.0
N1256 N 0.98684 0.30493 0.28012 0.0
C1257 C 0.99756 0.29494 0.28294 0.0
C1258 C 0.99731 0.2982 0.25944 0.0
C1259 C 0.9867 0.30707 0.26533 0.0
C1260 C 0.03836 0.26475 0.2911 0.0
O1261 O 0.03711 0.25204 0.28407 0.0
H1262 H 1.00004 0.29011 0.2937 0.0
H1263 H 0.99954 0.29695 0.24785 0.0
O1264 O 1.00652 0.2567 0.26564 0.0
H1265 H 0.03881 0.27555 0.21902 0.0
H1266 H 0.97921 0.31423 0.25915 0.0
Cu1267 Cu 0.76177 1.00697 0.26456 0.0
N1268 N 0.77846 0.01925 0.26332 0.0
N1269 N 0.7913 0.03973 0.25786 0.0
C1270 C 0.77795 0.03285 0.25733 0.0
C1271 C 0.80067 0.02995 0.26438 0.0
C1272 C 0.79268 0.01731 0.2678 0.0
O1273 O 0.74519 0.02071 0.26251 0.0
C1274 C 0.77194 0.98961 0.24031 0.0
O1275 O 0.78154 1.0004 0.23836 0.0
H1276 H 0.76793 0.03751 0.25247 0.0
H1277 H 0.79692 1.00745 0.27317 0.0
N1278 N 0.76148 0.99735 0.28283 0.0
N1279 N 0.75427 0.98167 0.30038 0.0
C1280 C 0.75239 0.98599 0.28613 0.0
C1281 C 0.7695 1.00029 0.29532 0.0
C1282 C 0.76507 0.99064 0.30618 0.0
C1283 C 0.7379 0.02493 0.27355 0.0
O1284 O 0.73928 0.0177 0.2861 0.0
H1285 H 0.74423 0.98135 0.27833 0.0
H1286 H 0.77782 0.00896 0.29651 0.0
O1287 O 0.76199 0.99113 0.24983 0.0
H1288 H 0.81238 0.03186 0.26673 0.0
H1289 H 0.76949 0.9903 0.31747 0.0
Cu1290 Cu 0.01882 0.75779 0.26157 0.0
N1291 N 1.00696 0.77473 0.26052 0.0
N1292 N 0.98666 0.78798 0.25512 0.0
C1293 C 0.99314 0.77464 0.25441 0.0
C1294 C 0.99692 0.79696 0.2618 0.0
C1295 C 0.00945 0.78873 0.26518 0.0
O1296 O 1.00466 0.74125 0.26236 0.0
C1297 C 0.04213 0.76863 0.24641 0.0
O1298 O 0.04236 0.77693 0.25834 0.0
H1299 H 0.98794 0.76488 0.24947 0.0
H1300 H 0.01955 0.79266 0.27073 0.0
N1301 N 0.03089 0.75664 0.27886 0.0
N1302 N 0.04795 0.74785 0.29506 0.0
C1303 C 0.04168 0.74664 0.2813 0.0
C1304 C 0.03036 0.76453 0.29144 0.0
C1305 C 0.04084 0.7591 0.30147 0.0
C1306 C 0.99602 0.74257 0.27315 0.0
O1307 O 0.99824 0.75374 0.2823 0.0
H1308 H 0.04454 0.73834 0.2733 0.0
H1309 H 0.02271 0.77339 0.29328 0.0
O1310 O 0.03207 0.75863 0.24494 0.0
H1311 H 0.99539 0.80853 0.26435 0.0
H1312 H 0.043 0.76308 0.31264 0.0
Cu1313 Cu 0.25797 0.01575 0.25607 0.0
N1314 N 0.27743 0.02282 0.25851 0.0
N1315 N 0.29585 0.03645 0.26888 0.0
C1316 C 0.28135 0.03588 0.26477 0.0
C1317 C 0.30136 0.0233 0.2648 0.0
C1318 C 0.28997 0.01493 0.25837 0.0
O1319 O 0.24495 0.03258 0.25351 0.0
C1320 C 0.26204 1.00122 0.28402 0.0
O1321 O 0.27177 0.01171 0.28739 0.0
H1322 H 0.27347 0.04422 0.26765 0.0
H1323 H 0.29051 1.00346 0.25504 0.0
N1324 N 0.25538 1.00368 0.23947 0.0
N1325 N 0.24492 0.98559 0.22567 0.0
C1326 C 0.24333 0.99499 0.23707 0.0
C1327 C 0.26499 0.99973 0.2292 0.0
C1328 C 0.25855 0.98852 0.22065 0.0
C1329 C 0.24186 0.04146 0.26382 0.0
O1330 O 0.24638 0.03849 0.27747 0.0
H1331 H 0.23394 0.99498 0.24418 0.0
H1332 H 0.27609 1.0042 0.22839 0.0
O1333 O 0.25375 1.0025 0.27239 0.0
H1334 H 0.31258 0.01966 0.26714 0.0
H1335 H 0.26363 0.98276 0.21169 0.0
Cu1336 Cu 0.01573 0.76297 0.75764 0.0
N1337 N 0.02855 0.74687 0.7571 0.0
N1338 N 0.04923 0.73485 0.75202 0.0
C1339 C 0.04178 0.74765 0.75079 0.0
C1340 C 0.04028 0.72554 0.75933 0.0
C1341 C 0.02753 0.73305 0.76259 0.0
O1342 O 0.02846 0.78026 0.76158 0.0
C1343 C 0.99686 0.75126 0.73628 0.0
O1344 O 0.99932 0.73986 0.74499 0.0
H1345 H 0.04585 0.75749 0.74537 0.0
H1346 H 0.01825 0.72879 0.76858 0.0
N1347 N 1.00197 0.76182 0.77252 0.0
N1348 N 0.98091 0.76705 0.78353 0.0
C1349 C 0.98852 0.76795 0.77102 0.0
C1350 C 1.00298 0.75676 0.78653 0.0
C1351 C 0.98997 0.76005 0.7934 0.0
C1352 C 0.03727 0.7787 0.77282 0.0
O1353 O 0.0363 0.76651 0.78066 0.0
H1354 H 0.98466 0.77356 0.76105 0.0
H1355 H 0.01259 0.75141 0.7915 0.0
O1356 O 1.00373 0.76339 0.73922 0.0
H1357 H 0.04291 0.71426 0.76239 0.0
H1358 H 0.98744 0.75762 0.80476 0.0
Cu1359 Cu 0.27785 0.02136 0.77826 0.0
N1360 N 0.29536 0.03257 0.77938 0.0
N1361 N 0.31225 0.04879 0.77154 0.0
C1362 C 0.30118 0.03924 0.7676 0.0
C1363 C 0.31346 0.04806 0.78645 0.0
C1364 C 0.30301 0.03802 0.79127 0.0
O1365 O 0.26183 0.03566 0.77847 0.0
C1366 C 0.28927 0.99977 0.76126 0.0
O1367 O 0.29857 1.00028 0.77278 0.0
H1368 H 0.29668 0.03784 0.75641 0.0
H1369 H 0.30066 0.03548 0.80264 0.0
N1370 N 0.27571 0.0084 0.79422 0.0
N1371 N 0.26496 0.9909 0.8078 0.0
C1372 C 0.26313 1.00086 0.79678 0.0
C1373 C 0.28592 1.00309 0.80401 0.0
C1374 C 0.27931 0.99223 0.81239 0.0
C1375 C 0.26026 0.04196 0.79093 0.0
O1376 O 0.26871 0.03776 0.80227 0.0
H1377 H 0.253 1.00219 0.79016 0.0
H1378 H 0.29746 1.00645 0.80462 0.0
O1379 O 0.27857 0.00886 0.7607 0.0
H1380 H 0.32103 0.05462 0.7934 0.0
H1381 H 0.28469 0.98568 0.821 0.0
Cu1382 Cu 0.02675 0.27573 0.76878 0.0
N1383 N 0.01747 0.29411 0.76863 0.0
N1384 N 1.00127 0.31188 0.76256 0.0
C1385 C 1.00539 0.29775 0.76027 0.0
C1386 C 0.01121 0.31728 0.7728 0.0
C1387 C 0.02116 0.30631 0.77651 0.0
O1388 O 0.01062 0.26141 0.76581 0.0
C1389 C 0.05212 0.28504 0.7555 0.0
O1390 O 0.05275 0.29291 0.76773 0.0
H1391 H 0.99989 0.2902 0.75251 0.0
H1392 H 0.03043 0.30717 0.7844 0.0
N1393 N 0.03672 0.27266 0.78706 0.0
N1394 N 0.05426 0.26652 0.80399 0.0
C1395 C 0.0497 0.26569 0.78961 0.0
C1396 C 0.03286 0.27787 0.80029 0.0
C1397 C 0.04369 0.27417 0.81074 0.0
C1398 C 0.0081 0.25068 0.77455 0.0
O1399 O 0.01815 0.24721 0.78479 0.0
H1400 H 0.05596 0.26064 0.781 0.0
H1401 H 0.02301 0.28419 0.80214 0.0
O1402 O 0.04123 0.27611 0.75329 0.0
H1403 H 0.01124 0.32831 0.77746 0.0
H1404 H 0.04385 0.27701 0.82238 0.0
Cu1405 Cu 0.75965 0.02018 0.75573 0.0
N1406 N 0.76355 0.03261 0.77196 0.0
N1407 N 0.77606 0.04957 0.78557 0.0
C1408 C 0.77534 0.04183 0.77281 0.0
C1409 C 0.76419 0.04508 0.79309 0.0
C1410 C 0.75653 0.0345 0.7847 0.0
O1411 O 0.75932 0.03311 0.73842 0.0
C1412 C 0.77433 0.9966 0.76752 0.0
O1413 O 0.76384 0.9987 0.77697 0.0
H1414 H 0.78324 0.04285 0.76414 0.0
H1415 H 0.74675 0.02846 0.78786 0.0
N1416 N 0.74155 0.00984 0.75641 0.0
N1417 N 0.7252 0.99129 0.75281 0.0
C1418 C 0.73869 0.99676 0.74967 0.0
C1419 C 0.72935 0.01283 0.76395 0.0
C1420 C 0.71927 1.00136 0.7618 0.0
C1421 C 0.74829 0.04177 0.73739 0.0
O1422 O 0.73805 0.04069 0.74728 0.0
H1423 H 0.7466 0.99112 0.74302 0.0
H1424 H 0.72786 0.0226 0.77059 0.0
O1425 O 0.77508 1.00528 0.75644 0.0
H1426 H 0.76148 0.04886 0.80401 0.0
H1427 H 0.70844 1.0005 0.76648 0.0
Cu1428 Cu 0.26635 0.75968 0.50945 0.0
N1429 N 0.28125 0.76249 0.52418 0.0
N1430 N 0.29476 0.77412 0.54202 0.0
C1431 C 0.28489 0.77558 0.53052 0.0
C1432 C 0.29753 0.75948 0.54282 0.0
C1433 C 0.28918 0.75234 0.53181 0.0
O1434 O 0.24771 0.75562 0.51882 0.0
C1435 C 0.27828 0.78022 0.49096 0.0
O1436 O 0.29002 0.7725 0.49489 0.0
H1437 H 0.27972 0.78587 0.52723 0.0
H1438 H 0.28858 0.74055 0.52985 0.0
N1439 N 0.26987 0.74355 0.49718 0.0
N1440 N 0.26863 0.73002 0.47642 0.0
C1441 C 0.26753 0.74363 0.48239 0.0
C1442 C 0.27251 0.72935 0.50078 0.0
C1443 C 0.27178 0.72097 0.48797 0.0
C1444 C 0.24432 0.76114 0.53119 0.0
O1445 O 0.25287 0.77146 0.5373 0.0
H1446 H 0.26414 0.75338 0.47625 0.0
H1447 H 0.2741 0.72525 0.51195 0.0
O1448 O 0.26596 0.77692 0.49663 0.0
H1449 H 0.30486 0.75424 0.55093 0.0
H1450 H 0.27305 0.7091 0.48729 0.0
Cu1451 Cu 0.76639 0.76853 0.50414 0.0
N1452 N 0.7847 0.76815 0.49502 0.0
N1453 N 0.80284 0.76158 0.4802 0.0
C1454 C 0.78858 0.75933 0.48378 0.0
C1455 C 0.80807 0.77223 0.48957 0.0
C1456 C 0.7969 0.77622 0.49867 0.0
O1457 O 0.75058 0.76614 0.48892 0.0
C1458 C 0.77597 0.75659 0.5307 0.0
O1459 O 0.78334 0.76921 0.53061 0.0
H1460 H 0.78115 0.75124 0.47857 0.0
H1461 H 0.79768 0.78435 0.50744 0.0
N1462 N 0.76349 0.78693 0.51305 0.0
N1463 N 0.75488 0.80427 0.52807 0.0
C1464 C 0.7549 0.78972 0.52459 0.0
C1465 C 0.76906 0.80014 0.50905 0.0
C1466 C 0.76381 0.81083 0.5183 0.0
C1467 C 0.7517 0.77455 0.47767 0.0
O1468 O 0.76332 0.78339 0.47704 0.0
H1469 H 0.74859 0.78124 0.53011 0.0
H1470 H 0.77635 0.8019 0.49998 0.0
O1471 O 0.76712 0.75356 0.51975 0.0
H1472 H 0.81917 0.77689 0.48981 0.0
H1473 H 0.76649 0.82252 0.51787 0.0
Cu1474 Cu 0.7711 0.27288 0.50914 0.0
N1475 N 0.76211 0.25813 0.49701 0.0
N1476 N 0.75546 0.24376 0.47766 0.0
C1477 C 0.76675 0.25112 0.48481 0.0
C1478 C 0.74341 0.24616 0.4856 0.0
C1479 C 0.7475 0.255 0.4974 0.0
O1480 O 0.77489 0.2901 0.49683 0.0
C1481 C 0.75552 0.26441 0.53276 0.0
O1482 O 0.76119 0.25191 0.52838 0.0
H1483 H 0.77781 0.25218 0.48069 0.0
H1484 H 0.74009 0.25961 0.50526 0.0
N1485 N 0.78882 0.26784 0.51904 0.0
N1486 N 0.8059 0.26955 0.53758 0.0
C1487 C 0.79416 0.27591 0.53058 0.0
C1488 C 0.79746 0.25585 0.51855 0.0
C1489 C 0.80805 0.25689 0.53001 0.0
C1490 C 0.78543 0.28871 0.48796 0.0
O1491 O 0.79298 0.27637 0.48829 0.0
H1492 H 0.78887 0.28585 0.53428 0.0
H1493 H 0.79581 0.24677 0.51085 0.0
O1494 O 0.75803 0.27619 0.52545 0.0
H1495 H 0.73228 0.24231 0.48267 0.0
H1496 H 0.81643 0.24877 0.53272 0.0
Cu1497 Cu 0.28753 0.2705 0.52506 0.0
N1498 N 0.2885 0.2883 0.53562 0.0
N1499 N 0.28298 0.30477 0.55297 0.0
C1500 C 0.27963 0.29149 0.5468 0.0
C1501 C 0.29443 0.31015 0.54531 0.0
C1502 C 0.2978 0.29996 0.53458 0.0
O1503 O 0.29016 0.25482 0.53981 0.0
C1504 C 0.26728 0.282 0.50539 0.0
O1505 O 0.27766 0.29231 0.50619 0.0
H1506 H 0.27116 0.28397 0.55058 0.0
H1507 H 0.30647 0.30093 0.52669 0.0
N1508 N 0.30216 0.26869 0.51106 0.0
N1509 N 0.31198 0.26153 0.48987 0.0
C1510 C 0.29963 0.26218 0.4978 0.0
C1511 C 0.31668 0.27229 0.51163 0.0
C1512 C 0.32278 0.26785 0.49855 0.0
C1513 C 0.30132 0.25677 0.54871 0.0
O1514 O 0.30997 0.26835 0.54678 0.0
H1515 H 0.28895 0.25763 0.49424 0.0
H1516 H 0.32245 0.27761 0.52091 0.0
O1517 O 0.26884 0.27051 0.51349 0.0
H1518 H 0.29997 0.32069 0.54726 0.0
H1519 H 0.33424 0.26921 0.49567 0.0
Cu1520 Cu 0.77709 0.5174 0.76239 0.0
N1521 N 0.79461 0.52885 0.76289 0.0
N1522 N 0.80969 0.54801 0.75828 0.0
C1523 C 0.7963 0.54164 0.75541 0.0
C1524 C 0.81675 0.53883 0.76789 0.0
C1525 C 0.80746 0.527 0.77066 0.0
O1526 O 0.76099 0.5316 0.76346 0.0
C1527 C 0.78874 0.49622 0.74495 0.0
O1528 O 0.79873 0.49766 0.75581 0.0
H1529 H 0.78767 0.54638 0.74833 0.0
H1530 H 0.80996 0.51773 0.77783 0.0
N1531 N 0.77514 0.50467 0.77857 0.0
N1532 N 0.76481 0.48677 0.79201 0.0
C1533 C 0.76412 0.49457 0.77928 0.0
C1534 C 0.78312 0.50329 0.79138 0.0
C1535 C 0.77681 0.49216 0.79966 0.0
C1536 C 0.76245 0.5401 0.77473 0.0
O1537 O 0.77384 0.53812 0.78397 0.0
H1538 H 0.75575 0.49296 0.77052 0.0
H1539 H 0.79263 0.51003 0.79465 0.0
O1540 O 0.77734 0.50443 0.74503 0.0
H1541 H 0.82786 0.54051 0.77253 0.0
H1542 H 0.78051 0.4886 0.8106 0.0
Cu1543 Cu 0.27196 0.52065 0.7537 0.0
N1544 N 0.28886 0.5099 0.75919 0.0
N1545 N 0.30263 0.49317 0.77133 0.0
C1546 C 0.28928 0.49962 0.76995 0.0
C1547 C 0.31096 0.49953 0.76094 0.0
C1548 C 0.30243 0.50995 0.75349 0.0
O1549 O 0.25525 0.50681 0.75292 0.0
C1550 C 0.27788 0.5398 0.77855 0.0
O1551 O 0.28611 0.52908 0.78398 0.0
H1552 H 0.27989 0.49683 0.77655 0.0
H1553 H 0.30587 0.51701 0.74457 0.0
N1554 N 0.2731 0.52888 0.73487 0.0
N1555 N 0.26693 0.54365 0.71586 0.0
C1556 C 0.26501 0.5405 0.73025 0.0
C1557 C 0.28046 0.52445 0.72302 0.0
C1558 C 0.27667 0.53357 0.71125 0.0
C1559 C 0.25738 0.49541 0.74502 0.0
O1560 O 0.2701 0.49424 0.73855 0.0
H1561 H 0.25738 0.54612 0.73722 0.0
H1562 H 0.28774 0.51505 0.72282 0.0
O1563 O 0.26995 0.53754 0.7668 0.0
H1564 H 0.32241 0.49699 0.75903 0.0
H1565 H 0.28067 0.53272 0.70015 0.0
Cu1566 Cu 0.26206 0.50668 0.26959 0.0
N1567 N 0.24572 0.49518 0.27516 0.0
N1568 N 0.23419 0.47604 0.28583 0.0
C1569 C 0.24681 0.48418 0.28517 0.0
C1570 C 0.22463 0.48242 0.27597 0.0
C1571 C 0.2318 0.49418 0.26936 0.0
O1572 O 0.27359 0.49403 0.25697 0.0
C1573 C 0.2732 0.5226 0.29656 0.0
O1574 O 0.28337 0.52328 0.30733 0.0
H1575 H 0.25688 0.48198 0.29157 0.0
H1576 H 0.22734 0.50107 0.26055 0.0
N1577 N 0.2577 0.52392 0.25881 0.0
N1578 N 0.26153 0.54636 0.24906 0.0
C1579 C 0.26615 0.53632 0.25922 0.0
C1580 C 0.24744 0.52612 0.24786 0.0
C1581 C 0.24978 0.53997 0.24183 0.0
C1582 C 0.28079 0.48292 0.26189 0.0
O1583 O 0.28127 0.48026 0.27618 0.0
H1584 H 0.27594 0.53768 0.26639 0.0
H1585 H 0.23924 0.51802 0.24411 0.0
O1586 O 0.27378 0.51186 0.2874 0.0
H1587 H 0.21353 0.47845 0.27317 0.0
H1588 H 0.24349 0.54486 0.23269 0.0
Cu1589 Cu 0.76378 0.52434 0.24816 0.0
N1590 N 0.78069 0.51274 0.24701 0.0
N1591 N 0.7945 0.49294 0.25211 0.0
C1592 C 0.78069 0.49819 0.25016 0.0
C1593 C 0.80365 0.50459 0.2501 0.0
C1594 C 0.79509 0.51682 0.24684 0.0
O1595 O 0.74721 0.51026 0.24842 0.0
C1596 C 0.77541 0.54797 0.26392 0.0
O1597 O 0.78186 0.5494 0.25121 0.0
H1598 H 0.77076 0.49185 0.25233 0.0
H1599 H 0.79911 0.52802 0.24546 0.0
N1600 N 0.76079 0.53704 0.232 0.0
N1601 N 0.75315 0.55746 0.22024 0.0
C1602 C 0.75256 0.54928 0.23267 0.0
C1603 C 0.76678 0.53735 0.21857 0.0
C1604 C 0.76196 0.54995 0.21122 0.0
C1605 C 0.74481 0.50331 0.23626 0.0
O1606 O 0.75268 0.50701 0.22487 0.0
H1607 H 0.74657 0.55234 0.24235 0.0
H1608 H 0.77443 0.52927 0.21462 0.0
O1609 O 0.7665 0.53707 0.26562 0.0
H1610 H 0.8156 0.50442 0.25159 0.0
H1611 H 0.7652 0.55362 0.2004 0.0
Cu1612 Cu 0.5288 0.26278 0.76534 0.0
N1613 N 0.51124 0.27344 0.76413 0.0
N1614 N 0.49135 0.28504 0.77223 0.0
C1615 C 0.50376 0.27753 0.776 0.0
C1616 C 0.49094 0.28552 0.75728 0.0
C1617 C 0.50325 0.27836 0.75231 0.0
O1618 O 0.52498 0.24397 0.775 0.0
C1619 C 0.54347 0.27363 0.79148 0.0
O1620 O 0.53326 0.26581 0.79803 0.0
H1621 H 0.50729 0.27479 0.7872 0.0
H1622 H 0.50612 0.2768 0.74091 0.0
N1623 N 0.53718 0.25963 0.74711 0.0
N1624 N 0.55191 0.24956 0.73066 0.0
C1625 C 0.54541 0.24787 0.74376 0.0
C1626 C 0.53851 0.26914 0.73576 0.0
C1627 C 0.54761 0.26293 0.72557 0.0
C1628 C 0.51355 0.23552 0.77413 0.0
O1629 O 0.51306 0.22403 0.783 0.0
H1630 H 0.54725 0.23864 0.7512 0.0
H1631 H 0.53377 0.28006 0.73527 0.0
O1632 O 0.54345 0.27387 0.77741 0.0
H1633 H 0.4825 0.29084 0.75041 0.0
H1634 H 0.5511 0.26803 0.71541 0.0
Cu1635 Cu 0.51753 0.76808 0.75905 0.0
N1636 N 0.52951 0.764 0.77587 0.0
N1637 N 0.54941 0.75678 0.78928 0.0
C1638 C 0.54406 0.76095 0.77581 0.0
C1639 C 0.53779 0.75726 0.79822 0.0
C1640 C 0.52553 0.76183 0.78992 0.0
O1641 O 0.53046 0.76981 0.74232 0.0
C1642 C 0.50009 0.74166 0.76394 0.0
O1643 O 0.51111 0.73706 0.77256 0.0
H1644 H 0.55048 0.76114 0.76593 0.0
H1645 H 0.51438 0.76293 0.79372 0.0
N1646 N 0.50745 0.78587 0.76083 0.0
N1647 N 0.49184 0.80381 0.75392 0.0
C1648 C 0.5005 0.79275 0.7494 0.0
C1649 C 0.50309 0.7928 0.77307 0.0
C1650 C 0.49342 0.8039 0.76883 0.0
C1651 C 0.53854 0.78145 0.74204 0.0
O1652 O 0.53732 0.79132 0.7526 0.0
H1653 H 0.50104 0.78905 0.73805 0.0
H1654 H 0.5061 0.78954 0.78428 0.0
O1655 O 0.50167 0.75342 0.75637 0.0
H1656 H 0.53813 0.75435 0.80984 0.0
H1657 H 0.48768 0.81116 0.77615 0.0
Cu1658 Cu 0.49549 0.76595 0.26432 0.0
N1659 N 0.48266 0.76604 0.28012 0.0
N1660 N 0.46579 0.7753 0.29501 0.0
C1661 C 0.47674 0.77837 0.28566 0.0
C1662 C 0.46494 0.76037 0.2955 0.0
C1663 C 0.47535 0.75469 0.28629 0.0
O1664 O 0.4836 0.76385 0.24591 0.0
C1665 C 0.51676 0.78263 0.2784 0.0
O1666 O 0.51418 0.77193 0.28786 0.0
H1667 H 0.47967 0.78938 0.28194 0.0
H1668 H 0.47689 0.74316 0.28368 0.0
N1669 N 0.50833 0.74985 0.26454 0.0
N1670 N 0.52904 0.73786 0.25931 0.0
C1671 C 0.52247 0.75109 0.26047 0.0
C1672 C 0.50573 0.73522 0.2659 0.0
C1673 C 0.51854 0.72777 0.26267 0.0
C1674 C 0.4699 0.76705 0.24458 0.0
O1675 O 0.46393 0.77503 0.25487 0.0
H1676 H 0.52755 0.76152 0.25748 0.0
H1677 H 0.49513 0.73028 0.26833 0.0
O1678 O 0.50874 0.78319 0.26648 0.0
H1679 H 0.45704 0.75399 0.30166 0.0
H1680 H 0.51987 0.71589 0.26243 0.0
Cu1681 Cu 0.52071 0.25635 0.25817 0.0
N1682 N 0.51079 0.2382 0.25961 0.0
N1683 N 0.49543 0.22091 0.26813 0.0
C1684 C 0.49998 0.23517 0.26904 0.0
C1685 C 0.50374 0.21475 0.25771 0.0
C1686 C 0.51322 0.22545 0.25248 0.0
O1687 O 0.50616 0.27194 0.26037 0.0
C1688 C 0.54743 0.2468 0.26954 0.0
O1689 O 0.54622 0.23963 0.25691 0.0
H1690 H 0.49584 0.24321 0.27669 0.0
H1691 H 0.52144 0.22397 0.24423 0.0
N1692 N 0.52852 0.25897 0.23951 0.0
N1693 N 0.54236 0.26843 0.22176 0.0
C1694 C 0.53946 0.26856 0.2363 0.0
C1695 C 0.52429 0.25255 0.22659 0.0
C1696 C 0.53282 0.25836 0.21561 0.0
C1697 C 0.49469 0.2704 0.25181 0.0
O1698 O 0.49378 0.25882 0.24303 0.0
H1699 H 0.54492 0.27571 0.24446 0.0
H1700 H 0.51551 0.24437 0.22521 0.0
O1701 O 0.53719 0.25573 0.27277 0.0
H1702 H 0.50303 0.20333 0.25411 0.0
H1703 H 0.53207 0.25533 0.20402 0.0
H1704 H 0.22183 0.20395 0.11312 0.0
H1705 H 0.18887 0.23446 0.12824 0.0
H1706 H 0.19582 0.25233 0.10907 0.0
H1707 H 0.24956 0.23195 0.10441 0.0
H1708 H 0.25544 0.22244 0.08816 0.0
H1709 H 0.24817 0.21206 0.10333 0.0
H1710 H 0.22845 0.19993 0.08548 0.0
H1711 H 0.23565 0.2103 0.07027 0.0
H1712 H 0.21633 0.21154 0.07439 0.0
H1713 H 0.20588 0.26679 0.08814 0.0
H1714 H 0.21867 0.27704 0.06676 0.0
H1715 H 0.24493 0.2372 0.0647 0.0
C1716 C 0.21618 0.21444 0.11245 0.0
C1717 C 0.2047 0.21774 0.12209 0.0
C1718 C 0.19751 0.23157 0.12081 0.0
C1719 C 0.20144 0.24185 0.11001 0.0
C1720 C 0.21262 0.23819 0.10054 0.0
C1721 C 0.21993 0.22486 0.10163 0.0
C1722 C 0.23136 0.22367 0.08982 0.0
C1723 C 0.24706 0.22246 0.09685 0.0
C1724 C 0.22772 0.21059 0.07937 0.0
C1725 C 0.22925 0.23838 0.08195 0.0
C1726 C 0.21841 0.24658 0.08836 0.0
C1727 C 0.21439 0.26047 0.083 0.0
C1728 C 0.22166 0.26617 0.07076 0.0
C1729 C 0.23283 0.25799 0.06394 0.0
C1730 C 0.23661 0.24388 0.0697 0.0
H1731 H 0.83101 0.23341 0.1266 0.0
H1732 H 0.83559 0.18949 0.10805 0.0
H1733 H 0.8273 0.19884 0.08351 0.0
H1734 H 0.79799 0.24269 0.10563 0.0
H1735 H 0.80311 0.26184 0.10315 0.0
H1736 H 0.80999 0.2519 0.1192 0.0
H1737 H 0.83693 0.25861 0.11263 0.0
H1738 H 0.83013 0.26856 0.09655 0.0
H1739 H 0.84336 0.25398 0.09458 0.0
H1740 H 0.81831 0.21265 0.06118 0.0
H1741 H 0.80816 0.22985 0.04243 0.0
H1742 H 0.8089 0.26505 0.07519 0.0
C1743 C 0.83039 0.22582 0.11732 0.0
C1744 C 0.83393 0.21071 0.11923 0.0
C1745 C 0.83279 0.20106 0.10688 0.0
C1746 C 0.82819 0.20629 0.09288 0.0
C1747 C 0.82471 0.2212 0.09139 0.0
C1748 C 0.82568 0.23084 0.10325 0.0
C1749 C 0.82077 0.24624 0.09866 0.0
C1750 C 0.80715 0.25094 0.10716 0.0
C1751 C 0.83356 0.25751 0.10073 0.0
C1752 C 0.81682 0.2437 0.08238 0.0
C1753 C 0.81929 0.22919 0.07844 0.0
C1754 C 0.81635 0.22405 0.06412 0.0
C1755 C 0.81057 0.23394 0.05353 0.0
C1756 C 0.80771 0.24885 0.05729 0.0
C1757 C 0.81101 0.25377 0.07193 0.0
H1758 H 0.79785 0.82604 0.10912 0.0
H1759 H 0.8411 0.80691 0.10317 0.0
H1760 H 0.83144 0.79434 0.0805 0.0
H1761 H 0.77589 0.79504 0.09585 0.0
H1762 H 0.76213 0.80638 0.08661 0.0
H1763 H 0.7723 0.81333 0.10272 0.0
H1764 H 0.78079 0.83624 0.08785 0.0
H1765 H 0.77057 0.82942 0.07174 0.0
H1766 H 0.79007 0.8336 0.07075 0.0
H1767 H 0.8168 0.7839 0.05799 0.0
H1768 H 0.79894 0.77787 0.03728 0.0
H1769 H 0.76596 0.80484 0.05776 0.0
C1770 C 0.80538 0.81933 0.10303 0.0
C1771 C 0.82026 0.81747 0.10809 0.0
C1772 C 0.82959 0.80835 0.09977 0.0
C1773 C 0.82422 0.8012 0.0868 0.0
C1774 C 0.8095 0.80329 0.08218 0.0
C1775 C 0.80026 0.81222 0.09003 0.0
C1776 C 0.78502 0.81304 0.08255 0.0
C1777 C 0.77313 0.80656 0.09253 0.0
C1778 C 0.78141 0.82902 0.07795 0.0
C1779 C 0.78715 0.80329 0.06919 0.0
C1780 C 0.80128 0.79762 0.0692 0.0
C1781 C 0.80571 0.78831 0.05789 0.0
C1782 C 0.79549 0.78489 0.04619 0.0
C1783 C 0.78108 0.79091 0.04585 0.0
C1784 C 0.77692 0.8001 0.05762 0.0
H1785 H 0.20872 0.79993 0.09975 0.0
H1786 H 0.2266 0.84403 0.10849 0.0
H1787 H 0.24187 0.8422 0.0866 0.0
H1788 H 0.24209 0.78409 0.08715 0.0
H1789 H 0.23301 0.77307 0.07279 0.0
H1790 H 0.22325 0.77778 0.08913 0.0
H1791 H 0.20224 0.7894 0.07283 0.0
H1792 H 0.21189 0.78465 0.05645 0.0
H1793 H 0.20673 0.80355 0.05962 0.0
H1794 H 0.25571 0.83552 0.06422 0.0
H1795 H 0.2667 0.8246 0.04229 0.0
H1796 H 0.23915 0.78527 0.04727 0.0
C1797 C 0.21574 0.80924 0.09698 0.0
C1798 C 0.21658 0.82204 0.10599 0.0
C1799 C 0.22599 0.83396 0.10199 0.0
C1800 C 0.23465 0.83309 0.0895 0.0
C1801 C 0.23374 0.82026 0.08101 0.0
C1802 C 0.22448 0.80858 0.08449 0.0
C1803 C 0.22566 0.79606 0.07344 0.0
C1804 C 0.23134 0.78192 0.08109 0.0
C1805 C 0.21074 0.79325 0.06509 0.0
C1806 C 0.23708 0.80254 0.0633 0.0
C1807 C 0.24158 0.8165 0.06788 0.0
C1808 C 0.25218 0.82463 0.06044 0.0
C1809 C 0.25832 0.81834 0.04791 0.0
C1810 C 0.25383 0.80405 0.04289 0.0
C1811 C 0.24302 0.79612 0.05078 0.0
H1812 H 0.19333 0.81648 0.92616 0.0
H1813 H 0.21594 0.7916 0.89303 0.0
H1814 H 0.22688 0.77552 0.91265 0.0
H1815 H 0.2233 0.81709 0.95224 0.0
H1816 H 0.21206 0.81566 0.96825 0.0
H1817 H 0.20461 0.8239 0.95151 0.0
H1818 H 0.1826 0.80521 0.95131 0.0
H1819 H 0.19007 0.79685 0.96804 0.0
H1820 H 0.18624 0.78564 0.95181 0.0
H1821 H 0.23634 0.76304 0.93591 0.0
H1822 H 0.24573 0.75674 0.96105 0.0
H1823 H 0.2179 0.79053 0.97927 0.0
C1824 C 0.20038 0.80746 0.92308 0.0
C1825 C 0.2037 0.80509 0.90814 0.0
C1826 C 0.21325 0.79347 0.90445 0.0
C1827 C 0.21942 0.78426 0.9155 0.0
C1828 C 0.21602 0.78691 0.93018 0.0
C1829 C 0.20683 0.79832 0.93401 0.0
C1830 C 0.20612 0.79971 0.95068 0.0
C1831 C 0.21187 0.81499 0.95597 0.0
C1832 C 0.19032 0.79667 0.95575 0.0
C1833 C 0.21655 0.7875 0.95563 0.0
C1834 C 0.2219 0.78006 0.94363 0.0
C1835 C 0.23213 0.76872 0.94539 0.0
C1836 C 0.23737 0.76517 0.95976 0.0
C1837 C 0.23254 0.7731 0.97219 0.0
C1838 C 0.22172 0.78417 0.97004 0.0
H1839 H 0.22482 0.22475 0.92506 0.0
H1840 H 0.24059 0.1803 0.93367 0.0
H1841 H 0.25355 0.18918 0.95667 0.0
H1842 H 0.25737 0.24445 0.93919 0.0
H1843 H 0.24678 0.25909 0.94701 0.0
H1844 H 0.23962 0.24927 0.93089 0.0
H1845 H 0.21565 0.24271 0.94454 0.0
H1846 H 0.22272 0.25252 0.96067 0.0
H1847 H 0.21704 0.2334 0.96217 0.0
H1848 H 0.26424 0.20334 0.97963 0.0
H1849 H 0.27088 0.22108 0.99991 0.0
H1850 H 0.24707 0.25546 0.97587 0.0
C1851 C 0.23092 0.21681 0.93177 0.0
C1852 C 0.2316 0.20179 0.92751 0.0
C1853 C 0.24 0.1919 0.93657 0.0
C1854 C 0.24735 0.19683 0.94971 0.0
C1855 C 0.24626 0.2117 0.95364 0.0
C1856 C 0.23823 0.2215 0.94487 0.0
C1857 C 0.23831 0.23681 0.95161 0.0
C1858 C 0.24598 0.24806 0.94158 0.0
C1859 C 0.22249 0.24163 0.95495 0.0
C1860 C 0.24744 0.23409 0.96568 0.0
C1861 C 0.2521 0.21962 0.96669 0.0
C1862 C 0.26064 0.2147 0.9789 0.0
C1863 C 0.26438 0.22483 0.99036 0.0
C1864 C 0.25943 0.23963 0.98955 0.0
C1865 C 0.25096 0.24421 0.97695 0.0
H1866 H 0.82485 0.21839 0.9077 0.0
H1867 H 0.87204 0.2154 0.91803 0.0
H1868 H 0.86817 0.22484 0.94315 0.0
H1869 H 0.81938 0.25209 0.92692 0.0
H1870 H 0.80145 0.24698 0.93357 0.0
H1871 H 0.80768 0.23913 0.91662 0.0
H1872 H 0.80358 0.21276 0.92704 0.0
H1873 H 0.79735 0.22054 0.94405 0.0
H1874 H 0.81246 0.20768 0.94447 0.0
H1875 H 0.85965 0.23552 0.96653 0.0
H1876 H 0.84694 0.24741 0.98695 0.0
H1877 H 0.80508 0.24368 0.96205 0.0
C1878 C 0.83431 0.21955 0.91533 0.0
C1879 C 0.84877 0.21622 0.91089 0.0
C1880 C 0.86091 0.21807 0.92112 0.0
C1881 C 0.85881 0.22331 0.93546 0.0
C1882 C 0.84448 0.22664 0.93944 0.0
C1883 C 0.83242 0.22486 0.92973 0.0
C1884 C 0.8183 0.22991 0.93672 0.0
C1885 C 0.8113 0.24279 0.92793 0.0
C1886 C 0.80727 0.21695 0.93816 0.0
C1887 C 0.82438 0.23498 0.95178 0.0
C1888 C 0.83951 0.23288 0.95309 0.0
C1889 C 0.8478 0.23716 0.96568 0.0
C1890 C 0.8405 0.24398 0.97718 0.0
C1891 C 0.82505 0.2465 0.97607 0.0
C1892 C 0.81686 0.24171 0.96327 0.0
H1893 H 0.81085 0.84919 0.91165 0.0
H1894 H 0.80768 0.80893 0.8855 0.0
H1895 H 0.7936 0.79682 0.90508 0.0
H1896 H 0.81622 0.83151 0.94665 0.0
H1897 H 0.80536 0.84448 0.95666 0.0
H1898 H 0.81456 0.85035 0.94029 0.0
H1899 H 0.78954 0.85915 0.92867 0.0
H1900 H 0.78026 0.85333 0.94503 0.0
H1901 H 0.77407 0.84637 0.92713 0.0
H1902 H 0.78053 0.78879 0.92753 0.0
H1903 H 0.76949 0.78515 0.95177 0.0
H1904 H 0.7813 0.83037 0.9639 0.0
C1905 C 0.80702 0.83789 0.90999 0.0
C1906 C 0.8104 0.82998 0.89706 0.0
C1907 C 0.80537 0.81514 0.89538 0.0
C1908 C 0.79729 0.80819 0.9064 0.0
C1909 C 0.7943 0.81622 0.91906 0.0
C1910 C 0.79899 0.83073 0.92096 0.0
C1911 C 0.79471 0.83661 0.93591 0.0
C1912 C 0.80854 0.84099 0.94544 0.0
C1913 C 0.784 0.84964 0.93407 0.0
C1914 C 0.78699 0.82309 0.94214 0.0
C1915 C 0.78683 0.8115 0.93218 0.0
C1916 C 0.7806 0.79778 0.93544 0.0
C1917 C 0.77445 0.79579 0.94931 0.0
C1918 C 0.77461 0.80743 0.95984 0.0
C1919 C 0.78087 0.8213 0.95608 0.0
H1920 H 0.10664 0.22291 0.19983 0.0
H1921 H 0.13827 0.23238 0.236 0.0
H1922 H 0.12053 0.2496 0.24675 0.0
H1923 H 0.09192 0.25997 0.19609 0.0
H1924 H 0.07319 0.25355 0.19227 0.0
H1925 H 0.08856 0.24237 0.18713 0.0
H1926 H 0.07828 0.22038 0.20221 0.0
H1927 H 0.06284 0.23145 0.20729 0.0
H1928 H 0.07447 0.22301 0.22146 0.0
H1929 H 0.09923 0.26545 0.25374 0.0
H1930 H 0.07528 0.27755 0.25735 0.0
H1931 H 0.05749 0.25749 0.21676 0.0
C1932 C 0.10988 0.22872 0.20994 0.0
C1933 C 0.12384 0.22634 0.21708 0.0
C1934 C 0.12758 0.23395 0.23043 0.0
C1935 C 0.11764 0.24383 0.23654 0.0
C1936 C 0.104 0.24597 0.22918 0.0
C1937 C 0.10007 0.23856 0.21623 0.0
C1938 C 0.08449 0.24234 0.21087 0.0
C1939 C 0.08455 0.25002 0.19569 0.0
C1940 C 0.07443 0.22847 0.21044 0.0
C1941 C 0.08021 0.25296 0.22289 0.0
C1942 C 0.09167 0.255 0.23329 0.0
C1943 C 0.09019 0.26396 0.24566 0.0
C1944 C 0.07654 0.27075 0.24764 0.0
C1945 C 0.06449 0.26849 0.23735 0.0
C1946 C 0.06652 0.25968 0.22469 0.0
H1947 H 0.84001 0.10404 0.22265 0.0
H1948 H 0.80027 0.13059 0.22107 0.0
H1949 H 0.78649 0.11025 0.2328 0.0
H1950 H 0.82191 0.06936 0.21423 0.0
H1951 H 0.83384 0.05872 0.22648 0.0
H1952 H 0.8407 0.07549 0.21829 0.0
H1953 H 0.84785 0.08577 0.24437 0.0
H1954 H 0.84097 0.06904 0.25265 0.0
H1955 H 0.83395 0.08672 0.25814 0.0
H1956 H 0.77703 0.08721 0.24467 0.0
H1957 H 0.77213 0.06257 0.25507 0.0
H1958 H 0.81783 0.05049 0.24859 0.0
C1959 C 0.82844 0.1056 0.22489 0.0
C1960 C 0.8212 0.11891 0.22093 0.0
C1961 C 0.806 0.12045 0.22385 0.0
C1962 C 0.7981 0.109 0.2306 0.0
C1963 C 0.80556 0.09604 0.23434 0.0
C1964 C 0.82036 0.09424 0.23156 0.0
C1965 C 0.8256 0.07902 0.23634 0.0
C1966 C 0.83082 0.07012 0.22304 0.0
C1967 C 0.83781 0.08021 0.24861 0.0
C1968 C 0.8114 0.07255 0.24223 0.0
C1969 C 0.80002 0.08261 0.24103 0.0
C1970 C 0.78584 0.07922 0.2456 0.0
C1971 C 0.78315 0.06511 0.25141 0.0
C1972 C 0.79454 0.05445 0.25253 0.0
C1973 C 0.8089 0.05836 0.248 0.0
H1974 H 0.92225 0.83651 0.21733 0.0
H1975 H 0.8943 0.79721 0.21915 0.0
H1976 H 0.91446 0.78393 0.23242 0.0
H1977 H 0.95564 0.81774 0.21047 0.0
H1978 H 0.96743 0.82988 0.22166 0.0
H1979 H 0.95051 0.83674 0.21321 0.0
H1980 H 0.94187 0.84504 0.23888 0.0
H1981 H 0.9588 0.83822 0.24742 0.0
H1982 H 0.94116 0.83176 0.25373 0.0
H1983 H 0.93772 0.77452 0.2445 0.0
H1984 H 0.96292 0.76937 0.25434 0.0
H1985 H 0.9764 0.81447 0.24458 0.0
C1986 C 0.92033 0.82519 0.22074 0.0
C1987 C 0.90669 0.81788 0.2172 0.0
C1988 C 0.90468 0.80298 0.22163 0.0
C1989 C 0.91604 0.79537 0.22925 0.0
C1990 C 0.92939 0.80278 0.23238 0.0
C1991 C 0.93163 0.81735 0.2283 0.0
C1992 C 0.94734 0.82245 0.23246 0.0
C1993 C 0.95572 0.82696 0.21862 0.0
C1994 C 0.94728 0.83512 0.2438 0.0
C1995 C 0.95359 0.80842 0.23935 0.0
C1996 C 0.94298 0.79726 0.23926 0.0
C1997 C 0.94612 0.78317 0.24464 0.0
C1998 C 0.96052 0.78032 0.25011 0.0
C1999 C 0.97171 0.79146 0.25014 0.0
C2000 C 0.96808 0.80576 0.24484 0.0
H2001 H 0.22094 0.90537 0.19693 0.0
H2002 H 0.17532 0.91749 0.2038 0.0
H2003 H 0.18389 0.94206 0.21281 0.0
H2004 H 0.23736 0.92456 0.22857 0.0
H2005 H 0.25367 0.93017 0.219 0.0
H2006 H 0.24393 0.91336 0.21372 0.0
H2007 H 0.24123 0.92286 0.18672 0.0
H2008 H 0.25087 0.93973 0.19193 0.0
H2009 H 0.23267 0.94047 0.18308 0.0
H2010 H 0.19745 0.96558 0.22049 0.0
H2011 H 0.215 0.98599 0.22687 0.0
H2012 H 0.25163 0.95868 0.21428 0.0
C2013 C 0.2127 0.91318 0.20026 0.0
C2014 C 0.19742 0.90945 0.19962 0.0
C2015 C 0.18709 0.91997 0.20435 0.0
C2016 C 0.19184 0.93401 0.20938 0.0
C2017 C 0.20696 0.93738 0.20961 0.0
C2018 C 0.21724 0.92724 0.20522 0.0
C2019 C 0.23283 0.93365 0.20638 0.0
C2020 C 0.24251 0.92491 0.21759 0.0
C2021 C 0.2398 0.93421 0.19112 0.0
C2022 C 0.22973 0.94903 0.21202 0.0
C2023 C 0.21474 0.95095 0.21386 0.0
C2024 C 0.20921 0.96418 0.21912 0.0
C2025 C 0.21926 0.97569 0.22275 0.0
C2026 C 0.23468 0.97395 0.22107 0.0
C2027 C 0.23991 0.96045 0.2155 0.0
H2028 H 0.11119 0.80502 0.81574 0.0
H2029 H 0.10305 0.84967 0.79997 0.0
H2030 H 0.08092 0.84061 0.78561 0.0
H2031 H 0.09927 0.78578 0.78253 0.0
H2032 H 0.09081 0.77076 0.7924 0.0
H2033 H 0.10638 0.78073 0.80071 0.0
H2034 H 0.09102 0.78654 0.82364 0.0
H2035 H 0.07544 0.77654 0.81543 0.0
H2036 H 0.07339 0.7955 0.8211 0.0
H2037 H 0.05907 0.82622 0.77307 0.0
H2038 H 0.03944 0.80821 0.76478 0.0
H2039 H 0.0619 0.77381 0.79008 0.0
C2040 C 0.10474 0.81299 0.8094 0.0
C2041 C 0.10895 0.82809 0.80904 0.0
C2042 C 0.10023 0.838 0.8003 0.0
C2043 C 0.08758 0.83297 0.79214 0.0
C2044 C 0.08374 0.818 0.79285 0.0
C2045 C 0.09207 0.8082 0.80132 0.0
C2046 C 0.08546 0.79276 0.80067 0.0
C2047 C 0.09612 0.78187 0.79366 0.0
C2048 C 0.08107 0.78753 0.81612 0.0
C2049 C 0.07198 0.79539 0.79065 0.0
C2050 C 0.07118 0.80995 0.78606 0.0
C2051 C 0.0596 0.8148 0.77664 0.0
C2052 C 0.04853 0.80452 0.77196 0.0
C2053 C 0.04906 0.78966 0.77688 0.0
C2054 C 0.06104 0.78513 0.78623 0.0
H2055 H 0.22529 0.1065 0.83728 0.0
H2056 H 0.21014 0.12658 0.79591 0.0
H2057 H 0.21902 0.1049 0.78224 0.0
H2058 H 0.25867 0.09241 0.82403 0.0
H2059 H 0.25804 0.07577 0.835 0.0
H2060 H 0.24943 0.09232 0.84137 0.0
H2061 H 0.22452 0.07802 0.84336 0.0
H2062 H 0.23305 0.06142 0.8369 0.0
H2063 H 0.2167 0.06841 0.82737 0.0
H2064 H 0.231 0.08114 0.773 0.0
H2065 H 0.24541 0.0583 0.76931 0.0
H2066 H 0.25279 0.05465 0.81686 0.0
C2067 C 0.22385 0.10642 0.82534 0.0
C2068 C 0.21701 0.11832 0.81771 0.0
C2069 C 0.21517 0.11755 0.80207 0.0
C2070 C 0.22023 0.10529 0.79419 0.0
C2071 C 0.22706 0.09383 0.80209 0.0
C2072 C 0.22885 0.09434 0.81734 0.0
C2073 C 0.23707 0.08099 0.82327 0.0
C2074 C 0.25167 0.08566 0.83139 0.0
C2075 C 0.22724 0.07166 0.83332 0.0
C2076 C 0.23988 0.07298 0.80898 0.0
C2077 C 0.23393 0.08041 0.79685 0.0
C2078 C 0.2356 0.0752 0.78246 0.0
C2079 C 0.24376 0.0622 0.78045 0.0
C2080 C 0.25023 0.05466 0.79278 0.0
C2081 C 0.248 0.06009 0.80718 0.0
H2082 H 0.94377 0.20422 0.81182 0.0
H2083 H 0.91254 0.23226 0.78791 0.0
H2084 H 0.93312 0.24358 0.77429 0.0
H2085 H 0.97144 0.23192 0.81707 0.0
H2086 H 0.98681 0.2196 0.81525 0.0
H2087 H 0.9695 0.21263 0.82181 0.0
H2088 H 0.9685 0.19296 0.80092 0.0
H2089 H 0.98579 0.19995 0.79424 0.0
H2090 H 0.96966 0.1988 0.78192 0.0
H2091 H 0.95716 0.25246 0.76403 0.0
H2092 H 0.98292 0.26021 0.75977 0.0
H2093 H 0.99873 0.22721 0.7913 0.0
C2094 C 0.9413 0.21258 0.80353 0.0
C2095 C 0.92662 0.2173 0.80074 0.0
C2096 C 0.92375 0.2285 0.79012 0.0
C2097 C 0.93534 0.23491 0.78229 0.0
C2098 C 0.94974 0.23007 0.78533 0.0
C2099 C 0.95278 0.21927 0.79581 0.0
C2100 C 0.96933 0.21701 0.79794 0.0
C2101 C 0.97458 0.2205 0.81397 0.0
C2102 C 0.97356 0.20124 0.79349 0.0
C2103 C 0.97513 0.22836 0.78718 0.0
C2104 C 0.96364 0.23558 0.77982 0.0
C2105 C 0.96624 0.24683 0.76967 0.0
C2106 C 0.98095 0.25111 0.76728 0.0
C2107 C 0.9929 0.24431 0.77517 0.0
C2108 C 0.98988 0.23257 0.78501 0.0
H2109 H 0.80222 0.92337 0.80773 0.0
H2110 H 0.84403 0.92867 0.78598 0.0
H2111 H 0.83411 0.95041 0.77253 0.0
H2112 H 0.77826 0.93452 0.77724 0.0
H2113 H 0.7658 0.94422 0.78885 0.0
H2114 H 0.77598 0.92864 0.79608 0.0
H2115 H 0.78682 0.94485 0.81763 0.0
H2116 H 0.77662 0.96045 0.81051 0.0
H2117 H 0.79643 0.96188 0.8135 0.0
H2118 H 0.81934 0.97219 0.76161 0.0
H2119 H 0.80166 0.99233 0.75551 0.0
H2120 H 0.77048 0.97292 0.78553 0.0
C2121 C 0.80941 0.92912 0.80025 0.0
C2122 C 0.82394 0.92419 0.79795 0.0
C2123 C 0.83277 0.93201 0.78781 0.0
C2124 C 0.82726 0.94444 0.78015 0.0
C2125 C 0.8129 0.94899 0.78275 0.0
C2126 C 0.80415 0.94158 0.79264 0.0
C2127 C 0.7893 0.94891 0.79393 0.0
C2128 C 0.77659 0.93845 0.78871 0.0
C2129 C 0.78718 0.95435 0.80983 0.0
C2130 C 0.79107 0.9617 0.78334 0.0
C2131 C 0.80466 0.96155 0.77684 0.0
C2132 C 0.80867 0.9724 0.76666 0.0
C2133 C 0.79857 0.98377 0.76323 0.0
C2134 C 0.78475 0.98425 0.7701 0.0
C2135 C 0.781 0.97295 0.78016 0.0
H2136 H 0.21217 0.10599 0.21018 0.0
H2137 H 0.20976 0.13366 0.24925 0.0
H2138 H 0.21822 0.11284 0.26488 0.0
H2139 H 0.19954 0.07234 0.22666 0.0
H2140 H 0.21201 0.06065 0.21701 0.0
H2141 H 0.20585 0.07774 0.20874 0.0
H2142 H 0.2331 0.08635 0.20613 0.0
H2143 H 0.23935 0.06922 0.21426 0.0
H2144 H 0.24549 0.08662 0.22224 0.0
H2145 H 0.22669 0.08897 0.27641 0.0
H2146 H 0.2358 0.06405 0.28282 0.0
H2147 H 0.23306 0.0519 0.23631 0.0
C2148 C 0.21358 0.10773 0.222 0.0
C2149 C 0.21016 0.12147 0.22847 0.0
C2150 C 0.21204 0.12319 0.24403 0.0
C2151 C 0.21691 0.11144 0.25302 0.0
C2152 C 0.21992 0.09799 0.24632 0.0
C2153 C 0.21845 0.09609 0.23116 0.0
C2154 C 0.22252 0.0805 0.22679 0.0
C2155 C 0.20918 0.07233 0.21936 0.0
C2156 C 0.23591 0.08069 0.21676 0.0
C2157 C 0.2265 0.07397 0.24186 0.0
C2158 C 0.22488 0.08423 0.25297 0.0
C2159 C 0.228 0.08083 0.2678 0.0
C2160 C 0.23312 0.06661 0.27134 0.0
C2161 C 0.23512 0.05596 0.26011 0.0
C2162 C 0.23159 0.05973 0.24519 0.0
H2163 H 0.23423 0.91209 0.83279 0.0
H2164 H 0.1901 0.93043 0.82809 0.0
H2165 H 0.20093 0.9547 0.82182 0.0
H2166 H 0.25209 0.94496 0.84928 0.0
H2167 H 0.26901 0.94258 0.83963 0.0
H2168 H 0.25786 0.92668 0.84422 0.0
H2169 H 0.25647 0.91882 0.81664 0.0
H2170 H 0.26762 0.93468 0.81197 0.0
H2171 H 0.24974 0.93173 0.80283 0.0
H2172 H 0.21632 0.9767 0.81517 0.0
H2173 H 0.2354 0.99507 0.80852 0.0
H2174 H 0.26968 0.96282 0.81783 0.0
C2175 C 0.22686 0.92125 0.83063 0.0
C2176 C 0.21129 0.9193 0.83086 0.0
C2177 C 0.20204 0.93156 0.82775 0.0
C2178 C 0.20809 0.94543 0.82429 0.0
C2179 C 0.22344 0.94694 0.82403 0.0
C2180 C 0.23272 0.93522 0.82714 0.0
C2181 C 0.24883 0.93977 0.82567 0.0
C2182 C 0.25746 0.93842 0.84059 0.0
C2183 C 0.25609 0.93071 0.81355 0.0
C2184 C 0.24712 0.95584 0.82113 0.0
C2185 C 0.23236 0.95973 0.82029 0.0
C2186 C 0.22792 0.9738 0.81585 0.0
C2187 C 0.23882 0.98414 0.81203 0.0
C2188 C 0.25402 0.9804 0.81267 0.0
C2189 C 0.25818 0.96609 0.81746 0.0
H2190 H 0.12016 0.21015 0.82057 0.0
H2191 H 0.13797 0.24246 0.85231 0.0
H2192 H 0.11744 0.25913 0.84579 0.0
H2193 H 0.10826 0.23737 0.79268 0.0
H2194 H 0.0918 0.227 0.78711 0.0
H2195 H 0.108 0.21747 0.79415 0.0
H2196 H 0.09235 0.20487 0.81414 0.0
H2197 H 0.07613 0.2144 0.80721 0.0
H2198 H 0.08199 0.21616 0.82641 0.0
H2199 H 0.09446 0.27186 0.83696 0.0
H2200 H 0.07105 0.2805 0.82512 0.0
H2201 H 0.06857 0.24097 0.79794 0.0
C2202 C 0.11987 0.2208 0.82602 0.0
C2203 C 0.13065 0.22482 0.83716 0.0
C2204 C 0.12971 0.23887 0.84405 0.0
C2205 C 0.11814 0.24852 0.84033 0.0
C2206 C 0.10762 0.24412 0.82953 0.0
C2207 C 0.10843 0.23069 0.82233 0.0
C2208 C 0.09561 0.22874 0.81111 0.0
C2209 C 0.10126 0.22758 0.79533 0.0
C2210 C 0.08595 0.21524 0.81495 0.0
C2211 C 0.08741 0.2431 0.81329 0.0
C2212 C 0.09453 0.25176 0.82402 0.0
C2213 C 0.08884 0.26524 0.82845 0.0
C2214 C 0.0755 0.27002 0.82174 0.0
C2215 C 0.06803 0.26143 0.81062 0.0
C2216 C 0.07416 0.24783 0.80628 0.0
H2217 H 0.80933 0.12391 0.82142 0.0
H2218 H 0.85186 0.11096 0.80499 0.0
H2219 H 0.84054 0.08789 0.79513 0.0
H2220 H 0.79771 0.08688 0.83264 0.0
H2221 H 0.77856 0.0897 0.82715 0.0
H2222 H 0.79002 0.10518 0.83317 0.0
H2223 H 0.78362 0.11881 0.80859 0.0
H2224 H 0.77217 0.10338 0.80248 0.0
H2225 H 0.787 0.10985 0.79124 0.0
H2226 H 0.82462 0.06672 0.78625 0.0
H2227 H 0.80507 0.04843 0.77936 0.0
H2228 H 0.77291 0.07444 0.80211 0.0
C2229 C 0.81632 0.11614 0.81592 0.0
C2230 C 0.8315 0.11935 0.8139 0.0
C2231 C 0.84017 0.10893 0.80645 0.0
C2232 C 0.83387 0.09572 0.8009 0.0
C2233 C 0.81888 0.09299 0.80297 0.0
C2234 C 0.81022 0.10284 0.81036 0.0
C2235 C 0.79433 0.09725 0.81086 0.0
C2236 C 0.7899 0.0946 0.82691 0.0
C2237 C 0.78365 0.10796 0.80281 0.0
C2238 C 0.79542 0.08279 0.80249 0.0
C2239 C 0.8097 0.08058 0.79804 0.0
C2240 C 0.81341 0.06829 0.78973 0.0
C2241 C 0.80222 0.05801 0.78579 0.0
C2242 C 0.78749 0.06002 0.79019 0.0
C2243 C 0.78411 0.07253 0.79877 0.0
H2244 H 0.92114 0.81347 0.82577 0.0
H2245 H 0.89512 0.81381 0.78444 0.0
H2246 H 0.91351 0.79784 0.77305 0.0
H2247 H 0.95649 0.81527 0.80965 0.0
H2248 H 0.96539 0.8032 0.82303 0.0
H2249 H 0.94984 0.81408 0.82817 0.0
H2250 H 0.93613 0.79027 0.83637 0.0
H2251 H 0.95165 0.7793 0.83119 0.0
H2252 H 0.93337 0.77521 0.82344 0.0
H2253 H 0.93489 0.78254 0.7659 0.0
H2254 H 0.95849 0.76958 0.76309 0.0
H2255 H 0.97093 0.77904 0.80895 0.0
C2256 C 0.91924 0.81004 0.81438 0.0
C2257 C 0.90669 0.81491 0.80598 0.0
C2258 C 0.90472 0.81036 0.79103 0.0
C2259 C 0.91504 0.80119 0.7845 0.0
C2260 C 0.9273 0.79664 0.79306 0.0
C2261 C 0.92949 0.80092 0.80766 0.0
C2262 C 0.94394 0.79494 0.81417 0.0
C2263 C 0.95454 0.80763 0.81904 0.0
C2264 C 0.9411 0.78429 0.82706 0.0
C2265 C 0.94959 0.78675 0.80091 0.0
C2266 C 0.93974 0.78781 0.78889 0.0
C2267 C 0.94267 0.78159 0.77524 0.0
C2268 C 0.95613 0.77431 0.77373 0.0
C2269 C 0.96656 0.77332 0.78578 0.0
C2270 C 0.96309 0.77943 0.79961 0.0
H2271 H 0.81697 0.9301 0.19501 0.0
H2272 H 0.79265 0.89616 0.21813 0.0
H2273 H 0.77722 0.91538 0.22923 0.0
H2274 H 0.81866 0.95564 0.22491 0.0
H2275 H 0.81687 0.97188 0.21344 0.0
H2276 H 0.82494 0.9554 0.20622 0.0
H2277 H 0.80561 0.95539 0.1843 0.0
H2278 H 0.79742 0.97185 0.19152 0.0
H2279 H 0.78614 0.95555 0.188 0.0
H2280 H 0.76495 0.93831 0.23836 0.0
H2281 H 0.75834 0.96324 0.24685 0.0
H2282 H 0.79146 0.98251 0.21879 0.0
C2283 C 0.80825 0.92677 0.20225 0.0
C2284 C 0.80587 0.91168 0.20564 0.0
C2285 C 0.79459 0.90768 0.2154 0.0
C2286 C 0.78574 0.91851 0.22168 0.0
C2287 C 0.78839 0.93331 0.21819 0.0
C2288 C 0.79947 0.93747 0.20882 0.0
C2289 C 0.80079 0.9542 0.20784 0.0
C2290 C 0.81623 0.95959 0.21344 0.0
C2291 C 0.79728 0.95956 0.19197 0.0
C2292 C 0.78886 0.95878 0.21824 0.0
C2293 C 0.78167 0.94656 0.22389 0.0
C2294 C 0.77046 0.94797 0.23397 0.0
C2295 C 0.76674 0.96221 0.23869 0.0
C2296 C 0.77434 0.97489 0.23349 0.0
C2297 C 0.78537 0.97308 0.22292 0.0
H2298 H 0.11383 0.80855 0.21634 0.0
H2299 H 0.10351 0.78936 0.17312 0.0
H2300 H 0.08229 0.77578 0.18345 0.0
H2301 H 0.10398 0.77678 0.23816 0.0
H2302 H 0.09622 0.78779 0.2525 0.0
H2303 H 0.11096 0.79525 0.24177 0.0
H2304 H 0.09471 0.81774 0.23445 0.0
H2305 H 0.07995 0.81038 0.2452 0.0
H2306 H 0.07659 0.81462 0.22589 0.0
H2307 H 0.06132 0.76477 0.19889 0.0
H2308 H 0.04279 0.75826 0.21756 0.0
H2309 H 0.0671 0.78551 0.24991 0.0
C2310 C 0.10709 0.80158 0.20896 0.0
C2311 C 0.11039 0.80009 0.19388 0.0
C2312 C 0.10137 0.79058 0.18476 0.0
C2313 C 0.08923 0.78286 0.19052 0.0
C2314 C 0.08625 0.78471 0.20543 0.0
C2315 C 0.09497 0.79387 0.21449 0.0
C2316 C 0.08931 0.7944 0.23 0.0
C2317 C 0.1008 0.78818 0.24127 0.0
C2318 C 0.08487 0.81022 0.23412 0.0
C2319 C 0.07591 0.78427 0.22827 0.0
C2320 C 0.07431 0.77863 0.2141 0.0
C2321 C 0.06252 0.76912 0.21003 0.0
C2322 C 0.05207 0.76544 0.2207 0.0
C2323 C 0.05344 0.7714 0.23518 0.0
C2324 C 0.06564 0.78079 0.23893 0.0
H2325 H 0.91706 0.21696 0.24208 0.0
H2326 H 0.94115 0.19681 0.20688 0.0
H2327 H 0.96478 0.20595 0.21845 0.0
H2328 H 0.93859 0.24967 0.24419 0.0
H2329 H 0.93781 0.25163 0.26398 0.0
H2330 H 0.92305 0.24217 0.2538 0.0
H2331 H 0.92676 0.2191 0.27051 0.0
H2332 H 0.94162 0.22849 0.2807 0.0
H2333 H 0.94479 0.2108 0.27227 0.0
H2334 H 0.98556 0.21837 0.23307 0.0
H2335 H 1.00181 0.2348 0.24842 0.0
H2336 H 0.9641 0.24745 0.27384 0.0
C2337 C 0.92735 0.21427 0.23698 0.0
C2338 C 0.92735 0.2061 0.22366 0.0
C2339 C 0.94096 0.20308 0.21708 0.0
C2340 C 0.95442 0.20813 0.22362 0.0
C2341 C 0.95405 0.21624 0.23672 0.0
C2342 C 0.94086 0.21938 0.24328 0.0
C2343 C 0.94342 0.22934 0.25664 0.0
C2344 C 0.93524 0.24407 0.25452 0.0
C2345 C 0.93888 0.22146 0.27087 0.0
C2346 C 0.96007 0.23154 0.2564 0.0
C2347 C 0.96601 0.22369 0.24497 0.0
C2348 C 0.98105 0.22448 0.24213 0.0
C2349 C 0.99021 0.23384 0.25094 0.0
C2350 C 0.98426 0.24243 0.26237 0.0
C2351 C 0.96904 0.24095 0.2653 0.0
H2352 H 0.20756 0.73553 0.60554 0.0
H2353 H 0.18538 0.70068 0.57994 0.0
H2354 H 0.19394 0.71207 0.55685 0.0
H2355 H 0.20147 0.76594 0.57823 0.0
H2356 H 0.21958 0.77392 0.58219 0.0
H2357 H 0.21 0.76421 0.59649 0.0
H2358 H 0.23251 0.74697 0.60057 0.0
H2359 H 0.24212 0.7566 0.58633 0.0
H2360 H 0.23931 0.73686 0.58509 0.0
H2361 H 0.20692 0.72571 0.53692 0.0
H2362 H 0.22411 0.74 0.52167 0.0
H2363 H 0.23803 0.76598 0.56023 0.0
C2364 C 0.20418 0.73056 0.59503 0.0
C2365 C 0.19572 0.71731 0.59447 0.0
C2366 C 0.19186 0.71084 0.58057 0.0
C2367 C 0.19659 0.71728 0.56742 0.0
C2368 C 0.20517 0.7302 0.56835 0.0
C2369 C 0.20892 0.73678 0.5818 0.0
C2370 C 0.2194 0.74981 0.57986 0.0
C2371 C 0.21217 0.76433 0.58447 0.0
C2372 C 0.23421 0.74741 0.58847 0.0
C2373 C 0.22128 0.74925 0.56329 0.0
C2374 C 0.2128 0.738 0.55683 0.0
C2375 C 0.21345 0.73469 0.54181 0.0
C2376 C 0.22327 0.74287 0.53324 0.0
C2377 C 0.23238 0.75418 0.53972 0.0
C2378 C 0.23107 0.75758 0.55488 0.0
H2379 H 0.81458 0.73252 0.6071 0.0
H2380 H 0.80075 0.68724 0.59765 0.0
H2381 H 0.78669 0.69579 0.5753 0.0
H2382 H 0.78069 0.75037 0.59398 0.0
H2383 H 0.79052 0.76586 0.58627 0.0
H2384 H 0.79833 0.75623 0.60211 0.0
H2385 H 0.82232 0.75158 0.58801 0.0
H2386 H 0.81461 0.76121 0.57216 0.0
H2387 H 0.82106 0.74254 0.57022 0.0
H2388 H 0.77521 0.70954 0.55282 0.0
H2389 H 0.76819 0.72695 0.53256 0.0
H2390 H 0.79038 0.76266 0.55698 0.0
C2391 C 0.80862 0.72435 0.60037 0.0
C2392 C 0.80883 0.70918 0.60419 0.0
C2393 C 0.80064 0.69895 0.59511 0.0
C2394 C 0.79265 0.70369 0.58234 0.0
C2395 C 0.7929 0.71872 0.5788 0.0
C2396 C 0.80068 0.72887 0.58761 0.0
C2397 C 0.79985 0.74428 0.58115 0.0
C2398 C 0.79187 0.7548 0.59149 0.0
C2399 C 0.81538 0.75024 0.57768 0.0
C2400 C 0.79063 0.74123 0.56715 0.0
C2401 C 0.78655 0.72648 0.56599 0.0
C2402 C 0.7783 0.72113 0.55369 0.0
C2403 C 0.77432 0.73108 0.54225 0.0
C2404 C 0.77875 0.74616 0.54315 0.0
C2405 C 0.78683 0.75121 0.55589 0.0
H2406 H 0.82719 0.32812 0.60099 0.0
H2407 H 0.84658 0.2919 0.62628 0.0
H2408 H 0.84048 0.27482 0.60562 0.0
H2409 H 0.79661 0.30694 0.58474 0.0
H2410 H 0.79696 0.31641 0.5672 0.0
H2411 H 0.80314 0.32584 0.58391 0.0
H2412 H 0.82838 0.33163 0.57231 0.0
H2413 H 0.8223 0.32214 0.5556 0.0
H2414 H 0.83915 0.31668 0.56531 0.0
H2415 H 0.83202 0.26149 0.58214 0.0
H2416 H 0.82107 0.25295 0.55816 0.0
H2417 H 0.80729 0.29783 0.54819 0.0
C2418 C 0.83006 0.31658 0.60226 0.0
C2419 C 0.83749 0.31143 0.61529 0.0
C2420 C 0.84114 0.29622 0.61635 0.0
C2421 C 0.83765 0.28639 0.60468 0.0
C2422 C 0.83046 0.29186 0.59197 0.0
C2423 C 0.82665 0.30659 0.59071 0.0
C2424 C 0.81879 0.30959 0.57592 0.0
C2425 C 0.80293 0.31501 0.57808 0.0
C2426 C 0.82769 0.32067 0.56675 0.0
C2427 C 0.81874 0.29426 0.56911 0.0
C2428 C 0.82556 0.28419 0.57851 0.0
C2429 C 0.82669 0.26931 0.57466 0.0
C2430 C 0.82051 0.26456 0.56094 0.0
C2431 C 0.81324 0.27465 0.55119 0.0
C2432 C 0.81257 0.28973 0.55538 0.0
H2433 H 0.2181 0.32049 0.60829 0.0
H2434 H 0.24931 0.34912 0.63267 0.0
H2435 H 0.26857 0.34324 0.61508 0.0
H2436 H 0.24486 0.29219 0.59935 0.0
H2437 H 0.23666 0.28874 0.58118 0.0
H2438 H 0.22531 0.29495 0.59587 0.0
H2439 H 0.21655 0.31705 0.57967 0.0
H2440 H 0.22793 0.31096 0.56497 0.0
H2441 H 0.23012 0.32948 0.57218 0.0
H2442 H 0.2843 0.33502 0.59452 0.0
H2443 H 0.29576 0.32403 0.57281 0.0
H2444 H 0.25465 0.30051 0.56173 0.0
C2445 C 0.22903 0.32537 0.61003 0.0
C2446 C 0.23211 0.33539 0.6218 0.0
C2447 C 0.24656 0.34163 0.62359 0.0
C2448 C 0.25763 0.33831 0.6137 0.0
C2449 C 0.25416 0.32863 0.60208 0.0
C2450 C 0.24027 0.32216 0.60023 0.0
C2451 C 0.23948 0.31223 0.58668 0.0
C2452 C 0.2364 0.29607 0.59104 0.0
C2453 C 0.22783 0.31777 0.5752 0.0
C2454 C 0.25506 0.31422 0.58121 0.0
C2455 C 0.26333 0.32375 0.59025 0.0
C2456 C 0.27795 0.32751 0.58736 0.0
C2457 C 0.28434 0.32129 0.57493 0.0
C2458 C 0.27615 0.31139 0.56553 0.0
C2459 C 0.26129 0.30787 0.56877 0.0
H2460 H 0.22327 0.3248 0.44126 0.0
H2461 H 0.20224 0.28303 0.42849 0.0
H2462 H 0.21439 0.27096 0.45013 0.0
H2463 H 0.25807 0.30955 0.45227 0.0
H2464 H 0.26134 0.32233 0.46738 0.0
H2465 H 0.25012 0.32775 0.45147 0.0
H2466 H 0.22862 0.334 0.46855 0.0
H2467 H 0.23975 0.32848 0.48452 0.0
H2468 H 0.22179 0.32004 0.48091 0.0
H2469 H 0.22984 0.26318 0.47302 0.0
H2470 H 0.24809 0.26043 0.49403 0.0
H2471 H 0.25913 0.30716 0.49099 0.0
C2472 C 0.22122 0.3131 0.44293 0.0
C2473 C 0.21168 0.30494 0.43314 0.0
C2474 C 0.20926 0.28965 0.43593 0.0
C2475 C 0.21616 0.28265 0.44819 0.0
C2476 C 0.2255 0.29105 0.4576 0.0
C2477 C 0.22806 0.30594 0.45505 0.0
C2478 C 0.23906 0.31239 0.46639 0.0
C2479 C 0.25297 0.31835 0.45893 0.0
C2480 C 0.23187 0.32444 0.47564 0.0
C2481 C 0.24245 0.29878 0.4756 0.0
C2482 C 0.23444 0.28658 0.4705 0.0
C2483 C 0.2361 0.2727 0.47714 0.0
C2484 C 0.24643 0.27123 0.48911 0.0
C2485 C 0.25502 0.28356 0.49417 0.0
C2486 C 0.25274 0.2975 0.48742 0.0
H2487 H 0.23312 0.68107 0.41068 0.0
H2488 H 0.2403 0.71871 0.38195 0.0
H2489 H 0.25349 0.73191 0.40255 0.0
H2490 H 0.22538 0.70187 0.44239 0.0
H2491 H 0.23444 0.68954 0.45542 0.0
H2492 H 0.22685 0.68247 0.4381 0.0
H2493 H 0.25245 0.67185 0.43207 0.0
H2494 H 0.26013 0.67889 0.4494 0.0
H2495 H 0.26848 0.68394 0.43229 0.0
H2496 H 0.26456 0.74156 0.42647 0.0
H2497 H 0.27221 0.74735 0.45232 0.0
H2498 H 0.25739 0.70371 0.46584 0.0
C2499 C 0.23775 0.69197 0.40867 0.0
C2500 C 0.23578 0.69886 0.39471 0.0
C2501 C 0.24167 0.71327 0.39258 0.0
C2502 C 0.24924 0.7208 0.40418 0.0
C2503 C 0.2508 0.7138 0.41788 0.0
C2504 C 0.24523 0.69971 0.4202 0.0
C2505 C 0.24758 0.69512 0.43625 0.0
C2506 C 0.23268 0.69208 0.44346 0.0
C2507 C 0.25777 0.68165 0.43757 0.0
C2508 C 0.25515 0.70891 0.44262 0.0
C2509 C 0.25701 0.71948 0.43179 0.0
C2510 C 0.26322 0.73334 0.43504 0.0
C2511 C 0.26745 0.73656 0.44978 0.0
C2512 C 0.2654 0.72602 0.46116 0.0
C2513 C 0.25934 0.71193 0.45741 0.0
H2514 H 0.81443 0.71821 0.40459 0.0
H2515 H 0.86151 0.7187 0.41628 0.0
H2516 H 0.85657 0.73189 0.43941 0.0
H2517 H 0.80664 0.75428 0.41886 0.0
H2518 H 0.78885 0.74902 0.42572 0.0
H2519 H 0.79599 0.73953 0.41004 0.0
H2520 H 0.79316 0.71446 0.42362 0.0
H2521 H 0.78601 0.72389 0.43934 0.0
H2522 H 0.80186 0.71208 0.44172 0.0
H2523 H 0.84671 0.74503 0.4612 0.0
H2524 H 0.83255 0.75736 0.4803 0.0
H2525 H 0.79174 0.7485 0.45478 0.0
C2526 C 0.82369 0.72098 0.41206 0.0
C2527 C 0.83839 0.71746 0.40853 0.0
C2528 C 0.85019 0.72147 0.41858 0.0
C2529 C 0.84749 0.72888 0.43181 0.0
C2530 C 0.83292 0.73223 0.43491 0.0
C2531 C 0.8212 0.72843 0.42536 0.0
C2532 C 0.8066 0.73347 0.43134 0.0
C2533 C 0.79908 0.74475 0.42087 0.0
C2534 C 0.7963 0.72018 0.43417 0.0
C2535 C 0.81198 0.7407 0.44575 0.0
C2536 C 0.8272 0.73984 0.44756 0.0
C2537 C 0.83479 0.7458 0.45989 0.0
C2538 C 0.82663 0.75289 0.47066 0.0
C2539 C 0.811 0.75401 0.46908 0.0
C2540 C 0.80363 0.74773 0.45643 0.0
H2541 H 0.8258 0.32029 0.41773 0.0
H2542 H 0.80292 0.36175 0.42344 0.0
H2543 H 0.79064 0.3513 0.44518 0.0
H2544 H 0.79633 0.29629 0.42785 0.0
H2545 H 0.80833 0.28334 0.43738 0.0
H2546 H 0.81514 0.29414 0.42228 0.0
H2547 H 0.83677 0.30409 0.4393 0.0
H2548 H 0.83005 0.29329 0.45443 0.0
H2549 H 0.83274 0.31298 0.45651 0.0
H2550 H 0.78062 0.33581 0.46646 0.0
H2551 H 0.7743 0.31698 0.48526 0.0
H2552 H 0.80465 0.28645 0.46559 0.0
C2553 C 0.81837 0.3273 0.42362 0.0
C2554 C 0.81538 0.34188 0.41883 0.0
C2555 C 0.80529 0.35049 0.42675 0.0
C2556 C 0.79832 0.34467 0.43918 0.0
C2557 C 0.80157 0.33025 0.44358 0.0
C2558 C 0.81141 0.32172 0.43604 0.0
C2559 C 0.81307 0.30656 0.44292 0.0
C2560 C 0.8079 0.29437 0.43195 0.0
C2561 C 0.82911 0.30409 0.44863 0.0
C2562 C 0.80264 0.30785 0.45555 0.0
C2563 C 0.79603 0.32154 0.45578 0.0
C2564 C 0.78579 0.32507 0.46639 0.0
C2565 C 0.78226 0.31432 0.47702 0.0
C2566 C 0.78902 0.30026 0.47696 0.0
C2567 C 0.79934 0.2971 0.46605 0.0
H2568 H 0.11075 0.69096 0.70971 0.0
H2569 H 0.13746 0.73119 0.71241 0.0
H2570 H 0.11862 0.74286 0.72751 0.0
H2571 H 0.07615 0.70841 0.70571 0.0
H2572 H 0.06624 0.69526 0.71676 0.0
H2573 H 0.08234 0.68956 0.70719 0.0
H2574 H 0.09444 0.68042 0.73191 0.0
H2575 H 0.07834 0.68608 0.74157 0.0
H2576 H 0.09645 0.69299 0.74737 0.0
H2577 H 0.0964 0.75076 0.74079 0.0
H2578 H 0.07199 0.75447 0.75148 0.0
H2579 H 0.05942 0.70922 0.74051 0.0
C2580 C 0.11275 0.70212 0.71373 0.0
C2581 C 0.12557 0.71018 0.70988 0.0
C2582 C 0.12766 0.72486 0.71511 0.0
C2583 C 0.11707 0.73155 0.72377 0.0
C2584 C 0.10445 0.7234 0.72717 0.0
C2585 C 0.10224 0.709 0.72238 0.0
C2586 C 0.08731 0.70302 0.72697 0.0
C2587 C 0.07743 0.69882 0.71334 0.0
C2588 C 0.08926 0.68985 0.73759 0.0
C2589 C 0.0814 0.71641 0.73486 0.0
C2590 C 0.09154 0.72799 0.73491 0.0
C2591 C 0.08841 0.74174 0.74091 0.0
C2592 C 0.07449 0.74377 0.74688 0.0
C2593 C 0.06383 0.73214 0.7468 0.0
C2594 C 0.06745 0.71822 0.7409 0.0
H2595 H 0.82049 0.61253 0.69919 0.0
H2596 H 0.84816 0.63495 0.73276 0.0
H2597 H 0.8436 0.61465 0.7502 0.0
H2598 H 0.79304 0.59856 0.72475 0.0
H2599 H 0.79032 0.58129 0.71499 0.0
H2600 H 0.79553 0.59773 0.70507 0.0
H2601 H 0.81824 0.58416 0.69516 0.0
H2602 H 0.81313 0.56771 0.7051 0.0
H2603 H 0.83134 0.57581 0.70807 0.0
H2604 H 0.83717 0.59148 0.76371 0.0
H2605 H 0.82796 0.56747 0.77289 0.0
H2606 H 0.80356 0.56029 0.73123 0.0
C2607 C 0.82543 0.61328 0.71026 0.0
C2608 C 0.83488 0.62531 0.71447 0.0
C2609 C 0.84118 0.62574 0.72908 0.0
C2610 C 0.83857 0.61429 0.73915 0.0
C2611 C 0.82947 0.6025 0.73456 0.0
C2612 C 0.82285 0.60196 0.72054 0.0
C2613 C 0.81358 0.58793 0.71847 0.0
C2614 C 0.79714 0.5916 0.71566 0.0
C2615 C 0.81943 0.57833 0.70596 0.0
C2616 C 0.81618 0.58065 0.73347 0.0
C2617 C 0.82542 0.58925 0.74254 0.0
C2618 C 0.82985 0.58468 0.75674 0.0
C2619 C 0.82464 0.57098 0.76183 0.0
C2620 C 0.81503 0.56201 0.75281 0.0
C2621 C 0.81073 0.56699 0.73845 0.0
H2622 H 0.92326 0.32014 0.71903 0.0
H2623 H 0.93072 0.36768 0.72058 0.0
H2624 H 0.95454 0.36388 0.73419 0.0
H2625 H 0.93902 0.31218 0.75532 0.0
H2626 H 0.94732 0.2951 0.74979 0.0
H2627 H 0.93076 0.30152 0.74024 0.0
H2628 H 0.94394 0.30039 0.7153 0.0
H2629 H 0.96054 0.29398 0.72479 0.0
H2630 H 0.96121 0.31028 0.71333 0.0
H2631 H 0.97769 0.355 0.74737 0.0
H2632 H 0.99852 0.34167 0.75933 0.0
H2633 H 0.9761 0.29984 0.74946 0.0
C2634 C 0.92994 0.32975 0.72215 0.0
C2635 C 0.92503 0.34423 0.71877 0.0
C2636 C 0.93408 0.3565 0.72322 0.0
C2637 C 0.94769 0.35445 0.73088 0.0
C2638 C 0.95216 0.34006 0.73405 0.0
C2639 C 0.94357 0.32791 0.72985 0.0
C2640 C 0.95097 0.31363 0.73468 0.0
C2641 C 0.94145 0.30511 0.74566 0.0
C2642 C 0.95437 0.30401 0.72122 0.0
C2643 C 0.96508 0.31966 0.7422 0.0
C2644 C 0.96552 0.33493 0.74171 0.0
C2645 C 0.97743 0.34303 0.74788 0.0
C2646 C 0.9892 0.33534 0.75475 0.0
C2647 C 0.98904 0.31965 0.75545 0.0
C2648 C 0.97673 0.31179 0.74903 0.0
H2649 H 0.22758 0.41972 0.71064 0.0
H2650 H 0.18313 0.43185 0.7221 0.0
H2651 H 0.19328 0.45424 0.73492 0.0
H2652 H 0.24661 0.43282 0.74433 0.0
H2653 H 0.26251 0.43929 0.7346 0.0
H2654 H 0.2517 0.42379 0.72751 0.0
H2655 H 0.24778 0.4373 0.70238 0.0
H2656 H 0.25858 0.45281 0.70938 0.0
H2657 H 0.23999 0.45558 0.70204 0.0
H2658 H 0.20873 0.47639 0.74523 0.0
H2659 H 0.22767 0.49578 0.75155 0.0
H2660 H 0.26134 0.46851 0.73261 0.0
C2661 C 0.21994 0.42706 0.71583 0.0
C2662 C 0.20455 0.42407 0.71528 0.0
C2663 C 0.19498 0.43386 0.72246 0.0
C2664 C 0.20065 0.44662 0.72973 0.0
C2665 C 0.2159 0.44934 0.72981 0.0
C2666 C 0.22537 0.43975 0.72306 0.0
C2667 C 0.24121 0.44531 0.72406 0.0
C2668 C 0.25109 0.43467 0.73317 0.0
C2669 C 0.24723 0.44791 0.70855 0.0
C2670 C 0.23921 0.45971 0.73216 0.0
C2671 C 0.2246 0.46187 0.73556 0.0
C2672 C 0.22021 0.47473 0.7427 0.0
C2673 C 0.23102 0.48567 0.74626 0.0
C2674 C 0.24597 0.48368 0.74255 0.0
C2675 C 0.25001 0.47043 0.73559 0.0
H2676 H 0.10065 0.31608 0.33021 0.0
H2677 H 0.1247 0.27607 0.34131 0.0
H2678 H 0.10399 0.26097 0.33064 0.0
H2679 H 0.06413 0.30188 0.33787 0.0
H2680 H 0.05516 0.31144 0.32257 0.0
H2681 H 0.07173 0.31915 0.3314 0.0
H2682 H 0.08442 0.31998 0.30615 0.0
H2683 H 0.06785 0.31242 0.29724 0.0
H2684 H 0.08531 0.30331 0.29528 0.0
H2685 H 0.08104 0.25021 0.31785 0.0
H2686 H 0.05778 0.24474 0.30347 0.0
H2687 H 0.0486 0.29174 0.30115 0.0
C2688 C 0.10158 0.30415 0.33034 0.0
C2689 C 0.11428 0.29727 0.33668 0.0
C2690 C 0.115 0.2816 0.33672 0.0
C2691 C 0.10331 0.27292 0.33065 0.0
C2692 C 0.09092 0.28005 0.3246 0.0
C2693 C 0.08998 0.29531 0.32438 0.0
C2694 C 0.07556 0.30022 0.31696 0.0
C2695 C 0.06609 0.30867 0.32785 0.0
C2696 C 0.07847 0.30953 0.30309 0.0
C2697 C 0.06861 0.28535 0.31291 0.0
C2698 C 0.07762 0.27385 0.31743 0.0
C2699 C 0.07382 0.25913 0.31436 0.0
C2700 C 0.06058 0.25612 0.30621 0.0
C2701 C 0.05128 0.26777 0.30129 0.0
C2702 C 0.05531 0.28254 0.30494 0.0
H2703 H 0.24196 0.60173 0.31594 0.0
H2704 H 0.19973 0.58861 0.29495 0.0
H2705 H 0.21044 0.5647 0.28815 0.0
H2706 H 0.26452 0.58509 0.28756 0.0
H2707 H 0.27894 0.57994 0.30082 0.0
H2708 H 0.268 0.59611 0.30397 0.0
H2709 H 0.26072 0.5858 0.32945 0.0
H2710 H 0.27166 0.56963 0.32652 0.0
H2711 H 0.25233 0.56765 0.33051 0.0
H2712 H 0.2256 0.54111 0.28537 0.0
H2713 H 0.24405 0.52113 0.2858 0.0
H2714 H 0.27672 0.551 0.30602 0.0
C2715 C 0.23493 0.5941 0.30959 0.0
C2716 C 0.21985 0.59728 0.30611 0.0
C2717 C 0.21118 0.58652 0.29811 0.0
C2718 C 0.21722 0.57289 0.29404 0.0
C2719 C 0.23206 0.57019 0.29775 0.0
C2720 C 0.24084 0.58062 0.30516 0.0
C2721 C 0.25646 0.57509 0.30791 0.0
C2722 C 0.26764 0.58462 0.29957 0.0
C2723 C 0.26052 0.57451 0.32458 0.0
C2724 C 0.25502 0.55972 0.30132 0.0
C2725 C 0.2409 0.55706 0.29546 0.0
C2726 C 0.23679 0.54324 0.2896 0.0
C2727 C 0.24739 0.53194 0.28976 0.0
C2728 C 0.262 0.53454 0.29547 0.0
C2729 C 0.26574 0.54867 0.30131 0.0
H2730 H 0.91985 0.72191 0.30924 0.0
H2731 H 0.92499 0.67669 0.2943 0.0
H2732 H 0.94736 0.68427 0.28111 0.0
H2733 H 0.93283 0.74023 0.27636 0.0
H2734 H 0.94228 0.75472 0.2868 0.0
H2735 H 0.92605 0.74589 0.29396 0.0
H2736 H 0.9409 0.73922 0.3181 0.0
H2737 H 0.95712 0.74809 0.31105 0.0
H2738 H 0.95787 0.72906 0.31697 0.0
H2739 H 0.97023 0.69708 0.27021 0.0
H2740 H 0.99146 0.7135 0.26406 0.0
H2741 H 0.97119 0.74954 0.28727 0.0
C2742 C 0.92565 0.71354 0.30326 0.0
C2743 C 0.92056 0.69868 0.30286 0.0
C2744 C 0.92847 0.6882 0.29464 0.0
C2745 C 0.94125 0.69239 0.28713 0.0
C2746 C 0.94602 0.70712 0.28791 0.0
C2747 C 0.93841 0.71749 0.29581 0.0
C2748 C 0.94607 0.73245 0.2956 0.0
C2749 C 0.93622 0.744 0.28771 0.0
C2750 C 0.95077 0.73749 0.31137 0.0
C2751 C 0.95935 0.72884 0.28661 0.0
C2752 C 0.95911 0.71426 0.28205 0.0
C2753 C 0.97048 0.70852 0.27372 0.0
C2754 C 0.98246 0.7179 0.27023 0.0
C2755 C 0.98303 0.73273 0.27528 0.0
C2756 C 0.97117 0.73821 0.28336 0.0
H2757 H 0.82752 0.43695 0.31209 0.0
H2758 H 0.80315 0.40207 0.28857 0.0
H2759 H 0.79415 0.42023 0.26991 0.0
H2760 H 0.80098 0.46598 0.30576 0.0
H2761 H 0.81489 0.48014 0.30323 0.0
H2762 H 0.819 0.46443 0.31486 0.0
H2763 H 0.84175 0.45873 0.29926 0.0
H2764 H 0.83761 0.47434 0.28748 0.0
H2765 H 0.83925 0.45616 0.27954 0.0
H2766 H 0.78712 0.4423 0.25443 0.0
H2767 H 0.78308 0.46681 0.24275 0.0
H2768 H 0.81337 0.48701 0.27527 0.0
C2769 C 0.82016 0.43322 0.30308 0.0
C2770 C 0.81587 0.41819 0.30177 0.0
C2771 C 0.80648 0.41358 0.28972 0.0
C2772 C 0.80135 0.42379 0.2791 0.0
C2773 C 0.80591 0.43852 0.28059 0.0
C2774 C 0.81516 0.44323 0.29223 0.0
C2775 C 0.81863 0.45963 0.29108 0.0
C2776 C 0.81304 0.46804 0.30453 0.0
C2777 C 0.8353 0.46237 0.28923 0.0
C2778 C 0.80977 0.46344 0.27707 0.0
C2779 C 0.80245 0.45111 0.27124 0.0
C2780 C 0.79294 0.45199 0.25878 0.0
C2781 C 0.79073 0.46588 0.25221 0.0
C2782 C 0.79814 0.47862 0.25797 0.0
C2783 C 0.80792 0.47733 0.27044 0.0
H2784 H 0.2214 0.61761 0.70244 0.0
H2785 H 0.21664 0.60497 0.65615 0.0
H2786 H 0.23133 0.58261 0.66135 0.0
H2787 H 0.25865 0.60528 0.70852 0.0
H2788 H 0.25573 0.59853 0.72696 0.0
H2789 H 0.24483 0.61359 0.71964 0.0
H2790 H 0.22071 0.59895 0.72478 0.0
H2791 H 0.23154 0.58388 0.73219 0.0
H2792 H 0.2181 0.58058 0.71727 0.0
H2793 H 0.24671 0.56167 0.67152 0.0
H2794 H 0.26081 0.54318 0.68616 0.0
H2795 H 0.25544 0.56938 0.7258 0.0
C2796 C 0.2233 0.61007 0.69342 0.0
C2797 C 0.21792 0.61313 0.67886 0.0
C2798 C 0.22084 0.60302 0.66735 0.0
C2799 C 0.22911 0.59024 0.6702 0.0
C2800 C 0.23438 0.58766 0.68463 0.0
C2801 C 0.23153 0.59724 0.69607 0.0
C2802 C 0.23844 0.59184 0.71059 0.0
C2803 C 0.2501 0.60297 0.71678 0.0
C2804 C 0.22648 0.58862 0.72187 0.0
C2805 C 0.24558 0.57773 0.70552 0.0
C2806 C 0.24316 0.57554 0.6905 0.0
C2807 C 0.24869 0.56327 0.68329 0.0
C2808 C 0.25679 0.55287 0.69169 0.0
C2809 C 0.25925 0.55477 0.70716 0.0
C2810 C 0.25362 0.56747 0.71406 0.0
H2811 H 0.18907 0.41161 0.32588 0.0
H2812 H 0.23158 0.39134 0.3361 0.0
H2813 H 0.24421 0.41181 0.32349 0.0
H2814 H 0.19802 0.42486 0.28934 0.0
H2815 H 0.18802 0.44188 0.29101 0.0
H2816 H 0.18217 0.42563 0.30086 0.0
H2817 H 0.18413 0.44021 0.32553 0.0
H2818 H 0.19001 0.4565 0.31576 0.0
H2819 H 0.20133 0.44938 0.33092 0.0
H2820 H 0.25236 0.43422 0.30981 0.0
H2821 H 0.25562 0.45725 0.29585 0.0
H2822 H 0.20799 0.46361 0.29436 0.0
C2823 C 0.20103 0.41142 0.32537 0.0
C2824 C 0.20932 0.39986 0.33212 0.0
C2825 C 0.22497 0.40015 0.33128 0.0
C2826 C 0.23226 0.4117 0.32405 0.0
C2827 C 0.22379 0.42294 0.31764 0.0
C2828 C 0.20852 0.42293 0.31819 0.0
C2829 C 0.20213 0.43647 0.31043 0.0
C2830 C 0.19199 0.43193 0.29712 0.0
C2831 C 0.19392 0.44621 0.32131 0.0
C2832 C 0.2162 0.44406 0.30545 0.0
C2833 C 0.22854 0.43601 0.30974 0.0
C2834 C 0.24279 0.44067 0.30646 0.0
C2835 C 0.24452 0.45389 0.29859 0.0
C2836 C 0.2321 0.46247 0.29407 0.0
C2837 C 0.21773 0.45736 0.29756 0.0
H2838 H 0.12149 0.69936 0.29896 0.0
H2839 H 0.11432 0.69438 0.34591 0.0
H2840 H 0.09107 0.70823 0.34304 0.0
H2841 H 0.10846 0.73596 0.2956 0.0
H2842 H 0.0994 0.73349 0.27765 0.0
H2843 H 0.11504 0.72227 0.283 0.0
H2844 H 0.09938 0.6985 0.27786 0.0
H2845 H 0.08371 0.70966 0.27238 0.0
H2846 H 0.08199 0.69602 0.28678 0.0
H2847 H 0.06972 0.72417 0.3357 0.0
H2848 H 0.05059 0.74 0.32392 0.0
H2849 H 0.0708 0.7345 0.28152 0.0
C2850 C 0.11485 0.70093 0.30856 0.0
C2851 C 0.1198 0.69584 0.32269 0.0
C2852 C 0.11089 0.69832 0.33502 0.0
C2853 C 0.09762 0.70614 0.33349 0.0
C2854 C 0.09326 0.71135 0.31953 0.0
C2855 C 0.10149 0.70875 0.30723 0.0
C2856 C 0.09443 0.71603 0.29359 0.0
C2857 C 0.10496 0.72762 0.28708 0.0
C2858 C 0.08959 0.70435 0.28197 0.0
C2859 C 0.08112 0.72329 0.30024 0.0
C2860 C 0.0807 0.72043 0.31522 0.0
C2861 C 0.06985 0.72638 0.32394 0.0
C2862 C 0.05909 0.73546 0.31718 0.0
C2863 C 0.05916 0.7385 0.30181 0.0
C2864 C 0.07033 0.73223 0.29325 0.0
H2865 H 0.81384 0.62176 0.29389 0.0
H2866 H 0.80638 0.60699 0.33868 0.0
H2867 H 0.79198 0.58545 0.32874 0.0
H2868 H 0.77812 0.61008 0.27753 0.0
H2869 H 0.78609 0.60448 0.26046 0.0
H2870 H 0.79456 0.61928 0.27126 0.0
H2871 H 0.81954 0.60537 0.27213 0.0
H2872 H 0.81116 0.59058 0.26133 0.0
H2873 H 0.82013 0.58666 0.27901 0.0
H2874 H 0.77959 0.56432 0.31329 0.0
H2875 H 0.77123 0.54601 0.29411 0.0
H2876 H 0.78761 0.57513 0.26009 0.0
C2877 C 0.80918 0.61403 0.30166 0.0
C2878 C 0.8113 0.61607 0.31708 0.0
C2879 C 0.80479 0.60576 0.32681 0.0
C2880 C 0.79663 0.59346 0.32126 0.0
C2881 C 0.79498 0.59168 0.30595 0.0
C2882 C 0.80107 0.60177 0.29633 0.0
C2883 C 0.79843 0.59714 0.28039 0.0
C2884 C 0.78872 0.60841 0.27192 0.0
C2885 C 0.81319 0.59479 0.27278 0.0
C2886 C 0.7902 0.58269 0.28249 0.0
C2887 C 0.78811 0.57971 0.29725 0.0
C2888 C 0.7811 0.56664 0.3017 0.0
C2889 C 0.77635 0.55631 0.29075 0.0
C2890 C 0.77882 0.55911 0.27563 0.0
C2891 C 0.78561 0.57259 0.27156 0.0
H2892 H 0.90918 0.33337 0.30605 0.0
H2893 H 0.9283 0.33595 0.35076 0.0
H2894 H 0.95202 0.32669 0.34178 0.0
H2895 H 0.92778 0.30021 0.29513 0.0
H2896 H 0.93024 0.30659 0.27648 0.0
H2897 H 0.91471 0.31284 0.28663 0.0
H2898 H 0.9227 0.34007 0.28214 0.0
H2899 H 0.93831 0.33391 0.27207 0.0
H2900 H 0.94117 0.3461 0.28772 0.0
H2901 H 0.97391 0.31779 0.32762 0.0
H2902 H 0.99192 0.30935 0.30959 0.0
H2903 H 0.95832 0.31307 0.27427 0.0
C2904 C 0.91835 0.33205 0.31398 0.0
C2905 C 0.91688 0.33543 0.32912 0.0
C2906 C 0.92911 0.33328 0.33914 0.0
C2907 C 0.94265 0.32812 0.33413 0.0
C2908 C 0.94376 0.32514 0.31908 0.0
C2909 C 0.93191 0.32696 0.30917 0.0
C2910 C 0.93596 0.3231 0.29356 0.0
C2911 C 0.92662 0.3099 0.2876 0.0
C2912 C 0.93445 0.3366 0.28327 0.0
C2913 C 0.95201 0.31894 0.29617 0.0
C2914 C 0.95631 0.32014 0.31096 0.0
C2915 C 0.97064 0.31678 0.31602 0.0
C2916 C 0.98078 0.31196 0.30571 0.0
C2917 C 0.97657 0.31057 0.29051 0.0
C2918 C 0.96199 0.31422 0.28575 0.0
H2919 H 0.83461 0.43211 0.70931 0.0
H2920 H 0.79374 0.41498 0.68875 0.0
H2921 H 0.78052 0.43699 0.69747 0.0
H2922 H 0.81881 0.44485 0.7418 0.0
H2923 H 0.83082 0.46087 0.74365 0.0
H2924 H 0.83708 0.4446 0.73442 0.0
H2925 H 0.84251 0.4603 0.71118 0.0
H2926 H 0.83618 0.47663 0.72034 0.0
H2927 H 0.82796 0.47121 0.70266 0.0
H2928 H 0.77146 0.46068 0.71026 0.0
H2929 H 0.76768 0.48256 0.72631 0.0
H2930 H 0.81454 0.48299 0.73865 0.0
C2931 C 0.82287 0.43291 0.7066 0.0
C2932 C 0.81526 0.4217 0.69835 0.0
C2933 C 0.79992 0.42345 0.6949 0.0
C2934 C 0.79228 0.43591 0.69986 0.0
C2935 C 0.80014 0.44661 0.70821 0.0
C2936 C 0.81512 0.44517 0.71151 0.0
C2937 C 0.82098 0.45762 0.72133 0.0
C2938 C 0.82729 0.45162 0.73618 0.0
C2939 C 0.83259 0.46699 0.7134 0.0
C2940 C 0.80692 0.46619 0.72334 0.0
C2941 C 0.79499 0.45986 0.71557 0.0
C2942 C 0.78078 0.46575 0.71628 0.0
C2943 C 0.77872 0.47821 0.72536 0.0
C2944 C 0.79079 0.48449 0.73373 0.0
C2945 C 0.80506 0.47848 0.73241 0.0
H2946 H 0.12584 0.32165 0.72641 0.0
H2947 H 0.11446 0.30393 0.6828 0.0
H2948 H 0.09301 0.29061 0.69306 0.0
H2949 H 0.11474 0.28947 0.74777 0.0
H2950 H 0.10758 0.30063 0.76234 0.0
H2951 H 0.12269 0.3075 0.75172 0.0
H2952 H 0.10765 0.33095 0.74494 0.0
H2953 H 0.09251 0.32416 0.75552 0.0
H2954 H 0.08942 0.32893 0.7363 0.0
H2955 H 0.07156 0.28051 0.70824 0.0
H2956 H 0.05249 0.275 0.72661 0.0
H2957 H 0.07817 0.30018 0.75963 0.0
C2958 C 0.11888 0.31496 0.71897 0.0
C2959 C 0.12184 0.3139 0.70377 0.0
C2960 C 0.11254 0.30481 0.69452 0.0
C2961 C 0.10028 0.29724 0.70024 0.0
C2962 C 0.09753 0.29882 0.71525 0.0
C2963 C 0.10665 0.30743 0.72446 0.0
C2964 C 0.10103 0.30799 0.73999 0.0
C2965 C 0.11218 0.30097 0.75111 0.0
C2966 C 0.09744 0.32395 0.74444 0.0
C2967 C 0.08714 0.29859 0.73807 0.0
C2968 C 0.08531 0.29323 0.7238 0.0
C2969 C 0.07297 0.28458 0.71947 0.0
C2970 C 0.06219 0.2815 0.72996 0.0
C2971 C 0.0638 0.28717 0.74455 0.0
C2972 C 0.07655 0.29567 0.74858 0.0
H2973 H 0.93213 0.70688 0.69456 0.0
H2974 H 0.91141 0.74876 0.68378 0.0
H2975 H 0.93394 0.76206 0.69332 0.0
H2976 H 0.94795 0.71795 0.72853 0.0
H2977 H 0.96455 0.70729 0.72692 0.0
H2978 H 0.94764 0.70132 0.71751 0.0
H2979 H 0.96096 0.70124 0.69258 0.0
H2980 H 0.97793 0.70729 0.70194 0.0
H2981 H 0.97032 0.71778 0.68656 0.0
H2982 H 0.95819 0.77074 0.70654 0.0
H2983 H 0.981 0.77369 0.72252 0.0
H2984 H 0.98505 0.72596 0.72454 0.0
C2985 C 0.93232 0.71885 0.69409 0.0
C2986 C 0.91996 0.72676 0.68843 0.0
C2987 C 0.9208 0.74243 0.6879 0.0
C2988 C 0.93354 0.75008 0.69332 0.0
C2989 C 0.94542 0.74191 0.69913 0.0
C2990 C 0.94488 0.72662 0.69946 0.0
C2991 C 0.95854 0.72033 0.70718 0.0
C2992 C 0.95441 0.7112 0.72084 0.0
C2993 C 0.96746 0.71112 0.69642 0.0
C2994 C 0.9667 0.73445 0.71155 0.0
C2995 C 0.95914 0.74684 0.70668 0.0
C2996 C 0.96429 0.7611 0.71022 0.0
C2997 C 0.97728 0.76269 0.71924 0.0
C2998 C 0.98483 0.75006 0.72472 0.0
C2999 C 0.97959 0.73585 0.72047 0.0
H3000 H 0.71094 0.22074 0.59206 0.0
H3001 H 0.73351 0.2479 0.62552 0.0
H3002 H 0.74314 0.26423 0.60589 0.0
H3003 H 0.74004 0.22117 0.5676 0.0
H3004 H 0.72824 0.22119 0.55107 0.0
H3005 H 0.72165 0.21318 0.56783 0.0
H3006 H 0.69891 0.23044 0.56626 0.0
H3007 H 0.70559 0.23866 0.54956 0.0
H3008 H 0.70175 0.25018 0.5652 0.0
H3009 H 0.75137 0.27675 0.58228 0.0
H3010 H 0.76035 0.28195 0.55715 0.0
H3011 H 0.73347 0.24558 0.53959 0.0
C3012 C 0.71769 0.2303 0.59522 0.0
C3013 C 0.72137 0.23325 0.61022 0.0
C3014 C 0.73056 0.24557 0.61402 0.0
C3015 C 0.73594 0.25494 0.60298 0.0
C3016 C 0.73212 0.25172 0.58821 0.0
C3017 C 0.72335 0.23956 0.58435 0.0
C3018 C 0.72221 0.23746 0.56775 0.0
C3019 C 0.72841 0.22236 0.56331 0.0
C3020 C 0.70616 0.2393 0.56185 0.0
C3021 C 0.73198 0.25012 0.56285 0.0
C3022 C 0.7373 0.2585 0.57474 0.0
C3023 C 0.74712 0.27037 0.57288 0.0
C3024 C 0.75206 0.27336 0.55859 0.0
C3025 C 0.74736 0.2643 0.54652 0.0
C3026 C 0.73695 0.25283 0.54865 0.0
H3027 H 0.34235 0.23458 0.6248 0.0
H3028 H 0.3222 0.19084 0.62034 0.0
H3029 H 0.30892 0.19879 0.59742 0.0
H3030 H 0.31134 0.2554 0.61089 0.0
H3031 H 0.32258 0.26851 0.60115 0.0
H3032 H 0.33001 0.25952 0.61753 0.0
H3033 H 0.35211 0.25004 0.60285 0.0
H3034 H 0.34479 0.25907 0.58644 0.0
H3035 H 0.34854 0.23953 0.58612 0.0
H3036 H 0.29763 0.21184 0.57457 0.0
H3037 H 0.29074 0.22838 0.55354 0.0
H3038 H 0.31948 0.2627 0.57269 0.0
C3039 C 0.33528 0.22657 0.61899 0.0
C3040 C 0.33331 0.21208 0.62457 0.0
C3041 C 0.32372 0.20211 0.61658 0.0
C3042 C 0.31617 0.20649 0.60345 0.0
C3043 C 0.31836 0.22085 0.59832 0.0
C3044 C 0.32778 0.23069 0.60582 0.0
C3045 C 0.32858 0.24537 0.59783 0.0
C3046 C 0.32278 0.25794 0.60742 0.0
C3047 C 0.34445 0.24869 0.59302 0.0
C3048 C 0.31822 0.24225 0.58463 0.0
C3049 C 0.31228 0.22812 0.58511 0.0
C3050 C 0.30227 0.22291 0.57408 0.0
C3051 C 0.29838 0.23237 0.5622 0.0
C3052 C 0.30464 0.24678 0.5614 0.0
C3053 C 0.31459 0.25171 0.57286 0.0
H3054 H 0.32346 0.80838 0.61925 0.0
H3055 H 0.32032 0.85167 0.59868 0.0
H3056 H 0.31196 0.83994 0.57509 0.0
H3057 H 0.3372 0.78915 0.58775 0.0
H3058 H 0.32671 0.77245 0.59102 0.0
H3059 H 0.33242 0.78423 0.60632 0.0
H3060 H 0.30514 0.78619 0.61395 0.0
H3061 H 0.29936 0.77436 0.59872 0.0
H3062 H 0.29125 0.79236 0.60057 0.0
H3063 H 0.30426 0.82347 0.55365 0.0
H3064 H 0.29678 0.80357 0.53617 0.0
H3065 H 0.3046 0.77099 0.57079 0.0
C3066 C 0.3211 0.81539 0.60976 0.0
C3067 C 0.32254 0.83096 0.61083 0.0
C3068 C 0.31913 0.83974 0.59819 0.0
C3069 C 0.31447 0.83317 0.58472 0.0
C3070 C 0.31324 0.8178 0.58404 0.0
C3071 C 0.31637 0.80901 0.59624 0.0
C3072 C 0.31391 0.79277 0.59261 0.0
C3073 C 0.32843 0.78414 0.59454 0.0
C3074 C 0.30169 0.78603 0.60202 0.0
C3075 C 0.30893 0.79379 0.57645 0.0
C3076 C 0.30866 0.80832 0.57172 0.0
C3077 C 0.30436 0.81205 0.55726 0.0
C3078 C 0.30006 0.80065 0.54742 0.0
C3079 C 0.30001 0.78566 0.55205 0.0
C3080 C 0.30465 0.78226 0.56678 0.0
H3081 H 0.71472 0.81076 0.60505 0.0
H3082 H 0.70796 0.8571 0.59454 0.0
H3083 H 0.72005 0.85366 0.57078 0.0
H3084 H 0.7506 0.80808 0.58966 0.0
H3085 H 0.7476 0.78962 0.58251 0.0
H3086 H 0.73806 0.79555 0.59858 0.0
H3087 H 0.71286 0.78881 0.58552 0.0
H3088 H 0.72233 0.78285 0.56941 0.0
H3089 H 0.70818 0.79669 0.56766 0.0
H3090 H 0.73301 0.84542 0.54836 0.0
H3091 H 0.74622 0.83295 0.52868 0.0
H3092 H 0.74507 0.7919 0.55362 0.0
C3093 C 0.71566 0.82013 0.59768 0.0
C3094 C 0.71043 0.83423 0.6017 0.0
C3095 C 0.71205 0.84626 0.5918 0.0
C3096 C 0.71882 0.8444 0.57824 0.0
C3097 C 0.72395 0.83043 0.57468 0.0
C3098 C 0.72248 0.81849 0.58408 0.0
C3099 C 0.72927 0.80473 0.57765 0.0
C3100 C 0.74215 0.79917 0.5877 0.0
C3101 C 0.71745 0.79255 0.5749 0.0
C3102 C 0.73479 0.81084 0.56319 0.0
C3103 C 0.73157 0.82568 0.56172 0.0
C3104 C 0.73563 0.83381 0.5494 0.0
C3105 C 0.74325 0.82662 0.5383 0.0
C3106 C 0.74681 0.81142 0.53954 0.0
C3107 C 0.74242 0.80347 0.5522 0.0
H3108 H 0.71673 0.8077 0.40338 0.0
H3109 H 0.6737 0.79153 0.41635 0.0
H3110 H 0.6857 0.7785 0.43764 0.0
H3111 H 0.73817 0.77526 0.41461 0.0
H3112 H 0.75381 0.78636 0.4211 0.0
H3113 H 0.74191 0.79289 0.40611 0.0
H3114 H 0.73739 0.81706 0.42065 0.0
H3115 H 0.74928 0.81062 0.43563 0.0
H3116 H 0.73054 0.81592 0.4391 0.0
H3117 H 0.70274 0.76885 0.45895 0.0
H3118 H 0.72273 0.76423 0.47794 0.0
H3119 H 0.75396 0.78752 0.45072 0.0
C3120 C 0.70978 0.80138 0.41063 0.0
C3121 C 0.69423 0.80071 0.40818 0.0
C3122 C 0.68564 0.79211 0.41787 0.0
C3123 C 0.69236 0.7847 0.43004 0.0
C3124 C 0.70771 0.78592 0.4323 0.0
C3125 C 0.71627 0.79403 0.42278 0.0
C3126 C 0.73238 0.79446 0.42798 0.0
C3127 C 0.74214 0.78678 0.41678 0.0
C3128 C 0.7377 0.81046 0.43102 0.0
C3129 C 0.73156 0.78563 0.44213 0.0
C3130 C 0.71732 0.7806 0.44443 0.0
C3131 C 0.71394 0.77265 0.45716 0.0
C3132 C 0.72536 0.77003 0.46788 0.0
C3133 C 0.73991 0.77551 0.46584 0.0
C3134 C 0.74297 0.78316 0.45265 0.0
H3135 H 0.717 0.22051 0.40144 0.0
H3136 H 0.74725 0.18356 0.4003 0.0
H3137 H 0.76114 0.19384 0.42207 0.0
H3138 H 0.74326 0.24878 0.41476 0.0
H3139 H 0.73004 0.2571 0.42657 0.0
H3140 H 0.72376 0.24789 0.40977 0.0
H3141 H 0.70639 0.23098 0.42474 0.0
H3142 H 0.71255 0.24018 0.44154 0.0
H3143 H 0.71405 0.22038 0.44002 0.0
H3144 H 0.77088 0.20766 0.44537 0.0
H3145 H 0.77395 0.22245 0.46855 0.0
H3146 H 0.73615 0.24875 0.45494 0.0
C3147 C 0.72652 0.21448 0.4057 0.0
C3148 C 0.73095 0.20117 0.39901 0.0
C3149 C 0.74369 0.19391 0.40496 0.0
C3150 C 0.75166 0.19964 0.4174 0.0
C3151 C 0.74675 0.21263 0.42385 0.0
C3152 C 0.73441 0.21988 0.41819 0.0
C3153 C 0.73056 0.23291 0.42775 0.0
C3154 C 0.732 0.24754 0.4192 0.0
C3155 C 0.71497 0.23099 0.43388 0.0
C3156 C 0.74247 0.23172 0.43987 0.0
C3157 C 0.75193 0.22016 0.43735 0.0
C3158 C 0.76357 0.21679 0.44738 0.0
C3159 C 0.7653 0.22523 0.46045 0.0
C3160 C 0.75528 0.23665 0.46343 0.0
C3161 C 0.74394 0.24005 0.45286 0.0
H3162 H 0.35003 0.21675 0.42561 0.0
H3163 H 0.30752 0.21781 0.40163 0.0
H3164 H 0.29729 0.23262 0.42166 0.0
H3165 H 0.33559 0.21307 0.46172 0.0
H3166 H 0.34956 0.22472 0.4707 0.0
H3167 H 0.35377 0.21461 0.45424 0.0
H3168 H 0.36167 0.23904 0.44159 0.0
H3169 H 0.35746 0.24923 0.45802 0.0
H3170 H 0.34889 0.2542 0.44042 0.0
H3171 H 0.29147 0.24691 0.44431 0.0
H3172 H 0.29021 0.2593 0.46849 0.0
H3173 H 0.33635 0.24895 0.47821 0.0
C3174 C 0.33862 0.22023 0.42451 0.0
C3175 C 0.32956 0.21606 0.41204 0.0
C3176 C 0.31462 0.22069 0.41114 0.0
C3177 C 0.30873 0.2292 0.42242 0.0
C3178 C 0.31791 0.23303 0.43457 0.0
C3179 C 0.33252 0.2287 0.43573 0.0
C3180 C 0.33983 0.23399 0.45022 0.0
C3181 C 0.34499 0.22081 0.45978 0.0
C3182 C 0.35272 0.24476 0.44739 0.0
C3183 C 0.327 0.24188 0.45704 0.0
C3184 C 0.3145 0.24123 0.44777 0.0
C3185 C 0.30118 0.24747 0.45168 0.0
C3186 C 0.30056 0.25441 0.4655 0.0
C3187 C 0.31314 0.25505 0.47535 0.0
C3188 C 0.32658 0.24881 0.47091 0.0
H3189 H 0.31941 0.82198 0.4267 0.0
H3190 H 0.27646 0.83706 0.41013 0.0
H3191 H 0.26475 0.82588 0.4318 0.0
H3192 H 0.30692 0.787 0.43918 0.0
H3193 H 0.3194 0.78669 0.45521 0.0
H3194 H 0.32439 0.79685 0.43898 0.0
H3195 H 0.32815 0.82061 0.45484 0.0
H3196 H 0.32309 0.81052 0.47111 0.0
H3197 H 0.31324 0.82703 0.4658 0.0
H3198 H 0.25757 0.81173 0.45482 0.0
H3199 H 0.25563 0.7954 0.4767 0.0
H3200 H 0.30329 0.78955 0.47761 0.0
C3201 C 0.30753 0.82294 0.42758 0.0
C3202 C 0.29888 0.83045 0.4167 0.0
C3203 C 0.28338 0.83157 0.41842 0.0
C3204 C 0.27661 0.8252 0.43067 0.0
C3205 C 0.28548 0.81778 0.44113 0.0
C3206 C 0.30061 0.81664 0.43969 0.0
C3207 C 0.30761 0.80758 0.45209 0.0
C3208 C 0.31501 0.79371 0.446 0.0
C3209 C 0.31868 0.817 0.46152 0.0
C3210 C 0.29404 0.8036 0.46062 0.0
C3211 C 0.28137 0.80966 0.45424 0.0
C3212 C 0.26745 0.80702 0.45997 0.0
C3213 C 0.26645 0.79777 0.47241 0.0
C3214 C 0.2793 0.79122 0.47889 0.0
C3215 C 0.29325 0.79441 0.47298 0.0
H3216 H 0.62637 0.2291 0.69186 0.0
H3217 H 0.61675 0.18307 0.70193 0.0
H3218 H 0.5933 0.19043 0.71285 0.0
H3219 H 0.61204 0.24456 0.72436 0.0
H3220 H 0.60441 0.26059 0.71514 0.0
H3221 H 0.6203 0.25164 0.70791 0.0
H3222 H 0.60634 0.24844 0.68252 0.0
H3223 H 0.59038 0.25737 0.68969 0.0
H3224 H 0.58854 0.23917 0.68161 0.0
H3225 H 0.57124 0.20293 0.7234 0.0
H3226 H 0.55219 0.21968 0.73263 0.0
H3227 H 0.57585 0.25734 0.7149 0.0
C3228 C 0.61926 0.22051 0.69616 0.0
C3229 C 0.62347 0.20548 0.69603 0.0
C3230 C 0.61391 0.19467 0.70207 0.0
C3231 C 0.6005 0.19873 0.7082 0.0
C3232 C 0.59673 0.21364 0.70814 0.0
C3233 C 0.60581 0.22435 0.70223 0.0
C3234 C 0.59932 0.23963 0.70376 0.0
C3235 C 0.60963 0.24969 0.71337 0.0
C3236 C 0.59594 0.24656 0.68848 0.0
C3237 C 0.58521 0.23585 0.71155 0.0
C3238 C 0.58392 0.2208 0.71398 0.0
C3239 C 0.57209 0.21473 0.72147 0.0
C3240 C 0.56136 0.22431 0.72672 0.0
C3241 C 0.5625 0.23978 0.72441 0.0
C3242 C 0.57453 0.24555 0.71659 0.0
H3243 H 0.34529 0.12634 0.74584 0.0
H3244 H 0.34722 0.10746 0.70182 0.0
H3245 H 0.33878 0.08336 0.71143 0.0
H3246 H 0.35775 0.09344 0.7662 0.0
H3247 H 0.34535 0.0963 0.78108 0.0
H3248 H 0.35232 0.11192 0.77094 0.0
H3249 H 0.32544 0.12027 0.76483 0.0
H3250 H 0.3184 0.1047 0.77496 0.0
H3251 H 0.31249 0.10748 0.75591 0.0
H3252 H 0.32917 0.06164 0.72545 0.0
H3253 H 0.31848 0.04384 0.74293 0.0
H3254 H 0.32267 0.07662 0.77793 0.0
C3255 C 0.34415 0.11707 0.73828 0.0
C3256 C 0.3469 0.1188 0.72306 0.0
C3257 C 0.34502 0.10645 0.71348 0.0
C3258 C 0.34033 0.09269 0.71885 0.0
C3259 C 0.33759 0.09139 0.73385 0.0
C3260 C 0.33941 0.10323 0.74345 0.0
C3261 C 0.33506 0.099 0.75895 0.0
C3262 C 0.34842 0.10024 0.76994 0.0
C3263 C 0.32207 0.10842 0.76395 0.0
C3264 C 0.33035 0.08299 0.75652 0.0
C3265 C 0.33199 0.07882 0.74197 0.0
C3266 C 0.32789 0.06476 0.73689 0.0
C3267 C 0.32177 0.05474 0.74688 0.0
C3268 C 0.31974 0.05881 0.7618 0.0
C3269 C 0.3243 0.07309 0.76668 0.0
H3270 H 0.41454 0.83986 0.7302 0.0
H3271 H 0.43187 0.84533 0.68638 0.0
H3272 H 0.45614 0.83619 0.69558 0.0
H3273 H 0.44879 0.85047 0.75115 0.0
H3274 H 0.44603 0.83683 0.76536 0.0
H3275 H 0.43028 0.84482 0.75564 0.0
H3276 H 0.42071 0.81861 0.74825 0.0
H3277 H 0.43641 0.81055 0.75794 0.0
H3278 H 0.43269 0.80634 0.73866 0.0
H3279 H 0.47798 0.82509 0.70898 0.0
H3280 H 0.49596 0.81249 0.72575 0.0
H3281 H 0.46474 0.81413 0.76099 0.0
C3282 C 0.42353 0.83938 0.72263 0.0
C3283 C 0.42131 0.8433 0.70756 0.0
C3284 C 0.43327 0.84226 0.69792 0.0
C3285 C 0.44713 0.83717 0.70307 0.0
C3286 C 0.4489 0.83319 0.7179 0.0
C3287 C 0.43746 0.83425 0.72757 0.0
C3288 C 0.44212 0.8285 0.7428 0.0
C3289 C 0.44179 0.8409 0.75443 0.0
C3290 C 0.43241 0.81521 0.74716 0.0
C3291 C 0.45787 0.82386 0.7401 0.0
C3292 C 0.46157 0.82676 0.72568 0.0
C3293 C 0.47525 0.82287 0.72033 0.0
C3294 C 0.48537 0.81566 0.7299 0.0
C3295 C 0.48179 0.81237 0.74467 0.0
C3296 C 0.46791 0.81674 0.74985 0.0
H3297 H 0.7082 0.92364 0.69807 0.0
H3298 H 0.68351 0.90347 0.73334 0.0
H3299 H 0.68937 0.92498 0.74927 0.0
H3300 H 0.73776 0.9388 0.72228 0.0
H3301 H 0.73983 0.95537 0.71142 0.0
H3302 H 0.73357 0.9384 0.70263 0.0
H3303 H 0.71017 0.95166 0.69213 0.0
H3304 H 0.71632 0.96863 0.70095 0.0
H3305 H 0.69829 0.961 0.70462 0.0
H3306 H 0.69705 0.94906 0.76115 0.0
H3307 H 0.70759 0.97339 0.76873 0.0
H3308 H 0.7285 0.97737 0.72649 0.0
C3309 C 0.70416 0.92361 0.7092 0.0
C3310 C 0.69519 0.91185 0.7143 0.0
C3311 C 0.69007 0.91244 0.72895 0.0
C3312 C 0.69344 0.92459 0.73816 0.0
C3313 C 0.70211 0.93603 0.73271 0.0
C3314 C 0.70756 0.93559 0.71864 0.0
C3315 C 0.7168 0.94931 0.71557 0.0
C3316 C 0.73295 0.94522 0.71282 0.0
C3317 C 0.70999 0.95817 0.70254 0.0
C3318 C 0.71559 0.95755 0.73008 0.0
C3319 C 0.70698 0.94973 0.73977 0.0
C3320 C 0.70389 0.95525 0.75369 0.0
C3321 C 0.70983 0.96911 0.75787 0.0
C3322 C 0.71888 0.97723 0.74822 0.0
C3323 C 0.72177 0.97131 0.73416 0.0
H3324 H 0.59598 0.80089 0.31536 0.0
H3325 H 0.59218 0.84576 0.29857 0.0
H3326 H 0.56853 0.83889 0.2856 0.0
H3327 H 0.57961 0.782 0.28335 0.0
H3328 H 0.57012 0.76852 0.29434 0.0
H3329 H 0.5873 0.77671 0.30124 0.0
H3330 H 0.57453 0.78523 0.32496 0.0
H3331 H 0.55735 0.77702 0.31817 0.0
H3332 H 0.55809 0.7963 0.32326 0.0
H3333 H 0.54445 0.82682 0.27473 0.0
H3334 H 0.52218 0.81118 0.26859 0.0
H3335 H 0.54167 0.77524 0.29408 0.0
C3336 C 0.59021 0.80937 0.30905 0.0
C3337 C 0.5961 0.82389 0.30803 0.0
C3338 C 0.58814 0.83447 0.29937 0.0
C3339 C 0.57461 0.8307 0.292 0.0
C3340 C 0.5691 0.8163 0.29339 0.0
C3341 C 0.57668 0.80584 0.30177 0.0
C3342 C 0.56818 0.79134 0.30214 0.0
C3343 C 0.57682 0.77891 0.29483 0.0
C3344 C 0.56431 0.78724 0.31808 0.0
C3345 C 0.5545 0.7953 0.2929 0.0
C3346 C 0.55524 0.80965 0.2877 0.0
C3347 C 0.54377 0.81558 0.2788 0.0
C3348 C 0.53118 0.80665 0.27534 0.0
C3349 C 0.53012 0.79209 0.28101 0.0
C3350 C 0.54204 0.78641 0.28975 0.0
H3351 H 0.69927 0.09236 0.31281 0.0
H3352 H 0.71876 0.12094 0.28017 0.0
H3353 H 0.727 0.09893 0.26646 0.0
H3354 H 0.7286 0.06688 0.31434 0.0
H3355 H 0.71695 0.05084 0.31705 0.0
H3356 H 0.71114 0.06873 0.32314 0.0
H3357 H 0.68668 0.06572 0.30745 0.0
H3358 H 0.6925 0.04783 0.30121 0.0
H3359 H 0.68742 0.06192 0.28791 0.0
H3360 H 0.73399 0.07371 0.25694 0.0
H3361 H 0.74167 0.04778 0.25393 0.0
H3362 H 0.71877 0.03575 0.29362 0.0
C3363 C 0.70505 0.09391 0.30264 0.0
C3364 C 0.70824 0.10827 0.29738 0.0
C3365 C 0.71616 0.10998 0.28426 0.0
C3366 C 0.7208 0.09756 0.27639 0.0
C3367 C 0.71754 0.08351 0.28189 0.0
C3368 C 0.70999 0.08163 0.29481 0.0
C3369 C 0.70914 0.06545 0.29911 0.0
C3370 C 0.71693 0.06283 0.31431 0.0
C3371 C 0.69297 0.0599 0.2989 0.0
C3372 C 0.71757 0.05852 0.28674 0.0
C3373 C 0.72207 0.06907 0.27674 0.0
C3374 C 0.73044 0.06535 0.26465 0.0
C3375 C 0.73469 0.05055 0.26298 0.0
C3376 C 0.73081 0.03968 0.27351 0.0
C3377 C 0.72184 0.04374 0.28532 0.0
H3378 H 0.42167 0.21512 0.31362 0.0
H3379 H 0.43057 0.16827 0.31846 0.0
H3380 H 0.45388 0.17157 0.30539 0.0
H3381 H 0.4347 0.21878 0.27739 0.0
H3382 H 0.44291 0.23688 0.28021 0.0
H3383 H 0.4274 0.23116 0.29087 0.0
H3384 H 0.44262 0.23653 0.31518 0.0
H3385 H 0.45816 0.24237 0.30458 0.0
H3386 H 0.4604 0.22796 0.31825 0.0
H3387 H 0.47536 0.17953 0.29062 0.0
H3388 H 0.49424 0.1919 0.27577 0.0
H3389 H 0.47153 0.23361 0.28029 0.0
C3390 C 0.42869 0.20564 0.31216 0.0
C3391 C 0.42432 0.19143 0.31702 0.0
C3392 C 0.43366 0.17922 0.3147 0.0
C3393 C 0.44694 0.18099 0.30735 0.0
C3394 C 0.45077 0.19506 0.3024 0.0
C3395 C 0.442 0.2072 0.30477 0.0
C3396 C 0.44846 0.22099 0.2978 0.0
C3397 C 0.43773 0.22732 0.28586 0.0
C3398 C 0.45266 0.23265 0.30966 0.0
C3399 C 0.46211 0.21463 0.29103 0.0
C3400 C 0.46323 0.19967 0.29385 0.0
C3401 C 0.47465 0.19127 0.28839 0.0
C3402 C 0.48526 0.19837 0.27986 0.0
C3403 C 0.4844 0.21372 0.27685 0.0
C3404 C 0.47264 0.22191 0.28257 0.0
H3405 H 0.30584 0.94006 0.33088 0.0
H3406 H 0.28163 0.9072 0.30438 0.0
H3407 H 0.26618 0.92691 0.29303 0.0
H3408 H 0.27501 0.96495 0.3369 0.0
H3409 H 0.28618 0.98145 0.33499 0.0
H3410 H 0.2945 0.96469 0.34197 0.0
H3411 H 0.31377 0.9658 0.32145 0.0
H3412 H 0.30563 0.98263 0.31454 0.0
H3413 H 0.30743 0.96704 0.30234 0.0
H3414 H 0.25383 0.95019 0.28418 0.0
H3415 H 0.24756 0.97543 0.276 0.0
H3416 H 0.28053 0.99339 0.30752 0.0
C3417 C 0.29717 0.93705 0.32279 0.0
C3418 C 0.29482 0.92214 0.31853 0.0
C3419 C 0.2836 0.91859 0.30773 0.0
C3420 C 0.27471 0.92968 0.30133 0.0
C3421 C 0.27727 0.94429 0.30579 0.0
C3422 C 0.28836 0.94803 0.31612 0.0
C3423 C 0.28961 0.96466 0.31806 0.0
C3424 C 0.28611 0.9692 0.33393 0.0
C3425 C 0.30502 0.97037 0.31384 0.0
C3426 C 0.27764 0.96971 0.30706 0.0
C3427 C 0.27046 0.95777 0.30032 0.0
C3428 C 0.25933 0.95963 0.28942 0.0
C3429 C 0.2558 0.97405 0.2849 0.0
C3430 C 0.26353 0.98646 0.29111 0.0
C3431 C 0.27431 0.98419 0.30263 0.0
H3432 H 0.70862 0.11045 0.69957 0.0
H3433 H 0.75151 0.12524 0.68472 0.0
H3434 H 0.76256 0.10188 0.6938 0.0
H3435 H 0.72197 0.09512 0.73318 0.0
H3436 H 0.70877 0.07999 0.73288 0.0
H3437 H 0.70415 0.0971 0.72377 0.0
H3438 H 0.69858 0.08286 0.69925 0.0
H3439 H 0.70329 0.06569 0.70829 0.0
H3440 H 0.7126 0.07124 0.69185 0.0
H3441 H 0.76918 0.07712 0.70615 0.0
H3442 H 0.77076 0.05443 0.72158 0.0
H3443 H 0.72367 0.05695 0.72884 0.0
C3444 C 0.72035 0.10887 0.69821 0.0
C3445 C 0.72915 0.11978 0.6914 0.0
C3446 C 0.74443 0.11701 0.68969 0.0
C3447 C 0.75083 0.10377 0.69486 0.0
C3448 C 0.74183 0.09336 0.7017 0.0
C3449 C 0.72691 0.09583 0.70338 0.0
C3450 C 0.71974 0.08344 0.71191 0.0
C3451 C 0.71329 0.08926 0.72628 0.0
C3452 C 0.70785 0.07533 0.70224 0.0
C3453 C 0.733 0.07373 0.71507 0.0
C3454 C 0.74563 0.07945 0.70894 0.0
C3455 C 0.75931 0.07251 0.7109 0.0
C3456 C 0.76011 0.0596 0.71962 0.0
C3457 C 0.74735 0.05392 0.7264 0.0
C3458 C 0.73363 0.06099 0.7238 0.0
H3459 H 0.70517 0.9081 0.30768 0.0
H3460 H 0.70535 0.91673 0.35492 0.0
H3461 H 0.72008 0.93951 0.35131 0.0
H3462 H 0.74222 0.9205 0.30211 0.0
H3463 H 0.73811 0.92887 0.28436 0.0
H3464 H 0.72709 0.91345 0.29047 0.0
H3465 H 0.70329 0.92895 0.28686 0.0
H3466 H 0.71424 0.9444 0.28067 0.0
H3467 H 0.70218 0.94665 0.29593 0.0
H3468 H 0.73532 0.96095 0.34282 0.0
H3469 H 0.74963 0.98002 0.32988 0.0
H3470 H 0.73986 0.95762 0.2881 0.0
C3471 C 0.70815 0.9149 0.31723 0.0
C3472 C 0.70416 0.91058 0.3316 0.0
C3473 C 0.70844 0.91969 0.34383 0.0
C3474 C 0.71675 0.9327 0.34189 0.0
C3475 C 0.7207 0.93651 0.32764 0.0
C3476 C 0.71651 0.92794 0.31549 0.0
C3477 C 0.7225 0.93446 0.30141 0.0
C3478 C 0.73311 0.92367 0.29417 0.0
C3479 C 0.70979 0.93888 0.29058 0.0
C3480 C 0.73075 0.94797 0.30758 0.0
C3481 C 0.72954 0.94893 0.32273 0.0
C3482 C 0.73634 0.96032 0.33095 0.0
C3483 C 0.74456 0.97106 0.32349 0.0
C3484 C 0.74595 0.97038 0.30794 0.0
C3485 C 0.73891 0.95861 0.29994 0.0
H3486 H 0.62184 0.2056 0.2931 0.0
H3487 H 0.6149 0.21847 0.33856 0.0
H3488 H 0.59298 0.23278 0.33024 0.0
H3489 H 0.6105 0.2398 0.27588 0.0
H3490 H 0.60146 0.23073 0.26018 0.0
H3491 H 0.61699 0.22214 0.26969 0.0
H3492 H 0.6011 0.19853 0.27392 0.0
H3493 H 0.58558 0.207 0.26432 0.0
H3494 H 0.58367 0.20008 0.28287 0.0
H3495 H 0.57107 0.2453 0.31666 0.0
H3496 H 0.55091 0.25363 0.29931 0.0
H3497 H 0.57236 0.23185 0.26324 0.0
C3498 C 0.61569 0.21132 0.30137 0.0
C3499 C 0.62019 0.21088 0.31651 0.0
C3500 C 0.61186 0.21877 0.32687 0.0
C3501 C 0.59934 0.2269 0.32225 0.0
C3502 C 0.59524 0.22707 0.30723 0.0
C3503 C 0.60318 0.21942 0.29698 0.0
C3504 C 0.59629 0.22093 0.28156 0.0
C3505 C 0.60695 0.22887 0.27122 0.0
C3506 C 0.59137 0.20573 0.27531 0.0
C3507 C 0.58312 0.23046 0.28473 0.0
C3508 C 0.58272 0.23405 0.29956 0.0
C3509 C 0.57133 0.24258 0.30502 0.0
C3510 C 0.55995 0.24732 0.29509 0.0
C3511 C 0.56003 0.24339 0.27993 0.0
C3512 C 0.57193 0.23504 0.27476 0.0
H3513 H 0.30923 0.11681 0.30316 0.0
H3514 H 0.33675 0.09629 0.33752 0.0
H3515 H 0.33203 0.07179 0.32595 0.0
H3516 H 0.28169 0.08679 0.30025 0.0
H3517 H 0.27898 0.08886 0.28051 0.0
H3518 H 0.28428 0.10464 0.29175 0.0
H3519 H 0.30697 0.1092 0.27556 0.0
H3520 H 0.30185 0.09332 0.26438 0.0
H3521 H 0.32005 0.09455 0.27321 0.0
H3522 H 0.32567 0.04982 0.30967 0.0
H3523 H 0.31561 0.03144 0.29158 0.0
H3524 H 0.29144 0.06606 0.26836 0.0
C3525 C 0.31413 0.10711 0.3083 0.0
C3526 C 0.32333 0.10839 0.32124 0.0
C3527 C 0.32953 0.0955 0.32771 0.0
C3528 C 0.32701 0.08158 0.32115 0.0
C3529 C 0.31811 0.08073 0.30824 0.0
C3530 C 0.31154 0.09311 0.30203 0.0
C3531 C 0.30227 0.08913 0.28825 0.0
C3532 C 0.28583 0.09256 0.29032 0.0
C3533 C 0.30814 0.09702 0.27454 0.0
C3534 C 0.30481 0.07261 0.28757 0.0
C3535 C 0.31409 0.068 0.29912 0.0
C3536 C 0.31832 0.05329 0.30063 0.0
C3537 C 0.31268 0.04295 0.29023 0.0
C3538 C 0.3028 0.04735 0.27856 0.0
C3539 C 0.29893 0.06241 0.27721 0.0
H3540 H 0.38869 0.80501 0.32248 0.0
H3541 H 0.40946 0.84849 0.32593 0.0
H3542 H 0.43309 0.83797 0.31827 0.0
H3543 H 0.42022 0.78414 0.33625 0.0
H3544 H 0.4169 0.76894 0.3236 0.0
H3545 H 0.40162 0.77982 0.32954 0.0
H3546 H 0.394 0.78537 0.3022 0.0
H3547 H 0.4092 0.77445 0.29618 0.0
H3548 H 0.40743 0.79339 0.2902 0.0
H3549 H 0.4545 0.82274 0.31033 0.0
H3550 H 0.47185 0.80413 0.30149 0.0
H3551 H 0.43712 0.77057 0.30275 0.0
C3552 C 0.39824 0.8123 0.32172 0.0
C3553 C 0.3972 0.8276 0.3248 0.0
C3554 C 0.40992 0.83678 0.32347 0.0
C3555 C 0.42342 0.83089 0.31923 0.0
C3556 C 0.42406 0.81577 0.31631 0.0
C3557 C 0.4118 0.8066 0.31741 0.0
C3558 C 0.41538 0.79081 0.31327 0.0
C3559 C 0.41341 0.78031 0.32645 0.0
C3560 C 0.40595 0.78571 0.29965 0.0
C3561 C 0.43158 0.79254 0.30966 0.0
C3562 C 0.43637 0.80701 0.31156 0.0
C3563 C 0.45085 0.81138 0.30876 0.0
C3564 C 0.46062 0.80072 0.30367 0.0
C3565 C 0.45591 0.78585 0.30134 0.0
C3566 C 0.44119 0.78175 0.30457 0.0
H3567 H 0.32564 0.92761 0.72896 0.0
H3568 H 0.30238 0.93596 0.68695 0.0
H3569 H 0.29035 0.95756 0.69795 0.0
H3570 H 0.29663 0.93835 0.75269 0.0
H3571 H 0.30922 0.94687 0.76618 0.0
H3572 H 0.3153 0.93169 0.75511 0.0
H3573 H 0.33718 0.94777 0.74615 0.0
H3574 H 0.3312 0.96298 0.75721 0.0
H3575 H 0.33346 0.96545 0.73764 0.0
H3576 H 0.28109 0.97891 0.71395 0.0
H3577 H 0.27641 0.99795 0.733 0.0
H3578 H 0.30687 0.97567 0.76356 0.0
C3579 C 0.31812 0.934 0.72197 0.0
C3580 C 0.31501 0.92999 0.70704 0.0
C3581 C 0.30483 0.9386 0.69847 0.0
C3582 C 0.29798 0.95097 0.7046 0.0
C3583 C 0.30143 0.95464 0.71933 0.0
C3584 C 0.31132 0.94638 0.72784 0.0
C3585 C 0.31356 0.95277 0.74323 0.0
C3586 C 0.30836 0.94176 0.75499 0.0
C3587 C 0.32981 0.95753 0.74622 0.0
C3588 C 0.3035 0.966 0.74205 0.0
C3589 C 0.29645 0.9669 0.72826 0.0
C3590 C 0.28658 0.97829 0.72478 0.0
C3591 C 0.28396 0.98904 0.73565 0.0
C3592 C 0.29133 0.98837 0.74973 0.0
C3593 C 0.30113 0.97661 0.75288 0.0
H3594 H 0.60286 0.82676 0.70462 0.0
H3595 H 0.61528 0.78651 0.68231 0.0
H3596 H 0.59328 0.77369 0.69202 0.0
H3597 H 0.59211 0.80963 0.73744 0.0
H3598 H 0.57709 0.8221 0.74045 0.0
H3599 H 0.59285 0.82829 0.73044 0.0
H3600 H 0.57548 0.83568 0.70824 0.0
H3601 H 0.55964 0.82948 0.7182 0.0
H3602 H 0.56287 0.82209 0.7001 0.0
H3603 H 0.57042 0.7649 0.70587 0.0
H3604 H 0.54967 0.76105 0.72275 0.0
H3605 H 0.55338 0.80705 0.73624 0.0
C3606 C 0.60101 0.81525 0.70173 0.0
C3607 C 0.61088 0.80765 0.69273 0.0
C3608 C 0.60782 0.79264 0.68905 0.0
C3609 C 0.59537 0.78525 0.69457 0.0
C3610 C 0.58605 0.79303 0.70368 0.0
C3611 C 0.58876 0.80773 0.70718 0.0
C3612 C 0.57765 0.8135 0.7178 0.0
C3613 C 0.58539 0.81867 0.73239 0.0
C3614 C 0.56836 0.82592 0.71065 0.0
C3615 C 0.56839 0.79969 0.72002 0.0
C3616 C 0.57323 0.788 0.71168 0.0
C3617 C 0.56651 0.77402 0.71235 0.0
C3618 C 0.55471 0.77193 0.72194 0.0
C3619 C 0.5499 0.78373 0.73082 0.0
C3620 C 0.55677 0.79778 0.72962 0.0
H3621 H 0.43098 0.22047 0.74547 0.0
H3622 H 0.44575 0.22827 0.70098 0.0
H3623 H 0.46978 0.23758 0.71131 0.0
H3624 H 0.4513 0.25236 0.76346 0.0
H3625 H 0.45546 0.24182 0.77999 0.0
H3626 H 0.43865 0.23806 0.76919 0.0
H3627 H 0.44603 0.21051 0.76694 0.0
H3628 H 0.4628 0.21421 0.77771 0.0
H3629 H 0.46371 0.20603 0.75959 0.0
H3630 H 0.49342 0.24273 0.72636 0.0
H3631 H 0.51433 0.24284 0.74471 0.0
H3632 H 0.4843 0.23196 0.77936 0.0
C3633 C 0.43918 0.22431 0.73788 0.0
C3634 C 0.43639 0.22365 0.72238 0.0
C3635 C 0.44747 0.22887 0.71288 0.0
C3636 C 0.4612 0.23415 0.71866 0.0
C3637 C 0.46368 0.23433 0.73398 0.0
C3638 C 0.45292 0.22963 0.74346 0.0
C3639 C 0.45875 0.22975 0.7594 0.0
C3640 C 0.45055 0.24118 0.76855 0.0
C3641 C 0.45777 0.2142 0.76631 0.0
C3642 C 0.47468 0.23453 0.75736 0.0
C3643 C 0.47725 0.23743 0.74265 0.0
C3644 C 0.49142 0.2409 0.73795 0.0
C3645 C 0.50327 0.24113 0.74849 0.0
C3646 C 0.5009 0.23798 0.76354 0.0
C3647 C 0.48637 0.2348 0.76798 0.0
H3648 H 0.70528 0.73075 0.10529 0.0
H3649 H 0.65823 0.73442 0.09443 0.0
H3650 H 0.66396 0.74767 0.07144 0.0
H3651 H 0.7161 0.76638 0.09155 0.0
H3652 H 0.73324 0.76003 0.08431 0.0
H3653 H 0.72547 0.75084 0.09996 0.0
H3654 H 0.72576 0.72584 0.08594 0.0
H3655 H 0.73353 0.73496 0.07025 0.0
H3656 H 0.7166 0.72431 0.06793 0.0
H3657 H 0.67475 0.76051 0.0496 0.0
H3658 H 0.68984 0.7719 0.03038 0.0
H3659 H 0.7299 0.75988 0.05534 0.0
C3660 C 0.69618 0.73422 0.09803 0.0
C3661 C 0.68128 0.73158 0.10174 0.0
C3662 C 0.66972 0.7365 0.09198 0.0
C3663 C 0.67286 0.74396 0.07883 0.0
C3664 C 0.68763 0.74642 0.07555 0.0
C3665 C 0.69911 0.7417 0.08485 0.0
C3666 C 0.71402 0.74581 0.07873 0.0
C3667 C 0.72272 0.7564 0.08927 0.0
C3668 C 0.72301 0.7319 0.07552 0.0
C3669 C 0.70912 0.75356 0.06453 0.0
C3670 C 0.69385 0.7538 0.06293 0.0
C3671 C 0.68672 0.76041 0.05076 0.0
C3672 C 0.6954 0.76695 0.03992 0.0
C3673 C 0.71109 0.76685 0.04129 0.0
C3674 C 0.71796 0.76002 0.05382 0.0
H3675 H 0.3198 0.716 0.09909 0.0
H3676 H 0.27745 0.69764 0.11173 0.0
H3677 H 0.26612 0.70585 0.08788 0.0
H3678 H 0.30524 0.74856 0.08243 0.0
H3679 H 0.31848 0.74908 0.068 0.0
H3680 H 0.32335 0.74073 0.08555 0.0
H3681 H 0.32985 0.71641 0.07218 0.0
H3682 H 0.32491 0.72467 0.05457 0.0
H3683 H 0.31617 0.70758 0.06 0.0
H3684 H 0.25919 0.7171 0.06264 0.0
H3685 H 0.25726 0.73126 0.03916 0.0
H3686 H 0.30397 0.7428 0.04394 0.0
C3687 C 0.30812 0.71373 0.09694 0.0
C3688 C 0.29957 0.70611 0.10737 0.0
C3689 C 0.28435 0.70323 0.10389 0.0
C3690 C 0.27778 0.70792 0.09036 0.0
C3691 C 0.28654 0.71548 0.0804 0.0
C3692 C 0.30138 0.7184 0.08358 0.0
C3693 C 0.30828 0.72726 0.07136 0.0
C3694 C 0.31418 0.7423 0.07719 0.0
C3695 C 0.32053 0.71845 0.0641 0.0
C3696 C 0.29497 0.72909 0.06089 0.0
C3697 C 0.28254 0.7221 0.06616 0.0
C3698 C 0.26888 0.72256 0.0584 0.0
C3699 C 0.26789 0.73058 0.04505 0.0
C3700 C 0.28044 0.73814 0.03971 0.0
C3701 C 0.29415 0.73716 0.0477 0.0
H3702 H 0.34161 0.31882 0.10957 0.0
H3703 H 0.31412 0.29489 0.13999 0.0
H3704 H 0.30421 0.27921 0.11934 0.0
H3705 H 0.3144 0.3201 0.08024 0.0
H3706 H 0.3274 0.3182 0.06573 0.0
H3707 H 0.33328 0.32648 0.08311 0.0
H3708 H 0.35427 0.30728 0.08598 0.0
H3709 H 0.34836 0.29886 0.06865 0.0
H3710 H 0.34974 0.2878 0.08523 0.0
H3711 H 0.29685 0.26657 0.09521 0.0
H3712 H 0.29037 0.25993 0.06926 0.0
H3713 H 0.32181 0.29291 0.05434 0.0
C3714 C 0.33364 0.31014 0.11186 0.0
C3715 C 0.32869 0.30794 0.12636 0.0
C3716 C 0.31803 0.29672 0.12894 0.0
C3717 C 0.31243 0.28771 0.11731 0.0
C3718 C 0.31752 0.29015 0.10313 0.0
C3719 C 0.32776 0.30122 0.10033 0.0
C3720 C 0.33048 0.30236 0.08392 0.0
C3721 C 0.32612 0.31769 0.0779 0.0
C3722 C 0.34668 0.29886 0.08076 0.0
C3723 C 0.32005 0.29034 0.07789 0.0
C3724 C 0.31289 0.28324 0.08918 0.0
C3725 C 0.30244 0.27201 0.0863 0.0
C3726 C 0.29889 0.26825 0.07149 0.0
C3727 C 0.3056 0.27585 0.05971 0.0
C3728 C 0.31655 0.28681 0.06306 0.0
H3729 H 0.71815 0.3042 0.12042 0.0
H3730 H 0.72551 0.34924 0.10543 0.0
H3731 H 0.73702 0.33967 0.08303 0.0
H3732 H 0.75199 0.28893 0.10704 0.0
H3733 H 0.74336 0.27157 0.10166 0.0
H3734 H 0.73625 0.28203 0.11674 0.0
H3735 H 0.71025 0.28195 0.10359 0.0
H3736 H 0.7173 0.27157 0.08843 0.0
H3737 H 0.7082 0.28894 0.08496 0.0
H3738 H 0.74692 0.32511 0.0618 0.0
H3739 H 0.75518 0.30675 0.04377 0.0
H3740 H 0.74124 0.27124 0.07265 0.0
C3741 C 0.72215 0.31207 0.11242 0.0
C3742 C 0.72091 0.3275 0.11472 0.0
C3743 C 0.72649 0.33739 0.10405 0.0
C3744 C 0.73296 0.33206 0.09123 0.0
C3745 C 0.7338 0.3168 0.08925 0.0
C3746 C 0.72861 0.30695 0.09959 0.0
C3747 C 0.73071 0.29108 0.09476 0.0
C3748 C 0.7412 0.28292 0.1057 0.0
C3749 C 0.71572 0.28291 0.09282 0.0
C3750 C 0.73779 0.29352 0.08002 0.0
C3751 C 0.73949 0.30843 0.07705 0.0
C3752 C 0.74572 0.31341 0.06406 0.0
C3753 C 0.75045 0.30287 0.0539 0.0
C3754 C 0.74894 0.2875 0.05675 0.0
C3755 C 0.74243 0.28286 0.07 0.0
H3756 H 0.73549 0.334 0.92894 0.0
H3757 H 0.71476 0.29326 0.91256 0.0
H3758 H 0.72695 0.27948 0.93296 0.0
H3759 H 0.77077 0.31752 0.94014 0.0
H3760 H 0.77337 0.32894 0.95639 0.0
H3761 H 0.76301 0.3358 0.94046 0.0
H3762 H 0.74067 0.34083 0.95682 0.0
H3763 H 0.75093 0.33394 0.97279 0.0
H3764 H 0.73309 0.32597 0.96761 0.0
H3765 H 0.74074 0.27006 0.9551 0.0
H3766 H 0.7561 0.26524 0.97754 0.0
H3767 H 0.76885 0.31174 0.97975 0.0
C3768 C 0.73363 0.32216 0.92957 0.0
C3769 C 0.72398 0.31477 0.91919 0.0
C3770 C 0.72179 0.29927 0.92051 0.0
C3771 C 0.72876 0.2913 0.93201 0.0
C3772 C 0.73801 0.29892 0.94212 0.0
C3773 C 0.74056 0.31397 0.94101 0.0
C3774 C 0.75106 0.31937 0.95344 0.0
C3775 C 0.7654 0.32578 0.94723 0.0
C3776 C 0.74348 0.3307 0.96325 0.0
C3777 C 0.75392 0.30499 0.9617 0.0
C3778 C 0.74624 0.29338 0.95493 0.0
C3779 C 0.74686 0.27904 0.96049 0.0
C3780 C 0.75562 0.27644 0.97329 0.0
C3781 C 0.76373 0.2881 0.98047 0.0
C3782 C 0.76284 0.30258 0.97453 0.0
H3783 H 0.71821 0.72588 0.90762 0.0
H3784 H 0.73515 0.68316 0.9215 0.0
H3785 H 0.74628 0.6947 0.94423 0.0
H3786 H 0.74898 0.74841 0.92217 0.0
H3787 H 0.73705 0.76308 0.92774 0.0
H3788 H 0.7317 0.75158 0.91211 0.0
H3789 H 0.70693 0.74499 0.92433 0.0
H3790 H 0.71219 0.75646 0.93996 0.0
H3791 H 0.70731 0.73729 0.94273 0.0
H3792 H 0.75451 0.71134 0.96649 0.0
H3793 H 0.75827 0.73094 0.98562 0.0
H3794 H 0.73482 0.76186 0.95681 0.0
C3795 C 0.72423 0.71888 0.91541 0.0
C3796 C 0.7257 0.70356 0.91275 0.0
C3797 C 0.73396 0.69494 0.92317 0.0
C3798 C 0.74028 0.7014 0.93617 0.0
C3799 C 0.73831 0.71651 0.93855 0.0
C3800 C 0.73049 0.72509 0.92838 0.0
C3801 C 0.72927 0.74088 0.93365 0.0
C3802 C 0.73723 0.75162 0.9233 0.0
C3803 C 0.71296 0.74515 0.93527 0.0
C3804 C 0.73736 0.73985 0.94854 0.0
C3805 C 0.7427 0.7258 0.9512 0.0
C3806 C 0.75039 0.72237 0.96446 0.0
C3807 C 0.7525 0.73356 0.97526 0.0
C3808 C 0.74676 0.7479 0.97277 0.0
C3809 C 0.73926 0.75099 0.95915 0.0
H3810 H 0.3459 0.72261 0.90902 0.0
H3811 H 0.30587 0.72122 0.88096 0.0
H3812 H 0.29233 0.73406 0.90027 0.0
H3813 H 0.32848 0.71521 0.94261 0.0
H3814 H 0.34016 0.72743 0.95381 0.0
H3815 H 0.34716 0.71925 0.93736 0.0
H3816 H 0.35364 0.7453 0.92732 0.0
H3817 H 0.34669 0.75357 0.94379 0.0
H3818 H 0.33942 0.75911 0.92582 0.0
H3819 H 0.28271 0.7455 0.92287 0.0
H3820 H 0.27749 0.75512 0.9476 0.0
H3821 H 0.32354 0.74918 0.96151 0.0
C3822 C 0.33436 0.72528 0.90687 0.0
C3823 C 0.32691 0.72092 0.89351 0.0
C3824 C 0.31174 0.72436 0.89117 0.0
C3825 C 0.30398 0.73171 0.90203 0.0
C3826 C 0.31154 0.7356 0.91518 0.0
C3827 C 0.32639 0.73258 0.91767 0.0
C3828 C 0.3316 0.73733 0.93313 0.0
C3829 C 0.33718 0.72401 0.94226 0.0
C3830 C 0.34355 0.74956 0.93247 0.0
C3831 C 0.3173 0.74326 0.93898 0.0
C3832 C 0.30592 0.74222 0.92838 0.0
C3833 C 0.29154 0.74645 0.93125 0.0
C3834 C 0.28866 0.75179 0.94538 0.0
C3835 C 0.30009 0.75284 0.95652 0.0
C3836 C 0.31463 0.74867 0.95317 0.0
H3837 H 0.32412 0.33771 0.9268 0.0
H3838 H 0.32219 0.29669 0.90178 0.0
H3839 H 0.31014 0.28422 0.92251 0.0
H3840 H 0.33233 0.32133 0.9622 0.0
H3841 H 0.32114 0.33395 0.97228 0.0
H3842 H 0.3293 0.33982 0.95534 0.0
H3843 H 0.30336 0.34683 0.94452 0.0
H3844 H 0.29511 0.34098 0.96143 0.0
H3845 H 0.28865 0.33315 0.94399 0.0
H3846 H 0.29842 0.27615 0.94578 0.0
H3847 H 0.28822 0.27275 0.97042 0.0
H3848 H 0.29803 0.31883 0.98082 0.0
C3849 C 0.32103 0.32614 0.92564 0.0
C3850 C 0.32413 0.31816 0.91267 0.0
C3851 C 0.3201 0.30298 0.91167 0.0
C3852 C 0.31317 0.29582 0.92335 0.0
C3853 C 0.31034 0.30397 0.93599 0.0
C3854 C 0.31416 0.31878 0.93725 0.0
C3855 C 0.31015 0.32486 0.9522 0.0
C3856 C 0.32406 0.33031 0.96102 0.0
C3857 C 0.29863 0.33719 0.95042 0.0
C3858 C 0.30352 0.31114 0.95915 0.0
C3859 C 0.30371 0.29925 0.94956 0.0
C3860 C 0.29828 0.28536 0.95343 0.0
C3861 C 0.29261 0.28352 0.96753 0.0
C3862 C 0.29245 0.29547 0.9777 0.0
C3863 C 0.2979 0.30949 0.97332 0.0
H3864 H 0.58925 0.69983 0.21003 0.0
H3865 H 0.6171 0.7385 0.21888 0.0
H3866 H 0.59857 0.74812 0.23573 0.0
H3867 H 0.55497 0.71897 0.20904 0.0
H3868 H 0.5447 0.70432 0.2177 0.0
H3869 H 0.56058 0.70001 0.2071 0.0
H3870 H 0.57237 0.68637 0.22974 0.0
H3871 H 0.55655 0.69071 0.24045 0.0
H3872 H 0.57491 0.69601 0.24713 0.0
H3873 H 0.57697 0.75381 0.25116 0.0
H3874 H 0.55285 0.75616 0.26278 0.0
H3875 H 0.53841 0.71423 0.24343 0.0
C3876 C 0.59148 0.71024 0.21566 0.0
C3877 C 0.60462 0.71842 0.21319 0.0
C3878 C 0.60707 0.73212 0.22054 0.0
C3879 C 0.59666 0.73761 0.23021 0.0
C3880 C 0.58382 0.72931 0.23238 0.0
C3881 C 0.58112 0.71597 0.22524 0.0
C3882 C 0.56603 0.70968 0.2289 0.0
C3883 C 0.55598 0.70816 0.21485 0.0
C3884 C 0.56756 0.69481 0.23704 0.0
C3885 C 0.56062 0.72164 0.23907 0.0
C3886 C 0.57115 0.73277 0.24105 0.0
C3887 C 0.56863 0.74518 0.24967 0.0
C3888 C 0.55486 0.74645 0.25617 0.0
C3889 C 0.54368 0.73544 0.25394 0.0
C3890 C 0.54676 0.72274 0.2455 0.0
H3891 H 0.29332 0.61042 0.19828 0.0
H3892 H 0.31163 0.63098 0.23847 0.0
H3893 H 0.30072 0.61097 0.25326 0.0
H3894 H 0.25854 0.5986 0.21363 0.0
H3895 H 0.25766 0.5815 0.20336 0.0
H3896 H 0.26692 0.59745 0.19589 0.0
H3897 H 0.29081 0.58221 0.19334 0.0
H3898 H 0.28162 0.56622 0.20079 0.0
H3899 H 0.29875 0.57293 0.20936 0.0
H3900 H 0.28824 0.58835 0.26374 0.0
H3901 H 0.27505 0.56488 0.26897 0.0
H3902 H 0.26411 0.55952 0.22217 0.0
C3903 C 0.29492 0.61084 0.2102 0.0
C3904 C 0.30345 0.62232 0.21715 0.0
C3905 C 0.3054 0.62223 0.2328 0.0
C3906 C 0.29913 0.61096 0.24133 0.0
C3907 C 0.29083 0.59984 0.23412 0.0
C3908 C 0.28868 0.59972 0.21891 0.0
C3909 C 0.27939 0.58641 0.21388 0.0
C3910 C 0.26476 0.59129 0.20624 0.0
C3911 C 0.28817 0.57635 0.20375 0.0
C3912 C 0.27673 0.57904 0.22863 0.0
C3913 C 0.28344 0.58696 0.24017 0.0
C3914 C 0.28291 0.5821 0.25479 0.0
C3915 C 0.27545 0.56874 0.25765 0.0
C3916 C 0.26853 0.56041 0.246 0.0
C3917 C 0.26909 0.56576 0.23132 0.0
H3918 H 0.41797 0.30039 0.21973 0.0
H3919 H 0.43115 0.34426 0.23511 0.0
H3920 H 0.45359 0.33377 0.24745 0.0
H3921 H 0.43165 0.27992 0.25198 0.0
H3922 H 0.43773 0.26466 0.24099 0.0
H3923 H 0.42218 0.27553 0.23459 0.0
H3924 H 0.43519 0.28091 0.21003 0.0
H3925 H 0.45072 0.27002 0.21632 0.0
H3926 H 0.45358 0.28893 0.21066 0.0
H3927 H 0.4757 0.31821 0.25691 0.0
H3928 H 0.49519 0.29944 0.2616 0.0
H3929 H 0.46716 0.26641 0.23931 0.0
C3930 C 0.42555 0.30785 0.22567 0.0
C3931 C 0.42276 0.32318 0.22639 0.0
C3932 C 0.43292 0.33245 0.23452 0.0
C3933 C 0.44573 0.32659 0.24154 0.0
C3934 C 0.44821 0.31143 0.24041 0.0
C3935 C 0.43834 0.30222 0.23267 0.0
C3936 C 0.44377 0.28648 0.23239 0.0
C3937 C 0.4332 0.27603 0.24047 0.0
C3938 C 0.44595 0.28129 0.2164 0.0
C3939 C 0.45841 0.28827 0.24089 0.0
C3940 C 0.46078 0.30266 0.24562 0.0
C3941 C 0.47387 0.30689 0.25332 0.0
C3942 C 0.48487 0.29616 0.25599 0.0
C3943 C 0.48272 0.28148 0.25081 0.0
C3944 C 0.46919 0.27754 0.24341 0.0
H3945 H 0.71177 0.43271 0.19407 0.0
H3946 H 0.69896 0.41497 0.23639 0.0
H3947 H 0.70708 0.43837 0.2486 0.0
H3948 H 0.74464 0.45071 0.20736 0.0
H3949 H 0.74263 0.46628 0.19501 0.0
H3950 H 0.73487 0.44854 0.18973 0.0
H3951 H 0.70906 0.46046 0.18563 0.0
H3952 H 0.71675 0.47823 0.19102 0.0
H3953 H 0.70116 0.47066 0.20049 0.0
H3954 H 0.71816 0.46365 0.25633 0.0
H3955 H 0.73151 0.48776 0.25867 0.0
H3956 H 0.73673 0.48827 0.21115 0.0
C3957 C 0.71068 0.43369 0.20592 0.0
C3958 C 0.70473 0.42196 0.21425 0.0
C3959 C 0.70333 0.42385 0.22972 0.0
C3960 C 0.70795 0.43709 0.23676 0.0
C3961 C 0.71387 0.44839 0.22819 0.0
C3962 C 0.71521 0.44678 0.21309 0.0
C3963 C 0.7224 0.46026 0.20638 0.0
C3964 C 0.737 0.4562 0.1992 0.0
C3965 C 0.7117 0.46785 0.19522 0.0
C3966 C 0.72515 0.46965 0.22007 0.0
C3967 C 0.7201 0.46274 0.23257 0.0
C3968 C 0.72204 0.4692 0.24657 0.0
C3969 C 0.72958 0.48292 0.2478 0.0
C3970 C 0.73513 0.48995 0.23511 0.0
C3971 C 0.73258 0.48326 0.22109 0.0
H3972 H 0.62078 0.31627 0.80836 0.0
H3973 H 0.60957 0.31591 0.85464 0.0
H3974 H 0.58556 0.30399 0.84798 0.0
H3975 H 0.58325 0.32376 0.79343 0.0
H3976 H 0.58508 0.31191 0.77758 0.0
H3977 H 0.6012 0.32105 0.78585 0.0
H3978 H 0.61403 0.29573 0.78915 0.0
H3979 H 0.59795 0.28652 0.78096 0.0
H3980 H 0.6049 0.28115 0.7991 0.0
H3981 H 0.56338 0.29109 0.83668 0.0
H3982 H 0.54406 0.27834 0.82132 0.0
H3983 H 0.56906 0.28723 0.7821 0.0
C3984 C 0.61317 0.31388 0.81705 0.0
C3985 C 0.61713 0.31696 0.83205 0.0
C3986 C 0.60692 0.31347 0.84311 0.0
C3987 C 0.5932 0.30677 0.83943 0.0
C3988 C 0.58975 0.30367 0.82461 0.0
C3989 C 0.59938 0.30715 0.81356 0.0
C3990 C 0.59303 0.30219 0.79854 0.0
C3991 C 0.59049 0.31552 0.78824 0.0
C3992 C 0.60308 0.29071 0.79153 0.0
C3993 C 0.57844 0.29524 0.80294 0.0
C3994 C 0.57679 0.29627 0.81803 0.0
C3995 C 0.56449 0.2903 0.82483 0.0
C3996 C 0.55358 0.28304 0.81599 0.0
C3997 C 0.55499 0.28179 0.80049 0.0
C3998 C 0.56759 0.28809 0.7939 0.0
H3999 H 0.73691 0.61203 0.8171 0.0
H4000 H 0.69339 0.60667 0.79557 0.0
H4001 H 0.70239 0.58528 0.78166 0.0
H4002 H 0.7584 0.6018 0.78619 0.0
H4003 H 0.77196 0.592 0.79741 0.0
H4004 H 0.76221 0.60727 0.80514 0.0
H4005 H 0.7534 0.5904 0.82637 0.0
H4006 H 0.76319 0.57512 0.81876 0.0
H4007 H 0.74366 0.57335 0.82192 0.0
H4008 H 0.71651 0.56392 0.77004 0.0
H4009 H 0.73396 0.54423 0.76317 0.0
H4010 H 0.7674 0.56339 0.79334 0.0
C4011 C 0.72917 0.60633 0.80958 0.0
C4012 C 0.71441 0.6112 0.80746 0.0
C4013 C 0.70482 0.60342 0.79727 0.0
C4014 C 0.70981 0.59117 0.78934 0.0
C4015 C 0.72443 0.58672 0.79172 0.0
C4016 C 0.73392 0.59405 0.80168 0.0
C4017 C 0.74897 0.58688 0.80262 0.0
C4018 C 0.7611 0.59763 0.79754 0.0
C4019 C 0.75251 0.58109 0.81835 0.0
C4020 C 0.74646 0.5743 0.79173 0.0
C4021 C 0.73231 0.5744 0.7854 0.0
C4022 C 0.72761 0.56375 0.77497 0.0
C4023 C 0.73759 0.55263 0.77108 0.0
C4024 C 0.75201 0.5522 0.77776 0.0
C4025 C 0.75643 0.5633 0.78809 0.0
H4026 H 0.43768 0.69656 0.80568 0.0
H4027 H 0.40553 0.724 0.78226 0.0
H4028 H 0.42543 0.73469 0.76732 0.0
H4029 H 0.46572 0.72418 0.80864 0.0
H4030 H 0.48088 0.71167 0.80645 0.0
H4031 H 0.46392 0.70507 0.81409 0.0
H4032 H 0.46176 0.68473 0.79389 0.0
H4033 H 0.4787 0.69136 0.78611 0.0
H4034 H 0.46198 0.68993 0.77465 0.0
H4035 H 0.44883 0.74311 0.75573 0.0
H4036 H 0.47429 0.75068 0.75003 0.0
H4037 H 0.4916 0.71852 0.7817 0.0
C4038 C 0.43486 0.70465 0.79723 0.0
C4039 C 0.4201 0.7094 0.79498 0.0
C4040 C 0.41679 0.72025 0.7841 0.0
C4041 C 0.42799 0.72628 0.77551 0.0
C4042 C 0.44246 0.72143 0.77803 0.0
C4043 C 0.44596 0.71097 0.78872 0.0
C4044 C 0.46256 0.70865 0.79009 0.0
C4045 C 0.46862 0.71264 0.80574 0.0
C4046 C 0.46648 0.69272 0.78594 0.0
C4047 C 0.46786 0.71961 0.77867 0.0
C4048 C 0.45606 0.72666 0.77166 0.0
C4049 C 0.45816 0.73761 0.76108 0.0
C4050 C 0.4727 0.74181 0.75789 0.0
C4051 C 0.48501 0.7352 0.76539 0.0
C4052 C 0.48247 0.7237 0.77566 0.0
H4053 H 0.33883 0.41792 0.79914 0.0
H4054 H 0.32003 0.4265 0.84181 0.0
H4055 H 0.30989 0.44993 0.83221 0.0
H4056 H 0.34968 0.45611 0.79196 0.0
H4057 H 0.34533 0.4548 0.77238 0.0
H4058 H 0.35114 0.43862 0.78257 0.0
H4059 H 0.32726 0.4247 0.77346 0.0
H4060 H 0.32136 0.44083 0.76327 0.0
H4061 H 0.30945 0.43265 0.77667 0.0
H4062 H 0.30093 0.47189 0.81782 0.0
H4063 H 0.29453 0.49149 0.7997 0.0
H4064 H 0.32023 0.46954 0.76683 0.0
C4065 C 0.33277 0.42479 0.80656 0.0
C4066 C 0.33016 0.42022 0.82124 0.0
C4067 C 0.32194 0.42953 0.83045 0.0
C4068 C 0.31623 0.44295 0.82514 0.0
C4069 C 0.31894 0.44703 0.81063 0.0
C4070 C 0.3271 0.4383 0.80149 0.0
C4071 C 0.32834 0.44527 0.78632 0.0
C4072 C 0.34459 0.44892 0.78312 0.0
C4073 C 0.32117 0.43527 0.77422 0.0
C4074 C 0.3195 0.45922 0.78834 0.0
C4075 C 0.31413 0.45997 0.80244 0.0
C4076 C 0.30516 0.47149 0.80678 0.0
C4077 C 0.30153 0.48252 0.79642 0.0
C4078 C 0.30694 0.48202 0.78194 0.0
C4079 C 0.31615 0.47028 0.77791 0.0
H4080 H 0.70889 0.62058 0.1765 0.0
H4081 H 0.70847 0.64427 0.21825 0.0
H4082 H 0.72382 0.62491 0.23008 0.0
H4083 H 0.70582 0.58457 0.19162 0.0
H4084 H 0.71802 0.57598 0.17893 0.0
H4085 H 0.70782 0.59216 0.17335 0.0
H4086 H 0.73231 0.60555 0.16702 0.0
H4087 H 0.7426 0.58938 0.17257 0.0
H4088 H 0.74708 0.60705 0.18093 0.0
H4089 H 0.73794 0.60268 0.23778 0.0
H4090 H 0.75012 0.57859 0.24098 0.0
H4091 H 0.74176 0.5689 0.19441 0.0
C4092 C 0.71224 0.62178 0.18807 0.0
C4093 C 0.70744 0.6339 0.19648 0.0
C4094 C 0.71186 0.63499 0.21165 0.0
C4095 C 0.72066 0.6241 0.21844 0.0
C4096 C 0.72502 0.6122 0.20993 0.0
C4097 C 0.72102 0.61095 0.19507 0.0
C4098 C 0.72671 0.59666 0.18868 0.0
C4099 C 0.71382 0.58676 0.1828 0.0
C4100 C 0.73784 0.59986 0.17658 0.0
C4101 C 0.73432 0.59001 0.20233 0.0
C4102 C 0.73325 0.59924 0.21442 0.0
C4103 C 0.7389 0.59537 0.22839 0.0
C4104 C 0.7457 0.58162 0.23012 0.0
C4105 C 0.7468 0.57185 0.21797 0.0
C4106 C 0.7412 0.57622 0.20384 0.0
H4107 H 0.73909 0.41184 0.8305 0.0
H4108 H 0.69453 0.42122 0.81359 0.0
H4109 H 0.70372 0.44411 0.80214 0.0
H4110 H 0.74896 0.44977 0.8397 0.0
H4111 H 0.76791 0.44799 0.83445 0.0
H4112 H 0.75794 0.43209 0.8411 0.0
H4113 H 0.76361 0.41777 0.81718 0.0
H4114 H 0.7736 0.43362 0.81045 0.0
H4115 H 0.75849 0.42565 0.79942 0.0
H4116 H 0.71767 0.46586 0.79226 0.0
H4117 H 0.7354 0.48533 0.78511 0.0
H4118 H 0.77079 0.46259 0.80916 0.0
C4119 C 0.73121 0.41875 0.82452 0.0
C4120 C 0.71606 0.41456 0.82289 0.0
C4121 C 0.70622 0.42392 0.81477 0.0
C4122 C 0.71132 0.43705 0.80831 0.0
C4123 C 0.72628 0.44079 0.81012 0.0
C4124 C 0.73608 0.43197 0.81807 0.0
C4125 C 0.7516 0.43863 0.81842 0.0
C4126 C 0.75691 0.44234 0.83436 0.0
C4127 C 0.76246 0.4283 0.81092 0.0
C4128 C 0.74898 0.45256 0.80939 0.0
C4129 C 0.73429 0.45354 0.80467 0.0
C4130 C 0.72919 0.46523 0.79591 0.0
C4131 C 0.73937 0.47619 0.79183 0.0
C4132 C 0.75448 0.47548 0.79654 0.0
C4133 C 0.75928 0.46352 0.80553 0.0
H4134 H 0.61149 0.70471 0.82545 0.0
H4135 H 0.64406 0.73293 0.80501 0.0
H4136 H 0.62396 0.74841 0.79427 0.0
H4137 H 0.58327 0.70614 0.79617 0.0
H4138 H 0.56812 0.70684 0.80857 0.0
H4139 H 0.58503 0.69774 0.81423 0.0
H4140 H 0.58735 0.71446 0.8375 0.0
H4141 H 0.57047 0.72365 0.83188 0.0
H4142 H 0.58724 0.7343 0.83535 0.0
H4143 H 0.60031 0.76029 0.7851 0.0
H4144 H 0.57474 0.76872 0.77944 0.0
H4145 H 0.55755 0.73388 0.80715 0.0
C4146 C 0.61432 0.71411 0.81863 0.0
C4147 C 0.62926 0.71762 0.81593 0.0
C4148 C 0.63265 0.7301 0.80717 0.0
C4149 C 0.62132 0.73892 0.80101 0.0
C4150 C 0.60668 0.73522 0.80392 0.0
C4151 C 0.60315 0.7232 0.81263 0.0
C4152 C 0.58655 0.72196 0.81444 0.0
C4153 C 0.58038 0.7073 0.80796 0.0
C4154 C 0.58268 0.7237 0.83076 0.0
C4155 C 0.5813 0.73508 0.80529 0.0
C4156 C 0.59309 0.7425 0.79921 0.0
C4157 C 0.591 0.75465 0.7899 0.0
C4158 C 0.57648 0.75933 0.78671 0.0
C4159 C 0.56425 0.75203 0.79297 0.0
C4160 C 0.56674 0.7398 0.80244 0.0
H4161 H 0.32434 0.60228 0.82211 0.0
H4162 H 0.30611 0.63358 0.79022 0.0
H4163 H 0.28929 0.61405 0.77985 0.0
H4164 H 0.32515 0.57219 0.79729 0.0
H4165 H 0.32056 0.55836 0.81079 0.0
H4166 H 0.32993 0.57517 0.81661 0.0
H4167 H 0.3091 0.58029 0.83484 0.0
H4168 H 0.29959 0.56353 0.82895 0.0
H4169 H 0.29012 0.58097 0.82797 0.0
H4170 H 0.27529 0.59093 0.77231 0.0
H4171 H 0.26712 0.56544 0.76627 0.0
H4172 H 0.29509 0.54892 0.80258 0.0
C4173 C 0.31663 0.60503 0.81309 0.0
C4174 C 0.3164 0.61941 0.80699 0.0
C4175 C 0.30643 0.62258 0.79499 0.0
C4176 C 0.29678 0.61161 0.78913 0.0
C4177 C 0.29729 0.59751 0.79536 0.0
C4178 C 0.30707 0.59415 0.80698 0.0
C4179 C 0.30632 0.57784 0.81079 0.0
C4180 C 0.32138 0.57046 0.80874 0.0
C4181 C 0.30096 0.57553 0.82657 0.0
C4182 C 0.2948 0.5725 0.79933 0.0
C4183 C 0.28953 0.58407 0.79073 0.0
C4184 C 0.27927 0.58179 0.77903 0.0
C4185 C 0.27464 0.56725 0.77572 0.0
C4186 C 0.28044 0.55514 0.78395 0.0
C4187 C 0.29035 0.55792 0.79615 0.0
H4188 H 0.41409 0.31638 0.79792 0.0
H4189 H 0.43506 0.32211 0.84155 0.0
H4190 H 0.45841 0.31241 0.83231 0.0
H4191 H 0.43219 0.28212 0.78935 0.0
H4192 H 0.43409 0.28652 0.77006 0.0
H4193 H 0.41898 0.29403 0.78001 0.0
H4194 H 0.42703 0.32055 0.77261 0.0
H4195 H 0.44218 0.31312 0.76266 0.0
H4196 H 0.44574 0.32678 0.77692 0.0
H4197 H 0.47949 0.30271 0.81843 0.0
H4198 H 0.49697 0.29262 0.80101 0.0
H4199 H 0.46234 0.29215 0.76633 0.0
C4200 C 0.42363 0.31564 0.80548 0.0
C4201 C 0.42277 0.31997 0.82046 0.0
C4202 C 0.43543 0.3187 0.83008 0.0
C4203 C 0.44876 0.31328 0.82492 0.0
C4204 C 0.44923 0.3091 0.81012 0.0
C4205 C 0.43701 0.31011 0.80054 0.0
C4206 C 0.44051 0.30459 0.78521 0.0
C4207 C 0.43087 0.29101 0.78091 0.0
C4208 C 0.43876 0.31701 0.77367 0.0
C4209 C 0.45663 0.30043 0.78769 0.0
C4210 C 0.46141 0.30317 0.80213 0.0
C4211 C 0.47585 0.30038 0.80712 0.0
C4212 C 0.48569 0.29452 0.79711 0.0
C4213 C 0.48107 0.29138 0.78226 0.0
C4214 C 0.46631 0.29448 0.77753 0.0
H4215 H 0.32172 0.40887 0.23854 0.0
H4216 H 0.31619 0.42315 0.19285 0.0
H4217 H 0.30416 0.44593 0.20112 0.0
H4218 H 0.28712 0.42244 0.25077 0.0
H4219 H 0.29451 0.42817 0.26869 0.0
H4220 H 0.30279 0.41305 0.25917 0.0
H4221 H 0.32831 0.42647 0.26113 0.0
H4222 H 0.3201 0.44165 0.27065 0.0
H4223 H 0.33009 0.44504 0.25407 0.0
H4224 H 0.2926 0.46724 0.21441 0.0
H4225 H 0.28198 0.4851 0.23165 0.0
H4226 H 0.29529 0.45706 0.26869 0.0
C4227 C 0.3181 0.41684 0.23027 0.0
C4228 C 0.3199 0.41415 0.21501 0.0
C4229 C 0.31478 0.42481 0.20457 0.0
C4230 C 0.30802 0.43785 0.20917 0.0
C4231 C 0.30643 0.44014 0.22427 0.0
C4232 C 0.3113 0.42991 0.23467 0.0
C4233 C 0.30807 0.43494 0.25021 0.0
C4234 C 0.29749 0.424 0.25764 0.0
C4235 C 0.3225 0.43716 0.25956 0.0
C4236 C 0.30061 0.44958 0.24694 0.0
C4237 C 0.29979 0.45239 0.23191 0.0
C4238 C 0.29321 0.46516 0.2262 0.0
C4239 C 0.28721 0.47525 0.2361 0.0
C4240 C 0.2878 0.47255 0.25155 0.0
C4241 C 0.2947 0.45954 0.25697 0.0
H4242 H 0.61705 0.31526 0.21448 0.0
H4243 H 0.60443 0.32128 0.16811 0.0
H4244 H 0.58113 0.30743 0.17178 0.0
H4245 H 0.60326 0.27848 0.21751 0.0
H4246 H 0.59673 0.28068 0.23597 0.0
H4247 H 0.61209 0.29175 0.22996 0.0
H4248 H 0.5982 0.31566 0.23654 0.0
H4249 H 0.58282 0.30465 0.24265 0.0
H4250 H 0.57983 0.31866 0.2287 0.0
H4251 H 0.55972 0.29217 0.18017 0.0
H4252 H 0.54131 0.27688 0.19289 0.0
H4253 H 0.56788 0.28049 0.23377 0.0
C4254 C 0.60926 0.31386 0.20517 0.0
C4255 C 0.61255 0.31932 0.191 0.0
C4256 C 0.60219 0.31706 0.17903 0.0
C4257 C 0.58891 0.30927 0.18101 0.0
C4258 C 0.58611 0.30382 0.19505 0.0
C4259 C 0.59594 0.30604 0.20695 0.0
C4260 C 0.59044 0.2986 0.22077 0.0
C4261 C 0.60127 0.28667 0.22638 0.0
C4262 C 0.58765 0.31008 0.23288 0.0
C4263 C 0.57604 0.29178 0.21473 0.0
C4264 C 0.57375 0.29495 0.19989 0.0
C4265 C 0.56137 0.28963 0.19181 0.0
C4266 C 0.55102 0.28085 0.19911 0.0
C4267 C 0.5531 0.27744 0.21435 0.0
C4268 C 0.56582 0.28304 0.22219 0.0
H4269 H 0.39189 0.73754 0.21143 0.0
H4270 H 0.41573 0.70184 0.19141 0.0
H4271 H 0.43955 0.71374 0.19935 0.0
H4272 H 0.41813 0.76759 0.20352 0.0
H4273 H 0.41592 0.7765 0.22112 0.0
H4274 H 0.4008 0.76594 0.21268 0.0
H4275 H 0.39929 0.74987 0.23634 0.0
H4276 H 0.41431 0.76044 0.24486 0.0
H4277 H 0.41565 0.74062 0.2434 0.0
H4278 H 0.46075 0.7291 0.21022 0.0
H4279 H 0.4776 0.74519 0.22533 0.0
H4280 H 0.43995 0.77046 0.23919 0.0
C4281 C 0.40215 0.73237 0.20855 0.0
C4282 C 0.40202 0.71884 0.20071 0.0
C4283 C 0.41563 0.7122 0.19742 0.0
C4284 C 0.42919 0.71894 0.20179 0.0
C4285 C 0.42896 0.73226 0.20956 0.0
C4286 C 0.41579 0.73884 0.21305 0.0
C4287 C 0.41861 0.7525 0.22253 0.0
C4288 C 0.41303 0.76646 0.21448 0.0
C4289 C 0.41155 0.75074 0.23768 0.0
C4290 C 0.43539 0.75247 0.22401 0.0
C4291 C 0.44116 0.74086 0.21623 0.0
C4292 C 0.45635 0.73828 0.2163 0.0
C4293 C 0.46586 0.74754 0.22488 0.0
C4294 C 0.46016 0.75915 0.23346 0.0
C4295 C 0.44472 0.76178 0.2327 0.0
loop_
_geom_bond_atom_site_label_1
_geom_bond_atom_site_label_2
_geom_bond_distance
_geom_bond_site_symmetry_2
_ccdc_geom_bond_type
C0 C1 1.384 . S
C0 H13 0.947 . S
C0 C35 1.382 . S
C1 C0 1.384 . S
C1 C2 1.378 . S
C2 C1 1.378 . S
C2 C3 1.378 . S
C2 H14 0.952 . S
C3 C2 1.378 . S
C3 H15 0.950 . S
C3 C34 1.383 . S
H4 C23 0.947 . S
H5 C24 0.946 . S
H6 C26 0.953 . S
H7 C27 0.945 . S
H8 C29 0.952 . S
H9 C30 0.949 . S
H10 C32 0.950 . S
H11 C33 0.948 . S
H12 C35 0.951 . S
H13 C0 0.947 . S
H14 C2 0.952 . S
H15 C3 0.950 . S
N16 C19 1.382 . S
N16 C21 1.363 . S
N17 C19 1.371 . S
N17 C20 1.372 . S
N18 C20 1.361 . S
N18 C21 1.377 . S
C19 N16 1.382 . S
C19 N17 1.371 . S
C19 C22 1.480 . S
C20 N17 1.372 . S
C20 N18 1.361 . S
C20 C28 1.457 . S
C21 N16 1.363 . S
C21 N18 1.377 . S
C21 C34 1.479 . S
C22 C19 1.480 . S
C22 C23 1.383 . S
C22 C27 1.385 . S
C23 H4 0.947 . S
C23 C22 1.383 . S
C23 C24 1.388 . S
C24 H5 0.946 . S
C24 C23 1.388 . S
C24 C25 1.384 . S
C25 C24 1.384 . S
C25 C26 1.377 . S
C26 H6 0.953 . S
C26 C25 1.377 . S
C26 C27 1.369 . S
C27 H7 0.945 . S
C27 C22 1.385 . S
C27 C26 1.369 . S
C28 C20 1.457 . S
C28 C29 1.372 . S
C28 C33 1.364 . S
C29 H8 0.952 . S
C29 C28 1.372 . S
C29 C30 1.389 . S
C30 H9 0.949 . S
C30 C29 1.389 . S
C30 C31 1.387 . S
C31 C30 1.387 . S
C31 C32 1.372 . S
C32 H10 0.950 . S
C32 C31 1.372 . S
C32 C33 1.379 . S
C33 H11 0.948 . S
C33 C28 1.364 . S
C33 C32 1.379 . S
C34 C3 1.383 . S
C34 C21 1.479 . S
C34 C35 1.398 . S
C35 C0 1.382 . S
C35 H12 0.951 . S
C35 C34 1.398 . S
C36 C37 1.384 . S
C36 H49 0.947 . S
C36 C71 1.382 . S
C37 C36 1.384 . S
C37 C38 1.378 . S
C38 C37 1.378 . S
C38 C39 1.378 . S
C38 H50 0.952 . S
C39 C38 1.378 . S
C39 H51 0.950 . S
C39 C70 1.383 . S
H40 C59 0.947 . S
H41 C60 0.946 . S
H42 C62 0.953 . S
H43 C63 0.945 . S
H44 C65 0.952 . S
H45 C66 0.949 . S
H46 C68 0.950 . S
H47 C69 0.948 . S
H48 C71 0.951 . S
H49 C36 0.947 . S
H50 C38 0.952 . S
H51 C39 0.950 . S
N52 C55 1.382 . S
N52 C57 1.363 . S
N53 C55 1.371 . S
N53 C56 1.372 . S
N54 C56 1.361 . S
N54 C57 1.377 . S
C55 N52 1.382 . S
C55 N53 1.371 . S
C55 C58 1.480 . S
C56 N53 1.372 . S
C56 N54 1.361 . S
C56 C64 1.457 . S
C57 N52 1.363 . S
C57 N54 1.377 . S
C57 C70 1.479 . S
C58 C55 1.480 . S
C58 C59 1.383 . S
C58 C63 1.385 . S
C59 H40 0.947 . S
C59 C58 1.383 . S
C59 C60 1.388 . S
C60 H41 0.946 . S
C60 C59 1.388 . S
C60 C61 1.384 . S
C61 C60 1.384 . S
C61 C62 1.377 . S
C62 H42 0.953 . S
C62 C61 1.377 . S
C62 C63 1.369 . S
C63 H43 0.945 . S
C63 C58 1.385 . S
C63 C62 1.369 . S
C64 C56 1.457 . S
C64 C65 1.372 . S
C64 C69 1.364 . S
C65 H44 0.952 . S
C65 C64 1.372 . S
C65 C66 1.389 . S
C66 H45 0.949 . S
C66 C65 1.389 . S
C66 C67 1.387 . S
C67 C66 1.387 . S
C67 C68 1.372 . S
C68 H46 0.950 . S
C68 C67 1.372 . S
C68 C69 1.379 . S
C69 H47 0.948 . S
C69 C64 1.364 . S
C69 C68 1.379 . S
C70 C39 1.383 . S
C70 C57 1.479 . S
C70 C71 1.398 . S
C71 C36 1.382 . S
C71 H48 0.951 . S
C71 C70 1.398 . S
C72 C73 1.384 . S
C72 H85 0.947 . S
C72 C107 1.382 . S
C73 C72 1.384 . S
C73 C74 1.378 . S
C74 C73 1.378 . S
C74 C75 1.378 . S
C74 H86 0.952 . S
C75 C74 1.378 . S
C75 H87 0.950 . S
C75 C106 1.383 . S
H76 C95 0.947 . S
H77 C96 0.946 . S
H78 C98 0.953 . S
H79 C99 0.945 . S
H80 C101 0.952 . S
H81 C102 0.949 . S
H82 C104 0.950 . S
H83 C105 0.948 . S
H84 C107 0.951 . S
H85 C72 0.947 . S
H86 C74 0.952 . S
H87 C75 0.950 . S
N88 C91 1.382 . S
N88 C93 1.363 . S
N89 C91 1.371 . S
N89 C92 1.372 . S
N90 C92 1.361 . S
N90 C93 1.377 . S
C91 N88 1.382 . S
C91 N89 1.371 . S
C91 C94 1.480 . S
C92 N89 1.372 . S
C92 N90 1.361 . S
C92 C100 1.457 . S
C93 N88 1.363 . S
C93 N90 1.377 . S
C93 C106 1.479 . S
C94 C91 1.480 . S
C94 C95 1.383 . S
C94 C99 1.385 . S
C95 H76 0.947 . S
C95 C94 1.383 . S
C95 C96 1.388 . S
C96 H77 0.946 . S
C96 C95 1.388 . S
C96 C97 1.384 . S
C97 C96 1.384 . S
C97 C98 1.377 . S
C98 H78 0.953 . S
C98 C97 1.377 . S
C98 C99 1.369 . S
C99 H79 0.945 . S
C99 C94 1.385 . S
C99 C98 1.369 . S
C100 C92 1.457 . S
C100 C101 1.372 . S
C100 C105 1.364 . S
C101 H80 0.952 . S
C101 C100 1.372 . S
C101 C102 1.389 . S
C102 H81 0.949 . S
C102 C101 1.389 . S
C102 C103 1.387 . S
C103 C102 1.387 . S
C103 C104 1.372 . S
C104 H82 0.950 . S
C104 C103 1.372 . S
C104 C105 1.379 . S
C105 H83 0.948 . S
C105 C100 1.364 . S
C105 C104 1.379 . S
C106 C75 1.383 . S
C106 C93 1.479 . S
C106 C107 1.398 . S
C107 C72 1.382 . S
C107 H84 0.951 . S
C107 C106 1.398 . S
C108 C109 1.384 . S
C108 H121 0.947 . S
C108 C143 1.382 . S
C109 C108 1.384 . S
C109 C110 1.378 . S
C110 C109 1.378 . S
C110 C111 1.378 . S
C110 H122 0.952 . S
C111 C110 1.378 . S
C111 H123 0.950 . S
C111 C142 1.383 . S
H112 C131 0.947 . S
H113 C132 0.946 . S
H114 C134 0.953 . S
H115 C135 0.945 . S
H116 C137 0.952 . S
H117 C138 0.949 . S
H118 C140 0.950 . S
H119 C141 0.948 . S
H120 C143 0.951 . S
H121 C108 0.947 . S
H122 C110 0.952 . S
H123 C111 0.950 . S
N124 C127 1.382 . S
N124 C129 1.363 . S
N125 C127 1.371 . S
N125 C128 1.372 . S
N126 C128 1.361 . S
N126 C129 1.377 . S
C127 N124 1.382 . S
C127 N125 1.371 . S
C127 C130 1.480 . S
C128 N125 1.372 . S
C128 N126 1.361 . S
C128 C136 1.457 . S
C129 N124 1.363 . S
C129 N126 1.377 . S
C129 C142 1.479 . S
C130 C127 1.480 . S
C130 C131 1.383 . S
C130 C135 1.385 . S
C131 H112 0.947 . S
C131 C130 1.383 . S
C131 C132 1.388 . S
C132 H113 0.946 . S
C132 C131 1.388 . S
C132 C133 1.384 . S
C133 C132 1.384 . S
C133 C134 1.377 . S
C134 H114 0.953 . S
C134 C133 1.377 . S
C134 C135 1.369 . S
C135 H115 0.945 . S
C135 C130 1.385 . S
C135 C134 1.369 . S
C136 C128 1.457 . S
C136 C137 1.372 . S
C136 C141 1.364 . S
C137 H116 0.952 . S
C137 C136 1.372 . S
C137 C138 1.389 . S
C138 H117 0.949 . S
C138 C137 1.389 . S
C138 C139 1.387 . S
C139 C138 1.387 . S
C139 C140 1.372 . S
C140 H118 0.950 . S
C140 C139 1.372 . S
C140 C141 1.379 . S
C141 H119 0.948 . S
C141 C136 1.364 . S
C141 C140 1.379 . S
C142 C111 1.383 . S
C142 C129 1.479 . S
C142 C143 1.398 . S
C143 C108 1.382 . S
C143 H120 0.951 . S
C143 C142 1.398 . S
C144 C145 1.384 . S
C144 H157 0.947 . S
C144 C179 1.382 . S
C145 C144 1.384 . S
C145 C146 1.378 . S
C146 C145 1.378 . S
C146 C147 1.378 . S
C146 H158 0.952 . S
C147 C146 1.378 . S
C147 H159 0.950 . S
C147 C178 1.383 . S
H148 C167 0.947 . S
H149 C168 0.946 . S
H150 C170 0.953 . S
H151 C171 0.945 . S
H152 C173 0.952 . S
H153 C174 0.949 . S
H154 C176 0.950 . S
H155 C177 0.948 . S
H156 C179 0.951 . S
H157 C144 0.947 . S
H158 C146 0.952 . S
H159 C147 0.950 . S
N160 C163 1.382 . S
N160 C165 1.363 . S
N161 C163 1.371 . S
N161 C164 1.372 . S
N162 C164 1.361 . S
N162 C165 1.377 . S
C163 N160 1.382 . S
C163 N161 1.371 . S
C163 C166 1.480 . S
C164 N161 1.372 . S
C164 N162 1.361 . S
C164 C172 1.457 . S
C165 N160 1.363 . S
C165 N162 1.377 . S
C165 C178 1.479 . S
C166 C163 1.480 . S
C166 C167 1.383 . S
C166 C171 1.385 . S
C167 H148 0.947 . S
C167 C166 1.383 . S
C167 C168 1.388 . S
C168 H149 0.946 . S
C168 C167 1.388 . S
C168 C169 1.384 . S
C169 C168 1.384 . S
C169 C170 1.377 . S
C170 H150 0.953 . S
C170 C169 1.377 . S
C170 C171 1.369 . S
C171 H151 0.945 . S
C171 C166 1.385 . S
C171 C170 1.369 . S
C172 C164 1.457 . S
C172 C173 1.372 . S
C172 C177 1.364 . S
C173 H152 0.952 . S
C173 C172 1.372 . S
C173 C174 1.389 . S
C174 H153 0.949 . S
C174 C173 1.389 . S
C174 C175 1.387 . S
C175 C174 1.387 . S
C175 C176 1.372 . S
C176 H154 0.950 . S
C176 C175 1.372 . S
C176 C177 1.379 . S
C177 H155 0.948 . S
C177 C172 1.364 . S
C177 C176 1.379 . S
C178 C147 1.383 . S
C178 C165 1.479 . S
C178 C179 1.398 . S
C179 C144 1.382 . S
C179 H156 0.951 . S
C179 C178 1.398 . S
C180 C181 1.384 . S
C180 H193 0.947 . S
C180 C215 1.382 . S
C181 C180 1.384 . S
C181 C182 1.378 . S
C182 C181 1.378 . S
C182 C183 1.378 . S
C182 H194 0.952 . S
C183 C182 1.378 . S
C183 H195 0.950 . S
C183 C214 1.383 . S
H184 C203 0.947 . S
H185 C204 0.946 . S
H186 C206 0.953 . S
H187 C207 0.945 . S
H188 C209 0.952 . S
H189 C210 0.949 . S
H190 C212 0.950 . S
H191 C213 0.948 . S
H192 C215 0.951 . S
H193 C180 0.947 . S
H194 C182 0.952 . S
H195 C183 0.950 . S
N196 C199 1.382 . S
N196 C201 1.363 . S
N197 C199 1.371 . S
N197 C200 1.372 . S
N198 C200 1.361 . S
N198 C201 1.377 . S
C199 N196 1.382 . S
C199 N197 1.371 . S
C199 C202 1.480 . S
C200 N197 1.372 . S
C200 N198 1.361 . S
C200 C208 1.457 . S
C201 N196 1.363 . S
C201 N198 1.377 . S
C201 C214 1.479 . S
C202 C199 1.480 . S
C202 C203 1.383 . S
C202 C207 1.385 . S
C203 H184 0.947 . S
C203 C202 1.383 . S
C203 C204 1.388 . S
C204 H185 0.946 . S
C204 C203 1.388 . S
C204 C205 1.384 . S
C205 C204 1.384 . S
C205 C206 1.377 . S
C206 H186 0.953 . S
C206 C205 1.377 . S
C206 C207 1.369 . S
C207 H187 0.945 . S
C207 C202 1.385 . S
C207 C206 1.369 . S
C208 C200 1.457 . S
C208 C209 1.372 . S
C208 C213 1.364 . S
C209 H188 0.952 . S
C209 C208 1.372 . S
C209 C210 1.389 . S
C210 H189 0.949 . S
C210 C209 1.389 . S
C210 C211 1.387 . S
C211 C210 1.387 . S
C211 C212 1.372 . S
C212 H190 0.950 . S
C212 C211 1.372 . S
C212 C213 1.379 . S
C213 H191 0.948 . S
C213 C208 1.364 . S
C213 C212 1.379 . S
C214 C183 1.383 . S
C214 C201 1.479 . S
C214 C215 1.398 . S
C215 C180 1.382 . S
C215 H192 0.951 . S
C215 C214 1.398 . S
C216 C217 1.384 . S
C216 H229 0.947 . S
C216 C251 1.382 . S
C217 C216 1.384 . S
C217 C218 1.378 . S
C218 C217 1.378 . S
C218 C219 1.378 . S
C218 H230 0.952 . S
C219 C218 1.378 . S
C219 H231 0.950 . S
C219 C250 1.383 . S
H220 C239 0.947 . S
H221 C240 0.946 . S
H222 C242 0.953 . S
H223 C243 0.945 . S
H224 C245 0.952 . S
H225 C246 0.949 . S
H226 C248 0.950 . S
H227 C249 0.948 . S
H228 C251 0.951 . S
H229 C216 0.947 . S
H230 C218 0.952 . S
H231 C219 0.950 . S
N232 C235 1.382 . S
N232 C237 1.363 . S
N233 C235 1.371 . S
N233 C236 1.372 . S
N234 C236 1.361 . S
N234 C237 1.377 . S
C235 N232 1.382 . S
C235 N233 1.371 . S
C235 C238 1.480 . S
C236 N233 1.372 . S
C236 N234 1.361 . S
C236 C244 1.457 . S
C237 N232 1.363 . S
C237 N234 1.377 . S
C237 C250 1.479 . S
C238 C235 1.480 . S
C238 C239 1.383 . S
C238 C243 1.385 . S
C239 H220 0.947 . S
C239 C238 1.383 . S
C239 C240 1.388 . S
C240 H221 0.946 . S
C240 C239 1.388 . S
C240 C241 1.384 . S
C241 C240 1.384 . S
C241 C242 1.377 . S
C242 H222 0.953 . S
C242 C241 1.377 . S
C242 C243 1.369 . S
C243 H223 0.945 . S
C243 C238 1.385 . S
C243 C242 1.369 . S
C244 C236 1.457 . S
C244 C245 1.372 . S
C244 C249 1.364 . S
C245 H224 0.952 . S
C245 C244 1.372 . S
C245 C246 1.389 . S
C246 H225 0.949 . S
C246 C245 1.389 . S
C246 C247 1.387 . S
C247 C246 1.387 . S
C247 C248 1.372 . S
C248 H226 0.950 . S
C248 C247 1.372 . S
C248 C249 1.379 . S
C249 H227 0.948 . S
C249 C244 1.364 . S
C249 C248 1.379 . S
C250 C219 1.383 . S
C250 C237 1.479 . S
C250 C251 1.398 . S
C251 C216 1.382 . S
C251 H228 0.951 . S
C251 C250 1.398 . S
C252 C253 1.384 . S
C252 H265 0.947 . S
C252 C287 1.382 . S
C253 C252 1.384 . S
C253 C254 1.378 . S
C254 C253 1.378 . S
C254 C255 1.378 . S
C254 H266 0.952 . S
C255 C254 1.378 . S
C255 H267 0.950 . S
C255 C286 1.383 . S
H256 C275 0.947 . S
H257 C276 0.946 . S
H258 C278 0.953 . S
H259 C279 0.945 . S
H260 C281 0.952 . S
H261 C282 0.949 . S
H262 C284 0.950 . S
H263 C285 0.948 . S
H264 C287 0.951 . S
H265 C252 0.947 . S
H266 C254 0.952 . S
H267 C255 0.950 . S
N268 C271 1.382 . S
N268 C273 1.363 . S
N269 C271 1.371 . S
N269 C272 1.372 . S
N270 C272 1.361 . S
N270 C273 1.377 . S
C271 N268 1.382 . S
C271 N269 1.371 . S
C271 C274 1.480 . S
C272 N269 1.372 . S
C272 N270 1.361 . S
C272 C280 1.457 . S
C273 N268 1.363 . S
C273 N270 1.377 . S
C273 C286 1.479 . S
C274 C271 1.480 . S
C274 C275 1.383 . S
C274 C279 1.385 . S
C275 H256 0.947 . S
C275 C274 1.383 . S
C275 C276 1.388 . S
C276 H257 0.946 . S
C276 C275 1.388 . S
C276 C277 1.384 . S
C277 C276 1.384 . S
C277 C278 1.377 . S
C278 H258 0.953 . S
C278 C277 1.377 . S
C278 C279 1.369 . S
C279 H259 0.945 . S
C279 C274 1.385 . S
C279 C278 1.369 . S
C280 C272 1.457 . S
C280 C281 1.372 . S
C280 C285 1.364 . S
C281 H260 0.952 . S
C281 C280 1.372 . S
C281 C282 1.389 . S
C282 H261 0.949 . S
C282 C281 1.389 . S
C282 C283 1.387 . S
C283 C282 1.387 . S
C283 C284 1.372 . S
C284 H262 0.950 . S
C284 C283 1.372 . S
C284 C285 1.379 . S
C285 H263 0.948 . S
C285 C280 1.364 . S
C285 C284 1.379 . S
C286 C255 1.383 . S
C286 C273 1.479 . S
C286 C287 1.398 . S
C287 C252 1.382 . S
C287 H264 0.951 . S
C287 C286 1.398 . S
C288 C289 1.384 . S
C288 H301 0.947 . S
C288 C323 1.382 . S
C289 C288 1.384 . S
C289 C290 1.378 . S
C290 C289 1.378 . S
C290 C291 1.378 . S
C290 H302 0.952 . S
C291 C290 1.378 . S
C291 H303 0.950 . S
C291 C322 1.383 . S
H292 C311 0.947 . S
H293 C312 0.946 . S
H294 C314 0.953 . S
H295 C315 0.945 . S
H296 C317 0.952 . S
H297 C318 0.949 . S
H298 C320 0.950 . S
H299 C321 0.948 . S
H300 C323 0.951 . S
H301 C288 0.947 . S
H302 C290 0.952 . S
H303 C291 0.950 . S
N304 C307 1.382 . S
N304 C309 1.363 . S
N305 C307 1.371 . S
N305 C308 1.372 . S
N306 C308 1.361 . S
N306 C309 1.377 . S
C307 N304 1.382 . S
C307 N305 1.371 . S
C307 C310 1.480 . S
C308 N305 1.372 . S
C308 N306 1.361 . S
C308 C316 1.457 . S
C309 N304 1.363 . S
C309 N306 1.377 . S
C309 C322 1.479 . S
C310 C307 1.480 . S
C310 C311 1.383 . S
C310 C315 1.385 . S
C311 H292 0.947 . S
C311 C310 1.383 . S
C311 C312 1.388 . S
C312 H293 0.946 . S
C312 C311 1.388 . S
C312 C313 1.384 . S
C313 C312 1.384 . S
C313 C314 1.377 . S
C314 H294 0.953 . S
C314 C313 1.377 . S
C314 C315 1.369 . S
C315 H295 0.945 . S
C315 C310 1.385 . S
C315 C314 1.369 . S
C316 C308 1.457 . S
C316 C317 1.372 . S
C316 C321 1.364 . S
C317 H296 0.952 . S
C317 C316 1.372 . S
C317 C318 1.389 . S
C318 H297 0.949 . S
C318 C317 1.389 . S
C318 C319 1.387 . S
C319 C318 1.387 . S
C319 C320 1.372 . S
C320 H298 0.950 . S
C320 C319 1.372 . S
C320 C321 1.379 . S
C321 H299 0.948 . S
C321 C316 1.364 . S
C321 C320 1.379 . S
C322 C291 1.383 . S
C322 C309 1.479 . S
C322 C323 1.398 . S
C323 C288 1.382 . S
C323 H300 0.951 . S
C323 C322 1.398 . S
C324 C325 1.384 . S
C324 H337 0.947 . S
C324 C359 1.382 . S
C325 C324 1.384 . S
C325 C326 1.378 . S
C326 C325 1.378 . S
C326 C327 1.378 . S
C326 H338 0.952 . S
C327 C326 1.378 . S
C327 H339 0.950 . S
C327 C358 1.383 . S
H328 C347 0.947 . S
H329 C348 0.946 . S
H330 C350 0.953 . S
H331 C351 0.945 . S
H332 C353 0.952 . S
H333 C354 0.949 . S
H334 C356 0.950 . S
H335 C357 0.948 . S
H336 C359 0.951 . S
H337 C324 0.947 . S
H338 C326 0.952 . S
H339 C327 0.950 . S
N340 C343 1.382 . S
N340 C345 1.363 . S
N341 C343 1.371 . S
N341 C344 1.372 . S
N342 C344 1.361 . S
N342 C345 1.377 . S
C343 N340 1.382 . S
C343 N341 1.371 . S
C343 C346 1.480 . S
C344 N341 1.372 . S
C344 N342 1.361 . S
C344 C352 1.457 . S
C345 N340 1.363 . S
C345 N342 1.377 . S
C345 C358 1.479 . S
C346 C343 1.480 . S
C346 C347 1.383 . S
C346 C351 1.385 . S
C347 H328 0.947 . S
C347 C346 1.383 . S
C347 C348 1.388 . S
C348 H329 0.946 . S
C348 C347 1.388 . S
C348 C349 1.384 . S
C349 C348 1.384 . S
C349 C350 1.377 . S
C350 H330 0.953 . S
C350 C349 1.377 . S
C350 C351 1.369 . S
C351 H331 0.945 . S
C351 C346 1.385 . S
C351 C350 1.369 . S
C352 C344 1.457 . S
C352 C353 1.372 . S
C352 C357 1.364 . S
C353 H332 0.952 . S
C353 C352 1.372 . S
C353 C354 1.389 . S
C354 H333 0.949 . S
C354 C353 1.389 . S
C354 C355 1.387 . S
C355 C354 1.387 . S
C355 C356 1.372 . S
C356 H334 0.950 . S
C356 C355 1.372 . S
C356 C357 1.379 . S
C357 H335 0.948 . S
C357 C352 1.364 . S
C357 C356 1.379 . S
C358 C327 1.383 . S
C358 C345 1.479 . S
C358 C359 1.398 . S
C359 C324 1.382 . S
C359 H336 0.951 . S
C359 C358 1.398 . S
C360 C361 1.384 . S
C360 H373 0.947 . S
C360 C395 1.382 . S
C361 C360 1.384 . S
C361 C362 1.378 . S
C362 C361 1.378 . S
C362 C363 1.378 . S
C362 H374 0.952 . S
C363 C362 1.378 . S
C363 H375 0.950 . S
C363 C394 1.383 . S
H364 C383 0.947 . S
H365 C384 0.946 . S
H366 C386 0.953 . S
H367 C387 0.945 . S
H368 C389 0.952 . S
H369 C390 0.949 . S
H370 C392 0.950 . S
H371 C393 0.948 . S
H372 C395 0.951 . S
H373 C360 0.947 . S
H374 C362 0.952 . S
H375 C363 0.950 . S
N376 C379 1.382 . S
N376 C381 1.363 . S
N377 C379 1.371 . S
N377 C380 1.372 . S
N378 C380 1.361 . S
N378 C381 1.377 . S
C379 N376 1.382 . S
C379 N377 1.371 . S
C379 C382 1.480 . S
C380 N377 1.372 . S
C380 N378 1.361 . S
C380 C388 1.457 . S
C381 N376 1.363 . S
C381 N378 1.377 . S
C381 C394 1.479 . S
C382 C379 1.480 . S
C382 C383 1.383 . S
C382 C387 1.385 . S
C383 H364 0.947 . S
C383 C382 1.383 . S
C383 C384 1.388 . S
C384 H365 0.946 . S
C384 C383 1.388 . S
C384 C385 1.384 . S
C385 C384 1.384 . S
C385 C386 1.377 . S
C386 H366 0.953 . S
C386 C385 1.377 . S
C386 C387 1.369 . S
C387 H367 0.945 . S
C387 C382 1.385 . S
C387 C386 1.369 . S
C388 C380 1.457 . S
C388 C389 1.372 . S
C388 C393 1.364 . S
C389 H368 0.952 . S
C389 C388 1.372 . S
C389 C390 1.389 . S
C390 H369 0.949 . S
C390 C389 1.389 . S
C390 C391 1.387 . S
C391 C390 1.387 . S
C391 C392 1.372 . S
C392 H370 0.950 . S
C392 C391 1.372 . S
C392 C393 1.379 . S
C393 H371 0.948 . S
C393 C388 1.364 . S
C393 C392 1.379 . S
C394 C363 1.383 . S
C394 C381 1.479 . S
C394 C395 1.398 . S
C395 C360 1.382 . S
C395 H372 0.951 . S
C395 C394 1.398 . S
C396 C397 1.384 . S
C396 H409 0.947 . S
C396 C431 1.382 . S
C397 C396 1.384 . S
C397 C398 1.378 . S
C398 C397 1.378 . S
C398 C399 1.378 . S
C398 H410 0.952 . S
C399 C398 1.378 . S
C399 H411 0.950 . S
C399 C430 1.383 . S
H400 C419 0.947 . S
H401 C420 0.946 . S
H402 C422 0.953 . S
H403 C423 0.945 . S
H404 C425 0.952 . S
H405 C426 0.949 . S
H406 C428 0.950 . S
H407 C429 0.948 . S
H408 C431 0.951 . S
H409 C396 0.947 . S
H410 C398 0.952 . S
H411 C399 0.950 . S
N412 C415 1.382 . S
N412 C417 1.363 . S
N413 C415 1.371 . S
N413 C416 1.372 . S
N414 C416 1.361 . S
N414 C417 1.377 . S
C415 N412 1.382 . S
C415 N413 1.371 . S
C415 C418 1.480 . S
C416 N413 1.372 . S
C416 N414 1.361 . S
C416 C424 1.457 . S
C417 N412 1.363 . S
C417 N414 1.377 . S
C417 C430 1.479 . S
C418 C415 1.480 . S
C418 C419 1.383 . S
C418 C423 1.385 . S
C419 H400 0.947 . S
C419 C418 1.383 . S
C419 C420 1.388 . S
C420 H401 0.946 . S
C420 C419 1.388 . S
C420 C421 1.384 . S
C421 C420 1.384 . S
C421 C422 1.377 . S
C422 H402 0.953 . S
C422 C421 1.377 . S
C422 C423 1.369 . S
C423 H403 0.945 . S
C423 C418 1.385 . S
C423 C422 1.369 . S
C424 C416 1.457 . S
C424 C425 1.372 . S
C424 C429 1.364 . S
C425 H404 0.952 . S
C425 C424 1.372 . S
C425 C426 1.389 . S
C426 H405 0.949 . S
C426 C425 1.389 . S
C426 C427 1.387 . S
C427 C426 1.387 . S
C427 C428 1.372 . S
C428 H406 0.950 . S
C428 C427 1.372 . S
C428 C429 1.379 . S
C429 H407 0.948 . S
C429 C424 1.364 . S
C429 C428 1.379 . S
C430 C399 1.383 . S
C430 C417 1.479 . S
C430 C431 1.398 . S
C431 C396 1.382 . S
C431 H408 0.951 . S
C431 C430 1.398 . S
C432 C433 1.384 . S
C432 H445 0.947 . S
C432 C467 1.382 . S
C433 C432 1.384 . S
C433 C434 1.378 . S
C434 C433 1.378 . S
C434 C435 1.378 . S
C434 H446 0.952 . S
C435 C434 1.378 . S
C435 H447 0.950 . S
C435 C466 1.383 . S
H436 C455 0.947 . S
H437 C456 0.946 . S
H438 C458 0.953 . S
H439 C459 0.945 . S
H440 C461 0.952 . S
H441 C462 0.949 . S
H442 C464 0.950 . S
H443 C465 0.948 . S
H444 C467 0.951 . S
H445 C432 0.947 . S
H446 C434 0.952 . S
H447 C435 0.950 . S
N448 C451 1.382 . S
N448 C453 1.363 . S
N449 C451 1.371 . S
N449 C452 1.372 . S
N450 C452 1.361 . S
N450 C453 1.377 . S
C451 N448 1.382 . S
C451 N449 1.371 . S
C451 C454 1.480 . S
C452 N449 1.372 . S
C452 N450 1.361 . S
C452 C460 1.457 . S
C453 N448 1.363 . S
C453 N450 1.377 . S
C453 C466 1.479 . S
C454 C451 1.480 . S
C454 C455 1.383 . S
C454 C459 1.385 . S
C455 H436 0.947 . S
C455 C454 1.383 . S
C455 C456 1.388 . S
C456 H437 0.946 . S
C456 C455 1.388 . S
C456 C457 1.384 . S
C457 C456 1.384 . S
C457 C458 1.377 . S
C458 H438 0.953 . S
C458 C457 1.377 . S
C458 C459 1.369 . S
C459 H439 0.945 . S
C459 C454 1.385 . S
C459 C458 1.369 . S
C460 C452 1.457 . S
C460 C461 1.372 . S
C460 C465 1.364 . S
C461 H440 0.952 . S
C461 C460 1.372 . S
C461 C462 1.389 . S
C462 H441 0.949 . S
C462 C461 1.389 . S
C462 C463 1.387 . S
C463 C462 1.387 . S
C463 C464 1.372 . S
C464 H442 0.950 . S
C464 C463 1.372 . S
C464 C465 1.379 . S
C465 H443 0.948 . S
C465 C460 1.364 . S
C465 C464 1.379 . S
C466 C435 1.383 . S
C466 C453 1.479 . S
C466 C467 1.398 . S
C467 C432 1.382 . S
C467 H444 0.951 . S
C467 C466 1.398 . S
C468 C469 1.384 . S
C468 H481 0.947 . S
C468 C503 1.382 . S
C469 C468 1.384 . S
C469 C470 1.378 . S
C470 C469 1.378 . S
C470 C471 1.378 . S
C470 H482 0.952 . S
C471 C470 1.378 . S
C471 H483 0.950 . S
C471 C502 1.383 . S
H472 C491 0.947 . S
H473 C492 0.946 . S
H474 C494 0.953 . S
H475 C495 0.945 . S
H476 C497 0.952 . S
H477 C498 0.949 . S
H478 C500 0.950 . S
H479 C501 0.948 . S
H480 C503 0.951 . S
H481 C468 0.947 . S
H482 C470 0.952 . S
H483 C471 0.950 . S
N484 C487 1.382 . S
N484 C489 1.363 . S
N485 C487 1.371 . S
N485 C488 1.372 . S
N486 C488 1.361 . S
N486 C489 1.377 . S
C487 N484 1.382 . S
C487 N485 1.371 . S
C487 C490 1.480 . S
C488 N485 1.372 . S
C488 N486 1.361 . S
C488 C496 1.457 . S
C489 N484 1.363 . S
C489 N486 1.377 . S
C489 C502 1.479 . S
C490 C487 1.480 . S
C490 C491 1.383 . S
C490 C495 1.385 . S
C491 H472 0.947 . S
C491 C490 1.383 . S
C491 C492 1.388 . S
C492 H473 0.946 . S
C492 C491 1.388 . S
C492 C493 1.384 . S
C493 C492 1.384 . S
C493 C494 1.377 . S
C494 H474 0.953 . S
C494 C493 1.377 . S
C494 C495 1.369 . S
C495 H475 0.945 . S
C495 C490 1.385 . S
C495 C494 1.369 . S
C496 C488 1.457 . S
C496 C497 1.372 . S
C496 C501 1.364 . S
C497 H476 0.952 . S
C497 C496 1.372 . S
C497 C498 1.389 . S
C498 H477 0.949 . S
C498 C497 1.389 . S
C498 C499 1.387 . S
C499 C498 1.387 . S
C499 C500 1.372 . S
C500 H478 0.950 . S
C500 C499 1.372 . S
C500 C501 1.379 . S
C501 H479 0.948 . S
C501 C496 1.364 . S
C501 C500 1.379 . S
C502 C471 1.383 . S
C502 C489 1.479 . S
C502 C503 1.398 . S
C503 C468 1.382 . S
C503 H480 0.951 . S
C503 C502 1.398 . S
C504 C505 1.384 . S
C504 H517 0.947 . S
C504 C539 1.382 . S
C505 C504 1.384 . S
C505 C506 1.378 . S
C506 C505 1.378 . S
C506 C507 1.378 . S
C506 H518 0.952 . S
C507 C506 1.378 . S
C507 H519 0.950 . S
C507 C538 1.383 . S
H508 C527 0.947 . S
H509 C528 0.946 . S
H510 C530 0.953 . S
H511 C531 0.945 . S
H512 C533 0.952 . S
H513 C534 0.949 . S
H514 C536 0.950 . S
H515 C537 0.948 . S
H516 C539 0.951 . S
H517 C504 0.947 . S
H518 C506 0.952 . S
H519 C507 0.950 . S
N520 C523 1.382 . S
N520 C525 1.363 . S
N521 C523 1.371 . S
N521 C524 1.372 . S
N522 C524 1.361 . S
N522 C525 1.377 . S
C523 N520 1.382 . S
C523 N521 1.371 . S
C523 C526 1.480 . S
C524 N521 1.372 . S
C524 N522 1.361 . S
C524 C532 1.457 . S
C525 N520 1.363 . S
C525 N522 1.377 . S
C525 C538 1.479 . S
C526 C523 1.480 . S
C526 C527 1.383 . S
C526 C531 1.385 . S
C527 H508 0.947 . S
C527 C526 1.383 . S
C527 C528 1.388 . S
C528 H509 0.946 . S
C528 C527 1.388 . S
C528 C529 1.384 . S
C529 C528 1.384 . S
C529 C530 1.377 . S
C530 H510 0.953 . S
C530 C529 1.377 . S
C530 C531 1.369 . S
C531 H511 0.945 . S
C531 C526 1.385 . S
C531 C530 1.369 . S
C532 C524 1.457 . S
C532 C533 1.372 . S
C532 C537 1.364 . S
C533 H512 0.952 . S
C533 C532 1.372 . S
C533 C534 1.389 . S
C534 H513 0.949 . S
C534 C533 1.389 . S
C534 C535 1.387 . S
C535 C534 1.387 . S
C535 C536 1.372 . S
C536 H514 0.950 . S
C536 C535 1.372 . S
C536 C537 1.379 . S
C537 H515 0.948 . S
C537 C532 1.364 . S
C537 C536 1.379 . S
C538 C507 1.383 . S
C538 C525 1.479 . S
C538 C539 1.398 . S
C539 C504 1.382 . S
C539 H516 0.951 . S
C539 C538 1.398 . S
C540 C541 1.384 . S
C540 H553 0.947 . S
C540 C575 1.382 . S
C541 C540 1.384 . S
C541 C542 1.378 . S
C542 C541 1.378 . S
C542 C543 1.378 . S
C542 H554 0.952 . S
C543 C542 1.378 . S
C543 H555 0.950 . S
C543 C574 1.383 . S
H544 C563 0.947 . S
H545 C564 0.946 . S
H546 C566 0.953 . S
H547 C567 0.945 . S
H548 C569 0.952 . S
H549 C570 0.949 . S
H550 C572 0.950 . S
H551 C573 0.948 . S
H552 C575 0.951 . S
H553 C540 0.947 . S
H554 C542 0.952 . S
H555 C543 0.950 . S
N556 C559 1.382 . S
N556 C561 1.363 . S
N557 C559 1.371 . S
N557 C560 1.372 . S
N558 C560 1.361 . S
N558 C561 1.377 . S
C559 N556 1.382 . S
C559 N557 1.371 . S
C559 C562 1.480 . S
C560 N557 1.372 . S
C560 N558 1.361 . S
C560 C568 1.457 . S
C561 N556 1.363 . S
C561 N558 1.377 . S
C561 C574 1.479 . S
C562 C559 1.480 . S
C562 C563 1.383 . S
C562 C567 1.385 . S
C563 H544 0.947 . S
C563 C562 1.383 . S
C563 C564 1.388 . S
C564 H545 0.946 . S
C564 C563 1.388 . S
C564 C565 1.384 . S
C565 C564 1.384 . S
C565 C566 1.377 . S
C566 H546 0.953 . S
C566 C565 1.377 . S
C566 C567 1.369 . S
C567 H547 0.945 . S
C567 C562 1.385 . S
C567 C566 1.369 . S
C568 C560 1.457 . S
C568 C569 1.372 . S
C568 C573 1.364 . S
C569 H548 0.952 . S
C569 C568 1.372 . S
C569 C570 1.389 . S
C570 H549 0.949 . S
C570 C569 1.389 . S
C570 C571 1.387 . S
C571 C570 1.387 . S
C571 C572 1.372 . S
C572 H550 0.950 . S
C572 C571 1.372 . S
C572 C573 1.379 . S
C573 H551 0.948 . S
C573 C568 1.364 . S
C573 C572 1.379 . S
C574 C543 1.383 . S
C574 C561 1.479 . S
C574 C575 1.398 . S
C575 C540 1.382 . S
C575 H552 0.951 . S
C575 C574 1.398 . S
C576 C577 1.384 . S
C576 H589 0.947 . S
C576 C611 1.382 . S
C577 C576 1.384 . S
C577 C578 1.378 . S
C578 C577 1.378 . S
C578 C579 1.378 . S
C578 H590 0.952 . S
C579 C578 1.378 . S
C579 H591 0.950 . S
C579 C610 1.383 . S
H580 C599 0.947 . S
H581 C600 0.946 . S
H582 C602 0.953 . S
H583 C603 0.945 . S
H584 C605 0.952 . S
H585 C606 0.949 . S
H586 C608 0.950 . S
H587 C609 0.948 . S
H588 C611 0.951 . S
H589 C576 0.947 . S
H590 C578 0.952 . S
H591 C579 0.950 . S
N592 C595 1.382 . S
N592 C597 1.363 . S
N593 C595 1.371 . S
N593 C596 1.372 . S
N594 C596 1.361 . S
N594 C597 1.377 . S
C595 N592 1.382 . S
C595 N593 1.371 . S
C595 C598 1.480 . S
C596 N593 1.372 . S
C596 N594 1.361 . S
C596 C604 1.457 . S
C597 N592 1.363 . S
C597 N594 1.377 . S
C597 C610 1.479 . S
C598 C595 1.480 . S
C598 C599 1.383 . S
C598 C603 1.385 . S
C599 H580 0.947 . S
C599 C598 1.383 . S
C599 C600 1.388 . S
C600 H581 0.946 . S
C600 C599 1.388 . S
C600 C601 1.384 . S
C601 C600 1.384 . S
C601 C602 1.377 . S
C602 H582 0.953 . S
C602 C601 1.377 . S
C602 C603 1.369 . S
C603 H583 0.945 . S
C603 C598 1.385 . S
C603 C602 1.369 . S
C604 C596 1.457 . S
C604 C605 1.372 . S
C604 C609 1.364 . S
C605 H584 0.952 . S
C605 C604 1.372 . S
C605 C606 1.389 . S
C606 H585 0.949 . S
C606 C605 1.389 . S
C606 C607 1.387 . S
C607 C606 1.387 . S
C607 C608 1.372 . S
C608 H586 0.950 . S
C608 C607 1.372 . S
C608 C609 1.379 . S
C609 H587 0.948 . S
C609 C604 1.364 . S
C609 C608 1.379 . S
C610 C579 1.383 . S
C610 C597 1.479 . S
C610 C611 1.398 . S
C611 C576 1.382 . S
C611 H588 0.951 . S
C611 C610 1.398 . S
C612 C613 1.384 . S
C612 H625 0.947 . S
C612 C647 1.382 . S
C613 C612 1.384 . S
C613 C614 1.378 . S
C614 C613 1.378 . S
C614 C615 1.378 . S
C614 H626 0.952 . S
C615 C614 1.378 . S
C615 H627 0.950 . S
C615 C646 1.383 . S
H616 C635 0.947 . S
H617 C636 0.946 . S
H618 C638 0.953 . S
H619 C639 0.945 . S
H620 C641 0.952 . S
H621 C642 0.949 . S
H622 C644 0.950 . S
H623 C645 0.948 . S
H624 C647 0.951 . S
H625 C612 0.947 . S
H626 C614 0.952 . S
H627 C615 0.950 . S
N628 C631 1.382 . S
N628 C633 1.363 . S
N629 C631 1.371 . S
N629 C632 1.372 . S
N630 C632 1.361 . S
N630 C633 1.377 . S
C631 N628 1.382 . S
C631 N629 1.371 . S
C631 C634 1.480 . S
C632 N629 1.372 . S
C632 N630 1.361 . S
C632 C640 1.457 . S
C633 N628 1.363 . S
C633 N630 1.377 . S
C633 C646 1.479 . S
C634 C631 1.480 . S
C634 C635 1.383 . S
C634 C639 1.385 . S
C635 H616 0.947 . S
C635 C634 1.383 . S
C635 C636 1.388 . S
C636 H617 0.946 . S
C636 C635 1.388 . S
C636 C637 1.384 . S
C637 C636 1.384 . S
C637 C638 1.377 . S
C638 H618 0.953 . S
C638 C637 1.377 . S
C638 C639 1.369 . S
C639 H619 0.945 . S
C639 C634 1.385 . S
C639 C638 1.369 . S
C640 C632 1.457 . S
C640 C641 1.372 . S
C640 C645 1.364 . S
C641 H620 0.952 . S
C641 C640 1.372 . S
C641 C642 1.389 . S
C642 H621 0.949 . S
C642 C641 1.389 . S
C642 C643 1.387 . S
C643 C642 1.387 . S
C643 C644 1.372 . S
C644 H622 0.950 . S
C644 C643 1.372 . S
C644 C645 1.379 . S
C645 H623 0.948 . S
C645 C640 1.364 . S
C645 C644 1.379 . S
C646 C615 1.383 . S
C646 C633 1.479 . S
C646 C647 1.398 . S
C647 C612 1.382 . S
C647 H624 0.951 . S
C647 C646 1.398 . S
C648 C649 1.384 . S
C648 H661 0.947 . S
C648 C683 1.382 . S
C649 C648 1.384 . S
C649 C650 1.378 . S
C650 C649 1.378 . S
C650 C651 1.378 . S
C650 H662 0.952 . S
C651 C650 1.378 . S
C651 H663 0.950 . S
C651 C682 1.383 . S
H652 C671 0.947 . S
H653 C672 0.946 . S
H654 C674 0.953 . S
H655 C675 0.945 . S
H656 C677 0.952 . S
H657 C678 0.949 . S
H658 C680 0.950 . S
H659 C681 0.948 . S
H660 C683 0.951 . S
H661 C648 0.947 . S
H662 C650 0.952 . S
H663 C651 0.950 . S
N664 C667 1.382 . S
N664 C669 1.363 . S
N665 C667 1.371 . S
N665 C668 1.372 . S
N666 C668 1.361 . S
N666 C669 1.377 . S
C667 N664 1.382 . S
C667 N665 1.371 . S
C667 C670 1.480 . S
C668 N665 1.372 . S
C668 N666 1.361 . S
C668 C676 1.457 . S
C669 N664 1.363 . S
C669 N666 1.377 . S
C669 C682 1.479 . S
C670 C667 1.480 . S
C670 C671 1.383 . S
C670 C675 1.385 . S
C671 H652 0.947 . S
C671 C670 1.383 . S
C671 C672 1.388 . S
C672 H653 0.946 . S
C672 C671 1.388 . S
C672 C673 1.384 . S
C673 C672 1.384 . S
C673 C674 1.377 . S
C674 H654 0.953 . S
C674 C673 1.377 . S
C674 C675 1.369 . S
C675 H655 0.945 . S
C675 C670 1.385 . S
C675 C674 1.369 . S
C676 C668 1.457 . S
C676 C677 1.372 . S
C676 C681 1.364 . S
C677 H656 0.952 . S
C677 C676 1.372 . S
C677 C678 1.389 . S
C678 H657 0.949 . S
C678 C677 1.389 . S
C678 C679 1.387 . S
C679 C678 1.387 . S
C679 C680 1.372 . S
C680 H658 0.950 . S
C680 C679 1.372 . S
C680 C681 1.379 . S
C681 H659 0.948 . S
C681 C676 1.364 . S
C681 C680 1.379 . S
C682 C651 1.383 . S
C682 C669 1.479 . S
C682 C683 1.398 . S
C683 C648 1.382 . S
C683 H660 0.951 . S
C683 C682 1.398 . S
C684 C685 1.384 . S
C684 H697 0.947 . S
C684 C719 1.382 . S
C685 C684 1.384 . S
C685 C686 1.378 . S
C686 C685 1.378 . S
C686 C687 1.378 . S
C686 H698 0.952 . S
C687 C686 1.378 . S
C687 H699 0.950 . S
C687 C718 1.383 . S
H688 C707 0.947 . S
H689 C708 0.946 . S
H690 C710 0.953 . S
H691 C711 0.945 . S
H692 C713 0.952 . S
H693 C714 0.949 . S
H694 C716 0.950 . S
H695 C717 0.948 . S
H696 C719 0.951 . S
H697 C684 0.947 . S
H698 C686 0.952 . S
H699 C687 0.950 . S
N700 C703 1.382 . S
N700 C705 1.363 . S
N701 C703 1.371 . S
N701 C704 1.372 . S
N702 C704 1.361 . S
N702 C705 1.377 . S
C703 N700 1.382 . S
C703 N701 1.371 . S
C703 C706 1.480 . S
C704 N701 1.372 . S
C704 N702 1.361 . S
C704 C712 1.457 . S
C705 N700 1.363 . S
C705 N702 1.377 . S
C705 C718 1.479 . S
C706 C703 1.480 . S
C706 C707 1.383 . S
C706 C711 1.385 . S
C707 H688 0.947 . S
C707 C706 1.383 . S
C707 C708 1.388 . S
C708 H689 0.946 . S
C708 C707 1.388 . S
C708 C709 1.384 . S
C709 C708 1.384 . S
C709 C710 1.377 . S
C710 H690 0.953 . S
C710 C709 1.377 . S
C710 C711 1.369 . S
C711 H691 0.945 . S
C711 C706 1.385 . S
C711 C710 1.369 . S
C712 C704 1.457 . S
C712 C713 1.372 . S
C712 C717 1.364 . S
C713 H692 0.952 . S
C713 C712 1.372 . S
C713 C714 1.389 . S
C714 H693 0.949 . S
C714 C713 1.389 . S
C714 C715 1.387 . S
C715 C714 1.387 . S
C715 C716 1.372 . S
C716 H694 0.950 . S
C716 C715 1.372 . S
C716 C717 1.379 . S
C717 H695 0.948 . S
C717 C712 1.364 . S
C717 C716 1.379 . S
C718 C687 1.383 . S
C718 C705 1.479 . S
C718 C719 1.398 . S
C719 C684 1.382 . S
C719 H696 0.951 . S
C719 C718 1.398 . S
C720 C721 1.384 . S
C720 H733 0.947 . S
C720 C755 1.382 . S
C721 C720 1.384 . S
C721 C722 1.378 . S
C722 C721 1.378 . S
C722 C723 1.378 . S
C722 H734 0.952 . S
C723 C722 1.378 . S
C723 H735 0.950 . S
C723 C754 1.383 . S
H724 C743 0.947 . S
H725 C744 0.946 . S
H726 C746 0.953 . S
H727 C747 0.945 . S
H728 C749 0.952 . S
H729 C750 0.949 . S
H730 C752 0.950 . S
H731 C753 0.948 . S
H732 C755 0.951 . S
H733 C720 0.947 . S
H734 C722 0.952 . S
H735 C723 0.950 . S
N736 C739 1.382 . S
N736 C741 1.363 . S
N737 C739 1.371 . S
N737 C740 1.372 . S
N738 C740 1.361 . S
N738 C741 1.377 . S
C739 N736 1.382 . S
C739 N737 1.371 . S
C739 C742 1.480 . S
C740 N737 1.372 . S
C740 N738 1.361 . S
C740 C748 1.457 . S
C741 N736 1.363 . S
C741 N738 1.377 . S
C741 C754 1.479 . S
C742 C739 1.480 . S
C742 C743 1.383 . S
C742 C747 1.385 . S
C743 H724 0.947 . S
C743 C742 1.383 . S
C743 C744 1.388 . S
C744 H725 0.946 . S
C744 C743 1.388 . S
C744 C745 1.384 . S
C745 C744 1.384 . S
C745 C746 1.377 . S
C746 H726 0.953 . S
C746 C745 1.377 . S
C746 C747 1.369 . S
C747 H727 0.945 . S
C747 C742 1.385 . S
C747 C746 1.369 . S
C748 C740 1.457 . S
C748 C749 1.372 . S
C748 C753 1.364 . S
C749 H728 0.952 . S
C749 C748 1.372 . S
C749 C750 1.389 . S
C750 H729 0.949 . S
C750 C749 1.389 . S
C750 C751 1.387 . S
C751 C750 1.387 . S
C751 C752 1.372 . S
C752 H730 0.950 . S
C752 C751 1.372 . S
C752 C753 1.379 . S
C753 H731 0.948 . S
C753 C748 1.364 . S
C753 C752 1.379 . S
C754 C723 1.383 . S
C754 C741 1.479 . S
C754 C755 1.398 . S
C755 C720 1.382 . S
C755 H732 0.951 . S
C755 C754 1.398 . S
C756 C757 1.384 . S
C756 H769 0.947 . S
C756 C791 1.382 . S
C757 C756 1.384 . S
C757 C758 1.378 . S
C758 C757 1.378 . S
C758 C759 1.378 . S
C758 H770 0.952 . S
C759 C758 1.378 . S
C759 H771 0.950 . S
C759 C790 1.383 . S
H760 C779 0.947 . S
H761 C780 0.946 . S
H762 C782 0.953 . S
H763 C783 0.945 . S
H764 C785 0.952 . S
H765 C786 0.949 . S
H766 C788 0.950 . S
H767 C789 0.948 . S
H768 C791 0.951 . S
H769 C756 0.947 . S
H770 C758 0.952 . S
H771 C759 0.950 . S
N772 C775 1.382 . S
N772 C777 1.363 . S
N773 C775 1.371 . S
N773 C776 1.372 . S
N774 C776 1.361 . S
N774 C777 1.377 . S
C775 N772 1.382 . S
C775 N773 1.371 . S
C775 C778 1.480 . S
C776 N773 1.372 . S
C776 N774 1.361 . S
C776 C784 1.457 . S
C777 N772 1.363 . S
C777 N774 1.377 . S
C777 C790 1.479 . S
C778 C775 1.480 . S
C778 C779 1.383 . S
C778 C783 1.385 . S
C779 H760 0.947 . S
C779 C778 1.383 . S
C779 C780 1.388 . S
C780 H761 0.946 . S
C780 C779 1.388 . S
C780 C781 1.384 . S
C781 C780 1.384 . S
C781 C782 1.377 . S
C782 H762 0.953 . S
C782 C781 1.377 . S
C782 C783 1.369 . S
C783 H763 0.945 . S
C783 C778 1.385 . S
C783 C782 1.369 . S
C784 C776 1.457 . S
C784 C785 1.372 . S
C784 C789 1.364 . S
C785 H764 0.952 . S
C785 C784 1.372 . S
C785 C786 1.389 . S
C786 H765 0.949 . S
C786 C785 1.389 . S
C786 C787 1.387 . S
C787 C786 1.387 . S
C787 C788 1.372 . S
C788 H766 0.950 . S
C788 C787 1.372 . S
C788 C789 1.379 . S
C789 H767 0.948 . S
C789 C784 1.364 . S
C789 C788 1.379 . S
C790 C759 1.383 . S
C790 C777 1.479 . S
C790 C791 1.398 . S
C791 C756 1.382 . S
C791 H768 0.951 . S
C791 C790 1.398 . S
C792 C793 1.384 . S
C792 H805 0.947 . S
C792 C827 1.382 . S
C793 C792 1.384 . S
C793 C794 1.378 . S
C794 C793 1.378 . S
C794 C795 1.378 . S
C794 H806 0.952 . S
C795 C794 1.378 . S
C795 H807 0.950 . S
C795 C826 1.383 . S
H796 C815 0.947 . S
H797 C816 0.946 . S
H798 C818 0.953 . S
H799 C819 0.945 . S
H800 C821 0.952 . S
H801 C822 0.949 . S
H802 C824 0.950 . S
H803 C825 0.948 . S
H804 C827 0.951 . S
H805 C792 0.947 . S
H806 C794 0.952 . S
H807 C795 0.950 . S
N808 C811 1.382 . S
N808 C813 1.363 . S
N809 C811 1.371 . S
N809 C812 1.372 . S
N810 C812 1.361 . S
N810 C813 1.377 . S
C811 N808 1.382 . S
C811 N809 1.371 . S
C811 C814 1.480 . S
C812 N809 1.372 . S
C812 N810 1.361 . S
C812 C820 1.457 . S
C813 N808 1.363 . S
C813 N810 1.377 . S
C813 C826 1.479 . S
C814 C811 1.480 . S
C814 C815 1.383 . S
C814 C819 1.385 . S
C815 H796 0.947 . S
C815 C814 1.383 . S
C815 C816 1.388 . S
C816 H797 0.946 . S
C816 C815 1.388 . S
C816 C817 1.384 . S
C817 C816 1.384 . S
C817 C818 1.377 . S
C818 H798 0.953 . S
C818 C817 1.377 . S
C818 C819 1.369 . S
C819 H799 0.945 . S
C819 C814 1.385 . S
C819 C818 1.369 . S
C820 C812 1.457 . S
C820 C821 1.372 . S
C820 C825 1.364 . S
C821 H800 0.952 . S
C821 C820 1.372 . S
C821 C822 1.389 . S
C822 H801 0.949 . S
C822 C821 1.389 . S
C822 C823 1.387 . S
C823 C822 1.387 . S
C823 C824 1.372 . S
C824 H802 0.950 . S
C824 C823 1.372 . S
C824 C825 1.379 . S
C825 H803 0.948 . S
C825 C820 1.364 . S
C825 C824 1.379 . S
C826 C795 1.383 . S
C826 C813 1.479 . S
C826 C827 1.398 . S
C827 C792 1.382 . S
C827 H804 0.951 . S
C827 C826 1.398 . S
C828 C829 1.384 . S
C828 H841 0.947 . S
C828 C863 1.382 . S
C829 C828 1.384 . S
C829 C830 1.378 . S
C830 C829 1.378 . S
C830 C831 1.378 . S
C830 H842 0.952 . S
C831 C830 1.378 . S
C831 H843 0.950 . S
C831 C862 1.383 . S
H832 C851 0.947 . S
H833 C852 0.946 . S
H834 C854 0.953 . S
H835 C855 0.945 . S
H836 C857 0.952 . S
H837 C858 0.949 . S
H838 C860 0.950 . S
H839 C861 0.948 . S
H840 C863 0.951 . S
H841 C828 0.947 . S
H842 C830 0.952 . S
H843 C831 0.950 . S
N844 C847 1.382 . S
N844 C849 1.363 . S
N845 C847 1.371 . S
N845 C848 1.372 . S
N846 C848 1.361 . S
N846 C849 1.377 . S
C847 N844 1.382 . S
C847 N845 1.371 . S
C847 C850 1.480 . S
C848 N845 1.372 . S
C848 N846 1.361 . S
C848 C856 1.457 . S
C849 N844 1.363 . S
C849 N846 1.377 . S
C849 C862 1.479 . S
C850 C847 1.480 . S
C850 C851 1.383 . S
C850 C855 1.385 . S
C851 H832 0.947 . S
C851 C850 1.383 . S
C851 C852 1.388 . S
C852 H833 0.946 . S
C852 C851 1.388 . S
C852 C853 1.384 . S
C853 C852 1.384 . S
C853 C854 1.377 . S
C854 H834 0.953 . S
C854 C853 1.377 . S
C854 C855 1.369 . S
C855 H835 0.945 . S
C855 C850 1.385 . S
C855 C854 1.369 . S
C856 C848 1.457 . S
C856 C857 1.372 . S
C856 C861 1.364 . S
C857 H836 0.952 . S
C857 C856 1.372 . S
C857 C858 1.389 . S
C858 H837 0.949 . S
C858 C857 1.389 . S
C858 C859 1.387 . S
C859 C858 1.387 . S
C859 C860 1.372 . S
C860 H838 0.950 . S
C860 C859 1.372 . S
C860 C861 1.379 . S
C861 H839 0.948 . S
C861 C856 1.364 . S
C861 C860 1.379 . S
C862 C831 1.383 . S
C862 C849 1.479 . S
C862 C863 1.398 . S
C863 C828 1.382 . S
C863 H840 0.951 . S
C863 C862 1.398 . S
C864 C865 1.384 . S
C864 H877 0.947 . S
C864 C899 1.382 . S
C865 C864 1.384 . S
C865 C866 1.378 . S
C866 C865 1.378 . S
C866 C867 1.378 . S
C866 H878 0.952 . S
C867 C866 1.378 . S
C867 H879 0.950 . S
C867 C898 1.383 . S
H868 C887 0.947 . S
H869 C888 0.946 . S
H870 C890 0.953 . S
H871 C891 0.945 . S
H872 C893 0.952 . S
H873 C894 0.949 . S
H874 C896 0.950 . S
H875 C897 0.948 . S
H876 C899 0.951 . S
H877 C864 0.947 . S
H878 C866 0.952 . S
H879 C867 0.950 . S
N880 C883 1.382 . S
N880 C885 1.363 . S
N881 C883 1.371 . S
N881 C884 1.372 . S
N882 C884 1.361 . S
N882 C885 1.377 . S
C883 N880 1.382 . S
C883 N881 1.371 . S
C883 C886 1.480 . S
C884 N881 1.372 . S
C884 N882 1.361 . S
C884 C892 1.457 . S
C885 N880 1.363 . S
C885 N882 1.377 . S
C885 C898 1.479 . S
C886 C883 1.480 . S
C886 C887 1.383 . S
C886 C891 1.385 . S
C887 H868 0.947 . S
C887 C886 1.383 . S
C887 C888 1.388 . S
C888 H869 0.946 . S
C888 C887 1.388 . S
C888 C889 1.384 . S
C889 C888 1.384 . S
C889 C890 1.377 . S
C890 H870 0.953 . S
C890 C889 1.377 . S
C890 C891 1.369 . S
C891 H871 0.945 . S
C891 C886 1.385 . S
C891 C890 1.369 . S
C892 C884 1.457 . S
C892 C893 1.372 . S
C892 C897 1.364 . S
C893 H872 0.952 . S
C893 C892 1.372 . S
C893 C894 1.389 . S
C894 H873 0.949 . S
C894 C893 1.389 . S
C894 C895 1.387 . S
C895 C894 1.387 . S
C895 C896 1.372 . S
C896 H874 0.950 . S
C896 C895 1.372 . S
C896 C897 1.379 . S
C897 H875 0.948 . S
C897 C892 1.364 . S
C897 C896 1.379 . S
C898 C867 1.383 . S
C898 C885 1.479 . S
C898 C899 1.398 . S
C899 C864 1.382 . S
C899 H876 0.951 . S
C899 C898 1.398 . S
C900 C901 1.384 . S
C900 H913 0.947 . S
C900 C935 1.382 . S
C901 C900 1.384 . S
C901 C902 1.378 . S
C902 C901 1.378 . S
C902 C903 1.378 . S
C902 H914 0.952 . S
C903 C902 1.378 . S
C903 H915 0.950 . S
C903 C934 1.383 . S
H904 C923 0.947 . S
H905 C924 0.946 . S
H906 C926 0.953 . S
H907 C927 0.945 . S
H908 C929 0.952 . S
H909 C930 0.949 . S
H910 C932 0.950 . S
H911 C933 0.948 . S
H912 C935 0.951 . S
H913 C900 0.947 . S
H914 C902 0.952 . S
H915 C903 0.950 . S
N916 C919 1.382 . S
N916 C921 1.363 . S
N917 C919 1.371 . S
N917 C920 1.372 . S
N918 C920 1.361 . S
N918 C921 1.377 . S
C919 N916 1.382 . S
C919 N917 1.371 . S
C919 C922 1.480 . S
C920 N917 1.372 . S
C920 N918 1.361 . S
C920 C928 1.457 . S
C921 N916 1.363 . S
C921 N918 1.377 . S
C921 C934 1.479 . S
C922 C919 1.480 . S
C922 C923 1.383 . S
C922 C927 1.385 . S
C923 H904 0.947 . S
C923 C922 1.383 . S
C923 C924 1.388 . S
C924 H905 0.946 . S
C924 C923 1.388 . S
C924 C925 1.384 . S
C925 C924 1.384 . S
C925 C926 1.377 . S
C926 H906 0.953 . S
C926 C925 1.377 . S
C926 C927 1.369 . S
C927 H907 0.945 . S
C927 C922 1.385 . S
C927 C926 1.369 . S
C928 C920 1.457 . S
C928 C929 1.372 . S
C928 C933 1.364 . S
C929 H908 0.952 . S
C929 C928 1.372 . S
C929 C930 1.389 . S
C930 H909 0.949 . S
C930 C929 1.389 . S
C930 C931 1.387 . S
C931 C930 1.387 . S
C931 C932 1.372 . S
C932 H910 0.950 . S
C932 C931 1.372 . S
C932 C933 1.379 . S
C933 H911 0.948 . S
C933 C928 1.364 . S
C933 C932 1.379 . S
C934 C903 1.383 . S
C934 C921 1.479 . S
C934 C935 1.398 . S
C935 C900 1.382 . S
C935 H912 0.951 . S
C935 C934 1.398 . S
C936 C937 1.384 . S
C936 H949 0.947 . S
C936 C971 1.382 . S
C937 C936 1.384 . S
C937 C938 1.378 . S
C938 C937 1.378 . S
C938 C939 1.378 . S
C938 H950 0.952 . S
C939 C938 1.378 . S
C939 H951 0.950 . S
C939 C970 1.383 . S
H940 C959 0.947 . S
H941 C960 0.946 . S
H942 C962 0.953 . S
H943 C963 0.945 . S
H944 C965 0.952 . S
H945 C966 0.949 . S
H946 C968 0.950 . S
H947 C969 0.948 . S
H948 C971 0.951 . S
H949 C936 0.947 . S
H950 C938 0.952 . S
H951 C939 0.950 . S
N952 C955 1.382 . S
N952 C957 1.363 . S
N953 C955 1.371 . S
N953 C956 1.372 . S
N954 C956 1.361 . S
N954 C957 1.377 . S
C955 N952 1.382 . S
C955 N953 1.371 . S
C955 C958 1.480 . S
C956 N953 1.372 . S
C956 N954 1.361 . S
C956 C964 1.457 . S
C957 N952 1.363 . S
C957 N954 1.377 . S
C957 C970 1.479 . S
C958 C955 1.480 . S
C958 C959 1.383 . S
C958 C963 1.385 . S
C959 H940 0.947 . S
C959 C958 1.383 . S
C959 C960 1.388 . S
C960 H941 0.946 . S
C960 C959 1.388 . S
C960 C961 1.384 . S
C961 C960 1.384 . S
C961 C962 1.377 . S
C962 H942 0.953 . S
C962 C961 1.377 . S
C962 C963 1.369 . S
C963 H943 0.945 . S
C963 C958 1.385 . S
C963 C962 1.369 . S
C964 C956 1.457 . S
C964 C965 1.372 . S
C964 C969 1.364 . S
C965 H944 0.952 . S
C965 C964 1.372 . S
C965 C966 1.389 . S
C966 H945 0.949 . S
C966 C965 1.389 . S
C966 C967 1.387 . S
C967 C966 1.387 . S
C967 C968 1.372 . S
C968 H946 0.950 . S
C968 C967 1.372 . S
C968 C969 1.379 . S
C969 H947 0.948 . S
C969 C964 1.364 . S
C969 C968 1.379 . S
C970 C939 1.383 . S
C970 C957 1.479 . S
C970 C971 1.398 . S
C971 C936 1.382 . S
C971 H948 0.951 . S
C971 C970 1.398 . S
C972 C973 1.384 . S
C972 H985 0.947 . S
C972 C1007 1.382 . S
C973 C972 1.384 . S
C973 C974 1.378 . S
C974 C973 1.378 . S
C974 C975 1.378 . S
C974 H986 0.952 . S
C975 C974 1.378 . S
C975 H987 0.950 . S
C975 C1006 1.383 . S
H976 C995 0.947 . S
H977 C996 0.946 . S
H978 C998 0.953 . S
H979 C999 0.945 . S
H980 C1001 0.952 . S
H981 C1002 0.949 . S
H982 C1004 0.950 . S
H983 C1005 0.948 . S
H984 C1007 0.951 . S
H985 C972 0.947 . S
H986 C974 0.952 . S
H987 C975 0.950 . S
N988 C991 1.382 . S
N988 C993 1.363 . S
N989 C991 1.371 . S
N989 C992 1.372 . S
N990 C992 1.361 . S
N990 C993 1.377 . S
C991 N988 1.382 . S
C991 N989 1.371 . S
C991 C994 1.480 . S
C992 N989 1.372 . S
C992 N990 1.361 . S
C992 C1000 1.457 . S
C993 N988 1.363 . S
C993 N990 1.377 . S
C993 C1006 1.479 . S
C994 C991 1.480 . S
C994 C995 1.383 . S
C994 C999 1.385 . S
C995 H976 0.947 . S
C995 C994 1.383 . S
C995 C996 1.388 . S
C996 H977 0.946 . S
C996 C995 1.388 . S
C996 C997 1.384 . S
C997 C996 1.384 . S
C997 C998 1.377 . S
C998 H978 0.953 . S
C998 C997 1.377 . S
C998 C999 1.369 . S
C999 H979 0.945 . S
C999 C994 1.385 . S
C999 C998 1.369 . S
C1000 C992 1.457 . S
C1000 C1001 1.372 . S
C1000 C1005 1.364 . S
C1001 H980 0.952 . S
C1001 C1000 1.372 . S
C1001 C1002 1.389 . S
C1002 H981 0.949 . S
C1002 C1001 1.389 . S
C1002 C1003 1.387 . S
C1003 C1002 1.387 . S
C1003 C1004 1.372 . S
C1004 H982 0.950 . S
C1004 C1003 1.372 . S
C1004 C1005 1.379 . S
C1005 H983 0.948 . S
C1005 C1000 1.364 . S
C1005 C1004 1.379 . S
C1006 C975 1.383 . S
C1006 C993 1.479 . S
C1006 C1007 1.398 . S
C1007 C972 1.382 . S
C1007 H984 0.951 . S
C1007 C1006 1.398 . S
C1008 C1009 1.384 . S
C1008 H1021 0.947 . S
C1008 C1043 1.382 . S
C1009 C1008 1.384 . S
C1009 C1010 1.378 . S
C1010 C1009 1.378 . S
C1010 C1011 1.378 . S
C1010 H1022 0.952 . S
C1011 C1010 1.378 . S
C1011 H1023 0.950 . S
C1011 C1042 1.383 . S
H1012 C1031 0.947 . S
H1013 C1032 0.946 . S
H1014 C1034 0.953 . S
H1015 C1035 0.945 . S
H1016 C1037 0.952 . S
H1017 C1038 0.949 . S
H1018 C1040 0.950 . S
H1019 C1041 0.948 . S
H1020 C1043 0.951 . S
H1021 C1008 0.947 . S
H1022 C1010 0.952 . S
H1023 C1011 0.950 . S
N1024 C1027 1.382 . S
N1024 C1029 1.363 . S
N1025 C1027 1.371 . S
N1025 C1028 1.372 . S
N1026 C1028 1.361 . S
N1026 C1029 1.377 . S
C1027 N1024 1.382 . S
C1027 N1025 1.371 . S
C1027 C1030 1.480 . S
C1028 N1025 1.372 . S
C1028 N1026 1.361 . S
C1028 C1036 1.457 . S
C1029 N1024 1.363 . S
C1029 N1026 1.377 . S
C1029 C1042 1.479 . S
C1030 C1027 1.480 . S
C1030 C1031 1.383 . S
C1030 C1035 1.385 . S
C1031 H1012 0.947 . S
C1031 C1030 1.383 . S
C1031 C1032 1.388 . S
C1032 H1013 0.946 . S
C1032 C1031 1.388 . S
C1032 C1033 1.384 . S
C1033 C1032 1.384 . S
C1033 C1034 1.377 . S
C1034 H1014 0.953 . S
C1034 C1033 1.377 . S
C1034 C1035 1.369 . S
C1035 H1015 0.945 . S
C1035 C1030 1.385 . S
C1035 C1034 1.369 . S
C1036 C1028 1.457 . S
C1036 C1037 1.372 . S
C1036 C1041 1.364 . S
C1037 H1016 0.952 . S
C1037 C1036 1.372 . S
C1037 C1038 1.389 . S
C1038 H1017 0.949 . S
C1038 C1037 1.389 . S
C1038 C1039 1.387 . S
C1039 C1038 1.387 . S
C1039 C1040 1.372 . S
C1040 H1018 0.950 . S
C1040 C1039 1.372 . S
C1040 C1041 1.379 . S
C1041 H1019 0.948 . S
C1041 C1036 1.364 . S
C1041 C1040 1.379 . S
C1042 C1011 1.383 . S
C1042 C1029 1.479 . S
C1042 C1043 1.398 . S
C1043 C1008 1.382 . S
C1043 H1020 0.951 . S
C1043 C1042 1.398 . S
C1044 C1045 1.384 . S
C1044 H1057 0.947 . S
C1044 C1079 1.382 . S
C1045 C1044 1.384 . S
C1045 C1046 1.378 . S
C1046 C1045 1.378 . S
C1046 C1047 1.378 . S
C1046 H1058 0.952 . S
C1047 C1046 1.378 . S
C1047 H1059 0.950 . S
C1047 C1078 1.383 . S
H1048 C1067 0.947 . S
H1049 C1068 0.946 . S
H1050 C1070 0.953 . S
H1051 C1071 0.945 . S
H1052 C1073 0.952 . S
H1053 C1074 0.949 . S
H1054 C1076 0.950 . S
H1055 C1077 0.948 . S
H1056 C1079 0.951 . S
H1057 C1044 0.947 . S
H1058 C1046 0.952 . S
H1059 C1047 0.950 . S
N1060 C1063 1.382 . S
N1060 C1065 1.363 . S
N1061 C1063 1.371 . S
N1061 C1064 1.372 . S
N1062 C1064 1.361 . S
N1062 C1065 1.377 . S
C1063 N1060 1.382 . S
C1063 N1061 1.371 . S
C1063 C1066 1.480 . S
C1064 N1061 1.372 . S
C1064 N1062 1.361 . S
C1064 C1072 1.457 . S
C1065 N1060 1.363 . S
C1065 N1062 1.377 . S
C1065 C1078 1.479 . S
C1066 C1063 1.480 . S
C1066 C1067 1.383 . S
C1066 C1071 1.385 . S
C1067 H1048 0.947 . S
C1067 C1066 1.383 . S
C1067 C1068 1.388 . S
C1068 H1049 0.946 . S
C1068 C1067 1.388 . S
C1068 C1069 1.384 . S
C1069 C1068 1.384 . S
C1069 C1070 1.377 . S
C1070 H1050 0.953 . S
C1070 C1069 1.377 . S
C1070 C1071 1.369 . S
C1071 H1051 0.945 . S
C1071 C1066 1.385 . S
C1071 C1070 1.369 . S
C1072 C1064 1.457 . S
C1072 C1073 1.372 . S
C1072 C1077 1.364 . S
C1073 H1052 0.952 . S
C1073 C1072 1.372 . S
C1073 C1074 1.389 . S
C1074 H1053 0.949 . S
C1074 C1073 1.389 . S
C1074 C1075 1.387 . S
C1075 C1074 1.387 . S
C1075 C1076 1.372 . S
C1076 H1054 0.950 . S
C1076 C1075 1.372 . S
C1076 C1077 1.379 . S
C1077 H1055 0.948 . S
C1077 C1072 1.364 . S
C1077 C1076 1.379 . S
C1078 C1047 1.383 . S
C1078 C1065 1.479 . S
C1078 C1079 1.398 . S
C1079 C1044 1.382 . S
C1079 H1056 0.951 . S
C1079 C1078 1.398 . S
C1080 C1081 1.384 . S
C1080 H1093 0.947 . S
C1080 C1115 1.382 . S
C1081 C1080 1.384 . S
C1081 C1082 1.378 . S
C1082 C1081 1.378 . S
C1082 C1083 1.378 . S
C1082 H1094 0.952 . S
C1083 C1082 1.378 . S
C1083 H1095 0.950 . S
C1083 C1114 1.383 . S
H1084 C1103 0.947 . S
H1085 C1104 0.946 . S
H1086 C1106 0.953 . S
H1087 C1107 0.945 . S
H1088 C1109 0.952 . S
H1089 C1110 0.949 . S
H1090 C1112 0.950 . S
H1091 C1113 0.948 . S
H1092 C1115 0.951 . S
H1093 C1080 0.947 . S
H1094 C1082 0.952 . S
H1095 C1083 0.950 . S
N1096 C1099 1.382 . S
N1096 C1101 1.363 . S
N1097 C1099 1.371 . S
N1097 C1100 1.372 . S
N1098 C1100 1.361 . S
N1098 C1101 1.377 . S
C1099 N1096 1.382 . S
C1099 N1097 1.371 . S
C1099 C1102 1.480 . S
C1100 N1097 1.372 . S
C1100 N1098 1.361 . S
C1100 C1108 1.457 . S
C1101 N1096 1.363 . S
C1101 N1098 1.377 . S
C1101 C1114 1.479 . S
C1102 C1099 1.480 . S
C1102 C1103 1.383 . S
C1102 C1107 1.385 . S
C1103 H1084 0.947 . S
C1103 C1102 1.383 . S
C1103 C1104 1.388 . S
C1104 H1085 0.946 . S
C1104 C1103 1.388 . S
C1104 C1105 1.384 . S
C1105 C1104 1.384 . S
C1105 C1106 1.377 . S
C1106 H1086 0.953 . S
C1106 C1105 1.377 . S
C1106 C1107 1.369 . S
C1107 H1087 0.945 . S
C1107 C1102 1.385 . S
C1107 C1106 1.369 . S
C1108 C1100 1.457 . S
C1108 C1109 1.372 . S
C1108 C1113 1.364 . S
C1109 H1088 0.952 . S
C1109 C1108 1.372 . S
C1109 C1110 1.389 . S
C1110 H1089 0.949 . S
C1110 C1109 1.389 . S
C1110 C1111 1.387 . S
C1111 C1110 1.387 . S
C1111 C1112 1.372 . S
C1112 H1090 0.950 . S
C1112 C1111 1.372 . S
C1112 C1113 1.379 . S
C1113 H1091 0.948 . S
C1113 C1108 1.364 . S
C1113 C1112 1.379 . S
C1114 C1083 1.383 . S
C1114 C1101 1.479 . S
C1114 C1115 1.398 . S
C1115 C1080 1.382 . S
C1115 H1092 0.951 . S
C1115 C1114 1.398 . S
C1116 C1117 1.384 . S
C1116 H1129 0.947 . S
C1116 C1151 1.382 . S
C1117 C1116 1.384 . S
C1117 C1118 1.378 . S
C1118 C1117 1.378 . S
C1118 C1119 1.378 . S
C1118 H1130 0.952 . S
C1119 C1118 1.378 . S
C1119 H1131 0.950 . S
C1119 C1150 1.383 . S
H1120 C1139 0.947 . S
H1121 C1140 0.946 . S
H1122 C1142 0.953 . S
H1123 C1143 0.945 . S
H1124 C1145 0.952 . S
H1125 C1146 0.949 . S
H1126 C1148 0.950 . S
H1127 C1149 0.948 . S
H1128 C1151 0.951 . S
H1129 C1116 0.947 . S
H1130 C1118 0.952 . S
H1131 C1119 0.950 . S
N1132 C1135 1.382 . S
N1132 C1137 1.363 . S
N1133 C1135 1.371 . S
N1133 C1136 1.372 . S
N1134 C1136 1.361 . S
N1134 C1137 1.377 . S
C1135 N1132 1.382 . S
C1135 N1133 1.371 . S
C1135 C1138 1.480 . S
C1136 N1133 1.372 . S
C1136 N1134 1.361 . S
C1136 C1144 1.457 . S
C1137 N1132 1.363 . S
C1137 N1134 1.377 . S
C1137 C1150 1.479 . S
C1138 C1135 1.480 . S
C1138 C1139 1.383 . S
C1138 C1143 1.385 . S
C1139 H1120 0.947 . S
C1139 C1138 1.383 . S
C1139 C1140 1.388 . S
C1140 H1121 0.946 . S
C1140 C1139 1.388 . S
C1140 C1141 1.384 . S
C1141 C1140 1.384 . S
C1141 C1142 1.377 . S
C1142 H1122 0.953 . S
C1142 C1141 1.377 . S
C1142 C1143 1.369 . S
C1143 H1123 0.945 . S
C1143 C1138 1.385 . S
C1143 C1142 1.369 . S
C1144 C1136 1.457 . S
C1144 C1145 1.372 . S
C1144 C1149 1.364 . S
C1145 H1124 0.952 . S
C1145 C1144 1.372 . S
C1145 C1146 1.389 . S
C1146 H1125 0.949 . S
C1146 C1145 1.389 . S
C1146 C1147 1.387 . S
C1147 C1146 1.387 . S
C1147 C1148 1.372 . S
C1148 H1126 0.950 . S
C1148 C1147 1.372 . S
C1148 C1149 1.379 . S
C1149 H1127 0.948 . S
C1149 C1144 1.364 . S
C1149 C1148 1.379 . S
C1150 C1119 1.383 . S
C1150 C1137 1.479 . S
C1150 C1151 1.398 . S
C1151 C1116 1.382 . S
C1151 H1128 0.951 . S
C1151 C1150 1.398 . S
Cu1152 N1153 1.999 . S
Cu1152 O1158 1.974 1_554 S
Cu1152 N1163 1.985 . S
Cu1152 O1172 1.959 . S
N1153 Cu1152 1.999 . S
N1153 C1155 1.263 1_554 S
N1153 C1157 1.389 . S
N1154 C1155 1.358 . S
N1154 C1156 1.400 . S
C1155 N1153 1.263 1_556 S
C1155 N1154 1.358 . S
C1155 H1161 0.930 . S
C1156 N1154 1.400 . S
C1156 C1157 1.351 1_556 S
C1156 H1173 0.930 . S
C1157 N1153 1.389 . S
C1157 C1156 1.351 1_554 S
C1157 H1162 0.930 . S
O1158 Cu1152 1.974 1_556 S
O1158 C1168 1.282 . S
C1159 O1160 1.261 . S
C1159 O1172 1.251 . S
O1160 C1159 1.261 . S
H1161 C1155 0.930 . S
H1162 C1157 0.930 . S
N1163 Cu1152 1.985 . S
N1163 C1165 1.335 . S
N1163 C1166 1.390 . S
N1164 C1165 1.345 . S
N1164 C1167 1.336 . S
C1165 N1163 1.335 . S
C1165 N1164 1.345 . S
C1165 H1170 0.930 . S
C1166 N1163 1.390 . S
C1166 C1167 1.346 . S
C1166 H1171 0.930 . S
C1167 N1164 1.336 . S
C1167 C1166 1.346 . S
C1167 H1174 0.929 . S
C1168 O1158 1.282 . S
C1168 O1169 1.216 . S
O1169 C1168 1.216 . S
H1170 C1165 0.930 . S
H1171 C1166 0.930 . S
O1172 Cu1152 1.959 . S
O1172 C1159 1.251 . S
H1173 C1156 0.930 . S
H1174 C1167 0.929 . S
Cu1175 N1176 1.999 . S
Cu1175 O1181 1.974 . S
Cu1175 N1186 1.985 1_554 S
Cu1175 O1195 1.959 1_554 S
N1176 Cu1175 1.999 . S
N1176 C1178 1.263 . S
N1176 C1180 1.389 . S
N1177 C1178 1.358 . S
N1177 C1179 1.400 . S
C1178 N1176 1.263 . S
C1178 N1177 1.358 . S
C1178 H1184 0.930 . S
C1179 N1177 1.400 . S
C1179 C1180 1.351 . S
C1179 H1196 0.930 . S
C1180 N1176 1.389 . S
C1180 C1179 1.351 . S
C1180 H1185 0.930 . S
O1181 Cu1175 1.974 . S
O1181 C1191 1.282 . S
C1182 O1183 1.261 . S
C1182 O1195 1.251 . S
O1183 C1182 1.261 . S
H1184 C1178 0.930 . S
H1185 C1180 0.930 . S
N1186 Cu1175 1.985 1_556 S
N1186 C1188 1.335 . S
N1186 C1189 1.390 . S
N1187 C1188 1.345 . S
N1187 C1190 1.336 . S
C1188 N1186 1.335 . S
C1188 N1187 1.345 . S
C1188 H1193 0.930 . S
C1189 N1186 1.390 . S
C1189 C1190 1.346 . S
C1189 H1194 0.930 1_556 S
C1190 N1187 1.336 . S
C1190 C1189 1.346 . S
C1190 H1197 0.929 . S
C1191 O1181 1.282 . S
C1191 O1192 1.216 . S
O1192 C1191 1.216 . S
H1193 C1188 0.930 . S
H1194 C1189 0.930 1_554 S
O1195 Cu1175 1.959 1_556 S
O1195 C1182 1.251 . S
H1196 C1179 0.930 . S
H1197 C1190 0.929 . S
Cu1198 N1199 1.959 1_554 S
Cu1198 O1204 1.924 1_554 S
Cu1198 N1209 2.025 . S
Cu1198 O1218 2.009 . S
N1199 Cu1198 1.959 1_556 S
N1199 C1201 1.263 . S
N1199 C1203 1.389 . S
N1200 C1201 1.358 . S
N1200 C1202 1.400 . S
C1201 N1199 1.263 . S
C1201 N1200 1.358 . S
C1201 H1207 0.930 . S
C1202 N1200 1.400 . S
C1202 C1203 1.351 . S
C1202 H1219 0.930 . S
C1203 N1199 1.389 . S
C1203 C1202 1.351 . S
C1203 H1208 0.930 . S
O1204 Cu1198 1.924 1_556 S
O1204 C1214 1.282 . S
C1205 O1206 1.261 . S
C1205 O1218 1.251 . S
O1206 C1205 1.261 . S
H1207 C1201 0.930 . S
H1208 C1203 0.930 . S
N1209 Cu1198 2.025 . S
N1209 C1211 1.335 . S
N1209 C1212 1.390 . S
N1210 C1211 1.345 . S
N1210 C1213 1.336 . S
C1211 N1209 1.335 . S
C1211 N1210 1.345 . S
C1211 H1216 0.930 . S
C1212 N1209 1.390 . S
C1212 C1213 1.346 . S
C1212 H1217 0.967 . S
C1213 N1210 1.336 . S
C1213 C1212 1.346 . S
C1213 H1220 0.929 . S
C1214 O1204 1.282 . S
C1214 O1215 1.216 . S
O1215 C1214 1.216 . S
H1216 C1211 0.930 . S
H1217 C1212 0.967 . S
O1218 Cu1198 2.009 . S
O1218 C1205 1.251 . S
H1219 C1202 0.930 . S
H1220 C1213 0.929 . S
Cu1221 N1222 2.006 . S
Cu1221 O1227 1.982 . S
Cu1221 N1232 1.978 1_554 S
Cu1221 O1241 1.951 1_554 S
N1222 Cu1221 2.006 . S
N1222 C1224 1.263 . S
N1222 C1226 1.389 . S
N1223 C1224 1.358 . S
N1223 C1225 1.400 . S
C1224 N1222 1.263 . S
C1224 N1223 1.358 . S
C1224 H1230 0.930 . S
C1225 N1223 1.400 . S
C1225 C1226 1.351 . S
C1225 H1242 0.930 . S
C1226 N1222 1.389 . S
C1226 C1225 1.351 . S
C1226 H1231 0.930 . S
O1227 Cu1221 1.982 . S
O1227 C1237 1.282 . S
C1228 O1229 1.261 . S
C1228 O1241 1.251 . S
O1229 C1228 1.261 . S
H1230 C1224 0.930 . S
H1231 C1226 0.930 . S
N1232 Cu1221 1.978 1_556 S
N1232 C1234 1.335 . S
N1232 C1235 1.390 . S
N1233 C1234 1.345 . S
N1233 C1236 1.336 . S
C1234 N1232 1.335 . S
C1234 N1233 1.345 . S
C1234 H1239 0.930 . S
C1235 N1232 1.390 . S
C1235 C1236 1.346 . S
C1235 H1240 0.907 1_556 S
C1236 N1233 1.336 . S
C1236 C1235 1.346 . S
C1236 H1243 0.929 . S
C1237 O1227 1.282 . S
C1237 O1238 1.216 . S
O1238 C1237 1.216 . S
H1239 C1234 0.930 . S
H1240 C1235 0.907 1_554 S
O1241 Cu1221 1.951 1_556 S
O1241 C1228 1.251 . S
H1242 C1225 0.930 . S
H1243 C1236 0.929 . S
Cu1244 N1245 1.999 . S
Cu1244 O1250 1.974 . S
Cu1244 N1255 1.985 1_455 S
Cu1244 O1264 1.959 1_455 S
N1245 Cu1244 1.999 . S
N1245 C1247 1.263 . S
N1245 C1249 1.389 . S
N1246 C1247 1.358 . S
N1246 C1248 1.400 . S
C1247 N1245 1.263 . S
C1247 N1246 1.358 . S
C1247 H1253 0.930 . S
C1248 N1246 1.400 . S
C1248 C1249 1.351 . S
C1248 H1265 0.930 . S
C1249 N1245 1.389 . S
C1249 C1248 1.351 . S
C1249 H1254 0.930 . S
O1250 Cu1244 1.974 . S
O1250 C1260 1.282 . S
C1251 O1252 1.261 . S
C1251 O1264 1.251 . S
O1252 C1251 1.261 . S
H1253 C1247 0.930 . S
H1254 C1249 0.930 . S
N1255 Cu1244 1.985 1_655 S
N1255 C1257 1.335 . S
N1255 C1258 1.379 1_655 S
N1256 C1257 1.345 . S
N1256 C1259 1.336 . S
C1257 N1255 1.335 . S
C1257 N1256 1.345 . S
C1257 H1262 0.930 . S
C1258 N1255 1.379 1_455 S
C1258 C1259 1.291 1_455 S
C1258 H1263 0.988 . S
C1259 N1256 1.336 . S
C1259 C1258 1.291 1_655 S
C1259 H1266 0.929 . S
C1260 O1250 1.282 . S
C1260 O1261 1.216 . S
O1261 C1260 1.216 . S
H1262 C1257 0.930 . S
H1263 C1258 0.988 . S
O1264 Cu1244 1.959 1_655 S
O1264 C1251 1.251 . S
H1265 C1248 0.930 . S
H1266 C1259 0.929 . S
Cu1267 N1268 1.999 . S
Cu1267 O1273 1.974 . S
Cu1267 N1278 1.985 1_545 S
Cu1267 O1287 1.959 1_545 S
N1268 Cu1267 1.999 . S
N1268 C1270 1.263 . S
N1268 C1272 1.389 . S
N1269 C1270 1.358 . S
N1269 C1271 1.400 . S
C1270 N1268 1.263 . S
C1270 N1269 1.358 . S
C1270 H1276 0.930 . S
C1271 N1269 1.400 . S
C1271 C1272 1.351 . S
C1271 H1288 0.930 . S
C1272 N1268 1.389 . S
C1272 C1271 1.351 . S
C1272 H1277 0.930 . S
O1273 Cu1267 1.974 . S
O1273 C1283 1.282 . S
C1274 O1275 1.261 . S
C1274 O1287 1.251 . S
O1275 C1274 1.261 . S
H1276 C1270 0.930 . S
H1277 C1272 0.930 . S
N1278 Cu1267 1.985 1_565 S
N1278 C1280 1.335 . S
N1278 C1281 1.390 . S
N1279 C1280 1.345 . S
N1279 C1282 1.336 . S
C1280 N1278 1.335 . S
C1280 N1279 1.345 . S
C1280 H1285 0.930 . S
C1281 N1278 1.390 . S
C1281 C1282 1.346 . S
C1281 H1286 0.930 1_565 S
C1282 N1279 1.336 . S
C1282 C1281 1.346 . S
C1282 H1289 0.929 . S
C1283 O1273 1.282 . S
C1283 O1284 1.216 . S
O1284 C1283 1.216 . S
H1285 C1280 0.930 . S
H1286 C1281 0.930 1_545 S
O1287 Cu1267 1.959 1_565 S
O1287 C1274 1.251 . S
H1288 C1271 0.930 . S
H1289 C1282 0.929 . S
Cu1290 N1291 2.004 1_455 S
Cu1290 O1296 1.979 1_455 S
Cu1290 N1301 1.980 . S
Cu1290 O1310 1.954 . S
N1291 Cu1290 2.004 1_655 S
N1291 C1293 1.263 . S
N1291 C1295 1.389 . S
N1292 C1293 1.358 . S
N1292 C1294 1.400 . S
C1293 N1291 1.263 . S
C1293 N1292 1.358 . S
C1293 H1299 0.930 . S
C1294 N1292 1.400 . S
C1294 C1295 1.351 . S
C1294 H1311 0.930 . S
C1295 N1291 1.389 . S
C1295 C1294 1.351 . S
C1295 H1300 0.930 . S
O1296 Cu1290 1.979 1_655 S
O1296 C1306 1.282 . S
C1297 O1298 1.261 . S
C1297 O1310 1.251 . S
O1298 C1297 1.261 . S
H1299 C1293 0.930 . S
H1300 C1295 0.930 . S
N1301 Cu1290 1.980 . S
N1301 C1303 1.335 . S
N1301 C1304 1.390 . S
N1302 C1303 1.345 . S
N1302 C1305 1.336 . S
C1303 N1301 1.335 . S
C1303 N1302 1.345 . S
C1303 H1308 0.930 . S
C1304 N1301 1.390 . S
C1304 C1305 1.346 . S
C1304 H1309 0.930 . S
C1305 N1302 1.336 . S
C1305 C1304 1.346 . S
C1305 H1312 0.929 . S
C1306 O1296 1.282 . S
C1306 O1307 1.216 . S
O1307 C1306 1.216 . S
H1308 C1303 0.930 . S
H1309 C1304 0.930 . S
O1310 Cu1290 1.954 . S
O1310 C1297 1.251 . S
H1311 C1294 0.930 . S
H1312 C1305 0.929 . S
Cu1313 N1314 1.988 1_565 S
Cu1313 O1319 1.959 1_565 S
Cu1313 N1324 1.996 . S
Cu1313 O1333 1.973 . S
N1314 Cu1313 1.988 1_545 S
N1314 C1316 1.263 . S
N1314 C1318 1.389 . S
N1315 C1316 1.358 . S
N1315 C1317 1.400 . S
C1316 N1314 1.263 . S
C1316 N1315 1.358 . S
C1316 H1322 0.930 . S
C1317 N1315 1.400 . S
C1317 C1318 1.351 . S
C1317 H1334 0.930 . S
C1318 N1314 1.389 . S
C1318 C1317 1.351 . S
C1318 H1323 0.930 . S
O1319 Cu1313 1.959 1_545 S
O1319 C1329 1.282 . S
C1320 O1321 1.261 . S
C1320 O1333 1.251 . S
O1321 C1320 1.261 . S
H1322 C1316 0.930 . S
H1323 C1318 0.930 . S
N1324 Cu1313 1.996 . S
N1324 C1326 1.335 . S
N1324 C1327 1.390 . S
N1325 C1326 1.345 . S
N1325 C1328 1.336 . S
C1326 N1324 1.335 . S
C1326 N1325 1.345 . S
C1326 H1331 0.930 . S
C1327 N1324 1.390 . S
C1327 C1328 1.346 . S
C1327 H1332 0.930 . S
C1328 N1325 1.336 . S
C1328 C1327 1.346 . S
C1328 H1335 0.929 . S
C1329 O1319 1.282 . S
C1329 O1330 1.216 . S
O1330 C1329 1.216 . S
H1331 C1326 0.930 . S
H1332 C1327 0.930 . S
O1333 Cu1313 1.973 . S
O1333 C1320 1.251 . S
H1334 C1317 0.930 . S
H1335 C1328 0.929 . S
Cu1336 N1337 1.999 . S
Cu1336 O1342 1.974 . S
Cu1336 N1347 1.985 1_455 S
Cu1336 O1356 1.959 1_455 S
N1337 Cu1336 1.999 . S
N1337 C1339 1.263 . S
N1337 C1341 1.389 . S
N1338 C1339 1.358 . S
N1338 C1340 1.400 . S
C1339 N1337 1.263 . S
C1339 N1338 1.358 . S
C1339 H1345 0.930 . S
C1340 N1338 1.400 . S
C1340 C1341 1.351 . S
C1340 H1357 0.930 . S
C1341 N1337 1.389 . S
C1341 C1340 1.351 . S
C1341 H1346 0.930 . S
O1342 Cu1336 1.974 . S
O1342 C1352 1.282 . S
C1343 O1344 1.261 . S
C1343 O1356 1.251 . S
O1344 C1343 1.261 . S
H1345 C1339 0.930 . S
H1346 C1341 0.930 . S
N1347 Cu1336 1.985 1_655 S
N1347 C1349 1.335 . S
N1347 C1350 1.390 1_655 S
N1348 C1349 1.345 . S
N1348 C1351 1.336 . S
C1349 N1347 1.335 . S
C1349 N1348 1.345 . S
C1349 H1354 0.930 . S
C1350 N1347 1.390 1_455 S
C1350 C1351 1.345 1_455 S
C1350 H1355 0.932 . S
C1351 N1348 1.336 . S
C1351 C1350 1.345 1_655 S
C1351 H1358 0.929 . S
C1352 O1342 1.282 . S
C1352 O1353 1.216 . S
O1353 C1352 1.216 . S
H1354 C1349 0.930 . S
H1355 C1350 0.932 . S
O1356 Cu1336 1.959 1_655 S
O1356 C1343 1.251 . S
H1357 C1340 0.930 . S
H1358 C1351 0.929 . S
Cu1359 N1360 1.999 . S
Cu1359 O1365 1.974 . S
Cu1359 N1370 1.948 1_545 S
Cu1359 O1379 1.959 1_545 S
N1360 Cu1359 1.999 . S
N1360 C1362 1.263 . S
N1360 C1364 1.389 . S
N1361 C1362 1.358 . S
N1361 C1363 1.400 . S
C1362 N1360 1.263 . S
C1362 N1361 1.358 . S
C1362 H1368 0.930 . S
C1363 N1361 1.400 . S
C1363 C1364 1.351 . S
C1363 H1380 0.930 . S
C1364 N1360 1.389 . S
C1364 C1363 1.351 . S
C1364 H1369 0.930 . S
O1365 Cu1359 1.974 . S
O1365 C1375 1.282 . S
C1366 O1367 1.261 . S
C1366 O1379 1.251 . S
O1367 C1366 1.261 . S
H1368 C1362 0.930 . S
H1369 C1364 0.930 . S
N1370 Cu1359 1.948 1_565 S
N1370 C1372 1.391 . S
N1370 C1373 1.381 1_565 S
N1371 C1372 1.345 . S
N1371 C1374 1.336 . S
C1372 N1370 1.391 . S
C1372 N1371 1.345 . S
C1372 H1377 0.930 . S
C1373 N1370 1.381 1_545 S
C1373 C1374 1.346 1_545 S
C1373 H1378 0.930 . S
C1374 N1371 1.336 . S
C1374 C1373 1.346 1_565 S
C1374 H1381 0.929 . S
C1375 O1365 1.282 . S
C1375 O1376 1.216 . S
O1376 C1375 1.216 . S
H1377 C1372 0.930 . S
H1378 C1373 0.930 . S
O1379 Cu1359 1.959 1_565 S
O1379 C1366 1.251 . S
H1380 C1363 0.930 . S
H1381 C1374 0.929 . S
Cu1382 N1383 1.999 . S
Cu1382 O1388 1.974 . S
Cu1382 N1393 1.985 . S
Cu1382 O1402 1.959 . S
N1383 Cu1382 1.999 . S
N1383 C1385 1.263 1_455 S
N1383 C1387 1.389 . S
N1384 C1385 1.358 . S
N1384 C1386 1.400 . S
C1385 N1383 1.263 1_655 S
C1385 N1384 1.358 . S
C1385 H1391 0.930 . S
C1386 N1384 1.400 . S
C1386 C1387 1.351 1_655 S
C1386 H1403 0.930 . S
C1387 N1383 1.389 . S
C1387 C1386 1.351 1_455 S
C1387 H1392 0.930 . S
O1388 Cu1382 1.974 . S
O1388 C1398 1.282 1_455 S
C1389 O1390 1.261 . S
C1389 O1402 1.251 . S
O1390 C1389 1.261 . S
H1391 C1385 0.930 . S
H1392 C1387 0.930 . S
N1393 Cu1382 1.985 . S
N1393 C1395 1.335 . S
N1393 C1396 1.390 . S
N1394 C1395 1.345 . S
N1394 C1397 1.336 . S
C1395 N1393 1.335 . S
C1395 N1394 1.345 . S
C1395 H1400 0.930 . S
C1396 N1393 1.390 . S
C1396 C1397 1.346 . S
C1396 H1401 0.930 . S
C1397 N1394 1.336 . S
C1397 C1396 1.346 . S
C1397 H1404 0.929 . S
C1398 O1388 1.282 1_655 S
C1398 O1399 1.216 1_655 S
O1399 C1398 1.216 1_455 S
H1400 C1395 0.930 . S
H1401 C1396 0.930 . S
O1402 Cu1382 1.959 . S
O1402 C1389 1.251 . S
H1403 C1386 0.930 . S
H1404 C1397 0.929 . S
Cu1405 N1406 1.999 . S
Cu1405 O1411 1.974 . S
Cu1405 N1416 2.027 . S
Cu1405 O1425 1.959 1_545 S
N1406 Cu1405 1.999 . S
N1406 C1408 1.263 . S
N1406 C1410 1.389 . S
N1407 C1408 1.358 . S
N1407 C1409 1.400 . S
C1408 N1406 1.263 . S
C1408 N1407 1.358 . S
C1408 H1414 0.930 . S
C1409 N1407 1.400 . S
C1409 C1410 1.351 . S
C1409 H1426 0.930 . S
C1410 N1406 1.389 . S
C1410 C1409 1.351 . S
C1410 H1415 0.930 . S
O1411 Cu1405 1.974 . S
O1411 C1421 1.282 . S
C1412 O1413 1.256 1_565 S
C1412 O1425 1.251 . S
O1413 C1412 1.256 1_545 S
H1414 C1408 0.930 . S
H1415 C1410 0.930 . S
N1416 Cu1405 2.027 . S
N1416 C1418 1.269 1_545 S
N1416 C1419 1.407 . S
N1417 C1418 1.345 . S
N1417 C1420 1.336 . S
C1418 N1416 1.269 1_565 S
C1418 N1417 1.345 . S
C1418 H1423 0.930 . S
C1419 N1416 1.407 . S
C1419 C1420 1.346 1_545 S
C1419 H1424 0.930 . S
C1420 N1417 1.336 . S
C1420 C1419 1.346 1_565 S
C1420 H1427 0.929 . S
C1421 O1411 1.282 . S
C1421 O1422 1.216 . S
O1422 C1421 1.216 . S
H1423 C1418 0.930 . S
H1424 C1419 0.930 . S
O1425 Cu1405 1.959 1_565 S
O1425 C1412 1.251 . S
H1426 C1409 0.930 . S
H1427 C1420 0.929 . S
Cu1428 N1429 1.999 . S
Cu1428 O1434 1.974 . S
Cu1428 N1439 1.985 . S
Cu1428 O1448 1.959 . S
N1429 Cu1428 1.999 . S
N1429 C1431 1.263 . S
N1429 C1433 1.389 . S
N1430 C1431 1.358 . S
N1430 C1432 1.400 . S
C1431 N1429 1.263 . S
C1431 N1430 1.358 . S
C1431 H1437 0.930 . S
C1432 N1430 1.400 . S
C1432 C1433 1.351 . S
C1432 H1449 0.930 . S
C1433 N1429 1.389 . S
C1433 C1432 1.351 . S
C1433 H1438 0.930 . S
O1434 Cu1428 1.974 . S
O1434 C1444 1.282 . S
C1435 O1436 1.261 . S
C1435 O1448 1.251 . S
O1436 C1435 1.261 . S
H1437 C1431 0.930 . S
H1438 C1433 0.930 . S
N1439 Cu1428 1.985 . S
N1439 C1441 1.335 . S
N1439 C1442 1.390 . S
N1440 C1441 1.345 . S
N1440 C1443 1.336 . S
C1441 N1439 1.335 . S
C1441 N1440 1.345 . S
C1441 H1446 0.930 . S
C1442 N1439 1.390 . S
C1442 C1443 1.346 . S
C1442 H1447 0.930 . S
C1443 N1440 1.336 . S
C1443 C1442 1.346 . S
C1443 H1450 0.929 . S
C1444 O1434 1.282 . S
C1444 O1445 1.216 . S
O1445 C1444 1.216 . S
H1446 C1441 0.930 . S
H1447 C1442 0.930 . S
O1448 Cu1428 1.959 . S
O1448 C1435 1.251 . S
H1449 C1432 0.930 . S
H1450 C1443 0.929 . S
Cu1451 N1452 1.999 . S
Cu1451 O1457 1.974 . S
Cu1451 N1462 1.985 . S
Cu1451 O1471 1.959 . S
N1452 Cu1451 1.999 . S
N1452 C1454 1.263 . S
N1452 C1456 1.389 . S
N1453 C1454 1.358 . S
N1453 C1455 1.400 . S
C1454 N1452 1.263 . S
C1454 N1453 1.358 . S
C1454 H1460 0.930 . S
C1455 N1453 1.400 . S
C1455 C1456 1.351 . S
C1455 H1472 0.930 . S
C1456 N1452 1.389 . S
C1456 C1455 1.351 . S
C1456 H1461 0.930 . S
O1457 Cu1451 1.974 . S
O1457 C1467 1.282 . S
C1458 O1459 1.261 . S
C1458 O1471 1.251 . S
O1459 C1458 1.261 . S
H1460 C1454 0.930 . S
H1461 C1456 0.930 . S
N1462 Cu1451 1.985 . S
N1462 C1464 1.335 . S
N1462 C1465 1.390 . S
N1463 C1464 1.345 . S
N1463 C1466 1.336 . S
C1464 N1462 1.335 . S
C1464 N1463 1.345 . S
C1464 H1469 0.930 . S
C1465 N1462 1.390 . S
C1465 C1466 1.346 . S
C1465 H1470 0.930 . S
C1466 N1463 1.336 . S
C1466 C1465 1.346 . S
C1466 H1473 0.929 . S
C1467 O1457 1.282 . S
C1467 O1468 1.216 . S
O1468 C1467 1.216 . S
H1469 C1464 0.930 . S
H1470 C1465 0.930 . S
O1471 Cu1451 1.959 . S
O1471 C1458 1.251 . S
H1472 C1455 0.930 . S
H1473 C1466 0.929 . S
Cu1474 N1475 1.999 . S
Cu1474 O1480 1.974 . S
Cu1474 N1485 1.985 . S
Cu1474 O1494 1.959 . S
N1475 Cu1474 1.999 . S
N1475 C1477 1.263 . S
N1475 C1479 1.389 . S
N1476 C1477 1.358 . S
N1476 C1478 1.400 . S
C1477 N1475 1.263 . S
C1477 N1476 1.358 . S
C1477 H1483 0.930 . S
C1478 N1476 1.400 . S
C1478 C1479 1.351 . S
C1478 H1495 0.930 . S
C1479 N1475 1.389 . S
C1479 C1478 1.351 . S
C1479 H1484 0.930 . S
O1480 Cu1474 1.974 . S
O1480 C1490 1.282 . S
C1481 O1482 1.261 . S
C1481 O1494 1.251 . S
O1482 C1481 1.261 . S
H1483 C1477 0.930 . S
H1484 C1479 0.930 . S
N1485 Cu1474 1.985 . S
N1485 C1487 1.335 . S
N1485 C1488 1.390 . S
N1486 C1487 1.345 . S
N1486 C1489 1.336 . S
C1487 N1485 1.335 . S
C1487 N1486 1.345 . S
C1487 H1492 0.930 . S
C1488 N1485 1.390 . S
C1488 C1489 1.346 . S
C1488 H1493 0.930 . S
C1489 N1486 1.336 . S
C1489 C1488 1.346 . S
C1489 H1496 0.929 . S
C1490 O1480 1.282 . S
C1490 O1491 1.216 . S
O1491 C1490 1.216 . S
H1492 C1487 0.930 . S
H1493 C1488 0.930 . S
O1494 Cu1474 1.959 . S
O1494 C1481 1.251 . S
H1495 C1478 0.930 . S
H1496 C1489 0.929 . S
Cu1497 N1498 1.999 . S
Cu1497 O1503 1.974 . S
Cu1497 N1508 1.985 . S
Cu1497 O1517 1.959 . S
N1498 Cu1497 1.999 . S
N1498 C1500 1.263 . S
N1498 C1502 1.389 . S
N1499 C1500 1.358 . S
N1499 C1501 1.400 . S
C1500 N1498 1.263 . S
C1500 N1499 1.358 . S
C1500 H1506 0.930 . S
C1501 N1499 1.400 . S
C1501 C1502 1.351 . S
C1501 H1518 0.930 . S
C1502 N1498 1.389 . S
C1502 C1501 1.351 . S
C1502 H1507 0.930 . S
O1503 Cu1497 1.974 . S
O1503 C1513 1.282 . S
C1504 O1505 1.261 . S
C1504 O1517 1.251 . S
O1505 C1504 1.261 . S
H1506 C1500 0.930 . S
H1507 C1502 0.930 . S
N1508 Cu1497 1.985 . S
N1508 C1510 1.335 . S
N1508 C1511 1.390 . S
N1509 C1510 1.345 . S
N1509 C1512 1.336 . S
C1510 N1508 1.335 . S
C1510 N1509 1.345 . S
C1510 H1515 0.930 . S
C1511 N1508 1.390 . S
C1511 C1512 1.346 . S
C1511 H1516 0.930 . S
C1512 N1509 1.336 . S
C1512 C1511 1.346 . S
C1512 H1519 0.929 . S
C1513 O1503 1.282 . S
C1513 O1514 1.216 . S
O1514 C1513 1.216 . S
H1515 C1510 0.930 . S
H1516 C1511 0.930 . S
O1517 Cu1497 1.959 . S
O1517 C1504 1.251 . S
H1518 C1501 0.930 . S
H1519 C1512 0.929 . S
Cu1520 N1521 1.999 . S
Cu1520 O1526 1.974 . S
Cu1520 N1531 1.985 . S
Cu1520 O1540 1.959 . S
N1521 Cu1520 1.999 . S
N1521 C1523 1.263 . S
N1521 C1525 1.389 . S
N1522 C1523 1.358 . S
N1522 C1524 1.400 . S
C1523 N1521 1.263 . S
C1523 N1522 1.358 . S
C1523 H1529 0.930 . S
C1524 N1522 1.400 . S
C1524 C1525 1.351 . S
C1524 H1541 0.930 . S
C1525 N1521 1.389 . S
C1525 C1524 1.351 . S
C1525 H1530 0.930 . S
O1526 Cu1520 1.974 . S
O1526 C1536 1.282 . S
C1527 O1528 1.261 . S
C1527 O1540 1.251 . S
O1528 C1527 1.261 . S
H1529 C1523 0.930 . S
H1530 C1525 0.930 . S
N1531 Cu1520 1.985 . S
N1531 C1533 1.335 . S
N1531 C1534 1.390 . S
N1532 C1533 1.345 . S
N1532 C1535 1.336 . S
C1533 N1531 1.335 . S
C1533 N1532 1.345 . S
C1533 H1538 0.930 . S
C1534 N1531 1.390 . S
C1534 C1535 1.346 . S
C1534 H1539 0.930 . S
C1535 N1532 1.336 . S
C1535 C1534 1.346 . S
C1535 H1542 0.929 . S
C1536 O1526 1.282 . S
C1536 O1537 1.216 . S
O1537 C1536 1.216 . S
H1538 C1533 0.930 . S
H1539 C1534 0.930 . S
O1540 Cu1520 1.959 . S
O1540 C1527 1.251 . S
H1541 C1524 0.930 . S
H1542 C1535 0.929 . S
Cu1543 N1544 1.999 . S
Cu1543 O1549 1.974 . S
Cu1543 N1554 1.985 . S
Cu1543 O1563 1.959 . S
N1544 Cu1543 1.999 . S
N1544 C1546 1.263 . S
N1544 C1548 1.389 . S
N1545 C1546 1.358 . S
N1545 C1547 1.400 . S
C1546 N1544 1.263 . S
C1546 N1545 1.358 . S
C1546 H1552 0.930 . S
C1547 N1545 1.400 . S
C1547 C1548 1.351 . S
C1547 H1564 0.930 . S
C1548 N1544 1.389 . S
C1548 C1547 1.351 . S
C1548 H1553 0.930 . S
O1549 Cu1543 1.974 . S
O1549 C1559 1.282 . S
C1550 O1551 1.261 . S
C1550 O1563 1.251 . S
O1551 C1550 1.261 . S
H1552 C1546 0.930 . S
H1553 C1548 0.930 . S
N1554 Cu1543 1.985 . S
N1554 C1556 1.335 . S
N1554 C1557 1.390 . S
N1555 C1556 1.345 . S
N1555 C1558 1.336 . S
C1556 N1554 1.335 . S
C1556 N1555 1.345 . S
C1556 H1561 0.930 . S
C1557 N1554 1.390 . S
C1557 C1558 1.346 . S
C1557 H1562 0.930 . S
C1558 N1555 1.336 . S
C1558 C1557 1.346 . S
C1558 H1565 0.929 . S
C1559 O1549 1.282 . S
C1559 O1560 1.216 . S
O1560 C1559 1.216 . S
H1561 C1556 0.930 . S
H1562 C1557 0.930 . S
O1563 Cu1543 1.959 . S
O1563 C1550 1.251 . S
H1564 C1547 0.930 . S
H1565 C1558 0.929 . S
Cu1566 N1567 1.999 . S
Cu1566 O1572 1.974 . S
Cu1566 N1577 1.985 . S
Cu1566 O1586 1.959 . S
N1567 Cu1566 1.999 . S
N1567 C1569 1.263 . S
N1567 C1571 1.389 . S
N1568 C1569 1.358 . S
N1568 C1570 1.400 . S
C1569 N1567 1.263 . S
C1569 N1568 1.358 . S
C1569 H1575 0.930 . S
C1570 N1568 1.400 . S
C1570 C1571 1.351 . S
C1570 H1587 0.930 . S
C1571 N1567 1.389 . S
C1571 C1570 1.351 . S
C1571 H1576 0.930 . S
O1572 Cu1566 1.974 . S
O1572 C1582 1.282 . S
C1573 O1574 1.261 . S
C1573 O1586 1.251 . S
O1574 C1573 1.261 . S
H1575 C1569 0.930 . S
H1576 C1571 0.930 . S
N1577 Cu1566 1.985 . S
N1577 C1579 1.335 . S
N1577 C1580 1.390 . S
N1578 C1579 1.345 . S
N1578 C1581 1.336 . S
C1579 N1577 1.335 . S
C1579 N1578 1.345 . S
C1579 H1584 0.930 . S
C1580 N1577 1.390 . S
C1580 C1581 1.346 . S
C1580 H1585 0.930 . S
C1581 N1578 1.336 . S
C1581 C1580 1.346 . S
C1581 H1588 0.929 . S
C1582 O1572 1.282 . S
C1582 O1583 1.216 . S
O1583 C1582 1.216 . S
H1584 C1579 0.930 . S
H1585 C1580 0.930 . S
O1586 Cu1566 1.959 . S
O1586 C1573 1.251 . S
H1587 C1570 0.930 . S
H1588 C1581 0.929 . S
Cu1589 N1590 1.999 . S
Cu1589 O1595 1.974 . S
Cu1589 N1600 1.985 . S
Cu1589 O1609 1.959 . S
N1590 Cu1589 1.999 . S
N1590 C1592 1.263 . S
N1590 C1594 1.389 . S
N1591 C1592 1.358 . S
N1591 C1593 1.400 . S
C1592 N1590 1.263 . S
C1592 N1591 1.358 . S
C1592 H1598 0.930 . S
C1593 N1591 1.400 . S
C1593 C1594 1.351 . S
C1593 H1610 0.930 . S
C1594 N1590 1.389 . S
C1594 C1593 1.351 . S
C1594 H1599 0.930 . S
O1595 Cu1589 1.974 . S
O1595 C1605 1.282 . S
C1596 O1597 1.261 . S
C1596 O1609 1.251 . S
O1597 C1596 1.261 . S
H1598 C1592 0.930 . S
H1599 C1594 0.930 . S
N1600 Cu1589 1.985 . S
N1600 C1602 1.335 . S
N1600 C1603 1.390 . S
N1601 C1602 1.345 . S
N1601 C1604 1.336 . S
C1602 N1600 1.335 . S
C1602 N1601 1.345 . S
C1602 H1607 0.930 . S
C1603 N1600 1.390 . S
C1603 C1604 1.346 . S
C1603 H1608 0.930 . S
C1604 N1601 1.336 . S
C1604 C1603 1.346 . S
C1604 H1611 0.929 . S
C1605 O1595 1.282 . S
C1605 O1606 1.216 . S
O1606 C1605 1.216 . S
H1607 C1602 0.930 . S
H1608 C1603 0.930 . S
O1609 Cu1589 1.959 . S
O1609 C1596 1.251 . S
H1610 C1593 0.930 . S
H1611 C1604 0.929 . S
Cu1612 N1613 1.999 . S
Cu1612 O1618 1.974 . S
Cu1612 N1623 1.985 . S
Cu1612 O1632 1.959 . S
N1613 Cu1612 1.999 . S
N1613 C1615 1.263 . S
N1613 C1617 1.389 . S
N1614 C1615 1.358 . S
N1614 C1616 1.400 . S
C1615 N1613 1.263 . S
C1615 N1614 1.358 . S
C1615 H1621 0.930 . S
C1616 N1614 1.400 . S
C1616 C1617 1.351 . S
C1616 H1633 0.930 . S
C1617 N1613 1.389 . S
C1617 C1616 1.351 . S
C1617 H1622 0.930 . S
O1618 Cu1612 1.974 . S
O1618 C1628 1.282 . S
C1619 O1620 1.261 . S
C1619 O1632 1.251 . S
O1620 C1619 1.261 . S
H1621 C1615 0.930 . S
H1622 C1617 0.930 . S
N1623 Cu1612 1.985 . S
N1623 C1625 1.335 . S
N1623 C1626 1.390 . S
N1624 C1625 1.345 . S
N1624 C1627 1.336 . S
C1625 N1623 1.335 . S
C1625 N1624 1.345 . S
C1625 H1630 0.930 . S
C1626 N1623 1.390 . S
C1626 C1627 1.346 . S
C1626 H1631 0.930 . S
C1627 N1624 1.336 . S
C1627 C1626 1.346 . S
C1627 H1634 0.929 . S
C1628 O1618 1.282 . S
C1628 O1629 1.216 . S
O1629 C1628 1.216 . S
H1630 C1625 0.930 . S
H1631 C1626 0.930 . S
O1632 Cu1612 1.959 . S
O1632 C1619 1.251 . S
H1633 C1616 0.930 . S
H1634 C1627 0.929 . S
Cu1635 N1636 1.999 . S
Cu1635 O1641 1.974 . S
Cu1635 N1646 1.985 . S
Cu1635 O1655 1.959 . S
N1636 Cu1635 1.999 . S
N1636 C1638 1.263 . S
N1636 C1640 1.389 . S
N1637 C1638 1.358 . S
N1637 C1639 1.400 . S
C1638 N1636 1.263 . S
C1638 N1637 1.358 . S
C1638 H1644 0.930 . S
C1639 N1637 1.400 . S
C1639 C1640 1.351 . S
C1639 H1656 0.930 . S
C1640 N1636 1.389 . S
C1640 C1639 1.351 . S
C1640 H1645 0.930 . S
O1641 Cu1635 1.974 . S
O1641 C1651 1.282 . S
C1642 O1643 1.261 . S
C1642 O1655 1.251 . S
O1643 C1642 1.261 . S
H1644 C1638 0.930 . S
H1645 C1640 0.930 . S
N1646 Cu1635 1.985 . S
N1646 C1648 1.335 . S
N1646 C1649 1.390 . S
N1647 C1648 1.345 . S
N1647 C1650 1.336 . S
C1648 N1646 1.335 . S
C1648 N1647 1.345 . S
C1648 H1653 0.930 . S
C1649 N1646 1.390 . S
C1649 C1650 1.346 . S
C1649 H1654 0.930 . S
C1650 N1647 1.336 . S
C1650 C1649 1.346 . S
C1650 H1657 0.929 . S
C1651 O1641 1.282 . S
C1651 O1652 1.216 . S
O1652 C1651 1.216 . S
H1653 C1648 0.930 . S
H1654 C1649 0.930 . S
O1655 Cu1635 1.959 . S
O1655 C1642 1.251 . S
H1656 C1639 0.930 . S
H1657 C1650 0.929 . S
Cu1658 N1659 1.999 . S
Cu1658 O1664 1.974 . S
Cu1658 N1669 1.985 . S
Cu1658 O1678 1.959 . S
N1659 Cu1658 1.999 . S
N1659 C1661 1.263 . S
N1659 C1663 1.389 . S
N1660 C1661 1.358 . S
N1660 C1662 1.400 . S
C1661 N1659 1.263 . S
C1661 N1660 1.358 . S
C1661 H1667 0.930 . S
C1662 N1660 1.400 . S
C1662 C1663 1.351 . S
C1662 H1679 0.930 . S
C1663 N1659 1.389 . S
C1663 C1662 1.351 . S
C1663 H1668 0.930 . S
O1664 Cu1658 1.974 . S
O1664 C1674 1.282 . S
C1665 O1666 1.261 . S
C1665 O1678 1.251 . S
O1666 C1665 1.261 . S
H1667 C1661 0.930 . S
H1668 C1663 0.930 . S
N1669 Cu1658 1.985 . S
N1669 C1671 1.335 . S
N1669 C1672 1.390 . S
N1670 C1671 1.345 . S
N1670 C1673 1.336 . S
C1671 N1669 1.335 . S
C1671 N1670 1.345 . S
C1671 H1676 0.930 . S
C1672 N1669 1.390 . S
C1672 C1673 1.346 . S
C1672 H1677 0.930 . S
C1673 N1670 1.336 . S
C1673 C1672 1.346 . S
C1673 H1680 0.929 . S
C1674 O1664 1.282 . S
C1674 O1675 1.216 . S
O1675 C1674 1.216 . S
H1676 C1671 0.930 . S
H1677 C1672 0.930 . S
O1678 Cu1658 1.959 . S
O1678 C1665 1.251 . S
H1679 C1662 0.930 . S
H1680 C1673 0.929 . S
Cu1681 N1682 1.999 . S
Cu1681 O1687 1.974 . S
Cu1681 N1692 1.985 . S
Cu1681 O1701 1.959 . S
N1682 Cu1681 1.999 . S
N1682 C1684 1.263 . S
N1682 C1686 1.389 . S
N1683 C1684 1.358 . S
N1683 C1685 1.400 . S
C1684 N1682 1.263 . S
C1684 N1683 1.358 . S
C1684 H1690 0.930 . S
C1685 N1683 1.400 . S
C1685 C1686 1.351 . S
C1685 H1702 0.930 . S
C1686 N1682 1.389 . S
C1686 C1685 1.351 . S
C1686 H1691 0.930 . S
O1687 Cu1681 1.974 . S
O1687 C1697 1.282 . S
C1688 O1689 1.261 . S
C1688 O1701 1.251 . S
O1689 C1688 1.261 . S
H1690 C1684 0.930 . S
H1691 C1686 0.930 . S
N1692 Cu1681 1.985 . S
N1692 C1694 1.335 . S
N1692 C1695 1.390 . S
N1693 C1694 1.345 . S
N1693 C1696 1.336 . S
C1694 N1692 1.335 . S
C1694 N1693 1.345 . S
C1694 H1699 0.930 . S
C1695 N1692 1.390 . S
C1695 C1696 1.346 . S
C1695 H1700 0.930 . S
C1696 N1693 1.336 . S
C1696 C1695 1.346 . S
C1696 H1703 0.929 . S
C1697 O1687 1.282 . S
C1697 O1698 1.216 . S
O1698 C1697 1.216 . S
H1699 C1694 0.930 . S
H1700 C1695 0.930 . S
O1701 Cu1681 1.959 . S
O1701 C1688 1.251 . S
H1702 C1685 0.930 . S
H1703 C1696 0.929 . S
H1704 C1716 0.930 . S
H1705 C1718 0.930 . S
H1706 C1719 0.930 . S
H1707 C1723 0.959 . S
H1708 C1723 0.959 . S
H1709 C1723 0.961 . S
H1710 C1724 0.960 . S
H1711 C1724 0.961 . S
H1712 C1724 0.959 . S
H1713 C1727 0.929 . S
H1714 C1728 0.931 . S
H1715 C1730 0.930 . S
C1716 H1704 0.930 . S
C1716 C1717 1.399 . S
C1716 C1721 1.399 . S
C1717 C1716 1.399 . S
C1717 C1718 1.376 . S
C1718 H1705 0.930 . S
C1718 C1717 1.376 . S
C1718 C1719 1.388 . S
C1719 H1706 0.930 . S
C1719 C1718 1.388 . S
C1719 C1720 1.390 . S
C1720 C1719 1.390 . S
C1720 C1721 1.394 . S
C1720 C1726 1.465 . S
C1721 C1716 1.399 . S
C1721 C1720 1.394 . S
C1721 C1722 1.516 . S
C1722 C1721 1.516 . S
C1722 C1723 1.502 . S
C1722 C1724 1.561 . S
C1722 C1725 1.526 . S
C1723 H1707 0.959 . S
C1723 H1708 0.959 . S
C1723 H1709 0.961 . S
C1723 C1722 1.502 . S
C1724 H1710 0.960 . S
C1724 H1711 0.961 . S
C1724 H1712 0.959 . S
C1724 C1722 1.561 . S
C1725 C1722 1.526 . S
C1725 C1726 1.396 . S
C1725 C1730 1.390 . S
C1726 C1720 1.465 . S
C1726 C1725 1.396 . S
C1726 C1727 1.399 . S
C1727 H1713 0.929 . S
C1727 C1726 1.399 . S
C1727 C1728 1.385 . S
C1728 H1714 0.931 . S
C1728 C1727 1.385 . S
C1728 C1729 1.389 . S
C1729 C1728 1.389 . S
C1729 C1730 1.387 . S
C1730 H1715 0.930 . S
C1730 C1725 1.390 . S
C1730 C1729 1.387 . S
H1731 C1743 0.930 . S
H1732 C1745 0.930 . S
H1733 C1746 0.930 . S
H1734 C1750 0.959 . S
H1735 C1750 0.959 . S
H1736 C1750 0.961 . S
H1737 C1751 0.960 . S
H1738 C1751 0.961 . S
H1739 C1751 0.959 . S
H1740 C1754 0.929 . S
H1741 C1755 0.931 . S
H1742 C1757 0.930 . S
C1743 H1731 0.930 . S
C1743 C1744 1.399 . S
C1743 C1748 1.399 . S
C1744 C1743 1.399 . S
C1744 C1745 1.376 . S
C1745 H1732 0.930 . S
C1745 C1744 1.376 . S
C1745 C1746 1.388 . S
C1746 H1733 0.930 . S
C1746 C1745 1.388 . S
C1746 C1747 1.390 . S
C1747 C1746 1.390 . S
C1747 C1748 1.394 . S
C1747 C1753 1.465 . S
C1748 C1743 1.399 . S
C1748 C1747 1.394 . S
C1748 C1749 1.516 . S
C1749 C1748 1.516 . S
C1749 C1750 1.502 . S
C1749 C1751 1.561 . S
C1749 C1752 1.526 . S
C1750 H1734 0.959 . S
C1750 H1735 0.959 . S
C1750 H1736 0.961 . S
C1750 C1749 1.502 . S
C1751 H1737 0.960 . S
C1751 H1738 0.961 . S
C1751 H1739 0.959 . S
C1751 C1749 1.561 . S
C1752 C1749 1.526 . S
C1752 C1753 1.396 . S
C1752 C1757 1.390 . S
C1753 C1747 1.465 . S
C1753 C1752 1.396 . S
C1753 C1754 1.399 . S
C1754 H1740 0.929 . S
C1754 C1753 1.399 . S
C1754 C1755 1.385 . S
C1755 H1741 0.931 . S
C1755 C1754 1.385 . S
C1755 C1756 1.389 . S
C1756 C1755 1.389 . S
C1756 C1757 1.387 . S
C1757 H1742 0.930 . S
C1757 C1752 1.390 . S
C1757 C1756 1.387 . S
H1758 C1770 0.930 . S
H1759 C1772 0.930 . S
H1760 C1773 0.930 . S
H1761 C1777 0.959 . S
H1762 C1777 0.959 . S
H1763 C1777 0.961 . S
H1764 C1778 0.960 . S
H1765 C1778 0.961 . S
H1766 C1778 0.959 . S
H1767 C1781 0.929 . S
H1768 C1782 0.931 . S
H1769 C1784 0.930 . S
C1770 H1758 0.930 . S
C1770 C1771 1.399 . S
C1770 C1775 1.399 . S
C1771 C1770 1.399 . S
C1771 C1772 1.376 . S
C1772 H1759 0.930 . S
C1772 C1771 1.376 . S
C1772 C1773 1.388 . S
C1773 H1760 0.930 . S
C1773 C1772 1.388 . S
C1773 C1774 1.390 . S
C1774 C1773 1.390 . S
C1774 C1775 1.394 . S
C1774 C1780 1.465 . S
C1775 C1770 1.399 . S
C1775 C1774 1.394 . S
C1775 C1776 1.516 . S
C1776 C1775 1.516 . S
C1776 C1777 1.502 . S
C1776 C1778 1.561 . S
C1776 C1779 1.526 . S
C1777 H1761 0.959 . S
C1777 H1762 0.959 . S
C1777 H1763 0.961 . S
C1777 C1776 1.502 . S
C1778 H1764 0.960 . S
C1778 H1765 0.961 . S
C1778 H1766 0.959 . S
C1778 C1776 1.561 . S
C1779 C1776 1.526 . S
C1779 C1780 1.396 . S
C1779 C1784 1.390 . S
C1780 C1774 1.465 . S
C1780 C1779 1.396 . S
C1780 C1781 1.399 . S
C1781 H1767 0.929 . S
C1781 C1780 1.399 . S
C1781 C1782 1.385 . S
C1782 H1768 0.931 . S
C1782 C1781 1.385 . S
C1782 C1783 1.389 . S
C1783 C1782 1.389 . S
C1783 C1784 1.387 . S
C1784 H1769 0.930 . S
C1784 C1779 1.390 . S
C1784 C1783 1.387 . S
H1785 C1797 0.930 . S
H1786 C1799 0.930 . S
H1787 C1800 0.930 . S
H1788 C1804 0.959 . S
H1789 C1804 0.959 . S
H1790 C1804 0.961 . S
H1791 C1805 0.960 . S
H1792 C1805 0.961 . S
H1793 C1805 0.959 . S
H1794 C1808 0.929 . S
H1795 C1809 0.931 . S
H1796 C1811 0.930 . S
C1797 H1785 0.930 . S
C1797 C1798 1.399 . S
C1797 C1802 1.399 . S
C1798 C1797 1.399 . S
C1798 C1799 1.376 . S
C1799 H1786 0.930 . S
C1799 C1798 1.376 . S
C1799 C1800 1.388 . S
C1800 H1787 0.930 . S
C1800 C1799 1.388 . S
C1800 C1801 1.390 . S
C1801 C1800 1.390 . S
C1801 C1802 1.394 . S
C1801 C1807 1.465 . S
C1802 C1797 1.399 . S
C1802 C1801 1.394 . S
C1802 C1803 1.516 . S
C1803 C1802 1.516 . S
C1803 C1804 1.502 . S
C1803 C1805 1.561 . S
C1803 C1806 1.526 . S
C1804 H1788 0.959 . S
C1804 H1789 0.959 . S
C1804 H1790 0.961 . S
C1804 C1803 1.502 . S
C1805 H1791 0.960 . S
C1805 H1792 0.961 . S
C1805 H1793 0.959 . S
C1805 C1803 1.561 . S
C1806 C1803 1.526 . S
C1806 C1807 1.396 . S
C1806 C1811 1.390 . S
C1807 C1801 1.465 . S
C1807 C1806 1.396 . S
C1807 C1808 1.399 . S
C1808 H1794 0.929 . S
C1808 C1807 1.399 . S
C1808 C1809 1.385 . S
C1809 H1795 0.931 . S
C1809 C1808 1.385 . S
C1809 C1810 1.389 . S
C1810 C1809 1.389 . S
C1810 C1811 1.387 . S
C1811 H1796 0.930 . S
C1811 C1806 1.390 . S
C1811 C1810 1.387 . S
H1812 C1824 0.930 . S
H1813 C1826 0.930 . S
H1814 C1827 0.930 . S
H1815 C1831 0.959 . S
H1816 C1831 0.959 . S
H1817 C1831 0.961 . S
H1818 C1832 0.960 . S
H1819 C1832 0.961 . S
H1820 C1832 0.959 . S
H1821 C1835 0.929 . S
H1822 C1836 0.931 . S
H1823 C1838 0.930 . S
C1824 H1812 0.930 . S
C1824 C1825 1.399 . S
C1824 C1829 1.399 . S
C1825 C1824 1.399 . S
C1825 C1826 1.376 . S
C1826 H1813 0.930 . S
C1826 C1825 1.376 . S
C1826 C1827 1.388 . S
C1827 H1814 0.930 . S
C1827 C1826 1.388 . S
C1827 C1828 1.390 . S
C1828 C1827 1.390 . S
C1828 C1829 1.394 . S
C1828 C1834 1.465 . S
C1829 C1824 1.399 . S
C1829 C1828 1.394 . S
C1829 C1830 1.516 . S
C1830 C1829 1.516 . S
C1830 C1831 1.502 . S
C1830 C1832 1.561 . S
C1830 C1833 1.526 . S
C1831 H1815 0.959 . S
C1831 H1816 0.959 . S
C1831 H1817 0.961 . S
C1831 C1830 1.502 . S
C1832 H1818 0.960 . S
C1832 H1819 0.961 . S
C1832 H1820 0.959 . S
C1832 C1830 1.561 . S
C1833 C1830 1.526 . S
C1833 C1834 1.396 . S
C1833 C1838 1.390 . S
C1834 C1828 1.465 . S
C1834 C1833 1.396 . S
C1834 C1835 1.399 . S
C1835 H1821 0.929 . S
C1835 C1834 1.399 . S
C1835 C1836 1.385 . S
C1836 H1822 0.931 . S
C1836 C1835 1.385 . S
C1836 C1837 1.389 . S
C1837 C1836 1.389 . S
C1837 C1838 1.387 . S
C1838 H1823 0.930 . S
C1838 C1833 1.390 . S
C1838 C1837 1.387 . S
H1839 C1851 0.930 . S
H1840 C1853 0.930 . S
H1841 C1854 0.930 . S
H1842 C1858 0.959 . S
H1843 C1858 0.959 . S
H1844 C1858 0.961 . S
H1845 C1859 0.960 . S
H1846 C1859 0.961 . S
H1847 C1859 0.959 . S
H1848 C1862 0.929 . S
H1849 C1863 0.931 . S
H1850 C1865 0.930 . S
C1851 H1839 0.930 . S
C1851 C1852 1.399 . S
C1851 C1856 1.399 . S
C1852 C1851 1.399 . S
C1852 C1853 1.376 . S
C1853 H1840 0.930 . S
C1853 C1852 1.376 . S
C1853 C1854 1.388 . S
C1854 H1841 0.930 . S
C1854 C1853 1.388 . S
C1854 C1855 1.390 . S
C1855 C1854 1.390 . S
C1855 C1856 1.394 . S
C1855 C1861 1.465 . S
C1856 C1851 1.399 . S
C1856 C1855 1.394 . S
C1856 C1857 1.516 . S
C1857 C1856 1.516 . S
C1857 C1858 1.502 . S
C1857 C1859 1.561 . S
C1857 C1860 1.526 . S
C1858 H1842 0.959 . S
C1858 H1843 0.959 . S
C1858 H1844 0.961 . S
C1858 C1857 1.502 . S
C1859 H1845 0.960 . S
C1859 H1846 0.961 . S
C1859 H1847 0.959 . S
C1859 C1857 1.561 . S
C1860 C1857 1.526 . S
C1860 C1861 1.396 . S
C1860 C1865 1.390 . S
C1861 C1855 1.465 . S
C1861 C1860 1.396 . S
C1861 C1862 1.399 . S
C1862 H1848 0.929 . S
C1862 C1861 1.399 . S
C1862 C1863 1.385 . S
C1863 H1849 0.931 . S
C1863 C1862 1.385 . S
C1863 C1864 1.389 . S
C1864 C1863 1.389 . S
C1864 C1865 1.387 . S
C1865 H1850 0.930 . S
C1865 C1860 1.390 . S
C1865 C1864 1.387 . S
H1866 C1878 0.930 . S
H1867 C1880 0.930 . S
H1868 C1881 0.930 . S
H1869 C1885 0.959 . S
H1870 C1885 0.959 . S
H1871 C1885 0.961 . S
H1872 C1886 0.960 . S
H1873 C1886 0.961 . S
H1874 C1886 0.959 . S
H1875 C1889 0.929 . S
H1876 C1890 0.931 . S
H1877 C1892 0.930 . S
C1878 H1866 0.930 . S
C1878 C1879 1.399 . S
C1878 C1883 1.399 . S
C1879 C1878 1.399 . S
C1879 C1880 1.376 . S
C1880 H1867 0.930 . S
C1880 C1879 1.376 . S
C1880 C1881 1.388 . S
C1881 H1868 0.930 . S
C1881 C1880 1.388 . S
C1881 C1882 1.390 . S
C1882 C1881 1.390 . S
C1882 C1883 1.394 . S
C1882 C1888 1.465 . S
C1883 C1878 1.399 . S
C1883 C1882 1.394 . S
C1883 C1884 1.516 . S
C1884 C1883 1.516 . S
C1884 C1885 1.502 . S
C1884 C1886 1.561 . S
C1884 C1887 1.526 . S
C1885 H1869 0.959 . S
C1885 H1870 0.959 . S
C1885 H1871 0.961 . S
C1885 C1884 1.502 . S
C1886 H1872 0.960 . S
C1886 H1873 0.961 . S
C1886 H1874 0.959 . S
C1886 C1884 1.561 . S
C1887 C1884 1.526 . S
C1887 C1888 1.396 . S
C1887 C1892 1.390 . S
C1888 C1882 1.465 . S
C1888 C1887 1.396 . S
C1888 C1889 1.399 . S
C1889 H1875 0.929 . S
C1889 C1888 1.399 . S
C1889 C1890 1.385 . S
C1890 H1876 0.931 . S
C1890 C1889 1.385 . S
C1890 C1891 1.389 . S
C1891 C1890 1.389 . S
C1891 C1892 1.387 . S
C1892 H1877 0.930 . S
C1892 C1887 1.390 . S
C1892 C1891 1.387 . S
H1893 C1905 0.930 . S
H1894 C1907 0.930 . S
H1895 C1908 0.930 . S
H1896 C1912 0.959 . S
H1897 C1912 0.959 . S
H1898 C1912 0.961 . S
H1899 C1913 0.960 . S
H1900 C1913 0.961 . S
H1901 C1913 0.959 . S
H1902 C1916 0.929 . S
H1903 C1917 0.931 . S
H1904 C1919 0.930 . S
C1905 H1893 0.930 . S
C1905 C1906 1.399 . S
C1905 C1910 1.399 . S
C1906 C1905 1.399 . S
C1906 C1907 1.376 . S
C1907 H1894 0.930 . S
C1907 C1906 1.376 . S
C1907 C1908 1.388 . S
C1908 H1895 0.930 . S
C1908 C1907 1.388 . S
C1908 C1909 1.390 . S
C1909 C1908 1.390 . S
C1909 C1910 1.394 . S
C1909 C1915 1.465 . S
C1910 C1905 1.399 . S
C1910 C1909 1.394 . S
C1910 C1911 1.516 . S
C1911 C1910 1.516 . S
C1911 C1912 1.502 . S
C1911 C1913 1.561 . S
C1911 C1914 1.526 . S
C1912 H1896 0.959 . S
C1912 H1897 0.959 . S
C1912 H1898 0.961 . S
C1912 C1911 1.502 . S
C1913 H1899 0.960 . S
C1913 H1900 0.961 . S
C1913 H1901 0.959 . S
C1913 C1911 1.561 . S
C1914 C1911 1.526 . S
C1914 C1915 1.396 . S
C1914 C1919 1.390 . S
C1915 C1909 1.465 . S
C1915 C1914 1.396 . S
C1915 C1916 1.399 . S
C1916 H1902 0.929 . S
C1916 C1915 1.399 . S
C1916 C1917 1.385 . S
C1917 H1903 0.931 . S
C1917 C1916 1.385 . S
C1917 C1918 1.389 . S
C1918 C1917 1.389 . S
C1918 C1919 1.387 . S
C1919 H1904 0.930 . S
C1919 C1914 1.390 . S
C1919 C1918 1.387 . S
H1920 C1932 0.930 . S
H1921 C1934 0.930 . S
H1922 C1935 0.930 . S
H1923 C1939 0.959 . S
H1924 C1939 0.959 . S
H1925 C1939 0.961 . S
H1926 C1940 0.960 . S
H1927 C1940 0.961 . S
H1928 C1940 0.959 . S
H1929 C1943 0.929 . S
H1930 C1944 0.931 . S
H1931 C1946 0.930 . S
C1932 H1920 0.930 . S
C1932 C1933 1.399 . S
C1932 C1937 1.399 . S
C1933 C1932 1.399 . S
C1933 C1934 1.376 . S
C1934 H1921 0.930 . S
C1934 C1933 1.376 . S
C1934 C1935 1.388 . S
C1935 H1922 0.930 . S
C1935 C1934 1.388 . S
C1935 C1936 1.390 . S
C1936 C1935 1.390 . S
C1936 C1937 1.394 . S
C1936 C1942 1.465 . S
C1937 C1932 1.399 . S
C1937 C1936 1.394 . S
C1937 C1938 1.516 . S
C1938 C1937 1.516 . S
C1938 C1939 1.502 . S
C1938 C1940 1.561 . S
C1938 C1941 1.526 . S
C1939 H1923 0.959 . S
C1939 H1924 0.959 . S
C1939 H1925 0.961 . S
C1939 C1938 1.502 . S
C1940 H1926 0.960 . S
C1940 H1927 0.961 . S
C1940 H1928 0.959 . S
C1940 C1938 1.561 . S
C1941 C1938 1.526 . S
C1941 C1942 1.396 . S
C1941 C1946 1.390 . S
C1942 C1936 1.465 . S
C1942 C1941 1.396 . S
C1942 C1943 1.399 . S
C1943 H1929 0.929 . S
C1943 C1942 1.399 . S
C1943 C1944 1.385 . S
C1944 H1930 0.931 . S
C1944 C1943 1.385 . S
C1944 C1945 1.389 . S
C1945 C1944 1.389 . S
C1945 C1946 1.387 . S
C1946 H1931 0.930 . S
C1946 C1941 1.390 . S
C1946 C1945 1.387 . S
H1947 C1959 0.930 . S
H1948 C1961 0.930 . S
H1949 C1962 0.930 . S
H1950 C1966 0.959 . S
H1951 C1966 0.959 . S
H1952 C1966 0.961 . S
H1953 C1967 0.960 . S
H1954 C1967 0.961 . S
H1955 C1967 0.959 . S
H1956 C1970 0.929 . S
H1957 C1971 0.931 . S
H1958 C1973 0.930 . S
C1959 H1947 0.930 . S
C1959 C1960 1.399 . S
C1959 C1964 1.399 . S
C1960 C1959 1.399 . S
C1960 C1961 1.376 . S
C1961 H1948 0.930 . S
C1961 C1960 1.376 . S
C1961 C1962 1.388 . S
C1962 H1949 0.930 . S
C1962 C1961 1.388 . S
C1962 C1963 1.390 . S
C1963 C1962 1.390 . S
C1963 C1964 1.394 . S
C1963 C1969 1.465 . S
C1964 C1959 1.399 . S
C1964 C1963 1.394 . S
C1964 C1965 1.516 . S
C1965 C1964 1.516 . S
C1965 C1966 1.502 . S
C1965 C1967 1.561 . S
C1965 C1968 1.526 . S
C1966 H1950 0.959 . S
C1966 H1951 0.959 . S
C1966 H1952 0.961 . S
C1966 C1965 1.502 . S
C1967 H1953 0.960 . S
C1967 H1954 0.961 . S
C1967 H1955 0.959 . S
C1967 C1965 1.561 . S
C1968 C1965 1.526 . S
C1968 C1969 1.396 . S
C1968 C1973 1.390 . S
C1969 C1963 1.465 . S
C1969 C1968 1.396 . S
C1969 C1970 1.399 . S
C1970 H1956 0.929 . S
C1970 C1969 1.399 . S
C1970 C1971 1.385 . S
C1971 H1957 0.931 . S
C1971 C1970 1.385 . S
C1971 C1972 1.389 . S
C1972 C1971 1.389 . S
C1972 C1973 1.387 . S
C1973 H1958 0.930 . S
C1973 C1968 1.390 . S
C1973 C1972 1.387 . S
H1974 C1986 0.930 . S
H1975 C1988 0.930 . S
H1976 C1989 0.930 . S
H1977 C1993 0.959 . S
H1978 C1993 0.959 . S
H1979 C1993 0.961 . S
H1980 C1994 0.960 . S
H1981 C1994 0.961 . S
H1982 C1994 0.959 . S
H1983 C1997 0.929 . S
H1984 C1998 0.931 . S
H1985 C2000 0.930 . S
C1986 H1974 0.930 . S
C1986 C1987 1.399 . S
C1986 C1991 1.399 . S
C1987 C1986 1.399 . S
C1987 C1988 1.376 . S
C1988 H1975 0.930 . S
C1988 C1987 1.376 . S
C1988 C1989 1.388 . S
C1989 H1976 0.930 . S
C1989 C1988 1.388 . S
C1989 C1990 1.390 . S
C1990 C1989 1.390 . S
C1990 C1991 1.394 . S
C1990 C1996 1.465 . S
C1991 C1986 1.399 . S
C1991 C1990 1.394 . S
C1991 C1992 1.516 . S
C1992 C1991 1.516 . S
C1992 C1993 1.502 . S
C1992 C1994 1.561 . S
C1992 C1995 1.526 . S
C1993 H1977 0.959 . S
C1993 H1978 0.959 . S
C1993 H1979 0.961 . S
C1993 C1992 1.502 . S
C1994 H1980 0.960 . S
C1994 H1981 0.961 . S
C1994 H1982 0.959 . S
C1994 C1992 1.561 . S
C1995 C1992 1.526 . S
C1995 C1996 1.396 . S
C1995 C2000 1.390 . S
C1996 C1990 1.465 . S
C1996 C1995 1.396 . S
C1996 C1997 1.399 . S
C1997 H1983 0.929 . S
C1997 C1996 1.399 . S
C1997 C1998 1.385 . S
C1998 H1984 0.931 . S
C1998 C1997 1.385 . S
C1998 C1999 1.389 . S
C1999 C1998 1.389 . S
C1999 C2000 1.387 . S
C2000 H1985 0.930 . S
C2000 C1995 1.390 . S
C2000 C1999 1.387 . S
H2001 C2013 0.930 . S
H2002 C2015 0.930 . S
H2003 C2016 0.930 . S
H2004 C2020 0.959 . S
H2005 C2020 0.959 . S
H2006 C2020 0.961 . S
H2007 C2021 0.960 . S
H2008 C2021 0.961 . S
H2009 C2021 0.959 . S
H2010 C2024 0.929 . S
H2011 C2025 0.931 . S
H2012 C2027 0.930 . S
C2013 H2001 0.930 . S
C2013 C2014 1.399 . S
C2013 C2018 1.399 . S
C2014 C2013 1.399 . S
C2014 C2015 1.376 . S
C2015 H2002 0.930 . S
C2015 C2014 1.376 . S
C2015 C2016 1.388 . S
C2016 H2003 0.930 . S
C2016 C2015 1.388 . S
C2016 C2017 1.390 . S
C2017 C2016 1.390 . S
C2017 C2018 1.394 . S
C2017 C2023 1.465 . S
C2018 C2013 1.399 . S
C2018 C2017 1.394 . S
C2018 C2019 1.516 . S
C2019 C2018 1.516 . S
C2019 C2020 1.502 . S
C2019 C2021 1.561 . S
C2019 C2022 1.526 . S
C2020 H2004 0.959 . S
C2020 H2005 0.959 . S
C2020 H2006 0.961 . S
C2020 C2019 1.502 . S
C2021 H2007 0.960 . S
C2021 H2008 0.961 . S
C2021 H2009 0.959 . S
C2021 C2019 1.561 . S
C2022 C2019 1.526 . S
C2022 C2023 1.396 . S
C2022 C2027 1.390 . S
C2023 C2017 1.465 . S
C2023 C2022 1.396 . S
C2023 C2024 1.399 . S
C2024 H2010 0.929 . S
C2024 C2023 1.399 . S
C2024 C2025 1.385 . S
C2025 H2011 0.931 . S
C2025 C2024 1.385 . S
C2025 C2026 1.389 . S
C2026 C2025 1.389 . S
C2026 C2027 1.387 . S
C2027 H2012 0.930 . S
C2027 C2022 1.390 . S
C2027 C2026 1.387 . S
H2028 C2040 0.930 . S
H2029 C2042 0.930 . S
H2030 C2043 0.930 . S
H2031 C2047 0.959 . S
H2032 C2047 0.959 . S
H2033 C2047 0.961 . S
H2034 C2048 0.960 . S
H2035 C2048 0.961 . S
H2036 C2048 0.959 . S
H2037 C2051 0.929 . S
H2038 C2052 0.931 . S
H2039 C2054 0.930 . S
C2040 H2028 0.930 . S
C2040 C2041 1.399 . S
C2040 C2045 1.399 . S
C2041 C2040 1.399 . S
C2041 C2042 1.376 . S
C2042 H2029 0.930 . S
C2042 C2041 1.376 . S
C2042 C2043 1.388 . S
C2043 H2030 0.930 . S
C2043 C2042 1.388 . S
C2043 C2044 1.390 . S
C2044 C2043 1.390 . S
C2044 C2045 1.394 . S
C2044 C2050 1.465 . S
C2045 C2040 1.399 . S
C2045 C2044 1.394 . S
C2045 C2046 1.516 . S
C2046 C2045 1.516 . S
C2046 C2047 1.502 . S
C2046 C2048 1.561 . S
C2046 C2049 1.526 . S
C2047 H2031 0.959 . S
C2047 H2032 0.959 . S
C2047 H2033 0.961 . S
C2047 C2046 1.502 . S
C2048 H2034 0.960 . S
C2048 H2035 0.961 . S
C2048 H2036 0.959 . S
C2048 C2046 1.561 . S
C2049 C2046 1.526 . S
C2049 C2050 1.396 . S
C2049 C2054 1.390 . S
C2050 C2044 1.465 . S
C2050 C2049 1.396 . S
C2050 C2051 1.399 . S
C2051 H2037 0.929 . S
C2051 C2050 1.399 . S
C2051 C2052 1.385 . S
C2052 H2038 0.931 . S
C2052 C2051 1.385 . S
C2052 C2053 1.389 . S
C2053 C2052 1.389 . S
C2053 C2054 1.387 . S
C2054 H2039 0.930 . S
C2054 C2049 1.390 . S
C2054 C2053 1.387 . S
H2055 C2067 0.930 . S
H2056 C2069 0.930 . S
H2057 C2070 0.930 . S
H2058 C2074 0.959 . S
H2059 C2074 0.959 . S
H2060 C2074 0.961 . S
H2061 C2075 0.960 . S
H2062 C2075 0.961 . S
H2063 C2075 0.959 . S
H2064 C2078 0.929 . S
H2065 C2079 0.931 . S
H2066 C2081 0.930 . S
C2067 H2055 0.930 . S
C2067 C2068 1.399 . S
C2067 C2072 1.399 . S
C2068 C2067 1.399 . S
C2068 C2069 1.376 . S
C2069 H2056 0.930 . S
C2069 C2068 1.376 . S
C2069 C2070 1.388 . S
C2070 H2057 0.930 . S
C2070 C2069 1.388 . S
C2070 C2071 1.390 . S
C2071 C2070 1.390 . S
C2071 C2072 1.394 . S
C2071 C2077 1.465 . S
C2072 C2067 1.399 . S
C2072 C2071 1.394 . S
C2072 C2073 1.516 . S
C2073 C2072 1.516 . S
C2073 C2074 1.502 . S
C2073 C2075 1.561 . S
C2073 C2076 1.526 . S
C2074 H2058 0.959 . S
C2074 H2059 0.959 . S
C2074 H2060 0.961 . S
C2074 C2073 1.502 . S
C2075 H2061 0.960 . S
C2075 H2062 0.961 . S
C2075 H2063 0.959 . S
C2075 C2073 1.561 . S
C2076 C2073 1.526 . S
C2076 C2077 1.396 . S
C2076 C2081 1.390 . S
C2077 C2071 1.465 . S
C2077 C2076 1.396 . S
C2077 C2078 1.399 . S
C2078 H2064 0.929 . S
C2078 C2077 1.399 . S
C2078 C2079 1.385 . S
C2079 H2065 0.931 . S
C2079 C2078 1.385 . S
C2079 C2080 1.389 . S
C2080 C2079 1.389 . S
C2080 C2081 1.387 . S
C2081 H2066 0.930 . S
C2081 C2076 1.390 . S
C2081 C2080 1.387 . S
H2082 C2094 0.930 . S
H2083 C2096 0.930 . S
H2084 C2097 0.930 . S
H2085 C2101 0.959 . S
H2086 C2101 0.959 . S
H2087 C2101 0.961 . S
H2088 C2102 0.960 . S
H2089 C2102 0.961 . S
H2090 C2102 0.959 . S
H2091 C2105 0.929 . S
H2092 C2106 0.931 . S
H2093 C2108 0.930 . S
C2094 H2082 0.930 . S
C2094 C2095 1.399 . S
C2094 C2099 1.399 . S
C2095 C2094 1.399 . S
C2095 C2096 1.376 . S
C2096 H2083 0.930 . S
C2096 C2095 1.376 . S
C2096 C2097 1.388 . S
C2097 H2084 0.930 . S
C2097 C2096 1.388 . S
C2097 C2098 1.390 . S
C2098 C2097 1.390 . S
C2098 C2099 1.394 . S
C2098 C2104 1.465 . S
C2099 C2094 1.399 . S
C2099 C2098 1.394 . S
C2099 C2100 1.516 . S
C2100 C2099 1.516 . S
C2100 C2101 1.502 . S
C2100 C2102 1.561 . S
C2100 C2103 1.526 . S
C2101 H2085 0.959 . S
C2101 H2086 0.959 . S
C2101 H2087 0.961 . S
C2101 C2100 1.502 . S
C2102 H2088 0.960 . S
C2102 H2089 0.961 . S
C2102 H2090 0.959 . S
C2102 C2100 1.561 . S
C2103 C2100 1.526 . S
C2103 C2104 1.396 . S
C2103 C2108 1.390 . S
C2104 C2098 1.465 . S
C2104 C2103 1.396 . S
C2104 C2105 1.399 . S
C2105 H2091 0.929 . S
C2105 C2104 1.399 . S
C2105 C2106 1.385 . S
C2106 H2092 0.931 . S
C2106 C2105 1.385 . S
C2106 C2107 1.389 . S
C2107 C2106 1.389 . S
C2107 C2108 1.387 . S
C2108 H2093 0.930 . S
C2108 C2103 1.390 . S
C2108 C2107 1.387 . S
H2109 C2121 0.930 . S
H2110 C2123 0.930 . S
H2111 C2124 0.930 . S
H2112 C2128 0.959 . S
H2113 C2128 0.959 . S
H2114 C2128 0.961 . S
H2115 C2129 0.960 . S
H2116 C2129 0.961 . S
H2117 C2129 0.959 . S
H2118 C2132 0.929 . S
H2119 C2133 0.931 . S
H2120 C2135 0.930 . S
C2121 H2109 0.930 . S
C2121 C2122 1.399 . S
C2121 C2126 1.399 . S
C2122 C2121 1.399 . S
C2122 C2123 1.376 . S
C2123 H2110 0.930 . S
C2123 C2122 1.376 . S
C2123 C2124 1.388 . S
C2124 H2111 0.930 . S
C2124 C2123 1.388 . S
C2124 C2125 1.390 . S
C2125 C2124 1.390 . S
C2125 C2126 1.394 . S
C2125 C2131 1.465 . S
C2126 C2121 1.399 . S
C2126 C2125 1.394 . S
C2126 C2127 1.516 . S
C2127 C2126 1.516 . S
C2127 C2128 1.502 . S
C2127 C2129 1.561 . S
C2127 C2130 1.526 . S
C2128 H2112 0.959 . S
C2128 H2113 0.959 . S
C2128 H2114 0.961 . S
C2128 C2127 1.502 . S
C2129 H2115 0.960 . S
C2129 H2116 0.961 . S
C2129 H2117 0.959 . S
C2129 C2127 1.561 . S
C2130 C2127 1.526 . S
C2130 C2131 1.396 . S
C2130 C2135 1.390 . S
C2131 C2125 1.465 . S
C2131 C2130 1.396 . S
C2131 C2132 1.399 . S
C2132 H2118 0.929 . S
C2132 C2131 1.399 . S
C2132 C2133 1.385 . S
C2133 H2119 0.931 . S
C2133 C2132 1.385 . S
C2133 C2134 1.389 . S
C2134 C2133 1.389 . S
C2134 C2135 1.387 . S
C2135 H2120 0.930 . S
C2135 C2130 1.390 . S
C2135 C2134 1.387 . S
H2136 C2148 0.930 . S
H2137 C2150 0.930 . S
H2138 C2151 0.930 . S
H2139 C2155 0.959 . S
H2140 C2155 0.959 . S
H2141 C2155 0.961 . S
H2142 C2156 0.960 . S
H2143 C2156 0.961 . S
H2144 C2156 0.959 . S
H2145 C2159 0.929 . S
H2146 C2160 0.931 . S
H2147 C2162 0.930 . S
C2148 H2136 0.930 . S
C2148 C2149 1.399 . S
C2148 C2153 1.399 . S
C2149 C2148 1.399 . S
C2149 C2150 1.376 . S
C2150 H2137 0.930 . S
C2150 C2149 1.376 . S
C2150 C2151 1.388 . S
C2151 H2138 0.930 . S
C2151 C2150 1.388 . S
C2151 C2152 1.390 . S
C2152 C2151 1.390 . S
C2152 C2153 1.394 . S
C2152 C2158 1.465 . S
C2153 C2148 1.399 . S
C2153 C2152 1.394 . S
C2153 C2154 1.516 . S
C2154 C2153 1.516 . S
C2154 C2155 1.502 . S
C2154 C2156 1.561 . S
C2154 C2157 1.526 . S
C2155 H2139 0.959 . S
C2155 H2140 0.959 . S
C2155 H2141 0.961 . S
C2155 C2154 1.502 . S
C2156 H2142 0.960 . S
C2156 H2143 0.961 . S
C2156 H2144 0.959 . S
C2156 C2154 1.561 . S
C2157 C2154 1.526 . S
C2157 C2158 1.396 . S
C2157 C2162 1.390 . S
C2158 C2152 1.465 . S
C2158 C2157 1.396 . S
C2158 C2159 1.399 . S
C2159 H2145 0.929 . S
C2159 C2158 1.399 . S
C2159 C2160 1.385 . S
C2160 H2146 0.931 . S
C2160 C2159 1.385 . S
C2160 C2161 1.389 . S
C2161 C2160 1.389 . S
C2161 C2162 1.387 . S
C2162 H2147 0.930 . S
C2162 C2157 1.390 . S
C2162 C2161 1.387 . S
H2163 C2175 0.930 . S
H2164 C2177 0.930 . S
H2165 C2178 0.930 . S
H2166 C2182 0.959 . S
H2167 C2182 0.959 . S
H2168 C2182 0.961 . S
H2169 C2183 0.960 . S
H2170 C2183 0.961 . S
H2171 C2183 0.959 . S
H2172 C2186 0.929 . S
H2173 C2187 0.931 . S
H2174 C2189 0.930 . S
C2175 H2163 0.930 . S
C2175 C2176 1.399 . S
C2175 C2180 1.399 . S
C2176 C2175 1.399 . S
C2176 C2177 1.376 . S
C2177 H2164 0.930 . S
C2177 C2176 1.376 . S
C2177 C2178 1.388 . S
C2178 H2165 0.930 . S
C2178 C2177 1.388 . S
C2178 C2179 1.390 . S
C2179 C2178 1.390 . S
C2179 C2180 1.394 . S
C2179 C2185 1.465 . S
C2180 C2175 1.399 . S
C2180 C2179 1.394 . S
C2180 C2181 1.516 . S
C2181 C2180 1.516 . S
C2181 C2182 1.502 . S
C2181 C2183 1.561 . S
C2181 C2184 1.526 . S
C2182 H2166 0.959 . S
C2182 H2167 0.959 . S
C2182 H2168 0.961 . S
C2182 C2181 1.502 . S
C2183 H2169 0.960 . S
C2183 H2170 0.961 . S
C2183 H2171 0.959 . S
C2183 C2181 1.561 . S
C2184 C2181 1.526 . S
C2184 C2185 1.396 . S
C2184 C2189 1.390 . S
C2185 C2179 1.465 . S
C2185 C2184 1.396 . S
C2185 C2186 1.399 . S
C2186 H2172 0.929 . S
C2186 C2185 1.399 . S
C2186 C2187 1.385 . S
C2187 H2173 0.931 . S
C2187 C2186 1.385 . S
C2187 C2188 1.389 . S
C2188 C2187 1.389 . S
C2188 C2189 1.387 . S
C2189 H2174 0.930 . S
C2189 C2184 1.390 . S
C2189 C2188 1.387 . S
H2190 C2202 0.930 . S
H2191 C2204 0.930 . S
H2192 C2205 0.930 . S
H2193 C2209 0.959 . S
H2194 C2209 0.959 . S
H2195 C2209 0.961 . S
H2196 C2210 0.960 . S
H2197 C2210 0.961 . S
H2198 C2210 0.959 . S
H2199 C2213 0.929 . S
H2200 C2214 0.931 . S
H2201 C2216 0.930 . S
C2202 H2190 0.930 . S
C2202 C2203 1.399 . S
C2202 C2207 1.399 . S
C2203 C2202 1.399 . S
C2203 C2204 1.376 . S
C2204 H2191 0.930 . S
C2204 C2203 1.376 . S
C2204 C2205 1.388 . S
C2205 H2192 0.930 . S
C2205 C2204 1.388 . S
C2205 C2206 1.390 . S
C2206 C2205 1.390 . S
C2206 C2207 1.394 . S
C2206 C2212 1.465 . S
C2207 C2202 1.399 . S
C2207 C2206 1.394 . S
C2207 C2208 1.516 . S
C2208 C2207 1.516 . S
C2208 C2209 1.502 . S
C2208 C2210 1.561 . S
C2208 C2211 1.526 . S
C2209 H2193 0.959 . S
C2209 H2194 0.959 . S
C2209 H2195 0.961 . S
C2209 C2208 1.502 . S
C2210 H2196 0.960 . S
C2210 H2197 0.961 . S
C2210 H2198 0.959 . S
C2210 C2208 1.561 . S
C2211 C2208 1.526 . S
C2211 C2212 1.396 . S
C2211 C2216 1.390 . S
C2212 C2206 1.465 . S
C2212 C2211 1.396 . S
C2212 C2213 1.399 . S
C2213 H2199 0.929 . S
C2213 C2212 1.399 . S
C2213 C2214 1.385 . S
C2214 H2200 0.931 . S
C2214 C2213 1.385 . S
C2214 C2215 1.389 . S
C2215 C2214 1.389 . S
C2215 C2216 1.387 . S
C2216 H2201 0.930 . S
C2216 C2211 1.390 . S
C2216 C2215 1.387 . S
H2217 C2229 0.930 . S
H2218 C2231 0.930 . S
H2219 C2232 0.930 . S
H2220 C2236 0.959 . S
H2221 C2236 0.959 . S
H2222 C2236 0.961 . S
H2223 C2237 0.960 . S
H2224 C2237 0.961 . S
H2225 C2237 0.959 . S
H2226 C2240 0.929 . S
H2227 C2241 0.931 . S
H2228 C2243 0.930 . S
C2229 H2217 0.930 . S
C2229 C2230 1.399 . S
C2229 C2234 1.399 . S
C2230 C2229 1.399 . S
C2230 C2231 1.376 . S
C2231 H2218 0.930 . S
C2231 C2230 1.376 . S
C2231 C2232 1.388 . S
C2232 H2219 0.930 . S
C2232 C2231 1.388 . S
C2232 C2233 1.390 . S
C2233 C2232 1.390 . S
C2233 C2234 1.394 . S
C2233 C2239 1.465 . S
C2234 C2229 1.399 . S
C2234 C2233 1.394 . S
C2234 C2235 1.516 . S
C2235 C2234 1.516 . S
C2235 C2236 1.502 . S
C2235 C2237 1.561 . S
C2235 C2238 1.526 . S
C2236 H2220 0.959 . S
C2236 H2221 0.959 . S
C2236 H2222 0.961 . S
C2236 C2235 1.502 . S
C2237 H2223 0.960 . S
C2237 H2224 0.961 . S
C2237 H2225 0.959 . S
C2237 C2235 1.561 . S
C2238 C2235 1.526 . S
C2238 C2239 1.396 . S
C2238 C2243 1.390 . S
C2239 C2233 1.465 . S
C2239 C2238 1.396 . S
C2239 C2240 1.399 . S
C2240 H2226 0.929 . S
C2240 C2239 1.399 . S
C2240 C2241 1.385 . S
C2241 H2227 0.931 . S
C2241 C2240 1.385 . S
C2241 C2242 1.389 . S
C2242 C2241 1.389 . S
C2242 C2243 1.387 . S
C2243 H2228 0.930 . S
C2243 C2238 1.390 . S
C2243 C2242 1.387 . S
H2244 C2256 0.930 . S
H2245 C2258 0.930 . S
H2246 C2259 0.930 . S
H2247 C2263 0.959 . S
H2248 C2263 0.959 . S
H2249 C2263 0.961 . S
H2250 C2264 0.960 . S
H2251 C2264 0.961 . S
H2252 C2264 0.959 . S
H2253 C2267 0.929 . S
H2254 C2268 0.931 . S
H2255 C2270 0.930 . S
C2256 H2244 0.930 . S
C2256 C2257 1.399 . S
C2256 C2261 1.399 . S
C2257 C2256 1.399 . S
C2257 C2258 1.376 . S
C2258 H2245 0.930 . S
C2258 C2257 1.376 . S
C2258 C2259 1.388 . S
C2259 H2246 0.930 . S
C2259 C2258 1.388 . S
C2259 C2260 1.390 . S
C2260 C2259 1.390 . S
C2260 C2261 1.394 . S
C2260 C2266 1.465 . S
C2261 C2256 1.399 . S
C2261 C2260 1.394 . S
C2261 C2262 1.516 . S
C2262 C2261 1.516 . S
C2262 C2263 1.502 . S
C2262 C2264 1.561 . S
C2262 C2265 1.526 . S
C2263 H2247 0.959 . S
C2263 H2248 0.959 . S
C2263 H2249 0.961 . S
C2263 C2262 1.502 . S
C2264 H2250 0.960 . S
C2264 H2251 0.961 . S
C2264 H2252 0.959 . S
C2264 C2262 1.561 . S
C2265 C2262 1.526 . S
C2265 C2266 1.396 . S
C2265 C2270 1.390 . S
C2266 C2260 1.465 . S
C2266 C2265 1.396 . S
C2266 C2267 1.399 . S
C2267 H2253 0.929 . S
C2267 C2266 1.399 . S
C2267 C2268 1.385 . S
C2268 H2254 0.931 . S
C2268 C2267 1.385 . S
C2268 C2269 1.389 . S
C2269 C2268 1.389 . S
C2269 C2270 1.387 . S
C2270 H2255 0.930 . S
C2270 C2265 1.390 . S
C2270 C2269 1.387 . S
H2271 C2283 0.930 . S
H2272 C2285 0.930 . S
H2273 C2286 0.930 . S
H2274 C2290 0.959 . S
H2275 C2290 0.959 . S
H2276 C2290 0.961 . S
H2277 C2291 0.960 . S
H2278 C2291 0.961 . S
H2279 C2291 0.959 . S
H2280 C2294 0.929 . S
H2281 C2295 0.931 . S
H2282 C2297 0.930 . S
C2283 H2271 0.930 . S
C2283 C2284 1.399 . S
C2283 C2288 1.399 . S
C2284 C2283 1.399 . S
C2284 C2285 1.376 . S
C2285 H2272 0.930 . S
C2285 C2284 1.376 . S
C2285 C2286 1.388 . S
C2286 H2273 0.930 . S
C2286 C2285 1.388 . S
C2286 C2287 1.390 . S
C2287 C2286 1.390 . S
C2287 C2288 1.394 . S
C2287 C2293 1.465 . S
C2288 C2283 1.399 . S
C2288 C2287 1.394 . S
C2288 C2289 1.516 . S
C2289 C2288 1.516 . S
C2289 C2290 1.502 . S
C2289 C2291 1.561 . S
C2289 C2292 1.526 . S
C2290 H2274 0.959 . S
C2290 H2275 0.959 . S
C2290 H2276 0.961 . S
C2290 C2289 1.502 . S
C2291 H2277 0.960 . S
C2291 H2278 0.961 . S
C2291 H2279 0.959 . S
C2291 C2289 1.561 . S
C2292 C2289 1.526 . S
C2292 C2293 1.396 . S
C2292 C2297 1.390 . S
C2293 C2287 1.465 . S
C2293 C2292 1.396 . S
C2293 C2294 1.399 . S
C2294 H2280 0.929 . S
C2294 C2293 1.399 . S
C2294 C2295 1.385 . S
C2295 H2281 0.931 . S
C2295 C2294 1.385 . S
C2295 C2296 1.389 . S
C2296 C2295 1.389 . S
C2296 C2297 1.387 . S
C2297 H2282 0.930 . S
C2297 C2292 1.390 . S
C2297 C2296 1.387 . S
H2298 C2310 0.930 . S
H2299 C2312 0.930 . S
H2300 C2313 0.930 . S
H2301 C2317 0.959 . S
H2302 C2317 0.959 . S
H2303 C2317 0.961 . S
H2304 C2318 0.960 . S
H2305 C2318 0.961 . S
H2306 C2318 0.959 . S
H2307 C2321 0.929 . S
H2308 C2322 0.931 . S
H2309 C2324 0.930 . S
C2310 H2298 0.930 . S
C2310 C2311 1.399 . S
C2310 C2315 1.399 . S
C2311 C2310 1.399 . S
C2311 C2312 1.376 . S
C2312 H2299 0.930 . S
C2312 C2311 1.376 . S
C2312 C2313 1.388 . S
C2313 H2300 0.930 . S
C2313 C2312 1.388 . S
C2313 C2314 1.390 . S
C2314 C2313 1.390 . S
C2314 C2315 1.394 . S
C2314 C2320 1.465 . S
C2315 C2310 1.399 . S
C2315 C2314 1.394 . S
C2315 C2316 1.516 . S
C2316 C2315 1.516 . S
C2316 C2317 1.502 . S
C2316 C2318 1.561 . S
C2316 C2319 1.526 . S
C2317 H2301 0.959 . S
C2317 H2302 0.959 . S
C2317 H2303 0.961 . S
C2317 C2316 1.502 . S
C2318 H2304 0.960 . S
C2318 H2305 0.961 . S
C2318 H2306 0.959 . S
C2318 C2316 1.561 . S
C2319 C2316 1.526 . S
C2319 C2320 1.396 . S
C2319 C2324 1.390 . S
C2320 C2314 1.465 . S
C2320 C2319 1.396 . S
C2320 C2321 1.399 . S
C2321 H2307 0.929 . S
C2321 C2320 1.399 . S
C2321 C2322 1.385 . S
C2322 H2308 0.931 . S
C2322 C2321 1.385 . S
C2322 C2323 1.389 . S
C2323 C2322 1.389 . S
C2323 C2324 1.387 . S
C2324 H2309 0.930 . S
C2324 C2319 1.390 . S
C2324 C2323 1.387 . S
H2325 C2337 0.930 . S
H2326 C2339 0.930 . S
H2327 C2340 0.930 . S
H2328 C2344 0.959 . S
H2329 C2344 0.959 . S
H2330 C2344 0.961 . S
H2331 C2345 0.960 . S
H2332 C2345 0.961 . S
H2333 C2345 0.959 . S
H2334 C2348 0.929 . S
H2335 C2349 0.931 . S
H2336 C2351 0.930 . S
C2337 H2325 0.930 . S
C2337 C2338 1.399 . S
C2337 C2342 1.399 . S
C2338 C2337 1.399 . S
C2338 C2339 1.376 . S
C2339 H2326 0.930 . S
C2339 C2338 1.376 . S
C2339 C2340 1.388 . S
C2340 H2327 0.930 . S
C2340 C2339 1.388 . S
C2340 C2341 1.390 . S
C2341 C2340 1.390 . S
C2341 C2342 1.394 . S
C2341 C2347 1.465 . S
C2342 C2337 1.399 . S
C2342 C2341 1.394 . S
C2342 C2343 1.516 . S
C2343 C2342 1.516 . S
C2343 C2344 1.502 . S
C2343 C2345 1.561 . S
C2343 C2346 1.526 . S
C2344 H2328 0.959 . S
C2344 H2329 0.959 . S
C2344 H2330 0.961 . S
C2344 C2343 1.502 . S
C2345 H2331 0.960 . S
C2345 H2332 0.961 . S
C2345 H2333 0.959 . S
C2345 C2343 1.561 . S
C2346 C2343 1.526 . S
C2346 C2347 1.396 . S
C2346 C2351 1.390 . S
C2347 C2341 1.465 . S
C2347 C2346 1.396 . S
C2347 C2348 1.399 . S
C2348 H2334 0.929 . S
C2348 C2347 1.399 . S
C2348 C2349 1.385 . S
C2349 H2335 0.931 . S
C2349 C2348 1.385 . S
C2349 C2350 1.389 . S
C2350 C2349 1.389 . S
C2350 C2351 1.387 . S
C2351 H2336 0.930 . S
C2351 C2346 1.390 . S
C2351 C2350 1.387 . S
H2352 C2364 0.930 . S
H2353 C2366 0.930 . S
H2354 C2367 0.930 . S
H2355 C2371 0.959 . S
H2356 C2371 0.959 . S
H2357 C2371 0.961 . S
H2358 C2372 0.960 . S
H2359 C2372 0.961 . S
H2360 C2372 0.959 . S
H2361 C2375 0.929 . S
H2362 C2376 0.931 . S
H2363 C2378 0.930 . S
C2364 H2352 0.930 . S
C2364 C2365 1.399 . S
C2364 C2369 1.399 . S
C2365 C2364 1.399 . S
C2365 C2366 1.376 . S
C2366 H2353 0.930 . S
C2366 C2365 1.376 . S
C2366 C2367 1.388 . S
C2367 H2354 0.930 . S
C2367 C2366 1.388 . S
C2367 C2368 1.390 . S
C2368 C2367 1.390 . S
C2368 C2369 1.394 . S
C2368 C2374 1.465 . S
C2369 C2364 1.399 . S
C2369 C2368 1.394 . S
C2369 C2370 1.516 . S
C2370 C2369 1.516 . S
C2370 C2371 1.502 . S
C2370 C2372 1.561 . S
C2370 C2373 1.526 . S
C2371 H2355 0.959 . S
C2371 H2356 0.959 . S
C2371 H2357 0.961 . S
C2371 C2370 1.502 . S
C2372 H2358 0.960 . S
C2372 H2359 0.961 . S
C2372 H2360 0.959 . S
C2372 C2370 1.561 . S
C2373 C2370 1.526 . S
C2373 C2374 1.396 . S
C2373 C2378 1.390 . S
C2374 C2368 1.465 . S
C2374 C2373 1.396 . S
C2374 C2375 1.399 . S
C2375 H2361 0.929 . S
C2375 C2374 1.399 . S
C2375 C2376 1.385 . S
C2376 H2362 0.931 . S
C2376 C2375 1.385 . S
C2376 C2377 1.389 . S
C2377 C2376 1.389 . S
C2377 C2378 1.387 . S
C2378 H2363 0.930 . S
C2378 C2373 1.390 . S
C2378 C2377 1.387 . S
H2379 C2391 0.930 . S
H2380 C2393 0.930 . S
H2381 C2394 0.930 . S
H2382 C2398 0.959 . S
H2383 C2398 0.959 . S
H2384 C2398 0.961 . S
H2385 C2399 0.960 . S
H2386 C2399 0.961 . S
H2387 C2399 0.959 . S
H2388 C2402 0.929 . S
H2389 C2403 0.931 . S
H2390 C2405 0.930 . S
C2391 H2379 0.930 . S
C2391 C2392 1.399 . S
C2391 C2396 1.399 . S
C2392 C2391 1.399 . S
C2392 C2393 1.376 . S
C2393 H2380 0.930 . S
C2393 C2392 1.376 . S
C2393 C2394 1.388 . S
C2394 H2381 0.930 . S
C2394 C2393 1.388 . S
C2394 C2395 1.390 . S
C2395 C2394 1.390 . S
C2395 C2396 1.394 . S
C2395 C2401 1.465 . S
C2396 C2391 1.399 . S
C2396 C2395 1.394 . S
C2396 C2397 1.516 . S
C2397 C2396 1.516 . S
C2397 C2398 1.502 . S
C2397 C2399 1.561 . S
C2397 C2400 1.526 . S
C2398 H2382 0.959 . S
C2398 H2383 0.959 . S
C2398 H2384 0.961 . S
C2398 C2397 1.502 . S
C2399 H2385 0.960 . S
C2399 H2386 0.961 . S
C2399 H2387 0.959 . S
C2399 C2397 1.561 . S
C2400 C2397 1.526 . S
C2400 C2401 1.396 . S
C2400 C2405 1.390 . S
C2401 C2395 1.465 . S
C2401 C2400 1.396 . S
C2401 C2402 1.399 . S
C2402 H2388 0.929 . S
C2402 C2401 1.399 . S
C2402 C2403 1.385 . S
C2403 H2389 0.931 . S
C2403 C2402 1.385 . S
C2403 C2404 1.389 . S
C2404 C2403 1.389 . S
C2404 C2405 1.387 . S
C2405 H2390 0.930 . S
C2405 C2400 1.390 . S
C2405 C2404 1.387 . S
H2406 C2418 0.930 . S
H2407 C2420 0.930 . S
H2408 C2421 0.930 . S
H2409 C2425 0.959 . S
H2410 C2425 0.959 . S
H2411 C2425 0.961 . S
H2412 C2426 0.960 . S
H2413 C2426 0.961 . S
H2414 C2426 0.959 . S
H2415 C2429 0.929 . S
H2416 C2430 0.931 . S
H2417 C2432 0.930 . S
C2418 H2406 0.930 . S
C2418 C2419 1.399 . S
C2418 C2423 1.399 . S
C2419 C2418 1.399 . S
C2419 C2420 1.376 . S
C2420 H2407 0.930 . S
C2420 C2419 1.376 . S
C2420 C2421 1.388 . S
C2421 H2408 0.930 . S
C2421 C2420 1.388 . S
C2421 C2422 1.390 . S
C2422 C2421 1.390 . S
C2422 C2423 1.394 . S
C2422 C2428 1.465 . S
C2423 C2418 1.399 . S
C2423 C2422 1.394 . S
C2423 C2424 1.516 . S
C2424 C2423 1.516 . S
C2424 C2425 1.502 . S
C2424 C2426 1.561 . S
C2424 C2427 1.526 . S
C2425 H2409 0.959 . S
C2425 H2410 0.959 . S
C2425 H2411 0.961 . S
C2425 C2424 1.502 . S
C2426 H2412 0.960 . S
C2426 H2413 0.961 . S
C2426 H2414 0.959 . S
C2426 C2424 1.561 . S
C2427 C2424 1.526 . S
C2427 C2428 1.396 . S
C2427 C2432 1.390 . S
C2428 C2422 1.465 . S
C2428 C2427 1.396 . S
C2428 C2429 1.399 . S
C2429 H2415 0.929 . S
C2429 C2428 1.399 . S
C2429 C2430 1.385 . S
C2430 H2416 0.931 . S
C2430 C2429 1.385 . S
C2430 C2431 1.389 . S
C2431 C2430 1.389 . S
C2431 C2432 1.387 . S
C2432 H2417 0.930 . S
C2432 C2427 1.390 . S
C2432 C2431 1.387 . S
H2433 C2445 0.930 . S
H2434 C2447 0.930 . S
H2435 C2448 0.930 . S
H2436 C2452 0.959 . S
H2437 C2452 0.959 . S
H2438 C2452 0.961 . S
H2439 C2453 0.960 . S
H2440 C2453 0.961 . S
H2441 C2453 0.959 . S
H2442 C2456 0.929 . S
H2443 C2457 0.931 . S
H2444 C2459 0.930 . S
C2445 H2433 0.930 . S
C2445 C2446 1.399 . S
C2445 C2450 1.399 . S
C2446 C2445 1.399 . S
C2446 C2447 1.376 . S
C2447 H2434 0.930 . S
C2447 C2446 1.376 . S
C2447 C2448 1.388 . S
C2448 H2435 0.930 . S
C2448 C2447 1.388 . S
C2448 C2449 1.390 . S
C2449 C2448 1.390 . S
C2449 C2450 1.394 . S
C2449 C2455 1.465 . S
C2450 C2445 1.399 . S
C2450 C2449 1.394 . S
C2450 C2451 1.516 . S
C2451 C2450 1.516 . S
C2451 C2452 1.502 . S
C2451 C2453 1.561 . S
C2451 C2454 1.526 . S
C2452 H2436 0.959 . S
C2452 H2437 0.959 . S
C2452 H2438 0.961 . S
C2452 C2451 1.502 . S
C2453 H2439 0.960 . S
C2453 H2440 0.961 . S
C2453 H2441 0.959 . S
C2453 C2451 1.561 . S
C2454 C2451 1.526 . S
C2454 C2455 1.396 . S
C2454 C2459 1.390 . S
C2455 C2449 1.465 . S
C2455 C2454 1.396 . S
C2455 C2456 1.399 . S
C2456 H2442 0.929 . S
C2456 C2455 1.399 . S
C2456 C2457 1.385 . S
C2457 H2443 0.931 . S
C2457 C2456 1.385 . S
C2457 C2458 1.389 . S
C2458 C2457 1.389 . S
C2458 C2459 1.387 . S
C2459 H2444 0.930 . S
C2459 C2454 1.390 . S
C2459 C2458 1.387 . S
H2460 C2472 0.930 . S
H2461 C2474 0.930 . S
H2462 C2475 0.930 . S
H2463 C2479 0.959 . S
H2464 C2479 0.959 . S
H2465 C2479 0.961 . S
H2466 C2480 0.960 . S
H2467 C2480 0.961 . S
H2468 C2480 0.959 . S
H2469 C2483 0.929 . S
H2470 C2484 0.931 . S
H2471 C2486 0.930 . S
C2472 H2460 0.930 . S
C2472 C2473 1.399 . S
C2472 C2477 1.399 . S
C2473 C2472 1.399 . S
C2473 C2474 1.376 . S
C2474 H2461 0.930 . S
C2474 C2473 1.376 . S
C2474 C2475 1.388 . S
C2475 H2462 0.930 . S
C2475 C2474 1.388 . S
C2475 C2476 1.390 . S
C2476 C2475 1.390 . S
C2476 C2477 1.394 . S
C2476 C2482 1.465 . S
C2477 C2472 1.399 . S
C2477 C2476 1.394 . S
C2477 C2478 1.516 . S
C2478 C2477 1.516 . S
C2478 C2479 1.502 . S
C2478 C2480 1.561 . S
C2478 C2481 1.526 . S
C2479 H2463 0.959 . S
C2479 H2464 0.959 . S
C2479 H2465 0.961 . S
C2479 C2478 1.502 . S
C2480 H2466 0.960 . S
C2480 H2467 0.961 . S
C2480 H2468 0.959 . S
C2480 C2478 1.561 . S
C2481 C2478 1.526 . S
C2481 C2482 1.396 . S
C2481 C2486 1.390 . S
C2482 C2476 1.465 . S
C2482 C2481 1.396 . S
C2482 C2483 1.399 . S
C2483 H2469 0.929 . S
C2483 C2482 1.399 . S
C2483 C2484 1.385 . S
C2484 H2470 0.931 . S
C2484 C2483 1.385 . S
C2484 C2485 1.389 . S
C2485 C2484 1.389 . S
C2485 C2486 1.387 . S
C2486 H2471 0.930 . S
C2486 C2481 1.390 . S
C2486 C2485 1.387 . S
H2487 C2499 0.930 . S
H2488 C2501 0.930 . S
H2489 C2502 0.930 . S
H2490 C2506 0.959 . S
H2491 C2506 0.959 . S
H2492 C2506 0.961 . S
H2493 C2507 0.960 . S
H2494 C2507 0.961 . S
H2495 C2507 0.959 . S
H2496 C2510 0.929 . S
H2497 C2511 0.931 . S
H2498 C2513 0.930 . S
C2499 H2487 0.930 . S
C2499 C2500 1.399 . S
C2499 C2504 1.399 . S
C2500 C2499 1.399 . S
C2500 C2501 1.376 . S
C2501 H2488 0.930 . S
C2501 C2500 1.376 . S
C2501 C2502 1.388 . S
C2502 H2489 0.930 . S
C2502 C2501 1.388 . S
C2502 C2503 1.390 . S
C2503 C2502 1.390 . S
C2503 C2504 1.394 . S
C2503 C2509 1.465 . S
C2504 C2499 1.399 . S
C2504 C2503 1.394 . S
C2504 C2505 1.516 . S
C2505 C2504 1.516 . S
C2505 C2506 1.502 . S
C2505 C2507 1.561 . S
C2505 C2508 1.526 . S
C2506 H2490 0.959 . S
C2506 H2491 0.959 . S
C2506 H2492 0.961 . S
C2506 C2505 1.502 . S
C2507 H2493 0.960 . S
C2507 H2494 0.961 . S
C2507 H2495 0.959 . S
C2507 C2505 1.561 . S
C2508 C2505 1.526 . S
C2508 C2509 1.396 . S
C2508 C2513 1.390 . S
C2509 C2503 1.465 . S
C2509 C2508 1.396 . S
C2509 C2510 1.399 . S
C2510 H2496 0.929 . S
C2510 C2509 1.399 . S
C2510 C2511 1.385 . S
C2511 H2497 0.931 . S
C2511 C2510 1.385 . S
C2511 C2512 1.389 . S
C2512 C2511 1.389 . S
C2512 C2513 1.387 . S
C2513 H2498 0.930 . S
C2513 C2508 1.390 . S
C2513 C2512 1.387 . S
H2514 C2526 0.930 . S
H2515 C2528 0.930 . S
H2516 C2529 0.930 . S
H2517 C2533 0.959 . S
H2518 C2533 0.959 . S
H2519 C2533 0.961 . S
H2520 C2534 0.960 . S
H2521 C2534 0.961 . S
H2522 C2534 0.959 . S
H2523 C2537 0.929 . S
H2524 C2538 0.931 . S
H2525 C2540 0.930 . S
C2526 H2514 0.930 . S
C2526 C2527 1.399 . S
C2526 C2531 1.399 . S
C2527 C2526 1.399 . S
C2527 C2528 1.376 . S
C2528 H2515 0.930 . S
C2528 C2527 1.376 . S
C2528 C2529 1.388 . S
C2529 H2516 0.930 . S
C2529 C2528 1.388 . S
C2529 C2530 1.390 . S
C2530 C2529 1.390 . S
C2530 C2531 1.394 . S
C2530 C2536 1.465 . S
C2531 C2526 1.399 . S
C2531 C2530 1.394 . S
C2531 C2532 1.516 . S
C2532 C2531 1.516 . S
C2532 C2533 1.502 . S
C2532 C2534 1.561 . S
C2532 C2535 1.526 . S
C2533 H2517 0.959 . S
C2533 H2518 0.959 . S
C2533 H2519 0.961 . S
C2533 C2532 1.502 . S
C2534 H2520 0.960 . S
C2534 H2521 0.961 . S
C2534 H2522 0.959 . S
C2534 C2532 1.561 . S
C2535 C2532 1.526 . S
C2535 C2536 1.396 . S
C2535 C2540 1.390 . S
C2536 C2530 1.465 . S
C2536 C2535 1.396 . S
C2536 C2537 1.399 . S
C2537 H2523 0.929 . S
C2537 C2536 1.399 . S
C2537 C2538 1.385 . S
C2538 H2524 0.931 . S
C2538 C2537 1.385 . S
C2538 C2539 1.389 . S
C2539 C2538 1.389 . S
C2539 C2540 1.387 . S
C2540 H2525 0.930 . S
C2540 C2535 1.390 . S
C2540 C2539 1.387 . S
H2541 C2553 0.930 . S
H2542 C2555 0.930 . S
H2543 C2556 0.930 . S
H2544 C2560 0.959 . S
H2545 C2560 0.959 . S
H2546 C2560 0.961 . S
H2547 C2561 0.960 . S
H2548 C2561 0.961 . S
H2549 C2561 0.959 . S
H2550 C2564 0.929 . S
H2551 C2565 0.931 . S
H2552 C2567 0.930 . S
C2553 H2541 0.930 . S
C2553 C2554 1.399 . S
C2553 C2558 1.399 . S
C2554 C2553 1.399 . S
C2554 C2555 1.376 . S
C2555 H2542 0.930 . S
C2555 C2554 1.376 . S
C2555 C2556 1.388 . S
C2556 H2543 0.930 . S
C2556 C2555 1.388 . S
C2556 C2557 1.390 . S
C2557 C2556 1.390 . S
C2557 C2558 1.394 . S
C2557 C2563 1.465 . S
C2558 C2553 1.399 . S
C2558 C2557 1.394 . S
C2558 C2559 1.516 . S
C2559 C2558 1.516 . S
C2559 C2560 1.502 . S
C2559 C2561 1.561 . S
C2559 C2562 1.526 . S
C2560 H2544 0.959 . S
C2560 H2545 0.959 . S
C2560 H2546 0.961 . S
C2560 C2559 1.502 . S
C2561 H2547 0.960 . S
C2561 H2548 0.961 . S
C2561 H2549 0.959 . S
C2561 C2559 1.561 . S
C2562 C2559 1.526 . S
C2562 C2563 1.396 . S
C2562 C2567 1.390 . S
C2563 C2557 1.465 . S
C2563 C2562 1.396 . S
C2563 C2564 1.399 . S
C2564 H2550 0.929 . S
C2564 C2563 1.399 . S
C2564 C2565 1.385 . S
C2565 H2551 0.931 . S
C2565 C2564 1.385 . S
C2565 C2566 1.389 . S
C2566 C2565 1.389 . S
C2566 C2567 1.387 . S
C2567 H2552 0.930 . S
C2567 C2562 1.390 . S
C2567 C2566 1.387 . S
H2568 C2580 0.930 . S
H2569 C2582 0.930 . S
H2570 C2583 0.930 . S
H2571 C2587 0.959 . S
H2572 C2587 0.959 . S
H2573 C2587 0.961 . S
H2574 C2588 0.960 . S
H2575 C2588 0.961 . S
H2576 C2588 0.959 . S
H2577 C2591 0.929 . S
H2578 C2592 0.931 . S
H2579 C2594 0.930 . S
C2580 H2568 0.930 . S
C2580 C2581 1.399 . S
C2580 C2585 1.399 . S
C2581 C2580 1.399 . S
C2581 C2582 1.376 . S
C2582 H2569 0.930 . S
C2582 C2581 1.376 . S
C2582 C2583 1.388 . S
C2583 H2570 0.930 . S
C2583 C2582 1.388 . S
C2583 C2584 1.390 . S
C2584 C2583 1.390 . S
C2584 C2585 1.394 . S
C2584 C2590 1.465 . S
C2585 C2580 1.399 . S
C2585 C2584 1.394 . S
C2585 C2586 1.516 . S
C2586 C2585 1.516 . S
C2586 C2587 1.502 . S
C2586 C2588 1.561 . S
C2586 C2589 1.526 . S
C2587 H2571 0.959 . S
C2587 H2572 0.959 . S
C2587 H2573 0.961 . S
C2587 C2586 1.502 . S
C2588 H2574 0.960 . S
C2588 H2575 0.961 . S
C2588 H2576 0.959 . S
C2588 C2586 1.561 . S
C2589 C2586 1.526 . S
C2589 C2590 1.396 . S
C2589 C2594 1.390 . S
C2590 C2584 1.465 . S
C2590 C2589 1.396 . S
C2590 C2591 1.399 . S
C2591 H2577 0.929 . S
C2591 C2590 1.399 . S
C2591 C2592 1.385 . S
C2592 H2578 0.931 . S
C2592 C2591 1.385 . S
C2592 C2593 1.389 . S
C2593 C2592 1.389 . S
C2593 C2594 1.387 . S
C2594 H2579 0.930 . S
C2594 C2589 1.390 . S
C2594 C2593 1.387 . S
H2595 C2607 0.930 . S
H2596 C2609 0.930 . S
H2597 C2610 0.930 . S
H2598 C2614 0.959 . S
H2599 C2614 0.959 . S
H2600 C2614 0.961 . S
H2601 C2615 0.960 . S
H2602 C2615 0.961 . S
H2603 C2615 0.959 . S
H2604 C2618 0.929 . S
H2605 C2619 0.931 . S
H2606 C2621 0.930 . S
C2607 H2595 0.930 . S
C2607 C2608 1.399 . S
C2607 C2612 1.399 . S
C2608 C2607 1.399 . S
C2608 C2609 1.376 . S
C2609 H2596 0.930 . S
C2609 C2608 1.376 . S
C2609 C2610 1.388 . S
C2610 H2597 0.930 . S
C2610 C2609 1.388 . S
C2610 C2611 1.390 . S
C2611 C2610 1.390 . S
C2611 C2612 1.394 . S
C2611 C2617 1.465 . S
C2612 C2607 1.399 . S
C2612 C2611 1.394 . S
C2612 C2613 1.516 . S
C2613 C2612 1.516 . S
C2613 C2614 1.502 . S
C2613 C2615 1.561 . S
C2613 C2616 1.526 . S
C2614 H2598 0.959 . S
C2614 H2599 0.959 . S
C2614 H2600 0.961 . S
C2614 C2613 1.502 . S
C2615 H2601 0.960 . S
C2615 H2602 0.961 . S
C2615 H2603 0.959 . S
C2615 C2613 1.561 . S
C2616 C2613 1.526 . S
C2616 C2617 1.396 . S
C2616 C2621 1.390 . S
C2617 C2611 1.465 . S
C2617 C2616 1.396 . S
C2617 C2618 1.399 . S
C2618 H2604 0.929 . S
C2618 C2617 1.399 . S
C2618 C2619 1.385 . S
C2619 H2605 0.931 . S
C2619 C2618 1.385 . S
C2619 C2620 1.389 . S
C2620 C2619 1.389 . S
C2620 C2621 1.387 . S
C2621 H2606 0.930 . S
C2621 C2616 1.390 . S
C2621 C2620 1.387 . S
H2622 C2634 0.930 . S
H2623 C2636 0.930 . S
H2624 C2637 0.930 . S
H2625 C2641 0.959 . S
H2626 C2641 0.959 . S
H2627 C2641 0.961 . S
H2628 C2642 0.960 . S
H2629 C2642 0.961 . S
H2630 C2642 0.959 . S
H2631 C2645 0.929 . S
H2632 C2646 0.931 . S
H2633 C2648 0.930 . S
C2634 H2622 0.930 . S
C2634 C2635 1.399 . S
C2634 C2639 1.399 . S
C2635 C2634 1.399 . S
C2635 C2636 1.376 . S
C2636 H2623 0.930 . S
C2636 C2635 1.376 . S
C2636 C2637 1.388 . S
C2637 H2624 0.930 . S
C2637 C2636 1.388 . S
C2637 C2638 1.390 . S
C2638 C2637 1.390 . S
C2638 C2639 1.394 . S
C2638 C2644 1.465 . S
C2639 C2634 1.399 . S
C2639 C2638 1.394 . S
C2639 C2640 1.516 . S
C2640 C2639 1.516 . S
C2640 C2641 1.502 . S
C2640 C2642 1.561 . S
C2640 C2643 1.526 . S
C2641 H2625 0.959 . S
C2641 H2626 0.959 . S
C2641 H2627 0.961 . S
C2641 C2640 1.502 . S
C2642 H2628 0.960 . S
C2642 H2629 0.961 . S
C2642 H2630 0.959 . S
C2642 C2640 1.561 . S
C2643 C2640 1.526 . S
C2643 C2644 1.396 . S
C2643 C2648 1.390 . S
C2644 C2638 1.465 . S
C2644 C2643 1.396 . S
C2644 C2645 1.399 . S
C2645 H2631 0.929 . S
C2645 C2644 1.399 . S
C2645 C2646 1.385 . S
C2646 H2632 0.931 . S
C2646 C2645 1.385 . S
C2646 C2647 1.389 . S
C2647 C2646 1.389 . S
C2647 C2648 1.387 . S
C2648 H2633 0.930 . S
C2648 C2643 1.390 . S
C2648 C2647 1.387 . S
H2649 C2661 0.930 . S
H2650 C2663 0.930 . S
H2651 C2664 0.930 . S
H2652 C2668 0.959 . S
H2653 C2668 0.959 . S
H2654 C2668 0.961 . S
H2655 C2669 0.960 . S
H2656 C2669 0.961 . S
H2657 C2669 0.959 . S
H2658 C2672 0.929 . S
H2659 C2673 0.931 . S
H2660 C2675 0.930 . S
C2661 H2649 0.930 . S
C2661 C2662 1.399 . S
C2661 C2666 1.399 . S
C2662 C2661 1.399 . S
C2662 C2663 1.376 . S
C2663 H2650 0.930 . S
C2663 C2662 1.376 . S
C2663 C2664 1.388 . S
C2664 H2651 0.930 . S
C2664 C2663 1.388 . S
C2664 C2665 1.390 . S
C2665 C2664 1.390 . S
C2665 C2666 1.394 . S
C2665 C2671 1.465 . S
C2666 C2661 1.399 . S
C2666 C2665 1.394 . S
C2666 C2667 1.516 . S
C2667 C2666 1.516 . S
C2667 C2668 1.502 . S
C2667 C2669 1.561 . S
C2667 C2670 1.526 . S
C2668 H2652 0.959 . S
C2668 H2653 0.959 . S
C2668 H2654 0.961 . S
C2668 C2667 1.502 . S
C2669 H2655 0.960 . S
C2669 H2656 0.961 . S
C2669 H2657 0.959 . S
C2669 C2667 1.561 . S
C2670 C2667 1.526 . S
C2670 C2671 1.396 . S
C2670 C2675 1.390 . S
C2671 C2665 1.465 . S
C2671 C2670 1.396 . S
C2671 C2672 1.399 . S
C2672 H2658 0.929 . S
C2672 C2671 1.399 . S
C2672 C2673 1.385 . S
C2673 H2659 0.931 . S
C2673 C2672 1.385 . S
C2673 C2674 1.389 . S
C2674 C2673 1.389 . S
C2674 C2675 1.387 . S
C2675 H2660 0.930 . S
C2675 C2670 1.390 . S
C2675 C2674 1.387 . S
H2676 C2688 0.930 . S
H2677 C2690 0.930 . S
H2678 C2691 0.930 . S
H2679 C2695 0.959 . S
H2680 C2695 0.959 . S
H2681 C2695 0.961 . S
H2682 C2696 0.960 . S
H2683 C2696 0.961 . S
H2684 C2696 0.959 . S
H2685 C2699 0.929 . S
H2686 C2700 0.931 . S
H2687 C2702 0.930 . S
C2688 H2676 0.930 . S
C2688 C2689 1.399 . S
C2688 C2693 1.399 . S
C2689 C2688 1.399 . S
C2689 C2690 1.376 . S
C2690 H2677 0.930 . S
C2690 C2689 1.376 . S
C2690 C2691 1.388 . S
C2691 H2678 0.930 . S
C2691 C2690 1.388 . S
C2691 C2692 1.390 . S
C2692 C2691 1.390 . S
C2692 C2693 1.394 . S
C2692 C2698 1.465 . S
C2693 C2688 1.399 . S
C2693 C2692 1.394 . S
C2693 C2694 1.516 . S
C2694 C2693 1.516 . S
C2694 C2695 1.502 . S
C2694 C2696 1.561 . S
C2694 C2697 1.526 . S
C2695 H2679 0.959 . S
C2695 H2680 0.959 . S
C2695 H2681 0.961 . S
C2695 C2694 1.502 . S
C2696 H2682 0.960 . S
C2696 H2683 0.961 . S
C2696 H2684 0.959 . S
C2696 C2694 1.561 . S
C2697 C2694 1.526 . S
C2697 C2698 1.396 . S
C2697 C2702 1.390 . S
C2698 C2692 1.465 . S
C2698 C2697 1.396 . S
C2698 C2699 1.399 . S
C2699 H2685 0.929 . S
C2699 C2698 1.399 . S
C2699 C2700 1.385 . S
C2700 H2686 0.931 . S
C2700 C2699 1.385 . S
C2700 C2701 1.389 . S
C2701 C2700 1.389 . S
C2701 C2702 1.387 . S
C2702 H2687 0.930 . S
C2702 C2697 1.390 . S
C2702 C2701 1.387 . S
H2703 C2715 0.930 . S
H2704 C2717 0.930 . S
H2705 C2718 0.930 . S
H2706 C2722 0.959 . S
H2707 C2722 0.959 . S
H2708 C2722 0.961 . S
H2709 C2723 0.960 . S
H2710 C2723 0.961 . S
H2711 C2723 0.959 . S
H2712 C2726 0.929 . S
H2713 C2727 0.931 . S
H2714 C2729 0.930 . S
C2715 H2703 0.930 . S
C2715 C2716 1.399 . S
C2715 C2720 1.399 . S
C2716 C2715 1.399 . S
C2716 C2717 1.376 . S
C2717 H2704 0.930 . S
C2717 C2716 1.376 . S
C2717 C2718 1.388 . S
C2718 H2705 0.930 . S
C2718 C2717 1.388 . S
C2718 C2719 1.390 . S
C2719 C2718 1.390 . S
C2719 C2720 1.394 . S
C2719 C2725 1.465 . S
C2720 C2715 1.399 . S
C2720 C2719 1.394 . S
C2720 C2721 1.516 . S
C2721 C2720 1.516 . S
C2721 C2722 1.502 . S
C2721 C2723 1.561 . S
C2721 C2724 1.526 . S
C2722 H2706 0.959 . S
C2722 H2707 0.959 . S
C2722 H2708 0.961 . S
C2722 C2721 1.502 . S
C2723 H2709 0.960 . S
C2723 H2710 0.961 . S
C2723 H2711 0.959 . S
C2723 C2721 1.561 . S
C2724 C2721 1.526 . S
C2724 C2725 1.396 . S
C2724 C2729 1.390 . S
C2725 C2719 1.465 . S
C2725 C2724 1.396 . S
C2725 C2726 1.399 . S
C2726 H2712 0.929 . S
C2726 C2725 1.399 . S
C2726 C2727 1.385 . S
C2727 H2713 0.931 . S
C2727 C2726 1.385 . S
C2727 C2728 1.389 . S
C2728 C2727 1.389 . S
C2728 C2729 1.387 . S
C2729 H2714 0.930 . S
C2729 C2724 1.390 . S
C2729 C2728 1.387 . S
H2730 C2742 0.930 . S
H2731 C2744 0.930 . S
H2732 C2745 0.930 . S
H2733 C2749 0.959 . S
H2734 C2749 0.959 . S
H2735 C2749 0.961 . S
H2736 C2750 0.960 . S
H2737 C2750 0.961 . S
H2738 C2750 0.959 . S
H2739 C2753 0.929 . S
H2740 C2754 0.931 . S
H2741 C2756 0.930 . S
C2742 H2730 0.930 . S
C2742 C2743 1.399 . S
C2742 C2747 1.399 . S
C2743 C2742 1.399 . S
C2743 C2744 1.376 . S
C2744 H2731 0.930 . S
C2744 C2743 1.376 . S
C2744 C2745 1.388 . S
C2745 H2732 0.930 . S
C2745 C2744 1.388 . S
C2745 C2746 1.390 . S
C2746 C2745 1.390 . S
C2746 C2747 1.394 . S
C2746 C2752 1.465 . S
C2747 C2742 1.399 . S
C2747 C2746 1.394 . S
C2747 C2748 1.516 . S
C2748 C2747 1.516 . S
C2748 C2749 1.502 . S
C2748 C2750 1.561 . S
C2748 C2751 1.526 . S
C2749 H2733 0.959 . S
C2749 H2734 0.959 . S
C2749 H2735 0.961 . S
C2749 C2748 1.502 . S
C2750 H2736 0.960 . S
C2750 H2737 0.961 . S
C2750 H2738 0.959 . S
C2750 C2748 1.561 . S
C2751 C2748 1.526 . S
C2751 C2752 1.396 . S
C2751 C2756 1.390 . S
C2752 C2746 1.465 . S
C2752 C2751 1.396 . S
C2752 C2753 1.399 . S
C2753 H2739 0.929 . S
C2753 C2752 1.399 . S
C2753 C2754 1.385 . S
C2754 H2740 0.931 . S
C2754 C2753 1.385 . S
C2754 C2755 1.389 . S
C2755 C2754 1.389 . S
C2755 C2756 1.387 . S
C2756 H2741 0.930 . S
C2756 C2751 1.390 . S
C2756 C2755 1.387 . S
H2757 C2769 0.930 . S
H2758 C2771 0.930 . S
H2759 C2772 0.930 . S
H2760 C2776 0.959 . S
H2761 C2776 0.959 . S
H2762 C2776 0.961 . S
H2763 C2777 0.960 . S
H2764 C2777 0.961 . S
H2765 C2777 0.959 . S
H2766 C2780 0.929 . S
H2767 C2781 0.931 . S
H2768 C2783 0.930 . S
C2769 H2757 0.930 . S
C2769 C2770 1.399 . S
C2769 C2774 1.399 . S
C2770 C2769 1.399 . S
C2770 C2771 1.376 . S
C2771 H2758 0.930 . S
C2771 C2770 1.376 . S
C2771 C2772 1.388 . S
C2772 H2759 0.930 . S
C2772 C2771 1.388 . S
C2772 C2773 1.390 . S
C2773 C2772 1.390 . S
C2773 C2774 1.394 . S
C2773 C2779 1.465 . S
C2774 C2769 1.399 . S
C2774 C2773 1.394 . S
C2774 C2775 1.516 . S
C2775 C2774 1.516 . S
C2775 C2776 1.502 . S
C2775 C2777 1.561 . S
C2775 C2778 1.526 . S
C2776 H2760 0.959 . S
C2776 H2761 0.959 . S
C2776 H2762 0.961 . S
C2776 C2775 1.502 . S
C2777 H2763 0.960 . S
C2777 H2764 0.961 . S
C2777 H2765 0.959 . S
C2777 C2775 1.561 . S
C2778 C2775 1.526 . S
C2778 C2779 1.396 . S
C2778 C2783 1.390 . S
C2779 C2773 1.465 . S
C2779 C2778 1.396 . S
C2779 C2780 1.399 . S
C2780 H2766 0.929 . S
C2780 C2779 1.399 . S
C2780 C2781 1.385 . S
C2781 H2767 0.931 . S
C2781 C2780 1.385 . S
C2781 C2782 1.389 . S
C2782 C2781 1.389 . S
C2782 C2783 1.387 . S
C2783 H2768 0.930 . S
C2783 C2778 1.390 . S
C2783 C2782 1.387 . S
H2784 C2796 0.930 . S
H2785 C2798 0.930 . S
H2786 C2799 0.930 . S
H2787 C2803 0.959 . S
H2788 C2803 0.959 . S
H2789 C2803 0.961 . S
H2790 C2804 0.960 . S
H2791 C2804 0.961 . S
H2792 C2804 0.959 . S
H2793 C2807 0.929 . S
H2794 C2808 0.931 . S
H2795 C2810 0.930 . S
C2796 H2784 0.930 . S
C2796 C2797 1.399 . S
C2796 C2801 1.399 . S
C2797 C2796 1.399 . S
C2797 C2798 1.376 . S
C2798 H2785 0.930 . S
C2798 C2797 1.376 . S
C2798 C2799 1.388 . S
C2799 H2786 0.930 . S
C2799 C2798 1.388 . S
C2799 C2800 1.390 . S
C2800 C2799 1.390 . S
C2800 C2801 1.394 . S
C2800 C2806 1.465 . S
C2801 C2796 1.399 . S
C2801 C2800 1.394 . S
C2801 C2802 1.516 . S
C2802 C2801 1.516 . S
C2802 C2803 1.502 . S
C2802 C2804 1.561 . S
C2802 C2805 1.526 . S
C2803 H2787 0.959 . S
C2803 H2788 0.959 . S
C2803 H2789 0.961 . S
C2803 C2802 1.502 . S
C2804 H2790 0.960 . S
C2804 H2791 0.961 . S
C2804 H2792 0.959 . S
C2804 C2802 1.561 . S
C2805 C2802 1.526 . S
C2805 C2806 1.396 . S
C2805 C2810 1.390 . S
C2806 C2800 1.465 . S
C2806 C2805 1.396 . S
C2806 C2807 1.399 . S
C2807 H2793 0.929 . S
C2807 C2806 1.399 . S
C2807 C2808 1.385 . S
C2808 H2794 0.931 . S
C2808 C2807 1.385 . S
C2808 C2809 1.389 . S
C2809 C2808 1.389 . S
C2809 C2810 1.387 . S
C2810 H2795 0.930 . S
C2810 C2805 1.390 . S
C2810 C2809 1.387 . S
H2811 C2823 0.930 . S
H2812 C2825 0.930 . S
H2813 C2826 0.930 . S
H2814 C2830 0.959 . S
H2815 C2830 0.959 . S
H2816 C2830 0.961 . S
H2817 C2831 0.960 . S
H2818 C2831 0.961 . S
H2819 C2831 0.959 . S
H2820 C2834 0.929 . S
H2821 C2835 0.931 . S
H2822 C2837 0.930 . S
C2823 H2811 0.930 . S
C2823 C2824 1.399 . S
C2823 C2828 1.399 . S
C2824 C2823 1.399 . S
C2824 C2825 1.376 . S
C2825 H2812 0.930 . S
C2825 C2824 1.376 . S
C2825 C2826 1.388 . S
C2826 H2813 0.930 . S
C2826 C2825 1.388 . S
C2826 C2827 1.390 . S
C2827 C2826 1.390 . S
C2827 C2828 1.394 . S
C2827 C2833 1.465 . S
C2828 C2823 1.399 . S
C2828 C2827 1.394 . S
C2828 C2829 1.516 . S
C2829 C2828 1.516 . S
C2829 C2830 1.502 . S
C2829 C2831 1.561 . S
C2829 C2832 1.526 . S
C2830 H2814 0.959 . S
C2830 H2815 0.959 . S
C2830 H2816 0.961 . S
C2830 C2829 1.502 . S
C2831 H2817 0.960 . S
C2831 H2818 0.961 . S
C2831 H2819 0.959 . S
C2831 C2829 1.561 . S
C2832 C2829 1.526 . S
C2832 C2833 1.396 . S
C2832 C2837 1.390 . S
C2833 C2827 1.465 . S
C2833 C2832 1.396 . S
C2833 C2834 1.399 . S
C2834 H2820 0.929 . S
C2834 C2833 1.399 . S
C2834 C2835 1.385 . S
C2835 H2821 0.931 . S
C2835 C2834 1.385 . S
C2835 C2836 1.389 . S
C2836 C2835 1.389 . S
C2836 C2837 1.387 . S
C2837 H2822 0.930 . S
C2837 C2832 1.390 . S
C2837 C2836 1.387 . S
H2838 C2850 0.930 . S
H2839 C2852 0.930 . S
H2840 C2853 0.930 . S
H2841 C2857 0.959 . S
H2842 C2857 0.959 . S
H2843 C2857 0.961 . S
H2844 C2858 0.960 . S
H2845 C2858 0.961 . S
H2846 C2858 0.959 . S
H2847 C2861 0.929 . S
H2848 C2862 0.931 . S
H2849 C2864 0.930 . S
C2850 H2838 0.930 . S
C2850 C2851 1.399 . S
C2850 C2855 1.399 . S
C2851 C2850 1.399 . S
C2851 C2852 1.376 . S
C2852 H2839 0.930 . S
C2852 C2851 1.376 . S
C2852 C2853 1.388 . S
C2853 H2840 0.930 . S
C2853 C2852 1.388 . S
C2853 C2854 1.390 . S
C2854 C2853 1.390 . S
C2854 C2855 1.394 . S
C2854 C2860 1.465 . S
C2855 C2850 1.399 . S
C2855 C2854 1.394 . S
C2855 C2856 1.516 . S
C2856 C2855 1.516 . S
C2856 C2857 1.502 . S
C2856 C2858 1.561 . S
C2856 C2859 1.526 . S
C2857 H2841 0.959 . S
C2857 H2842 0.959 . S
C2857 H2843 0.961 . S
C2857 C2856 1.502 . S
C2858 H2844 0.960 . S
C2858 H2845 0.961 . S
C2858 H2846 0.959 . S
C2858 C2856 1.561 . S
C2859 C2856 1.526 . S
C2859 C2860 1.396 . S
C2859 C2864 1.390 . S
C2860 C2854 1.465 . S
C2860 C2859 1.396 . S
C2860 C2861 1.399 . S
C2861 H2847 0.929 . S
C2861 C2860 1.399 . S
C2861 C2862 1.385 . S
C2862 H2848 0.931 . S
C2862 C2861 1.385 . S
C2862 C2863 1.389 . S
C2863 C2862 1.389 . S
C2863 C2864 1.387 . S
C2864 H2849 0.930 . S
C2864 C2859 1.390 . S
C2864 C2863 1.387 . S
H2865 C2877 0.930 . S
H2866 C2879 0.930 . S
H2867 C2880 0.930 . S
H2868 C2884 0.959 . S
H2869 C2884 0.959 . S
H2870 C2884 0.961 . S
H2871 C2885 0.960 . S
H2872 C2885 0.961 . S
H2873 C2885 0.959 . S
H2874 C2888 0.929 . S
H2875 C2889 0.931 . S
H2876 C2891 0.930 . S
C2877 H2865 0.930 . S
C2877 C2878 1.399 . S
C2877 C2882 1.399 . S
C2878 C2877 1.399 . S
C2878 C2879 1.376 . S
C2879 H2866 0.930 . S
C2879 C2878 1.376 . S
C2879 C2880 1.388 . S
C2880 H2867 0.930 . S
C2880 C2879 1.388 . S
C2880 C2881 1.390 . S
C2881 C2880 1.390 . S
C2881 C2882 1.394 . S
C2881 C2887 1.465 . S
C2882 C2877 1.399 . S
C2882 C2881 1.394 . S
C2882 C2883 1.516 . S
C2883 C2882 1.516 . S
C2883 C2884 1.502 . S
C2883 C2885 1.561 . S
C2883 C2886 1.526 . S
C2884 H2868 0.959 . S
C2884 H2869 0.959 . S
C2884 H2870 0.961 . S
C2884 C2883 1.502 . S
C2885 H2871 0.960 . S
C2885 H2872 0.961 . S
C2885 H2873 0.959 . S
C2885 C2883 1.561 . S
C2886 C2883 1.526 . S
C2886 C2887 1.396 . S
C2886 C2891 1.390 . S
C2887 C2881 1.465 . S
C2887 C2886 1.396 . S
C2887 C2888 1.399 . S
C2888 H2874 0.929 . S
C2888 C2887 1.399 . S
C2888 C2889 1.385 . S
C2889 H2875 0.931 . S
C2889 C2888 1.385 . S
C2889 C2890 1.389 . S
C2890 C2889 1.389 . S
C2890 C2891 1.387 . S
C2891 H2876 0.930 . S
C2891 C2886 1.390 . S
C2891 C2890 1.387 . S
H2892 C2904 0.930 . S
H2893 C2906 0.930 . S
H2894 C2907 0.930 . S
H2895 C2911 0.959 . S
H2896 C2911 0.959 . S
H2897 C2911 0.961 . S
H2898 C2912 0.960 . S
H2899 C2912 0.961 . S
H2900 C2912 0.959 . S
H2901 C2915 0.929 . S
H2902 C2916 0.931 . S
H2903 C2918 0.930 . S
C2904 H2892 0.930 . S
C2904 C2905 1.399 . S
C2904 C2909 1.399 . S
C2905 C2904 1.399 . S
C2905 C2906 1.376 . S
C2906 H2893 0.930 . S
C2906 C2905 1.376 . S
C2906 C2907 1.388 . S
C2907 H2894 0.930 . S
C2907 C2906 1.388 . S
C2907 C2908 1.390 . S
C2908 C2907 1.390 . S
C2908 C2909 1.394 . S
C2908 C2914 1.465 . S
C2909 C2904 1.399 . S
C2909 C2908 1.394 . S
C2909 C2910 1.516 . S
C2910 C2909 1.516 . S
C2910 C2911 1.502 . S
C2910 C2912 1.561 . S
C2910 C2913 1.526 . S
C2911 H2895 0.959 . S
C2911 H2896 0.959 . S
C2911 H2897 0.961 . S
C2911 C2910 1.502 . S
C2912 H2898 0.960 . S
C2912 H2899 0.961 . S
C2912 H2900 0.959 . S
C2912 C2910 1.561 . S
C2913 C2910 1.526 . S
C2913 C2914 1.396 . S
C2913 C2918 1.390 . S
C2914 C2908 1.465 . S
C2914 C2913 1.396 . S
C2914 C2915 1.399 . S
C2915 H2901 0.929 . S
C2915 C2914 1.399 . S
C2915 C2916 1.385 . S
C2916 H2902 0.931 . S
C2916 C2915 1.385 . S
C2916 C2917 1.389 . S
C2917 C2916 1.389 . S
C2917 C2918 1.387 . S
C2918 H2903 0.930 . S
C2918 C2913 1.390 . S
C2918 C2917 1.387 . S
H2919 C2931 0.930 . S
H2920 C2933 0.930 . S
H2921 C2934 0.930 . S
H2922 C2938 0.959 . S
H2923 C2938 0.959 . S
H2924 C2938 0.961 . S
H2925 C2939 0.960 . S
H2926 C2939 0.961 . S
H2927 C2939 0.959 . S
H2928 C2942 0.929 . S
H2929 C2943 0.931 . S
H2930 C2945 0.930 . S
C2931 H2919 0.930 . S
C2931 C2932 1.399 . S
C2931 C2936 1.399 . S
C2932 C2931 1.399 . S
C2932 C2933 1.376 . S
C2933 H2920 0.930 . S
C2933 C2932 1.376 . S
C2933 C2934 1.388 . S
C2934 H2921 0.930 . S
C2934 C2933 1.388 . S
C2934 C2935 1.390 . S
C2935 C2934 1.390 . S
C2935 C2936 1.394 . S
C2935 C2941 1.465 . S
C2936 C2931 1.399 . S
C2936 C2935 1.394 . S
C2936 C2937 1.516 . S
C2937 C2936 1.516 . S
C2937 C2938 1.502 . S
C2937 C2939 1.561 . S
C2937 C2940 1.526 . S
C2938 H2922 0.959 . S
C2938 H2923 0.959 . S
C2938 H2924 0.961 . S
C2938 C2937 1.502 . S
C2939 H2925 0.960 . S
C2939 H2926 0.961 . S
C2939 H2927 0.959 . S
C2939 C2937 1.561 . S
C2940 C2937 1.526 . S
C2940 C2941 1.396 . S
C2940 C2945 1.390 . S
C2941 C2935 1.465 . S
C2941 C2940 1.396 . S
C2941 C2942 1.399 . S
C2942 H2928 0.929 . S
C2942 C2941 1.399 . S
C2942 C2943 1.385 . S
C2943 H2929 0.931 . S
C2943 C2942 1.385 . S
C2943 C2944 1.389 . S
C2944 C2943 1.389 . S
C2944 C2945 1.387 . S
C2945 H2930 0.930 . S
C2945 C2940 1.390 . S
C2945 C2944 1.387 . S
H2946 C2958 0.930 . S
H2947 C2960 0.930 . S
H2948 C2961 0.930 . S
H2949 C2965 0.959 . S
H2950 C2965 0.959 . S
H2951 C2965 0.961 . S
H2952 C2966 0.960 . S
H2953 C2966 0.961 . S
H2954 C2966 0.959 . S
H2955 C2969 0.929 . S
H2956 C2970 0.931 . S
H2957 C2972 0.930 . S
C2958 H2946 0.930 . S
C2958 C2959 1.399 . S
C2958 C2963 1.399 . S
C2959 C2958 1.399 . S
C2959 C2960 1.376 . S
C2960 H2947 0.930 . S
C2960 C2959 1.376 . S
C2960 C2961 1.388 . S
C2961 H2948 0.930 . S
C2961 C2960 1.388 . S
C2961 C2962 1.390 . S
C2962 C2961 1.390 . S
C2962 C2963 1.394 . S
C2962 C2968 1.465 . S
C2963 C2958 1.399 . S
C2963 C2962 1.394 . S
C2963 C2964 1.516 . S
C2964 C2963 1.516 . S
C2964 C2965 1.502 . S
C2964 C2966 1.561 . S
C2964 C2967 1.526 . S
C2965 H2949 0.959 . S
C2965 H2950 0.959 . S
C2965 H2951 0.961 . S
C2965 C2964 1.502 . S
C2966 H2952 0.960 . S
C2966 H2953 0.961 . S
C2966 H2954 0.959 . S
C2966 C2964 1.561 . S
C2967 C2964 1.526 . S
C2967 C2968 1.396 . S
C2967 C2972 1.390 . S
C2968 C2962 1.465 . S
C2968 C2967 1.396 . S
C2968 C2969 1.399 . S
C2969 H2955 0.929 . S
C2969 C2968 1.399 . S
C2969 C2970 1.385 . S
C2970 H2956 0.931 . S
C2970 C2969 1.385 . S
C2970 C2971 1.389 . S
C2971 C2970 1.389 . S
C2971 C2972 1.387 . S
C2972 H2957 0.930 . S
C2972 C2967 1.390 . S
C2972 C2971 1.387 . S
H2973 C2985 0.930 . S
H2974 C2987 0.930 . S
H2975 C2988 0.930 . S
H2976 C2992 0.959 . S
H2977 C2992 0.959 . S
H2978 C2992 0.961 . S
H2979 C2993 0.960 . S
H2980 C2993 0.961 . S
H2981 C2993 0.959 . S
H2982 C2996 0.929 . S
H2983 C2997 0.931 . S
H2984 C2999 0.930 . S
C2985 H2973 0.930 . S
C2985 C2986 1.399 . S
C2985 C2990 1.399 . S
C2986 C2985 1.399 . S
C2986 C2987 1.376 . S
C2987 H2974 0.930 . S
C2987 C2986 1.376 . S
C2987 C2988 1.388 . S
C2988 H2975 0.930 . S
C2988 C2987 1.388 . S
C2988 C2989 1.390 . S
C2989 C2988 1.390 . S
C2989 C2990 1.394 . S
C2989 C2995 1.465 . S
C2990 C2985 1.399 . S
C2990 C2989 1.394 . S
C2990 C2991 1.516 . S
C2991 C2990 1.516 . S
C2991 C2992 1.502 . S
C2991 C2993 1.561 . S
C2991 C2994 1.526 . S
C2992 H2976 0.959 . S
C2992 H2977 0.959 . S
C2992 H2978 0.961 . S
C2992 C2991 1.502 . S
C2993 H2979 0.960 . S
C2993 H2980 0.961 . S
C2993 H2981 0.959 . S
C2993 C2991 1.561 . S
C2994 C2991 1.526 . S
C2994 C2995 1.396 . S
C2994 C2999 1.390 . S
C2995 C2989 1.465 . S
C2995 C2994 1.396 . S
C2995 C2996 1.399 . S
C2996 H2982 0.929 . S
C2996 C2995 1.399 . S
C2996 C2997 1.385 . S
C2997 H2983 0.931 . S
C2997 C2996 1.385 . S
C2997 C2998 1.389 . S
C2998 C2997 1.389 . S
C2998 C2999 1.387 . S
C2999 H2984 0.930 . S
C2999 C2994 1.390 . S
C2999 C2998 1.387 . S
H3000 C3012 0.930 . S
H3001 C3014 0.930 . S
H3002 C3015 0.930 . S
H3003 C3019 0.959 . S
H3004 C3019 0.959 . S
H3005 C3019 0.961 . S
H3006 C3020 0.960 . S
H3007 C3020 0.961 . S
H3008 C3020 0.959 . S
H3009 C3023 0.929 . S
H3010 C3024 0.931 . S
H3011 C3026 0.930 . S
C3012 H3000 0.930 . S
C3012 C3013 1.399 . S
C3012 C3017 1.399 . S
C3013 C3012 1.399 . S
C3013 C3014 1.376 . S
C3014 H3001 0.930 . S
C3014 C3013 1.376 . S
C3014 C3015 1.388 . S
C3015 H3002 0.930 . S
C3015 C3014 1.388 . S
C3015 C3016 1.390 . S
C3016 C3015 1.390 . S
C3016 C3017 1.394 . S
C3016 C3022 1.465 . S
C3017 C3012 1.399 . S
C3017 C3016 1.394 . S
C3017 C3018 1.516 . S
C3018 C3017 1.516 . S
C3018 C3019 1.502 . S
C3018 C3020 1.561 . S
C3018 C3021 1.526 . S
C3019 H3003 0.959 . S
C3019 H3004 0.959 . S
C3019 H3005 0.961 . S
C3019 C3018 1.502 . S
C3020 H3006 0.960 . S
C3020 H3007 0.961 . S
C3020 H3008 0.959 . S
C3020 C3018 1.561 . S
C3021 C3018 1.526 . S
C3021 C3022 1.396 . S
C3021 C3026 1.390 . S
C3022 C3016 1.465 . S
C3022 C3021 1.396 . S
C3022 C3023 1.399 . S
C3023 H3009 0.929 . S
C3023 C3022 1.399 . S
C3023 C3024 1.385 . S
C3024 H3010 0.931 . S
C3024 C3023 1.385 . S
C3024 C3025 1.389 . S
C3025 C3024 1.389 . S
C3025 C3026 1.387 . S
C3026 H3011 0.930 . S
C3026 C3021 1.390 . S
C3026 C3025 1.387 . S
H3027 C3039 0.930 . S
H3028 C3041 0.930 . S
H3029 C3042 0.930 . S
H3030 C3046 0.959 . S
H3031 C3046 0.959 . S
H3032 C3046 0.961 . S
H3033 C3047 0.960 . S
H3034 C3047 0.961 . S
H3035 C3047 0.959 . S
H3036 C3050 0.929 . S
H3037 C3051 0.931 . S
H3038 C3053 0.930 . S
C3039 H3027 0.930 . S
C3039 C3040 1.399 . S
C3039 C3044 1.399 . S
C3040 C3039 1.399 . S
C3040 C3041 1.376 . S
C3041 H3028 0.930 . S
C3041 C3040 1.376 . S
C3041 C3042 1.388 . S
C3042 H3029 0.930 . S
C3042 C3041 1.388 . S
C3042 C3043 1.390 . S
C3043 C3042 1.390 . S
C3043 C3044 1.394 . S
C3043 C3049 1.465 . S
C3044 C3039 1.399 . S
C3044 C3043 1.394 . S
C3044 C3045 1.516 . S
C3045 C3044 1.516 . S
C3045 C3046 1.502 . S
C3045 C3047 1.561 . S
C3045 C3048 1.526 . S
C3046 H3030 0.959 . S
C3046 H3031 0.959 . S
C3046 H3032 0.961 . S
C3046 C3045 1.502 . S
C3047 H3033 0.960 . S
C3047 H3034 0.961 . S
C3047 H3035 0.959 . S
C3047 C3045 1.561 . S
C3048 C3045 1.526 . S
C3048 C3049 1.396 . S
C3048 C3053 1.390 . S
C3049 C3043 1.465 . S
C3049 C3048 1.396 . S
C3049 C3050 1.399 . S
C3050 H3036 0.929 . S
C3050 C3049 1.399 . S
C3050 C3051 1.385 . S
C3051 H3037 0.931 . S
C3051 C3050 1.385 . S
C3051 C3052 1.389 . S
C3052 C3051 1.389 . S
C3052 C3053 1.387 . S
C3053 H3038 0.930 . S
C3053 C3048 1.390 . S
C3053 C3052 1.387 . S
H3054 C3066 0.930 . S
H3055 C3068 0.930 . S
H3056 C3069 0.930 . S
H3057 C3073 0.959 . S
H3058 C3073 0.959 . S
H3059 C3073 0.961 . S
H3060 C3074 0.960 . S
H3061 C3074 0.961 . S
H3062 C3074 0.959 . S
H3063 C3077 0.929 . S
H3064 C3078 0.931 . S
H3065 C3080 0.930 . S
C3066 H3054 0.930 . S
C3066 C3067 1.399 . S
C3066 C3071 1.399 . S
C3067 C3066 1.399 . S
C3067 C3068 1.376 . S
C3068 H3055 0.930 . S
C3068 C3067 1.376 . S
C3068 C3069 1.388 . S
C3069 H3056 0.930 . S
C3069 C3068 1.388 . S
C3069 C3070 1.390 . S
C3070 C3069 1.390 . S
C3070 C3071 1.394 . S
C3070 C3076 1.465 . S
C3071 C3066 1.399 . S
C3071 C3070 1.394 . S
C3071 C3072 1.516 . S
C3072 C3071 1.516 . S
C3072 C3073 1.502 . S
C3072 C3074 1.561 . S
C3072 C3075 1.526 . S
C3073 H3057 0.959 . S
C3073 H3058 0.959 . S
C3073 H3059 0.961 . S
C3073 C3072 1.502 . S
C3074 H3060 0.960 . S
C3074 H3061 0.961 . S
C3074 H3062 0.959 . S
C3074 C3072 1.561 . S
C3075 C3072 1.526 . S
C3075 C3076 1.396 . S
C3075 C3080 1.390 . S
C3076 C3070 1.465 . S
C3076 C3075 1.396 . S
C3076 C3077 1.399 . S
C3077 H3063 0.929 . S
C3077 C3076 1.399 . S
C3077 C3078 1.385 . S
C3078 H3064 0.931 . S
C3078 C3077 1.385 . S
C3078 C3079 1.389 . S
C3079 C3078 1.389 . S
C3079 C3080 1.387 . S
C3080 H3065 0.930 . S
C3080 C3075 1.390 . S
C3080 C3079 1.387 . S
H3081 C3093 0.930 . S
H3082 C3095 0.930 . S
H3083 C3096 0.930 . S
H3084 C3100 0.959 . S
H3085 C3100 0.959 . S
H3086 C3100 0.961 . S
H3087 C3101 0.960 . S
H3088 C3101 0.961 . S
H3089 C3101 0.959 . S
H3090 C3104 0.929 . S
H3091 C3105 0.931 . S
H3092 C3107 0.930 . S
C3093 H3081 0.930 . S
C3093 C3094 1.399 . S
C3093 C3098 1.399 . S
C3094 C3093 1.399 . S
C3094 C3095 1.376 . S
C3095 H3082 0.930 . S
C3095 C3094 1.376 . S
C3095 C3096 1.388 . S
C3096 H3083 0.930 . S
C3096 C3095 1.388 . S
C3096 C3097 1.390 . S
C3097 C3096 1.390 . S
C3097 C3098 1.394 . S
C3097 C3103 1.465 . S
C3098 C3093 1.399 . S
C3098 C3097 1.394 . S
C3098 C3099 1.516 . S
C3099 C3098 1.516 . S
C3099 C3100 1.502 . S
C3099 C3101 1.561 . S
C3099 C3102 1.526 . S
C3100 H3084 0.959 . S
C3100 H3085 0.959 . S
C3100 H3086 0.961 . S
C3100 C3099 1.502 . S
C3101 H3087 0.960 . S
C3101 H3088 0.961 . S
C3101 H3089 0.959 . S
C3101 C3099 1.561 . S
C3102 C3099 1.526 . S
C3102 C3103 1.396 . S
C3102 C3107 1.390 . S
C3103 C3097 1.465 . S
C3103 C3102 1.396 . S
C3103 C3104 1.399 . S
C3104 H3090 0.929 . S
C3104 C3103 1.399 . S
C3104 C3105 1.385 . S
C3105 H3091 0.931 . S
C3105 C3104 1.385 . S
C3105 C3106 1.389 . S
C3106 C3105 1.389 . S
C3106 C3107 1.387 . S
C3107 H3092 0.930 . S
C3107 C3102 1.390 . S
C3107 C3106 1.387 . S
H3108 C3120 0.930 . S
H3109 C3122 0.930 . S
H3110 C3123 0.930 . S
H3111 C3127 0.959 . S
H3112 C3127 0.959 . S
H3113 C3127 0.961 . S
H3114 C3128 0.960 . S
H3115 C3128 0.961 . S
H3116 C3128 0.959 . S
H3117 C3131 0.929 . S
H3118 C3132 0.931 . S
H3119 C3134 0.930 . S
C3120 H3108 0.930 . S
C3120 C3121 1.399 . S
C3120 C3125 1.399 . S
C3121 C3120 1.399 . S
C3121 C3122 1.376 . S
C3122 H3109 0.930 . S
C3122 C3121 1.376 . S
C3122 C3123 1.388 . S
C3123 H3110 0.930 . S
C3123 C3122 1.388 . S
C3123 C3124 1.390 . S
C3124 C3123 1.390 . S
C3124 C3125 1.394 . S
C3124 C3130 1.465 . S
C3125 C3120 1.399 . S
C3125 C3124 1.394 . S
C3125 C3126 1.516 . S
C3126 C3125 1.516 . S
C3126 C3127 1.502 . S
C3126 C3128 1.561 . S
C3126 C3129 1.526 . S
C3127 H3111 0.959 . S
C3127 H3112 0.959 . S
C3127 H3113 0.961 . S
C3127 C3126 1.502 . S
C3128 H3114 0.960 . S
C3128 H3115 0.961 . S
C3128 H3116 0.959 . S
C3128 C3126 1.561 . S
C3129 C3126 1.526 . S
C3129 C3130 1.396 . S
C3129 C3134 1.390 . S
C3130 C3124 1.465 . S
C3130 C3129 1.396 . S
C3130 C3131 1.399 . S
C3131 H3117 0.929 . S
C3131 C3130 1.399 . S
C3131 C3132 1.385 . S
C3132 H3118 0.931 . S
C3132 C3131 1.385 . S
C3132 C3133 1.389 . S
C3133 C3132 1.389 . S
C3133 C3134 1.387 . S
C3134 H3119 0.930 . S
C3134 C3129 1.390 . S
C3134 C3133 1.387 . S
H3135 C3147 0.930 . S
H3136 C3149 0.930 . S
H3137 C3150 0.930 . S
H3138 C3154 0.959 . S
H3139 C3154 0.959 . S
H3140 C3154 0.961 . S
H3141 C3155 0.960 . S
H3142 C3155 0.961 . S
H3143 C3155 0.959 . S
H3144 C3158 0.929 . S
H3145 C3159 0.931 . S
H3146 C3161 0.930 . S
C3147 H3135 0.930 . S
C3147 C3148 1.399 . S
C3147 C3152 1.399 . S
C3148 C3147 1.399 . S
C3148 C3149 1.376 . S
C3149 H3136 0.930 . S
C3149 C3148 1.376 . S
C3149 C3150 1.388 . S
C3150 H3137 0.930 . S
C3150 C3149 1.388 . S
C3150 C3151 1.390 . S
C3151 C3150 1.390 . S
C3151 C3152 1.394 . S
C3151 C3157 1.465 . S
C3152 C3147 1.399 . S
C3152 C3151 1.394 . S
C3152 C3153 1.516 . S
C3153 C3152 1.516 . S
C3153 C3154 1.502 . S
C3153 C3155 1.561 . S
C3153 C3156 1.526 . S
C3154 H3138 0.959 . S
C3154 H3139 0.959 . S
C3154 H3140 0.961 . S
C3154 C3153 1.502 . S
C3155 H3141 0.960 . S
C3155 H3142 0.961 . S
C3155 H3143 0.959 . S
C3155 C3153 1.561 . S
C3156 C3153 1.526 . S
C3156 C3157 1.396 . S
C3156 C3161 1.390 . S
C3157 C3151 1.465 . S
C3157 C3156 1.396 . S
C3157 C3158 1.399 . S
C3158 H3144 0.929 . S
C3158 C3157 1.399 . S
C3158 C3159 1.385 . S
C3159 H3145 0.931 . S
C3159 C3158 1.385 . S
C3159 C3160 1.389 . S
C3160 C3159 1.389 . S
C3160 C3161 1.387 . S
C3161 H3146 0.930 . S
C3161 C3156 1.390 . S
C3161 C3160 1.387 . S
H3162 C3174 0.930 . S
H3163 C3176 0.930 . S
H3164 C3177 0.930 . S
H3165 C3181 0.959 . S
H3166 C3181 0.959 . S
H3167 C3181 0.961 . S
H3168 C3182 0.960 . S
H3169 C3182 0.961 . S
H3170 C3182 0.959 . S
H3171 C3185 0.929 . S
H3172 C3186 0.931 . S
H3173 C3188 0.930 . S
C3174 H3162 0.930 . S
C3174 C3175 1.399 . S
C3174 C3179 1.399 . S
C3175 C3174 1.399 . S
C3175 C3176 1.376 . S
C3176 H3163 0.930 . S
C3176 C3175 1.376 . S
C3176 C3177 1.388 . S
C3177 H3164 0.930 . S
C3177 C3176 1.388 . S
C3177 C3178 1.390 . S
C3178 C3177 1.390 . S
C3178 C3179 1.394 . S
C3178 C3184 1.465 . S
C3179 C3174 1.399 . S
C3179 C3178 1.394 . S
C3179 C3180 1.516 . S
C3180 C3179 1.516 . S
C3180 C3181 1.502 . S
C3180 C3182 1.561 . S
C3180 C3183 1.526 . S
C3181 H3165 0.959 . S
C3181 H3166 0.959 . S
C3181 H3167 0.961 . S
C3181 C3180 1.502 . S
C3182 H3168 0.960 . S
C3182 H3169 0.961 . S
C3182 H3170 0.959 . S
C3182 C3180 1.561 . S
C3183 C3180 1.526 . S
C3183 C3184 1.396 . S
C3183 C3188 1.390 . S
C3184 C3178 1.465 . S
C3184 C3183 1.396 . S
C3184 C3185 1.399 . S
C3185 H3171 0.929 . S
C3185 C3184 1.399 . S
C3185 C3186 1.385 . S
C3186 H3172 0.931 . S
C3186 C3185 1.385 . S
C3186 C3187 1.389 . S
C3187 C3186 1.389 . S
C3187 C3188 1.387 . S
C3188 H3173 0.930 . S
C3188 C3183 1.390 . S
C3188 C3187 1.387 . S
H3189 C3201 0.930 . S
H3190 C3203 0.930 . S
H3191 C3204 0.930 . S
H3192 C3208 0.959 . S
H3193 C3208 0.959 . S
H3194 C3208 0.961 . S
H3195 C3209 0.960 . S
H3196 C3209 0.961 . S
H3197 C3209 0.959 . S
H3198 C3212 0.929 . S
H3199 C3213 0.931 . S
H3200 C3215 0.930 . S
C3201 H3189 0.930 . S
C3201 C3202 1.399 . S
C3201 C3206 1.399 . S
C3202 C3201 1.399 . S
C3202 C3203 1.376 . S
C3203 H3190 0.930 . S
C3203 C3202 1.376 . S
C3203 C3204 1.388 . S
C3204 H3191 0.930 . S
C3204 C3203 1.388 . S
C3204 C3205 1.390 . S
C3205 C3204 1.390 . S
C3205 C3206 1.394 . S
C3205 C3211 1.465 . S
C3206 C3201 1.399 . S
C3206 C3205 1.394 . S
C3206 C3207 1.516 . S
C3207 C3206 1.516 . S
C3207 C3208 1.502 . S
C3207 C3209 1.561 . S
C3207 C3210 1.526 . S
C3208 H3192 0.959 . S
C3208 H3193 0.959 . S
C3208 H3194 0.961 . S
C3208 C3207 1.502 . S
C3209 H3195 0.960 . S
C3209 H3196 0.961 . S
C3209 H3197 0.959 . S
C3209 C3207 1.561 . S
C3210 C3207 1.526 . S
C3210 C3211 1.396 . S
C3210 C3215 1.390 . S
C3211 C3205 1.465 . S
C3211 C3210 1.396 . S
C3211 C3212 1.399 . S
C3212 H3198 0.929 . S
C3212 C3211 1.399 . S
C3212 C3213 1.385 . S
C3213 H3199 0.931 . S
C3213 C3212 1.385 . S
C3213 C3214 1.389 . S
C3214 C3213 1.389 . S
C3214 C3215 1.387 . S
C3215 H3200 0.930 . S
C3215 C3210 1.390 . S
C3215 C3214 1.387 . S
H3216 C3228 0.930 . S
H3217 C3230 0.930 . S
H3218 C3231 0.930 . S
H3219 C3235 0.959 . S
H3220 C3235 0.959 . S
H3221 C3235 0.961 . S
H3222 C3236 0.960 . S
H3223 C3236 0.961 . S
H3224 C3236 0.959 . S
H3225 C3239 0.929 . S
H3226 C3240 0.931 . S
H3227 C3242 0.930 . S
C3228 H3216 0.930 . S
C3228 C3229 1.399 . S
C3228 C3233 1.399 . S
C3229 C3228 1.399 . S
C3229 C3230 1.376 . S
C3230 H3217 0.930 . S
C3230 C3229 1.376 . S
C3230 C3231 1.388 . S
C3231 H3218 0.930 . S
C3231 C3230 1.388 . S
C3231 C3232 1.390 . S
C3232 C3231 1.390 . S
C3232 C3233 1.394 . S
C3232 C3238 1.465 . S
C3233 C3228 1.399 . S
C3233 C3232 1.394 . S
C3233 C3234 1.516 . S
C3234 C3233 1.516 . S
C3234 C3235 1.502 . S
C3234 C3236 1.561 . S
C3234 C3237 1.526 . S
C3235 H3219 0.959 . S
C3235 H3220 0.959 . S
C3235 H3221 0.961 . S
C3235 C3234 1.502 . S
C3236 H3222 0.960 . S
C3236 H3223 0.961 . S
C3236 H3224 0.959 . S
C3236 C3234 1.561 . S
C3237 C3234 1.526 . S
C3237 C3238 1.396 . S
C3237 C3242 1.390 . S
C3238 C3232 1.465 . S
C3238 C3237 1.396 . S
C3238 C3239 1.399 . S
C3239 H3225 0.929 . S
C3239 C3238 1.399 . S
C3239 C3240 1.385 . S
C3240 H3226 0.931 . S
C3240 C3239 1.385 . S
C3240 C3241 1.389 . S
C3241 C3240 1.389 . S
C3241 C3242 1.387 . S
C3242 H3227 0.930 . S
C3242 C3237 1.390 . S
C3242 C3241 1.387 . S
H3243 C3255 0.930 . S
H3244 C3257 0.930 . S
H3245 C3258 0.930 . S
H3246 C3262 0.959 . S
H3247 C3262 0.959 . S
H3248 C3262 0.961 . S
H3249 C3263 0.960 . S
H3250 C3263 0.961 . S
H3251 C3263 0.959 . S
H3252 C3266 0.929 . S
H3253 C3267 0.931 . S
H3254 C3269 0.930 . S
C3255 H3243 0.930 . S
C3255 C3256 1.399 . S
C3255 C3260 1.399 . S
C3256 C3255 1.399 . S
C3256 C3257 1.376 . S
C3257 H3244 0.930 . S
C3257 C3256 1.376 . S
C3257 C3258 1.388 . S
C3258 H3245 0.930 . S
C3258 C3257 1.388 . S
C3258 C3259 1.390 . S
C3259 C3258 1.390 . S
C3259 C3260 1.394 . S
C3259 C3265 1.465 . S
C3260 C3255 1.399 . S
C3260 C3259 1.394 . S
C3260 C3261 1.516 . S
C3261 C3260 1.516 . S
C3261 C3262 1.502 . S
C3261 C3263 1.561 . S
C3261 C3264 1.526 . S
C3262 H3246 0.959 . S
C3262 H3247 0.959 . S
C3262 H3248 0.961 . S
C3262 C3261 1.502 . S
C3263 H3249 0.960 . S
C3263 H3250 0.961 . S
C3263 H3251 0.959 . S
C3263 C3261 1.561 . S
C3264 C3261 1.526 . S
C3264 C3265 1.396 . S
C3264 C3269 1.390 . S
C3265 C3259 1.465 . S
C3265 C3264 1.396 . S
C3265 C3266 1.399 . S
C3266 H3252 0.929 . S
C3266 C3265 1.399 . S
C3266 C3267 1.385 . S
C3267 H3253 0.931 . S
C3267 C3266 1.385 . S
C3267 C3268 1.389 . S
C3268 C3267 1.389 . S
C3268 C3269 1.387 . S
C3269 H3254 0.930 . S
C3269 C3264 1.390 . S
C3269 C3268 1.387 . S
H3270 C3282 0.930 . S
H3271 C3284 0.930 . S
H3272 C3285 0.930 . S
H3273 C3289 0.959 . S
H3274 C3289 0.959 . S
H3275 C3289 0.961 . S
H3276 C3290 0.960 . S
H3277 C3290 0.961 . S
H3278 C3290 0.959 . S
H3279 C3293 0.929 . S
H3280 C3294 0.931 . S
H3281 C3296 0.930 . S
C3282 H3270 0.930 . S
C3282 C3283 1.399 . S
C3282 C3287 1.399 . S
C3283 C3282 1.399 . S
C3283 C3284 1.376 . S
C3284 H3271 0.930 . S
C3284 C3283 1.376 . S
C3284 C3285 1.388 . S
C3285 H3272 0.930 . S
C3285 C3284 1.388 . S
C3285 C3286 1.390 . S
C3286 C3285 1.390 . S
C3286 C3287 1.394 . S
C3286 C3292 1.465 . S
C3287 C3282 1.399 . S
C3287 C3286 1.394 . S
C3287 C3288 1.516 . S
C3288 C3287 1.516 . S
C3288 C3289 1.502 . S
C3288 C3290 1.561 . S
C3288 C3291 1.526 . S
C3289 H3273 0.959 . S
C3289 H3274 0.959 . S
C3289 H3275 0.961 . S
C3289 C3288 1.502 . S
C3290 H3276 0.960 . S
C3290 H3277 0.961 . S
C3290 H3278 0.959 . S
C3290 C3288 1.561 . S
C3291 C3288 1.526 . S
C3291 C3292 1.396 . S
C3291 C3296 1.390 . S
C3292 C3286 1.465 . S
C3292 C3291 1.396 . S
C3292 C3293 1.399 . S
C3293 H3279 0.929 . S
C3293 C3292 1.399 . S
C3293 C3294 1.385 . S
C3294 H3280 0.931 . S
C3294 C3293 1.385 . S
C3294 C3295 1.389 . S
C3295 C3294 1.389 . S
C3295 C3296 1.387 . S
C3296 H3281 0.930 . S
C3296 C3291 1.390 . S
C3296 C3295 1.387 . S
H3297 C3309 0.930 . S
H3298 C3311 0.930 . S
H3299 C3312 0.930 . S
H3300 C3316 0.959 . S
H3301 C3316 0.959 . S
H3302 C3316 0.961 . S
H3303 C3317 0.960 . S
H3304 C3317 0.961 . S
H3305 C3317 0.959 . S
H3306 C3320 0.929 . S
H3307 C3321 0.931 . S
H3308 C3323 0.930 . S
C3309 H3297 0.930 . S
C3309 C3310 1.399 . S
C3309 C3314 1.399 . S
C3310 C3309 1.399 . S
C3310 C3311 1.376 . S
C3311 H3298 0.930 . S
C3311 C3310 1.376 . S
C3311 C3312 1.388 . S
C3312 H3299 0.930 . S
C3312 C3311 1.388 . S
C3312 C3313 1.390 . S
C3313 C3312 1.390 . S
C3313 C3314 1.394 . S
C3313 C3319 1.465 . S
C3314 C3309 1.399 . S
C3314 C3313 1.394 . S
C3314 C3315 1.516 . S
C3315 C3314 1.516 . S
C3315 C3316 1.502 . S
C3315 C3317 1.561 . S
C3315 C3318 1.526 . S
C3316 H3300 0.959 . S
C3316 H3301 0.959 . S
C3316 H3302 0.961 . S
C3316 C3315 1.502 . S
C3317 H3303 0.960 . S
C3317 H3304 0.961 . S
C3317 H3305 0.959 . S
C3317 C3315 1.561 . S
C3318 C3315 1.526 . S
C3318 C3319 1.396 . S
C3318 C3323 1.390 . S
C3319 C3313 1.465 . S
C3319 C3318 1.396 . S
C3319 C3320 1.399 . S
C3320 H3306 0.929 . S
C3320 C3319 1.399 . S
C3320 C3321 1.385 . S
C3321 H3307 0.931 . S
C3321 C3320 1.385 . S
C3321 C3322 1.389 . S
C3322 C3321 1.389 . S
C3322 C3323 1.387 . S
C3323 H3308 0.930 . S
C3323 C3318 1.390 . S
C3323 C3322 1.387 . S
H3324 C3336 0.930 . S
H3325 C3338 0.930 . S
H3326 C3339 0.930 . S
H3327 C3343 0.959 . S
H3328 C3343 0.959 . S
H3329 C3343 0.961 . S
H3330 C3344 0.960 . S
H3331 C3344 0.961 . S
H3332 C3344 0.959 . S
H3333 C3347 0.929 . S
H3334 C3348 0.931 . S
H3335 C3350 0.930 . S
C3336 H3324 0.930 . S
C3336 C3337 1.399 . S
C3336 C3341 1.399 . S
C3337 C3336 1.399 . S
C3337 C3338 1.376 . S
C3338 H3325 0.930 . S
C3338 C3337 1.376 . S
C3338 C3339 1.388 . S
C3339 H3326 0.930 . S
C3339 C3338 1.388 . S
C3339 C3340 1.390 . S
C3340 C3339 1.390 . S
C3340 C3341 1.394 . S
C3340 C3346 1.465 . S
C3341 C3336 1.399 . S
C3341 C3340 1.394 . S
C3341 C3342 1.516 . S
C3342 C3341 1.516 . S
C3342 C3343 1.502 . S
C3342 C3344 1.561 . S
C3342 C3345 1.526 . S
C3343 H3327 0.959 . S
C3343 H3328 0.959 . S
C3343 H3329 0.961 . S
C3343 C3342 1.502 . S
C3344 H3330 0.960 . S
C3344 H3331 0.961 . S
C3344 H3332 0.959 . S
C3344 C3342 1.561 . S
C3345 C3342 1.526 . S
C3345 C3346 1.396 . S
C3345 C3350 1.390 . S
C3346 C3340 1.465 . S
C3346 C3345 1.396 . S
C3346 C3347 1.399 . S
C3347 H3333 0.929 . S
C3347 C3346 1.399 . S
C3347 C3348 1.385 . S
C3348 H3334 0.931 . S
C3348 C3347 1.385 . S
C3348 C3349 1.389 . S
C3349 C3348 1.389 . S
C3349 C3350 1.387 . S
C3350 H3335 0.930 . S
C3350 C3345 1.390 . S
C3350 C3349 1.387 . S
H3351 C3363 0.930 . S
H3352 C3365 0.930 . S
H3353 C3366 0.930 . S
H3354 C3370 0.959 . S
H3355 C3370 0.959 . S
H3356 C3370 0.961 . S
H3357 C3371 0.960 . S
H3358 C3371 0.961 . S
H3359 C3371 0.959 . S
H3360 C3374 0.929 . S
H3361 C3375 0.931 . S
H3362 C3377 0.930 . S
C3363 H3351 0.930 . S
C3363 C3364 1.399 . S
C3363 C3368 1.399 . S
C3364 C3363 1.399 . S
C3364 C3365 1.376 . S
C3365 H3352 0.930 . S
C3365 C3364 1.376 . S
C3365 C3366 1.388 . S
C3366 H3353 0.930 . S
C3366 C3365 1.388 . S
C3366 C3367 1.390 . S
C3367 C3366 1.390 . S
C3367 C3368 1.394 . S
C3367 C3373 1.465 . S
C3368 C3363 1.399 . S
C3368 C3367 1.394 . S
C3368 C3369 1.516 . S
C3369 C3368 1.516 . S
C3369 C3370 1.502 . S
C3369 C3371 1.561 . S
C3369 C3372 1.526 . S
C3370 H3354 0.959 . S
C3370 H3355 0.959 . S
C3370 H3356 0.961 . S
C3370 C3369 1.502 . S
C3371 H3357 0.960 . S
C3371 H3358 0.961 . S
C3371 H3359 0.959 . S
C3371 C3369 1.561 . S
C3372 C3369 1.526 . S
C3372 C3373 1.396 . S
C3372 C3377 1.390 . S
C3373 C3367 1.465 . S
C3373 C3372 1.396 . S
C3373 C3374 1.399 . S
C3374 H3360 0.929 . S
C3374 C3373 1.399 . S
C3374 C3375 1.385 . S
C3375 H3361 0.931 . S
C3375 C3374 1.385 . S
C3375 C3376 1.389 . S
C3376 C3375 1.389 . S
C3376 C3377 1.387 . S
C3377 H3362 0.930 . S
C3377 C3372 1.390 . S
C3377 C3376 1.387 . S
H3378 C3390 0.930 . S
H3379 C3392 0.930 . S
H3380 C3393 0.930 . S
H3381 C3397 0.959 . S
H3382 C3397 0.959 . S
H3383 C3397 0.961 . S
H3384 C3398 0.960 . S
H3385 C3398 0.961 . S
H3386 C3398 0.959 . S
H3387 C3401 0.929 . S
H3388 C3402 0.931 . S
H3389 C3404 0.930 . S
C3390 H3378 0.930 . S
C3390 C3391 1.399 . S
C3390 C3395 1.399 . S
C3391 C3390 1.399 . S
C3391 C3392 1.376 . S
C3392 H3379 0.930 . S
C3392 C3391 1.376 . S
C3392 C3393 1.388 . S
C3393 H3380 0.930 . S
C3393 C3392 1.388 . S
C3393 C3394 1.390 . S
C3394 C3393 1.390 . S
C3394 C3395 1.394 . S
C3394 C3400 1.465 . S
C3395 C3390 1.399 . S
C3395 C3394 1.394 . S
C3395 C3396 1.516 . S
C3396 C3395 1.516 . S
C3396 C3397 1.502 . S
C3396 C3398 1.561 . S
C3396 C3399 1.526 . S
C3397 H3381 0.959 . S
C3397 H3382 0.959 . S
C3397 H3383 0.961 . S
C3397 C3396 1.502 . S
C3398 H3384 0.960 . S
C3398 H3385 0.961 . S
C3398 H3386 0.959 . S
C3398 C3396 1.561 . S
C3399 C3396 1.526 . S
C3399 C3400 1.396 . S
C3399 C3404 1.390 . S
C3400 C3394 1.465 . S
C3400 C3399 1.396 . S
C3400 C3401 1.399 . S
C3401 H3387 0.929 . S
C3401 C3400 1.399 . S
C3401 C3402 1.385 . S
C3402 H3388 0.931 . S
C3402 C3401 1.385 . S
C3402 C3403 1.389 . S
C3403 C3402 1.389 . S
C3403 C3404 1.387 . S
C3404 H3389 0.930 . S
C3404 C3399 1.390 . S
C3404 C3403 1.387 . S
H3405 C3417 0.930 . S
H3406 C3419 0.930 . S
H3407 C3420 0.930 . S
H3408 C3424 0.959 . S
H3409 C3424 0.959 . S
H3410 C3424 0.961 . S
H3411 C3425 0.960 . S
H3412 C3425 0.961 . S
H3413 C3425 0.959 . S
H3414 C3428 0.929 . S
H3415 C3429 0.931 . S
H3416 C3431 0.930 . S
C3417 H3405 0.930 . S
C3417 C3418 1.399 . S
C3417 C3422 1.399 . S
C3418 C3417 1.399 . S
C3418 C3419 1.376 . S
C3419 H3406 0.930 . S
C3419 C3418 1.376 . S
C3419 C3420 1.388 . S
C3420 H3407 0.930 . S
C3420 C3419 1.388 . S
C3420 C3421 1.390 . S
C3421 C3420 1.390 . S
C3421 C3422 1.394 . S
C3421 C3427 1.465 . S
C3422 C3417 1.399 . S
C3422 C3421 1.394 . S
C3422 C3423 1.516 . S
C3423 C3422 1.516 . S
C3423 C3424 1.502 . S
C3423 C3425 1.561 . S
C3423 C3426 1.526 . S
C3424 H3408 0.959 . S
C3424 H3409 0.959 . S
C3424 H3410 0.961 . S
C3424 C3423 1.502 . S
C3425 H3411 0.960 . S
C3425 H3412 0.961 . S
C3425 H3413 0.959 . S
C3425 C3423 1.561 . S
C3426 C3423 1.526 . S
C3426 C3427 1.396 . S
C3426 C3431 1.390 . S
C3427 C3421 1.465 . S
C3427 C3426 1.396 . S
C3427 C3428 1.399 . S
C3428 H3414 0.929 . S
C3428 C3427 1.399 . S
C3428 C3429 1.385 . S
C3429 H3415 0.931 . S
C3429 C3428 1.385 . S
C3429 C3430 1.389 . S
C3430 C3429 1.389 . S
C3430 C3431 1.387 . S
C3431 H3416 0.930 . S
C3431 C3426 1.390 . S
C3431 C3430 1.387 . S
H3432 C3444 0.930 . S
H3433 C3446 0.930 . S
H3434 C3447 0.930 . S
H3435 C3451 0.959 . S
H3436 C3451 0.959 . S
H3437 C3451 0.961 . S
H3438 C3452 0.960 . S
H3439 C3452 0.961 . S
H3440 C3452 0.959 . S
H3441 C3455 0.929 . S
H3442 C3456 0.931 . S
H3443 C3458 0.930 . S
C3444 H3432 0.930 . S
C3444 C3445 1.399 . S
C3444 C3449 1.399 . S
C3445 C3444 1.399 . S
C3445 C3446 1.376 . S
C3446 H3433 0.930 . S
C3446 C3445 1.376 . S
C3446 C3447 1.388 . S
C3447 H3434 0.930 . S
C3447 C3446 1.388 . S
C3447 C3448 1.390 . S
C3448 C3447 1.390 . S
C3448 C3449 1.394 . S
C3448 C3454 1.465 . S
C3449 C3444 1.399 . S
C3449 C3448 1.394 . S
C3449 C3450 1.516 . S
C3450 C3449 1.516 . S
C3450 C3451 1.502 . S
C3450 C3452 1.561 . S
C3450 C3453 1.526 . S
C3451 H3435 0.959 . S
C3451 H3436 0.959 . S
C3451 H3437 0.961 . S
C3451 C3450 1.502 . S
C3452 H3438 0.960 . S
C3452 H3439 0.961 . S
C3452 H3440 0.959 . S
C3452 C3450 1.561 . S
C3453 C3450 1.526 . S
C3453 C3454 1.396 . S
C3453 C3458 1.390 . S
C3454 C3448 1.465 . S
C3454 C3453 1.396 . S
C3454 C3455 1.399 . S
C3455 H3441 0.929 . S
C3455 C3454 1.399 . S
C3455 C3456 1.385 . S
C3456 H3442 0.931 . S
C3456 C3455 1.385 . S
C3456 C3457 1.389 . S
C3457 C3456 1.389 . S
C3457 C3458 1.387 . S
C3458 H3443 0.930 . S
C3458 C3453 1.390 . S
C3458 C3457 1.387 . S
H3459 C3471 0.930 . S
H3460 C3473 0.930 . S
H3461 C3474 0.930 . S
H3462 C3478 0.959 . S
H3463 C3478 0.959 . S
H3464 C3478 0.961 . S
H3465 C3479 0.960 . S
H3466 C3479 0.961 . S
H3467 C3479 0.959 . S
H3468 C3482 0.929 . S
H3469 C3483 0.931 . S
H3470 C3485 0.930 . S
C3471 H3459 0.930 . S
C3471 C3472 1.399 . S
C3471 C3476 1.399 . S
C3472 C3471 1.399 . S
C3472 C3473 1.376 . S
C3473 H3460 0.930 . S
C3473 C3472 1.376 . S
C3473 C3474 1.388 . S
C3474 H3461 0.930 . S
C3474 C3473 1.388 . S
C3474 C3475 1.390 . S
C3475 C3474 1.390 . S
C3475 C3476 1.394 . S
C3475 C3481 1.465 . S
C3476 C3471 1.399 . S
C3476 C3475 1.394 . S
C3476 C3477 1.516 . S
C3477 C3476 1.516 . S
C3477 C3478 1.502 . S
C3477 C3479 1.561 . S
C3477 C3480 1.526 . S
C3478 H3462 0.959 . S
C3478 H3463 0.959 . S
C3478 H3464 0.961 . S
C3478 C3477 1.502 . S
C3479 H3465 0.960 . S
C3479 H3466 0.961 . S
C3479 H3467 0.959 . S
C3479 C3477 1.561 . S
C3480 C3477 1.526 . S
C3480 C3481 1.396 . S
C3480 C3485 1.390 . S
C3481 C3475 1.465 . S
C3481 C3480 1.396 . S
C3481 C3482 1.399 . S
C3482 H3468 0.929 . S
C3482 C3481 1.399 . S
C3482 C3483 1.385 . S
C3483 H3469 0.931 . S
C3483 C3482 1.385 . S
C3483 C3484 1.389 . S
C3484 C3483 1.389 . S
C3484 C3485 1.387 . S
C3485 H3470 0.930 . S
C3485 C3480 1.390 . S
C3485 C3484 1.387 . S
H3486 C3498 0.930 . S
H3487 C3500 0.930 . S
H3488 C3501 0.930 . S
H3489 C3505 0.959 . S
H3490 C3505 0.959 . S
H3491 C3505 0.961 . S
H3492 C3506 0.960 . S
H3493 C3506 0.961 . S
H3494 C3506 0.959 . S
H3495 C3509 0.929 . S
H3496 C3510 0.931 . S
H3497 C3512 0.930 . S
C3498 H3486 0.930 . S
C3498 C3499 1.399 . S
C3498 C3503 1.399 . S
C3499 C3498 1.399 . S
C3499 C3500 1.376 . S
C3500 H3487 0.930 . S
C3500 C3499 1.376 . S
C3500 C3501 1.388 . S
C3501 H3488 0.930 . S
C3501 C3500 1.388 . S
C3501 C3502 1.390 . S
C3502 C3501 1.390 . S
C3502 C3503 1.394 . S
C3502 C3508 1.465 . S
C3503 C3498 1.399 . S
C3503 C3502 1.394 . S
C3503 C3504 1.516 . S
C3504 C3503 1.516 . S
C3504 C3505 1.502 . S
C3504 C3506 1.561 . S
C3504 C3507 1.526 . S
C3505 H3489 0.959 . S
C3505 H3490 0.959 . S
C3505 H3491 0.961 . S
C3505 C3504 1.502 . S
C3506 H3492 0.960 . S
C3506 H3493 0.961 . S
C3506 H3494 0.959 . S
C3506 C3504 1.561 . S
C3507 C3504 1.526 . S
C3507 C3508 1.396 . S
C3507 C3512 1.390 . S
C3508 C3502 1.465 . S
C3508 C3507 1.396 . S
C3508 C3509 1.399 . S
C3509 H3495 0.929 . S
C3509 C3508 1.399 . S
C3509 C3510 1.385 . S
C3510 H3496 0.931 . S
C3510 C3509 1.385 . S
C3510 C3511 1.389 . S
C3511 C3510 1.389 . S
C3511 C3512 1.387 . S
C3512 H3497 0.930 . S
C3512 C3507 1.390 . S
C3512 C3511 1.387 . S
H3513 C3525 0.930 . S
H3514 C3527 0.930 . S
H3515 C3528 0.930 . S
H3516 C3532 0.959 . S
H3517 C3532 0.959 . S
H3518 C3532 0.961 . S
H3519 C3533 0.960 . S
H3520 C3533 0.961 . S
H3521 C3533 0.959 . S
H3522 C3536 0.929 . S
H3523 C3537 0.931 . S
H3524 C3539 0.930 . S
C3525 H3513 0.930 . S
C3525 C3526 1.399 . S
C3525 C3530 1.399 . S
C3526 C3525 1.399 . S
C3526 C3527 1.376 . S
C3527 H3514 0.930 . S
C3527 C3526 1.376 . S
C3527 C3528 1.388 . S
C3528 H3515 0.930 . S
C3528 C3527 1.388 . S
C3528 C3529 1.390 . S
C3529 C3528 1.390 . S
C3529 C3530 1.394 . S
C3529 C3535 1.465 . S
C3530 C3525 1.399 . S
C3530 C3529 1.394 . S
C3530 C3531 1.516 . S
C3531 C3530 1.516 . S
C3531 C3532 1.502 . S
C3531 C3533 1.561 . S
C3531 C3534 1.526 . S
C3532 H3516 0.959 . S
C3532 H3517 0.959 . S
C3532 H3518 0.961 . S
C3532 C3531 1.502 . S
C3533 H3519 0.960 . S
C3533 H3520 0.961 . S
C3533 H3521 0.959 . S
C3533 C3531 1.561 . S
C3534 C3531 1.526 . S
C3534 C3535 1.396 . S
C3534 C3539 1.390 . S
C3535 C3529 1.465 . S
C3535 C3534 1.396 . S
C3535 C3536 1.399 . S
C3536 H3522 0.929 . S
C3536 C3535 1.399 . S
C3536 C3537 1.385 . S
C3537 H3523 0.931 . S
C3537 C3536 1.385 . S
C3537 C3538 1.389 . S
C3538 C3537 1.389 . S
C3538 C3539 1.387 . S
C3539 H3524 0.930 . S
C3539 C3534 1.390 . S
C3539 C3538 1.387 . S
H3540 C3552 0.930 . S
H3541 C3554 0.930 . S
H3542 C3555 0.930 . S
H3543 C3559 0.959 . S
H3544 C3559 0.959 . S
H3545 C3559 0.961 . S
H3546 C3560 0.960 . S
H3547 C3560 0.961 . S
H3548 C3560 0.959 . S
H3549 C3563 0.929 . S
H3550 C3564 0.931 . S
H3551 C3566 0.930 . S
C3552 H3540 0.930 . S
C3552 C3553 1.399 . S
C3552 C3557 1.399 . S
C3553 C3552 1.399 . S
C3553 C3554 1.376 . S
C3554 H3541 0.930 . S
C3554 C3553 1.376 . S
C3554 C3555 1.388 . S
C3555 H3542 0.930 . S
C3555 C3554 1.388 . S
C3555 C3556 1.390 . S
C3556 C3555 1.390 . S
C3556 C3557 1.394 . S
C3556 C3562 1.465 . S
C3557 C3552 1.399 . S
C3557 C3556 1.394 . S
C3557 C3558 1.516 . S
C3558 C3557 1.516 . S
C3558 C3559 1.502 . S
C3558 C3560 1.561 . S
C3558 C3561 1.526 . S
C3559 H3543 0.959 . S
C3559 H3544 0.959 . S
C3559 H3545 0.961 . S
C3559 C3558 1.502 . S
C3560 H3546 0.960 . S
C3560 H3547 0.961 . S
C3560 H3548 0.959 . S
C3560 C3558 1.561 . S
C3561 C3558 1.526 . S
C3561 C3562 1.396 . S
C3561 C3566 1.390 . S
C3562 C3556 1.465 . S
C3562 C3561 1.396 . S
C3562 C3563 1.399 . S
C3563 H3549 0.929 . S
C3563 C3562 1.399 . S
C3563 C3564 1.385 . S
C3564 H3550 0.931 . S
C3564 C3563 1.385 . S
C3564 C3565 1.389 . S
C3565 C3564 1.389 . S
C3565 C3566 1.387 . S
C3566 H3551 0.930 . S
C3566 C3561 1.390 . S
C3566 C3565 1.387 . S
H3567 C3579 0.930 . S
H3568 C3581 0.930 . S
H3569 C3582 0.930 . S
H3570 C3586 0.959 . S
H3571 C3586 0.959 . S
H3572 C3586 0.961 . S
H3573 C3587 0.960 . S
H3574 C3587 0.961 . S
H3575 C3587 0.959 . S
H3576 C3590 0.929 . S
H3577 C3591 0.931 . S
H3578 C3593 0.930 . S
C3579 H3567 0.930 . S
C3579 C3580 1.399 . S
C3579 C3584 1.399 . S
C3580 C3579 1.399 . S
C3580 C3581 1.376 . S
C3581 H3568 0.930 . S
C3581 C3580 1.376 . S
C3581 C3582 1.388 . S
C3582 H3569 0.930 . S
C3582 C3581 1.388 . S
C3582 C3583 1.390 . S
C3583 C3582 1.390 . S
C3583 C3584 1.394 . S
C3583 C3589 1.465 . S
C3584 C3579 1.399 . S
C3584 C3583 1.394 . S
C3584 C3585 1.516 . S
C3585 C3584 1.516 . S
C3585 C3586 1.502 . S
C3585 C3587 1.561 . S
C3585 C3588 1.526 . S
C3586 H3570 0.959 . S
C3586 H3571 0.959 . S
C3586 H3572 0.961 . S
C3586 C3585 1.502 . S
C3587 H3573 0.960 . S
C3587 H3574 0.961 . S
C3587 H3575 0.959 . S
C3587 C3585 1.561 . S
C3588 C3585 1.526 . S
C3588 C3589 1.396 . S
C3588 C3593 1.390 . S
C3589 C3583 1.465 . S
C3589 C3588 1.396 . S
C3589 C3590 1.399 . S
C3590 H3576 0.929 . S
C3590 C3589 1.399 . S
C3590 C3591 1.385 . S
C3591 H3577 0.931 . S
C3591 C3590 1.385 . S
C3591 C3592 1.389 . S
C3592 C3591 1.389 . S
C3592 C3593 1.387 . S
C3593 H3578 0.930 . S
C3593 C3588 1.390 . S
C3593 C3592 1.387 . S
H3594 C3606 0.930 . S
H3595 C3608 0.930 . S
H3596 C3609 0.930 . S
H3597 C3613 0.959 . S
H3598 C3613 0.959 . S
H3599 C3613 0.961 . S
H3600 C3614 0.960 . S
H3601 C3614 0.961 . S
H3602 C3614 0.959 . S
H3603 C3617 0.929 . S
H3604 C3618 0.931 . S
H3605 C3620 0.930 . S
C3606 H3594 0.930 . S
C3606 C3607 1.399 . S
C3606 C3611 1.399 . S
C3607 C3606 1.399 . S
C3607 C3608 1.376 . S
C3608 H3595 0.930 . S
C3608 C3607 1.376 . S
C3608 C3609 1.388 . S
C3609 H3596 0.930 . S
C3609 C3608 1.388 . S
C3609 C3610 1.390 . S
C3610 C3609 1.390 . S
C3610 C3611 1.394 . S
C3610 C3616 1.465 . S
C3611 C3606 1.399 . S
C3611 C3610 1.394 . S
C3611 C3612 1.516 . S
C3612 C3611 1.516 . S
C3612 C3613 1.502 . S
C3612 C3614 1.561 . S
C3612 C3615 1.526 . S
C3613 H3597 0.959 . S
C3613 H3598 0.959 . S
C3613 H3599 0.961 . S
C3613 C3612 1.502 . S
C3614 H3600 0.960 . S
C3614 H3601 0.961 . S
C3614 H3602 0.959 . S
C3614 C3612 1.561 . S
C3615 C3612 1.526 . S
C3615 C3616 1.396 . S
C3615 C3620 1.390 . S
C3616 C3610 1.465 . S
C3616 C3615 1.396 . S
C3616 C3617 1.399 . S
C3617 H3603 0.929 . S
C3617 C3616 1.399 . S
C3617 C3618 1.385 . S
C3618 H3604 0.931 . S
C3618 C3617 1.385 . S
C3618 C3619 1.389 . S
C3619 C3618 1.389 . S
C3619 C3620 1.387 . S
C3620 H3605 0.930 . S
C3620 C3615 1.390 . S
C3620 C3619 1.387 . S
H3621 C3633 0.930 . S
H3622 C3635 0.930 . S
H3623 C3636 0.930 . S
H3624 C3640 0.959 . S
H3625 C3640 0.959 . S
H3626 C3640 0.961 . S
H3627 C3641 0.960 . S
H3628 C3641 0.961 . S
H3629 C3641 0.959 . S
H3630 C3644 0.929 . S
H3631 C3645 0.931 . S
H3632 C3647 0.930 . S
C3633 H3621 0.930 . S
C3633 C3634 1.399 . S
C3633 C3638 1.399 . S
C3634 C3633 1.399 . S
C3634 C3635 1.376 . S
C3635 H3622 0.930 . S
C3635 C3634 1.376 . S
C3635 C3636 1.388 . S
C3636 H3623 0.930 . S
C3636 C3635 1.388 . S
C3636 C3637 1.390 . S
C3637 C3636 1.390 . S
C3637 C3638 1.394 . S
C3637 C3643 1.465 . S
C3638 C3633 1.399 . S
C3638 C3637 1.394 . S
C3638 C3639 1.516 . S
C3639 C3638 1.516 . S
C3639 C3640 1.502 . S
C3639 C3641 1.561 . S
C3639 C3642 1.526 . S
C3640 H3624 0.959 . S
C3640 H3625 0.959 . S
C3640 H3626 0.961 . S
C3640 C3639 1.502 . S
C3641 H3627 0.960 . S
C3641 H3628 0.961 . S
C3641 H3629 0.959 . S
C3641 C3639 1.561 . S
C3642 C3639 1.526 . S
C3642 C3643 1.396 . S
C3642 C3647 1.390 . S
C3643 C3637 1.465 . S
C3643 C3642 1.396 . S
C3643 C3644 1.399 . S
C3644 H3630 0.929 . S
C3644 C3643 1.399 . S
C3644 C3645 1.385 . S
C3645 H3631 0.931 . S
C3645 C3644 1.385 . S
C3645 C3646 1.389 . S
C3646 C3645 1.389 . S
C3646 C3647 1.387 . S
C3647 H3632 0.930 . S
C3647 C3642 1.390 . S
C3647 C3646 1.387 . S
H3648 C3660 0.930 . S
H3649 C3662 0.930 . S
H3650 C3663 0.930 . S
H3651 C3667 0.959 . S
H3652 C3667 0.959 . S
H3653 C3667 0.961 . S
H3654 C3668 0.960 . S
H3655 C3668 0.961 . S
H3656 C3668 0.959 . S
H3657 C3671 0.929 . S
H3658 C3672 0.931 . S
H3659 C3674 0.930 . S
C3660 H3648 0.930 . S
C3660 C3661 1.399 . S
C3660 C3665 1.399 . S
C3661 C3660 1.399 . S
C3661 C3662 1.376 . S
C3662 H3649 0.930 . S
C3662 C3661 1.376 . S
C3662 C3663 1.388 . S
C3663 H3650 0.930 . S
C3663 C3662 1.388 . S
C3663 C3664 1.390 . S
C3664 C3663 1.390 . S
C3664 C3665 1.394 . S
C3664 C3670 1.465 . S
C3665 C3660 1.399 . S
C3665 C3664 1.394 . S
C3665 C3666 1.516 . S
C3666 C3665 1.516 . S
C3666 C3667 1.502 . S
C3666 C3668 1.561 . S
C3666 C3669 1.526 . S
C3667 H3651 0.959 . S
C3667 H3652 0.959 . S
C3667 H3653 0.961 . S
C3667 C3666 1.502 . S
C3668 H3654 0.960 . S
C3668 H3655 0.961 . S
C3668 H3656 0.959 . S
C3668 C3666 1.561 . S
C3669 C3666 1.526 . S
C3669 C3670 1.396 . S
C3669 C3674 1.390 . S
C3670 C3664 1.465 . S
C3670 C3669 1.396 . S
C3670 C3671 1.399 . S
C3671 H3657 0.929 . S
C3671 C3670 1.399 . S
C3671 C3672 1.385 . S
C3672 H3658 0.931 . S
C3672 C3671 1.385 . S
C3672 C3673 1.389 . S
C3673 C3672 1.389 . S
C3673 C3674 1.387 . S
C3674 H3659 0.930 . S
C3674 C3669 1.390 . S
C3674 C3673 1.387 . S
H3675 C3687 0.930 . S
H3676 C3689 0.930 . S
H3677 C3690 0.930 . S
H3678 C3694 0.959 . S
H3679 C3694 0.959 . S
H3680 C3694 0.961 . S
H3681 C3695 0.960 . S
H3682 C3695 0.961 . S
H3683 C3695 0.959 . S
H3684 C3698 0.929 . S
H3685 C3699 0.931 . S
H3686 C3701 0.930 . S
C3687 H3675 0.930 . S
C3687 C3688 1.399 . S
C3687 C3692 1.399 . S
C3688 C3687 1.399 . S
C3688 C3689 1.376 . S
C3689 H3676 0.930 . S
C3689 C3688 1.376 . S
C3689 C3690 1.388 . S
C3690 H3677 0.930 . S
C3690 C3689 1.388 . S
C3690 C3691 1.390 . S
C3691 C3690 1.390 . S
C3691 C3692 1.394 . S
C3691 C3697 1.465 . S
C3692 C3687 1.399 . S
C3692 C3691 1.394 . S
C3692 C3693 1.516 . S
C3693 C3692 1.516 . S
C3693 C3694 1.502 . S
C3693 C3695 1.561 . S
C3693 C3696 1.526 . S
C3694 H3678 0.959 . S
C3694 H3679 0.959 . S
C3694 H3680 0.961 . S
C3694 C3693 1.502 . S
C3695 H3681 0.960 . S
C3695 H3682 0.961 . S
C3695 H3683 0.959 . S
C3695 C3693 1.561 . S
C3696 C3693 1.526 . S
C3696 C3697 1.396 . S
C3696 C3701 1.390 . S
C3697 C3691 1.465 . S
C3697 C3696 1.396 . S
C3697 C3698 1.399 . S
C3698 H3684 0.929 . S
C3698 C3697 1.399 . S
C3698 C3699 1.385 . S
C3699 H3685 0.931 . S
C3699 C3698 1.385 . S
C3699 C3700 1.389 . S
C3700 C3699 1.389 . S
C3700 C3701 1.387 . S
C3701 H3686 0.930 . S
C3701 C3696 1.390 . S
C3701 C3700 1.387 . S
H3702 C3714 0.930 . S
H3703 C3716 0.930 . S
H3704 C3717 0.930 . S
H3705 C3721 0.959 . S
H3706 C3721 0.959 . S
H3707 C3721 0.961 . S
H3708 C3722 0.960 . S
H3709 C3722 0.961 . S
H3710 C3722 0.959 . S
H3711 C3725 0.929 . S
H3712 C3726 0.931 . S
H3713 C3728 0.930 . S
C3714 H3702 0.930 . S
C3714 C3715 1.399 . S
C3714 C3719 1.399 . S
C3715 C3714 1.399 . S
C3715 C3716 1.376 . S
C3716 H3703 0.930 . S
C3716 C3715 1.376 . S
C3716 C3717 1.388 . S
C3717 H3704 0.930 . S
C3717 C3716 1.388 . S
C3717 C3718 1.390 . S
C3718 C3717 1.390 . S
C3718 C3719 1.394 . S
C3718 C3724 1.465 . S
C3719 C3714 1.399 . S
C3719 C3718 1.394 . S
C3719 C3720 1.516 . S
C3720 C3719 1.516 . S
C3720 C3721 1.502 . S
C3720 C3722 1.561 . S
C3720 C3723 1.526 . S
C3721 H3705 0.959 . S
C3721 H3706 0.959 . S
C3721 H3707 0.961 . S
C3721 C3720 1.502 . S
C3722 H3708 0.960 . S
C3722 H3709 0.961 . S
C3722 H3710 0.959 . S
C3722 C3720 1.561 . S
C3723 C3720 1.526 . S
C3723 C3724 1.396 . S
C3723 C3728 1.390 . S
C3724 C3718 1.465 . S
C3724 C3723 1.396 . S
C3724 C3725 1.399 . S
C3725 H3711 0.929 . S
C3725 C3724 1.399 . S
C3725 C3726 1.385 . S
C3726 H3712 0.931 . S
C3726 C3725 1.385 . S
C3726 C3727 1.389 . S
C3727 C3726 1.389 . S
C3727 C3728 1.387 . S
C3728 H3713 0.930 . S
C3728 C3723 1.390 . S
C3728 C3727 1.387 . S
H3729 C3741 0.930 . S
H3730 C3743 0.930 . S
H3731 C3744 0.930 . S
H3732 C3748 0.959 . S
H3733 C3748 0.959 . S
H3734 C3748 0.961 . S
H3735 C3749 0.960 . S
H3736 C3749 0.961 . S
H3737 C3749 0.959 . S
H3738 C3752 0.929 . S
H3739 C3753 0.931 . S
H3740 C3755 0.930 . S
C3741 H3729 0.930 . S
C3741 C3742 1.399 . S
C3741 C3746 1.399 . S
C3742 C3741 1.399 . S
C3742 C3743 1.376 . S
C3743 H3730 0.930 . S
C3743 C3742 1.376 . S
C3743 C3744 1.388 . S
C3744 H3731 0.930 . S
C3744 C3743 1.388 . S
C3744 C3745 1.390 . S
C3745 C3744 1.390 . S
C3745 C3746 1.394 . S
C3745 C3751 1.465 . S
C3746 C3741 1.399 . S
C3746 C3745 1.394 . S
C3746 C3747 1.516 . S
C3747 C3746 1.516 . S
C3747 C3748 1.502 . S
C3747 C3749 1.561 . S
C3747 C3750 1.526 . S
C3748 H3732 0.959 . S
C3748 H3733 0.959 . S
C3748 H3734 0.961 . S
C3748 C3747 1.502 . S
C3749 H3735 0.960 . S
C3749 H3736 0.961 . S
C3749 H3737 0.959 . S
C3749 C3747 1.561 . S
C3750 C3747 1.526 . S
C3750 C3751 1.396 . S
C3750 C3755 1.390 . S
C3751 C3745 1.465 . S
C3751 C3750 1.396 . S
C3751 C3752 1.399 . S
C3752 H3738 0.929 . S
C3752 C3751 1.399 . S
C3752 C3753 1.385 . S
C3753 H3739 0.931 . S
C3753 C3752 1.385 . S
C3753 C3754 1.389 . S
C3754 C3753 1.389 . S
C3754 C3755 1.387 . S
C3755 H3740 0.930 . S
C3755 C3750 1.390 . S
C3755 C3754 1.387 . S
H3756 C3768 0.930 . S
H3757 C3770 0.930 . S
H3758 C3771 0.930 . S
H3759 C3775 0.959 . S
H3760 C3775 0.959 . S
H3761 C3775 0.961 . S
H3762 C3776 0.960 . S
H3763 C3776 0.961 . S
H3764 C3776 0.959 . S
H3765 C3779 0.929 . S
H3766 C3780 0.931 . S
H3767 C3782 0.930 . S
C3768 H3756 0.930 . S
C3768 C3769 1.399 . S
C3768 C3773 1.399 . S
C3769 C3768 1.399 . S
C3769 C3770 1.376 . S
C3770 H3757 0.930 . S
C3770 C3769 1.376 . S
C3770 C3771 1.388 . S
C3771 H3758 0.930 . S
C3771 C3770 1.388 . S
C3771 C3772 1.390 . S
C3772 C3771 1.390 . S
C3772 C3773 1.394 . S
C3772 C3778 1.465 . S
C3773 C3768 1.399 . S
C3773 C3772 1.394 . S
C3773 C3774 1.516 . S
C3774 C3773 1.516 . S
C3774 C3775 1.502 . S
C3774 C3776 1.561 . S
C3774 C3777 1.526 . S
C3775 H3759 0.959 . S
C3775 H3760 0.959 . S
C3775 H3761 0.961 . S
C3775 C3774 1.502 . S
C3776 H3762 0.960 . S
C3776 H3763 0.961 . S
C3776 H3764 0.959 . S
C3776 C3774 1.561 . S
C3777 C3774 1.526 . S
C3777 C3778 1.396 . S
C3777 C3782 1.390 . S
C3778 C3772 1.465 . S
C3778 C3777 1.396 . S
C3778 C3779 1.399 . S
C3779 H3765 0.929 . S
C3779 C3778 1.399 . S
C3779 C3780 1.385 . S
C3780 H3766 0.931 . S
C3780 C3779 1.385 . S
C3780 C3781 1.389 . S
C3781 C3780 1.389 . S
C3781 C3782 1.387 . S
C3782 H3767 0.930 . S
C3782 C3777 1.390 . S
C3782 C3781 1.387 . S
H3783 C3795 0.930 . S
H3784 C3797 0.930 . S
H3785 C3798 0.930 . S
H3786 C3802 0.959 . S
H3787 C3802 0.959 . S
H3788 C3802 0.961 . S
H3789 C3803 0.960 . S
H3790 C3803 0.961 . S
H3791 C3803 0.959 . S
H3792 C3806 0.929 . S
H3793 C3807 0.931 . S
H3794 C3809 0.930 . S
C3795 H3783 0.930 . S
C3795 C3796 1.399 . S
C3795 C3800 1.399 . S
C3796 C3795 1.399 . S
C3796 C3797 1.376 . S
C3797 H3784 0.930 . S
C3797 C3796 1.376 . S
C3797 C3798 1.388 . S
C3798 H3785 0.930 . S
C3798 C3797 1.388 . S
C3798 C3799 1.390 . S
C3799 C3798 1.390 . S
C3799 C3800 1.394 . S
C3799 C3805 1.465 . S
C3800 C3795 1.399 . S
C3800 C3799 1.394 . S
C3800 C3801 1.516 . S
C3801 C3800 1.516 . S
C3801 C3802 1.502 . S
C3801 C3803 1.561 . S
C3801 C3804 1.526 . S
C3802 H3786 0.959 . S
C3802 H3787 0.959 . S
C3802 H3788 0.961 . S
C3802 C3801 1.502 . S
C3803 H3789 0.960 . S
C3803 H3790 0.961 . S
C3803 H3791 0.959 . S
C3803 C3801 1.561 . S
C3804 C3801 1.526 . S
C3804 C3805 1.396 . S
C3804 C3809 1.390 . S
C3805 C3799 1.465 . S
C3805 C3804 1.396 . S
C3805 C3806 1.399 . S
C3806 H3792 0.929 . S
C3806 C3805 1.399 . S
C3806 C3807 1.385 . S
C3807 H3793 0.931 . S
C3807 C3806 1.385 . S
C3807 C3808 1.389 . S
C3808 C3807 1.389 . S
C3808 C3809 1.387 . S
C3809 H3794 0.930 . S
C3809 C3804 1.390 . S
C3809 C3808 1.387 . S
H3810 C3822 0.930 . S
H3811 C3824 0.930 . S
H3812 C3825 0.930 . S
H3813 C3829 0.959 . S
H3814 C3829 0.959 . S
H3815 C3829 0.961 . S
H3816 C3830 0.960 . S
H3817 C3830 0.961 . S
H3818 C3830 0.959 . S
H3819 C3833 0.929 . S
H3820 C3834 0.931 . S
H3821 C3836 0.930 . S
C3822 H3810 0.930 . S
C3822 C3823 1.399 . S
C3822 C3827 1.399 . S
C3823 C3822 1.399 . S
C3823 C3824 1.376 . S
C3824 H3811 0.930 . S
C3824 C3823 1.376 . S
C3824 C3825 1.388 . S
C3825 H3812 0.930 . S
C3825 C3824 1.388 . S
C3825 C3826 1.390 . S
C3826 C3825 1.390 . S
C3826 C3827 1.394 . S
C3826 C3832 1.465 . S
C3827 C3822 1.399 . S
C3827 C3826 1.394 . S
C3827 C3828 1.516 . S
C3828 C3827 1.516 . S
C3828 C3829 1.502 . S
C3828 C3830 1.561 . S
C3828 C3831 1.526 . S
C3829 H3813 0.959 . S
C3829 H3814 0.959 . S
C3829 H3815 0.961 . S
C3829 C3828 1.502 . S
C3830 H3816 0.960 . S
C3830 H3817 0.961 . S
C3830 H3818 0.959 . S
C3830 C3828 1.561 . S
C3831 C3828 1.526 . S
C3831 C3832 1.396 . S
C3831 C3836 1.390 . S
C3832 C3826 1.465 . S
C3832 C3831 1.396 . S
C3832 C3833 1.399 . S
C3833 H3819 0.929 . S
C3833 C3832 1.399 . S
C3833 C3834 1.385 . S
C3834 H3820 0.931 . S
C3834 C3833 1.385 . S
C3834 C3835 1.389 . S
C3835 C3834 1.389 . S
C3835 C3836 1.387 . S
C3836 H3821 0.930 . S
C3836 C3831 1.390 . S
C3836 C3835 1.387 . S
H3837 C3849 0.930 . S
H3838 C3851 0.930 . S
H3839 C3852 0.930 . S
H3840 C3856 0.959 . S
H3841 C3856 0.959 . S
H3842 C3856 0.961 . S
H3843 C3857 0.960 . S
H3844 C3857 0.961 . S
H3845 C3857 0.959 . S
H3846 C3860 0.929 . S
H3847 C3861 0.931 . S
H3848 C3863 0.930 . S
C3849 H3837 0.930 . S
C3849 C3850 1.399 . S
C3849 C3854 1.399 . S
C3850 C3849 1.399 . S
C3850 C3851 1.376 . S
C3851 H3838 0.930 . S
C3851 C3850 1.376 . S
C3851 C3852 1.388 . S
C3852 H3839 0.930 . S
C3852 C3851 1.388 . S
C3852 C3853 1.390 . S
C3853 C3852 1.390 . S
C3853 C3854 1.394 . S
C3853 C3859 1.465 . S
C3854 C3849 1.399 . S
C3854 C3853 1.394 . S
C3854 C3855 1.516 . S
C3855 C3854 1.516 . S
C3855 C3856 1.502 . S
C3855 C3857 1.561 . S
C3855 C3858 1.526 . S
C3856 H3840 0.959 . S
C3856 H3841 0.959 . S
C3856 H3842 0.961 . S
C3856 C3855 1.502 . S
C3857 H3843 0.960 . S
C3857 H3844 0.961 . S
C3857 H3845 0.959 . S
C3857 C3855 1.561 . S
C3858 C3855 1.526 . S
C3858 C3859 1.396 . S
C3858 C3863 1.390 . S
C3859 C3853 1.465 . S
C3859 C3858 1.396 . S
C3859 C3860 1.399 . S
C3860 H3846 0.929 . S
C3860 C3859 1.399 . S
C3860 C3861 1.385 . S
C3861 H3847 0.931 . S
C3861 C3860 1.385 . S
C3861 C3862 1.389 . S
C3862 C3861 1.389 . S
C3862 C3863 1.387 . S
C3863 H3848 0.930 . S
C3863 C3858 1.390 . S
C3863 C3862 1.387 . S
H3864 C3876 0.930 . S
H3865 C3878 0.930 . S
H3866 C3879 0.930 . S
H3867 C3883 0.959 . S
H3868 C3883 0.959 . S
H3869 C3883 0.961 . S
H3870 C3884 0.960 . S
H3871 C3884 0.961 . S
H3872 C3884 0.959 . S
H3873 C3887 0.929 . S
H3874 C3888 0.931 . S
H3875 C3890 0.930 . S
C3876 H3864 0.930 . S
C3876 C3877 1.399 . S
C3876 C3881 1.399 . S
C3877 C3876 1.399 . S
C3877 C3878 1.376 . S
C3878 H3865 0.930 . S
C3878 C3877 1.376 . S
C3878 C3879 1.388 . S
C3879 H3866 0.930 . S
C3879 C3878 1.388 . S
C3879 C3880 1.390 . S
C3880 C3879 1.390 . S
C3880 C3881 1.394 . S
C3880 C3886 1.465 . S
C3881 C3876 1.399 . S
C3881 C3880 1.394 . S
C3881 C3882 1.516 . S
C3882 C3881 1.516 . S
C3882 C3883 1.502 . S
C3882 C3884 1.561 . S
C3882 C3885 1.526 . S
C3883 H3867 0.959 . S
C3883 H3868 0.959 . S
C3883 H3869 0.961 . S
C3883 C3882 1.502 . S
C3884 H3870 0.960 . S
C3884 H3871 0.961 . S
C3884 H3872 0.959 . S
C3884 C3882 1.561 . S
C3885 C3882 1.526 . S
C3885 C3886 1.396 . S
C3885 C3890 1.390 . S
C3886 C3880 1.465 . S
C3886 C3885 1.396 . S
C3886 C3887 1.399 . S
C3887 H3873 0.929 . S
C3887 C3886 1.399 . S
C3887 C3888 1.385 . S
C3888 H3874 0.931 . S
C3888 C3887 1.385 . S
C3888 C3889 1.389 . S
C3889 C3888 1.389 . S
C3889 C3890 1.387 . S
C3890 H3875 0.930 . S
C3890 C3885 1.390 . S
C3890 C3889 1.387 . S
H3891 C3903 0.930 . S
H3892 C3905 0.930 . S
H3893 C3906 0.930 . S
H3894 C3910 0.959 . S
H3895 C3910 0.959 . S
H3896 C3910 0.961 . S
H3897 C3911 0.960 . S
H3898 C3911 0.961 . S
H3899 C3911 0.959 . S
H3900 C3914 0.929 . S
H3901 C3915 0.931 . S
H3902 C3917 0.930 . S
C3903 H3891 0.930 . S
C3903 C3904 1.399 . S
C3903 C3908 1.399 . S
C3904 C3903 1.399 . S
C3904 C3905 1.376 . S
C3905 H3892 0.930 . S
C3905 C3904 1.376 . S
C3905 C3906 1.388 . S
C3906 H3893 0.930 . S
C3906 C3905 1.388 . S
C3906 C3907 1.390 . S
C3907 C3906 1.390 . S
C3907 C3908 1.394 . S
C3907 C3913 1.465 . S
C3908 C3903 1.399 . S
C3908 C3907 1.394 . S
C3908 C3909 1.516 . S
C3909 C3908 1.516 . S
C3909 C3910 1.502 . S
C3909 C3911 1.561 . S
C3909 C3912 1.526 . S
C3910 H3894 0.959 . S
C3910 H3895 0.959 . S
C3910 H3896 0.961 . S
C3910 C3909 1.502 . S
C3911 H3897 0.960 . S
C3911 H3898 0.961 . S
C3911 H3899 0.959 . S
C3911 C3909 1.561 . S
C3912 C3909 1.526 . S
C3912 C3913 1.396 . S
C3912 C3917 1.390 . S
C3913 C3907 1.465 . S
C3913 C3912 1.396 . S
C3913 C3914 1.399 . S
C3914 H3900 0.929 . S
C3914 C3913 1.399 . S
C3914 C3915 1.385 . S
C3915 H3901 0.931 . S
C3915 C3914 1.385 . S
C3915 C3916 1.389 . S
C3916 C3915 1.389 . S
C3916 C3917 1.387 . S
C3917 H3902 0.930 . S
C3917 C3912 1.390 . S
C3917 C3916 1.387 . S
H3918 C3930 0.930 . S
H3919 C3932 0.930 . S
H3920 C3933 0.930 . S
H3921 C3937 0.959 . S
H3922 C3937 0.959 . S
H3923 C3937 0.961 . S
H3924 C3938 0.960 . S
H3925 C3938 0.961 . S
H3926 C3938 0.959 . S
H3927 C3941 0.929 . S
H3928 C3942 0.931 . S
H3929 C3944 0.930 . S
C3930 H3918 0.930 . S
C3930 C3931 1.399 . S
C3930 C3935 1.399 . S
C3931 C3930 1.399 . S
C3931 C3932 1.376 . S
C3932 H3919 0.930 . S
C3932 C3931 1.376 . S
C3932 C3933 1.388 . S
C3933 H3920 0.930 . S
C3933 C3932 1.388 . S
C3933 C3934 1.390 . S
C3934 C3933 1.390 . S
C3934 C3935 1.394 . S
C3934 C3940 1.465 . S
C3935 C3930 1.399 . S
C3935 C3934 1.394 . S
C3935 C3936 1.516 . S
C3936 C3935 1.516 . S
C3936 C3937 1.502 . S
C3936 C3938 1.561 . S
C3936 C3939 1.526 . S
C3937 H3921 0.959 . S
C3937 H3922 0.959 . S
C3937 H3923 0.961 . S
C3937 C3936 1.502 . S
C3938 H3924 0.960 . S
C3938 H3925 0.961 . S
C3938 H3926 0.959 . S
C3938 C3936 1.561 . S
C3939 C3936 1.526 . S
C3939 C3940 1.396 . S
C3939 C3944 1.390 . S
C3940 C3934 1.465 . S
C3940 C3939 1.396 . S
C3940 C3941 1.399 . S
C3941 H3927 0.929 . S
C3941 C3940 1.399 . S
C3941 C3942 1.385 . S
C3942 H3928 0.931 . S
C3942 C3941 1.385 . S
C3942 C3943 1.389 . S
C3943 C3942 1.389 . S
C3943 C3944 1.387 . S
C3944 H3929 0.930 . S
C3944 C3939 1.390 . S
C3944 C3943 1.387 . S
H3945 C3957 0.930 . S
H3946 C3959 0.930 . S
H3947 C3960 0.930 . S
H3948 C3964 0.959 . S
H3949 C3964 0.959 . S
H3950 C3964 0.961 . S
H3951 C3965 0.960 . S
H3952 C3965 0.961 . S
H3953 C3965 0.959 . S
H3954 C3968 0.929 . S
H3955 C3969 0.931 . S
H3956 C3971 0.930 . S
C3957 H3945 0.930 . S
C3957 C3958 1.399 . S
C3957 C3962 1.399 . S
C3958 C3957 1.399 . S
C3958 C3959 1.376 . S
C3959 H3946 0.930 . S
C3959 C3958 1.376 . S
C3959 C3960 1.388 . S
C3960 H3947 0.930 . S
C3960 C3959 1.388 . S
C3960 C3961 1.390 . S
C3961 C3960 1.390 . S
C3961 C3962 1.394 . S
C3961 C3967 1.465 . S
C3962 C3957 1.399 . S
C3962 C3961 1.394 . S
C3962 C3963 1.516 . S
C3963 C3962 1.516 . S
C3963 C3964 1.502 . S
C3963 C3965 1.561 . S
C3963 C3966 1.526 . S
C3964 H3948 0.959 . S
C3964 H3949 0.959 . S
C3964 H3950 0.961 . S
C3964 C3963 1.502 . S
C3965 H3951 0.960 . S
C3965 H3952 0.961 . S
C3965 H3953 0.959 . S
C3965 C3963 1.561 . S
C3966 C3963 1.526 . S
C3966 C3967 1.396 . S
C3966 C3971 1.390 . S
C3967 C3961 1.465 . S
C3967 C3966 1.396 . S
C3967 C3968 1.399 . S
C3968 H3954 0.929 . S
C3968 C3967 1.399 . S
C3968 C3969 1.385 . S
C3969 H3955 0.931 . S
C3969 C3968 1.385 . S
C3969 C3970 1.389 . S
C3970 C3969 1.389 . S
C3970 C3971 1.387 . S
C3971 H3956 0.930 . S
C3971 C3966 1.390 . S
C3971 C3970 1.387 . S
H3972 C3984 0.930 . S
H3973 C3986 0.930 . S
H3974 C3987 0.930 . S
H3975 C3991 0.959 . S
H3976 C3991 0.959 . S
H3977 C3991 0.961 . S
H3978 C3992 0.960 . S
H3979 C3992 0.961 . S
H3980 C3992 0.959 . S
H3981 C3995 0.929 . S
H3982 C3996 0.931 . S
H3983 C3998 0.930 . S
C3984 H3972 0.930 . S
C3984 C3985 1.399 . S
C3984 C3989 1.399 . S
C3985 C3984 1.399 . S
C3985 C3986 1.376 . S
C3986 H3973 0.930 . S
C3986 C3985 1.376 . S
C3986 C3987 1.388 . S
C3987 H3974 0.930 . S
C3987 C3986 1.388 . S
C3987 C3988 1.390 . S
C3988 C3987 1.390 . S
C3988 C3989 1.394 . S
C3988 C3994 1.465 . S
C3989 C3984 1.399 . S
C3989 C3988 1.394 . S
C3989 C3990 1.516 . S
C3990 C3989 1.516 . S
C3990 C3991 1.502 . S
C3990 C3992 1.561 . S
C3990 C3993 1.526 . S
C3991 H3975 0.959 . S
C3991 H3976 0.959 . S
C3991 H3977 0.961 . S
C3991 C3990 1.502 . S
C3992 H3978 0.960 . S
C3992 H3979 0.961 . S
C3992 H3980 0.959 . S
C3992 C3990 1.561 . S
C3993 C3990 1.526 . S
C3993 C3994 1.396 . S
C3993 C3998 1.390 . S
C3994 C3988 1.465 . S
C3994 C3993 1.396 . S
C3994 C3995 1.399 . S
C3995 H3981 0.929 . S
C3995 C3994 1.399 . S
C3995 C3996 1.385 . S
C3996 H3982 0.931 . S
C3996 C3995 1.385 . S
C3996 C3997 1.389 . S
C3997 C3996 1.389 . S
C3997 C3998 1.387 . S
C3998 H3983 0.930 . S
C3998 C3993 1.390 . S
C3998 C3997 1.387 . S
H3999 C4011 0.930 . S
H4000 C4013 0.930 . S
H4001 C4014 0.930 . S
H4002 C4018 0.959 . S
H4003 C4018 0.959 . S
H4004 C4018 0.961 . S
H4005 C4019 0.960 . S
H4006 C4019 0.961 . S
H4007 C4019 0.959 . S
H4008 C4022 0.929 . S
H4009 C4023 0.931 . S
H4010 C4025 0.930 . S
C4011 H3999 0.930 . S
C4011 C4012 1.399 . S
C4011 C4016 1.399 . S
C4012 C4011 1.399 . S
C4012 C4013 1.376 . S
C4013 H4000 0.930 . S
C4013 C4012 1.376 . S
C4013 C4014 1.388 . S
C4014 H4001 0.930 . S
C4014 C4013 1.388 . S
C4014 C4015 1.390 . S
C4015 C4014 1.390 . S
C4015 C4016 1.394 . S
C4015 C4021 1.465 . S
C4016 C4011 1.399 . S
C4016 C4015 1.394 . S
C4016 C4017 1.516 . S
C4017 C4016 1.516 . S
C4017 C4018 1.502 . S
C4017 C4019 1.561 . S
C4017 C4020 1.526 . S
C4018 H4002 0.959 . S
C4018 H4003 0.959 . S
C4018 H4004 0.961 . S
C4018 C4017 1.502 . S
C4019 H4005 0.960 . S
C4019 H4006 0.961 . S
C4019 H4007 0.959 . S
C4019 C4017 1.561 . S
C4020 C4017 1.526 . S
C4020 C4021 1.396 . S
C4020 C4025 1.390 . S
C4021 C4015 1.465 . S
C4021 C4020 1.396 . S
C4021 C4022 1.399 . S
C4022 H4008 0.929 . S
C4022 C4021 1.399 . S
C4022 C4023 1.385 . S
C4023 H4009 0.931 . S
C4023 C4022 1.385 . S
C4023 C4024 1.389 . S
C4024 C4023 1.389 . S
C4024 C4025 1.387 . S
C4025 H4010 0.930 . S
C4025 C4020 1.390 . S
C4025 C4024 1.387 . S
H4026 C4038 0.930 . S
H4027 C4040 0.930 . S
H4028 C4041 0.930 . S
H4029 C4045 0.959 . S
H4030 C4045 0.959 . S
H4031 C4045 0.961 . S
H4032 C4046 0.960 . S
H4033 C4046 0.961 . S
H4034 C4046 0.959 . S
H4035 C4049 0.929 . S
H4036 C4050 0.931 . S
H4037 C4052 0.930 . S
C4038 H4026 0.930 . S
C4038 C4039 1.399 . S
C4038 C4043 1.399 . S
C4039 C4038 1.399 . S
C4039 C4040 1.376 . S
C4040 H4027 0.930 . S
C4040 C4039 1.376 . S
C4040 C4041 1.388 . S
C4041 H4028 0.930 . S
C4041 C4040 1.388 . S
C4041 C4042 1.390 . S
C4042 C4041 1.390 . S
C4042 C4043 1.394 . S
C4042 C4048 1.465 . S
C4043 C4038 1.399 . S
C4043 C4042 1.394 . S
C4043 C4044 1.516 . S
C4044 C4043 1.516 . S
C4044 C4045 1.502 . S
C4044 C4046 1.561 . S
C4044 C4047 1.526 . S
C4045 H4029 0.959 . S
C4045 H4030 0.959 . S
C4045 H4031 0.961 . S
C4045 C4044 1.502 . S
C4046 H4032 0.960 . S
C4046 H4033 0.961 . S
C4046 H4034 0.959 . S
C4046 C4044 1.561 . S
C4047 C4044 1.526 . S
C4047 C4048 1.396 . S
C4047 C4052 1.390 . S
C4048 C4042 1.465 . S
C4048 C4047 1.396 . S
C4048 C4049 1.399 . S
C4049 H4035 0.929 . S
C4049 C4048 1.399 . S
C4049 C4050 1.385 . S
C4050 H4036 0.931 . S
C4050 C4049 1.385 . S
C4050 C4051 1.389 . S
C4051 C4050 1.389 . S
C4051 C4052 1.387 . S
C4052 H4037 0.930 . S
C4052 C4047 1.390 . S
C4052 C4051 1.387 . S
H4053 C4065 0.930 . S
H4054 C4067 0.930 . S
H4055 C4068 0.930 . S
H4056 C4072 0.959 . S
H4057 C4072 0.959 . S
H4058 C4072 0.961 . S
H4059 C4073 0.960 . S
H4060 C4073 0.961 . S
H4061 C4073 0.959 . S
H4062 C4076 0.929 . S
H4063 C4077 0.931 . S
H4064 C4079 0.930 . S
C4065 H4053 0.930 . S
C4065 C4066 1.399 . S
C4065 C4070 1.399 . S
C4066 C4065 1.399 . S
C4066 C4067 1.376 . S
C4067 H4054 0.930 . S
C4067 C4066 1.376 . S
C4067 C4068 1.388 . S
C4068 H4055 0.930 . S
C4068 C4067 1.388 . S
C4068 C4069 1.390 . S
C4069 C4068 1.390 . S
C4069 C4070 1.394 . S
C4069 C4075 1.465 . S
C4070 C4065 1.399 . S
C4070 C4069 1.394 . S
C4070 C4071 1.516 . S
C4071 C4070 1.516 . S
C4071 C4072 1.502 . S
C4071 C4073 1.561 . S
C4071 C4074 1.526 . S
C4072 H4056 0.959 . S
C4072 H4057 0.959 . S
C4072 H4058 0.961 . S
C4072 C4071 1.502 . S
C4073 H4059 0.960 . S
C4073 H4060 0.961 . S
C4073 H4061 0.959 . S
C4073 C4071 1.561 . S
C4074 C4071 1.526 . S
C4074 C4075 1.396 . S
C4074 C4079 1.390 . S
C4075 C4069 1.465 . S
C4075 C4074 1.396 . S
C4075 C4076 1.399 . S
C4076 H4062 0.929 . S
C4076 C4075 1.399 . S
C4076 C4077 1.385 . S
C4077 H4063 0.931 . S
C4077 C4076 1.385 . S
C4077 C4078 1.389 . S
C4078 C4077 1.389 . S
C4078 C4079 1.387 . S
C4079 H4064 0.930 . S
C4079 C4074 1.390 . S
C4079 C4078 1.387 . S
H4080 C4092 0.930 . S
H4081 C4094 0.930 . S
H4082 C4095 0.930 . S
H4083 C4099 0.959 . S
H4084 C4099 0.959 . S
H4085 C4099 0.961 . S
H4086 C4100 0.960 . S
H4087 C4100 0.961 . S
H4088 C4100 0.959 . S
H4089 C4103 0.929 . S
H4090 C4104 0.931 . S
H4091 C4106 0.930 . S
C4092 H4080 0.930 . S
C4092 C4093 1.399 . S
C4092 C4097 1.399 . S
C4093 C4092 1.399 . S
C4093 C4094 1.376 . S
C4094 H4081 0.930 . S
C4094 C4093 1.376 . S
C4094 C4095 1.388 . S
C4095 H4082 0.930 . S
C4095 C4094 1.388 . S
C4095 C4096 1.390 . S
C4096 C4095 1.390 . S
C4096 C4097 1.394 . S
C4096 C4102 1.465 . S
C4097 C4092 1.399 . S
C4097 C4096 1.394 . S
C4097 C4098 1.516 . S
C4098 C4097 1.516 . S
C4098 C4099 1.502 . S
C4098 C4100 1.561 . S
C4098 C4101 1.526 . S
C4099 H4083 0.959 . S
C4099 H4084 0.959 . S
C4099 H4085 0.961 . S
C4099 C4098 1.502 . S
C4100 H4086 0.960 . S
C4100 H4087 0.961 . S
C4100 H4088 0.959 . S
C4100 C4098 1.561 . S
C4101 C4098 1.526 . S
C4101 C4102 1.396 . S
C4101 C4106 1.390 . S
C4102 C4096 1.465 . S
C4102 C4101 1.396 . S
C4102 C4103 1.399 . S
C4103 H4089 0.929 . S
C4103 C4102 1.399 . S
C4103 C4104 1.385 . S
C4104 H4090 0.931 . S
C4104 C4103 1.385 . S
C4104 C4105 1.389 . S
C4105 C4104 1.389 . S
C4105 C4106 1.387 . S
C4106 H4091 0.930 . S
C4106 C4101 1.390 . S
C4106 C4105 1.387 . S
H4107 C4119 0.930 . S
H4108 C4121 0.930 . S
H4109 C4122 0.930 . S
H4110 C4126 0.959 . S
H4111 C4126 0.959 . S
H4112 C4126 0.961 . S
H4113 C4127 0.960 . S
H4114 C4127 0.961 . S
H4115 C4127 0.959 . S
H4116 C4130 0.929 . S
H4117 C4131 0.931 . S
H4118 C4133 0.930 . S
C4119 H4107 0.930 . S
C4119 C4120 1.399 . S
C4119 C4124 1.399 . S
C4120 C4119 1.399 . S
C4120 C4121 1.376 . S
C4121 H4108 0.930 . S
C4121 C4120 1.376 . S
C4121 C4122 1.388 . S
C4122 H4109 0.930 . S
C4122 C4121 1.388 . S
C4122 C4123 1.390 . S
C4123 C4122 1.390 . S
C4123 C4124 1.394 . S
C4123 C4129 1.465 . S
C4124 C4119 1.399 . S
C4124 C4123 1.394 . S
C4124 C4125 1.516 . S
C4125 C4124 1.516 . S
C4125 C4126 1.502 . S
C4125 C4127 1.561 . S
C4125 C4128 1.526 . S
C4126 H4110 0.959 . S
C4126 H4111 0.959 . S
C4126 H4112 0.961 . S
C4126 C4125 1.502 . S
C4127 H4113 0.960 . S
C4127 H4114 0.961 . S
C4127 H4115 0.959 . S
C4127 C4125 1.561 . S
C4128 C4125 1.526 . S
C4128 C4129 1.396 . S
C4128 C4133 1.390 . S
C4129 C4123 1.465 . S
C4129 C4128 1.396 . S
C4129 C4130 1.399 . S
C4130 H4116 0.929 . S
C4130 C4129 1.399 . S
C4130 C4131 1.385 . S
C4131 H4117 0.931 . S
C4131 C4130 1.385 . S
C4131 C4132 1.389 . S
C4132 C4131 1.389 . S
C4132 C4133 1.387 . S
C4133 H4118 0.930 . S
C4133 C4128 1.390 . S
C4133 C4132 1.387 . S
H4134 C4146 0.930 . S
H4135 C4148 0.930 . S
H4136 C4149 0.930 . S
H4137 C4153 0.959 . S
H4138 C4153 0.959 . S
H4139 C4153 0.961 . S
H4140 C4154 0.960 . S
H4141 C4154 0.961 . S
H4142 C4154 0.959 . S
H4143 C4157 0.929 . S
H4144 C4158 0.931 . S
H4145 C4160 0.930 . S
C4146 H4134 0.930 . S
C4146 C4147 1.399 . S
C4146 C4151 1.399 . S
C4147 C4146 1.399 . S
C4147 C4148 1.376 . S
C4148 H4135 0.930 . S
C4148 C4147 1.376 . S
C4148 C4149 1.388 . S
C4149 H4136 0.930 . S
C4149 C4148 1.388 . S
C4149 C4150 1.390 . S
C4150 C4149 1.390 . S
C4150 C4151 1.394 . S
C4150 C4156 1.465 . S
C4151 C4146 1.399 . S
C4151 C4150 1.394 . S
C4151 C4152 1.516 . S
C4152 C4151 1.516 . S
C4152 C4153 1.502 . S
C4152 C4154 1.561 . S
C4152 C4155 1.526 . S
C4153 H4137 0.959 . S
C4153 H4138 0.959 . S
C4153 H4139 0.961 . S
C4153 C4152 1.502 . S
C4154 H4140 0.960 . S
C4154 H4141 0.961 . S
C4154 H4142 0.959 . S
C4154 C4152 1.561 . S
C4155 C4152 1.526 . S
C4155 C4156 1.396 . S
C4155 C4160 1.390 . S
C4156 C4150 1.465 . S
C4156 C4155 1.396 . S
C4156 C4157 1.399 . S
C4157 H4143 0.929 . S
C4157 C4156 1.399 . S
C4157 C4158 1.385 . S
C4158 H4144 0.931 . S
C4158 C4157 1.385 . S
C4158 C4159 1.389 . S
C4159 C4158 1.389 . S
C4159 C4160 1.387 . S
C4160 H4145 0.930 . S
C4160 C4155 1.390 . S
C4160 C4159 1.387 . S
H4161 C4173 0.930 . S
H4162 C4175 0.930 . S
H4163 C4176 0.930 . S
H4164 C4180 0.959 . S
H4165 C4180 0.959 . S
H4166 C4180 0.961 . S
H4167 C4181 0.960 . S
H4168 C4181 0.961 . S
H4169 C4181 0.959 . S
H4170 C4184 0.929 . S
H4171 C4185 0.931 . S
H4172 C4187 0.930 . S
C4173 H4161 0.930 . S
C4173 C4174 1.399 . S
C4173 C4178 1.399 . S
C4174 C4173 1.399 . S
C4174 C4175 1.376 . S
C4175 H4162 0.930 . S
C4175 C4174 1.376 . S
C4175 C4176 1.388 . S
C4176 H4163 0.930 . S
C4176 C4175 1.388 . S
C4176 C4177 1.390 . S
C4177 C4176 1.390 . S
C4177 C4178 1.394 . S
C4177 C4183 1.465 . S
C4178 C4173 1.399 . S
C4178 C4177 1.394 . S
C4178 C4179 1.516 . S
C4179 C4178 1.516 . S
C4179 C4180 1.502 . S
C4179 C4181 1.561 . S
C4179 C4182 1.526 . S
C4180 H4164 0.959 . S
C4180 H4165 0.959 . S
C4180 H4166 0.961 . S
C4180 C4179 1.502 . S
C4181 H4167 0.960 . S
C4181 H4168 0.961 . S
C4181 H4169 0.959 . S
C4181 C4179 1.561 . S
C4182 C4179 1.526 . S
C4182 C4183 1.396 . S
C4182 C4187 1.390 . S
C4183 C4177 1.465 . S
C4183 C4182 1.396 . S
C4183 C4184 1.399 . S
C4184 H4170 0.929 . S
C4184 C4183 1.399 . S
C4184 C4185 1.385 . S
C4185 H4171 0.931 . S
C4185 C4184 1.385 . S
C4185 C4186 1.389 . S
C4186 C4185 1.389 . S
C4186 C4187 1.387 . S
C4187 H4172 0.930 . S
C4187 C4182 1.390 . S
C4187 C4186 1.387 . S
H4188 C4200 0.930 . S
H4189 C4202 0.930 . S
H4190 C4203 0.930 . S
H4191 C4207 0.959 . S
H4192 C4207 0.959 . S
H4193 C4207 0.961 . S
H4194 C4208 0.960 . S
H4195 C4208 0.961 . S
H4196 C4208 0.959 . S
H4197 C4211 0.929 . S
H4198 C4212 0.931 . S
H4199 C4214 0.930 . S
C4200 H4188 0.930 . S
C4200 C4201 1.399 . S
C4200 C4205 1.399 . S
C4201 C4200 1.399 . S
C4201 C4202 1.376 . S
C4202 H4189 0.930 . S
C4202 C4201 1.376 . S
C4202 C4203 1.388 . S
C4203 H4190 0.930 . S
C4203 C4202 1.388 . S
C4203 C4204 1.390 . S
C4204 C4203 1.390 . S
C4204 C4205 1.394 . S
C4204 C4210 1.465 . S
C4205 C4200 1.399 . S
C4205 C4204 1.394 . S
C4205 C4206 1.516 . S
C4206 C4205 1.516 . S
C4206 C4207 1.502 . S
C4206 C4208 1.561 . S
C4206 C4209 1.526 . S
C4207 H4191 0.959 . S
C4207 H4192 0.959 . S
C4207 H4193 0.961 . S
C4207 C4206 1.502 . S
C4208 H4194 0.960 . S
C4208 H4195 0.961 . S
C4208 H4196 0.959 . S
C4208 C4206 1.561 . S
C4209 C4206 1.526 . S
C4209 C4210 1.396 . S
C4209 C4214 1.390 . S
C4210 C4204 1.465 . S
C4210 C4209 1.396 . S
C4210 C4211 1.399 . S
C4211 H4197 0.929 . S
C4211 C4210 1.399 . S
C4211 C4212 1.385 . S
C4212 H4198 0.931 . S
C4212 C4211 1.385 . S
C4212 C4213 1.389 . S
C4213 C4212 1.389 . S
C4213 C4214 1.387 . S
C4214 H4199 0.930 . S
C4214 C4209 1.390 . S
C4214 C4213 1.387 . S
H4215 C4227 0.930 . S
H4216 C4229 0.930 . S
H4217 C4230 0.930 . S
H4218 C4234 0.959 . S
H4219 C4234 0.959 . S
H4220 C4234 0.961 . S
H4221 C4235 0.960 . S
H4222 C4235 0.961 . S
H4223 C4235 0.959 . S
H4224 C4238 0.929 . S
H4225 C4239 0.931 . S
H4226 C4241 0.930 . S
C4227 H4215 0.930 . S
C4227 C4228 1.399 . S
C4227 C4232 1.399 . S
C4228 C4227 1.399 . S
C4228 C4229 1.376 . S
C4229 H4216 0.930 . S
C4229 C4228 1.376 . S
C4229 C4230 1.388 . S
C4230 H4217 0.930 . S
C4230 C4229 1.388 . S
C4230 C4231 1.390 . S
C4231 C4230 1.390 . S
C4231 C4232 1.394 . S
C4231 C4237 1.465 . S
C4232 C4227 1.399 . S
C4232 C4231 1.394 . S
C4232 C4233 1.516 . S
C4233 C4232 1.516 . S
C4233 C4234 1.502 . S
C4233 C4235 1.561 . S
C4233 C4236 1.526 . S
C4234 H4218 0.959 . S
C4234 H4219 0.959 . S
C4234 H4220 0.961 . S
C4234 C4233 1.502 . S
C4235 H4221 0.960 . S
C4235 H4222 0.961 . S
C4235 H4223 0.959 . S
C4235 C4233 1.561 . S
C4236 C4233 1.526 . S
C4236 C4237 1.396 . S
C4236 C4241 1.390 . S
C4237 C4231 1.465 . S
C4237 C4236 1.396 . S
C4237 C4238 1.399 . S
C4238 H4224 0.929 . S
C4238 C4237 1.399 . S
C4238 C4239 1.385 . S
C4239 H4225 0.931 . S
C4239 C4238 1.385 . S
C4239 C4240 1.389 . S
C4240 C4239 1.389 . S
C4240 C4241 1.387 . S
C4241 H4226 0.930 . S
C4241 C4236 1.390 . S
C4241 C4240 1.387 . S
H4242 C4254 0.930 . S
H4243 C4256 0.930 . S
H4244 C4257 0.930 . S
H4245 C4261 0.959 . S
H4246 C4261 0.959 . S
H4247 C4261 0.961 . S
H4248 C4262 0.960 . S
H4249 C4262 0.961 . S
H4250 C4262 0.959 . S
H4251 C4265 0.929 . S
H4252 C4266 0.931 . S
H4253 C4268 0.930 . S
C4254 H4242 0.930 . S
C4254 C4255 1.399 . S
C4254 C4259 1.399 . S
C4255 C4254 1.399 . S
C4255 C4256 1.376 . S
C4256 H4243 0.930 . S
C4256 C4255 1.376 . S
C4256 C4257 1.388 . S
C4257 H4244 0.930 . S
C4257 C4256 1.388 . S
C4257 C4258 1.390 . S
C4258 C4257 1.390 . S
C4258 C4259 1.394 . S
C4258 C4264 1.465 . S
C4259 C4254 1.399 . S
C4259 C4258 1.394 . S
C4259 C4260 1.516 . S
C4260 C4259 1.516 . S
C4260 C4261 1.502 . S
C4260 C4262 1.561 . S
C4260 C4263 1.526 . S
C4261 H4245 0.959 . S
C4261 H4246 0.959 . S
C4261 H4247 0.961 . S
C4261 C4260 1.502 . S
C4262 H4248 0.960 . S
C4262 H4249 0.961 . S
C4262 H4250 0.959 . S
C4262 C4260 1.561 . S
C4263 C4260 1.526 . S
C4263 C4264 1.396 . S
C4263 C4268 1.390 . S
C4264 C4258 1.465 . S
C4264 C4263 1.396 . S
C4264 C4265 1.399 . S
C4265 H4251 0.929 . S
C4265 C4264 1.399 . S
C4265 C4266 1.385 . S
C4266 H4252 0.931 . S
C4266 C4265 1.385 . S
C4266 C4267 1.389 . S
C4267 C4266 1.389 . S
C4267 C4268 1.387 . S
C4268 H4253 0.930 . S
C4268 C4263 1.390 . S
C4268 C4267 1.387 . S
H4269 C4281 0.930 . S
H4270 C4283 0.930 . S
H4271 C4284 0.930 . S
H4272 C4288 0.959 . S
H4273 C4288 0.959 . S
H4274 C4288 0.961 . S
H4275 C4289 0.960 . S
H4276 C4289 0.961 . S
H4277 C4289 0.959 . S
H4278 C4292 0.929 . S
H4279 C4293 0.931 . S
H4280 C4295 0.930 . S
C4281 H4269 0.930 . S
C4281 C4282 1.399 . S
C4281 C4286 1.399 . S
C4282 C4281 1.399 . S
C4282 C4283 1.376 . S
C4283 H4270 0.930 . S
C4283 C4282 1.376 . S
C4283 C4284 1.388 . S
C4284 H4271 0.930 . S
C4284 C4283 1.388 . S
C4284 C4285 1.390 . S
C4285 C4284 1.390 . S
C4285 C4286 1.394 . S
C4285 C4291 1.465 . S
C4286 C4281 1.399 . S
C4286 C4285 1.394 . S
C4286 C4287 1.516 . S
C4287 C4286 1.516 . S
C4287 C4288 1.502 . S
C4287 C4289 1.561 . S
C4287 C4290 1.526 . S
C4288 H4272 0.959 . S
C4288 H4273 0.959 . S
C4288 H4274 0.961 . S
C4288 C4287 1.502 . S
C4289 H4275 0.960 . S
C4289 H4276 0.961 . S
C4289 H4277 0.959 . S
C4289 C4287 1.561 . S
C4290 C4287 1.526 . S
C4290 C4291 1.396 . S
C4290 C4295 1.390 . S
C4291 C4285 1.465 . S
C4291 C4290 1.396 . S
C4291 C4292 1.399 . S
C4292 H4278 0.929 . S
C4292 C4291 1.399 . S
C4292 C4293 1.385 . S
C4293 H4279 0.931 . S
C4293 C4292 1.385 . S
C4293 C4294 1.389 . S
C4294 C4293 1.389 . S
C4294 C4295 1.387 . S
C4295 H4280 0.930 . S
C4295 C4290 1.390 . S
C4295 C4294 1.387 . S
C1729 N1164 1.446 . S
C1717 C31 1.491 . S
C1756 C1191 1.563 . S
C1744 C61 1.567 . S
C1771 C73 1.507 . S
C1783 C1205 1.504 . S
C1810 N1223 1.446 . S
C1798 C133 1.479 . S
C1825 C175 1.546 . S
C1837 C1228 1.568 . S
C1852 C211 1.485 . S
C1864 C1168 1.487 . S
C1879 C241 1.435 . S
C1891 N1187 1.353 . S
C1918 N1200 1.428 . S
C1906 C253 1.481 . S
C1945 N1246 1.437 . S
C1933 C1 1.421 . S
C1960 C37 1.511 . S
C1972 N1269 1.482 . S
C1987 C103 1.548 . S
C1999 N1292 1.531 . S
C2026 N1325 1.408 . S
C2014 C139 1.470 . S
C2041 C145 1.539 . S
C2053 C1352 1.505 . S
C2080 C1375 1.568 . S
C2068 C205 1.566 . S
C2095 C247 1.486 . S
C2107 C1398 1.494 . S
C2134 C1412 1.432 . S
C2122 C283 1.440 . S
C2149 C25 1.408 . S
C2161 C1329 1.428 . S
C2176 C169 1.478 . S
C2188 N1371 1.413 . S
C2215 N1394 1.456 . S
C2203 C181 1.477 . S
C2230 C217 1.473 . S
C2242 N1407 1.409 . S
C2269 N1348 1.436 . S
C2257 C277 1.444 . S
C2296 C1274 1.661 . S
C2284 C97 1.654 . S
C2311 C109 1.506 . S
C2323 C1297 1.510 . S
C2350 C1251 1.567 . S
C2338 C67 1.573 . S
C2377 C1444 1.435 . S
C2365 C319 1.452 . S
C2392 C349 1.586 . S
C2404 C1458 1.585 . S
C2419 C361 1.506 . S
C2431 N1486 1.449 . S
C2458 N1499 1.458 . S
C2446 C421 1.454 . S
C2473 C463 1.566 . S
C2485 C1504 1.573 . S
C2500 C499 1.490 . S
C2512 N1440 1.477 . S
C2527 C529 1.519 . S
C2539 N1453 1.489 . S
C2554 C541 1.439 . S
C2566 C1490 1.422 . S
C2593 N1338 1.432 . S
C2581 C289 1.420 . S
C2608 C325 1.511 . S
C2620 N1522 1.486 . S
C2647 N1384 1.463 . S
C2635 C391 1.482 . S
C2662 C427 1.519 . S
C2674 C1559 1.521 . S
C2689 C433 1.557 . S
C2701 C1260 1.557 . S
C2728 C1573 1.581 . S
C2716 C493 1.592 . S
C2743 C535 1.551 . S
C2755 C1306 1.543 . S
C2782 N1591 1.428 . S
C2770 C571 1.439 . S
C2797 C313 1.467 . S
C2809 N1555 1.390 . S
C2836 N1568 1.496 . S
C2824 C457 1.484 . S
C2851 C469 1.472 . S
C2863 N1302 1.398 . S
C2890 C1596 1.430 . S
C2878 C505 1.446 . S
C2905 C565 1.432 . S
C2917 N1256 1.371 . S
C2932 C385 1.561 . S
C2944 C1527 1.563 . S
C2959 C397 1.556 . S
C2971 C1389 1.555 . S
C2986 C355 1.580 . S
C2998 C1343 1.589 . S
C3013 C607 1.508 . S
C3025 C1481 1.519 . S
C3052 C1513 1.511 . S
C3040 C637 1.523 . S
C3067 C649 1.469 . S
C3079 N1430 1.409 . S
C3094 C709 1.458 . S
C3106 N1463 1.377 . S
C3121 C751 1.584 . S
C3133 C1467 1.568 . S
C3148 C787 1.541 . S
C3160 N1476 1.507 . S
C3187 N1509 1.391 . S
C3175 C817 1.385 . S
C3202 C829 1.500 . S
C3214 C1435 1.493 . S
C3241 N1624 1.404 . S
C3229 C577 1.468 . S
C3256 C613 1.449 . S
C3268 N1361 1.394 . S
C3295 N1647 1.352 . S
C3283 C679 1.414 . S
C3310 C715 1.491 . S
C3322 N1417 1.433 . S
C3337 C721 1.538 . S
C3349 C1665 1.540 . S
C3364 C781 1.647 . S
C3376 C1283 1.647 . S
C3403 N1683 1.355 . S
C3391 C823 1.436 . S
C3418 C859 1.487 . S
C3430 C1320 1.485 . S
C3457 C1421 1.483 . S
C3445 C601 1.460 . S
C3484 N1279 1.438 . S
C3472 C745 1.522 . S
C3499 C757 1.568 . S
C3511 C1688 1.560 . S
C3526 C793 1.410 . S
C3538 N1315 1.329 . S
C3565 N1660 1.430 . S
C3553 C853 1.479 . S
C3592 C1366 1.546 . S
C3580 C673 1.548 . S
C3619 C1651 1.549 . S
C3607 C685 1.546 . S
C3646 C1628 1.550 . S
C3634 C643 1.547 . S
C3661 C895 1.410 . S
C3673 N1210 1.349 . S
C3688 C925 1.552 . S
C3700 C1237 1.542 . S
C3727 C1159 1.544 . S
C3715 C937 1.542 . S
C3754 N1177 1.366 . S
C3742 C997 1.422 . S
C3781 C1182 1.569 . S
C3769 C1039 1.571 . S
C3808 C1214 1.501 . S
C3796 C1075 1.513 . S
C3835 N1233 1.513 . S
C3823 C1105 1.505 . S
C3850 C1117 1.502 . S
C3862 N1154 1.488 . S
C3877 C865 1.369 . S
C3889 N1670 1.366 . S
C3916 N1578 1.437 . S
C3904 C901 1.483 . S
C3943 C1697 1.571 . S
C3931 C967 1.569 . S
C3970 C1605 1.403 . S
C3958 C1003 1.373 . S
C3985 C1009 1.566 . S
C3997 C1619 1.566 . S
C4024 C1536 1.562 . S
C4012 C1069 1.570 . S
C4051 C1642 1.646 . S
C4039 C1111 1.622 . S
C4066 C1147 1.482 . S
C4078 N1545 1.411 . S
C4105 N1601 1.383 . S
C4093 C889 1.358 . S
C4132 N1532 1.448 . S
C4120 C1033 1.470 . S
C4159 N1637 1.424 . S
C4147 C1045 1.428 . S
C4174 C1081 1.485 . S
C4186 C1550 1.514 . S
C4201 C1141 1.444 . S
C4213 N1614 1.401 . S
C4228 C961 1.644 . S
C4240 C1582 1.644 . S
C4255 C973 1.447 . S
C4267 N1693 1.367 . S
C4294 C1674 1.511 . S
C4282 C931 1.516 . S
