# Generated by pormake.
# Topology tsx, (6,3)-cn, num edge types: 1
# Building blocks:
#     Node 0, Type 0, BuildingBlock: MIDCAF_clean_sbu_0, # of connection points: 6
#     Node 1, Type 0, BuildingBlock: MIDCAF_clean_sbu_0, # of connection points: 6
#     Node 2, Type 1, BuildingBlock: KAKCAD_clean_linker_0, # of connection points: 3
#     Node 3, Type 1, BuildingBlock: KAKCAD_clean_linker_0, # of connection points: 3
#     Node 4, Type 1, BuildingBlock: KAKCAD_clean_linker_0, # of connection points: 3
#     Node 5, Type 1, BuildingBlock: KAKCAD_clean_linker_0, # of connection points: 3
#     Edge 6, Type (0, 1), BuildingBlock: EZIPEK_clean_linker_0, # of connection points: 2
#     Edge 7, Type (0, 1), BuildingBlock: EZIPEK_clean_linker_0, # of connection points: 2
#     Edge 8, Type (0, 1), BuildingBlock: EZIPEK_clean_linker_0, # of connection points: 2
#     Edge 9, Type (0, 1), BuildingBlock: EZIPEK_clean_linker_0, # of connection points: 2
#     Edge 10, Type (0, 1), BuildingBlock: EZIPEK_clean_linker_0, # of connection points: 2
#     Edge 11, Type (0, 1), BuildingBlock: EZIPEK_clean_linker_0, # of connection points: 2
#     Edge 12, Type (0, 1), BuildingBlock: EZIPEK_clean_linker_0, # of connection points: 2
#     Edge 13, Type (0, 1), BuildingBlock: EZIPEK_clean_linker_0, # of connection points: 2
#     Edge 14, Type (0, 1), BuildingBlock: EZIPEK_clean_linker_0, # of connection points: 2
#     Edge 15, Type (0, 1), BuildingBlock: EZIPEK_clean_linker_0, # of connection points: 2
#     Edge 16, Type (0, 1), BuildingBlock: EZIPEK_clean_linker_0, # of connection points: 2
#     Edge 17, Type (0, 1), BuildingBlock: EZIPEK_clean_linker_0, # of connection points: 2
# Relax obj value: 0.118
# Max RMSD: 0.182
# Mean RMSD: 0.113
data_MOF--net-tsx--node1-MIDCAF_clean_sbu_0--node2-KAKCAD_clean_linker_0--edge1-EZIPEK_clean_linker_0
_symmetry_space_group_name_H-M    P1
_symmetry_Int_Tables_number       1
_symmetry_cell_setting            triclinic
loop_
_symmetry_equiv_pos_as_xyz
'x, y, z'
_cell_length_a     18.601991
_cell_length_b     19.253582
_cell_length_c     36.639728
_cell_angle_alpha  90.718771
_cell_angle_beta   94.902595
_cell_angle_gamma 90.080102
loop_
_atom_site_label
_atom_site_type_symbol
_atom_site_fract_x
_atom_site_fract_y
_atom_site_fract_z
_atom_type_partial_charge
Zn0 Zn 0.93006 0.0366 0.96999 0.0
Zn1 Zn 0.17012 0.0401 0.05245 0.0
Zn2 Zn 0.04909 0.03841 0.01282 0.0
C3 C 0.15084 0.17209 0.02471 0.0
C4 C 0.17892 0.93477 0.00155 0.0
O5 O 0.97231 0.97565 0.04052 0.0
O6 O 0.89117 0.95446 0.9939 0.0
C7 C 0.95121 0.1716 0.9966 0.0
O8 O 0.08662 0.14759 0.01769 0.0
O9 O 0.20182 0.13274 0.03628 0.0
O10 O 0.20848 0.95318 0.03241 0.0
O11 O 0.12324 0.9673 0.98719 0.0
O12 O 0.90083 0.13195 0.98385 0.0
O13 O 0.01465 0.14727 0.00541 0.0
O14 O 0.07242 0.98905 0.96067 0.0
O15 O 0.97758 0.02057 0.92398 0.0
C16 C 0.03953 0.99373 0.92843 0.0
O17 O 0.02481 0.9995 0.06646 0.0
O18 O 0.12422 0.03361 0.0993 0.0
C19 C 0.91709 0.94178 0.02608 0.0
C20 C 0.06089 0.00931 0.09767 0.0
Zn21 Zn 0.66279 0.54517 0.54972 0.0
Zn22 Zn 0.41621 0.53809 0.47651 0.0
Zn23 Zn 0.53912 0.54225 0.51334 0.0
C24 C 0.52022 0.50243 0.42928 0.0
C25 C 0.43751 0.67375 0.50039 0.0
O26 O 0.5215 0.50287 0.5678 0.0
O27 O 0.62291 0.53889 0.59813 0.0
C28 C 0.66825 0.44011 0.49848 0.0
O29 O 0.55859 0.49599 0.45998 0.0
O30 O 0.45671 0.52574 0.42856 0.0
O31 O 0.38613 0.63257 0.49112 0.0
O32 O 0.50233 0.6507 0.50638 0.0
O33 O 0.69989 0.45867 0.52884 0.0
O34 O 0.61113 0.47201 0.4853 0.0
O35 O 0.57528 0.65182 0.51696 0.0
O36 O 0.69193 0.63743 0.53214 0.0
C37 C 0.63981 0.6765 0.5219 0.0
O38 O 0.46617 0.47809 0.54368 0.0
O39 O 0.37882 0.45581 0.50023 0.0
C40 C 0.56024 0.51353 0.59817 0.0
C41 C 0.40911 0.44409 0.53164 0.0
C42 C 0.01263 0.9197 0.26441 0.0
C43 C 0.97577 0.97119 0.24362 0.0
C44 C 0.01039 0.91872 0.30245 0.0
C45 C 0.97386 0.97117 0.32073 0.0
C46 C 0.93296 0.01975 0.29917 0.0
C47 C 0.93245 0.0185 0.26107 0.0
C48 C 0.9835 0.97917 0.36167 0.0
C49 C 0.04724 0.95674 0.38153 0.0
C50 C 0.06012 0.96989 0.41937 0.0
C51 C 0.01017 0.00943 0.43734 0.0
C52 C 0.94644 0.03289 0.41805 0.0
C53 C 0.93237 0.01505 0.38081 0.0
C54 C 0.89814 0.08295 0.43493 0.0
C55 C 0.82275 0.07804 0.42764 0.0
C56 C 0.92766 0.14152 0.45405 0.0
C57 C 0.88313 0.19586 0.4637 0.0
C58 C 0.80849 0.19238 0.45451 0.0
C59 C 0.12648 0.94215 0.43947 0.0
C60 C 0.14737 0.87342 0.43274 0.0
C61 C 0.17044 0.9837 0.46426 0.0
C62 C 0.23502 0.95718 0.4812 0.0
C63 C 0.25575 0.88871 0.47376 0.0
C64 C 0.21123 0.84709 0.44967 0.0
C65 C 0.77825 0.13253 0.43724 0.0
H66 H 0.04563 0.88199 0.2514 0.0
H67 H 0.0398 0.87822 0.31744 0.0
H68 H 0.9046 0.06186 0.31135 0.0
H69 H 0.90318 0.05842 0.24543 0.0
H70 H 0.08897 0.93117 0.36755 0.0
H71 H 0.88261 0.03244 0.36645 0.0
H72 H 0.02056 0.02164 0.46627 0.0
H73 H 0.79847 0.03314 0.41332 0.0
H74 H 0.9855 0.14717 0.45971 0.0
H75 H 0.90709 0.24167 0.47727 0.0
H76 H 0.11421 0.83986 0.41424 0.0
H77 H 0.15581 0.03698 0.46981 0.0
H78 H 0.72056 0.12891 0.43034 0.0
H79 H 0.22626 0.79399 0.44382 0.0
H80 H 0.26887 0.98992 0.49981 0.0
C81 C 0.15178 0.9445 0.76091 0.0
C82 C 0.09129 0.95169 0.781 0.0
C83 C 0.14478 0.95309 0.72292 0.0
C84 C 0.07708 0.96809 0.70457 0.0
C85 C 0.01612 0.97112 0.72467 0.0
C86 C 0.02325 0.96314 0.76258 0.0
C87 C 0.07062 0.98631 0.66524 0.0
C88 C 0.11868 0.03403 0.65207 0.0
C89 C 0.10993 0.05674 0.61568 0.0
C90 C 0.05201 0.03066 0.59213 0.0
C91 C 1.00405 0.98171 0.6048 0.0
C92 C 0.01366 0.9603 0.64147 0.0
C93 C 0.94328 0.95229 0.58049 0.0
C94 C 0.89618 0.99507 0.55862 0.0
C95 C 0.92883 0.88076 0.58147 0.0
C96 C 0.86668 0.85312 0.56295 0.0
C97 C 0.81764 0.89614 0.54288 0.0
C98 C 0.16025 0.10975 0.60338 0.0
C99 C 0.13402 0.16716 0.58303 0.0
C100 C 0.23462 0.10567 0.61416 0.0
C101 C 0.28144 0.15859 0.60556 0.0
C102 C 0.25475 0.21624 0.58585 0.0
C103 C 0.18098 0.22007 0.57438 0.0
C104 C 0.83348 0.96709 0.53988 0.0
H105 H 0.20462 0.93548 0.77482 0.0
H106 H 0.19249 0.94979 0.70798 0.0
H107 H 0.96345 0.98317 0.71135 0.0
H108 H 0.97609 0.96885 0.77778 0.0
H109 H 0.1612 0.05613 0.67077 0.0
H110 H 0.97604 0.9238 0.65174 0.0
H111 H 0.04513 0.04728 0.56389 0.0
H112 H 0.90609 0.0504 0.55734 0.0
H113 H 0.96479 0.8463 0.59743 0.0
H114 H 0.85567 0.7981 0.56517 0.0
H115 H 0.077 0.17213 0.57469 0.0
H116 H 0.25657 0.06166 0.62948 0.0
H117 H 0.79636 0.00088 0.5242 0.0
H118 H 0.1598 0.26422 0.55891 0.0
H119 H 0.33843 0.15466 0.61423 0.0
C120 C 0.52358 0.42252 0.76635 0.0
C121 C 0.48588 0.47423 0.74609 0.0
C122 C 0.52279 0.421 0.80446 0.0
C123 C 0.48673 0.47298 0.82329 0.0
C124 C 0.44533 0.52203 0.80232 0.0
C125 C 0.44351 0.52144 0.76419 0.0
C126 C 0.49699 0.47982 0.86424 0.0
C127 C 0.56134 0.45778 0.88366 0.0
C128 C 0.57445 0.46965 0.92161 0.0
C129 C 0.52408 0.5076 0.94013 0.0
C130 C 0.45973 0.5306 0.92125 0.0
C131 C 0.44553 0.51402 0.88389 0.0
C132 C 0.41082 0.57912 0.93871 0.0
C133 C 0.33547 0.5727 0.9318 0.0
C134 C 0.43947 0.63811 0.95775 0.0
C135 C 0.39405 0.69162 0.96751 0.0
C136 C 0.31942 0.68678 0.95856 0.0
C137 C 0.64121 0.44185 0.94129 0.0
C138 C 0.66284 0.37375 0.93362 0.0
C139 C 0.68462 0.48261 0.96672 0.0
C140 C 0.74943 0.45597 0.98336 0.0
C141 C 0.77088 0.38814 0.97495 0.0
C142 C 0.72689 0.3473 0.95023 0.0
C143 C 0.29008 0.62632 0.94156 0.0
H144 H 0.55597 0.38498 0.75283 0.0
H145 H 0.55276 0.38036 0.81906 0.0
H146 H 0.41743 0.56387 0.81502 0.0
H147 H 0.41373 0.56159 0.74897 0.0
H148 H 0.60319 0.43339 0.86925 0.0
H149 H 0.39532 0.5311 0.86982 0.0
H150 H 0.53457 0.51889 0.96916 0.0
H151 H 0.31194 0.52743 0.91752 0.0
H152 H 0.49725 0.64485 0.96313 0.0
H153 H 0.4173 0.73795 0.98087 0.0
H154 H 0.63008 0.34073 0.91465 0.0
H155 H 0.66937 0.53539 0.97305 0.0
H156 H 0.2324 0.62169 0.93484 0.0
H157 H 0.74247 0.29468 0.94365 0.0
H158 H 0.78282 0.48807 0.0025 0.0
C159 C 0.64788 0.51794 0.26649 0.0
C160 C 0.60485 0.46885 0.28239 0.0
C161 C 0.64748 0.52177 0.22849 0.0
C162 C 0.60704 0.47408 0.20539 0.0
C163 C 0.57118 0.41969 0.22197 0.0
C164 C 0.56872 0.41809 0.25999 0.0
C165 C 0.59712 0.48484 0.16476 0.0
C166 C 0.64755 0.52316 0.14671 0.0
C167 C 0.6334 0.54243 0.10993 0.0
C168 C 0.57031 0.51825 0.08989 0.0
C169 C 0.52097 0.47674 0.10672 0.0
C170 C 0.53381 0.46214 0.14422 0.0
C171 C 0.45559 0.44789 0.08574 0.0
C172 C 0.41113 0.48886 0.06153 0.0
C173 C 0.43613 0.37849 0.09109 0.0
C174 C 0.37288 0.35108 0.07363 0.0
C175 C 0.3276 0.39218 0.05032 0.0
C176 C 0.68145 0.5935 0.09413 0.0
C177 C 0.65167 0.65108 0.07509 0.0
C178 C 0.75681 0.58971 0.10168 0.0
C179 C 0.80106 0.64398 0.09205 0.0
C180 C 0.77067 0.70247 0.0744 0.0
C181 C 0.69599 0.70516 0.06533 0.0
C182 C 0.34717 0.46118 0.04397 0.0
H183 H 0.67654 0.55736 0.28339 0.0
H184 H 0.67541 0.56517 0.21769 0.0
H185 H 0.54231 0.37967 0.20571 0.0
H186 H 0.53595 0.37907 0.27176 0.0
H187 H 0.69692 0.54097 0.1616 0.0
H188 H 0.49246 0.43491 0.15744 0.0
H189 H 0.56004 0.53121 0.06122 0.0
H190 H 0.42477 0.54258 0.05694 0.0
H191 H 0.46982 0.34529 0.10901 0.0
H192 H 0.3588 0.29755 0.07854 0.0
H193 H 0.59383 0.65594 0.06926 0.0
H194 H 0.78137 0.54557 0.11588 0.0
H195 H 0.31282 0.49345 0.02587 0.0
H196 H 0.67192 0.74992 0.05149 0.0
H197 H 0.85879 0.64097 0.09887 0.0
C198 C 0.21242 0.2655 0.99351 0.0
C199 C 0.16719 0.24664 0.02087 0.0
C200 C 0.20187 0.3522 0.0557 0.0
C201 C 0.25992 0.36027 0.03348 0.0
N202 N 0.31471 0.33454 0.97785 0.0
N203 N 0.10653 0.27674 0.0741 0.0
C204 C 0.26207 0.32118 0.00063 0.0
C205 C 0.15645 0.29277 0.05026 0.0
N206 N 0.20851 0.22845 0.96142 0.0
N207 N 0.19281 0.40015 0.08268 0.0
H208 H 0.07133 0.23467 0.06957 0.0
H209 H 0.10018 0.30402 0.09828 0.0
H210 H 0.22623 0.44369 0.08664 0.0
H211 H 0.1499 0.39996 0.09912 0.0
H212 H 0.23709 0.24071 0.93916 0.0
H213 H 0.17105 0.1884 0.95629 0.0
H214 H 0.32457 0.30372 0.95531 0.0
H215 H 0.34976 0.37679 0.98215 0.0
C216 C 0.19208 0.80683 0.00484 0.0
C217 C 0.20211 0.86886 0.9854 0.0
C218 C 0.27199 0.80521 0.94243 0.0
C219 C 0.27272 0.74677 0.96577 0.0
N220 N 0.23621 0.69153 0.01997 0.0
N221 N 0.25092 0.92911 0.93589 0.0
C222 C 0.23269 0.74704 0.99696 0.0
C223 C 0.24089 0.86849 0.95381 0.0
N224 N 0.14286 0.80515 0.0305 0.0
N225 N 0.30058 0.79976 0.90937 0.0
H226 H 0.22786 0.97596 0.94337 0.0
H227 H 0.28512 0.93401 0.91502 0.0
H228 H 0.32399 0.75411 0.90039 0.0
H229 H 0.29569 0.83815 0.88957 0.0
H230 H 0.12781 0.7598 0.04307 0.0
H231 H 0.11169 0.84811 0.03663 0.0
H232 H 0.21512 0.69204 0.0454 0.0
H233 H 0.26456 0.64625 0.01482 0.0
C234 C 0.84836 0.88513 0.07385 0.0
C235 C 0.89099 0.87936 0.04377 0.0
C236 C 0.85989 0.75632 0.03568 0.0
C237 C 0.8168 0.76175 0.06566 0.0
N238 N 0.78272 0.82525 0.11863 0.0
N239 N 0.95466 0.80708 0.00314 0.0
C240 C 0.81517 0.8244 0.08653 0.0
C241 C 0.90237 0.81398 0.02701 0.0
N242 N 0.83768 0.94884 0.08931 0.0
N243 N 0.85742 0.69741 0.01434 0.0
H244 H 0.98735 0.84838 0.99651 0.0
H245 H 0.97053 0.7594 0.9928 0.0
H246 H 0.827 0.65377 0.01977 0.0
H247 H 0.8811 0.69361 0.98965 0.0
H248 H 0.80098 0.95802 0.10872 0.0
H249 H 0.8634 0.99369 0.08135 0.0
H250 H 0.78523 0.86729 0.13683 0.0
H251 H 0.7582 0.78148 0.12866 0.0
C252 C 0.88856 0.26283 0.02953 0.0
C253 C 0.93406 0.24566 0.00181 0.0
C254 C 0.89729 0.35087 0.96879 0.0
C255 C 0.83911 0.35717 0.99117 0.0
N256 N 0.78482 0.32894 0.04633 0.0
N257 N 0.99449 0.27813 0.94934 0.0
C258 C 0.8378 0.31744 0.02338 0.0
C259 C 0.94394 0.29251 0.97327 0.0
N260 N 0.89292 0.22491 0.06089 0.0
N261 N 0.90526 0.39938 0.94257 0.0
H262 H 0.03032 0.23669 0.95328 0.0
H263 H 1.00083 0.3062 0.92576 0.0
H264 H 0.87099 0.44219 0.93937 0.0
H265 H 0.94794 0.40032 0.92601 0.0
H266 H 0.86425 0.23622 0.08338 0.0
H267 H 0.93045 0.1849 0.06528 0.0
H268 H 0.77562 0.29744 0.06833 0.0
H269 H 0.74875 0.37025 0.04275 0.0
C270 C 0.64613 0.7983 0.54579 0.0
C271 C 0.65562 0.75081 0.51682 0.0
C272 C 0.74921 0.82439 0.4945 0.0
C273 C 0.74886 0.86458 0.52708 0.0
N274 N 0.68432 0.90647 0.57687 0.0
N275 N 0.69516 0.72898 0.45725 0.0
C276 C 0.69193 0.85766 0.55012 0.0
C277 C 0.69968 0.76819 0.48868 0.0
N278 N 0.59724 0.78353 0.57039 0.0
N279 N 0.80006 0.8376 0.47071 0.0
H280 H 0.65831 0.68804 0.45308 0.0
H281 H 0.72321 0.7397 0.4346 0.0
H282 H 0.83475 0.88031 0.47425 0.0
H283 H 0.80851 0.8067 0.44799 0.0
H284 H 0.59191 0.81182 0.59437 0.0
H285 H 0.5618 0.74149 0.56675 0.0
H286 H 0.64225 0.90709 0.59382 0.0
H287 H 0.71797 0.94991 0.58019 0.0
C288 C 0.73182 0.3752 0.45091 0.0
C289 C 0.6913 0.37456 0.48187 0.0
C290 C 0.7212 0.25232 0.49274 0.0
C291 C 0.7626 0.25288 0.46203 0.0
N292 N 0.79466 0.30809 0.40697 0.0
N293 N 0.63109 0.31001 0.52629 0.0
C294 C 0.76369 0.31231 0.43944 0.0
C295 C 0.68061 0.31205 0.50078 0.0
N296 N 0.74188 0.43631 0.43344 0.0
N297 N 0.72364 0.19609 0.51527 0.0
H298 H 0.60058 0.35314 0.53287 0.0
H299 H 0.61533 0.26445 0.53841 0.0
H300 H 0.7522 0.15095 0.51009 0.0
H301 H 0.70156 0.19578 0.54043 0.0
H302 H 0.77719 0.44223 0.41314 0.0
H303 H 0.71684 0.48247 0.44046 0.0
H304 H 0.79204 0.34746 0.3877 0.0
H305 H 0.81827 0.26266 0.39784 0.0
C306 C 0.39065 0.31719 0.53561 0.0
C307 C 0.38355 0.38402 0.55152 0.0
C308 C 0.30722 0.3358 0.59618 0.0
C309 C 0.30436 0.27205 0.57616 0.0
N310 N 0.34032 0.20177 0.52584 0.0
N311 N 0.33727 0.4588 0.59706 0.0
C312 C 0.3461 0.26224 0.5459 0.0
C313 C 0.3433 0.39377 0.58227 0.0
N314 N 0.44054 0.3065 0.51079 0.0
N315 N 0.27592 0.3404 0.62854 0.0
H316 H 0.36525 0.50156 0.5882 0.0
H317 H 0.30246 0.47117 0.61694 0.0
H318 H 0.24885 0.2988 0.63924 0.0
H319 H 0.28166 0.38313 0.64623 0.0
H320 H 0.45363 0.2576 0.5009 0.0
H321 H 0.47397 0.34602 0.5027 0.0
H322 H 0.36269 0.19479 0.50097 0.0
H323 H 0.30879 0.15982 0.53267 0.0
C324 C 0.37473 0.76779 0.53107 0.0
C325 C 0.42021 0.74823 0.50374 0.0
C326 C 0.38197 0.85001 0.46804 0.0
C327 C 0.32387 0.85804 0.49034 0.0
N328 N 0.26975 0.83382 0.54612 0.0
N329 N 0.47899 0.77575 0.4499 0.0
C330 C 0.32303 0.8211 0.52349 0.0
C331 C 0.42914 0.79231 0.47386 0.0
N332 N 0.38009 0.73326 0.56351 0.0
N333 N 0.38964 0.89631 0.44072 0.0
H334 H 0.5155 0.73514 0.4547 0.0
H335 H 0.48387 0.8011 0.42533 0.0
H336 H 0.35501 0.93862 0.43644 0.0
H337 H 0.43263 0.89624 0.42433 0.0
H338 H 0.35164 0.74674 0.58578 0.0
H339 H 0.41834 0.6942 0.56892 0.0
H340 H 0.26095 0.80392 0.56877 0.0
H341 H 0.23286 0.8742 0.54153 0.0
C342 C 0.02911 0.05723 0.15715 0.0
C343 C 0.02714 1.0002 0.13236 0.0
C344 C 0.97544 0.92789 0.17808 0.0
C345 C 0.99014 0.98153 0.20471 0.0
N346 N 0.0481 0.09207 0.2205 0.0
N347 N 0.00666 0.87788 0.12046 0.0
C348 C 0.02128 0.04508 0.19451 0.0
C349 C 1.00189 0.9345 0.14294 0.0
N350 N 0.03814 0.12323 0.14496 0.0
N351 N 0.93555 0.8714 0.18616 0.0
H352 H 0.02689 0.88059 0.09484 0.0
H353 H 0.99559 0.82746 0.12837 0.0
H354 H 0.91413 0.86585 0.21136 0.0
H355 H 0.91818 0.8336 0.16678 0.0
H356 H 0.03368 0.16712 0.16157 0.0
H357 H 0.04187 0.13435 0.11737 0.0
H358 H 0.07723 0.13596 0.21416 0.0
H359 H 0.04901 0.0835 0.24856 0.0
C360 C 0.05721 0.90814 0.87823 0.0
C361 C 0.07513 0.97259 0.89566 0.0
C362 C 0.12132 0.0167 0.84003 0.0
C363 C 0.0987 0.95404 0.8216 0.0
N364 N 0.06355 0.83409 0.8243 0.0
N365 N 0.14404 0.07827 0.89808 0.0
C366 C 0.07305 0.89744 0.84126 0.0
C367 C 0.11444 0.02334 0.87815 0.0
N368 N 0.02256 0.85874 0.89669 0.0
N369 N 0.14445 0.07151 0.82068 0.0
H370 H 0.13943 0.08357 0.92615 0.0
H371 H 0.17876 0.11426 0.88787 0.0
H372 H 0.15099 0.06881 0.79274 0.0
H373 H 0.15309 0.12116 0.83178 0.0
H374 H 1.00071 0.81336 0.88465 0.0
H375 H 0.01399 0.86448 0.92437 0.0
H376 H 0.04981 0.78914 0.83758 0.0
H377 H 0.07516 0.82547 0.79724 0.0
C378 C 0.53424 0.56072 0.65884 0.0
C379 C 0.53023 0.50395 0.63383 0.0
C380 C 0.48148 0.43142 0.68035 0.0
C381 C 0.49815 0.48472 0.70693 0.0
N382 N 0.55744 0.59483 0.72213 0.0
N383 N 0.509 0.38165 0.62206 0.0
C384 C 0.52891 0.54818 0.69638 0.0
C385 C 0.50568 0.4382 0.64473 0.0
N386 N 0.54245 0.62687 0.64669 0.0
N387 N 0.44173 0.37514 0.68888 0.0
H388 H 0.52794 0.38434 0.59615 0.0
H389 H 0.49826 0.33125 0.63011 0.0
H390 H 0.422 0.3694 0.71449 0.0
H391 H 0.42271 0.33784 0.66957 0.0
H392 H 0.53938 0.67054 0.6636 0.0
H393 H 0.54401 0.63842 0.619 0.0
H394 H 0.58632 0.63864 0.71543 0.0
H395 H 0.5599 0.58602 0.75021 0.0
C396 C 0.54967 0.55133 0.37029 0.0
C397 C 0.55256 0.4939 0.39407 0.0
C398 C 0.60423 0.42308 0.34691 0.0
C399 C 0.58926 0.47725 0.32136 0.0
N400 N 0.52968 0.58695 0.3076 0.0
N401 N 0.57465 0.37195 0.404 0.0
C402 C 0.55728 0.53997 0.33272 0.0
C403 C 0.57819 0.42877 0.38229 0.0
N404 N 0.54027 0.61703 0.38363 0.0
N405 N 0.64418 0.36712 0.33765 0.0
H406 H 0.55536 0.37437 0.42989 0.0
H407 H 0.58603 0.32175 0.3953 0.0
H408 H 0.66528 0.36225 0.31227 0.0
H409 H 0.66174 0.32896 0.35623 0.0
H410 H 0.54417 0.66122 0.36775 0.0
H411 H 0.53681 0.62775 0.41143 0.0
H412 H 0.50004 0.6302 0.31476 0.0
H413 H 0.52861 0.57881 0.27938 0.0
loop_
_geom_bond_atom_site_label_1
_geom_bond_atom_site_label_2
_geom_bond_distance
_geom_bond_site_symmetry_2
_ccdc_geom_bond_type
Zn0 O6 1.920 1_545 S
Zn0 O12 1.898 . S
Zn0 O15 1.905 1_545 S
Zn1 O9 1.905 . S
Zn1 O10 1.898 1_545 S
Zn1 O18 1.920 1_545 S
Zn2 O5 2.080 1_445 S
Zn2 O8 2.114 . S
Zn2 O11 2.120 1_545 S
Zn2 O13 2.120 1_455 S
Zn2 O14 2.114 1_554 S
Zn2 O17 2.080 . S
C3 O8 1.166 . S
C3 O9 1.182 . S
C4 O10 1.167 . S
C4 O11 1.299 . S
O5 Zn2 2.080 1_665 S
O5 C19 1.305 . S
O6 Zn0 1.920 1_565 S
O6 C19 1.234 1_556 S
C7 O12 1.167 . S
C7 O13 1.299 1_556 S
O8 Zn2 2.114 . S
O8 C3 1.166 . S
O9 Zn1 1.905 . S
O9 C3 1.182 . S
O10 Zn1 1.898 1_565 S
O10 C4 1.167 . S
O11 Zn2 2.120 1_565 S
O11 C4 1.299 . S
O12 Zn0 1.898 . S
O12 C7 1.167 . S
O13 Zn2 2.120 1_655 S
O13 C7 1.299 1_554 S
O14 Zn2 2.114 1_556 S
O14 C16 1.166 1_445 S
O15 Zn0 1.905 1_565 S
O15 C16 1.182 . S
C16 O14 1.166 1_665 S
C16 O15 1.182 . S
O17 Zn2 2.080 . S
O17 C20 1.305 1_545 S
O18 Zn1 1.920 1_565 S
O18 C20 1.234 . S
C19 O5 1.305 . S
C19 O6 1.234 1_554 S
C20 O17 1.305 1_565 S
C20 O18 1.234 . S
Zn21 O27 1.920 . S
Zn21 O33 1.898 . S
Zn21 O36 1.905 . S
Zn22 O30 1.905 . S
Zn22 O31 1.898 . S
Zn22 O39 1.920 . S
Zn23 O26 2.080 . S
Zn23 O29 2.114 . S
Zn23 O32 2.120 . S
Zn23 O34 2.120 . S
Zn23 O35 2.114 . S
Zn23 O38 2.080 . S
C24 O29 1.166 . S
C24 O30 1.182 . S
C25 O31 1.167 . S
C25 O32 1.299 . S
O26 Zn23 2.080 . S
O26 C40 1.305 . S
O27 Zn21 1.920 . S
O27 C40 1.234 . S
C28 O33 1.167 . S
C28 O34 1.299 . S
O29 Zn23 2.114 . S
O29 C24 1.166 . S
O30 Zn22 1.905 . S
O30 C24 1.182 . S
O31 Zn22 1.898 . S
O31 C25 1.167 . S
O32 Zn23 2.120 . S
O32 C25 1.299 . S
O33 Zn21 1.898 . S
O33 C28 1.167 . S
O34 Zn23 2.120 . S
O34 C28 1.299 . S
O35 Zn23 2.114 . S
O35 C37 1.166 . S
O36 Zn21 1.905 . S
O36 C37 1.182 . S
C37 O35 1.166 . S
C37 O36 1.182 . S
O38 Zn23 2.080 . S
O38 C41 1.305 . S
O39 Zn22 1.920 . S
O39 C41 1.234 . S
C40 O26 1.305 . S
C40 O27 1.234 . S
C41 O38 1.305 . S
C41 O39 1.234 . S
C42 C43 1.386 1_565 S
C42 C44 1.397 . S
C42 H66 0.931 . S
C43 C42 1.386 1_545 S
C43 C47 1.397 . S
C44 C42 1.397 . S
C44 C45 1.384 1_565 S
C44 H67 0.930 . S
C45 C44 1.384 1_545 S
C45 C46 1.377 . S
C45 C48 1.481 . S
C46 C45 1.377 . S
C46 C47 1.389 . S
C46 H68 0.929 . S
C47 C43 1.397 . S
C47 C46 1.389 . S
C47 H69 0.931 . S
C48 C45 1.481 . S
C48 C49 1.387 1_545 S
C48 C53 1.390 . S
C49 C48 1.387 1_565 S
C49 C50 1.401 . S
C49 H70 0.930 . S
C50 C49 1.401 . S
C50 C51 1.376 1_565 S
C50 C59 1.511 . S
C51 C50 1.376 1_545 S
C51 C52 1.392 . S
C51 H72 0.931 . S
C52 C51 1.392 . S
C52 C53 1.361 . S
C52 C54 1.500 1_455 S
C53 C48 1.390 . S
C53 C52 1.361 . S
C53 H71 0.932 . S
C54 C52 1.500 1_655 S
C54 C55 1.371 . S
C54 C56 1.365 . S
C55 C54 1.371 . S
C55 C65 1.386 . S
C55 H73 0.931 . S
C56 C54 1.365 . S
C56 C57 1.409 . S
C56 H74 0.929 . S
C57 C56 1.409 . S
C57 C58 1.380 . S
C57 H75 0.930 . S
C58 C57 1.380 . S
C58 C65 1.357 . S
C59 C50 1.511 . S
C59 C60 1.341 . S
C59 C61 1.371 . S
C60 C59 1.341 . S
C60 C64 1.394 . S
C60 H76 0.930 . S
C61 C59 1.371 . S
C61 C62 1.392 . S
C61 H77 0.931 . S
C62 C61 1.392 . S
C62 C63 1.331 . S
C62 H80 0.932 . S
C63 C62 1.331 . S
C63 C64 1.336 . S
C64 C60 1.394 . S
C64 C63 1.336 . S
C64 H79 0.929 . S
C65 C55 1.386 . S
C65 C58 1.357 . S
C65 H78 0.928 . S
H66 C42 0.931 . S
H67 C44 0.930 . S
H68 C46 0.929 . S
H69 C47 0.931 . S
H70 C49 0.930 . S
H71 C53 0.932 . S
H72 C51 0.931 . S
H73 C55 0.931 . S
H74 C56 0.929 . S
H75 C57 0.930 . S
H76 C60 0.930 . S
H77 C61 0.931 . S
H78 C65 0.928 . S
H79 C64 0.929 . S
H80 C62 0.932 . S
C81 C82 1.386 . S
C81 C83 1.397 . S
C81 H105 0.931 . S
C82 C81 1.386 . S
C82 C86 1.397 1_545 S
C83 C81 1.397 . S
C83 C84 1.384 . S
C83 H106 0.930 . S
C84 C83 1.384 . S
C84 C85 1.377 1_545 S
C84 C87 1.481 . S
C85 C84 1.377 1_565 S
C85 C86 1.389 . S
C85 H107 0.929 . S
C86 C82 1.397 1_565 S
C86 C85 1.389 . S
C86 H108 0.931 . S
C87 C84 1.481 . S
C87 C88 1.387 . S
C87 C92 1.390 1_445 S
C88 C87 1.387 . S
C88 C89 1.401 . S
C88 H109 0.930 . S
C89 C88 1.401 . S
C89 C90 1.367 1_455 S
C89 C98 1.511 . S
C90 C89 1.367 1_655 S
C90 C91 1.402 1_545 S
C90 H111 0.931 . S
C91 C90 1.402 1_565 S
C91 C92 1.361 . S
C91 C93 1.500 . S
C92 C87 1.390 1_665 S
C92 C91 1.361 . S
C92 H110 0.931 . S
C93 C91 1.500 . S
C93 C94 1.371 . S
C93 C95 1.365 . S
C94 C93 1.371 . S
C94 C104 1.386 . S
C94 H112 0.931 . S
C95 C93 1.365 . S
C95 C96 1.409 . S
C95 H113 0.929 . S
C96 C95 1.409 . S
C96 C97 1.380 . S
C96 H114 0.930 . S
C97 C96 1.380 . S
C97 C104 1.357 . S
C98 C89 1.511 . S
C98 C99 1.341 . S
C98 C100 1.371 . S
C99 C98 1.341 . S
C99 C103 1.394 . S
C99 H115 0.930 . S
C100 C98 1.371 . S
C100 C101 1.392 . S
C100 H116 0.931 . S
C101 C100 1.392 . S
C101 C102 1.331 . S
C101 H119 0.932 . S
C102 C101 1.331 . S
C102 C103 1.336 . S
C103 C99 1.394 . S
C103 C102 1.336 . S
C103 H118 0.929 . S
C104 C94 1.386 . S
C104 C97 1.357 . S
C104 H117 0.928 . S
H105 C81 0.931 . S
H106 C83 0.930 . S
H107 C85 0.929 . S
H108 C86 0.931 . S
H109 C88 0.930 . S
H110 C92 0.931 . S
H111 C90 0.931 . S
H112 C94 0.931 . S
H113 C95 0.929 . S
H114 C96 0.930 . S
H115 C99 0.930 . S
H116 C100 0.931 . S
H117 C104 0.928 . S
H118 C103 0.929 . S
H119 C101 0.932 . S
C120 C121 1.386 . S
C120 C122 1.397 . S
C120 H144 0.931 . S
C121 C120 1.386 . S
C121 C125 1.397 . S
C122 C120 1.397 . S
C122 C123 1.384 . S
C122 H145 0.930 . S
C123 C122 1.384 . S
C123 C124 1.377 . S
C123 C126 1.481 . S
C124 C123 1.377 . S
C124 C125 1.389 . S
C124 H146 0.929 . S
C125 C121 1.397 . S
C125 C124 1.389 . S
C125 H147 0.931 . S
C126 C123 1.481 . S
C126 C127 1.387 . S
C126 C131 1.390 . S
C127 C126 1.387 . S
C127 C128 1.401 . S
C127 H148 0.930 . S
C128 C127 1.401 . S
C128 C129 1.376 . S
C128 C137 1.511 . S
C129 C128 1.376 . S
C129 C130 1.392 . S
C129 H150 0.931 . S
C130 C129 1.392 . S
C130 C131 1.361 . S
C130 C132 1.500 . S
C131 C126 1.390 . S
C131 C130 1.361 . S
C131 H149 0.931 . S
C132 C130 1.500 . S
C132 C133 1.371 . S
C132 C134 1.365 . S
C133 C132 1.371 . S
C133 C143 1.386 . S
C133 H151 0.931 . S
C134 C132 1.365 . S
C134 C135 1.409 . S
C134 H152 0.929 . S
C135 C134 1.409 . S
C135 C136 1.380 . S
C135 H153 0.930 . S
C136 C135 1.380 . S
C136 C143 1.357 . S
C137 C128 1.511 . S
C137 C138 1.341 . S
C137 C139 1.371 . S
C138 C137 1.341 . S
C138 C142 1.394 . S
C138 H154 0.930 . S
C139 C137 1.371 . S
C139 C140 1.392 1_556 S
C139 H155 0.931 . S
C140 C139 1.392 1_554 S
C140 C141 1.331 1_554 S
C140 H158 0.932 . S
C141 C140 1.331 1_556 S
C141 C142 1.336 . S
C142 C138 1.394 . S
C142 C141 1.336 . S
C142 H157 0.929 . S
C143 C133 1.386 . S
C143 C136 1.357 . S
C143 H156 0.928 1_556 S
H144 C120 0.931 . S
H145 C122 0.930 . S
H146 C124 0.929 . S
H147 C125 0.931 . S
H148 C127 0.930 . S
H149 C131 0.931 . S
H150 C129 0.931 . S
H151 C133 0.931 . S
H152 C134 0.929 . S
H153 C135 0.930 . S
H154 C138 0.930 . S
H155 C139 0.931 . S
H156 C143 0.928 1_554 S
H157 C142 0.929 . S
H158 C140 0.932 . S
C159 C160 1.386 . S
C159 C161 1.397 . S
C159 H183 0.931 . S
C160 C159 1.386 . S
C160 C164 1.397 . S
C161 C159 1.397 . S
C161 C162 1.384 . S
C161 H184 0.930 . S
C162 C161 1.384 . S
C162 C163 1.377 . S
C162 C165 1.481 . S
C163 C162 1.377 . S
C163 C164 1.389 . S
C163 H185 0.929 . S
C164 C160 1.397 . S
C164 C163 1.389 . S
C164 H186 0.931 . S
C165 C162 1.481 . S
C165 C166 1.387 . S
C165 C170 1.390 . S
C166 C165 1.387 . S
C166 C167 1.401 . S
C166 H187 0.930 . S
C167 C166 1.401 . S
C167 C168 1.376 . S
C167 C176 1.511 . S
C168 C167 1.376 . S
C168 C169 1.392 . S
C168 H189 0.931 . S
C169 C168 1.392 . S
C169 C170 1.361 . S
C169 C171 1.500 . S
C170 C165 1.390 . S
C170 C169 1.361 . S
C170 H188 0.931 . S
C171 C169 1.500 . S
C171 C172 1.371 . S
C171 C173 1.365 . S
C172 C171 1.371 . S
C172 C182 1.386 . S
C172 H190 0.931 . S
C173 C171 1.365 . S
C173 C174 1.409 . S
C173 H191 0.929 . S
C174 C173 1.409 . S
C174 C175 1.380 . S
C174 H192 0.930 . S
C175 C174 1.380 . S
C175 C182 1.357 . S
C176 C167 1.511 . S
C176 C177 1.341 . S
C176 C178 1.371 . S
C177 C176 1.341 . S
C177 C181 1.394 . S
C177 H193 0.930 . S
C178 C176 1.371 . S
C178 C179 1.392 . S
C178 H194 0.931 . S
C179 C178 1.392 . S
C179 C180 1.331 . S
C179 H197 0.932 . S
C180 C179 1.331 . S
C180 C181 1.336 . S
C181 C177 1.394 . S
C181 C180 1.336 . S
C181 H196 0.929 . S
C182 C172 1.386 . S
C182 C175 1.357 . S
C182 H195 0.928 . S
H183 C159 0.931 . S
H184 C161 0.930 . S
H185 C163 0.929 . S
H186 C164 0.931 . S
H187 C166 0.930 . S
H188 C170 0.931 . S
H189 C168 0.931 . S
H190 C172 0.931 . S
H191 C173 0.929 . S
H192 C174 0.930 . S
H193 C177 0.930 . S
H194 C178 0.931 . S
H195 C182 0.928 . S
H196 C181 0.929 . S
H197 C179 0.932 . S
C198 C199 1.363 . S
C198 C204 1.379 . S
C198 N206 1.356 1_554 S
C199 C198 1.363 . S
C199 C205 1.363 . S
C200 C201 1.363 . S
C200 C205 1.379 . S
C200 N207 1.356 . S
C201 C200 1.363 . S
C201 C204 1.363 . S
N202 C204 1.356 1_556 S
N202 H214 0.984 . S
N202 H215 0.985 1_556 S
N203 C205 1.356 . S
N203 H208 0.984 . S
N203 H209 0.985 . S
C204 C198 1.379 . S
C204 C201 1.363 . S
C204 N202 1.356 1_554 S
C205 C199 1.363 . S
C205 C200 1.379 . S
C205 N203 1.356 . S
N206 C198 1.356 1_556 S
N206 H212 0.984 . S
N206 H213 0.984 . S
N207 C200 1.356 . S
N207 H210 0.984 . S
N207 H211 0.985 . S
H208 N203 0.984 . S
H209 N203 0.985 . S
H210 N207 0.984 . S
H211 N207 0.985 . S
H212 N206 0.984 . S
H213 N206 0.984 . S
H214 N202 0.984 . S
H215 N202 0.985 1_554 S
C216 C217 1.363 1_554 S
C216 C222 1.379 . S
C216 N224 1.356 . S
C217 C216 1.363 1_556 S
C217 C223 1.363 . S
C218 C219 1.363 . S
C218 C223 1.379 . S
C218 N225 1.356 . S
C219 C218 1.363 . S
C219 C222 1.363 1_556 S
N220 C222 1.356 . S
N220 H232 0.984 . S
N220 H233 0.985 . S
N221 C223 1.356 . S
N221 H226 0.984 . S
N221 H227 0.985 . S
C222 C216 1.379 . S
C222 C219 1.363 1_554 S
C222 N220 1.356 . S
C223 C217 1.363 . S
C223 C218 1.379 . S
C223 N221 1.356 . S
N224 C216 1.356 . S
N224 H230 0.984 . S
N224 H231 0.984 . S
N225 C218 1.356 . S
N225 H228 0.984 . S
N225 H229 0.985 . S
H226 N221 0.984 . S
H227 N221 0.985 . S
H228 N225 0.984 . S
H229 N225 0.985 . S
H230 N224 0.984 . S
H231 N224 0.984 . S
H232 N220 0.984 . S
H233 N220 0.985 . S
C234 C235 1.363 . S
C234 C240 1.379 . S
C234 N242 1.356 . S
C235 C234 1.363 . S
C235 C241 1.363 . S
C236 C237 1.363 . S
C236 C241 1.379 . S
C236 N243 1.356 1_554 S
C237 C236 1.363 . S
C237 C240 1.363 . S
N238 C240 1.356 . S
N238 H250 0.984 . S
N238 H251 0.985 . S
N239 C241 1.356 1_556 S
N239 H244 0.984 . S
N239 H245 0.985 . S
C240 C234 1.379 . S
C240 C237 1.363 . S
C240 N238 1.356 . S
C241 C235 1.363 . S
C241 C236 1.379 . S
C241 N239 1.356 1_554 S
N242 C234 1.356 . S
N242 H248 0.984 . S
N242 H249 0.984 . S
N243 C236 1.356 1_556 S
N243 H246 0.984 . S
N243 H247 0.985 . S
H244 N239 0.984 . S
H245 N239 0.985 . S
H246 N243 0.984 . S
H247 N243 0.985 . S
H248 N242 0.984 . S
H249 N242 0.984 . S
H250 N238 0.984 . S
H251 N238 0.985 . S
C252 C253 1.363 . S
C252 C258 1.379 . S
C252 N260 1.356 . S
C253 C252 1.363 . S
C253 C259 1.363 1_554 S
C254 C255 1.363 . S
C254 C259 1.379 . S
C254 N261 1.356 . S
C255 C254 1.363 . S
C255 C258 1.363 1_556 S
N256 C258 1.356 . S
N256 H268 0.984 . S
N256 H269 0.985 . S
N257 C259 1.356 . S
N257 H262 0.984 . S
N257 H263 0.985 . S
C258 C252 1.379 . S
C258 C255 1.363 1_554 S
C258 N256 1.356 . S
C259 C253 1.363 1_556 S
C259 C254 1.379 . S
C259 N257 1.356 . S
N260 C252 1.356 . S
N260 H266 0.984 . S
N260 H267 0.984 . S
N261 C254 1.356 . S
N261 H264 0.984 . S
N261 H265 0.985 . S
H262 N257 0.984 . S
H263 N257 0.985 . S
H264 N261 0.984 . S
H265 N261 0.985 . S
H266 N260 0.984 . S
H267 N260 0.984 . S
H268 N256 0.984 . S
H269 N256 0.985 . S
C270 C271 1.363 . S
C270 C276 1.379 . S
C270 N278 1.356 . S
C271 C270 1.363 . S
C271 C277 1.363 . S
C272 C273 1.363 . S
C272 C277 1.379 . S
C272 N279 1.356 . S
C273 C272 1.363 . S
C273 C276 1.363 . S
N274 C276 1.356 . S
N274 H286 0.984 . S
N274 H287 0.985 . S
N275 C277 1.356 . S
N275 H280 0.984 . S
N275 H281 0.985 . S
C276 C270 1.379 . S
C276 C273 1.363 . S
C276 N274 1.356 . S
C277 C271 1.363 . S
C277 C272 1.379 . S
C277 N275 1.356 . S
N278 C270 1.356 . S
N278 H284 0.984 . S
N278 H285 0.984 . S
N279 C272 1.356 . S
N279 H282 0.984 . S
N279 H283 0.985 . S
H280 N275 0.984 . S
H281 N275 0.985 . S
H282 N279 0.984 . S
H283 N279 0.985 . S
H284 N278 0.984 . S
H285 N278 0.984 . S
H286 N274 0.984 . S
H287 N274 0.985 . S
C288 C289 1.363 . S
C288 C294 1.379 . S
C288 N296 1.356 . S
C289 C288 1.363 . S
C289 C295 1.363 . S
C290 C291 1.363 . S
C290 C295 1.379 . S
C290 N297 1.356 . S
C291 C290 1.363 . S
C291 C294 1.363 . S
N292 C294 1.356 . S
N292 H304 0.984 . S
N292 H305 0.985 . S
N293 C295 1.356 . S
N293 H298 0.984 . S
N293 H299 0.985 . S
C294 C288 1.379 . S
C294 C291 1.363 . S
C294 N292 1.356 . S
C295 C289 1.363 . S
C295 C290 1.379 . S
C295 N293 1.356 . S
N296 C288 1.356 . S
N296 H302 0.984 . S
N296 H303 0.984 . S
N297 C290 1.356 . S
N297 H300 0.984 . S
N297 H301 0.985 . S
H298 N293 0.984 . S
H299 N293 0.985 . S
H300 N297 0.984 . S
H301 N297 0.985 . S
H302 N296 0.984 . S
H303 N296 0.984 . S
H304 N292 0.984 . S
H305 N292 0.985 . S
C306 C307 1.363 . S
C306 C312 1.379 . S
C306 N314 1.356 . S
C307 C306 1.363 . S
C307 C313 1.363 . S
C308 C309 1.363 . S
C308 C313 1.379 . S
C308 N315 1.356 . S
C309 C308 1.363 . S
C309 C312 1.363 . S
N310 C312 1.356 . S
N310 H322 0.984 . S
N310 H323 0.985 . S
N311 C313 1.356 . S
N311 H316 0.984 . S
N311 H317 0.985 . S
C312 C306 1.379 . S
C312 C309 1.363 . S
C312 N310 1.356 . S
C313 C307 1.363 . S
C313 C308 1.379 . S
C313 N311 1.356 . S
N314 C306 1.356 . S
N314 H320 0.984 . S
N314 H321 0.984 . S
N315 C308 1.356 . S
N315 H318 0.984 . S
N315 H319 0.985 . S
H316 N311 0.984 . S
H317 N311 0.985 . S
H318 N315 0.984 . S
H319 N315 0.985 . S
H320 N314 0.984 . S
H321 N314 0.984 . S
H322 N310 0.984 . S
H323 N310 0.985 . S
C324 C325 1.363 . S
C324 C330 1.379 . S
C324 N332 1.356 . S
C325 C324 1.363 . S
C325 C331 1.363 . S
C326 C327 1.363 . S
C326 C331 1.379 . S
C326 N333 1.356 . S
C327 C326 1.363 . S
C327 C330 1.363 . S
N328 C330 1.356 . S
N328 H340 0.984 . S
N328 H341 0.985 . S
N329 C331 1.356 . S
N329 H334 0.984 . S
N329 H335 0.985 . S
C330 C324 1.379 . S
C330 C327 1.363 . S
C330 N328 1.356 . S
C331 C325 1.363 . S
C331 C326 1.379 . S
C331 N329 1.356 . S
N332 C324 1.356 . S
N332 H338 0.984 . S
N332 H339 0.984 . S
N333 C326 1.356 . S
N333 H336 0.984 . S
N333 H337 0.985 . S
H334 N329 0.984 . S
H335 N329 0.985 . S
H336 N333 0.984 . S
H337 N333 0.985 . S
H338 N332 0.984 . S
H339 N332 0.984 . S
H340 N328 0.984 . S
H341 N328 0.985 . S
C342 C343 1.363 1_545 S
C342 C348 1.379 . S
C342 N350 1.356 . S
C343 C342 1.363 1_565 S
C343 C349 1.363 . S
C344 C345 1.363 1_565 S
C344 C349 1.379 . S
C344 N351 1.356 1_455 S
C345 C344 1.363 1_545 S
C345 C348 1.363 . S
N346 C348 1.356 . S
N346 H358 0.984 . S
N346 H359 0.985 . S
N347 C349 1.356 1_655 S
N347 H352 0.984 . S
N347 H353 0.985 . S
C348 C342 1.379 . S
C348 C345 1.363 . S
C348 N346 1.356 . S
C349 C343 1.363 . S
C349 C344 1.379 . S
C349 N347 1.356 1_455 S
N350 C342 1.356 . S
N350 H356 0.984 . S
N350 H357 0.984 . S
N351 C344 1.356 1_655 S
N351 H354 0.984 1_655 S
N351 H355 0.985 . S
H352 N347 0.984 . S
H353 N347 0.985 . S
H354 N351 0.984 1_455 S
H355 N351 0.985 . S
H356 N350 0.984 . S
H357 N350 0.984 . S
H358 N346 0.984 . S
H359 N346 0.985 . S
C360 C361 1.363 . S
C360 C366 1.379 . S
C360 N368 1.356 . S
C361 C360 1.363 . S
C361 C367 1.363 1_465 S
C362 C363 1.363 1_655 S
C362 C367 1.379 . S
C362 N369 1.356 . S
C363 C362 1.363 1_455 S
C363 C366 1.363 1_545 S
N364 C366 1.356 . S
N364 H376 0.984 . S
N364 H377 0.985 . S
N365 C367 1.356 . S
N365 H370 0.984 . S
N365 H371 0.985 . S
C366 C360 1.379 . S
C366 C363 1.363 1_565 S
C366 N364 1.356 . S
C367 C361 1.363 1_645 S
C367 C362 1.379 . S
C367 N365 1.356 . S
N368 C360 1.356 . S
N368 H374 0.984 . S
N368 H375 0.984 . S
N369 C362 1.356 . S
N369 H372 0.984 . S
N369 H373 0.985 . S
H370 N365 0.984 . S
H371 N365 0.985 . S
H372 N369 0.984 . S
H373 N369 0.985 . S
H374 N368 0.984 . S
H375 N368 0.984 . S
H376 N364 0.984 . S
H377 N364 0.985 . S
C378 C379 1.363 . S
C378 C384 1.379 . S
C378 N386 1.356 . S
C379 C378 1.363 . S
C379 C385 1.363 . S
C380 C381 1.363 . S
C380 C385 1.379 . S
C380 N387 1.356 . S
C381 C380 1.363 . S
C381 C384 1.363 . S
N382 C384 1.356 . S
N382 H394 0.984 . S
N382 H395 0.985 . S
N383 C385 1.356 . S
N383 H388 0.984 . S
N383 H389 0.985 . S
C384 C378 1.379 . S
C384 C381 1.363 . S
C384 N382 1.356 . S
C385 C379 1.363 . S
C385 C380 1.379 . S
C385 N383 1.356 . S
N386 C378 1.356 . S
N386 H392 0.984 . S
N386 H393 0.984 . S
N387 C380 1.356 . S
N387 H390 0.984 . S
N387 H391 0.985 . S
H388 N383 0.984 . S
H389 N383 0.985 . S
H390 N387 0.984 . S
H391 N387 0.985 . S
H392 N386 0.984 . S
H393 N386 0.984 . S
H394 N382 0.984 . S
H395 N382 0.985 . S
C396 C397 1.363 . S
C396 C402 1.379 . S
C396 N404 1.356 . S
C397 C396 1.363 . S
C397 C403 1.363 . S
C398 C399 1.363 . S
C398 C403 1.379 . S
C398 N405 1.356 . S
C399 C398 1.363 . S
C399 C402 1.363 . S
N400 C402 1.356 . S
N400 H412 0.984 . S
N400 H413 0.985 . S
N401 C403 1.356 . S
N401 H406 0.984 . S
N401 H407 0.985 . S
C402 C396 1.379 . S
C402 C399 1.363 . S
C402 N400 1.356 . S
C403 C397 1.363 . S
C403 C398 1.379 . S
C403 N401 1.356 . S
N404 C396 1.356 . S
N404 H410 0.984 . S
N404 H411 0.984 . S
N405 C398 1.356 . S
N405 H408 0.984 . S
N405 H409 0.985 . S
H406 N401 0.984 . S
H407 N401 0.985 . S
H408 N405 0.984 . S
H409 N405 0.985 . S
H410 N404 0.984 . S
H411 N404 0.984 . S
H412 N400 0.984 . S
H413 N400 0.985 . S
C201 C175 1.331 . S
C199 C3 1.242 . S
C217 C4 1.492 1_556 S
C219 C136 1.618 . S
C235 C19 1.518 . S
C237 C180 1.635 . S
C253 C7 1.246 1_554 S
C255 C141 1.338 . S
C271 C37 1.242 . S
C273 C97 1.331 . S
C289 C28 1.492 . S
C291 C58 1.619 . S
C309 C102 1.635 . S
C307 C41 1.518 . S
C327 C63 1.338 . S
C325 C25 1.246 . S
C343 C20 1.322 . S
C345 C43 1.505 . S
C361 C16 1.361 1_455 S
C363 C82 1.548 . S
C381 C121 1.505 . S
C379 C40 1.323 . S
C397 C24 1.361 . S
C399 C160 1.548 . S
