# Generated by pormake.
# Topology anh, (6,3)-cn, num edge types: 1
# Building blocks:
#     Node 0, Type 0, BuildingBlock: MIFKUJ_clean_sbu_0, # of connection points: 6
#     Node 1, Type 0, BuildingBlock: MIFKUJ_clean_sbu_0, # of connection points: 6
#     Node 2, Type 0, BuildingBlock: MIFKUJ_clean_sbu_0, # of connection points: 6
#     Node 3, Type 1, BuildingBlock: PAMTOO_clean_linker_0, # of connection points: 3
#     Node 4, Type 1, BuildingBlock: PAMTOO_clean_linker_0, # of connection points: 3
#     Node 5, Type 1, BuildingBlock: PAMTOO_clean_linker_0, # of connection points: 3
#     Node 6, Type 1, BuildingBlock: PAMTOO_clean_linker_0, # of connection points: 3
#     Node 7, Type 1, BuildingBlock: PAMTOO_clean_linker_0, # of connection points: 3
#     Node 8, Type 1, BuildingBlock: PAMTOO_clean_linker_0, # of connection points: 3
#     Edge 9, Type (0, 1), BuildingBlock: TEMPAE_clean_linker_10, # of connection points: 2
#     Edge 10, Type (0, 1), BuildingBlock: TEMPAE_clean_linker_10, # of connection points: 2
#     Edge 11, Type (0, 1), BuildingBlock: TEMPAE_clean_linker_10, # of connection points: 2
#     Edge 12, Type (0, 1), BuildingBlock: TEMPAE_clean_linker_10, # of connection points: 2
#     Edge 13, Type (0, 1), BuildingBlock: TEMPAE_clean_linker_10, # of connection points: 2
#     Edge 14, Type (0, 1), BuildingBlock: TEMPAE_clean_linker_10, # of connection points: 2
#     Edge 15, Type (0, 1), BuildingBlock: TEMPAE_clean_linker_10, # of connection points: 2
#     Edge 16, Type (0, 1), BuildingBlock: TEMPAE_clean_linker_10, # of connection points: 2
#     Edge 17, Type (0, 1), BuildingBlock: TEMPAE_clean_linker_10, # of connection points: 2
#     Edge 18, Type (0, 1), BuildingBlock: TEMPAE_clean_linker_10, # of connection points: 2
#     Edge 19, Type (0, 1), BuildingBlock: TEMPAE_clean_linker_10, # of connection points: 2
#     Edge 20, Type (0, 1), BuildingBlock: TEMPAE_clean_linker_10, # of connection points: 2
#     Edge 21, Type (0, 1), BuildingBlock: TEMPAE_clean_linker_10, # of connection points: 2
#     Edge 22, Type (0, 1), BuildingBlock: TEMPAE_clean_linker_10, # of connection points: 2
#     Edge 23, Type (0, 1), BuildingBlock: TEMPAE_clean_linker_10, # of connection points: 2
#     Edge 24, Type (0, 1), BuildingBlock: TEMPAE_clean_linker_10, # of connection points: 2
#     Edge 25, Type (0, 1), BuildingBlock: TEMPAE_clean_linker_10, # of connection points: 2
#     Edge 26, Type (0, 1), BuildingBlock: TEMPAE_clean_linker_10, # of connection points: 2
# Relax obj value: 0.082
# Max RMSD: 0.147
# Mean RMSD: 0.110
data_MOF--net-anh--node1-MIFKUJ_clean_sbu_0--node2-PAMTOO_clean_linker_0--edge1-TEMPAE_clean_linker_10
_symmetry_space_group_name_H-M    P1
_symmetry_Int_Tables_number       1
_symmetry_cell_setting            triclinic
loop_
_symmetry_equiv_pos_as_xyz
'x, y, z'
_cell_length_a     32.199002
_cell_length_b     32.158307
_cell_length_c     46.69053
_cell_angle_alpha  88.658882
_cell_angle_beta   93.495159
_cell_angle_gamma 119.71378
loop_
_atom_site_label
_atom_site_type_symbol
_atom_site_fract_x
_atom_site_fract_y
_atom_site_fract_z
_atom_type_partial_charge
Zn0 Zn 0.10049 0.56097 0.16036 0.0
Zn1 Zn 0.96067 0.45479 0.16581 0.0
C2 C 0.1881 0.56129 0.15585 0.0
O3 O 0.2027 0.60191 0.16946 0.0
C4 C 0.87865 0.4636 0.14968 0.0
O5 O 0.87233 0.42958 0.13192 0.0
O6 O 0.13198 0.63238 0.15669 0.0
O7 O 0.03628 0.53038 0.14204 0.0
O8 O 0.9858 0.45976 0.12631 0.0
C9 C 0.15553 0.6529 0.13489 0.0
O10 O 0.15753 0.62673 0.11441 0.0
O11 O 0.14387 0.53596 0.14813 0.0
C12 C 0.88986 0.36754 0.19118 0.0
O13 O 0.89531 0.39569 0.21273 0.0
O14 O 0.91676 0.38466 0.17032 0.0
O15 O 0.01122 0.48295 0.20034 0.0
O16 O 0.08791 0.54172 0.20127 0.0
O17 O 0.91655 0.48301 0.1661 0.0
C18 C 0.02307 0.49921 0.12257 0.0
C19 C 0.05155 0.50996 0.21391 0.0
Zn20 Zn 0.64308 0.09635 0.49661 0.0
Zn21 Zn 0.55713 0.94469 0.49508 0.0
C22 C 0.73315 0.16137 0.52315 0.0
O23 O 0.70477 0.16667 0.53992 0.0
C24 C 0.46917 0.86144 0.47608 0.0
O25 O 0.49862 0.84903 0.46585 0.0
O26 O 0.62406 0.14661 0.49927 0.0
O27 O 0.62523 0.07254 0.45584 0.0
O28 O 0.58244 0.99652 0.46589 0.0
C29 C 0.64517 0.18158 0.48235 0.0
O30 O 0.67577 0.18124 0.46511 0.0
O31 O 0.71458 0.13023 0.50314 0.0
C32 C 0.62499 0.91027 0.50679 0.0
O33 O 0.64477 0.94439 0.52635 0.0
O34 O 0.58885 0.9052 0.49141 0.0
O35 O 0.56816 0.96907 0.53572 0.0
O36 O 0.61226 0.04568 0.52661 0.0
O37 O 0.48615 0.90197 0.48831 0.0
C38 C 0.59861 0.02958 0.44744 0.0
C39 C 0.59199 0.01217 0.54454 0.0
Zn40 Zn 0.64292 0.52773 0.84055 0.0
Zn41 Zn 0.54563 0.56592 0.82928 0.0
C42 C 0.63892 0.43889 0.85044 0.0
O43 O 0.66771 0.46511 0.87191 0.0
C44 C 0.55922 0.65728 0.8108 0.0
O45 O 0.52366 0.62951 0.79269 0.0
O46 O 0.71422 0.56054 0.84681 0.0
O47 O 0.63378 0.56028 0.80504 0.0
O48 O 0.55802 0.53814 0.7949 0.0
C49 C 0.73576 0.55339 0.82726 0.0
O50 O 0.71027 0.52439 0.80591 0.0
O51 O 0.62123 0.45768 0.83288 0.0
C52 C 0.46045 0.55814 0.84617 0.0
O53 O 0.49102 0.58704 0.86617 0.0
O54 O 0.47561 0.54275 0.82688 0.0
O55 O 0.55901 0.54882 0.86872 0.0
O56 O 0.6165 0.53085 0.87789 0.0
O57 O 0.57745 0.63838 0.82778 0.0
C58 C 0.5975 0.54329 0.78744 0.0
C59 C 0.5834 0.53751 0.88619 0.0
H60 H 0.61618 0.06266 0.23678 0.0
H61 H 0.46781 0.95435 0.22458 0.0
H62 H 0.53928 0.05067 0.15611 0.0
H63 H 0.4267 0.01436 0.15501 0.0
C64 C 0.42147 0.98689 0.17147 0.0
O65 O 0.45873 0.97722 0.17121 0.0
H66 H 0.42042 0.00121 0.19275 0.0
C67 C 0.58362 0.04403 0.22315 0.0
C68 C 0.5829 0.06009 0.19508 0.0
C69 C 0.54221 0.00639 0.23431 0.0
C70 C 0.50001 0.98387 0.21654 0.0
C71 C 0.49905 -0.00016 0.18839 0.0
C72 C 0.5403 0.03829 0.17779 0.0
H73 H 0.64568 0.6335 0.57904 0.0
H74 H 0.65504 0.50618 0.5659 0.0
H75 H 0.65567 0.59225 0.4941 0.0
H76 H 0.60191 0.48669 0.47803 0.0
C77 C 0.61155 0.47548 0.49893 0.0
O78 O 0.65416 0.51304 0.51003 0.0
H79 H 0.582 0.46593 0.51351 0.0
C80 C 0.64945 0.60926 0.56507 0.0
C81 C 0.65169 0.61814 0.53553 0.0
C82 C 0.6513 0.56944 0.57661 0.0
C83 C 0.65409 0.53753 0.55777 0.0
C84 C 0.65505 0.5456 0.5281 0.0
C85 C 0.65496 0.58638 0.51706 0.0
H86 H 0.02479 0.56685 0.92061 0.0
H87 H 0.15015 0.55584 0.90646 0.0
H88 H 0.08557 0.60036 0.83828 0.0
H89 H 0.13453 0.55573 0.81169 0.0
C90 C 0.14351 0.5458 0.8332 0.0
O91 O 0.15406 0.58205 0.8525 0.0
H92 H 0.11182 0.51152 0.83933 0.0
C93 C 0.05208 0.57005 0.90678 0.0
C94 C 0.05074 0.58413 0.8783 0.0
C95 C 0.08766 0.55964 0.91742 0.0
C96 C 0.12284 0.56455 0.89906 0.0
C97 C 0.122 0.5796 0.87065 0.0
C98 C 0.08659 0.59016 0.86049 0.0
H99 H 0.01427 0.42143 0.42783 0.0
H100 H 0.13839 0.56144 0.43912 0.0
H101 H 0.06701 0.481 0.51265 0.0
H102 H 0.12182 0.5957 0.52478 0.0
C103 C 0.13214 0.59932 0.50219 0.0
O104 O 0.13792 0.56109 0.49519 0.0
H105 H 0.10297 0.60019 0.48849 0.0
C106 C 0.04031 0.45019 0.44179 0.0
C107 C 0.0363 0.44594 0.47164 0.0
C108 C 0.07685 0.49169 0.42977 0.0
C109 C 0.10993 0.52909 0.44798 0.0
C110 C 0.10627 0.52495 0.47778 0.0
C111 C 0.0698 0.48341 0.48958 0.0
H112 H 0.62822 0.97705 0.7567 0.0
H113 H 0.62587 0.10786 0.76923 0.0
H114 H 0.62064 0.02081 0.84174 0.0
H115 H 0.56421 0.07916 0.84929 0.0
C116 C 0.57918 0.09993 0.82953 0.0
O117 O 0.6212 0.09995 0.82485 0.0
H118 H 0.55213 0.0824 0.81137 0.0
C119 C 0.62804 0.00309 0.77096 0.0
C120 C 0.62594 0.99451 0.80061 0.0
C121 C 0.62784 0.04359 0.7593 0.0
C122 C 0.62564 0.07614 0.77777 0.0
C123 C 0.6228 0.06783 0.8074 0.0
C124 C 0.62261 0.02687 0.81882 0.0
H125 H 0.62002 0.52865 0.09588 0.0
H126 H 0.48379 0.51768 0.10723 0.0
H127 H 0.56512 0.505 0.18023 0.0
H128 H 0.44394 0.4492 0.18721 0.0
C129 C 0.44315 0.46458 0.16575 0.0
O130 O 0.48603 0.50655 0.16283 0.0
H131 H 0.43785 0.43723 0.14953 0.0
C132 C 0.59276 0.52446 0.11008 0.0
C133 C 0.59848 0.51786 0.13956 0.0
C134 C 0.55154 0.52393 0.09834 0.0
C135 C 0.51553 0.5175 0.11619 0.0
C136 C 0.52032 0.51067 0.14571 0.0
C137 C 0.56151 0.51015 0.1574 0.0
C138 C 0.2079 0.49529 0.15262 0.0
C139 C 0.22258 0.54426 0.15212 0.0
C140 C 0.24173 0.47957 0.15325 0.0
C141 C 0.29122 0.51361 0.15271 0.0
C142 C 0.30582 0.56294 0.15064 0.0
C143 C 0.27142 0.57764 0.15071 0.0
C144 C 0.2247 0.42673 0.15583 0.0
C145 C 0.35799 0.60041 0.14933 0.0
C146 C 0.38529 0.48579 0.18652 0.0
C147 C 0.40215 0.47492 0.16244 0.0
C148 C 0.34828 0.49708 0.18369 0.0
C149 C 0.32811 0.49827 0.15603 0.0
C150 C 0.34508 0.4873 0.13162 0.0
C151 C 0.38195 0.47583 0.13512 0.0
C152 C 0.33128 0.5085 0.21029 0.0
C153 C 0.32497 0.48865 0.10177 0.0
H154 H 0.17021 0.46939 0.15394 0.0
H155 H 0.28287 0.61554 0.1501 0.0
H156 H 0.23967 0.41508 0.13899 0.0
H157 H 0.23775 0.4196 0.1769 0.0
H158 H 0.18501 0.40468 0.15401 0.0
H159 H 0.36303 0.63678 0.14533 0.0
H160 H 0.37756 0.6012 0.16989 0.0
H161 H 0.37455 0.59141 0.13211 0.0
H162 H 0.40127 0.48563 0.20761 0.0
H163 H 0.39529 0.46783 0.11647 0.0
H164 H 0.29193 0.48529 0.21118 0.0
H165 H 0.3389 0.54613 0.20956 0.0
H166 H 0.34884 0.50355 0.23028 0.0
H167 H 0.28557 0.46469 0.10034 0.0
H168 H 0.34087 0.47763 0.08511 0.0
H169 H 0.33188 0.52542 0.09697 0.0
C170 C 0.8146 0.19371 0.50458 0.0
C171 C 0.78454 0.1977 0.52348 0.0
C172 C 0.86031 0.23243 0.50024 0.0
C173 C 0.87598 0.27613 0.51499 0.0
C174 C 0.84756 0.27887 0.53601 0.0
C175 C 0.80218 0.23946 0.54011 0.0
C176 C 0.89001 0.22785 0.47803 0.0
C177 C 0.86301 0.32475 0.55227 0.0
C178 C 0.00292 0.37818 0.50659 0.0
C179 C 0.99559 0.40328 0.48371 0.0
C180 C 0.96431 0.33673 0.51732 0.0
C181 C 0.91753 0.32057 0.50495 0.0
C182 C 0.90997 0.34653 0.48228 0.0
C183 C 0.94912 0.38745 0.4719 0.0
C184 C 0.97361 0.30981 0.54144 0.0
C185 C 0.86051 0.33088 0.46876 0.0
H186 H 0.80149 0.16125 0.49198 0.0
H187 H 0.77938 0.24268 0.55502 0.0
H188 H 0.8889 0.2476 0.45846 0.0
H189 H 0.928 0.24389 0.48605 0.0
H190 H 0.87659 0.18991 0.47195 0.0
H191 H 0.84123 0.31873 0.57109 0.0
H192 H 0.9013 0.34161 0.55976 0.0
H193 H 0.85885 0.35046 0.53779 0.0
H194 H 0.03895 0.3904 0.51565 0.0
H195 H 0.94337 0.40735 0.45453 0.0
H196 H 0.96465 0.27378 0.53372 0.0
H197 H 0.95029 0.30446 0.5593 0.0
H198 H 0.01156 0.32874 0.54989 0.0
H199 H 0.84532 0.29472 0.45905 0.0
H200 H 0.86072 0.35584 0.45184 0.0
H201 H 0.83623 0.32848 0.48539 0.0
C202 C 0.55534 0.72935 0.79326 0.0
C203 C 0.57423 0.70889 0.81316 0.0
C204 C 0.567 0.77738 0.7957 0.0
C205 C 0.59824 0.80589 0.81872 0.0
C206 C 0.61732 0.78549 0.83902 0.0
C207 C 0.60526 0.73726 0.83594 0.0
C208 C 0.54603 0.79771 0.77344 0.0
C209 C 0.65032 0.81456 0.864 0.0
C210 C 0.65756 0.93761 0.80088 0.0
C211 C 0.62556 0.95046 0.81144 0.0
C212 C 0.65123 0.89155 0.80501 0.0
C213 C 0.61214 0.8575 0.82034 0.0
C214 C 0.5825 0.87172 0.83347 0.0
C215 C 0.58948 0.91812 0.82879 0.0
C216 C 0.6839 0.87822 0.79074 0.0
C217 C 0.54108 0.83683 0.85053 0.0
H218 H 0.53124 0.70777 0.77565 0.0
H219 H 0.61967 0.72164 0.8516 0.0
H220 H 0.52531 0.81159 0.78395 0.0
H221 H 0.57525 0.82823 0.76245 0.0
H222 H 0.52204 0.77071 0.757 0.0
H223 H 0.66092 0.79303 0.87843 0.0
H224 H 0.68317 0.84533 0.85601 0.0
H225 H 0.63259 0.82946 0.87666 0.0
H226 H 0.68608 0.96289 0.7879 0.0
H227 H 0.56472 0.92789 0.83707 0.0
H228 H 0.6641 0.85435 0.77209 0.0
H229 H 0.69564 0.85831 0.80573 0.0
H230 H 0.71613 0.91016 0.78299 0.0
H231 H 0.51152 0.81149 0.83562 0.0
H232 H 0.52724 0.85531 0.86356 0.0
H233 H 0.55177 0.81547 0.86499 0.0
C234 C 0.8018 0.45866 0.13122 0.0
C235 C 0.84025 0.47605 0.15185 0.0
C236 C 0.76391 0.46803 0.13334 0.0
C237 C 0.76401 0.49511 0.15688 0.0
C238 C 0.80262 0.51271 0.17787 0.0
C239 C 0.84045 0.50322 0.17503 0.0
C240 C 0.72384 0.44912 0.11022 0.0
C241 C 0.80383 0.54132 0.20339 0.0
C242 C 0.68721 0.55258 0.14069 0.0
C243 C 0.64284 0.5177 0.1504 0.0
C244 C 0.72788 0.54727 0.14434 0.0
C245 C 0.72441 0.50634 0.15846 0.0
C246 C 0.68086 0.47325 0.17068 0.0
C247 C 0.64043 0.47923 0.16642 0.0
C248 C 0.77337 0.58344 0.1309 0.0
C249 C 0.67592 0.42962 0.18638 0.0
H250 H 0.80128 0.43766 0.11323 0.0
H251 H 0.8698 0.51645 0.19121 0.0
H252 H 0.68913 0.42543 0.1198 0.0
H253 H 0.72127 0.47929 0.09992 0.0
H254 H 0.72908 0.42863 0.09334 0.0
H255 H 0.83583 0.55155 0.21816 0.0
H256 H 0.80383 0.57437 0.19604 0.0
H257 H 0.7712 0.52024 0.21549 0.0
H258 H 0.6894 0.5828 0.12865 0.0
H259 H 0.60627 0.45214 0.17395 0.0
H260 H 0.77898 0.56701 0.11193 0.0
H261 H 0.80481 0.59427 0.14618 0.0
H262 H 0.77207 0.61601 0.12381 0.0
H263 H 0.67432 0.40342 0.17069 0.0
H264 H 0.64295 0.41195 0.19858 0.0
H265 H 0.70743 0.43931 0.20145 0.0
C266 C 0.38505 0.84079 0.48435 0.0
C267 C 0.41752 0.82638 0.47673 0.0
C268 C 0.3367 0.80708 0.4876 0.0
C269 C 0.32074 0.75786 0.48348 0.0
C270 C 0.35312 0.74324 0.47513 0.0
C271 C 0.40105 0.77773 0.47165 0.0
C272 C 0.303 0.82398 0.49615 0.0
C273 C 0.33753 0.691 0.47081 0.0
C274 C 0.2136 0.66265 0.52099 0.0
C275 C 0.17861 0.64458 0.49836 0.0
C276 C 0.25956 0.70099 0.51671 0.0
C277 C 0.27073 0.72121 0.48904 0.0
C278 C 0.235 0.70388 0.4663 0.0
C279 C 0.18934 0.66549 0.47122 0.0
C280 C 0.29675 0.71837 0.54148 0.0
C281 C 0.24558 0.72451 0.43653 0.0
H282 H 0.39755 0.87839 0.48818 0.0
H283 H 0.42599 0.76631 0.4659 0.0
H284 H 0.27107 0.80971 0.48093 0.0
H285 H 0.29016 0.81009 0.51772 0.0
H286 H 0.32032 0.86365 0.49671 0.0
H287 H 0.36676 0.68573 0.46342 0.0
H288 H 0.32546 0.67152 0.49127 0.0
H289 H 0.30669 0.6745 0.45483 0.0
H290 H 0.20536 0.64581 0.54184 0.0
H291 H 0.16233 0.65083 0.45366 0.0
H292 H 0.31349 0.75773 0.54407 0.0
H293 H 0.32563 0.71052 0.53699 0.0
H294 H 0.28137 0.70114 0.56203 0.0
H295 H 0.26227 0.76407 0.43743 0.0
H296 H 0.21283 0.70995 0.42192 0.0
H297 H 0.27156 0.71619 0.42725 0.0
C298 C 0.5931 0.35767 0.82679 0.0
C299 C 0.62906 0.38904 0.84659 0.0
C300 C 0.58376 0.31036 0.82338 0.0
C301 C 0.61141 0.29427 0.83991 0.0
C302 C 0.64801 0.32597 0.85971 0.0
C303 C 0.65618 0.37276 0.86291 0.0
C304 C 0.54418 0.27752 0.80221 0.0
C305 C 0.67869 0.3105 0.87751 0.0
C306 C 0.56366 0.16111 0.85218 0.0
C307 C 0.5884 0.15059 0.8325 0.0
C308 C 0.57025 0.20752 0.85453 0.0
C309 C 0.60223 0.24431 0.83666 0.0
C310 C 0.62664 0.23366 0.81635 0.0
C311 C 0.61903 0.18682 0.8143 0.0
C312 C 0.54316 0.21725 0.87625 0.0
C313 C 0.66119 0.27186 0.79699 0.0
H314 H 0.57195 0.36993 0.81413 0.0
H315 H 0.68428 0.39679 0.87813 0.0
H316 H 0.55886 0.26461 0.78588 0.0
H317 H 0.51721 0.24556 0.81345 0.0
H318 H 0.52588 0.29541 0.79105 0.0
H319 H 0.7062 0.33973 0.89162 0.0
H320 H 0.65586 0.27969 0.89111 0.0
H321 H 0.69705 0.2984 0.86327 0.0
H322 H 0.53907 0.13291 0.86578 0.0
H323 H 0.63731 0.17859 0.79855 0.0
H324 H 0.5221 0.23249 0.86544 0.0
H325 H 0.56875 0.24415 0.8922 0.0
H326 H 0.51841 0.18441 0.88783 0.0
H327 H 0.64275 0.28806 0.78418 0.0
H328 H 0.67681 0.25761 0.78207 0.0
H329 H 0.69078 0.30095 0.81013 0.0
C330 C 0.6679 0.8687 0.52758 0.0
C331 C 0.63973 0.87364 0.50516 0.0
C332 C 0.67479 0.82889 0.52867 0.0
C333 C 0.65328 0.79362 0.50671 0.0
C334 C 0.62826 0.80056 0.48284 0.0
C335 C 0.62161 0.84045 0.48241 0.0
C336 C 0.70192 0.82274 0.55444 0.0
C337 C 0.60542 0.76413 0.45881 0.0
C338 C 0.6858 0.69498 0.50841 0.0
C339 C 0.64925 0.66027 0.5245 0.0
C340 C 0.68702 0.73833 0.50154 0.0
C341 C 0.65072 0.74658 0.51095 0.0
C342 C 0.61247 0.71043 0.52592 0.0
C343 C 0.61227 0.66772 0.53253 0.0
C344 C 0.72816 0.776 0.48542 0.0
C345 C 0.57271 0.71756 0.53604 0.0
H346 H 0.68228 0.8944 0.54513 0.0
H347 H 0.60042 0.8445 0.46476 0.0
H348 H 0.67645 0.79335 0.56798 0.0
H349 H 0.7281 0.81258 0.54759 0.0
H350 H 0.72129 0.85582 0.56777 0.0
H351 H 0.5942 0.77843 0.43982 0.0
H352 H 0.63044 0.75234 0.45209 0.0
H353 H 0.57329 0.73206 0.46644 0.0
H354 H 0.71447 0.6891 0.50236 0.0
H355 H 0.58378 0.64048 0.54472 0.0
H356 H 0.75191 0.80617 0.50015 0.0
H357 H 0.71485 0.79067 0.4677 0.0
H358 H 0.74979 0.76173 0.4764 0.0
H359 H 0.58767 0.74735 0.55192 0.0
H360 H 0.54448 0.68494 0.54618 0.0
H361 H 0.55584 0.72755 0.51777 0.0
C362 C 0.81095 0.56442 0.80798 0.0
C363 C 0.78802 0.57295 0.82983 0.0
C364 C 0.85877 0.57543 0.81202 0.0
C365 C 0.8839 0.59522 0.83855 0.0
C366 C 0.86243 0.60835 0.8595 0.0
C367 C 0.81455 0.59698 0.85489 0.0
C368 C 0.88069 0.56158 0.78899 0.0
C369 C 0.88844 0.63016 0.88791 0.0
C370 C 0.96313 0.54856 0.87024 0.0
C371 C 0.00891 0.58734 0.86664 0.0
C372 C 0.92234 0.55049 0.86043 0.0
C373 C 0.92755 0.5925 0.84684 0.0
C374 C 0.97379 0.63143 0.84238 0.0
C375 C 0.01421 0.62829 0.85229 0.0
C376 C 0.87362 0.50776 0.8651 0.0
C377 C 0.98053 0.67669 0.82798 0.0
H378 H 0.79091 0.54685 0.78824 0.0
H379 H 0.79725 0.60448 0.87163 0.0
H380 H 0.91865 0.58926 0.78674 0.0
H381 H 0.8799 0.52763 0.79504 0.0
H382 H 0.86078 0.55611 0.76786 0.0
H383 H 0.8702 0.64558 0.89968 0.0
H384 H 0.89004 0.60212 0.90148 0.0
H385 H 0.9258 0.65862 0.88476 0.0
H386 H 0.95929 0.51657 0.88086 0.0
H387 H 0.04984 0.65815 0.84949 0.0
H388 H 0.85247 0.49531 0.84434 0.0
H389 H 0.85358 0.51808 0.87915 0.0
H390 H 0.87606 0.47733 0.87516 0.0
H391 H 0.95714 0.6682 0.80804 0.0
H392 H 0.01828 0.70072 0.82262 0.0
H393 H 0.97006 0.69632 0.8425 0.0
C394 C 0.17656 0.73453 0.15159 0.0
C395 C 0.18721 0.70526 0.13535 0.0
C396 C 0.20972 0.7834 0.15551 0.0
C397 C 0.25502 0.80285 0.14365 0.0
C398 C 0.26497 0.77386 0.12611 0.0
C399 C 0.23061 0.72549 0.12185 0.0
C400 C 0.1972 0.81354 0.17356 0.0
C401 C 0.31319 0.79296 0.11352 0.0
C402 C 0.34489 0.9359 0.14143 0.0
C403 C 0.37518 0.94103 0.16558 0.0
C404 C 0.30401 0.89154 0.13469 0.0
C405 C 0.29404 0.8515 0.15224 0.0
C406 C 0.32366 0.85711 0.17722 0.0
C407 C 0.36352 0.90199 0.18374 0.0
C408 C 0.27244 0.88715 0.10836 0.0
C409 C 0.31461 0.81524 0.19635 0.0
H410 H 0.14274 0.71896 0.16181 0.0
H411 H 0.23903 0.70285 0.1094 0.0
H412 H 0.21732 0.82105 0.1947 0.0
H413 H 0.20766 0.84847 0.16315 0.0
H414 H 0.15833 0.79532 0.17726 0.0
H415 H 0.314 0.76682 0.09875 0.0
H416 H 0.32281 0.82651 0.10165 0.0
H417 H 0.3411 0.80164 0.13111 0.0
H418 H 0.3537 0.96627 0.12751 0.0
H419 H 0.38677 0.90622 0.20254 0.0
H420 H 0.23426 0.86858 0.11366 0.0
H421 H 0.27621 0.86523 0.09181 0.0
H422 H 0.28174 0.9226 0.09901 0.0
H423 H 0.27783 0.79822 0.204 0.0
H424 H 0.34043 0.82597 0.21532 0.0
H425 H 0.31741 0.78776 0.18398 0.0
C426 C 0.60022 0.22114 0.49799 0.0
C427 C 0.63753 0.22316 0.48296 0.0
C428 C 0.59387 0.26113 0.49954 0.0
C429 C 0.62599 0.30418 0.48603 0.0
C430 C 0.66326 0.30619 0.47044 0.0
C431 C 0.66843 0.26553 0.46897 0.0
C432 C 0.55337 0.25756 0.51608 0.0
C433 C 0.69843 0.35164 0.45596 0.0
C434 C 0.59193 0.40044 0.47209 0.0
C435 C 0.61645 0.43182 0.49519 0.0
C436 C 0.59443 0.3585 0.46886 0.0
C437 C 0.62206 0.34784 0.4893 0.0
C438 C 0.64634 0.37908 0.51291 0.0
C439 C 0.64268 0.42039 0.51578 0.0
C440 C 0.5675 0.32558 0.44367 0.0
C441 C 0.67633 0.36896 0.53506 0.0
H442 H 0.57605 0.18836 0.50867 0.0
H443 H 0.69742 0.26736 0.45735 0.0
H444 H 0.56811 0.28214 0.53488 0.0
H445 H 0.53131 0.26882 0.50242 0.0
H446 H 0.52981 0.22068 0.52381 0.0
H447 H 0.72442 0.34676 0.44388 0.0
H448 H 0.67907 0.36424 0.44092 0.0
H449 H 0.71866 0.38028 0.47229 0.0
H450 H 0.57065 0.40872 0.45659 0.0
H451 H 0.66058 0.44393 0.5341 0.0
H452 H 0.5423 0.28923 0.45141 0.0
H453 H 0.59292 0.32214 0.43025 0.0
H454 H 0.54692 0.33864 0.43 0.0
H455 H 0.65382 0.33407 0.54544 0.0
H456 H 0.69331 0.39716 0.55197 0.0
H457 H 0.70492 0.3663 0.52453 0.0
C458 C 0.37965 0.52355 0.82073 0.0
C459 C 0.41026 0.54744 0.84468 0.0
C460 C 0.33338 0.51746 0.81782 0.0
C461 C 0.31761 0.53566 0.83938 0.0
C462 C 0.34753 0.55779 0.86422 0.0
C463 C 0.39358 0.56343 0.86657 0.0
C464 C 0.30222 0.49345 0.79113 0.0
C465 C 0.33174 0.57743 0.88774 0.0
C466 C 0.22788 0.57648 0.82021 0.0
C467 C 0.18661 0.5399 0.83188 0.0
C468 C 0.27051 0.57473 0.82171 0.0
C469 C 0.27151 0.53524 0.83507 0.0
C470 C 0.22936 0.49727 0.84593 0.0
C471 C 0.18734 0.5003 0.84446 0.0
C472 C 0.31492 0.61607 0.8101 0.0
C473 C 0.2291 0.45442 0.86002 0.0
H474 H 0.3923 0.51091 0.8038 0.0
H475 H 0.41693 0.58148 0.88526 0.0
H476 H 0.26602 0.46537 0.79692 0.0
H477 H 0.29774 0.52021 0.77789 0.0
H478 H 0.31778 0.47692 0.77787 0.0
H479 H 0.3579 0.59044 0.90656 0.0
H480 H 0.32729 0.60764 0.87934 0.0
H481 H 0.29652 0.54958 0.89504 0.0
H482 H 0.22706 0.60721 0.81074 0.0
H483 H 0.15534 0.47224 0.85368 0.0
H484 H 0.33082 0.60282 0.79478 0.0
H485 H 0.34216 0.63433 0.82794 0.0
H486 H 0.30742 0.64281 0.79904 0.0
H487 H 0.24494 0.43914 0.84605 0.0
H488 H 0.19239 0.42594 0.86477 0.0
H489 H 0.25144 0.46566 0.88043 0.0
C490 C 0.82914 0.29832 0.16131 0.0
C491 C 0.8476 0.31913 0.18856 0.0
C492 C 0.78605 0.25479 0.15802 0.0
C493 C 0.76135 0.23121 0.18261 0.0
C494 C 0.78071 0.25122 0.21024 0.0
C495 C 0.82342 0.29523 0.21285 0.0
C496 C 0.76626 0.23486 0.12823 0.0
C497 C 0.75575 0.2266 0.23702 0.0
C498 C 0.62769 0.14553 0.18092 0.0
C499 C 0.62655 0.1018 0.1852 0.0
C500 C 0.67141 0.18799 0.17831 0.0
C501 C 0.71458 0.18619 0.17973 0.0
C502 C 0.713 0.14145 0.18165 0.0
C503 C 0.6689 0.09972 0.18469 0.0
C504 C 0.67164 0.23503 0.17623 0.0
C505 C 0.75811 0.13794 0.18256 0.0
H506 H 0.84742 0.31695 0.14239 0.0
H507 H 0.83768 0.31118 0.23391 0.0
H508 H 0.75816 0.19716 0.12686 0.0
H509 H 0.73213 0.23496 0.12345 0.0
H510 H 0.79143 0.25594 0.1115 0.0
H511 H 0.7764 0.24599 0.2569 0.0
H512 H 0.71995 0.2238 0.23655 0.0
H513 H 0.75006 0.18964 0.2379 0.0
H514 H 0.59479 0.14692 0.1816 0.0
H515 H 0.6677 0.06565 0.18802 0.0
H516 H 0.6946 0.25739 0.15899 0.0
H517 H 0.68689 0.2552 0.19671 0.0
H518 H 0.63507 0.22991 0.17195 0.0
H519 H 0.78175 0.16014 0.16553 0.0
H520 H 0.75025 0.10044 0.1799 0.0
H521 H 0.77822 0.15184 0.2035 0.0
C522 C 0.05467 0.47528 0.08232 0.0
C523 C 0.04735 0.50963 0.09547 0.0
C524 C 0.07026 0.48194 0.05425 0.0
C525 C 0.07608 0.52262 0.03863 0.0
C526 C 0.07066 0.55833 0.05241 0.0
C527 C 0.05728 0.55178 0.0809 0.0
C528 C 0.07794 0.44422 0.04083 0.0
C529 C 0.07499 0.60153 0.03636 0.0
C530 C 0.12849 0.56202 0.96562 0.0
C531 C 0.08664 0.54333 0.94758 0.0
C532 C 0.12613 0.55267 0.99526 0.0
C533 C 0.08087 0.52493 0.00704 0.0
C534 C 0.03896 0.50337 0.98858 0.0
C535 C 0.04251 0.51216 0.95909 0.0
C536 C 0.17178 0.5746 0.01411 0.0
C537 C 0.98983 0.4738 0.00011 0.0
H538 H 0.04716 0.44276 0.09374 0.0
H539 H 0.0511 0.57806 0.09107 0.0
H540 H 0.04687 0.42155 0.02597 0.0
H541 H 0.11032 0.46103 0.02814 0.0
H542 H 0.08185 0.42067 0.05727 0.0
H543 H 0.07231 0.6272 0.05059 0.0
H544 H 0.10961 0.62051 0.02597 0.0
H545 H 0.04607 0.58974 0.01911 0.0
H546 H 0.16279 0.58584 0.95688 0.0
H547 H 0.0102 0.49623 0.94511 0.0
H548 H 0.17112 0.54853 0.03034 0.0
H549 H 0.17528 0.60588 0.02584 0.0
H550 H 0.20386 0.58693 0.00141 0.0
H551 H 0.98839 0.44438 0.01362 0.0
H552 H 0.96109 0.45798 0.98273 0.0
H553 H 0.98219 0.49662 0.01387 0.0
C554 C 0.60018 0.05652 0.39676 0.0
C555 C 0.58686 0.01882 0.41632 0.0
C556 C 0.58931 0.04768 0.36725 0.0
C557 C 0.56471 -0.0001 0.35688 0.0
C558 C 0.5512 0.96157 0.37643 0.0
C559 C 0.56228 0.97147 0.40598 0.0
C560 C 0.60424 0.08964 0.34715 0.0
C561 C 0.52527 0.91022 0.36611 0.0
C562 C 0.50674 0.9898 0.28235 0.0
C563 C 0.54293 0.99421 0.26517 0.0
C564 C 0.51173 0.98805 0.31238 0.0
C565 C 0.55393 0.99086 0.32546 0.0
C566 C 0.58882 0.99159 0.30811 0.0
C567 C 0.58282 0.99311 0.27817 0.0
C568 C 0.47357 0.98702 0.33011 0.0
C569 C 0.63423 0.99441 0.32115 0.0
H570 H 0.61899 0.09322 0.4045 0.0
H571 H 0.5519 0.94214 0.42096 0.0
H572 H 0.62868 0.08938 0.33149 0.0
H573 H 0.57236 0.08668 0.33475 0.0
H574 H 0.6227 0.12458 0.35871 0.0
H575 H 0.51713 0.8845 0.38405 0.0
H576 H 0.49122 0.90216 0.35416 0.0
H577 H 0.54734 0.90451 0.35102 0.0
H578 H 0.47593 0.99087 0.27248 0.0
H579 H 0.6105 0.99564 0.26494 0.0
H580 H 0.48717 0.02267 0.34023 0.0
H581 H 0.46474 0.96055 0.34763 0.0
H582 H 0.44025 0.97809 0.31694 0.0
H583 H 0.65754 0.03038 0.33091 0.0
H584 H 0.65459 0.98832 0.30495 0.0
H585 H 0.62603 0.96771 0.33849 0.0
C586 C 0.64491 0.53972 0.7481 0.0
C587 C 0.60427 0.54047 0.75658 0.0
C588 C 0.65341 0.53937 0.71907 0.0
C589 C 0.62111 0.5413 0.69791 0.0
C590 C 0.57947 0.54122 0.7062 0.0
C591 C 0.57123 0.5402 0.73546 0.0
C592 C 0.69761 0.53823 0.71111 0.0
C593 C 0.5447 0.5443 0.68424 0.0
C594 C 0.66952 0.60015 0.62723 0.0
C595 C 0.64826 0.56103 0.60811 0.0
C596 C 0.66128 0.59409 0.65651 0.0
C597 C 0.63279 0.54748 0.66728 0.0
C598 C 0.6141 0.50742 0.64858 0.0
C599 C 0.62144 0.51469 0.6191 0.0
C600 C 0.68146 0.63786 0.67567 0.0
C601 C 0.5851 0.45706 0.65957 0.0
H602 H 0.67051 0.53992 0.76417 0.0
H603 H 0.53974 0.54092 0.74175 0.0
H604 H 0.6881 0.51027 0.69454 0.0
H605 H 0.72324 0.57308 0.7018 0.0
H606 H 0.71597 0.53113 0.72993 0.0
H607 H 0.51329 0.54238 0.69415 0.0
H608 H 0.56317 0.57852 0.67241 0.0
H609 H 0.53169 0.51486 0.66827 0.0
H610 H 0.69173 0.63595 0.61919 0.0
H611 H 0.60471 0.48416 0.60463 0.0
H612 H 0.70453 0.6355 0.69352 0.0
H613 H 0.65179 0.63971 0.68537 0.0
H614 H 0.70289 0.67161 0.66386 0.0
H615 H 0.60401 0.45143 0.67864 0.0
H616 H 0.57806 0.42974 0.64301 0.0
H617 H 0.55025 0.4513 0.6664 0.0
C618 C 0.62867 0.06871 0.58664 0.0
C619 C 0.59696 0.02263 0.57576 0.0
C620 C 0.63545 0.07808 0.61632 0.0
C621 C 0.6096 0.0405 0.63556 0.0
C622 C 0.57648 0.99425 0.62469 0.0
C623 C 0.57069 0.98586 0.59498 0.0
C624 C 0.67113 0.12784 0.62711 0.0
C625 C 0.54798 0.95322 0.64448 0.0
C626 C 0.65772 0.04043 0.71165 0.0
C627 C 0.62794 0.05002 0.72768 0.0
C628 C 0.65352 0.03931 0.68159 0.0
C629 C 0.61891 0.04837 0.66714 0.0
C630 C 0.59062 0.06083 0.68314 0.0
C631 C 0.59544 0.06147 0.71328 0.0
C632 C 0.6845 0.02601 0.66538 0.0
C633 C 0.55351 0.07098 0.66851 0.0
H634 H 0.64894 0.09729 0.572 0.0
H635 H 0.5458 0.95018 0.58684 0.0
H636 H 0.65391 0.14099 0.64152 0.0
H637 H 0.70091 0.127 0.63989 0.0
H638 H 0.6864 0.15371 0.60934 0.0
H639 H 0.52199 0.92005 0.63255 0.0
H640 H 0.57263 0.94543 0.65821 0.0
H641 H 0.52808 0.96308 0.65892 0.0
H642 H 0.6835 0.0324 0.7227 0.0
H643 H 0.57214 0.06866 0.72555 0.0
H644 H 0.70266 0.05269 0.64845 0.0
H645 H 0.66175 0.99082 0.65457 0.0
H646 H 0.71212 0.02363 0.67966 0.0
H647 H 0.56925 0.09706 0.65093 0.0
H648 H 0.53831 0.08528 0.68369 0.0
H649 H 0.52386 0.03748 0.65872 0.0
C650 C 0.599 0.52018 0.93714 0.0
C651 C 0.57372 0.53365 0.91705 0.0
C652 C 0.59095 0.51794 0.96648 0.0
C653 C 0.55705 0.52971 0.97595 0.0
C654 C 0.53092 0.54262 0.95581 0.0
C655 C 0.53944 0.54425 0.92662 0.0
C656 C 0.61925 0.50364 0.98741 0.0
C657 C 0.49473 0.55572 0.96513 0.0
C658 C 0.51438 0.48791 0.05063 0.0
C659 C 0.54641 0.52818 0.06707 0.0
C660 C 0.51619 0.48833 0.02067 0.0
C661 C 0.55045 0.53026 0.0071 0.0
C662 C 0.58082 0.57193 0.02362 0.0
C663 C 0.57879 0.57019 0.05353 0.0
C664 C 0.48355 0.4431 0.00378 0.0
C665 C 0.61715 0.61759 0.00988 0.0
H666 H 0.62535 0.51168 0.92999 0.0
H667 H 0.51954 0.5545 0.91134 0.0
H668 H 0.64198 0.53376 0.00241 0.0
H669 H 0.59457 0.47295 0.00048 0.0
H670 H 0.64266 0.49351 0.97646 0.0
H671 H 0.47615 0.56329 0.94663 0.0
H672 H 0.46749 0.52628 0.97781 0.0
H673 H 0.51289 0.58789 0.97924 0.0
H674 H 0.48991 0.4553 0.06136 0.0
H675 H 0.6037 0.6011 0.0665 0.0
H676 H 0.50514 0.42864 0.99501 0.0
H677 H 0.46514 0.45078 0.98529 0.0
H678 H 0.45611 0.4151 0.01716 0.0
H679 H 0.64532 0.61209 0.00106 0.0
H680 H 0.63459 0.64799 0.02538 0.0
H681 H 0.59989 0.6274 0.99173 0.0
C682 C 0.01588 0.48364 0.26186 0.0
C683 C 0.05638 0.50566 0.24549 0.0
C684 C 0.02058 0.48182 0.29193 0.0
C685 C 0.06684 0.50179 0.30588 0.0
C686 C 0.10778 0.52312 0.28943 0.0
C687 C 0.10207 0.52509 0.25949 0.0
C688 C 0.9761 0.45921 0.30881 0.0
C689 C 0.15766 0.54406 0.30346 0.0
C690 C 0.08087 0.53661 0.3846 0.0
C691 C 0.07859 0.49624 0.39815 0.0
C692 C 0.07752 0.5391 0.35455 0.0
C693 C 0.07242 0.50057 0.33772 0.0
C694 C 0.07186 0.46051 0.35133 0.0
C695 C 0.07463 0.4587 0.3814 0.0
C696 C 0.07794 0.58229 0.34083 0.0
C697 C 0.06748 0.41918 0.33416 0.0
H698 H 0.98049 0.46877 0.25124 0.0
H699 H 0.13359 0.54182 0.24701 0.0
H700 H 0.97458 0.4292 0.32179 0.0
H701 H 0.97725 0.48587 0.32398 0.0
H702 H 0.94277 0.44537 0.29476 0.0
H703 H 0.1857 0.55814 0.28753 0.0
H704 H 0.16466 0.57364 0.31823 0.0
H705 H 0.16089 0.51643 0.31652 0.0
H706 H 0.0835 0.56547 0.39755 0.0
H707 H 0.07333 0.42767 0.39189 0.0
H708 H 0.04339 0.57106 0.32852 0.0
H709 H 0.10664 0.59884 0.32542 0.0
H710 H 0.08359 0.6098 0.3569 0.0
H711 H 0.03249 0.4015 0.32173 0.0
H712 H 0.07029 0.39199 0.348 0.0
H713 H 0.09585 0.4324 0.31851 0.0
loop_
_geom_bond_atom_site_label_1
_geom_bond_atom_site_label_2
_geom_bond_distance
_geom_bond_site_symmetry_2
_ccdc_geom_bond_type
Zn0 O6 1.969 . S
Zn0 O7 1.965 . S
Zn0 O11 2.024 . S
Zn0 O16 1.969 . S
Zn1 O8 1.969 . S
Zn1 O14 1.969 . S
Zn1 O15 1.965 . S
Zn1 O17 2.024 . S
C2 O3 1.229 . S
C2 O11 1.058 . S
O3 C2 1.229 . S
C4 O5 1.229 . S
C4 O17 1.058 . S
O5 C4 1.229 . S
O6 Zn0 1.969 . S
O6 C9 1.267 . S
O7 Zn0 1.965 . S
O7 C18 1.260 . S
O8 Zn1 1.969 . S
O8 C18 1.258 1_655 S
C9 O6 1.267 . S
C9 O10 1.228 . S
O10 C9 1.228 . S
O11 Zn0 2.024 . S
O11 C2 1.058 . S
C12 O13 1.228 . S
C12 O14 1.267 . S
O13 C12 1.228 . S
O14 Zn1 1.969 . S
O14 C12 1.267 . S
O15 Zn1 1.965 . S
O15 C19 1.260 1_655 S
O16 Zn0 1.969 . S
O16 C19 1.258 . S
O17 Zn1 2.024 . S
O17 C4 1.058 . S
C18 O7 1.260 . S
C18 O8 1.258 1_455 S
C19 O15 1.260 1_455 S
C19 O16 1.258 . S
Zn20 O26 1.969 . S
Zn20 O27 1.965 . S
Zn20 O31 2.024 . S
Zn20 O36 1.969 . S
Zn21 O28 1.969 . S
Zn21 O34 1.969 . S
Zn21 O35 1.965 1_565 S
Zn21 O37 2.024 . S
C22 O23 1.229 . S
C22 O31 1.058 . S
O23 C22 1.229 . S
C24 O25 1.229 . S
C24 O37 1.058 . S
O25 C24 1.229 . S
O26 Zn20 1.969 . S
O26 C29 1.267 . S
O27 Zn20 1.965 . S
O27 C38 1.260 . S
O28 Zn21 1.969 . S
O28 C38 1.258 1_565 S
C29 O26 1.267 . S
C29 O30 1.228 . S
O30 C29 1.228 . S
O31 Zn20 2.024 . S
O31 C22 1.058 . S
C32 O33 1.228 . S
C32 O34 1.267 . S
O33 C32 1.228 . S
O34 Zn21 1.969 . S
O34 C32 1.267 . S
O35 Zn21 1.965 1_545 S
O35 C39 1.260 . S
O36 Zn20 1.969 . S
O36 C39 1.258 . S
O37 Zn21 2.024 . S
O37 C24 1.058 . S
C38 O27 1.260 . S
C38 O28 1.258 1_545 S
C39 O35 1.260 . S
C39 O36 1.258 . S
Zn40 O46 1.969 . S
Zn40 O47 1.965 . S
Zn40 O51 2.024 . S
Zn40 O56 1.969 . S
Zn41 O48 1.969 . S
Zn41 O54 1.969 . S
Zn41 O55 1.965 . S
Zn41 O57 2.024 . S
C42 O43 1.229 . S
C42 O51 1.058 . S
O43 C42 1.229 . S
C44 O45 1.229 . S
C44 O57 1.058 . S
O45 C44 1.229 . S
O46 Zn40 1.969 . S
O46 C49 1.267 . S
O47 Zn40 1.965 . S
O47 C58 1.260 . S
O48 Zn41 1.969 . S
O48 C58 1.258 . S
C49 O46 1.267 . S
C49 O50 1.228 . S
O50 C49 1.228 . S
O51 Zn40 2.024 . S
O51 C42 1.058 . S
C52 O53 1.228 . S
C52 O54 1.267 . S
O53 C52 1.228 . S
O54 Zn41 1.969 . S
O54 C52 1.267 . S
O55 Zn41 1.965 . S
O55 C59 1.260 . S
O56 Zn40 1.969 . S
O56 C59 1.258 . S
O57 Zn41 2.024 . S
O57 C44 1.058 . S
C58 O47 1.260 . S
C58 O48 1.258 . S
C59 O55 1.260 . S
C59 O56 1.258 . S
H60 C67 0.929 . S
H61 C70 0.930 1_565 S
H62 C72 0.929 . S
H63 C64 0.969 . S
C64 H63 0.969 . S
C64 O65 1.550 . S
C64 H66 0.973 . S
O65 C64 1.550 . S
O65 C71 1.412 1_565 S
H66 C64 0.973 . S
C67 H60 0.929 . S
C67 C68 1.400 . S
C67 C69 1.364 . S
C68 C67 1.400 . S
C68 C72 1.377 . S
C69 C67 1.364 . S
C69 C70 1.374 . S
C70 H61 0.930 1_545 S
C70 C69 1.374 . S
C70 C71 1.383 . S
C71 O65 1.412 1_545 S
C71 C70 1.383 . S
C71 C72 1.394 . S
C72 H62 0.929 . S
C72 C68 1.377 . S
C72 C71 1.394 . S
H73 C80 0.929 . S
H74 C83 0.930 . S
H75 C85 0.929 . S
H76 C77 0.969 . S
C77 H76 0.969 . S
C77 O78 1.550 . S
C77 H79 0.973 . S
O78 C77 1.550 . S
O78 C84 1.412 . S
H79 C77 0.973 . S
C80 H73 0.929 . S
C80 C81 1.400 . S
C80 C82 1.364 . S
C81 C80 1.400 . S
C81 C85 1.377 . S
C82 C80 1.364 . S
C82 C83 1.374 . S
C83 H74 0.930 . S
C83 C82 1.374 . S
C83 C84 1.383 . S
C84 O78 1.412 . S
C84 C83 1.383 . S
C84 C85 1.394 . S
C85 H75 0.929 . S
C85 C81 1.377 . S
C85 C84 1.394 . S
H86 C93 0.929 . S
H87 C96 0.930 . S
H88 C98 0.929 . S
H89 C90 0.969 . S
C90 H89 0.969 . S
C90 O91 1.550 . S
C90 H92 0.973 . S
O91 C90 1.550 . S
O91 C97 1.412 . S
H92 C90 0.973 . S
C93 H86 0.929 . S
C93 C94 1.400 . S
C93 C95 1.364 . S
C94 C93 1.400 . S
C94 C98 1.377 . S
C95 C93 1.364 . S
C95 C96 1.374 . S
C96 H87 0.930 . S
C96 C95 1.374 . S
C96 C97 1.383 . S
C97 O91 1.412 . S
C97 C96 1.383 . S
C97 C98 1.394 . S
C98 H88 0.929 . S
C98 C94 1.377 . S
C98 C97 1.394 . S
H99 C106 0.929 . S
H100 C109 0.930 . S
H101 C111 0.929 . S
H102 C103 0.969 . S
C103 H102 0.969 . S
C103 O104 1.550 . S
C103 H105 0.973 . S
O104 C103 1.550 . S
O104 C110 1.412 . S
H105 C103 0.973 . S
C106 H99 0.929 . S
C106 C107 1.400 . S
C106 C108 1.364 . S
C107 C106 1.400 . S
C107 C111 1.377 . S
C108 C106 1.364 . S
C108 C109 1.374 . S
C109 H100 0.930 . S
C109 C108 1.374 . S
C109 C110 1.383 . S
C110 O104 1.412 . S
C110 C109 1.383 . S
C110 C111 1.394 . S
C111 H101 0.929 . S
C111 C107 1.377 . S
C111 C110 1.394 . S
H112 C119 0.929 . S
H113 C122 0.930 . S
H114 C124 0.929 . S
H115 C116 0.969 . S
C116 H115 0.969 . S
C116 O117 1.550 . S
C116 H118 0.973 . S
O117 C116 1.550 . S
O117 C123 1.412 . S
H118 C116 0.973 . S
C119 H112 0.929 . S
C119 C120 1.400 . S
C119 C121 1.364 1_565 S
C120 C119 1.400 . S
C120 C124 1.377 1_565 S
C121 C119 1.364 1_545 S
C121 C122 1.374 . S
C122 H113 0.930 . S
C122 C121 1.374 . S
C122 C123 1.383 . S
C123 O117 1.412 . S
C123 C122 1.383 . S
C123 C124 1.394 . S
C124 H114 0.929 . S
C124 C120 1.377 1_545 S
C124 C123 1.394 . S
H125 C132 0.929 . S
H126 C135 0.930 . S
H127 C137 0.929 . S
H128 C129 0.969 . S
C129 H128 0.969 . S
C129 O130 1.550 . S
C129 H131 0.973 . S
O130 C129 1.550 . S
O130 C136 1.412 . S
H131 C129 0.973 . S
C132 H125 0.929 . S
C132 C133 1.400 . S
C132 C134 1.364 . S
C133 C132 1.400 . S
C133 C137 1.377 . S
C134 C132 1.364 . S
C134 C135 1.374 . S
C135 H126 0.930 . S
C135 C134 1.374 . S
C135 C136 1.383 . S
C136 O130 1.412 . S
C136 C135 1.383 . S
C136 C137 1.394 . S
C137 H127 0.929 . S
C137 C133 1.377 . S
C137 C136 1.394 . S
C138 C139 1.391 . S
C138 C140 1.394 . S
C138 H154 0.931 . S
C139 C138 1.391 . S
C139 C143 1.376 . S
C140 C138 1.394 . S
C140 C141 1.369 . S
C140 C144 1.531 . S
C141 C140 1.369 . S
C141 C142 1.410 . S
C141 C149 1.503 . S
C142 C141 1.410 . S
C142 C143 1.392 . S
C142 C145 1.511 . S
C143 C139 1.376 . S
C143 C142 1.392 . S
C143 H155 0.929 . S
C144 C140 1.531 . S
C144 H156 0.960 . S
C144 H157 0.962 . S
C144 H158 0.960 . S
C145 C142 1.511 . S
C145 H159 0.961 . S
C145 H160 0.961 . S
C145 H161 0.961 . S
C146 C147 1.370 . S
C146 C148 1.363 . S
C146 H162 0.931 . S
C147 C146 1.370 . S
C147 C151 1.408 . S
C148 C146 1.363 . S
C148 C149 1.370 . S
C148 C152 1.524 . S
C149 C141 1.503 . S
C149 C148 1.370 . S
C149 C150 1.403 . S
C150 C149 1.403 . S
C150 C151 1.404 . S
C150 C153 1.539 . S
C151 C147 1.408 . S
C151 C150 1.404 . S
C151 H163 0.930 . S
C152 C148 1.524 . S
C152 H164 0.956 . S
C152 H165 0.961 . S
C152 H166 0.961 . S
C153 C150 1.539 . S
C153 H167 0.958 . S
C153 H168 0.961 . S
C153 H169 0.960 . S
H154 C138 0.931 . S
H155 C143 0.929 . S
H156 C144 0.960 . S
H157 C144 0.962 . S
H158 C144 0.960 . S
H159 C145 0.961 . S
H160 C145 0.961 . S
H161 C145 0.961 . S
H162 C146 0.931 . S
H163 C151 0.930 . S
H164 C152 0.956 . S
H165 C152 0.961 . S
H166 C152 0.961 . S
H167 C153 0.958 . S
H168 C153 0.961 . S
H169 C153 0.960 . S
C170 C171 1.391 . S
C170 C172 1.394 . S
C170 H186 0.931 . S
C171 C170 1.391 . S
C171 C175 1.376 . S
C172 C170 1.394 . S
C172 C173 1.369 . S
C172 C176 1.531 . S
C173 C172 1.369 . S
C173 C174 1.410 . S
C173 C181 1.503 . S
C174 C173 1.410 . S
C174 C175 1.392 . S
C174 C177 1.511 . S
C175 C171 1.376 . S
C175 C174 1.392 . S
C175 H187 0.929 . S
C176 C172 1.531 . S
C176 H188 0.960 . S
C176 H189 0.962 . S
C176 H190 0.960 . S
C177 C174 1.511 . S
C177 H191 0.961 . S
C177 H192 0.961 . S
C177 H193 0.961 . S
C178 C179 1.370 . S
C178 C180 1.363 . S
C178 H194 0.931 1_655 S
C179 C178 1.370 . S
C179 C183 1.408 . S
C180 C178 1.363 . S
C180 C181 1.370 . S
C180 C184 1.524 . S
C181 C173 1.503 . S
C181 C180 1.370 . S
C181 C182 1.403 . S
C182 C181 1.403 . S
C182 C183 1.404 . S
C182 C185 1.539 . S
C183 C179 1.408 . S
C183 C182 1.404 . S
C183 H195 0.930 . S
C184 C180 1.524 . S
C184 H196 0.956 . S
C184 H197 0.961 . S
C184 H198 0.961 . S
C185 C182 1.539 . S
C185 H199 0.958 . S
C185 H200 0.961 . S
C185 H201 0.960 . S
H186 C170 0.931 . S
H187 C175 0.929 . S
H188 C176 0.960 . S
H189 C176 0.962 . S
H190 C176 0.960 . S
H191 C177 0.961 . S
H192 C177 0.961 . S
H193 C177 0.961 . S
H194 C178 0.931 1_455 S
H195 C183 0.930 . S
H196 C184 0.956 . S
H197 C184 0.961 . S
H198 C184 0.961 . S
H199 C185 0.958 . S
H200 C185 0.961 . S
H201 C185 0.960 . S
C202 C203 1.391 . S
C202 C204 1.394 . S
C202 H218 0.931 . S
C203 C202 1.391 . S
C203 C207 1.376 . S
C204 C202 1.394 . S
C204 C205 1.369 . S
C204 C208 1.531 . S
C205 C204 1.369 . S
C205 C206 1.410 . S
C205 C213 1.503 . S
C206 C205 1.410 . S
C206 C207 1.392 . S
C206 C209 1.511 . S
C207 C203 1.376 . S
C207 C206 1.392 . S
C207 H219 0.929 . S
C208 C204 1.531 . S
C208 H220 0.960 . S
C208 H221 0.962 . S
C208 H222 0.960 . S
C209 C206 1.511 . S
C209 H223 0.961 . S
C209 H224 0.961 . S
C209 H225 0.961 . S
C210 C211 1.370 . S
C210 C212 1.363 . S
C210 H226 0.931 . S
C211 C210 1.370 . S
C211 C215 1.408 . S
C212 C210 1.363 . S
C212 C213 1.370 . S
C212 C216 1.524 . S
C213 C205 1.503 . S
C213 C212 1.370 . S
C213 C214 1.403 . S
C214 C213 1.403 . S
C214 C215 1.404 . S
C214 C217 1.539 . S
C215 C211 1.408 . S
C215 C214 1.404 . S
C215 H227 0.930 . S
C216 C212 1.524 . S
C216 H228 0.956 . S
C216 H229 0.961 . S
C216 H230 0.961 . S
C217 C214 1.539 . S
C217 H231 0.958 . S
C217 H232 0.961 . S
C217 H233 0.960 . S
H218 C202 0.931 . S
H219 C207 0.929 . S
H220 C208 0.960 . S
H221 C208 0.962 . S
H222 C208 0.960 . S
H223 C209 0.961 . S
H224 C209 0.961 . S
H225 C209 0.961 . S
H226 C210 0.931 . S
H227 C215 0.930 . S
H228 C216 0.956 . S
H229 C216 0.961 . S
H230 C216 0.961 . S
H231 C217 0.958 . S
H232 C217 0.961 . S
H233 C217 0.960 . S
C234 C235 1.391 . S
C234 C236 1.394 . S
C234 H250 0.931 . S
C235 C234 1.391 . S
C235 C239 1.376 . S
C236 C234 1.394 . S
C236 C237 1.369 . S
C236 C240 1.531 . S
C237 C236 1.369 . S
C237 C238 1.410 . S
C237 C245 1.503 . S
C238 C237 1.410 . S
C238 C239 1.392 . S
C238 C241 1.511 . S
C239 C235 1.376 . S
C239 C238 1.392 . S
C239 H251 0.929 . S
C240 C236 1.531 . S
C240 H252 0.960 . S
C240 H253 0.962 . S
C240 H254 0.960 . S
C241 C238 1.511 . S
C241 H255 0.961 . S
C241 H256 0.961 . S
C241 H257 0.961 . S
C242 C243 1.370 . S
C242 C244 1.363 . S
C242 H258 0.931 . S
C243 C242 1.370 . S
C243 C247 1.408 . S
C244 C242 1.363 . S
C244 C245 1.370 . S
C244 C248 1.524 . S
C245 C237 1.503 . S
C245 C244 1.370 . S
C245 C246 1.403 . S
C246 C245 1.403 . S
C246 C247 1.404 . S
C246 C249 1.539 . S
C247 C243 1.408 . S
C247 C246 1.404 . S
C247 H259 0.930 . S
C248 C244 1.524 . S
C248 H260 0.956 . S
C248 H261 0.961 . S
C248 H262 0.961 . S
C249 C246 1.539 . S
C249 H263 0.958 . S
C249 H264 0.961 . S
C249 H265 0.960 . S
H250 C234 0.931 . S
H251 C239 0.929 . S
H252 C240 0.960 . S
H253 C240 0.962 . S
H254 C240 0.960 . S
H255 C241 0.961 . S
H256 C241 0.961 . S
H257 C241 0.961 . S
H258 C242 0.931 . S
H259 C247 0.930 . S
H260 C248 0.956 . S
H261 C248 0.961 . S
H262 C248 0.961 . S
H263 C249 0.958 . S
H264 C249 0.961 . S
H265 C249 0.960 . S
C266 C267 1.391 . S
C266 C268 1.394 . S
C266 H282 0.931 . S
C267 C266 1.391 . S
C267 C271 1.376 . S
C268 C266 1.394 . S
C268 C269 1.369 . S
C268 C272 1.531 . S
C269 C268 1.369 . S
C269 C270 1.410 . S
C269 C277 1.503 . S
C270 C269 1.410 . S
C270 C271 1.392 . S
C270 C273 1.511 . S
C271 C267 1.376 . S
C271 C270 1.392 . S
C271 H283 0.929 . S
C272 C268 1.531 . S
C272 H284 0.960 . S
C272 H285 0.962 . S
C272 H286 0.960 . S
C273 C270 1.511 . S
C273 H287 0.961 . S
C273 H288 0.961 . S
C273 H289 0.961 . S
C274 C275 1.370 . S
C274 C276 1.363 . S
C274 H290 0.931 . S
C275 C274 1.370 . S
C275 C279 1.408 . S
C276 C274 1.363 . S
C276 C277 1.370 . S
C276 C280 1.524 . S
C277 C269 1.503 . S
C277 C276 1.370 . S
C277 C278 1.403 . S
C278 C277 1.403 . S
C278 C279 1.404 . S
C278 C281 1.539 . S
C279 C275 1.408 . S
C279 C278 1.404 . S
C279 H291 0.930 . S
C280 C276 1.524 . S
C280 H292 0.956 . S
C280 H293 0.961 . S
C280 H294 0.961 . S
C281 C278 1.539 . S
C281 H295 0.958 . S
C281 H296 0.961 . S
C281 H297 0.960 . S
H282 C266 0.931 . S
H283 C271 0.929 . S
H284 C272 0.960 . S
H285 C272 0.962 . S
H286 C272 0.960 . S
H287 C273 0.961 . S
H288 C273 0.961 . S
H289 C273 0.961 . S
H290 C274 0.931 . S
H291 C279 0.930 . S
H292 C280 0.956 . S
H293 C280 0.961 . S
H294 C280 0.961 . S
H295 C281 0.958 . S
H296 C281 0.961 . S
H297 C281 0.960 . S
C298 C299 1.391 . S
C298 C300 1.394 . S
C298 H314 0.931 . S
C299 C298 1.391 . S
C299 C303 1.376 . S
C300 C298 1.394 . S
C300 C301 1.369 . S
C300 C304 1.531 . S
C301 C300 1.369 . S
C301 C302 1.410 . S
C301 C309 1.503 . S
C302 C301 1.410 . S
C302 C303 1.392 . S
C302 C305 1.511 . S
C303 C299 1.376 . S
C303 C302 1.392 . S
C303 H315 0.929 . S
C304 C300 1.531 . S
C304 H316 0.960 . S
C304 H317 0.962 . S
C304 H318 0.960 . S
C305 C302 1.511 . S
C305 H319 0.961 . S
C305 H320 0.961 . S
C305 H321 0.961 . S
C306 C307 1.370 . S
C306 C308 1.363 . S
C306 H322 0.931 . S
C307 C306 1.370 . S
C307 C311 1.408 . S
C308 C306 1.363 . S
C308 C309 1.370 . S
C308 C312 1.524 . S
C309 C301 1.503 . S
C309 C308 1.370 . S
C309 C310 1.403 . S
C310 C309 1.403 . S
C310 C311 1.404 . S
C310 C313 1.539 . S
C311 C307 1.408 . S
C311 C310 1.404 . S
C311 H323 0.930 . S
C312 C308 1.524 . S
C312 H324 0.956 . S
C312 H325 0.961 . S
C312 H326 0.961 . S
C313 C310 1.539 . S
C313 H327 0.958 . S
C313 H328 0.961 . S
C313 H329 0.960 . S
H314 C298 0.931 . S
H315 C303 0.929 . S
H316 C304 0.960 . S
H317 C304 0.962 . S
H318 C304 0.960 . S
H319 C305 0.961 . S
H320 C305 0.961 . S
H321 C305 0.961 . S
H322 C306 0.931 . S
H323 C311 0.930 . S
H324 C312 0.956 . S
H325 C312 0.961 . S
H326 C312 0.961 . S
H327 C313 0.958 . S
H328 C313 0.961 . S
H329 C313 0.960 . S
C330 C331 1.391 . S
C330 C332 1.394 . S
C330 H346 0.931 . S
C331 C330 1.391 . S
C331 C335 1.376 . S
C332 C330 1.394 . S
C332 C333 1.369 . S
C332 C336 1.531 . S
C333 C332 1.369 . S
C333 C334 1.410 . S
C333 C341 1.503 . S
C334 C333 1.410 . S
C334 C335 1.392 . S
C334 C337 1.511 . S
C335 C331 1.376 . S
C335 C334 1.392 . S
C335 H347 0.929 . S
C336 C332 1.531 . S
C336 H348 0.960 . S
C336 H349 0.962 . S
C336 H350 0.960 . S
C337 C334 1.511 . S
C337 H351 0.961 . S
C337 H352 0.961 . S
C337 H353 0.961 . S
C338 C339 1.370 . S
C338 C340 1.363 . S
C338 H354 0.931 . S
C339 C338 1.370 . S
C339 C343 1.408 . S
C340 C338 1.363 . S
C340 C341 1.370 . S
C340 C344 1.524 . S
C341 C333 1.503 . S
C341 C340 1.370 . S
C341 C342 1.403 . S
C342 C341 1.403 . S
C342 C343 1.404 . S
C342 C345 1.539 . S
C343 C339 1.408 . S
C343 C342 1.404 . S
C343 H355 0.930 . S
C344 C340 1.524 . S
C344 H356 0.956 . S
C344 H357 0.961 . S
C344 H358 0.961 . S
C345 C342 1.539 . S
C345 H359 0.958 . S
C345 H360 0.961 . S
C345 H361 0.960 . S
H346 C330 0.931 . S
H347 C335 0.929 . S
H348 C336 0.960 . S
H349 C336 0.962 . S
H350 C336 0.960 . S
H351 C337 0.961 . S
H352 C337 0.961 . S
H353 C337 0.961 . S
H354 C338 0.931 . S
H355 C343 0.930 . S
H356 C344 0.956 . S
H357 C344 0.961 . S
H358 C344 0.961 . S
H359 C345 0.958 . S
H360 C345 0.961 . S
H361 C345 0.960 . S
C362 C363 1.391 . S
C362 C364 1.394 . S
C362 H378 0.931 . S
C363 C362 1.391 . S
C363 C367 1.376 . S
C364 C362 1.394 . S
C364 C365 1.369 . S
C364 C368 1.531 . S
C365 C364 1.369 . S
C365 C366 1.410 . S
C365 C373 1.503 . S
C366 C365 1.410 . S
C366 C367 1.392 . S
C366 C369 1.511 . S
C367 C363 1.376 . S
C367 C366 1.392 . S
C367 H379 0.929 . S
C368 C364 1.531 . S
C368 H380 0.960 . S
C368 H381 0.962 . S
C368 H382 0.960 . S
C369 C366 1.511 . S
C369 H383 0.961 . S
C369 H384 0.961 . S
C369 H385 0.961 . S
C370 C371 1.370 1_655 S
C370 C372 1.363 . S
C370 H386 0.931 . S
C371 C370 1.370 1_455 S
C371 C375 1.408 . S
C372 C370 1.363 . S
C372 C373 1.370 . S
C372 C376 1.524 . S
C373 C365 1.503 . S
C373 C372 1.370 . S
C373 C374 1.403 . S
C374 C373 1.403 . S
C374 C375 1.404 1_655 S
C374 C377 1.539 . S
C375 C371 1.408 . S
C375 C374 1.404 1_455 S
C375 H387 0.930 . S
C376 C372 1.524 . S
C376 H388 0.956 . S
C376 H389 0.961 . S
C376 H390 0.961 . S
C377 C374 1.539 . S
C377 H391 0.958 . S
C377 H392 0.961 1_655 S
C377 H393 0.960 . S
H378 C362 0.931 . S
H379 C367 0.929 . S
H380 C368 0.960 . S
H381 C368 0.962 . S
H382 C368 0.960 . S
H383 C369 0.961 . S
H384 C369 0.961 . S
H385 C369 0.961 . S
H386 C370 0.931 . S
H387 C375 0.930 . S
H388 C376 0.956 . S
H389 C376 0.961 . S
H390 C376 0.961 . S
H391 C377 0.958 . S
H392 C377 0.961 1_455 S
H393 C377 0.960 . S
C394 C395 1.391 . S
C394 C396 1.394 . S
C394 H410 0.931 . S
C395 C394 1.391 . S
C395 C399 1.376 . S
C396 C394 1.394 . S
C396 C397 1.369 . S
C396 C400 1.531 . S
C397 C396 1.369 . S
C397 C398 1.410 . S
C397 C405 1.503 . S
C398 C397 1.410 . S
C398 C399 1.392 . S
C398 C401 1.511 . S
C399 C395 1.376 . S
C399 C398 1.392 . S
C399 H411 0.929 . S
C400 C396 1.531 . S
C400 H412 0.960 . S
C400 H413 0.962 . S
C400 H414 0.960 . S
C401 C398 1.511 . S
C401 H415 0.961 . S
C401 H416 0.961 . S
C401 H417 0.961 . S
C402 C403 1.370 . S
C402 C404 1.363 . S
C402 H418 0.931 . S
C403 C402 1.370 . S
C403 C407 1.408 . S
C404 C402 1.363 . S
C404 C405 1.370 . S
C404 C408 1.524 . S
C405 C397 1.503 . S
C405 C404 1.370 . S
C405 C406 1.403 . S
C406 C405 1.403 . S
C406 C407 1.404 . S
C406 C409 1.539 . S
C407 C403 1.408 . S
C407 C406 1.404 . S
C407 H419 0.930 . S
C408 C404 1.524 . S
C408 H420 0.956 . S
C408 H421 0.961 . S
C408 H422 0.961 . S
C409 C406 1.539 . S
C409 H423 0.958 . S
C409 H424 0.961 . S
C409 H425 0.960 . S
H410 C394 0.931 . S
H411 C399 0.929 . S
H412 C400 0.960 . S
H413 C400 0.962 . S
H414 C400 0.960 . S
H415 C401 0.961 . S
H416 C401 0.961 . S
H417 C401 0.961 . S
H418 C402 0.931 . S
H419 C407 0.930 . S
H420 C408 0.956 . S
H421 C408 0.961 . S
H422 C408 0.961 . S
H423 C409 0.958 . S
H424 C409 0.961 . S
H425 C409 0.960 . S
C426 C427 1.391 . S
C426 C428 1.394 . S
C426 H442 0.931 . S
C427 C426 1.391 . S
C427 C431 1.376 . S
C428 C426 1.394 . S
C428 C429 1.369 . S
C428 C432 1.531 . S
C429 C428 1.369 . S
C429 C430 1.410 . S
C429 C437 1.503 . S
C430 C429 1.410 . S
C430 C431 1.392 . S
C430 C433 1.511 . S
C431 C427 1.376 . S
C431 C430 1.392 . S
C431 H443 0.929 . S
C432 C428 1.531 . S
C432 H444 0.960 . S
C432 H445 0.962 . S
C432 H446 0.960 . S
C433 C430 1.511 . S
C433 H447 0.961 . S
C433 H448 0.961 . S
C433 H449 0.961 . S
C434 C435 1.370 . S
C434 C436 1.363 . S
C434 H450 0.931 . S
C435 C434 1.370 . S
C435 C439 1.408 . S
C436 C434 1.363 . S
C436 C437 1.370 . S
C436 C440 1.524 . S
C437 C429 1.503 . S
C437 C436 1.370 . S
C437 C438 1.403 . S
C438 C437 1.403 . S
C438 C439 1.404 . S
C438 C441 1.539 . S
C439 C435 1.408 . S
C439 C438 1.404 . S
C439 H451 0.930 . S
C440 C436 1.524 . S
C440 H452 0.956 . S
C440 H453 0.961 . S
C440 H454 0.961 . S
C441 C438 1.539 . S
C441 H455 0.958 . S
C441 H456 0.961 . S
C441 H457 0.960 . S
H442 C426 0.931 . S
H443 C431 0.929 . S
H444 C432 0.960 . S
H445 C432 0.962 . S
H446 C432 0.960 . S
H447 C433 0.961 . S
H448 C433 0.961 . S
H449 C433 0.961 . S
H450 C434 0.931 . S
H451 C439 0.930 . S
H452 C440 0.956 . S
H453 C440 0.961 . S
H454 C440 0.961 . S
H455 C441 0.958 . S
H456 C441 0.961 . S
H457 C441 0.960 . S
C458 C459 1.391 . S
C458 C460 1.394 . S
C458 H474 0.931 . S
C459 C458 1.391 . S
C459 C463 1.376 . S
C460 C458 1.394 . S
C460 C461 1.369 . S
C460 C464 1.531 . S
C461 C460 1.369 . S
C461 C462 1.410 . S
C461 C469 1.503 . S
C462 C461 1.410 . S
C462 C463 1.392 . S
C462 C465 1.511 . S
C463 C459 1.376 . S
C463 C462 1.392 . S
C463 H475 0.929 . S
C464 C460 1.531 . S
C464 H476 0.960 . S
C464 H477 0.962 . S
C464 H478 0.960 . S
C465 C462 1.511 . S
C465 H479 0.961 . S
C465 H480 0.961 . S
C465 H481 0.961 . S
C466 C467 1.370 . S
C466 C468 1.363 . S
C466 H482 0.931 . S
C467 C466 1.370 . S
C467 C471 1.408 . S
C468 C466 1.363 . S
C468 C469 1.370 . S
C468 C472 1.524 . S
C469 C461 1.503 . S
C469 C468 1.370 . S
C469 C470 1.403 . S
C470 C469 1.403 . S
C470 C471 1.404 . S
C470 C473 1.539 . S
C471 C467 1.408 . S
C471 C470 1.404 . S
C471 H483 0.930 . S
C472 C468 1.524 . S
C472 H484 0.956 . S
C472 H485 0.961 . S
C472 H486 0.961 . S
C473 C470 1.539 . S
C473 H487 0.958 . S
C473 H488 0.961 . S
C473 H489 0.960 . S
H474 C458 0.931 . S
H475 C463 0.929 . S
H476 C464 0.960 . S
H477 C464 0.962 . S
H478 C464 0.960 . S
H479 C465 0.961 . S
H480 C465 0.961 . S
H481 C465 0.961 . S
H482 C466 0.931 . S
H483 C471 0.930 . S
H484 C472 0.956 . S
H485 C472 0.961 . S
H486 C472 0.961 . S
H487 C473 0.958 . S
H488 C473 0.961 . S
H489 C473 0.960 . S
C490 C491 1.391 . S
C490 C492 1.394 . S
C490 H506 0.931 . S
C491 C490 1.391 . S
C491 C495 1.376 . S
C492 C490 1.394 . S
C492 C493 1.369 . S
C492 C496 1.531 . S
C493 C492 1.369 . S
C493 C494 1.410 . S
C493 C501 1.503 . S
C494 C493 1.410 . S
C494 C495 1.392 . S
C494 C497 1.511 . S
C495 C491 1.376 . S
C495 C494 1.392 . S
C495 H507 0.929 . S
C496 C492 1.531 . S
C496 H508 0.960 . S
C496 H509 0.962 . S
C496 H510 0.960 . S
C497 C494 1.511 . S
C497 H511 0.961 . S
C497 H512 0.961 . S
C497 H513 0.961 . S
C498 C499 1.370 . S
C498 C500 1.363 . S
C498 H514 0.931 . S
C499 C498 1.370 . S
C499 C503 1.408 . S
C500 C498 1.363 . S
C500 C501 1.370 . S
C500 C504 1.524 . S
C501 C493 1.503 . S
C501 C500 1.370 . S
C501 C502 1.403 . S
C502 C501 1.403 . S
C502 C503 1.404 . S
C502 C505 1.539 . S
C503 C499 1.408 . S
C503 C502 1.404 . S
C503 H515 0.930 . S
C504 C500 1.524 . S
C504 H516 0.956 . S
C504 H517 0.961 . S
C504 H518 0.961 . S
C505 C502 1.539 . S
C505 H519 0.958 . S
C505 H520 0.961 . S
C505 H521 0.960 . S
H506 C490 0.931 . S
H507 C495 0.929 . S
H508 C496 0.960 . S
H509 C496 0.962 . S
H510 C496 0.960 . S
H511 C497 0.961 . S
H512 C497 0.961 . S
H513 C497 0.961 . S
H514 C498 0.931 . S
H515 C503 0.930 . S
H516 C504 0.956 . S
H517 C504 0.961 . S
H518 C504 0.961 . S
H519 C505 0.958 . S
H520 C505 0.961 . S
H521 C505 0.960 . S
C522 C523 1.391 . S
C522 C524 1.394 . S
C522 H538 0.931 . S
C523 C522 1.391 . S
C523 C527 1.376 1_455 S
C524 C522 1.394 . S
C524 C525 1.369 . S
C524 C528 1.531 . S
C525 C524 1.369 . S
C525 C526 1.410 . S
C525 C533 1.485 1_554 S
C526 C525 1.410 . S
C526 C527 1.392 1_455 S
C526 C529 1.511 1_455 S
C527 C523 1.376 1_655 S
C527 C526 1.392 1_655 S
C527 H539 0.929 . S
C528 C524 1.531 . S
C528 H540 0.960 . S
C528 H541 0.962 . S
C528 H542 0.960 . S
C529 C526 1.511 1_655 S
C529 H543 0.961 . S
C529 H544 0.961 1_655 S
C529 H545 0.961 . S
C530 C531 1.370 . S
C530 C532 1.363 . S
C530 H546 0.931 . S
C531 C530 1.370 . S
C531 C535 1.408 . S
C532 C530 1.363 . S
C532 C533 1.376 . S
C532 C536 1.524 1_556 S
C533 C525 1.485 1_556 S
C533 C532 1.376 . S
C533 C534 1.415 . S
C534 C533 1.415 . S
C534 C535 1.404 . S
C534 C537 1.539 1_455 S
C535 C531 1.408 . S
C535 C534 1.404 . S
C535 H547 0.930 . S
C536 C532 1.524 1_554 S
C536 H548 0.956 . S
C536 H549 0.961 . S
C536 H550 0.961 . S
C537 C534 1.539 1_655 S
C537 H551 0.958 . S
C537 H552 0.961 . S
C537 H553 0.960 1_556 S
H538 C522 0.931 . S
H539 C527 0.929 . S
H540 C528 0.960 . S
H541 C528 0.962 . S
H542 C528 0.960 . S
H543 C529 0.961 . S
H544 C529 0.961 1_455 S
H545 C529 0.961 . S
H546 C530 0.931 . S
H547 C535 0.930 . S
H548 C536 0.956 . S
H549 C536 0.961 . S
H550 C536 0.961 . S
H551 C537 0.958 . S
H552 C537 0.961 . S
H553 C537 0.960 1_554 S
C554 C555 1.391 . S
C554 C556 1.394 . S
C554 H570 0.931 . S
C555 C554 1.391 . S
C555 C559 1.376 1_545 S
C556 C554 1.394 . S
C556 C557 1.369 . S
C556 C560 1.531 . S
C557 C556 1.369 . S
C557 C558 1.425 . S
C557 C565 1.503 . S
C558 C557 1.425 . S
C558 C559 1.391 1_545 S
C558 C561 1.498 1_545 S
C559 C555 1.376 1_565 S
C559 C558 1.391 1_565 S
C559 H571 0.929 . S
C560 C556 1.531 . S
C560 H572 0.960 . S
C560 H573 0.962 . S
C560 H574 0.960 . S
C561 C558 1.498 1_565 S
C561 H575 0.961 . S
C561 H576 0.961 . S
C561 H577 0.961 . S
C562 C563 1.370 . S
C562 C564 1.363 . S
C562 H578 0.931 . S
C563 C562 1.370 . S
C563 C567 1.408 . S
C564 C562 1.363 . S
C564 C565 1.370 . S
C564 C568 1.524 1_545 S
C565 C557 1.503 . S
C565 C564 1.370 . S
C565 C566 1.403 . S
C566 C565 1.403 . S
C566 C567 1.404 . S
C566 C569 1.539 . S
C567 C563 1.408 . S
C567 C566 1.404 . S
C567 H579 0.930 . S
C568 C564 1.524 1_565 S
C568 H580 0.956 1_565 S
C568 H581 0.961 . S
C568 H582 0.961 . S
C569 C566 1.539 . S
C569 H583 0.958 . S
C569 H584 0.961 . S
C569 H585 0.960 . S
H570 C554 0.931 . S
H571 C559 0.929 . S
H572 C560 0.960 . S
H573 C560 0.962 . S
H574 C560 0.960 . S
H575 C561 0.961 . S
H576 C561 0.961 . S
H577 C561 0.961 . S
H578 C562 0.931 . S
H579 C567 0.930 . S
H580 C568 0.956 1_545 S
H581 C568 0.961 . S
H582 C568 0.961 . S
H583 C569 0.958 . S
H584 C569 0.961 . S
H585 C569 0.960 . S
C586 C587 1.391 . S
C586 C588 1.394 . S
C586 H602 0.931 . S
C587 C586 1.391 . S
C587 C591 1.376 . S
C588 C586 1.394 . S
C588 C589 1.369 . S
C588 C592 1.531 . S
C589 C588 1.369 . S
C589 C590 1.410 . S
C589 C597 1.503 . S
C590 C589 1.410 . S
C590 C591 1.392 . S
C590 C593 1.511 . S
C591 C587 1.376 . S
C591 C590 1.392 . S
C591 H603 0.929 . S
C592 C588 1.531 . S
C592 H604 0.960 . S
C592 H605 0.962 . S
C592 H606 0.960 . S
C593 C590 1.511 . S
C593 H607 0.961 . S
C593 H608 0.961 . S
C593 H609 0.961 . S
C594 C595 1.370 . S
C594 C596 1.363 . S
C594 H610 0.931 . S
C595 C594 1.370 . S
C595 C599 1.408 . S
C596 C594 1.363 . S
C596 C597 1.370 . S
C596 C600 1.524 . S
C597 C589 1.503 . S
C597 C596 1.370 . S
C597 C598 1.403 . S
C598 C597 1.403 . S
C598 C599 1.404 . S
C598 C601 1.539 . S
C599 C595 1.408 . S
C599 C598 1.404 . S
C599 H611 0.930 . S
C600 C596 1.524 . S
C600 H612 0.956 . S
C600 H613 0.961 . S
C600 H614 0.961 . S
C601 C598 1.539 . S
C601 H615 0.958 . S
C601 H616 0.961 . S
C601 H617 0.960 . S
H602 C586 0.931 . S
H603 C591 0.929 . S
H604 C592 0.960 . S
H605 C592 0.962 . S
H606 C592 0.960 . S
H607 C593 0.961 . S
H608 C593 0.961 . S
H609 C593 0.961 . S
H610 C594 0.931 . S
H611 C599 0.930 . S
H612 C600 0.956 . S
H613 C600 0.961 . S
H614 C600 0.961 . S
H615 C601 0.958 . S
H616 C601 0.961 . S
H617 C601 0.960 . S
C618 C619 1.391 . S
C618 C620 1.394 . S
C618 H634 0.931 . S
C619 C618 1.391 . S
C619 C623 1.376 . S
C620 C618 1.394 . S
C620 C621 1.369 . S
C620 C624 1.531 . S
C621 C620 1.369 . S
C621 C622 1.410 . S
C621 C629 1.503 . S
C622 C621 1.410 . S
C622 C623 1.392 . S
C622 C625 1.511 . S
C623 C619 1.376 . S
C623 C622 1.392 . S
C623 H635 0.929 . S
C624 C620 1.531 . S
C624 H636 0.960 . S
C624 H637 0.962 . S
C624 H638 0.960 . S
C625 C622 1.511 . S
C625 H639 0.961 1_545 S
C625 H640 0.955 1_545 S
C625 H641 0.961 . S
C626 C627 1.370 1_565 S
C626 C628 1.363 . S
C626 H642 0.931 . S
C627 C626 1.370 1_545 S
C627 C631 1.408 . S
C628 C626 1.363 . S
C628 C629 1.370 1_565 S
C628 C632 1.524 . S
C629 C621 1.503 . S
C629 C628 1.370 1_545 S
C629 C630 1.403 . S
C630 C629 1.403 . S
C630 C631 1.404 . S
C630 C633 1.539 . S
C631 C627 1.408 . S
C631 C630 1.404 . S
C631 H643 0.930 . S
C632 C628 1.524 . S
C632 H644 0.956 . S
C632 H645 0.961 . S
C632 H646 0.961 . S
C633 C630 1.539 . S
C633 H647 0.958 . S
C633 H648 0.961 . S
C633 H649 0.960 . S
H634 C618 0.931 . S
H635 C623 0.929 . S
H636 C624 0.960 . S
H637 C624 0.962 . S
H638 C624 0.960 . S
H639 C625 0.961 1_565 S
H640 C625 0.955 1_565 S
H641 C625 0.961 . S
H642 C626 0.931 . S
H643 C631 0.930 . S
H644 C632 0.956 . S
H645 C632 0.961 . S
H646 C632 0.961 . S
H647 C633 0.958 . S
H648 C633 0.961 . S
H649 C633 0.960 . S
C650 C651 1.391 . S
C650 C652 1.394 . S
C650 H666 0.931 . S
C651 C650 1.391 . S
C651 C655 1.376 . S
C652 C650 1.394 . S
C652 C653 1.369 . S
C652 C656 1.531 . S
C653 C652 1.369 . S
C653 C654 1.410 . S
C653 C661 1.503 . S
C654 C653 1.410 . S
C654 C655 1.392 . S
C654 C657 1.511 . S
C655 C651 1.376 . S
C655 C654 1.392 . S
C655 H667 0.929 . S
C656 C652 1.531 . S
C656 H668 0.960 . S
C656 H669 0.962 . S
C656 H670 0.960 . S
C657 C654 1.511 . S
C657 H671 0.961 . S
C657 H672 0.961 . S
C657 H673 0.961 . S
C658 C659 1.370 . S
C658 C660 1.363 . S
C658 H674 0.931 . S
C659 C658 1.370 . S
C659 C663 1.408 . S
C660 C658 1.363 . S
C660 C661 1.370 1_554 S
C660 C664 1.524 1_554 S
C661 C653 1.503 . S
C661 C660 1.370 1_556 S
C661 C662 1.403 1_556 S
C662 C661 1.403 1_554 S
C662 C663 1.404 . S
C662 C665 1.539 . S
C663 C659 1.408 . S
C663 C662 1.404 . S
C663 H675 0.930 . S
C664 C660 1.524 1_556 S
C664 H676 0.956 . S
C664 H677 0.961 . S
C664 H678 0.961 . S
C665 C662 1.539 . S
C665 H679 0.958 . S
C665 H680 0.961 . S
C665 H681 0.960 1_554 S
H666 C650 0.931 . S
H667 C655 0.929 . S
H668 C656 0.960 . S
H669 C656 0.962 . S
H670 C656 0.960 . S
H671 C657 0.961 . S
H672 C657 0.961 . S
H673 C657 0.961 . S
H674 C658 0.931 . S
H675 C663 0.930 . S
H676 C664 0.956 . S
H677 C664 0.961 . S
H678 C664 0.961 . S
H679 C665 0.958 . S
H680 C665 0.961 . S
H681 C665 0.960 1_556 S
C682 C683 1.391 1_655 S
C682 C684 1.394 . S
C682 H698 0.931 . S
C683 C682 1.391 1_455 S
C683 C687 1.376 . S
C684 C682 1.394 . S
C684 C685 1.369 1_655 S
C684 C688 1.531 . S
C685 C684 1.369 1_455 S
C685 C686 1.410 . S
C685 C693 1.503 . S
C686 C685 1.410 . S
C686 C687 1.392 . S
C686 C689 1.511 . S
C687 C683 1.376 . S
C687 C686 1.392 . S
C687 H699 0.929 . S
C688 C684 1.531 . S
C688 H700 0.960 . S
C688 H701 0.962 . S
C688 H702 0.960 . S
C689 C686 1.511 . S
C689 H703 0.961 . S
C689 H704 0.961 . S
C689 H705 0.961 . S
C690 C691 1.370 . S
C690 C692 1.363 . S
C690 H706 0.931 . S
C691 C690 1.370 . S
C691 C695 1.408 . S
C692 C690 1.363 . S
C692 C693 1.370 . S
C692 C696 1.524 . S
C693 C685 1.503 . S
C693 C692 1.370 . S
C693 C694 1.403 . S
C694 C693 1.403 . S
C694 C695 1.404 . S
C694 C697 1.539 . S
C695 C691 1.408 . S
C695 C694 1.404 . S
C695 H707 0.930 . S
C696 C692 1.524 . S
C696 H708 0.956 . S
C696 H709 0.961 . S
C696 H710 0.961 . S
C697 C694 1.539 . S
C697 H711 0.958 1_455 S
C697 H712 0.961 . S
C697 H713 0.960 . S
H698 C682 0.931 . S
H699 C687 0.929 . S
H700 C688 0.960 . S
H701 C688 0.962 . S
H702 C688 0.960 . S
H703 C689 0.961 . S
H704 C689 0.961 . S
H705 C689 0.961 . S
H706 C690 0.931 . S
H707 C695 0.930 . S
H708 C696 0.956 . S
H709 C696 0.961 . S
H710 C696 0.961 . S
H711 C697 0.958 1_655 S
H712 C697 0.961 . S
H713 C697 0.960 . S
C139 C2 1.437 . S
C147 C129 1.384 . S
C171 C22 1.277 . S
C179 C107 1.392 1_655 S
C203 C44 1.325 . S
C211 C120 1.417 . S
C235 C4 1.434 . S
C243 C133 1.529 . S
C275 C103 1.535 . S
C267 C24 1.583 . S
C307 C116 1.499 . S
C299 C42 1.525 . S
C331 C32 1.187 . S
C339 C81 1.240 . S
C363 C49 1.177 . S
C371 C94 1.165 . S
C395 C9 1.283 . S
C403 C64 1.221 . S
C435 C77 1.209 . S
C427 C29 1.243 . S
C467 C90 1.244 . S
C459 C52 1.350 . S
C491 C12 1.235 . S
C499 C68 1.231 . S
C531 C95 1.501 . S
C523 C18 1.503 . S
C555 C38 1.530 . S
C563 C69 1.540 . S
C587 C58 1.509 . S
C595 C82 1.514 . S
C627 C121 1.594 . S
C619 C39 1.546 . S
C659 C134 1.533 . S
C651 C59 1.527 . S
C683 C19 1.524 . S
C691 C108 1.570 . S
