# Generated by pormake.
# Topology eea, (3,6)-cn, num edge types: 1
# Building blocks:
#     Node 0, Type 0, BuildingBlock: BETDAH_clean_linker_0, # of connection points: 3
#     Node 1, Type 0, BuildingBlock: BETDAH_clean_linker_0, # of connection points: 3
#     Node 2, Type 0, BuildingBlock: BETDAH_clean_linker_0, # of connection points: 3
#     Node 3, Type 0, BuildingBlock: BETDAH_clean_linker_0, # of connection points: 3
#     Node 4, Type 0, BuildingBlock: BETDAH_clean_linker_0, # of connection points: 3
#     Node 5, Type 0, BuildingBlock: BETDAH_clean_linker_0, # of connection points: 3
#     Node 6, Type 0, BuildingBlock: BETDAH_clean_linker_0, # of connection points: 3
#     Node 7, Type 0, BuildingBlock: BETDAH_clean_linker_0, # of connection points: 3
#     Node 8, Type 0, BuildingBlock: BETDAH_clean_linker_0, # of connection points: 3
#     Node 9, Type 0, BuildingBlock: BETDAH_clean_linker_0, # of connection points: 3
#     Node 10, Type 0, BuildingBlock: BETDAH_clean_linker_0, # of connection points: 3
#     Node 11, Type 0, BuildingBlock: BETDAH_clean_linker_0, # of connection points: 3
#     Node 12, Type 0, BuildingBlock: BETDAH_clean_linker_0, # of connection points: 3
#     Node 13, Type 0, BuildingBlock: BETDAH_clean_linker_0, # of connection points: 3
#     Node 14, Type 0, BuildingBlock: BETDAH_clean_linker_0, # of connection points: 3
#     Node 15, Type 0, BuildingBlock: BETDAH_clean_linker_0, # of connection points: 3
#     Node 16, Type 0, BuildingBlock: BETDAH_clean_linker_0, # of connection points: 3
#     Node 17, Type 0, BuildingBlock: BETDAH_clean_linker_0, # of connection points: 3
#     Node 18, Type 1, BuildingBlock: HISSIN_clean_sbu_0, # of connection points: 6
#     Node 19, Type 1, BuildingBlock: HISSIN_clean_sbu_0, # of connection points: 6
#     Node 20, Type 1, BuildingBlock: HISSIN_clean_sbu_0, # of connection points: 6
#     Node 21, Type 1, BuildingBlock: HISSIN_clean_sbu_0, # of connection points: 6
#     Node 22, Type 1, BuildingBlock: HISSIN_clean_sbu_0, # of connection points: 6
#     Node 23, Type 1, BuildingBlock: HISSIN_clean_sbu_0, # of connection points: 6
#     Node 24, Type 1, BuildingBlock: HISSIN_clean_sbu_0, # of connection points: 6
#     Node 25, Type 1, BuildingBlock: HISSIN_clean_sbu_0, # of connection points: 6
#     Node 26, Type 1, BuildingBlock: HISSIN_clean_sbu_0, # of connection points: 6
#     Edge 27, Type (0, 1), BuildingBlock: OJICUG_clean_linker_0, # of connection points: 2
#     Edge 28, Type (0, 1), BuildingBlock: OJICUG_clean_linker_0, # of connection points: 2
#     Edge 29, Type (0, 1), BuildingBlock: OJICUG_clean_linker_0, # of connection points: 2
#     Edge 30, Type (0, 1), BuildingBlock: OJICUG_clean_linker_0, # of connection points: 2
#     Edge 31, Type (0, 1), BuildingBlock: OJICUG_clean_linker_0, # of connection points: 2
#     Edge 32, Type (0, 1), BuildingBlock: OJICUG_clean_linker_0, # of connection points: 2
#     Edge 33, Type (0, 1), BuildingBlock: OJICUG_clean_linker_0, # of connection points: 2
#     Edge 34, Type (0, 1), BuildingBlock: OJICUG_clean_linker_0, # of connection points: 2
#     Edge 35, Type (0, 1), BuildingBlock: OJICUG_clean_linker_0, # of connection points: 2
#     Edge 36, Type (0, 1), BuildingBlock: OJICUG_clean_linker_0, # of connection points: 2
#     Edge 37, Type (0, 1), BuildingBlock: OJICUG_clean_linker_0, # of connection points: 2
#     Edge 38, Type (0, 1), BuildingBlock: OJICUG_clean_linker_0, # of connection points: 2
#     Edge 39, Type (0, 1), BuildingBlock: OJICUG_clean_linker_0, # of connection points: 2
#     Edge 40, Type (0, 1), BuildingBlock: OJICUG_clean_linker_0, # of connection points: 2
#     Edge 41, Type (0, 1), BuildingBlock: OJICUG_clean_linker_0, # of connection points: 2
#     Edge 42, Type (0, 1), BuildingBlock: OJICUG_clean_linker_0, # of connection points: 2
#     Edge 43, Type (0, 1), BuildingBlock: OJICUG_clean_linker_0, # of connection points: 2
#     Edge 44, Type (0, 1), BuildingBlock: OJICUG_clean_linker_0, # of connection points: 2
#     Edge 45, Type (0, 1), BuildingBlock: OJICUG_clean_linker_0, # of connection points: 2
#     Edge 46, Type (0, 1), BuildingBlock: OJICUG_clean_linker_0, # of connection points: 2
#     Edge 47, Type (0, 1), BuildingBlock: OJICUG_clean_linker_0, # of connection points: 2
#     Edge 48, Type (0, 1), BuildingBlock: OJICUG_clean_linker_0, # of connection points: 2
#     Edge 49, Type (0, 1), BuildingBlock: OJICUG_clean_linker_0, # of connection points: 2
#     Edge 50, Type (0, 1), BuildingBlock: OJICUG_clean_linker_0, # of connection points: 2
#     Edge 51, Type (0, 1), BuildingBlock: OJICUG_clean_linker_0, # of connection points: 2
#     Edge 52, Type (0, 1), BuildingBlock: OJICUG_clean_linker_0, # of connection points: 2
#     Edge 53, Type (0, 1), BuildingBlock: OJICUG_clean_linker_0, # of connection points: 2
#     Edge 54, Type (0, 1), BuildingBlock: OJICUG_clean_linker_0, # of connection points: 2
#     Edge 55, Type (0, 1), BuildingBlock: OJICUG_clean_linker_0, # of connection points: 2
#     Edge 56, Type (0, 1), BuildingBlock: OJICUG_clean_linker_0, # of connection points: 2
#     Edge 57, Type (0, 1), BuildingBlock: OJICUG_clean_linker_0, # of connection points: 2
#     Edge 58, Type (0, 1), BuildingBlock: OJICUG_clean_linker_0, # of connection points: 2
#     Edge 59, Type (0, 1), BuildingBlock: OJICUG_clean_linker_0, # of connection points: 2
#     Edge 60, Type (0, 1), BuildingBlock: OJICUG_clean_linker_0, # of connection points: 2
#     Edge 61, Type (0, 1), BuildingBlock: OJICUG_clean_linker_0, # of connection points: 2
#     Edge 62, Type (0, 1), BuildingBlock: OJICUG_clean_linker_0, # of connection points: 2
#     Edge 63, Type (0, 1), BuildingBlock: OJICUG_clean_linker_0, # of connection points: 2
#     Edge 64, Type (0, 1), BuildingBlock: OJICUG_clean_linker_0, # of connection points: 2
#     Edge 65, Type (0, 1), BuildingBlock: OJICUG_clean_linker_0, # of connection points: 2
#     Edge 66, Type (0, 1), BuildingBlock: OJICUG_clean_linker_0, # of connection points: 2
#     Edge 67, Type (0, 1), BuildingBlock: OJICUG_clean_linker_0, # of connection points: 2
#     Edge 68, Type (0, 1), BuildingBlock: OJICUG_clean_linker_0, # of connection points: 2
#     Edge 69, Type (0, 1), BuildingBlock: OJICUG_clean_linker_0, # of connection points: 2
#     Edge 70, Type (0, 1), BuildingBlock: OJICUG_clean_linker_0, # of connection points: 2
#     Edge 71, Type (0, 1), BuildingBlock: OJICUG_clean_linker_0, # of connection points: 2
#     Edge 72, Type (0, 1), BuildingBlock: OJICUG_clean_linker_0, # of connection points: 2
#     Edge 73, Type (0, 1), BuildingBlock: OJICUG_clean_linker_0, # of connection points: 2
#     Edge 74, Type (0, 1), BuildingBlock: OJICUG_clean_linker_0, # of connection points: 2
#     Edge 75, Type (0, 1), BuildingBlock: OJICUG_clean_linker_0, # of connection points: 2
#     Edge 76, Type (0, 1), BuildingBlock: OJICUG_clean_linker_0, # of connection points: 2
#     Edge 77, Type (0, 1), BuildingBlock: OJICUG_clean_linker_0, # of connection points: 2
#     Edge 78, Type (0, 1), BuildingBlock: OJICUG_clean_linker_0, # of connection points: 2
#     Edge 79, Type (0, 1), BuildingBlock: OJICUG_clean_linker_0, # of connection points: 2
#     Edge 80, Type (0, 1), BuildingBlock: OJICUG_clean_linker_0, # of connection points: 2
# Relax obj value: 0.059
# Max RMSD: 0.224
# Mean RMSD: 0.160
data_MOF--net-eea--node1-HISSIN_clean_sbu_0--node2-BETDAH_clean_linker_0--edge1-OJICUG_clean_linker_0
_symmetry_space_group_name_H-M    P1
_symmetry_Int_Tables_number       1
_symmetry_cell_setting            triclinic
loop_
_symmetry_equiv_pos_as_xyz
'x, y, z'
_cell_length_a     39.482544
_cell_length_b     39.804664
_cell_length_c     54.819457
_cell_angle_alpha  93.33511
_cell_angle_beta   93.368566
_cell_angle_gamma 119.82028
loop_
_atom_site_label
_atom_site_type_symbol
_atom_site_fract_x
_atom_site_fract_y
_atom_site_fract_z
_atom_type_partial_charge
H0 H 0.26407 0.06896 0.42482 0.0
H1 H 0.31668 0.19365 0.42726 0.0
H2 H 0.2708 0.12353 0.35823 0.0
C3 C 0.27171 0.09486 0.41565 0.0
C4 C 0.26441 0.09163 0.3899 0.0
C5 C 0.29121 0.13164 0.42935 0.0
C6 C 0.3019 0.16504 0.41708 0.0
C7 C 0.29419 0.16193 0.3916 0.0
C8 C 0.27593 0.12545 0.37804 0.0
N9 N 0.30698 0.1958 0.37937 0.0
C10 C 0.28389 0.21279 0.3766 0.0
H11 H 0.95854 0.20903 0.42945 0.0
H12 H 0.87843 0.08717 0.43385 0.0
H13 H 0.96681 0.12182 0.38402 0.0
C14 C 0.94826 0.17881 0.42345 0.0
C15 C 0.96642 0.1694 0.40494 0.0
C16 C 0.91667 0.14941 0.43425 0.0
C17 C 0.90225 0.11021 0.42555 0.0
C18 C 0.92031 0.10055 0.40727 0.0
C19 C 0.9525 0.13 0.39748 0.0
N20 N 0.90825 0.06141 0.39921 0.0
C21 C 0.86972 0.03106 0.39773 0.0
H22 H 0.81514 0.75114 0.44082 0.0
H23 H 0.9108 0.72917 0.43911 0.0
H24 H 0.88707 0.78343 0.38028 0.0
C25 C 0.83992 0.75361 0.43192 0.0
C26 C 0.84813 0.76971 0.40922 0.0
C27 C 0.86285 0.73983 0.44322 0.0
C28 C 0.89385 0.74123 0.43121 0.0
C29 C 0.90283 0.75705 0.40871 0.0
C30 C 0.8803 0.77176 0.39783 0.0
N31 N 0.93137 0.75299 0.39629 0.0
C32 C 0.96095 0.78137 0.38426 0.0
H33 H 0.05407 0.24584 0.57588 0.0
H34 H 0.17137 0.26889 0.59671 0.0
H35 H 0.08682 0.23082 0.649 0.0
C36 C 0.07568 0.24684 0.58947 0.0
C37 C 0.065 0.23601 0.6131 0.0
C38 C 0.11414 0.25941 0.58324 0.0
C39 C 0.14138 0.25846 0.60067 0.0
C40 C 0.13099 0.24729 0.62416 0.0
C41 C 0.09338 0.23701 0.63033 0.0
N42 N 0.1594 0.25195 0.64315 0.0
C43 C 0.18215 0.23425 0.64224 0.0
H44 H 0.75228 0.80342 0.59583 0.0
H45 H 0.74914 0.91002 0.60442 0.0
H46 H 0.79577 0.87619 0.66454 0.0
C47 C 0.75885 0.8297 0.60698 0.0
C48 C 0.77567 0.83641 0.63144 0.0
C49 C 0.74943 0.85617 0.59689 0.0
C50 C 0.75619 0.88936 0.61185 0.0
C51 C 0.77233 0.89588 0.6364 0.0
C52 C 0.78215 0.86972 0.64583 0.0
N53 N 0.7791 0.92819 0.65253 0.0
C54 C 0.7776 0.96048 0.6458 0.0
H55 H 0.19205 0.93973 0.57997 0.0
H56 H 0.10905 0.81786 0.57836 0.0
H57 H 0.13136 0.89343 0.64367 0.0
C58 C 0.1702 0.91585 0.58885 0.0
C59 C 0.16413 0.922 0.61345 0.0
C60 C 0.15004 0.87867 0.57582 0.0
C61 C 0.12419 0.84695 0.58788 0.0
C62 C 0.11713 0.85233 0.61212 0.0
C63 C 0.13668 0.88982 0.62481 0.0
N64 N 0.09372 0.819 0.6242 0.0
C65 C 0.06033 0.8126 0.63505 0.0
H66 H 0.92725 0.39544 0.76072 0.0
H67 H 0.97199 0.51911 0.76679 0.0
H68 H 0.93214 0.45338 0.69602 0.0
C69 C 0.9339 0.42176 0.75232 0.0
C70 C 0.92718 0.41999 0.72667 0.0
C71 C 0.94967 0.45727 0.7671 0.0
C72 C 0.9584 0.49115 0.75589 0.0
C73 C 0.95175 0.48957 0.73039 0.0
C74 C 0.93589 0.45406 0.71582 0.0
N75 N 0.96507 0.52437 0.71916 0.0
C76 C 0.94105 0.53998 0.71497 0.0
H77 H 0.62197 0.54131 0.76177 0.0
H78 H 0.54467 0.41952 0.76827 0.0
H79 H 0.63135 0.45393 0.71729 0.0
C80 C 0.61225 0.51107 0.7562 0.0
C81 C 0.63025 0.50157 0.73763 0.0
C82 C 0.5816 0.48177 0.76766 0.0
C83 C 0.56778 0.4425 0.75949 0.0
C84 C 0.58568 0.43275 0.74115 0.0
C85 C 0.61708 0.46216 0.73075 0.0
N86 N 0.57433 0.39361 0.7337 0.0
C87 C 0.53578 0.36321 0.73152 0.0
H88 H 0.48119 0.08622 0.77393 0.0
H89 H 0.57754 0.06524 0.77225 0.0
H90 H 0.55018 0.11473 0.712 0.0
C91 C 0.50565 0.08829 0.76483 0.0
C92 C 0.51263 0.10277 0.7416 0.0
C93 C 0.52938 0.07559 0.77639 0.0
C94 C 0.56004 0.07657 0.76415 0.0
C95 C 0.56783 0.09088 0.74115 0.0
C96 C 0.5444 0.10437 0.72997 0.0
N97 N 0.59563 0.08599 0.72841 0.0
C98 C 0.62625 0.11457 0.71713 0.0
H99 H 0.72225 0.57821 0.90891 0.0
H100 H 0.83673 0.59327 0.92917 0.0
H101 H 0.75248 0.5595 0.98161 0.0
C102 C 0.74282 0.57678 0.92216 0.0
C103 C 0.73162 0.5657 0.94571 0.0
C104 C 0.78092 0.58746 0.91591 0.0
C105 C 0.80732 0.58517 0.93338 0.0
C106 C 0.7966 0.57456 0.95691 0.0
C107 C 0.75932 0.5656 0.96295 0.0
N108 N 0.82435 0.57824 0.97605 0.0
C109 C 0.84729 0.56074 0.97512 0.0
H110 H 0.4164 0.13769 0.92977 0.0
H111 H 0.40194 0.23792 0.93815 0.0
H112 H 0.44933 0.20718 0.9995 0.0
C113 C 0.41934 0.16234 0.94114 0.0
C114 C 0.43463 0.16918 0.96598 0.0
C115 C 0.40777 0.18712 0.93078 0.0
C116 C 0.41147 0.21906 0.94566 0.0
C117 C 0.42581 0.22551 0.97057 0.0
C118 C 0.4373 0.20079 0.98043 0.0
N119 N 0.42807 0.25578 0.9867 0.0
C120 C 0.43062 0.28975 0.9796 0.0
H121 H 0.86381 0.27389 0.91377 0.0
H122 H 0.77693 0.15284 0.91028 0.0
H123 H 0.79588 0.22838 0.97498 0.0
C124 C 0.84092 0.25007 0.9221 0.0
C125 C 0.83268 0.25633 0.94613 0.0
C126 C 0.8204 0.21316 0.9087 0.0
C127 C 0.79199 0.18187 0.91989 0.0
C128 C 0.78293 0.18732 0.94357 0.0
C129 C 0.80285 0.22458 0.95658 0.0
N130 N 0.75623 0.15399 0.95453 0.0
C131 C 0.72642 0.15169 0.9679 0.0
H132 H 0.59428 0.73525 0.09539 0.0
H133 H 0.63435 0.85758 0.09421 0.0
H134 H 0.59837 0.78361 0.02669 0.0
C135 C 0.59975 0.75986 0.08536 0.0
C136 C 0.59313 0.75461 0.05954 0.0
C137 C 0.61495 0.79696 0.09817 0.0
C138 C 0.62243 0.82869 0.0848 0.0
C139 C 0.61623 0.82363 0.05912 0.0
C140 C 0.60181 0.78683 0.0466 0.0
N141 N 0.62816 0.85602 0.04551 0.0
C142 C 0.60955 0.87773 0.0457 0.0
H143 H 0.30077 0.87621 0.10027 0.0
H144 H 0.21042 0.75571 0.09701 0.0
H145 H 0.2933 0.7923 0.04362 0.0
C146 C 0.28663 0.84675 0.09145 0.0
C147 C 0.30165 0.83833 0.07066 0.0
C148 C 0.25336 0.81726 0.10099 0.0
C149 C 0.23531 0.7789 0.08956 0.0
C150 C 0.25046 0.77016 0.06914 0.0
C151 C 0.28307 0.79975 0.05984 0.0
N152 N 0.2347 0.73177 0.05778 0.0
C153 C 0.19692 0.70138 0.05918 0.0
H154 H 0.1518 0.42287 0.10885 0.0
H155 H 0.24877 0.40244 0.10789 0.0
H156 H 0.21543 0.44261 0.0449 0.0
C157 C 0.17526 0.42304 0.09945 0.0
C158 C 0.17997 0.43369 0.07528 0.0
C159 C 0.19979 0.41172 0.11151 0.0
C160 C 0.23054 0.41265 0.09937 0.0
C161 C 0.2371 0.42493 0.07575 0.0
C162 C 0.21185 0.43559 0.06371 0.0
N163 N 0.26458 0.41941 0.06309 0.0
C164 C 0.29554 0.44788 0.05197 0.0
H165 H 0.39078 0.91715 0.24376 0.0
H166 H 0.50371 0.92817 0.26331 0.0
H167 H 0.41982 0.89589 0.31596 0.0
C168 C 0.41094 0.91481 0.25684 0.0
C169 C 0.39957 0.90357 0.28032 0.0
C170 C 0.4487 0.92443 0.25045 0.0
C171 C 0.47458 0.92089 0.26768 0.0
C172 C 0.46365 0.91005 0.29115 0.0
C173 C 0.42677 0.90223 0.29734 0.0
N174 N 0.49067 0.91189 0.31015 0.0
C175 C 0.51505 0.89612 0.30836 0.0
H176 H 0.09795 0.47716 0.26244 0.0
H177 H 0.08853 0.58043 0.2721 0.0
H178 H 0.12629 0.54122 0.33367 0.0
C179 C 0.10113 0.50171 0.27408 0.0
C180 C 0.11423 0.50643 0.29916 0.0
C181 C 0.0914 0.52803 0.26405 0.0
C182 C 0.09564 0.55978 0.2795 0.0
C183 C 0.10847 0.56444 0.3046 0.0
C184 C 0.11734 0.5377 0.31418 0.0
N185 N 0.1117 0.59476 0.3212 0.0
C186 C 0.11285 0.62845 0.31474 0.0
H187 H 0.53025 0.60808 0.24685 0.0
H188 H 0.44249 0.48697 0.24299 0.0
H189 H 0.47165 0.55976 0.31064 0.0
C190 C 0.50875 0.58355 0.25549 0.0
C191 C 0.50415 0.58856 0.2805 0.0
C192 C 0.48664 0.54716 0.24164 0.0
C193 C 0.4587 0.51569 0.25297 0.0
C194 C 0.45242 0.5204 0.27752 0.0
C195 C 0.47498 0.5569 0.29128 0.0
N196 N 0.42787 0.48674 0.28895 0.0
C197 C 0.39503 0.48122 0.30013 0.0
Eu198 Eu 0.49537 0.99589 0.9884 0.0
Eu199 Eu 0.51808 0.03432 0.04697 0.0
C200 C 0.48384 0.06755 1.00627 0.0
C201 C 0.48534 0.98529 0.91816 0.0
C202 C 0.51266 0.0247 0.91669 0.0
C203 C 0.47091 0.97646 0.87373 0.0
C204 C 0.51939 0.03977 0.89386 0.0
C205 C 0.46436 0.96139 0.89654 0.0
C206 C 0.49874 0.01578 0.87205 0.0
C207 C 0.47939 0.96856 0.94194 0.0
O208 O 0.45307 0.99307 0.04081 0.0
O209 O 0.45235 0.95024 0.01086 0.0
C210 C 0.43644 0.95816 0.02913 0.0
O211 O 0.53749 0.97999 1.00577 0.0
O212 O 0.50372 0.05606 0.08004 0.0
O213 O 0.55516 0.04994 0.08167 0.0
O214 O 0.52102 0.97895 0.04506 0.0
C215 C 0.53679 0.96876 0.0278 0.0
O216 O 0.54774 0.05586 0.98853 0.0
O217 O 0.57426 0.06558 0.02859 0.0
O218 O 0.50812 0.07673 0.02627 0.0
O219 O 0.51109 0.97588 0.95539 0.0
O220 O 0.45434 0.97176 0.95497 0.0
O221 O 0.46932 0.03427 0.99268 0.0
C222 C 0.51978 0.03601 0.11659 0.0
C223 C 0.4966 0.99527 0.11497 0.0
C224 C 0.52065 0.03819 0.16109 0.0
C225 C 0.48553 0.97611 0.13628 0.0
C226 C 0.53168 0.05727 0.13979 0.0
C227 C 0.49744 0.9973 0.15969 0.0
C228 C 0.53163 0.05647 0.09425 0.0
C229 C 0.57766 0.07358 1.00555 0.0
H230 H 0.52905 0.04373 0.93319 0.0
H231 H 0.45478 0.95705 0.85733 0.0
H232 H 0.54062 0.07027 0.89331 0.0
H233 H 0.44323 0.93089 0.89728 0.0
H234 H 0.48714 0.97827 0.09721 0.0
H235 H 0.52986 0.05561 0.17868 0.0
H236 H 0.46805 0.94465 0.13441 0.0
H237 H 0.54943 0.08873 0.14143 0.0
Eu238 Eu 0.02094 0.48905 0.98921 0.0
Eu239 Eu 0.98736 0.47168 0.04398 0.0
C240 C 0.94355 0.40681 0.99741 0.0
C241 C 0.0306 0.49191 0.92045 0.0
C242 C 0.99189 0.48315 0.9141 0.0
C243 C 0.03813 0.48328 0.87733 0.0
C244 C 0.9766 0.47507 0.88944 0.0
C245 C 0.05346 0.4916 0.90196 0.0
C246 C 0.99965 0.47526 0.87077 0.0
C247 C 0.0476 0.50176 0.94619 0.0
O248 O 0.02629 0.44556 0.04046 0.0
O249 O 0.06686 0.48523 0.01378 0.0
C250 C 0.05975 0.46112 0.03068 0.0
O251 O 0.04438 0.54673 0.01147 0.0
O252 O 0.96798 0.43644 0.07488 0.0
O253 O 0.97224 0.49287 0.0768 0.0
O254 O 0.04666 0.52652 0.0493 0.0
C255 C 0.05855 0.55423 0.03459 0.0
O256 O 0.96429 0.48959 0.98423 0.0
O257 O 0.95798 0.50092 0.02488 0.0
O258 O 0.94012 0.4205 0.01898 0.0
O259 O 0.04099 0.5259 0.95933 0.0
O260 O 0.0438 0.47282 0.95808 0.0
O261 O 0.9742 0.42579 0.9852 0.0
C262 C 0.98575 0.4727 0.11386 0.0
C263 C 0.02681 0.49198 0.11831 0.0
C264 C 0.98112 0.47329 0.15787 0.0
C265 C 0.04493 0.50194 0.14245 0.0
C266 C 0.96308 0.46334 0.13377 0.0
C267 C 0.02229 0.4929 0.16256 0.0
C268 C 0.96622 0.46325 0.08867 0.0
C269 C 0.94863 0.50029 1.00131 0.0
H270 H 0.97365 0.48289 0.92819 0.0
H271 H 0.05675 0.48405 0.86336 0.0
H272 H 0.94672 0.46857 0.88496 0.0
H273 H 0.08336 0.49821 0.90656 0.0
H274 H 0.0448 0.49963 0.10313 0.0
H275 H 0.96273 0.46528 0.17284 0.0
H276 H 0.07666 0.51733 0.14535 0.0
H277 H 0.93135 0.44844 0.13068 0.0
Eu278 Eu 0.52988 0.52509 0.02382 0.0
Eu279 Eu 0.49947 0.53199 0.96791 0.0
C280 C 0.54386 0.60442 0.00756 0.0
C281 C 0.5404 0.52152 0.09361 0.0
C282 C 0.50731 0.52482 0.09753 0.0
C283 C 0.55189 0.52052 0.1375 0.0
C284 C 0.49693 0.52659 0.12138 0.0
C285 C 0.56221 0.51878 0.11368 0.0
C286 C 0.51957 0.52521 0.14172 0.0
C287 C 0.55454 0.52442 0.06914 0.0
O288 O 0.56382 0.55149 0.96811 0.0
O289 O 0.57079 0.51853 0.99915 0.0
C290 C 0.5831 0.537 0.9795 0.0
O291 O 0.48197 0.46566 0.00854 0.0
O292 O 0.50671 0.56628 0.93696 0.0
O293 O 0.46133 0.50562 0.93353 0.0
O294 O 0.49493 0.47314 0.96863 0.0
C295 C 0.47975 0.45067 0.98621 0.0
O296 O 0.47532 0.52903 0.02829 0.0
O297 O 0.4455 0.51037 0.98858 0.0
O298 O 0.51225 0.58606 0.99191 0.0
O299 O 0.53674 0.49344 0.05339 0.0
O300 O 0.56177 0.55587 0.05908 0.0
O301 O 0.5624 0.5865 0.01439 0.0
C302 C 0.49555 0.52966 0.89896 0.0
C303 C 0.53047 0.52834 0.89961 0.0
C304 C 0.48763 0.517 0.85443 0.0
C305 C 0.54402 0.52169 0.87788 0.0
C306 C 0.47419 0.52388 0.87624 0.0
C307 C 0.52281 0.51595 0.85498 0.0
C308 C 0.48123 0.53631 0.92199 0.0
C309 C 0.44405 0.51601 0.01237 0.0
H310 H 0.49025 0.52722 0.08223 0.0
H311 H 0.56955 0.51866 0.15266 0.0
H312 H 0.47207 0.5305 0.12394 0.0
H313 H 0.58787 0.51627 0.111 0.0
H314 H 0.54722 0.5323 0.91698 0.0
H315 H 0.47073 0.51296 0.83712 0.0
H316 H 0.57083 0.52042 0.87905 0.0
H317 H 0.4471 0.52465 0.87537 0.0
Eu318 Eu 0.15912 0.32421 0.32124 0.0
Eu319 Eu 0.18779 0.36365 0.37927 0.0
C320 C 0.15044 0.39592 0.34055 0.0
C321 C 0.14808 0.31566 0.25115 0.0
C322 C 0.17666 0.35493 0.25062 0.0
C323 C 0.13694 0.30892 0.20662 0.0
C324 C 0.18544 0.37105 0.22819 0.0
C325 C 0.1283 0.29282 0.22903 0.0
C326 C 0.16565 0.34824 0.20588 0.0
C327 C 0.13915 0.29814 0.27457 0.0
O328 O 0.12293 0.32189 0.37634 0.0
O329 O 0.11576 0.27912 0.34382 0.0
C330 C 0.10355 0.28735 0.36396 0.0
O331 O 0.19921 0.30418 0.33656 0.0
O332 O 0.17933 0.39149 0.41201 0.0
O333 O 0.22517 0.37664 0.41364 0.0
O334 O 0.1893 0.30762 0.37709 0.0
C335 C 0.20153 0.29494 0.3589 0.0
O336 O 0.21368 0.38271 0.32027 0.0
O337 O 0.24258 0.3917 0.3596 0.0
O338 O 0.17926 0.4065 0.35796 0.0
O339 O 0.16838 0.29916 0.28757 0.0
O340 O 0.11813 0.30699 0.28813 0.0
O341 O 0.13158 0.36041 0.32966 0.0
C342 C 0.19064 0.36802 0.44896 0.0
C343 C 0.21749 0.36724 0.46659 0.0
C344 C 0.1382 0.33118 0.4745 0.0
C345 C 0.20487 0.34856 0.4879 0.0
C346 C 0.15078 0.34966 0.45315 0.0
C347 C 0.16506 0.3304 0.49219 0.0
C348 C 0.20442 0.38727 0.42622 0.0
C349 C 0.24479 0.39938 0.33651 0.0
H350 H 0.19217 0.37307 0.26754 0.0
H351 H 0.12149 0.29036 0.18981 0.0
H352 H 0.20736 0.40151 0.22835 0.0
H353 H 0.10628 0.26243 0.22907 0.0
H354 H 0.24836 0.38112 0.46386 0.0
H355 H 0.10726 0.3171 0.47702 0.0
H356 H 0.22643 0.34891 0.50124 0.0
H357 H 0.12917 0.34941 0.43991 0.0
Eu358 Eu 0.68697 0.82267 0.32246 0.0
Eu359 Eu 0.653 0.80654 0.37719 0.0
C360 C 0.61618 0.73915 0.3322 0.0
C361 C 0.6923 0.82897 0.25265 0.0
C362 C 0.67136 0.79145 0.24 0.0
C363 C 0.68328 0.85568 0.21562 0.0
C364 C 0.65684 0.7862 0.21531 0.0
C365 C 0.69791 0.86093 0.24021 0.0
C366 C 0.66298 0.81832 0.20274 0.0
C367 C 0.70972 0.83577 0.27838 0.0
O368 O 0.69934 0.78905 0.37788 0.0
O369 O 0.73407 0.81874 0.34551 0.0
C370 C 0.73035 0.80105 0.36557 0.0
O371 O 0.71557 0.88071 0.34525 0.0
O372 O 0.63047 0.76959 0.40702 0.0
O373 O 0.63478 0.8261 0.40923 0.0
O374 O 0.71201 0.86121 0.38399 0.0
C375 C 0.72753 0.88803 0.36881 0.0
O376 O 0.62853 0.82026 0.31844 0.0
O377 O 0.62916 0.84054 0.35841 0.0
O378 O 0.608 0.75546 0.35074 0.0
O379 O 0.70602 0.86057 0.29294 0.0
O380 O 0.7053 0.80578 0.2893 0.0
O381 O 0.64946 0.75797 0.32252 0.0
C382 C 0.64618 0.80459 0.44626 0.0
C383 C 0.68706 0.82259 0.45131 0.0
C384 C 0.63985 0.80478 0.49009 0.0
C385 C 0.70425 0.83165 0.47562 0.0
C386 C 0.62272 0.79572 0.46578 0.0
C387 C 0.68085 0.82294 0.49535 0.0
C388 C 0.62788 0.79594 0.4208 0.0
C389 C 0.61661 0.83603 0.33506 0.0
H390 H 0.66662 0.76619 0.24903 0.0
H391 H 0.68802 0.88101 0.20667 0.0
H392 H 0.64174 0.75707 0.2059 0.0
H393 H 0.71398 0.89017 0.24949 0.0
H394 H 0.70568 0.82989 0.43644 0.0
H395 H 0.6209 0.79714 0.50477 0.0
H396 H 0.7359 0.84601 0.47896 0.0
H397 H 0.59111 0.78184 0.46221 0.0
Eu398 Eu 0.19682 0.86339 0.35756 0.0
Eu399 Eu 0.1659 0.86589 0.30081 0.0
C400 C 0.20668 0.9404 0.33886 0.0
C401 C 0.20579 0.86087 0.42754 0.0
C402 C 0.17496 0.86788 0.4316 0.0
C403 C 0.21243 0.85298 0.47088 0.0
C404 C 0.16344 0.86816 0.45525 0.0
C405 C 0.22404 0.8529 0.44725 0.0
C406 C 0.18242 0.86125 0.47525 0.0
C407 C 0.22095 0.86442 0.40333 0.0
O408 O 0.2311 0.88894 0.30184 0.0
O409 O 0.23955 0.85846 0.33389 0.0
C410 C 0.25142 0.87617 0.31395 0.0
O411 O 0.15165 0.80239 0.34268 0.0
O412 O 0.17232 0.89842 0.26904 0.0
O413 O 0.12864 0.83722 0.26639 0.0
O414 O 0.16539 0.80914 0.30289 0.0
C415 C 0.15124 0.78708 0.32078 0.0
O416 O 0.14054 0.86442 0.36084 0.0
O417 O 0.11135 0.84291 0.32108 0.0
O418 O 0.17507 0.91951 0.32354 0.0
O419 O 0.20475 0.83328 0.38774 0.0
O420 O 0.22718 0.89531 0.3929 0.0
O421 O 0.22658 0.92498 0.34785 0.0
C422 C 0.16305 0.86087 0.23183 0.0
C423 C 0.19548 0.85525 0.23335 0.0
C424 C 0.16013 0.85373 0.18727 0.0
C425 C 0.21021 0.84903 0.212 0.0
C426 C 0.14547 0.86007 0.20868 0.0
C427 C 0.19274 0.84818 0.18865 0.0
C428 C 0.14775 0.86755 0.2544 0.0
C429 C 0.10936 0.84961 0.34467 0.0
H430 H 0.1604 0.874 0.41658 0.0
H431 H 0.22791 0.84792 0.48588 0.0
H432 H 0.13989 0.8741 0.45791 0.0
H433 H 0.24799 0.84759 0.44449 0.0
H434 H 0.20936 0.85557 0.25108 0.0
H435 H 0.1462 0.85367 0.16964 0.0
H436 H 0.23495 0.84431 0.2138 0.0
H437 H 0.12046 0.86441 0.20715 0.0
Eu438 Eu 0.82349 0.65353 0.65288 0.0
Eu439 Eu 0.84941 0.69337 0.71144 0.0
C440 C 0.81715 0.72849 0.6707 0.0
C441 C 0.8129 0.64343 0.58287 0.0
C442 C 0.84035 0.68298 0.58204 0.0
C443 C 0.80037 0.63601 0.53835 0.0
C444 C 0.84808 0.69883 0.55949 0.0
C445 C 0.79284 0.62015 0.56091 0.0
C446 C 0.82831 0.6755 0.53733 0.0
C447 C 0.80584 0.6261 0.60643 0.0
O448 O 0.78424 0.65391 0.70664 0.0
O449 O 0.77817 0.60994 0.67536 0.0
C450 C 0.76515 0.61904 0.69479 0.0
O451 O 0.86236 0.63349 0.67007 0.0
O452 O 0.83783 0.71763 0.74464 0.0
O453 O 0.88699 0.70779 0.74579 0.0
O454 O 0.84835 0.6361 0.70975 0.0
C455 C 0.86204 0.62349 0.69242 0.0
O456 O 0.87836 0.71175 0.65246 0.0
O457 O 0.90513 0.7219 0.69253 0.0
O458 O 0.84122 0.73675 0.69067 0.0
O459 O 0.83687 0.63135 0.61973 0.0
O460 O 0.78203 0.63115 0.61966 0.0
O461 O 0.80115 0.69504 0.65714 0.0
C462 C 0.85263 0.69647 0.78111 0.0
C463 C 0.82919 0.65577 0.77983 0.0
C464 C 0.85284 0.69969 0.8256 0.0
C465 C 0.81775 0.63715 0.80131 0.0
C466 C 0.86426 0.71823 0.80413 0.0
C467 C 0.8295 0.65883 0.82456 0.0
C468 C 0.865 0.71637 0.7586 0.0
C469 C 0.90851 0.72911 0.66936 0.0
H470 H 0.85602 0.70152 0.59882 0.0
H471 H 0.7849 0.61712 0.52167 0.0
H472 H 0.86936 0.72943 0.55942 0.0
H473 H 0.77162 0.58955 0.56117 0.0
H474 H 0.81987 0.63839 0.76221 0.0
H475 H 0.86191 0.71752 0.84303 0.0
H476 H 0.80016 0.6057 0.79969 0.0
H477 H 0.88217 0.74967 0.80553 0.0
Eu478 Eu 0.35198 0.15697 0.6542 0.0
Eu479 Eu 0.31773 0.14043 0.70971 0.0
C480 C 0.27519 0.07433 0.66256 0.0
C481 C 0.36259 0.16391 0.58486 0.0
C482 C 0.33787 0.12597 0.57342 0.0
C483 C 0.36089 0.1895 0.5459 0.0
C484 C 0.32518 0.11989 0.54831 0.0
C485 C 0.37372 0.19552 0.57089 0.0
C486 C 0.33686 0.1516 0.53418 0.0
C487 C 0.37798 0.17143 0.61103 0.0
O488 O 0.36395 0.12316 0.71131 0.0
O489 O 0.39565 0.14697 0.6768 0.0
C490 C 0.39308 0.13174 0.69778 0.0
O491 O 0.38063 0.21452 0.67753 0.0
O492 O 0.29451 0.10428 0.73985 0.0
O493 O 0.30126 0.16183 0.74176 0.0
O494 O 0.37758 0.19405 0.71595 0.0
C495 C 0.39312 0.22118 0.70099 0.0
O496 O 0.29579 0.15876 0.65011 0.0
O497 O 0.29225 0.17301 0.69073 0.0
O498 O 0.27342 0.0869 0.68492 0.0
O499 O 0.37145 0.19509 0.62475 0.0
O500 O 0.37425 0.14196 0.62234 0.0
O501 O 0.30367 0.0946 0.64909 0.0
C502 C 0.31075 0.13946 0.77906 0.0
C503 C 0.35094 0.16568 0.78531 0.0
C504 C 0.30303 0.12868 0.82204 0.0
C505 C 0.36701 0.17357 0.80984 0.0
C506 C 0.28699 0.12096 0.79755 0.0
C507 C 0.34321 0.15517 0.82852 0.0
C508 C 0.29312 0.13149 0.75346 0.0
C509 C 0.28191 0.17149 0.66726 0.0
H510 H 0.32868 0.10097 0.58375 0.0
H511 H 0.36984 0.21467 0.53577 0.0
H512 H 0.30697 0.09031 0.53988 0.0
H513 H 0.39263 0.22504 0.57931 0.0
H514 H 0.36983 0.1801 0.77124 0.0
H515 H 0.28379 0.11434 0.83597 0.0
H516 H 0.39813 0.19374 0.81415 0.0
H517 H 0.2559 0.1007 0.79306 0.0
Eu518 Eu 0.8613 0.19298 0.68974 0.0
Eu519 Eu 0.83065 0.19841 0.63347 0.0
C520 C 0.87626 0.27176 0.67201 0.0
C521 C 0.87322 0.19087 0.75993 0.0
C522 C 0.83975 0.19312 0.76448 0.0
C523 C 0.88627 0.18966 0.80365 0.0
C524 C 0.82994 0.19423 0.78855 0.0
C525 C 0.89603 0.18858 0.77961 0.0
C526 C 0.85349 0.19319 0.8085 0.0
C527 C 0.88679 0.19449 0.73526 0.0
O528 O 0.89499 0.21771 0.63358 0.0
O529 O 0.90302 0.18684 0.66564 0.0
C530 C 0.91489 0.20439 0.64563 0.0
O531 O 0.81492 0.13271 0.67464 0.0
O532 O 0.83745 0.23208 0.60225 0.0
O533 O 0.79268 0.17123 0.5991 0.0
O534 O 0.82779 0.1404 0.63469 0.0
C535 C 0.81349 0.11788 0.65237 0.0
O536 O 0.80622 0.19617 0.6937 0.0
O537 O 0.77652 0.1763 0.65401 0.0
O538 O 0.84397 0.25315 0.65696 0.0
O539 O 0.87061 0.16327 0.71969 0.0
O540 O 0.89148 0.22507 0.72503 0.0
O541 O 0.89443 0.25349 0.67886 0.0
C542 C 0.82699 0.1951 0.56454 0.0
C543 C 0.86143 0.19288 0.56557 0.0
C544 C 0.82066 0.18389 0.51997 0.0
C545 C 0.87555 0.18653 0.544 0.0
C546 C 0.80664 0.19047 0.54162 0.0
C547 C 0.85541 0.18201 0.5209 0.0
C548 C 0.81229 0.20178 0.5874 0.0
C549 C 0.77494 0.18243 0.67772 0.0
H550 H 0.82191 0.19518 0.74951 0.0
H551 H 0.90467 0.18813 0.81848 0.0
H552 H 0.80472 0.1973 0.79159 0.0
H553 H 0.92203 0.18693 0.77645 0.0
H554 H 0.87739 0.19598 0.58309 0.0
H555 H 0.80458 0.18079 0.50249 0.0
H556 H 0.90198 0.18458 0.54547 0.0
H557 H 0.77995 0.19198 0.54045 0.0
C558 C 0.34306 0.90754 0.06034 0.0
C559 C 0.33634 0.8693 0.05993 0.0
H560 H 0.37987 0.96546 0.05086 0.0
C561 C 0.3626 0.86061 0.04852 0.0
H562 H 0.32331 0.91541 0.06846 0.0
C563 C 0.39413 0.88902 0.03756 0.0
C564 C 0.40091 0.92713 0.03835 0.0
H565 H 0.35933 0.83194 0.04833 0.0
H566 H 0.414 0.88147 0.02925 0.0
C567 C 0.37521 0.93617 0.04994 0.0
C568 C 0.10961 0.41531 0.06535 0.0
C569 C 0.14944 0.4396 0.06201 0.0
H570 H 0.05056 0.40296 0.05822 0.0
C571 C 0.15929 0.46962 0.04665 0.0
H572 H 0.10062 0.39113 0.07641 0.0
C573 C 0.13013 0.47608 0.0358 0.0
C574 C 0.09057 0.45271 0.04014 0.0
H575 H 0.18962 0.48883 0.04364 0.0
H576 H 0.13874 0.50009 0.02463 0.0
C577 C 0.08071 0.42192 0.05474 0.0
C578 C 0.59854 0.6951 0.05217 0.0
C579 C 0.58013 0.71622 0.04595 0.0
H580 H 0.60206 0.64389 0.04473 0.0
C581 C 0.55031 0.701 0.02627 0.0
H582 H 0.62207 0.70641 0.06694 0.0
C583 C 0.53866 0.66488 0.01338 0.0
C584 C 0.55701 0.64368 0.01978 0.0
H585 H 0.53566 0.71679 0.02111 0.0
H586 H 0.51518 0.65348 0.99859 0.0
C587 C 0.58725 0.65939 0.03921 0.0
C588 C 0.87222 0.32954 0.94816 0.0
C589 C 0.85695 0.29553 0.96037 0.0
H590 H 0.91195 0.39099 0.9503 0.0
C591 C 0.8677 0.29937 0.98584 0.0
H592 H 0.86375 0.32829 0.92884 0.0
C593 C 0.89441 0.33591 0.99836 0.0
C594 C 0.9115 0.36908 0.98555 0.0
H595 H 0.85696 0.27402 0.99593 0.0
H596 H 0.90323 0.3379 0.01772 0.0
C597 C 0.89963 0.36565 0.96049 0.0
C598 C 0.67339 0.52863 0.96975 0.0
C599 C 0.69217 0.55652 0.95313 0.0
H600 H 0.62479 0.50083 0.99126 0.0
C601 C 0.67378 0.57683 0.94471 0.0
H602 H 0.68603 0.51171 0.9763 0.0
C603 C 0.6382 0.56998 0.953 0.0
C604 C 0.62018 0.543 0.97018 0.0
H605 H 0.68736 0.59893 0.93226 0.0
H606 H 0.62529 0.58659 0.9463 0.0
C607 C 0.63808 0.52219 0.97831 0.0
C608 C 0.44481 0.1366 1.00173 0.0
C609 C 0.44832 0.14392 0.97682 0.0
H610 H 0.45443 0.10742 0.03087 0.0
C611 C 0.46563 0.12731 0.96243 0.0
H612 H 0.431 0.14814 0.01337 0.0
C613 C 0.47784 0.10318 0.97238 0.0
C614 C 0.47411 0.09594 0.9971 0.0
H615 H 0.46995 0.13297 0.94346 0.0
H616 H 0.49029 0.09009 0.96071 0.0
C617 C 0.4581 0.11323 0.01186 0.0
C618 C 0.68806 0.13035 1.00356 0.0
C619 C 0.69065 0.14 0.97928 0.0
H620 H 0.65005 0.10214 0.03121 0.0
C621 C 0.65661 0.1319 0.96474 0.0
H622 H 0.71406 0.13594 0.01494 0.0
C623 C 0.62002 0.11236 0.97386 0.0
C624 C 0.61683 0.10046 0.99772 0.0
H625 H 0.65803 0.13877 0.94585 0.0
H626 H 0.59408 0.10503 0.96177 0.0
C627 C 0.65141 0.11092 0.0128 0.0
C628 C 0.88906 0.53337 0.96268 0.0
C629 C 0.87143 0.54377 0.98081 0.0
H630 H 0.92728 0.51109 0.95487 0.0
C631 C 0.87806 0.53864 1.00533 0.0
H632 H 0.88427 0.53719 0.94362 0.0
C633 C 0.90251 0.52389 0.01186 0.0
C634 C 0.9209 0.51387 0.99393 0.0
H635 H 0.86465 0.54652 0.0196 0.0
H636 H 0.90729 0.52077 0.03105 0.0
C637 C 0.91358 0.51843 0.96918 0.0
C638 C 0.42509 0.34452 0.99647 0.0
C639 C 0.43705 0.32831 0.97795 0.0
H640 H 0.42908 0.39618 0.01345 0.0
C641 C 0.45996 0.35149 0.96046 0.0
H642 H 0.40763 0.32695 0.01022 0.0
C643 C 0.47229 0.39128 0.96221 0.0
C644 C 0.46228 0.40811 0.98172 0.0
H645 H 0.46974 0.3393 0.9462 0.0
H646 H 0.49129 0.40912 0.94914 0.0
C647 C 0.43763 0.38412 0.99838 0.0
C648 C 0.14904 0.63719 0.07126 0.0
C649 C 0.1588 0.6669 0.05585 0.0
H650 H 0.10892 0.57783 0.07676 0.0
C651 C 0.13372 0.66077 0.03487 0.0
H652 H 0.16847 0.64146 0.08741 0.0
C653 C 0.10006 0.62454 0.02861 0.0
C654 C 0.09099 0.59386 0.04327 0.0
H655 H 0.1411 0.6834 0.02268 0.0
H656 H 0.08192 0.62022 0.01179 0.0
C657 C 0.11512 0.60087 0.0651 0.0
C658 C 0.33377 0.46685 0.01603 0.0
C659 C 0.33194 0.4714 0.04139 0.0
H660 H 0.37064 0.47783 0.98681 0.0
C661 C 0.36682 0.49389 0.05684 0.0
H662 H 0.30718 0.44908 1.00382 0.0
C663 C 0.40321 0.51017 0.04723 0.0
C664 C 0.40545 0.50409 0.02193 0.0
H665 H 0.36608 0.4973 0.07652 0.0
H666 H 0.42961 0.52616 0.05982 0.0
C667 C 0.37018 0.48321 1.00635 0.0
C668 C 0.58807 0.91102 0.01834 0.0
C669 C 0.59069 0.90018 0.04184 0.0
H670 H 0.56887 0.94102 0.99546 0.0
C671 C 0.57507 0.91117 0.06097 0.0
H672 H 0.59995 0.9026 1.00337 0.0
C673 C 0.55707 0.93329 0.05654 0.0
C674 C 0.55464 0.94455 0.03291 0.0
H675 H 0.57689 0.90282 0.07925 0.0
H676 H 0.54536 0.94174 0.07157 0.0
C677 C 0.57023 0.933 0.01388 0.0
C678 C 1.0063 0.19562 0.36907 0.0
C679 C 1.00075 0.20029 0.39398 0.0
H680 H 0.04312 0.21912 0.34003 0.0
C681 C 0.02909 0.23412 0.40854 0.0
H682 H 0.98482 0.17031 0.35712 0.0
C683 C 0.062 0.26231 0.39858 0.0
C684 C 0.06784 0.25733 0.37385 0.0
H685 H 0.02646 0.23853 0.42786 0.0
H686 H 0.08335 0.28772 0.41052 0.0
C687 C 0.03963 0.22366 0.35918 0.0
C688 C 0.80272 0.79706 0.41185 0.0
C689 C 0.82142 0.7821 0.3973 0.0
H690 H 0.75899 0.81383 0.41326 0.0
C691 C 0.81186 0.77641 0.37161 0.0
H692 H 0.81008 0.80335 0.43154 0.0
C693 C 0.78328 0.78392 0.36102 0.0
C694 C 0.76305 0.79633 0.37593 0.0
H695 H 0.82523 0.76472 0.3597 0.0
H696 H 0.77581 0.77839 0.34131 0.0
C697 C 0.77351 0.80339 0.40137 0.0
C698 C 0.21297 0.02102 0.38154 0.0
C699 C 0.24713 0.05332 0.37522 0.0
H700 H 0.17258 0.9596 0.37411 0.0
C701 C 0.26569 0.04859 0.35525 0.0
H702 H 0.1981 0.02396 0.3968 0.0
C703 C 0.25128 0.01191 0.34247 0.0
C704 C 0.21758 0.97968 0.34908 0.0
H705 H 0.29229 0.07294 0.35017 0.0
H706 H 0.26708 0.00848 0.32793 0.0
C707 C 0.19816 0.98446 0.36844 0.0
C708 C 0.5204 0.64408 0.31287 0.0
C709 C 0.53248 0.62591 0.29542 0.0
H710 H 0.53733 0.69434 0.33833 0.0
C711 C 0.57248 0.64406 0.29175 0.0
H712 H 0.48981 0.63078 0.31619 0.0
C713 C 0.59939 0.68013 0.30421 0.0
C714 C 0.58731 0.69919 0.32095 0.0
H715 H 0.58312 0.63044 0.27903 0.0
H716 H 0.62978 0.69327 0.30044 0.0
C717 C 0.54759 0.68045 0.32553 0.0
C718 C 0.3426 0.91612 0.27964 0.0
C719 C 0.36039 0.89514 0.28784 0.0
H720 H 0.29451 0.92659 0.28135 0.0
C721 C 0.34118 0.86707 0.30428 0.0
H722 H 0.35653 0.93837 0.26733 0.0
C723 C 0.30604 0.86105 0.31284 0.0
C724 C 0.28867 0.88239 0.30487 0.0
H725 H 0.35328 0.84959 0.31062 0.0
H726 H 0.29235 0.83942 0.32559 0.0
C727 C 0.30709 0.90961 0.2879 0.0
C728 C 0.09928 0.43813 0.30346 0.0
C729 C 0.12351 0.47823 0.31007 0.0
H730 H 0.08833 0.38088 0.30818 0.0
C731 C 0.15604 0.49112 0.32769 0.0
H732 H 0.07359 0.42716 0.29035 0.0
C733 C 0.16433 0.46447 0.33823 0.0
C734 C 0.14032 0.4244 0.33132 0.0
H735 H 0.1755 0.5219 0.33305 0.0
H736 H 0.18997 0.47533 0.35137 0.0
C737 C 0.10758 0.41157 0.31393 0.0
C738 C 0.32368 0.45477 0.29469 0.0
C739 C 0.35796 0.46711 0.31032 0.0
H740 H 0.2609 0.42404 0.29072 0.0
C741 C 0.3552 0.46028 0.3351 0.0
H742 H 0.32527 0.45943 0.2754 0.0
C743 C 0.31839 0.43987 0.34397 0.0
C744 C 0.28372 0.42567 0.32808 0.0
H745 H 0.38142 0.46921 0.34737 0.0
H746 H 0.31716 0.43381 0.363 0.0
C747 C 0.28686 0.43432 0.30348 0.0
C748 C 0.55331 0.86452 0.29594 0.0
C749 C 0.54044 0.88054 0.31413 0.0
H750 H 0.58762 0.83758 0.28825 0.0
C751 C 0.55195 0.8812 0.33888 0.0
H752 H 0.54457 0.86366 0.27671 0.0
C753 C 0.57625 0.86638 0.34554 0.0
C754 C 0.58966 0.85045 0.32754 0.0
H755 H 0.54215 0.89331 0.3532 0.0
H756 H 0.58462 0.8676 0.36489 0.0
C757 C 0.5778 0.84955 0.3026 0.0
C758 C 0.10567 0.68166 0.33288 0.0
C759 C 0.11728 0.6664 0.3136 0.0
H760 H 0.1071 0.7319 0.35016 0.0
C761 C 0.13736 0.68987 0.29539 0.0
H762 H 0.09038 0.66389 0.34718 0.0
C763 C 0.147 0.72896 0.297 0.0
C764 C 0.13708 0.74493 0.31705 0.0
H765 H 0.14685 0.67846 0.28051 0.0
H766 H 0.16365 0.747 0.2832 0.0
C767 C 0.11549 0.72061 0.33462 0.0
C768 C 0.81005 0.99205 0.36969 0.0
C769 C 0.83113 0.99749 0.39239 0.0
H770 H 0.76037 0.95319 0.34447 0.0
C771 C 0.81654 0.96826 0.40834 0.0
H772 H 0.82115 0.01435 0.3571 0.0
C773 C 0.78169 0.93312 0.4012 0.0
C774 C 0.76133 0.92676 0.37789 0.0
H775 H 0.83277 0.972 0.42589 0.0
H776 H 0.77168 0.91042 0.41349 0.0
C777 C 0.77542 0.95699 0.36247 0.0
C778 C 0.03157 0.82959 0.38837 0.0
C779 C 0.9969 0.80487 0.37323 0.0
H780 H 0.09426 0.86355 0.39124 0.0
C781 C 0.99889 0.79797 0.34811 0.0
H782 H 0.03073 0.83481 0.40789 0.0
C783 C 0.03533 0.81425 0.33846 0.0
C784 C 0.07046 0.83739 0.35385 0.0
H785 H 0.97248 0.77842 0.33618 0.0
H786 H 0.03601 0.80709 0.3192 0.0
C787 C 0.06798 0.84577 0.3788 0.0
C788 C 0.25207 0.23652 0.34833 0.0
C789 C 0.26098 0.23124 0.37236 0.0
H790 H 0.22592 0.26053 0.32519 0.0
C791 C 0.24875 0.24512 0.39206 0.0
H792 H 0.26133 0.22587 0.33293 0.0
C793 C 0.22838 0.265 0.38774 0.0
C794 C 0.22016 0.27128 0.36364 0.0
H795 H 0.2555 0.24118 0.41076 0.0
H796 H 0.21988 0.27614 0.40329 0.0
C797 C 0.23182 0.25636 0.34398 0.0
C798 C 0.69182 0.56701 0.74012 0.0
C799 C 0.66377 0.53242 0.72609 0.0
H800 H 0.74534 0.62113 0.74127 0.0
C801 C 0.66893 0.52699 0.70119 0.0
H802 H 0.68952 0.57204 0.75942 0.0
C803 C 0.7017 0.55498 0.69083 0.0
C804 C 0.72964 0.58936 0.70499 0.0
H805 H 0.64763 0.50106 0.68963 0.0
H806 H 0.70505 0.54979 0.67174 0.0
C807 C 0.72411 0.59516 0.72968 0.0
C808 C 0.46722 0.13011 0.74383 0.0
C809 C 0.48513 0.11403 0.72948 0.0
H810 H 0.42392 0.1474 0.74512 0.0
C811 C 0.47421 0.10638 0.7039 0.0
H812 H 0.4756 0.13785 0.76338 0.0
C813 C 0.44515 0.11319 0.69326 0.0
C814 C 0.4258 0.1269 0.70805 0.0
H815 H 0.48699 0.09379 0.69217 0.0
H816 H 0.43673 0.10629 0.67366 0.0
C817 C 0.43761 0.13583 0.73335 0.0
C818 C 0.93571 0.36376 0.71471 0.0
C819 C 0.91479 0.3833 0.71124 0.0
H820 H 0.94058 0.31405 0.70468 0.0
C821 C 0.88243 0.36746 0.69328 0.0
H822 H 0.9612 0.37575 0.72811 0.0
C823 C 0.8702 0.33159 0.67976 0.0
C824 C 0.89058 0.31149 0.68384 0.0
H825 H 0.866 0.38224 0.69024 0.0
H826 H 0.84441 0.31924 0.66661 0.0
C827 C 0.92392 0.32846 0.70111 0.0
C828 C 0.20161 0.99524 0.6149 0.0
C829 C 0.18855 0.96153 0.62728 0.0
H830 H 0.23963 0.05691 0.61627 0.0
C831 C 0.20171 0.96607 0.6524 0.0
H832 H 0.19127 0.99342 0.59587 0.0
C833 C 0.2285 0.00303 0.66437 0.0
C834 C 0.24334 0.03597 0.65132 0.0
H835 H 0.19279 0.94102 0.66262 0.0
H836 H 0.23911 0.00556 0.68344 0.0
C837 C 0.22913 0.0318 0.62663 0.0
C838 C 1.00601 0.24517 0.61136 0.0
C839 C 0.02533 0.2261 0.62046 0.0
H840 H 0.95637 0.2532 0.61198 0.0
C841 C 1.00714 0.19879 0.6375 0.0
H842 H 0.01913 0.2669 0.59862 0.0
C843 C 0.97134 0.19159 0.64566 0.0
C844 C 0.95243 0.21105 0.63674 0.0
H845 H 0.02056 0.18288 0.64462 0.0
H846 H 0.95845 0.17068 0.65893 0.0
C847 C 0.97 0.23754 0.61925 0.0
C848 C 0.7853 0.80333 0.6671 0.0
C849 C 0.78709 0.80924 0.64193 0.0
H850 H 0.79454 0.77385 0.69619 0.0
C851 C 0.80062 0.78944 0.62693 0.0
H852 H 0.77434 0.81732 0.67924 0.0
C853 C 0.81093 0.76376 0.63659 0.0
C854 C 0.80905 0.75803 0.6616 0.0
H855 H 0.80352 0.79385 0.60769 0.0
H856 H 0.82058 0.74838 0.62448 0.0
C857 C 0.79674 0.77837 0.67691 0.0
C858 C 0.01925 0.79055 0.66946 0.0
C859 C 0.02281 0.79786 0.64477 0.0
H860 H 0.9802 0.76336 0.6968 0.0
C861 C 0.98896 0.7856 0.62874 0.0
H862 H 0.04514 0.79942 0.68204 0.0
C863 C 0.9518 0.76478 0.63703 0.0
C864 C 0.94785 0.7557 0.66154 0.0
H865 H 0.99116 0.79063 0.60953 0.0
H866 H 0.92621 0.75463 0.62396 0.0
C867 C 0.98207 0.76978 0.67784 0.0
C868 C 0.21395 0.21282 0.67219 0.0
C869 C 0.20619 0.21707 0.64766 0.0
H870 H 0.24361 0.19502 0.69761 0.0
C871 C 0.22241 0.20537 0.62924 0.0
H872 H 0.20163 0.22168 0.68668 0.0
C873 C 0.24658 0.1899 0.63544 0.0
C874 C 0.25493 0.18609 0.66017 0.0
H875 H 0.21671 0.20849 0.61017 0.0
H876 H 0.25912 0.18145 0.62091 0.0
C877 C 0.23804 0.19754 0.67841 0.0
C878 C 0.80015 0.02139 0.62627 0.0
C879 C 0.78028 0.99761 0.6444 0.0
H880 H 0.82597 0.07867 0.61437 0.0
C881 C 0.76799 0.01224 0.66362 0.0
H882 H 0.81019 0.01046 0.61145 0.0
C883 C 0.77726 0.05102 0.66551 0.0
C884 C 0.79896 0.07574 0.64814 0.0
H885 H 0.75288 0.99423 0.67788 0.0
H886 H 0.76862 0.06195 0.68109 0.0
C887 C 0.80921 0.06028 0.62801 0.0
C888 C 0.47705 0.32474 0.70261 0.0
C889 C 0.49725 0.32976 0.72559 0.0
H890 H 0.42795 0.28649 0.67682 0.0
C891 C 0.48179 0.30034 0.74136 0.0
H892 H 0.48885 0.3472 0.69017 0.0
C893 C 0.44689 0.26547 0.73381 0.0
C894 C 0.4273 0.25956 0.71028 0.0
H895 H 0.49733 0.30376 0.75911 0.0
H896 H 0.43614 0.24266 0.74602 0.0
C897 C 0.44234 0.28994 0.69499 0.0
C898 C 0.69743 0.16096 0.72191 0.0
C899 C 0.66261 0.13804 0.70648 0.0
H900 H 0.76022 0.19344 0.72497 0.0
C901 C 0.66455 0.13291 0.68118 0.0
H902 H 0.69662 0.16481 0.74156 0.0
C903 C 0.70101 0.14914 0.67156 0.0
C904 C 0.73623 0.17047 0.68715 0.0
H905 H 0.63802 0.11477 0.669 0.0
H906 H 0.70156 0.14333 0.65208 0.0
C907 C 0.73387 0.17711 0.71236 0.0
C908 C 0.91187 0.56389 0.68504 0.0
C909 C 0.91823 0.55804 0.70938 0.0
H910 H 0.88872 0.58895 0.66052 0.0
C911 C 0.90424 0.57167 0.72817 0.0
H912 H 0.9226 0.55349 0.67035 0.0
C913 C 0.88477 0.59202 0.72266 0.0
C914 C 0.87932 0.59906 0.69828 0.0
H915 H 0.90909 0.56733 0.74711 0.0
H916 H 0.87496 0.60306 0.73754 0.0
C917 C 0.89255 0.58422 0.6795 0.0
C918 C 0.43611 0.92707 0.20494 0.0
C919 C 0.46195 0.94105 0.22667 0.0
H920 H 0.42666 0.93378 0.16707 0.0
C921 C 0.50003 0.97274 0.22583 0.0
H922 H 0.4067 0.90252 0.20475 0.0
C923 C 0.51164 0.99044 0.20411 0.0
C924 C 0.48554 0.97708 0.18254 0.0
H925 H 0.52067 0.98473 0.24217 0.0
H926 H 0.54117 0.01479 0.2043 0.0
C927 C 0.44774 0.9448 0.1832 0.0
C928 C 0.04325 0.5262 0.23103 0.0
C929 C 0.07528 0.52123 0.23778 0.0
H930 H 1.0018 0.52166 0.20217 0.0
C931 C 0.09062 0.50813 0.21938 0.0
H932 H 0.0304 0.53587 0.24472 0.0
C933 C 0.0739 0.49953 0.19497 0.0
C934 C 0.04132 0.5037 0.18833 0.0
H935 H 0.11554 0.50436 0.22385 0.0
H936 H 0.08595 0.48872 0.1814 0.0
C937 C 0.02649 0.51754 0.20665 0.0
C938 C 0.46393 0.51838 0.19749 0.0
C939 C 0.4947 0.54153 0.21592 0.0
H940 H 0.44752 0.49483 0.15971 0.0
C941 C 0.53353 0.55894 0.20973 0.0
H942 H 0.43368 0.50471 0.2016 0.0
C943 C 0.54142 0.55349 0.18577 0.0
C944 C 0.51074 0.53041 0.16729 0.0
H945 H 0.558 0.57648 0.2235 0.0
H946 H 0.5717 0.56782 0.18167 0.0
C947 C 0.47185 0.51299 0.17343 0.0
C948 C 0.97901 0.44038 0.80282 0.0
C949 C 0.9598 0.4596 0.7939 0.0
H950 H 1.00635 0.43001 0.8341 0.0
C951 C 0.95205 0.48245 0.81064 0.0
H952 H 0.98574 0.42285 0.79037 0.0
C953 C 0.96401 0.48666 0.83569 0.0
C954 C 0.98425 0.46835 0.8445 0.0
H955 H 0.93704 0.49736 0.80432 0.0
H956 H 0.95847 0.50522 0.84806 0.0
C957 C 0.99118 0.44479 0.82783 0.0
C958 C 0.52558 0.47158 0.79215 0.0
C959 C 0.5659 0.49209 0.78918 0.0
H960 H 0.48037 0.46293 0.81515 0.0
C961 C 0.59161 0.52144 0.80762 0.0
H962 H 0.50493 0.44898 0.77824 0.0
C963 C 0.57753 0.52952 0.82869 0.0
C964 C 0.53734 0.50856 0.8319 0.0
H965 H 0.62288 0.53752 0.80611 0.0
H966 H 0.59824 0.55216 0.84256 0.0
C967 C 0.51146 0.47981 0.81322 0.0
C968 C 0.5525 0.07091 0.81924 0.0
C969 C 0.52147 0.06034 0.80093 0.0
H970 H 0.56977 0.06525 0.85588 0.0
C971 C 0.48288 0.03517 0.80628 0.0
H972 H 0.58255 0.09046 0.81582 0.0
C973 C 0.47552 0.02087 0.8293 0.0
C974 C 0.50654 0.03148 0.84763 0.0
H975 H 0.45829 0.02608 0.79256 0.0
H976 H 0.44542 0.0017 0.83279 0.0
C977 C 0.54513 0.05678 0.84231 0.0
C978 C 0.11205 0.29935 0.54969 0.0
C979 C 0.12648 0.27636 0.55941 0.0
H980 H 0.11297 0.33444 0.5213 0.0
C981 C 0.15369 0.27111 0.54662 0.0
H982 H 0.09188 0.30504 0.55922 0.0
C983 C 0.16617 0.28849 0.52485 0.0
C984 C 0.15163 0.31141 0.51521 0.0
H985 H 0.1652 0.25334 0.55331 0.0
H986 H 0.18692 0.28362 0.51541 0.0
C987 C 0.12429 0.31645 0.5279 0.0
C988 C 0.74702 0.83469 0.55241 0.0
C989 C 0.73252 0.84883 0.57078 0.0
H990 H 0.74204 0.81516 0.51447 0.0
C991 C 0.70138 0.85516 0.56403 0.0
H992 H 0.77128 0.82991 0.55689 0.0
C993 C 0.68481 0.84701 0.5396 0.0
C994 C 0.69904 0.83245 0.52128 0.0
H995 H 0.6893 0.86576 0.5777 0.0
H996 H 0.66091 0.85231 0.53505 0.0
C997 C 0.73052 0.82663 0.528 0.0
C998 C 0.15895 0.8995 0.53315 0.0
C999 C 0.15688 0.87314 0.54982 0.0
H1000 H 0.16861 0.91646 0.49671 0.0
C1001 C 0.16205 0.84203 0.54155 0.0
H1002 H 0.15473 0.92357 0.53887 0.0
C1003 C 0.16984 0.83783 0.51731 0.0
C1004 C 0.17232 0.86446 0.50072 0.0
H1005 H 0.16093 0.82138 0.55396 0.0
H1006 H 0.17392 0.8137 0.51154 0.0
C1007 C 0.16647 0.89517 0.5089 0.0
C1008 C 0.60181 0.77627 0.14083 0.0
C1009 C 0.62601 0.80308 0.12515 0.0
H1010 H 0.59407 0.76033 0.17763 0.0
C1011 C 0.66198 0.83512 0.13528 0.0
H1012 H 0.57377 0.75146 0.13362 0.0
C1013 C 0.67367 0.84009 0.16039 0.0
C1014 C 0.64968 0.81322 0.1761 0.0
H1015 H 0.68173 0.85586 0.12368 0.0
H1016 H 0.70208 0.86457 0.16737 0.0
C1017 C 0.6135 0.78131 0.16602 0.0
C1018 C 0.26358 0.85092 0.14343 0.0
C1019 C 0.23789 0.82618 0.12317 0.0
H1020 H 0.26965 0.87749 0.17976 0.0
C1021 C 0.19723 0.80938 0.12446 0.0
H1022 H 0.29504 0.86407 0.14319 0.0
C1023 C 0.18264 0.81682 0.14552 0.0
C1024 C 0.20831 0.84116 0.16591 0.0
H1025 H 0.1766 0.79048 0.10912 0.0
H1026 H 0.15116 0.80287 0.14599 0.0
C1027 C 0.24899 0.85825 0.16453 0.0
C1028 C 0.15246 0.37095 0.14073 0.0
C1029 C 0.19135 0.39626 0.13595 0.0
H1030 H 0.11391 0.33648 0.16639 0.0
C1031 C 0.22182 0.40598 0.15451 0.0
H1032 H 0.12826 0.36236 0.12678 0.0
C1033 C 0.21356 0.39078 0.17726 0.0
C1034 C 0.17464 0.36526 0.18193 0.0
H1035 H 0.25207 0.42553 0.1515 0.0
H1036 H 0.23773 0.39852 0.19104 0.0
C1037 C 0.14423 0.35568 0.16338 0.0
C1038 C 0.83186 0.63593 0.89112 0.0
C1039 C 0.79398 0.60393 0.89203 0.0
H1040 H 0.87287 0.67771 0.86942 0.0
C1041 C 0.76827 0.58935 0.87025 0.0
H1042 H 0.85242 0.64845 0.90749 0.0
C1043 C 0.77985 0.6067 0.84837 0.0
C1044 C 0.8175 0.63917 0.84761 0.0
H1045 H 0.73901 0.56455 0.87009 0.0
H1046 H 0.75887 0.59515 0.83218 0.0
C1047 C 0.84344 0.6532 0.86927 0.0
C1048 C 0.40249 0.20949 0.88938 0.0
C1049 C 0.39128 0.17912 0.90457 0.0
H1050 H 0.39618 0.22582 0.85355 0.0
C1051 C 0.36426 0.14087 0.89449 0.0
H1052 H 0.42347 0.23923 0.89651 0.0
C1053 C 0.34884 0.13317 0.86988 0.0
C1054 C 0.36008 0.16348 0.85466 0.0
H1055 H 0.35466 0.11683 0.90572 0.0
H1056 H 0.32832 0.10333 0.8627 0.0
C1057 C 0.38718 0.20175 0.8647 0.0
C1058 C 0.79822 0.18385 0.86472 0.0
C1059 C 0.82892 0.20721 0.88316 0.0
H1060 H 0.78176 0.16079 0.82689 0.0
C1061 C 0.86772 0.22527 0.87689 0.0
H1062 H 0.76796 0.16976 0.86885 0.0
C1063 C 0.8756 0.22043 0.8528 0.0
C1064 C 0.84491 0.19735 0.8343 0.0
H1065 H 0.89213 0.24308 0.89065 0.0
H1066 H 0.90582 0.23538 0.8486 0.0
C1067 C 0.8061 0.17903 0.8406 0.0
C1068 C 0.27613 0.11143 0.47193 0.0
C1069 C 0.30264 0.13572 0.45614 0.0
H1070 H 0.26573 0.09782 0.509 0.0
C1071 C 0.34057 0.16435 0.46611 0.0
H1072 H 0.24665 0.08921 0.46477 0.0
C1073 C 0.35162 0.16908 0.49128 0.0
C1074 C 0.32496 0.14545 0.50725 0.0
H1075 H 0.36197 0.18295 0.45437 0.0
H1076 H 0.3813 0.19111 0.49818 0.0
C1077 C 0.28713 0.11633 0.49724 0.0
C1078 C 0.92579 0.18787 0.47458 0.0
C1079 C 0.90044 0.15942 0.45561 0.0
H1080 H 0.93155 0.21749 0.50978 0.0
C1081 C 0.85988 0.13945 0.45788 0.0
H1082 H 0.95721 0.20353 0.47361 0.0
C1083 C 0.84515 0.14728 0.47878 0.0
C1084 C 0.87065 0.17509 0.498 0.0
H1085 H 0.83949 0.11756 0.44354 0.0
H1086 H 0.81386 0.13081 0.48016 0.0
C1087 C 0.91111 0.19555 0.49549 0.0
C1088 C 0.8843 0.73292 0.48591 0.0
C1089 C 0.85392 0.72324 0.46731 0.0
H1090 H 0.90015 0.72554 0.52245 0.0
C1091 C 0.81501 0.69777 0.47195 0.0
H1092 H 0.91456 0.75267 0.48302 0.0
C1093 C 0.80672 0.68232 0.49459 0.0
C1094 C 0.83709 0.69212 0.51324 0.0
H1095 H 0.79092 0.68937 0.45796 0.0
H1096 H 0.77641 0.66298 0.49758 0.0
C1097 C 0.87599 0.71768 0.50861 0.0
loop_
_geom_bond_atom_site_label_1
_geom_bond_atom_site_label_2
_geom_bond_distance
_geom_bond_site_symmetry_2
_ccdc_geom_bond_type
H0 C3 0.929 . S
H1 C6 0.929 . S
H2 C8 0.930 . S
C3 H0 0.929 . S
C3 C4 1.398 . S
C3 C5 1.396 . S
C4 C3 1.398 . S
C4 C8 1.407 . S
C5 C3 1.396 . S
C5 C6 1.394 . S
C6 H1 0.929 . S
C6 C5 1.394 . S
C6 C7 1.382 . S
C7 C6 1.382 . S
C7 C8 1.392 . S
C7 N9 1.420 . S
C8 H2 0.930 . S
C8 C4 1.407 . S
C8 C7 1.392 . S
N9 C7 1.420 . S
N9 C10 1.244 . S
C10 N9 1.244 . S
H11 C14 0.929 . S
H12 C17 0.929 . S
H13 C19 0.930 . S
C14 H11 0.929 . S
C14 C15 1.398 . S
C14 C16 1.396 . S
C15 C14 1.398 . S
C15 C19 1.407 . S
C16 C14 1.396 . S
C16 C17 1.394 . S
C17 H12 0.929 . S
C17 C16 1.394 . S
C17 C18 1.382 . S
C18 C17 1.382 . S
C18 C19 1.392 . S
C18 N20 1.420 . S
C19 H13 0.930 . S
C19 C15 1.407 . S
C19 C18 1.392 . S
N20 C18 1.420 . S
N20 C21 1.244 . S
C21 N20 1.244 . S
H22 C25 0.929 . S
H23 C28 0.929 . S
H24 C30 0.930 . S
C25 H22 0.929 . S
C25 C26 1.398 . S
C25 C27 1.396 . S
C26 C25 1.398 . S
C26 C30 1.407 . S
C27 C25 1.396 . S
C27 C28 1.394 . S
C28 H23 0.929 . S
C28 C27 1.394 . S
C28 C29 1.382 . S
C29 C28 1.382 . S
C29 C30 1.392 . S
C29 N31 1.420 . S
C30 H24 0.930 . S
C30 C26 1.407 . S
C30 C29 1.392 . S
N31 C29 1.420 . S
N31 C32 1.244 . S
C32 N31 1.244 . S
H33 C36 0.929 . S
H34 C39 0.929 . S
H35 C41 0.930 . S
C36 H33 0.929 . S
C36 C37 1.398 . S
C36 C38 1.396 . S
C37 C36 1.398 . S
C37 C41 1.407 . S
C38 C36 1.396 . S
C38 C39 1.394 . S
C39 H34 0.929 . S
C39 C38 1.394 . S
C39 C40 1.382 . S
C40 C39 1.382 . S
C40 C41 1.392 . S
C40 N42 1.420 . S
C41 H35 0.930 . S
C41 C37 1.407 . S
C41 C40 1.392 . S
N42 C40 1.420 . S
N42 C43 1.244 . S
C43 N42 1.244 . S
H44 C47 0.929 . S
H45 C50 0.929 . S
H46 C52 0.930 . S
C47 H44 0.929 . S
C47 C48 1.398 . S
C47 C49 1.396 . S
C48 C47 1.398 . S
C48 C52 1.407 . S
C49 C47 1.396 . S
C49 C50 1.394 . S
C50 H45 0.929 . S
C50 C49 1.394 . S
C50 C51 1.382 . S
C51 C50 1.382 . S
C51 C52 1.392 . S
C51 N53 1.420 . S
C52 H46 0.930 . S
C52 C48 1.407 . S
C52 C51 1.392 . S
N53 C51 1.420 . S
N53 C54 1.244 . S
C54 N53 1.244 . S
H55 C58 0.929 . S
H56 C61 0.929 . S
H57 C63 0.930 . S
C58 H55 0.929 . S
C58 C59 1.398 . S
C58 C60 1.396 . S
C59 C58 1.398 . S
C59 C63 1.407 . S
C60 C58 1.396 . S
C60 C61 1.394 . S
C61 H56 0.929 . S
C61 C60 1.394 . S
C61 C62 1.382 . S
C62 C61 1.382 . S
C62 C63 1.392 . S
C62 N64 1.420 . S
C63 H57 0.930 . S
C63 C59 1.407 . S
C63 C62 1.392 . S
N64 C62 1.420 . S
N64 C65 1.244 . S
C65 N64 1.244 . S
H66 C69 0.929 . S
H67 C72 0.929 . S
H68 C74 0.930 . S
C69 H66 0.929 . S
C69 C70 1.398 . S
C69 C71 1.396 . S
C70 C69 1.398 . S
C70 C74 1.407 . S
C71 C69 1.396 . S
C71 C72 1.394 . S
C72 H67 0.929 . S
C72 C71 1.394 . S
C72 C73 1.382 . S
C73 C72 1.382 . S
C73 C74 1.392 . S
C73 N75 1.420 . S
C74 H68 0.930 . S
C74 C70 1.407 . S
C74 C73 1.392 . S
N75 C73 1.420 . S
N75 C76 1.244 . S
C76 N75 1.244 . S
H77 C80 0.929 . S
H78 C83 0.929 . S
H79 C85 0.930 . S
C80 H77 0.929 . S
C80 C81 1.398 . S
C80 C82 1.396 . S
C81 C80 1.398 . S
C81 C85 1.407 . S
C82 C80 1.396 . S
C82 C83 1.394 . S
C83 H78 0.929 . S
C83 C82 1.394 . S
C83 C84 1.382 . S
C84 C83 1.382 . S
C84 C85 1.392 . S
C84 N86 1.420 . S
C85 H79 0.930 . S
C85 C81 1.407 . S
C85 C84 1.392 . S
N86 C84 1.420 . S
N86 C87 1.244 . S
C87 N86 1.244 . S
H88 C91 0.929 . S
H89 C94 0.929 . S
H90 C96 0.930 . S
C91 H88 0.929 . S
C91 C92 1.398 . S
C91 C93 1.396 . S
C92 C91 1.398 . S
C92 C96 1.407 . S
C93 C91 1.396 . S
C93 C94 1.394 . S
C94 H89 0.929 . S
C94 C93 1.394 . S
C94 C95 1.382 . S
C95 C94 1.382 . S
C95 C96 1.392 . S
C95 N97 1.420 . S
C96 H90 0.930 . S
C96 C92 1.407 . S
C96 C95 1.392 . S
N97 C95 1.420 . S
N97 C98 1.244 . S
C98 N97 1.244 . S
H99 C102 0.929 . S
H100 C105 0.929 . S
H101 C107 0.930 . S
C102 H99 0.929 . S
C102 C103 1.398 . S
C102 C104 1.396 . S
C103 C102 1.398 . S
C103 C107 1.407 . S
C104 C102 1.396 . S
C104 C105 1.394 . S
C105 H100 0.929 . S
C105 C104 1.394 . S
C105 C106 1.382 . S
C106 C105 1.382 . S
C106 C107 1.392 . S
C106 N108 1.420 . S
C107 H101 0.930 . S
C107 C103 1.407 . S
C107 C106 1.392 . S
N108 C106 1.420 . S
N108 C109 1.244 . S
C109 N108 1.244 . S
H110 C113 0.929 . S
H111 C116 0.929 . S
H112 C118 0.930 1_554 S
C113 H110 0.929 . S
C113 C114 1.398 . S
C113 C115 1.396 . S
C114 C113 1.398 . S
C114 C118 1.407 . S
C115 C113 1.396 . S
C115 C116 1.394 . S
C116 H111 0.929 . S
C116 C115 1.394 . S
C116 C117 1.382 . S
C117 C116 1.382 . S
C117 C118 1.392 . S
C117 N119 1.420 . S
C118 H112 0.930 1_556 S
C118 C114 1.407 . S
C118 C117 1.392 . S
N119 C117 1.420 . S
N119 C120 1.244 . S
C120 N119 1.244 . S
H121 C124 0.929 . S
H122 C127 0.929 . S
H123 C129 0.930 . S
C124 H121 0.929 . S
C124 C125 1.398 . S
C124 C126 1.396 . S
C125 C124 1.398 . S
C125 C129 1.407 . S
C126 C124 1.396 . S
C126 C127 1.394 . S
C127 H122 0.929 . S
C127 C126 1.394 . S
C127 C128 1.382 . S
C128 C127 1.382 . S
C128 C129 1.392 . S
C128 N130 1.420 . S
C129 H123 0.930 . S
C129 C125 1.407 . S
C129 C128 1.392 . S
N130 C128 1.420 . S
N130 C131 1.244 . S
C131 N130 1.244 . S
H132 C135 0.929 . S
H133 C138 0.929 . S
H134 C140 0.930 . S
C135 H132 0.929 . S
C135 C136 1.398 . S
C135 C137 1.396 . S
C136 C135 1.398 . S
C136 C140 1.407 . S
C137 C135 1.396 . S
C137 C138 1.394 . S
C138 H133 0.929 . S
C138 C137 1.394 . S
C138 C139 1.382 . S
C139 C138 1.382 . S
C139 C140 1.392 . S
C139 N141 1.420 . S
C140 H134 0.930 . S
C140 C136 1.407 . S
C140 C139 1.392 . S
N141 C139 1.420 . S
N141 C142 1.244 . S
C142 N141 1.244 . S
H143 C146 0.929 . S
H144 C149 0.929 . S
H145 C151 0.930 . S
C146 H143 0.929 . S
C146 C147 1.398 . S
C146 C148 1.396 . S
C147 C146 1.398 . S
C147 C151 1.407 . S
C148 C146 1.396 . S
C148 C149 1.394 . S
C149 H144 0.929 . S
C149 C148 1.394 . S
C149 C150 1.382 . S
C150 C149 1.382 . S
C150 C151 1.392 . S
C150 N152 1.420 . S
C151 H145 0.930 . S
C151 C147 1.407 . S
C151 C150 1.392 . S
N152 C150 1.420 . S
N152 C153 1.244 . S
C153 N152 1.244 . S
H154 C157 0.929 . S
H155 C160 0.929 . S
H156 C162 0.930 . S
C157 H154 0.929 . S
C157 C158 1.398 . S
C157 C159 1.396 . S
C158 C157 1.398 . S
C158 C162 1.407 . S
C159 C157 1.396 . S
C159 C160 1.394 . S
C160 H155 0.929 . S
C160 C159 1.394 . S
C160 C161 1.382 . S
C161 C160 1.382 . S
C161 C162 1.392 . S
C161 N163 1.420 . S
C162 H156 0.930 . S
C162 C158 1.407 . S
C162 C161 1.392 . S
N163 C161 1.420 . S
N163 C164 1.244 . S
C164 N163 1.244 . S
H165 C168 0.929 . S
H166 C171 0.929 . S
H167 C173 0.930 . S
C168 H165 0.929 . S
C168 C169 1.398 . S
C168 C170 1.396 . S
C169 C168 1.398 . S
C169 C173 1.407 . S
C170 C168 1.396 . S
C170 C171 1.394 . S
C171 H166 0.929 . S
C171 C170 1.394 . S
C171 C172 1.382 . S
C172 C171 1.382 . S
C172 C173 1.392 . S
C172 N174 1.420 . S
C173 H167 0.930 . S
C173 C169 1.407 . S
C173 C172 1.392 . S
N174 C172 1.420 . S
N174 C175 1.244 . S
C175 N174 1.244 . S
H176 C179 0.929 . S
H177 C182 0.929 . S
H178 C184 0.930 . S
C179 H176 0.929 . S
C179 C180 1.398 . S
C179 C181 1.396 . S
C180 C179 1.398 . S
C180 C184 1.407 . S
C181 C179 1.396 . S
C181 C182 1.394 . S
C182 H177 0.929 . S
C182 C181 1.394 . S
C182 C183 1.382 . S
C183 C182 1.382 . S
C183 C184 1.392 . S
C183 N185 1.420 . S
C184 H178 0.930 . S
C184 C180 1.407 . S
C184 C183 1.392 . S
N185 C183 1.420 . S
N185 C186 1.244 . S
C186 N185 1.244 . S
H187 C190 0.929 . S
H188 C193 0.929 . S
H189 C195 0.930 . S
C190 H187 0.929 . S
C190 C191 1.398 . S
C190 C192 1.396 . S
C191 C190 1.398 . S
C191 C195 1.407 . S
C192 C190 1.396 . S
C192 C193 1.394 . S
C193 H188 0.929 . S
C193 C192 1.394 . S
C193 C194 1.382 . S
C194 C193 1.382 . S
C194 C195 1.392 . S
C194 N196 1.420 . S
C195 H189 0.930 . S
C195 C191 1.407 . S
C195 C194 1.392 . S
N196 C194 1.420 . S
N196 C197 1.244 . S
C197 N196 1.244 . S
Eu198 C207 2.828 1_565 S
Eu198 O209 2.392 . S
Eu198 O211 2.418 . S
Eu198 O216 2.373 1_565 S
Eu198 O219 2.488 . S
Eu198 O220 2.471 1_565 S
Eu198 O221 2.349 1_565 S
Eu199 O208 2.373 1_545 S
Eu199 O212 2.488 . S
Eu199 O213 2.471 1_545 S
Eu199 O214 2.349 1_545 S
Eu199 O217 2.392 . S
Eu199 O218 2.418 . S
Eu199 C228 2.828 . S
C200 O218 1.244 . S
C200 O221 1.265 1_554 S
C201 C202 1.379 . S
C201 C205 1.373 1_545 S
C201 C207 1.505 . S
C202 C201 1.379 . S
C202 C204 1.369 . S
C202 H230 0.930 . S
C203 C205 1.383 1_545 S
C203 C206 1.382 . S
C203 H231 0.930 1_545 S
C204 C202 1.369 . S
C204 C206 1.392 . S
C204 H232 0.930 . S
C205 C201 1.373 1_565 S
C205 C203 1.383 1_565 S
C205 H233 0.931 . S
C206 C203 1.382 . S
C206 C204 1.392 . S
C207 Eu198 2.828 1_545 S
C207 C201 1.505 . S
C207 O219 1.249 1_545 S
C207 O220 1.244 . S
O208 Eu199 2.373 1_565 S
O208 C210 1.258 . S
O209 Eu198 2.392 . S
O209 C210 1.242 1_556 S
C210 O208 1.258 . S
C210 O209 1.242 1_554 S
O211 Eu198 2.418 . S
O211 C215 1.244 1_556 S
O212 Eu199 2.488 . S
O212 C228 1.249 . S
O213 Eu199 2.471 1_565 S
O213 C228 1.244 1_565 S
O214 Eu199 2.349 1_565 S
O214 C215 1.265 . S
C215 O211 1.244 1_554 S
C215 O214 1.265 . S
O216 Eu198 2.373 1_545 S
O216 C229 1.258 . S
O217 Eu199 2.392 . S
O217 C229 1.242 1_554 S
O218 Eu199 2.418 . S
O218 C200 1.244 . S
O219 Eu198 2.488 . S
O219 C207 1.249 1_565 S
O220 Eu198 2.471 1_545 S
O220 C207 1.244 . S
O221 Eu198 2.349 1_545 S
O221 C200 1.265 1_556 S
C222 C223 1.379 . S
C222 C226 1.373 1_565 S
C222 C228 1.505 1_565 S
C223 C222 1.379 . S
C223 C225 1.369 . S
C223 H234 0.930 . S
C224 C226 1.383 . S
C224 C227 1.382 1_545 S
C224 H235 0.930 . S
C225 C223 1.369 . S
C225 C227 1.392 . S
C225 H236 0.930 . S
C226 C222 1.373 1_545 S
C226 C224 1.383 . S
C226 H237 0.931 . S
C227 C224 1.382 1_565 S
C227 C225 1.392 . S
C228 Eu199 2.828 . S
C228 O212 1.249 . S
C228 O213 1.244 1_545 S
C228 C222 1.505 1_545 S
C229 O216 1.258 . S
C229 O217 1.242 1_556 S
H230 C202 0.930 . S
H231 C203 0.930 1_565 S
H232 C204 0.930 . S
H233 C205 0.931 . S
H234 C223 0.930 . S
H235 C224 0.930 . S
H236 C225 0.930 . S
H237 C226 0.931 . S
Eu238 C247 2.829 . S
Eu238 O249 2.392 1_556 S
Eu238 O251 2.418 . S
Eu238 O256 2.373 1_455 S
Eu238 O259 2.488 . S
Eu238 O260 2.471 1_455 S
Eu238 O261 2.349 1_455 S
Eu239 O248 2.373 1_655 S
Eu239 O252 2.488 . S
Eu239 O253 2.471 1_655 S
Eu239 O254 2.349 1_655 S
Eu239 O257 2.392 . S
Eu239 O258 2.418 . S
Eu239 C268 2.828 1_655 S
C240 O258 1.244 1_556 S
C240 O261 1.265 . S
C241 C242 1.379 . S
C241 C245 1.373 1_655 S
C241 C247 1.504 1_655 S
C242 C241 1.379 . S
C242 C244 1.369 . S
C242 H270 0.930 . S
C243 C245 1.383 1_655 S
C243 C246 1.382 . S
C243 H271 0.930 1_655 S
C244 C242 1.369 . S
C244 C246 1.392 . S
C244 H272 0.930 . S
C245 C241 1.373 1_455 S
C245 C243 1.383 1_455 S
C245 H273 0.931 . S
C246 C243 1.382 . S
C246 C244 1.392 . S
C247 Eu238 2.829 . S
C247 C241 1.504 1_455 S
C247 O259 1.251 . S
C247 O260 1.244 1_455 S
O248 Eu239 2.373 1_455 S
O248 C250 1.258 . S
O249 Eu238 2.392 1_554 S
O249 C250 1.242 . S
C250 O248 1.258 . S
C250 O249 1.242 . S
O251 Eu238 2.418 . S
O251 C255 1.244 1_556 S
O252 Eu239 2.488 . S
O252 C268 1.249 1_655 S
O253 Eu239 2.471 1_455 S
O253 C268 1.244 . S
O254 Eu239 2.349 1_455 S
O254 C255 1.265 . S
C255 O251 1.244 1_554 S
C255 O254 1.265 . S
O256 Eu238 2.373 1_655 S
O256 C269 1.258 . S
O257 Eu239 2.392 . S
O257 C269 1.242 1_554 S
O258 Eu239 2.418 . S
O258 C240 1.244 1_554 S
O259 Eu238 2.488 . S
O259 C247 1.251 . S
O260 Eu238 2.471 1_655 S
O260 C247 1.244 1_655 S
O261 Eu238 2.349 1_655 S
O261 C240 1.265 . S
C262 C263 1.379 . S
C262 C266 1.373 1_455 S
C262 C268 1.505 . S
C263 C262 1.379 . S
C263 C265 1.369 . S
C263 H274 0.930 . S
C264 C266 1.383 1_455 S
C264 C267 1.382 . S
C264 H275 0.930 1_455 S
C265 C263 1.369 . S
C265 C267 1.392 . S
C265 H276 0.930 . S
C266 C262 1.373 1_655 S
C266 C264 1.383 1_655 S
C266 H277 0.931 . S
C267 C264 1.382 . S
C267 C265 1.392 . S
C268 Eu239 2.828 1_455 S
C268 O252 1.249 1_455 S
C268 O253 1.244 . S
C268 C262 1.505 . S
C269 O256 1.258 . S
C269 O257 1.242 1_556 S
H270 C242 0.930 . S
H271 C243 0.930 1_455 S
H272 C244 0.930 . S
H273 C245 0.931 . S
H274 C263 0.930 . S
H275 C264 0.930 1_655 S
H276 C265 0.930 . S
H277 C266 0.931 . S
Eu278 C287 2.828 . S
Eu278 O289 2.392 . S
Eu278 O291 2.418 . S
Eu278 O296 2.373 . S
Eu278 O299 2.488 . S
Eu278 O300 2.471 . S
Eu278 O301 2.349 . S
Eu279 O288 2.373 . S
Eu279 O292 2.488 . S
Eu279 O293 2.471 . S
Eu279 O294 2.349 . S
Eu279 O297 2.392 1_556 S
Eu279 O298 2.418 . S
Eu279 C308 2.828 . S
C280 O298 1.244 1_554 S
C280 O301 1.265 . S
C281 C282 1.379 . S
C281 C285 1.373 . S
C281 C287 1.505 . S
C282 C281 1.379 . S
C282 C284 1.369 . S
C282 H310 0.930 . S
C283 C285 1.383 . S
C283 C286 1.382 . S
C283 H311 0.930 . S
C284 C282 1.369 . S
C284 C286 1.392 . S
C284 H312 0.930 . S
C285 C281 1.373 . S
C285 C283 1.383 . S
C285 H313 0.931 . S
C286 C283 1.382 . S
C286 C284 1.392 . S
C287 Eu278 2.828 . S
C287 C281 1.505 . S
C287 O299 1.249 . S
C287 O300 1.244 . S
O288 Eu279 2.373 . S
O288 C290 1.258 . S
O289 Eu278 2.392 . S
O289 C290 1.242 1_554 S
C290 O288 1.258 . S
C290 O289 1.242 1_556 S
O291 Eu278 2.418 . S
O291 C295 1.244 . S
O292 Eu279 2.488 . S
O292 C308 1.249 . S
O293 Eu279 2.471 . S
O293 C308 1.244 . S
O294 Eu279 2.349 . S
O294 C295 1.265 1_556 S
C295 O291 1.244 . S
C295 O294 1.265 1_554 S
O296 Eu278 2.373 . S
O296 C309 1.258 . S
O297 Eu279 2.392 1_554 S
O297 C309 1.242 . S
O298 Eu279 2.418 . S
O298 C280 1.244 1_556 S
O299 Eu278 2.488 . S
O299 C287 1.249 . S
O300 Eu278 2.471 . S
O300 C287 1.244 . S
O301 Eu278 2.349 . S
O301 C280 1.265 . S
C302 C303 1.379 . S
C302 C306 1.373 . S
C302 C308 1.505 . S
C303 C302 1.379 . S
C303 C305 1.369 . S
C303 H314 0.930 . S
C304 C306 1.383 . S
C304 C307 1.382 . S
C304 H315 0.930 . S
C305 C303 1.369 . S
C305 C307 1.392 . S
C305 H316 0.930 . S
C306 C302 1.373 . S
C306 C304 1.383 . S
C306 H317 0.931 . S
C307 C304 1.382 . S
C307 C305 1.392 . S
C308 Eu279 2.828 . S
C308 O292 1.249 . S
C308 O293 1.244 . S
C308 C302 1.505 . S
C309 O296 1.258 . S
C309 O297 1.242 . S
H310 C282 0.930 . S
H311 C283 0.930 . S
H312 C284 0.930 . S
H313 C285 0.931 . S
H314 C303 0.930 . S
H315 C304 0.930 . S
H316 C305 0.930 . S
H317 C306 0.931 . S
Eu318 C327 2.828 . S
Eu318 O329 2.392 . S
Eu318 O331 2.418 . S
Eu318 O336 2.373 . S
Eu318 O339 2.488 . S
Eu318 O340 2.471 . S
Eu318 O341 2.349 . S
Eu319 O328 2.373 . S
Eu319 O332 2.488 . S
Eu319 O333 2.471 . S
Eu319 O334 2.349 . S
Eu319 O337 2.392 . S
Eu319 O338 2.418 . S
Eu319 C348 2.828 . S
C320 O338 1.244 . S
C320 O341 1.265 . S
C321 C322 1.379 . S
C321 C325 1.373 . S
C321 C327 1.505 . S
C322 C321 1.379 . S
C322 C324 1.369 . S
C322 H350 0.930 . S
C323 C325 1.383 . S
C323 C326 1.382 . S
C323 H351 0.930 . S
C324 C322 1.369 . S
C324 C326 1.392 . S
C324 H352 0.930 . S
C325 C321 1.373 . S
C325 C323 1.383 . S
C325 H353 0.931 . S
C326 C323 1.382 . S
C326 C324 1.392 . S
C327 Eu318 2.828 . S
C327 C321 1.505 . S
C327 O339 1.249 . S
C327 O340 1.244 . S
O328 Eu319 2.373 . S
O328 C330 1.258 . S
O329 Eu318 2.392 . S
O329 C330 1.242 . S
C330 O328 1.258 . S
C330 O329 1.242 . S
O331 Eu318 2.418 . S
O331 C335 1.244 . S
O332 Eu319 2.488 . S
O332 C348 1.249 . S
O333 Eu319 2.471 . S
O333 C348 1.244 . S
O334 Eu319 2.349 . S
O334 C335 1.265 . S
C335 O331 1.244 . S
C335 O334 1.265 . S
O336 Eu318 2.373 . S
O336 C349 1.258 . S
O337 Eu319 2.392 . S
O337 C349 1.242 . S
O338 Eu319 2.418 . S
O338 C320 1.244 . S
O339 Eu318 2.488 . S
O339 C327 1.249 . S
O340 Eu318 2.471 . S
O340 C327 1.244 . S
O341 Eu318 2.349 . S
O341 C320 1.265 . S
C342 C343 1.379 . S
C342 C346 1.373 . S
C342 C348 1.505 . S
C343 C342 1.379 . S
C343 C345 1.369 . S
C343 H354 0.930 . S
C344 C346 1.383 . S
C344 C347 1.382 . S
C344 H355 0.930 . S
C345 C343 1.369 . S
C345 C347 1.392 . S
C345 H356 0.930 . S
C346 C342 1.373 . S
C346 C344 1.383 . S
C346 H357 0.931 . S
C347 C344 1.382 . S
C347 C345 1.392 . S
C348 Eu319 2.828 . S
C348 O332 1.249 . S
C348 O333 1.244 . S
C348 C342 1.505 . S
C349 O336 1.258 . S
C349 O337 1.242 . S
H350 C322 0.930 . S
H351 C323 0.930 . S
H352 C324 0.930 . S
H353 C325 0.931 . S
H354 C343 0.930 . S
H355 C344 0.930 . S
H356 C345 0.930 . S
H357 C346 0.931 . S
Eu358 C367 2.828 . S
Eu358 O369 2.392 . S
Eu358 O371 2.418 . S
Eu358 O376 2.373 . S
Eu358 O379 2.488 . S
Eu358 O380 2.471 . S
Eu358 O381 2.349 . S
Eu359 O368 2.373 . S
Eu359 O372 2.488 . S
Eu359 O373 2.471 . S
Eu359 O374 2.349 . S
Eu359 O377 2.392 . S
Eu359 O378 2.418 . S
Eu359 C388 2.828 . S
C360 O378 1.244 . S
C360 O381 1.265 . S
C361 C362 1.379 . S
C361 C365 1.373 . S
C361 C367 1.505 . S
C362 C361 1.379 . S
C362 C364 1.369 . S
C362 H390 0.930 . S
C363 C365 1.383 . S
C363 C366 1.382 . S
C363 H391 0.930 . S
C364 C362 1.369 . S
C364 C366 1.392 . S
C364 H392 0.930 . S
C365 C361 1.373 . S
C365 C363 1.383 . S
C365 H393 0.931 . S
C366 C363 1.382 . S
C366 C364 1.392 . S
C367 Eu358 2.828 . S
C367 C361 1.505 . S
C367 O379 1.249 . S
C367 O380 1.244 . S
O368 Eu359 2.373 . S
O368 C370 1.258 . S
O369 Eu358 2.392 . S
O369 C370 1.242 . S
C370 O368 1.258 . S
C370 O369 1.242 . S
O371 Eu358 2.418 . S
O371 C375 1.244 . S
O372 Eu359 2.488 . S
O372 C388 1.249 . S
O373 Eu359 2.471 . S
O373 C388 1.244 . S
O374 Eu359 2.349 . S
O374 C375 1.265 . S
C375 O371 1.244 . S
C375 O374 1.265 . S
O376 Eu358 2.373 . S
O376 C389 1.258 . S
O377 Eu359 2.392 . S
O377 C389 1.242 . S
O378 Eu359 2.418 . S
O378 C360 1.244 . S
O379 Eu358 2.488 . S
O379 C367 1.249 . S
O380 Eu358 2.471 . S
O380 C367 1.244 . S
O381 Eu358 2.349 . S
O381 C360 1.265 . S
C382 C383 1.379 . S
C382 C386 1.373 . S
C382 C388 1.505 . S
C383 C382 1.379 . S
C383 C385 1.369 . S
C383 H394 0.930 . S
C384 C386 1.383 . S
C384 C387 1.382 . S
C384 H395 0.930 . S
C385 C383 1.369 . S
C385 C387 1.392 . S
C385 H396 0.930 . S
C386 C382 1.373 . S
C386 C384 1.383 . S
C386 H397 0.931 . S
C387 C384 1.382 . S
C387 C385 1.392 . S
C388 Eu359 2.828 . S
C388 O372 1.249 . S
C388 O373 1.244 . S
C388 C382 1.505 . S
C389 O376 1.258 . S
C389 O377 1.242 . S
H390 C362 0.930 . S
H391 C363 0.930 . S
H392 C364 0.930 . S
H393 C365 0.931 . S
H394 C383 0.930 . S
H395 C384 0.930 . S
H396 C385 0.930 . S
H397 C386 0.931 . S
Eu398 C407 2.828 . S
Eu398 O409 2.392 . S
Eu398 O411 2.418 . S
Eu398 O416 2.373 . S
Eu398 O419 2.488 . S
Eu398 O420 2.471 . S
Eu398 O421 2.349 . S
Eu399 O408 2.373 . S
Eu399 O412 2.488 . S
Eu399 O413 2.471 . S
Eu399 O414 2.349 . S
Eu399 O417 2.392 . S
Eu399 O418 2.418 . S
Eu399 C428 2.828 . S
C400 O418 1.244 . S
C400 O421 1.265 . S
C401 C402 1.379 . S
C401 C405 1.373 . S
C401 C407 1.505 . S
C402 C401 1.379 . S
C402 C404 1.369 . S
C402 H430 0.930 . S
C403 C405 1.383 . S
C403 C406 1.382 . S
C403 H431 0.930 . S
C404 C402 1.369 . S
C404 C406 1.392 . S
C404 H432 0.930 . S
C405 C401 1.373 . S
C405 C403 1.383 . S
C405 H433 0.931 . S
C406 C403 1.382 . S
C406 C404 1.392 . S
C407 Eu398 2.828 . S
C407 C401 1.505 . S
C407 O419 1.249 . S
C407 O420 1.244 . S
O408 Eu399 2.373 . S
O408 C410 1.258 . S
O409 Eu398 2.392 . S
O409 C410 1.242 . S
C410 O408 1.258 . S
C410 O409 1.242 . S
O411 Eu398 2.418 . S
O411 C415 1.244 . S
O412 Eu399 2.488 . S
O412 C428 1.249 . S
O413 Eu399 2.471 . S
O413 C428 1.244 . S
O414 Eu399 2.349 . S
O414 C415 1.265 . S
C415 O411 1.244 . S
C415 O414 1.265 . S
O416 Eu398 2.373 . S
O416 C429 1.258 . S
O417 Eu399 2.392 . S
O417 C429 1.242 . S
O418 Eu399 2.418 . S
O418 C400 1.244 . S
O419 Eu398 2.488 . S
O419 C407 1.249 . S
O420 Eu398 2.471 . S
O420 C407 1.244 . S
O421 Eu398 2.349 . S
O421 C400 1.265 . S
C422 C423 1.379 . S
C422 C426 1.373 . S
C422 C428 1.505 . S
C423 C422 1.379 . S
C423 C425 1.369 . S
C423 H434 0.930 . S
C424 C426 1.383 . S
C424 C427 1.382 . S
C424 H435 0.930 . S
C425 C423 1.369 . S
C425 C427 1.392 . S
C425 H436 0.930 . S
C426 C422 1.373 . S
C426 C424 1.383 . S
C426 H437 0.931 . S
C427 C424 1.382 . S
C427 C425 1.392 . S
C428 Eu399 2.828 . S
C428 O412 1.249 . S
C428 O413 1.244 . S
C428 C422 1.505 . S
C429 O416 1.258 . S
C429 O417 1.242 . S
H430 C402 0.930 . S
H431 C403 0.930 . S
H432 C404 0.930 . S
H433 C405 0.931 . S
H434 C423 0.930 . S
H435 C424 0.930 . S
H436 C425 0.930 . S
H437 C426 0.931 . S
Eu438 C447 2.828 . S
Eu438 O449 2.392 . S
Eu438 O451 2.418 . S
Eu438 O456 2.373 . S
Eu438 O459 2.488 . S
Eu438 O460 2.471 . S
Eu438 O461 2.349 . S
Eu439 O448 2.373 . S
Eu439 O452 2.488 . S
Eu439 O453 2.471 . S
Eu439 O454 2.349 . S
Eu439 O457 2.392 . S
Eu439 O458 2.418 . S
Eu439 C468 2.828 . S
C440 O458 1.244 . S
C440 O461 1.265 . S
C441 C442 1.379 . S
C441 C445 1.373 . S
C441 C447 1.505 . S
C442 C441 1.379 . S
C442 C444 1.369 . S
C442 H470 0.930 . S
C443 C445 1.383 . S
C443 C446 1.382 . S
C443 H471 0.930 . S
C444 C442 1.369 . S
C444 C446 1.392 . S
C444 H472 0.930 . S
C445 C441 1.373 . S
C445 C443 1.383 . S
C445 H473 0.931 . S
C446 C443 1.382 . S
C446 C444 1.392 . S
C447 Eu438 2.828 . S
C447 C441 1.505 . S
C447 O459 1.249 . S
C447 O460 1.244 . S
O448 Eu439 2.373 . S
O448 C450 1.258 . S
O449 Eu438 2.392 . S
O449 C450 1.242 . S
C450 O448 1.258 . S
C450 O449 1.242 . S
O451 Eu438 2.418 . S
O451 C455 1.244 . S
O452 Eu439 2.488 . S
O452 C468 1.249 . S
O453 Eu439 2.471 . S
O453 C468 1.244 . S
O454 Eu439 2.349 . S
O454 C455 1.265 . S
C455 O451 1.244 . S
C455 O454 1.265 . S
O456 Eu438 2.373 . S
O456 C469 1.258 . S
O457 Eu439 2.392 . S
O457 C469 1.242 . S
O458 Eu439 2.418 . S
O458 C440 1.244 . S
O459 Eu438 2.488 . S
O459 C447 1.249 . S
O460 Eu438 2.471 . S
O460 C447 1.244 . S
O461 Eu438 2.349 . S
O461 C440 1.265 . S
C462 C463 1.379 . S
C462 C466 1.373 . S
C462 C468 1.505 . S
C463 C462 1.379 . S
C463 C465 1.369 . S
C463 H474 0.930 . S
C464 C466 1.383 . S
C464 C467 1.382 . S
C464 H475 0.930 . S
C465 C463 1.369 . S
C465 C467 1.392 . S
C465 H476 0.930 . S
C466 C462 1.373 . S
C466 C464 1.383 . S
C466 H477 0.931 . S
C467 C464 1.382 . S
C467 C465 1.392 . S
C468 Eu439 2.828 . S
C468 O452 1.249 . S
C468 O453 1.244 . S
C468 C462 1.505 . S
C469 O456 1.258 . S
C469 O457 1.242 . S
H470 C442 0.930 . S
H471 C443 0.930 . S
H472 C444 0.930 . S
H473 C445 0.931 . S
H474 C463 0.930 . S
H475 C464 0.930 . S
H476 C465 0.930 . S
H477 C466 0.931 . S
Eu478 C487 2.828 . S
Eu478 O489 2.392 . S
Eu478 O491 2.418 . S
Eu478 O496 2.373 . S
Eu478 O499 2.488 . S
Eu478 O500 2.471 . S
Eu478 O501 2.349 . S
Eu479 O488 2.373 . S
Eu479 O492 2.488 . S
Eu479 O493 2.471 . S
Eu479 O494 2.349 . S
Eu479 O497 2.392 . S
Eu479 O498 2.418 . S
Eu479 C508 2.828 . S
C480 O498 1.244 . S
C480 O501 1.265 . S
C481 C482 1.379 . S
C481 C485 1.373 . S
C481 C487 1.505 . S
C482 C481 1.379 . S
C482 C484 1.369 . S
C482 H510 0.930 . S
C483 C485 1.383 . S
C483 C486 1.382 . S
C483 H511 0.930 . S
C484 C482 1.369 . S
C484 C486 1.392 . S
C484 H512 0.930 . S
C485 C481 1.373 . S
C485 C483 1.383 . S
C485 H513 0.931 . S
C486 C483 1.382 . S
C486 C484 1.392 . S
C487 Eu478 2.828 . S
C487 C481 1.505 . S
C487 O499 1.249 . S
C487 O500 1.244 . S
O488 Eu479 2.373 . S
O488 C490 1.258 . S
O489 Eu478 2.392 . S
O489 C490 1.242 . S
C490 O488 1.258 . S
C490 O489 1.242 . S
O491 Eu478 2.418 . S
O491 C495 1.244 . S
O492 Eu479 2.488 . S
O492 C508 1.249 . S
O493 Eu479 2.471 . S
O493 C508 1.244 . S
O494 Eu479 2.349 . S
O494 C495 1.265 . S
C495 O491 1.244 . S
C495 O494 1.265 . S
O496 Eu478 2.373 . S
O496 C509 1.258 . S
O497 Eu479 2.392 . S
O497 C509 1.242 . S
O498 Eu479 2.418 . S
O498 C480 1.244 . S
O499 Eu478 2.488 . S
O499 C487 1.249 . S
O500 Eu478 2.471 . S
O500 C487 1.244 . S
O501 Eu478 2.349 . S
O501 C480 1.265 . S
C502 C503 1.379 . S
C502 C506 1.373 . S
C502 C508 1.505 . S
C503 C502 1.379 . S
C503 C505 1.369 . S
C503 H514 0.930 . S
C504 C506 1.383 . S
C504 C507 1.382 . S
C504 H515 0.930 . S
C505 C503 1.369 . S
C505 C507 1.392 . S
C505 H516 0.930 . S
C506 C502 1.373 . S
C506 C504 1.383 . S
C506 H517 0.931 . S
C507 C504 1.382 . S
C507 C505 1.392 . S
C508 Eu479 2.828 . S
C508 O492 1.249 . S
C508 O493 1.244 . S
C508 C502 1.505 . S
C509 O496 1.258 . S
C509 O497 1.242 . S
H510 C482 0.930 . S
H511 C483 0.930 . S
H512 C484 0.930 . S
H513 C485 0.931 . S
H514 C503 0.930 . S
H515 C504 0.930 . S
H516 C505 0.930 . S
H517 C506 0.931 . S
Eu518 C527 2.828 . S
Eu518 O529 2.392 . S
Eu518 O531 2.418 . S
Eu518 O536 2.373 . S
Eu518 O539 2.488 . S
Eu518 O540 2.471 . S
Eu518 O541 2.349 . S
Eu519 O528 2.373 . S
Eu519 O532 2.488 . S
Eu519 O533 2.471 . S
Eu519 O534 2.349 . S
Eu519 O537 2.392 . S
Eu519 O538 2.418 . S
Eu519 C548 2.828 . S
C520 O538 1.244 . S
C520 O541 1.265 . S
C521 C522 1.379 . S
C521 C525 1.373 . S
C521 C527 1.505 . S
C522 C521 1.379 . S
C522 C524 1.369 . S
C522 H550 0.930 . S
C523 C525 1.383 . S
C523 C526 1.382 . S
C523 H551 0.930 . S
C524 C522 1.369 . S
C524 C526 1.392 . S
C524 H552 0.930 . S
C525 C521 1.373 . S
C525 C523 1.383 . S
C525 H553 0.931 . S
C526 C523 1.382 . S
C526 C524 1.392 . S
C527 Eu518 2.828 . S
C527 C521 1.505 . S
C527 O539 1.249 . S
C527 O540 1.244 . S
O528 Eu519 2.373 . S
O528 C530 1.258 . S
O529 Eu518 2.392 . S
O529 C530 1.242 . S
C530 O528 1.258 . S
C530 O529 1.242 . S
O531 Eu518 2.418 . S
O531 C535 1.244 . S
O532 Eu519 2.488 . S
O532 C548 1.249 . S
O533 Eu519 2.471 . S
O533 C548 1.244 . S
O534 Eu519 2.349 . S
O534 C535 1.265 . S
C535 O531 1.244 . S
C535 O534 1.265 . S
O536 Eu518 2.373 . S
O536 C549 1.258 . S
O537 Eu519 2.392 . S
O537 C549 1.242 . S
O538 Eu519 2.418 . S
O538 C520 1.244 . S
O539 Eu518 2.488 . S
O539 C527 1.249 . S
O540 Eu518 2.471 . S
O540 C527 1.244 . S
O541 Eu518 2.349 . S
O541 C520 1.265 . S
C542 C543 1.379 . S
C542 C546 1.373 . S
C542 C548 1.505 . S
C543 C542 1.379 . S
C543 C545 1.369 . S
C543 H554 0.930 . S
C544 C546 1.383 . S
C544 C547 1.382 . S
C544 H555 0.930 . S
C545 C543 1.369 . S
C545 C547 1.392 . S
C545 H556 0.930 . S
C546 C542 1.373 . S
C546 C544 1.383 . S
C546 H557 0.931 . S
C547 C544 1.382 . S
C547 C545 1.392 . S
C548 Eu519 2.828 . S
C548 O532 1.249 . S
C548 O533 1.244 . S
C548 C542 1.505 . S
C549 O536 1.258 . S
C549 O537 1.242 . S
H550 C522 0.930 . S
H551 C523 0.930 . S
H552 C524 0.930 . S
H553 C525 0.931 . S
H554 C543 0.930 . S
H555 C544 0.930 . S
H556 C545 0.930 . S
H557 C546 0.931 . S
C558 C559 1.387 . S
C558 H562 0.950 . S
C558 C567 1.390 . S
C559 C558 1.387 . S
C559 C561 1.387 . S
H560 C567 0.950 . S
C561 C559 1.387 . S
C561 C563 1.390 . S
C561 H565 0.950 . S
H562 C558 0.950 . S
C563 C561 1.390 . S
C563 C564 1.387 . S
C563 H566 0.950 1_554 S
C564 C563 1.387 . S
C564 C567 1.387 . S
H565 C561 0.950 . S
H566 C563 0.950 1_556 S
C567 C558 1.390 . S
C567 H560 0.950 . S
C567 C564 1.387 . S
C568 C569 1.387 . S
C568 H572 0.950 . S
C568 C577 1.390 . S
C569 C568 1.387 . S
C569 C571 1.387 . S
H570 C577 0.950 . S
C571 C569 1.387 . S
C571 C573 1.390 . S
C571 H575 0.950 . S
H572 C568 0.950 . S
C573 C571 1.390 . S
C573 C574 1.387 . S
C573 H576 0.950 . S
C574 C573 1.387 . S
C574 C577 1.387 . S
H575 C571 0.950 . S
H576 C573 0.950 . S
C577 C568 1.390 . S
C577 H570 0.950 . S
C577 C574 1.387 . S
C578 C579 1.387 . S
C578 H582 0.950 . S
C578 C587 1.390 . S
C579 C578 1.387 . S
C579 C581 1.387 . S
H580 C587 0.950 . S
C581 C579 1.387 . S
C581 C583 1.390 1_554 S
C581 H585 0.950 1_554 S
H582 C578 0.950 . S
C583 C581 1.390 1_556 S
C583 C584 1.387 1_556 S
C583 H586 0.950 . S
C584 C583 1.387 1_554 S
C584 C587 1.387 . S
H585 C581 0.950 1_556 S
H586 C583 0.950 . S
C587 C578 1.390 . S
C587 H580 0.950 . S
C587 C584 1.387 . S
C588 C589 1.387 . S
C588 H592 0.950 . S
C588 C597 1.390 . S
C589 C588 1.387 . S
C589 C591 1.387 . S
H590 C597 0.950 . S
C591 C589 1.387 . S
C591 C593 1.390 1_556 S
C591 H595 0.950 1_556 S
H592 C588 0.950 . S
C593 C591 1.390 1_554 S
C593 C594 1.387 1_554 S
C593 H596 0.950 . S
C594 C593 1.387 1_556 S
C594 C597 1.387 . S
H595 C591 0.950 1_554 S
H596 C593 0.950 . S
C597 C588 1.390 . S
C597 H590 0.950 . S
C597 C594 1.387 . S
C598 C599 1.387 . S
C598 H602 0.950 . S
C598 C607 1.390 . S
C599 C598 1.387 . S
C599 C601 1.387 . S
H600 C607 0.950 1_554 S
C601 C599 1.387 . S
C601 C603 1.390 . S
C601 H605 0.950 . S
H602 C598 0.950 . S
C603 C601 1.390 . S
C603 C604 1.387 . S
C603 H606 0.950 . S
C604 C603 1.387 . S
C604 C607 1.387 . S
H605 C601 0.950 . S
H606 C603 0.950 . S
C607 C598 1.390 . S
C607 H600 0.950 1_556 S
C607 C604 1.387 . S
C608 C609 1.387 1_554 S
C608 H612 0.950 . S
C608 C617 1.390 . S
C609 C608 1.387 1_556 S
C609 C611 1.387 . S
H610 C617 0.950 . S
C611 C609 1.387 . S
C611 C613 1.390 . S
C611 H615 0.950 . S
H612 C608 0.950 . S
C613 C611 1.390 . S
C613 C614 1.387 . S
C613 H616 0.950 . S
C614 C613 1.387 . S
C614 C617 1.387 1_556 S
H615 C611 0.950 . S
H616 C613 0.950 . S
C617 C608 1.390 . S
C617 H610 0.950 . S
C617 C614 1.387 1_554 S
C618 C619 1.387 . S
C618 H622 0.950 1_556 S
C618 C627 1.390 . S
C619 C618 1.387 . S
C619 C621 1.387 . S
H620 C627 0.950 1_554 S
C621 C619 1.387 . S
C621 C623 1.390 . S
C621 H625 0.950 . S
H622 C618 0.950 1_554 S
C623 C621 1.390 . S
C623 C624 1.387 . S
C623 H626 0.950 . S
C624 C623 1.387 . S
C624 C627 1.387 . S
H625 C621 0.950 . S
H626 C623 0.950 . S
C627 C618 1.390 . S
C627 H620 0.950 1_556 S
C627 C624 1.387 . S
C628 C629 1.387 . S
C628 H632 0.950 . S
C628 C637 1.390 . S
C629 C628 1.387 . S
C629 C631 1.387 . S
H630 C637 0.950 . S
C631 C629 1.387 . S
C631 C633 1.390 . S
C631 H635 0.950 . S
H632 C628 0.950 . S
C633 C631 1.390 . S
C633 C634 1.387 . S
C633 H636 0.950 1_556 S
C634 C633 1.387 . S
C634 C637 1.387 . S
H635 C631 0.950 . S
H636 C633 0.950 1_554 S
C637 C628 1.390 . S
C637 H630 0.950 . S
C637 C634 1.387 . S
C638 C639 1.387 1_554 S
C638 H642 0.950 . S
C638 C647 1.390 . S
C639 C638 1.387 1_556 S
C639 C641 1.387 . S
H640 C647 0.950 . S
C641 C639 1.387 . S
C641 C643 1.390 . S
C641 H645 0.950 . S
H642 C638 0.950 . S
C643 C641 1.390 . S
C643 C644 1.387 . S
C643 H646 0.950 . S
C644 C643 1.387 . S
C644 C647 1.387 1_556 S
H645 C641 0.950 . S
H646 C643 0.950 . S
C647 C638 1.390 . S
C647 H640 0.950 . S
C647 C644 1.387 1_554 S
C648 C649 1.387 . S
C648 H652 0.950 . S
C648 C657 1.390 . S
C649 C648 1.387 . S
C649 C651 1.368 1_554 S
H650 C657 0.950 . S
C651 C649 1.368 1_556 S
C651 C653 1.390 . S
C651 H655 0.969 . S
H652 C648 0.950 . S
C653 C651 1.390 . S
C653 C654 1.387 1_556 S
C653 H656 0.950 . S
C654 C653 1.387 1_554 S
C654 C657 1.387 . S
H655 C651 0.969 . S
H656 C653 0.950 . S
C657 C648 1.390 . S
C657 H650 0.950 . S
C657 C654 1.387 . S
C658 C659 1.387 . S
C658 H662 0.950 . S
C658 C667 1.390 . S
C659 C658 1.387 . S
C659 C661 1.387 . S
H660 C667 0.950 . S
C661 C659 1.387 . S
C661 C663 1.390 . S
C661 H665 0.950 . S
H662 C658 0.950 . S
C663 C661 1.390 . S
C663 C664 1.387 . S
C663 H666 0.950 . S
C664 C663 1.387 . S
C664 C667 1.387 . S
H665 C661 0.950 . S
H666 C663 0.950 . S
C667 C658 1.390 . S
C667 H660 0.950 . S
C667 C664 1.387 . S
C668 C669 1.387 1_556 S
C668 H672 0.950 . S
C668 C677 1.390 . S
C669 C668 1.387 1_554 S
C669 C671 1.387 . S
H670 C677 0.950 . S
C671 C669 1.387 . S
C671 C673 1.390 . S
C671 H675 0.950 . S
H672 C668 0.950 . S
C673 C671 1.390 . S
C673 C674 1.387 . S
C673 H676 0.950 . S
C674 C673 1.387 . S
C674 C677 1.387 1_554 S
H675 C671 0.950 . S
H676 C673 0.950 . S
C677 C668 1.390 . S
C677 H670 0.950 . S
C677 C674 1.387 1_556 S
C678 C679 1.387 . S
C678 H682 0.950 . S
C678 C687 1.390 . S
C679 C678 1.387 . S
C679 C681 1.387 . S
H680 C687 0.941 1_455 S
C681 C679 1.387 . S
C681 C683 1.390 1_655 S
C681 H685 0.950 . S
H682 C678 0.950 . S
C683 C681 1.390 1_455 S
C683 C684 1.387 . S
C683 H686 0.950 . S
C684 C683 1.387 . S
C684 C687 1.387 1_455 S
H685 C681 0.950 . S
H686 C683 0.950 . S
C687 C678 1.390 . S
C687 H680 0.941 1_655 S
C687 C684 1.387 1_655 S
C688 C689 1.387 . S
C688 H692 0.950 . S
C688 C697 1.390 . S
C689 C688 1.387 . S
C689 C691 1.387 . S
H690 C697 0.950 . S
C691 C689 1.387 . S
C691 C693 1.390 . S
C691 H695 0.950 . S
H692 C688 0.950 . S
C693 C691 1.390 . S
C693 C694 1.387 . S
C693 H696 0.950 . S
C694 C693 1.387 . S
C694 C697 1.387 . S
H695 C691 0.950 . S
H696 C693 0.950 . S
C697 C688 1.390 . S
C697 H690 0.950 . S
C697 C694 1.387 . S
C698 C699 1.387 . S
C698 H702 0.950 . S
C698 C707 1.390 . S
C699 C698 1.387 . S
C699 C701 1.387 . S
H700 C707 0.950 1_565 S
C701 C699 1.387 . S
C701 C703 1.390 . S
C701 H705 0.950 . S
H702 C698 0.950 . S
C703 C701 1.390 . S
C703 C704 1.387 1_545 S
C703 H706 0.950 1_545 S
C704 C703 1.387 1_565 S
C704 C707 1.387 1_565 S
H705 C701 0.950 . S
H706 C703 0.950 1_565 S
C707 C698 1.390 . S
C707 H700 0.950 1_545 S
C707 C704 1.387 1_545 S
C708 C709 1.387 . S
C708 H712 0.950 . S
C708 C717 1.390 . S
C709 C708 1.387 . S
C709 C711 1.387 . S
H710 C717 0.950 . S
C711 C709 1.387 . S
C711 C713 1.390 . S
C711 H715 0.950 . S
H712 C708 0.950 . S
C713 C711 1.390 . S
C713 C714 1.387 . S
C713 H716 0.950 . S
C714 C713 1.387 . S
C714 C717 1.387 . S
H715 C711 0.950 . S
H716 C713 0.950 . S
C717 C708 1.390 . S
C717 H710 0.950 . S
C717 C714 1.387 . S
C718 C719 1.387 . S
C718 H722 0.950 . S
C718 C727 1.390 . S
C719 C718 1.387 . S
C719 C721 1.387 . S
H720 C727 0.950 . S
C721 C719 1.387 . S
C721 C723 1.390 . S
C721 H725 0.950 . S
H722 C718 0.950 . S
C723 C721 1.390 . S
C723 C724 1.387 . S
C723 H726 0.950 . S
C724 C723 1.387 . S
C724 C727 1.387 . S
H725 C721 0.950 . S
H726 C723 0.950 . S
C727 C718 1.390 . S
C727 H720 0.950 . S
C727 C724 1.387 . S
C728 C729 1.387 . S
C728 H732 0.950 . S
C728 C737 1.390 . S
C729 C728 1.387 . S
C729 C731 1.387 . S
H730 C737 0.950 . S
C731 C729 1.387 . S
C731 C733 1.390 . S
C731 H735 0.950 . S
H732 C728 0.950 . S
C733 C731 1.390 . S
C733 C734 1.387 . S
C733 H736 0.950 . S
C734 C733 1.387 . S
C734 C737 1.387 . S
H735 C731 0.950 . S
H736 C733 0.950 . S
C737 C728 1.390 . S
C737 H730 0.950 . S
C737 C734 1.387 . S
C738 C739 1.387 . S
C738 H742 0.950 . S
C738 C747 1.390 . S
C739 C738 1.387 . S
C739 C741 1.387 . S
H740 C747 0.950 . S
C741 C739 1.387 . S
C741 C743 1.390 . S
C741 H745 0.950 . S
H742 C738 0.950 . S
C743 C741 1.390 . S
C743 C744 1.387 . S
C743 H746 0.950 . S
C744 C743 1.387 . S
C744 C747 1.387 . S
H745 C741 0.950 . S
H746 C743 0.950 . S
C747 C738 1.390 . S
C747 H740 0.950 . S
C747 C744 1.387 . S
C748 C749 1.387 . S
C748 H752 0.950 . S
C748 C757 1.390 . S
C749 C748 1.387 . S
C749 C751 1.387 . S
H750 C757 0.950 . S
C751 C749 1.387 . S
C751 C753 1.390 . S
C751 H755 0.950 . S
H752 C748 0.950 . S
C753 C751 1.390 . S
C753 C754 1.387 . S
C753 H756 0.950 . S
C754 C753 1.387 . S
C754 C757 1.387 . S
H755 C751 0.950 . S
H756 C753 0.950 . S
C757 C748 1.390 . S
C757 H750 0.950 . S
C757 C754 1.387 . S
C758 C759 1.387 . S
C758 H762 0.950 . S
C758 C767 1.390 . S
C759 C758 1.387 . S
C759 C761 1.387 . S
H760 C767 0.950 . S
C761 C759 1.387 . S
C761 C763 1.390 . S
C761 H765 0.950 . S
H762 C758 0.950 . S
C763 C761 1.390 . S
C763 C764 1.387 . S
C763 H766 0.950 . S
C764 C763 1.387 . S
C764 C767 1.387 . S
H765 C761 0.950 . S
H766 C763 0.950 . S
C767 C758 1.390 . S
C767 H760 0.950 . S
C767 C764 1.387 . S
C768 C769 1.387 1_565 S
C768 H772 0.950 . S
C768 C777 1.390 . S
C769 C768 1.387 1_545 S
C769 C771 1.387 1_545 S
H770 C777 0.950 . S
C771 C769 1.387 1_565 S
C771 C773 1.390 . S
C771 H775 0.950 . S
H772 C768 0.950 . S
C773 C771 1.390 . S
C773 C774 1.387 . S
C773 H776 0.950 . S
C774 C773 1.387 . S
C774 C777 1.387 . S
H775 C771 0.950 . S
H776 C773 0.950 . S
C777 C768 1.390 . S
C777 H770 0.950 . S
C777 C774 1.387 . S
C778 C779 1.387 . S
C778 H782 0.950 . S
C778 C787 1.390 . S
C779 C778 1.387 . S
C779 C781 1.387 . S
H780 C787 0.950 . S
C781 C779 1.387 . S
C781 C783 1.390 . S
C781 H785 0.950 . S
H782 C778 0.950 . S
C783 C781 1.390 . S
C783 C784 1.387 . S
C783 H786 0.950 . S
C784 C783 1.387 . S
C784 C787 1.387 . S
H785 C781 0.950 . S
H786 C783 0.950 . S
C787 C778 1.390 . S
C787 H780 0.950 . S
C787 C784 1.387 . S
C788 C789 1.387 . S
C788 H792 0.950 . S
C788 C797 1.390 . S
C789 C788 1.387 . S
C789 C791 1.387 . S
H790 C797 0.950 . S
C791 C789 1.387 . S
C791 C793 1.390 . S
C791 H795 0.950 . S
H792 C788 0.950 . S
C793 C791 1.390 . S
C793 C794 1.387 . S
C793 H796 0.950 . S
C794 C793 1.387 . S
C794 C797 1.387 . S
H795 C791 0.950 . S
H796 C793 0.950 . S
C797 C788 1.390 . S
C797 H790 0.950 . S
C797 C794 1.387 . S
C798 C799 1.387 . S
C798 H802 0.950 . S
C798 C807 1.390 . S
C799 C798 1.387 . S
C799 C801 1.387 . S
H800 C807 0.950 . S
C801 C799 1.387 . S
C801 C803 1.390 . S
C801 H805 0.950 . S
H802 C798 0.950 . S
C803 C801 1.390 . S
C803 C804 1.387 . S
C803 H806 0.950 . S
C804 C803 1.387 . S
C804 C807 1.387 . S
H805 C801 0.950 . S
H806 C803 0.950 . S
C807 C798 1.390 . S
C807 H800 0.950 . S
C807 C804 1.387 . S
C808 C809 1.387 . S
C808 H812 0.950 . S
C808 C817 1.390 . S
C809 C808 1.387 . S
C809 C811 1.387 . S
H810 C817 0.950 . S
C811 C809 1.387 . S
C811 C813 1.390 . S
C811 H815 0.950 . S
H812 C808 0.950 . S
C813 C811 1.390 . S
C813 C814 1.387 . S
C813 H816 0.950 . S
C814 C813 1.387 . S
C814 C817 1.387 . S
H815 C811 0.950 . S
H816 C813 0.950 . S
C817 C808 1.390 . S
C817 H810 0.950 . S
C817 C814 1.387 . S
C818 C819 1.387 . S
C818 H822 0.950 . S
C818 C827 1.390 . S
C819 C818 1.387 . S
C819 C821 1.387 . S
H820 C827 0.950 . S
C821 C819 1.387 . S
C821 C823 1.390 . S
C821 H825 0.950 . S
H822 C818 0.950 . S
C823 C821 1.390 . S
C823 C824 1.387 . S
C823 H826 0.950 . S
C824 C823 1.387 . S
C824 C827 1.387 . S
H825 C821 0.950 . S
H826 C823 0.950 . S
C827 C818 1.390 . S
C827 H820 0.950 . S
C827 C824 1.387 . S
C828 C829 1.387 . S
C828 H832 0.950 . S
C828 C837 1.390 1_565 S
C829 C828 1.387 . S
C829 C831 1.387 . S
H830 C837 0.950 . S
C831 C829 1.387 . S
C831 C833 1.390 . S
C831 H835 0.950 . S
H832 C828 0.950 . S
C833 C831 1.390 . S
C833 C834 1.387 1_565 S
C833 H836 0.950 1_565 S
C834 C833 1.387 1_545 S
C834 C837 1.387 . S
H835 C831 0.950 . S
H836 C833 0.950 1_545 S
C837 C828 1.390 1_545 S
C837 H830 0.950 . S
C837 C834 1.387 . S
C838 C839 1.387 . S
C838 H842 0.950 . S
C838 C847 1.390 . S
C839 C838 1.387 . S
C839 C841 1.387 . S
H840 C847 0.950 . S
C841 C839 1.387 . S
C841 C843 1.390 1_455 S
C841 H845 0.950 . S
H842 C838 0.950 . S
C843 C841 1.390 1_655 S
C843 C844 1.387 . S
C843 H846 0.950 . S
C844 C843 1.387 . S
C844 C847 1.387 1_655 S
H845 C841 0.950 . S
H846 C843 0.950 . S
C847 C838 1.390 . S
C847 H840 0.950 . S
C847 C844 1.387 1_455 S
C848 C849 1.387 . S
C848 H852 0.950 . S
C848 C857 1.390 . S
C849 C848 1.387 . S
C849 C851 1.387 . S
H850 C857 0.950 . S
C851 C849 1.387 . S
C851 C853 1.390 . S
C851 H855 0.950 . S
H852 C848 0.950 . S
C853 C851 1.390 . S
C853 C854 1.387 . S
C853 H856 0.950 . S
C854 C853 1.387 . S
C854 C857 1.387 . S
H855 C851 0.950 . S
H856 C853 0.950 . S
C857 C848 1.390 . S
C857 H850 0.950 . S
C857 C854 1.387 . S
C858 C859 1.405 . S
C858 H862 0.950 1_655 S
C858 C867 1.390 . S
C859 C858 1.405 . S
C859 C861 1.398 . S
H860 C867 0.950 . S
C861 C859 1.398 . S
C861 C863 1.390 . S
C861 H865 0.950 . S
H862 C858 0.950 1_455 S
C863 C861 1.390 . S
C863 C864 1.387 . S
C863 H866 0.950 . S
C864 C863 1.387 . S
C864 C867 1.387 . S
H865 C861 0.950 . S
H866 C863 0.950 . S
C867 C858 1.390 . S
C867 H860 0.950 . S
C867 C864 1.387 . S
C868 C869 1.387 . S
C868 H872 0.950 . S
C868 C877 1.390 . S
C869 C868 1.387 . S
C869 C871 1.387 . S
H870 C877 0.950 . S
C871 C869 1.387 . S
C871 C873 1.390 . S
C871 H875 0.950 . S
H872 C868 0.950 . S
C873 C871 1.390 . S
C873 C874 1.387 . S
C873 H876 0.950 . S
C874 C873 1.387 . S
C874 C877 1.387 . S
H875 C871 0.950 . S
H876 C873 0.950 . S
C877 C868 1.390 . S
C877 H870 0.950 . S
C877 C874 1.387 . S
C878 C879 1.387 . S
C878 H882 0.950 . S
C878 C887 1.390 . S
C879 C878 1.387 . S
C879 C881 1.387 . S
H880 C887 0.950 . S
C881 C879 1.387 . S
C881 C883 1.390 . S
C881 H885 0.950 . S
H882 C878 0.950 . S
C883 C881 1.390 . S
C883 C884 1.387 . S
C883 H886 0.950 . S
C884 C883 1.387 . S
C884 C887 1.387 . S
H885 C881 0.950 . S
H886 C883 0.950 . S
C887 C878 1.390 . S
C887 H880 0.950 . S
C887 C884 1.387 . S
C888 C889 1.387 . S
C888 H892 0.950 . S
C888 C897 1.390 . S
C889 C888 1.387 . S
C889 C891 1.387 . S
H890 C897 0.950 . S
C891 C889 1.387 . S
C891 C893 1.390 . S
C891 H895 0.950 . S
H892 C888 0.950 . S
C893 C891 1.390 . S
C893 C894 1.387 . S
C893 H896 0.950 . S
C894 C893 1.387 . S
C894 C897 1.387 . S
H895 C891 0.950 . S
H896 C893 0.950 . S
C897 C888 1.390 . S
C897 H890 0.950 . S
C897 C894 1.387 . S
C898 C899 1.387 . S
C898 H902 0.950 . S
C898 C907 1.390 . S
C899 C898 1.387 . S
C899 C901 1.387 . S
H900 C907 0.950 . S
C901 C899 1.387 . S
C901 C903 1.390 . S
C901 H905 0.950 . S
H902 C898 0.950 . S
C903 C901 1.390 . S
C903 C904 1.387 . S
C903 H906 0.950 . S
C904 C903 1.387 . S
C904 C907 1.387 . S
H905 C901 0.950 . S
H906 C903 0.950 . S
C907 C898 1.390 . S
C907 H900 0.950 . S
C907 C904 1.387 . S
C908 C909 1.387 . S
C908 H912 0.950 . S
C908 C917 1.390 . S
C909 C908 1.387 . S
C909 C911 1.387 . S
H910 C917 0.950 . S
C911 C909 1.387 . S
C911 C913 1.390 . S
C911 H915 0.950 . S
H912 C908 0.950 . S
C913 C911 1.390 . S
C913 C914 1.387 . S
C913 H916 0.950 . S
C914 C913 1.387 . S
C914 C917 1.387 . S
H915 C911 0.950 . S
H916 C913 0.950 . S
C917 C908 1.390 . S
C917 H910 0.950 . S
C917 C914 1.387 . S
C918 C919 1.387 . S
C918 H922 0.950 . S
C918 C927 1.390 . S
C919 C918 1.387 . S
C919 C921 1.387 . S
H920 C927 0.950 . S
C921 C919 1.387 . S
C921 C923 1.390 . S
C921 H925 0.950 . S
H922 C918 0.950 . S
C923 C921 1.390 . S
C923 C924 1.387 . S
C923 H926 0.950 1_565 S
C924 C923 1.387 . S
C924 C927 1.387 . S
H925 C921 0.950 . S
H926 C923 0.950 1_545 S
C927 C918 1.390 . S
C927 H920 0.950 . S
C927 C924 1.387 . S
C928 C929 1.387 . S
C928 H932 0.950 . S
C928 C937 1.390 . S
C929 C928 1.387 . S
C929 C931 1.387 . S
H930 C937 0.950 . S
C931 C929 1.387 . S
C931 C933 1.390 . S
C931 H935 0.950 . S
H932 C928 0.950 . S
C933 C931 1.390 . S
C933 C934 1.387 . S
C933 H936 0.950 . S
C934 C933 1.387 . S
C934 C937 1.387 . S
H935 C931 0.950 . S
H936 C933 0.950 . S
C937 C928 1.390 . S
C937 H930 0.950 . S
C937 C934 1.387 . S
C938 C939 1.387 . S
C938 H942 0.950 . S
C938 C947 1.390 . S
C939 C938 1.387 . S
C939 C941 1.387 . S
H940 C947 0.950 . S
C941 C939 1.387 . S
C941 C943 1.390 . S
C941 H945 0.950 . S
H942 C938 0.950 . S
C943 C941 1.390 . S
C943 C944 1.387 . S
C943 H946 0.950 . S
C944 C943 1.387 . S
C944 C947 1.387 . S
H945 C941 0.950 . S
H946 C943 0.950 . S
C947 C938 1.390 . S
C947 H940 0.950 . S
C947 C944 1.387 . S
C948 C949 1.387 . S
C948 H952 0.938 1_655 S
C948 C957 1.390 . S
C949 C948 1.387 . S
C949 C951 1.387 . S
H950 C957 0.950 . S
C951 C949 1.387 . S
C951 C953 1.390 . S
C951 H955 0.950 . S
H952 C948 0.938 1_455 S
C953 C951 1.390 . S
C953 C954 1.387 . S
C953 H956 0.950 . S
C954 C953 1.387 . S
C954 C957 1.387 . S
H955 C951 0.950 . S
H956 C953 0.950 . S
C957 C948 1.390 . S
C957 H950 0.950 . S
C957 C954 1.387 . S
C958 C959 1.387 . S
C958 H962 0.950 . S
C958 C967 1.390 . S
C959 C958 1.387 . S
C959 C961 1.387 . S
H960 C967 0.950 . S
C961 C959 1.387 . S
C961 C963 1.390 . S
C961 H965 0.950 . S
H962 C958 0.950 . S
C963 C961 1.390 . S
C963 C964 1.387 . S
C963 H966 0.950 . S
C964 C963 1.387 . S
C964 C967 1.387 . S
H965 C961 0.950 . S
H966 C963 0.950 . S
C967 C958 1.390 . S
C967 H960 0.950 . S
C967 C964 1.387 . S
C968 C969 1.387 . S
C968 H972 0.950 . S
C968 C977 1.390 . S
C969 C968 1.387 . S
C969 C971 1.387 . S
H970 C977 0.950 . S
C971 C969 1.387 . S
C971 C973 1.390 . S
C971 H975 0.950 . S
H972 C968 0.950 . S
C973 C971 1.390 . S
C973 C974 1.387 . S
C973 H976 0.950 . S
C974 C973 1.387 . S
C974 C977 1.387 . S
H975 C971 0.950 . S
H976 C973 0.950 . S
C977 C968 1.390 . S
C977 H970 0.950 . S
C977 C974 1.387 . S
C978 C979 1.387 . S
C978 H982 0.950 . S
C978 C987 1.390 . S
C979 C978 1.387 . S
C979 C981 1.387 . S
H980 C987 0.950 . S
C981 C979 1.387 . S
C981 C983 1.390 . S
C981 H985 0.950 . S
H982 C978 0.950 . S
C983 C981 1.390 . S
C983 C984 1.387 . S
C983 H986 0.950 . S
C984 C983 1.387 . S
C984 C987 1.387 . S
H985 C981 0.950 . S
H986 C983 0.950 . S
C987 C978 1.390 . S
C987 H980 0.950 . S
C987 C984 1.387 . S
C988 C989 1.387 . S
C988 H992 0.950 . S
C988 C997 1.390 . S
C989 C988 1.387 . S
C989 C991 1.387 . S
H990 C997 0.950 . S
C991 C989 1.387 . S
C991 C993 1.390 . S
C991 H995 0.950 . S
H992 C988 0.950 . S
C993 C991 1.390 . S
C993 C994 1.387 . S
C993 H996 0.950 . S
C994 C993 1.387 . S
C994 C997 1.387 . S
H995 C991 0.950 . S
H996 C993 0.950 . S
C997 C988 1.390 . S
C997 H990 0.950 . S
C997 C994 1.387 . S
C998 C999 1.387 . S
C998 H1002 0.950 . S
C998 C1007 1.390 . S
C999 C998 1.387 . S
C999 C1001 1.387 . S
H1000 C1007 0.950 . S
C1001 C999 1.387 . S
C1001 C1003 1.390 . S
C1001 H1005 0.950 . S
H1002 C998 0.950 . S
C1003 C1001 1.390 . S
C1003 C1004 1.387 . S
C1003 H1006 0.950 . S
C1004 C1003 1.387 . S
C1004 C1007 1.387 . S
H1005 C1001 0.950 . S
H1006 C1003 0.950 . S
C1007 C998 1.390 . S
C1007 H1000 0.950 . S
C1007 C1004 1.387 . S
C1008 C1009 1.387 . S
C1008 H1012 0.950 . S
C1008 C1017 1.390 . S
C1009 C1008 1.387 . S
C1009 C1011 1.387 . S
H1010 C1017 0.950 . S
C1011 C1009 1.387 . S
C1011 C1013 1.390 . S
C1011 H1015 0.950 . S
H1012 C1008 0.950 . S
C1013 C1011 1.390 . S
C1013 C1014 1.387 . S
C1013 H1016 0.950 . S
C1014 C1013 1.387 . S
C1014 C1017 1.387 . S
H1015 C1011 0.950 . S
H1016 C1013 0.950 . S
C1017 C1008 1.390 . S
C1017 H1010 0.950 . S
C1017 C1014 1.387 . S
C1018 C1019 1.387 . S
C1018 H1022 0.950 . S
C1018 C1027 1.390 . S
C1019 C1018 1.387 . S
C1019 C1021 1.387 . S
H1020 C1027 0.950 . S
C1021 C1019 1.387 . S
C1021 C1023 1.390 . S
C1021 H1025 0.950 . S
H1022 C1018 0.950 . S
C1023 C1021 1.390 . S
C1023 C1024 1.387 . S
C1023 H1026 0.950 . S
C1024 C1023 1.387 . S
C1024 C1027 1.387 . S
H1025 C1021 0.950 . S
H1026 C1023 0.950 . S
C1027 C1018 1.390 . S
C1027 H1020 0.950 . S
C1027 C1024 1.387 . S
C1028 C1029 1.387 . S
C1028 H1032 0.950 . S
C1028 C1037 1.390 . S
C1029 C1028 1.387 . S
C1029 C1031 1.387 . S
H1030 C1037 0.950 . S
C1031 C1029 1.387 . S
C1031 C1033 1.390 . S
C1031 H1035 0.950 . S
H1032 C1028 0.950 . S
C1033 C1031 1.390 . S
C1033 C1034 1.387 . S
C1033 H1036 0.950 . S
C1034 C1033 1.387 . S
C1034 C1037 1.387 . S
H1035 C1031 0.950 . S
H1036 C1033 0.950 . S
C1037 C1028 1.390 . S
C1037 H1030 0.950 . S
C1037 C1034 1.387 . S
C1038 C1039 1.387 . S
C1038 H1042 0.950 . S
C1038 C1047 1.390 . S
C1039 C1038 1.387 . S
C1039 C1041 1.387 . S
H1040 C1047 0.950 . S
C1041 C1039 1.387 . S
C1041 C1043 1.390 . S
C1041 H1045 0.950 . S
H1042 C1038 0.950 . S
C1043 C1041 1.390 . S
C1043 C1044 1.387 . S
C1043 H1046 0.950 . S
C1044 C1043 1.387 . S
C1044 C1047 1.387 . S
H1045 C1041 0.950 . S
H1046 C1043 0.950 . S
C1047 C1038 1.390 . S
C1047 H1040 0.950 . S
C1047 C1044 1.387 . S
C1048 C1049 1.387 . S
C1048 H1052 0.950 . S
C1048 C1057 1.390 . S
C1049 C1048 1.387 . S
C1049 C1051 1.387 . S
H1050 C1057 0.950 . S
C1051 C1049 1.387 . S
C1051 C1053 1.390 . S
C1051 H1055 0.950 . S
H1052 C1048 0.950 . S
C1053 C1051 1.390 . S
C1053 C1054 1.387 . S
C1053 H1056 0.950 . S
C1054 C1053 1.387 . S
C1054 C1057 1.387 . S
H1055 C1051 0.950 . S
H1056 C1053 0.950 . S
C1057 C1048 1.390 . S
C1057 H1050 0.950 . S
C1057 C1054 1.387 . S
C1058 C1059 1.387 . S
C1058 H1062 0.950 . S
C1058 C1067 1.390 . S
C1059 C1058 1.387 . S
C1059 C1061 1.387 . S
H1060 C1067 0.950 . S
C1061 C1059 1.387 . S
C1061 C1063 1.390 . S
C1061 H1065 0.950 . S
H1062 C1058 0.950 . S
C1063 C1061 1.390 . S
C1063 C1064 1.387 . S
C1063 H1066 0.950 . S
C1064 C1063 1.387 . S
C1064 C1067 1.387 . S
H1065 C1061 0.950 . S
H1066 C1063 0.950 . S
C1067 C1058 1.390 . S
C1067 H1060 0.950 . S
C1067 C1064 1.387 . S
C1068 C1069 1.387 . S
C1068 H1072 0.950 . S
C1068 C1077 1.390 . S
C1069 C1068 1.387 . S
C1069 C1071 1.387 . S
H1070 C1077 0.950 . S
C1071 C1069 1.387 . S
C1071 C1073 1.390 . S
C1071 H1075 0.950 . S
H1072 C1068 0.950 . S
C1073 C1071 1.390 . S
C1073 C1074 1.387 . S
C1073 H1076 0.950 . S
C1074 C1073 1.387 . S
C1074 C1077 1.387 . S
H1075 C1071 0.950 . S
H1076 C1073 0.950 . S
C1077 C1068 1.390 . S
C1077 H1070 0.950 . S
C1077 C1074 1.387 . S
C1078 C1079 1.387 . S
C1078 H1082 0.950 . S
C1078 C1087 1.390 . S
C1079 C1078 1.387 . S
C1079 C1081 1.387 . S
H1080 C1087 0.950 . S
C1081 C1079 1.387 . S
C1081 C1083 1.390 . S
C1081 H1085 0.950 . S
H1082 C1078 0.950 . S
C1083 C1081 1.390 . S
C1083 C1084 1.387 . S
C1083 H1086 0.950 . S
C1084 C1083 1.387 . S
C1084 C1087 1.387 . S
H1085 C1081 0.950 . S
H1086 C1083 0.950 . S
C1087 C1078 1.390 . S
C1087 H1080 0.950 . S
C1087 C1084 1.387 . S
C1088 C1089 1.387 . S
C1088 H1092 0.950 . S
C1088 C1097 1.390 . S
C1089 C1088 1.387 . S
C1089 C1091 1.387 . S
H1090 C1097 0.950 . S
C1091 C1089 1.387 . S
C1091 C1093 1.390 . S
C1091 H1095 0.950 . S
H1092 C1088 0.950 . S
C1093 C1091 1.390 . S
C1093 C1094 1.387 . S
C1093 H1096 0.950 . S
C1094 C1093 1.387 . S
C1094 C1097 1.387 . S
H1095 C1091 0.950 . S
H1096 C1093 0.950 . S
C1097 C1088 1.390 . S
C1097 H1090 0.950 . S
C1097 C1094 1.387 . S
C559 C147 1.652 . S
C564 C210 1.662 . S
C569 C158 1.745 . S
C574 C250 1.743 . S
C579 C136 1.588 . S
C584 C280 1.576 . S
C589 C125 1.493 . S
C594 C240 1.470 . S
C604 C290 1.518 . S
C599 C103 1.520 . S
C609 C114 1.404 . S
C614 C200 1.402 1_556 S
C624 C229 1.671 . S
C619 C131 1.651 . S
C634 C269 1.646 . S
C629 C109 1.635 . S
C639 C120 1.640 . S
C644 C295 1.668 1_556 S
C649 C153 1.518 . S
C654 C255 1.530 . S
C659 C164 1.486 . S
C664 C309 1.491 . S
C674 C215 1.526 . S
C669 C142 1.498 . S
C684 C330 1.662 . S
C679 C15 1.651 . S
C689 C26 1.744 . S
C694 C370 1.742 . S
C699 C4 1.587 . S
C704 C400 1.575 . S
C709 C191 1.493 . S
C714 C360 1.469 . S
C719 C169 1.520 . S
C724 C410 1.518 . S
C729 C180 1.405 . S
C734 C320 1.402 . S
C739 C197 1.648 . S
C744 C349 1.669 . S
C749 C175 1.635 . S
C754 C389 1.646 . S
C764 C415 1.668 . S
C759 C186 1.640 . S
C769 C21 1.520 . S
C774 C375 1.531 . S
C784 C429 1.490 . S
C779 C32 1.485 1_455 S
C789 C10 1.498 . S
C794 C335 1.527 . S
C804 C450 1.662 . S
C799 C81 1.651 . S
C809 C92 1.744 . S
C814 C490 1.742 . S
C824 C520 1.577 . S
C819 C70 1.587 . S
C834 C480 1.470 . S
C829 C59 1.494 . S
C844 C530 1.517 . S
C839 C37 1.520 . S
C849 C48 1.404 . S
C854 C440 1.403 . S
C859 C65 1.626 1_655 S
C864 C469 1.671 . S
C869 C43 1.635 . S
C874 C509 1.647 . S
C884 C535 1.668 . S
C879 C54 1.639 1_545 S
C889 C87 1.519 . S
C894 C495 1.530 . S
C899 C98 1.485 . S
C904 C549 1.490 . S
C909 C76 1.498 . S
C914 C455 1.527 . S
C919 C170 1.595 . S
C924 C227 1.559 . S
C934 C267 1.858 . S
C929 C181 1.908 . S
C939 C192 1.552 . S
C944 C286 1.570 . S
C949 C71 1.726 . S
C954 C246 1.718 . S
C959 C82 1.674 . S
C964 C307 1.648 . S
C974 C206 1.373 . S
C969 C93 1.366 . S
C979 C38 1.593 . S
C984 C347 1.556 . S
C989 C49 1.909 . S
C994 C387 1.859 . S
C999 C60 1.551 . S
C1004 C406 1.568 . S
C1009 C137 1.726 . S
C1014 C366 1.718 . S
C1024 C427 1.650 . S
C1019 C148 1.676 . S
C1029 C159 1.364 . S
C1034 C326 1.373 . S
C1039 C104 1.592 . S
C1044 C467 1.555 . S
C1049 C115 1.909 . S
C1054 C507 1.859 . S
C1064 C526 1.570 . S
C1059 C126 1.552 . S
C1069 C5 1.727 . S
C1074 C486 1.719 . S
C1079 C16 1.675 . S
C1084 C547 1.649 . S
C1089 C27 1.366 . S
C1094 C446 1.374 . S
