# Generated by pormake.
# Topology eea, (3,6)-cn, num edge types: 1
# Building blocks:
#     Node 0, Type 0, BuildingBlock: KAKCAD_clean_linker_0, # of connection points: 3
#     Node 1, Type 0, BuildingBlock: KAKCAD_clean_linker_0, # of connection points: 3
#     Node 2, Type 0, BuildingBlock: KAKCAD_clean_linker_0, # of connection points: 3
#     Node 3, Type 0, BuildingBlock: KAKCAD_clean_linker_0, # of connection points: 3
#     Node 4, Type 0, BuildingBlock: KAKCAD_clean_linker_0, # of connection points: 3
#     Node 5, Type 0, BuildingBlock: KAKCAD_clean_linker_0, # of connection points: 3
#     Node 6, Type 0, BuildingBlock: KAKCAD_clean_linker_0, # of connection points: 3
#     Node 7, Type 0, BuildingBlock: KAKCAD_clean_linker_0, # of connection points: 3
#     Node 8, Type 0, BuildingBlock: KAKCAD_clean_linker_0, # of connection points: 3
#     Node 9, Type 0, BuildingBlock: KAKCAD_clean_linker_0, # of connection points: 3
#     Node 10, Type 0, BuildingBlock: KAKCAD_clean_linker_0, # of connection points: 3
#     Node 11, Type 0, BuildingBlock: KAKCAD_clean_linker_0, # of connection points: 3
#     Node 12, Type 0, BuildingBlock: KAKCAD_clean_linker_0, # of connection points: 3
#     Node 13, Type 0, BuildingBlock: KAKCAD_clean_linker_0, # of connection points: 3
#     Node 14, Type 0, BuildingBlock: KAKCAD_clean_linker_0, # of connection points: 3
#     Node 15, Type 0, BuildingBlock: KAKCAD_clean_linker_0, # of connection points: 3
#     Node 16, Type 0, BuildingBlock: KAKCAD_clean_linker_0, # of connection points: 3
#     Node 17, Type 0, BuildingBlock: KAKCAD_clean_linker_0, # of connection points: 3
#     Node 18, Type 1, BuildingBlock: KUMBUR_clean_sbu_0, # of connection points: 6
#     Node 19, Type 1, BuildingBlock: KUMBUR_clean_sbu_0, # of connection points: 6
#     Node 20, Type 1, BuildingBlock: KUMBUR_clean_sbu_0, # of connection points: 6
#     Node 21, Type 1, BuildingBlock: KUMBUR_clean_sbu_0, # of connection points: 6
#     Node 22, Type 1, BuildingBlock: KUMBUR_clean_sbu_0, # of connection points: 6
#     Node 23, Type 1, BuildingBlock: KUMBUR_clean_sbu_0, # of connection points: 6
#     Node 24, Type 1, BuildingBlock: KUMBUR_clean_sbu_0, # of connection points: 6
#     Node 25, Type 1, BuildingBlock: KUMBUR_clean_sbu_0, # of connection points: 6
#     Node 26, Type 1, BuildingBlock: KUMBUR_clean_sbu_0, # of connection points: 6
#     Edge 27, Type (0, 1), BuildingBlock: MIFKUJ_clean_linker_0, # of connection points: 2
#     Edge 28, Type (0, 1), BuildingBlock: MIFKUJ_clean_linker_0, # of connection points: 2
#     Edge 29, Type (0, 1), BuildingBlock: MIFKUJ_clean_linker_0, # of connection points: 2
#     Edge 30, Type (0, 1), BuildingBlock: MIFKUJ_clean_linker_0, # of connection points: 2
#     Edge 31, Type (0, 1), BuildingBlock: MIFKUJ_clean_linker_0, # of connection points: 2
#     Edge 32, Type (0, 1), BuildingBlock: MIFKUJ_clean_linker_0, # of connection points: 2
#     Edge 33, Type (0, 1), BuildingBlock: MIFKUJ_clean_linker_0, # of connection points: 2
#     Edge 34, Type (0, 1), BuildingBlock: MIFKUJ_clean_linker_0, # of connection points: 2
#     Edge 35, Type (0, 1), BuildingBlock: MIFKUJ_clean_linker_0, # of connection points: 2
#     Edge 36, Type (0, 1), BuildingBlock: MIFKUJ_clean_linker_0, # of connection points: 2
#     Edge 37, Type (0, 1), BuildingBlock: MIFKUJ_clean_linker_0, # of connection points: 2
#     Edge 38, Type (0, 1), BuildingBlock: MIFKUJ_clean_linker_0, # of connection points: 2
#     Edge 39, Type (0, 1), BuildingBlock: MIFKUJ_clean_linker_0, # of connection points: 2
#     Edge 40, Type (0, 1), BuildingBlock: MIFKUJ_clean_linker_0, # of connection points: 2
#     Edge 41, Type (0, 1), BuildingBlock: MIFKUJ_clean_linker_0, # of connection points: 2
#     Edge 42, Type (0, 1), BuildingBlock: MIFKUJ_clean_linker_0, # of connection points: 2
#     Edge 43, Type (0, 1), BuildingBlock: MIFKUJ_clean_linker_0, # of connection points: 2
#     Edge 44, Type (0, 1), BuildingBlock: MIFKUJ_clean_linker_0, # of connection points: 2
#     Edge 45, Type (0, 1), BuildingBlock: MIFKUJ_clean_linker_0, # of connection points: 2
#     Edge 46, Type (0, 1), BuildingBlock: MIFKUJ_clean_linker_0, # of connection points: 2
#     Edge 47, Type (0, 1), BuildingBlock: MIFKUJ_clean_linker_0, # of connection points: 2
#     Edge 48, Type (0, 1), BuildingBlock: MIFKUJ_clean_linker_0, # of connection points: 2
#     Edge 49, Type (0, 1), BuildingBlock: MIFKUJ_clean_linker_0, # of connection points: 2
#     Edge 50, Type (0, 1), BuildingBlock: MIFKUJ_clean_linker_0, # of connection points: 2
#     Edge 51, Type (0, 1), BuildingBlock: MIFKUJ_clean_linker_0, # of connection points: 2
#     Edge 52, Type (0, 1), BuildingBlock: MIFKUJ_clean_linker_0, # of connection points: 2
#     Edge 53, Type (0, 1), BuildingBlock: MIFKUJ_clean_linker_0, # of connection points: 2
#     Edge 54, Type (0, 1), BuildingBlock: MIFKUJ_clean_linker_0, # of connection points: 2
#     Edge 55, Type (0, 1), BuildingBlock: MIFKUJ_clean_linker_0, # of connection points: 2
#     Edge 56, Type (0, 1), BuildingBlock: MIFKUJ_clean_linker_0, # of connection points: 2
#     Edge 57, Type (0, 1), BuildingBlock: MIFKUJ_clean_linker_0, # of connection points: 2
#     Edge 58, Type (0, 1), BuildingBlock: MIFKUJ_clean_linker_0, # of connection points: 2
#     Edge 59, Type (0, 1), BuildingBlock: MIFKUJ_clean_linker_0, # of connection points: 2
#     Edge 60, Type (0, 1), BuildingBlock: MIFKUJ_clean_linker_0, # of connection points: 2
#     Edge 61, Type (0, 1), BuildingBlock: MIFKUJ_clean_linker_0, # of connection points: 2
#     Edge 62, Type (0, 1), BuildingBlock: MIFKUJ_clean_linker_0, # of connection points: 2
#     Edge 63, Type (0, 1), BuildingBlock: MIFKUJ_clean_linker_0, # of connection points: 2
#     Edge 64, Type (0, 1), BuildingBlock: MIFKUJ_clean_linker_0, # of connection points: 2
#     Edge 65, Type (0, 1), BuildingBlock: MIFKUJ_clean_linker_0, # of connection points: 2
#     Edge 66, Type (0, 1), BuildingBlock: MIFKUJ_clean_linker_0, # of connection points: 2
#     Edge 67, Type (0, 1), BuildingBlock: MIFKUJ_clean_linker_0, # of connection points: 2
#     Edge 68, Type (0, 1), BuildingBlock: MIFKUJ_clean_linker_0, # of connection points: 2
#     Edge 69, Type (0, 1), BuildingBlock: MIFKUJ_clean_linker_0, # of connection points: 2
#     Edge 70, Type (0, 1), BuildingBlock: MIFKUJ_clean_linker_0, # of connection points: 2
#     Edge 71, Type (0, 1), BuildingBlock: MIFKUJ_clean_linker_0, # of connection points: 2
#     Edge 72, Type (0, 1), BuildingBlock: MIFKUJ_clean_linker_0, # of connection points: 2
#     Edge 73, Type (0, 1), BuildingBlock: MIFKUJ_clean_linker_0, # of connection points: 2
#     Edge 74, Type (0, 1), BuildingBlock: MIFKUJ_clean_linker_0, # of connection points: 2
#     Edge 75, Type (0, 1), BuildingBlock: MIFKUJ_clean_linker_0, # of connection points: 2
#     Edge 76, Type (0, 1), BuildingBlock: MIFKUJ_clean_linker_0, # of connection points: 2
#     Edge 77, Type (0, 1), BuildingBlock: MIFKUJ_clean_linker_0, # of connection points: 2
#     Edge 78, Type (0, 1), BuildingBlock: MIFKUJ_clean_linker_0, # of connection points: 2
#     Edge 79, Type (0, 1), BuildingBlock: MIFKUJ_clean_linker_0, # of connection points: 2
#     Edge 80, Type (0, 1), BuildingBlock: MIFKUJ_clean_linker_0, # of connection points: 2
# Relax obj value: 0.010
# Max RMSD: 0.098
# Mean RMSD: 0.055
data_MOF--net-eea--node1-KUMBUR_clean_sbu_0--node2-KAKCAD_clean_linker_0--edge1-MIFKUJ_clean_linker_0
_symmetry_space_group_name_H-M    P1
_symmetry_Int_Tables_number       1
_symmetry_cell_setting            triclinic
loop_
_symmetry_equiv_pos_as_xyz
'x, y, z'
_cell_length_a     78.47142
_cell_length_b     79.770918
_cell_length_c     107.12091
_cell_angle_alpha  90.480676
_cell_angle_beta   90.182385
_cell_angle_gamma 120.03842
loop_
_atom_site_label
_atom_site_type_symbol
_atom_site_fract_x
_atom_site_fract_y
_atom_site_fract_z
_atom_type_partial_charge
C0 C 0.25057 0.13955 0.4793 0.0
C1 C 0.26314 0.13284 0.48326 0.0
C2 C 0.24262 0.13543 0.46722 0.0
C3 C 0.24737 0.1248 0.45877 0.0
C4 C 0.26007 0.11819 0.4628 0.0
C5 C 0.26771 0.12203 0.47494 0.0
C6 C 0.23942 0.12083 0.44575 0.0
C7 C 0.23679 0.13464 0.43925 0.0
C8 C 0.22991 0.13118 0.42687 0.0
C9 C 0.22582 0.11387 0.42086 0.0
C10 C 0.22805 0.09975 0.42722 0.0
C11 C 0.23469 0.1033 0.43968 0.0
C12 C 0.22344 0.0813 0.42085 0.0
C13 C 0.20697 0.07172 0.41287 0.0
C14 C 0.23554 0.07318 0.42267 0.0
C15 C 0.23126 0.05588 0.41668 0.0
C16 C 0.21484 0.04636 0.40868 0.0
C17 C 0.22668 0.14552 0.42022 0.0
C18 C 0.21478 0.15219 0.42551 0.0
C19 C 0.23495 0.15218 0.40842 0.0
C20 C 0.23136 0.1653 0.402 0.0
C21 C 0.21913 0.17165 0.40718 0.0
C22 C 0.21089 0.16502 0.41899 0.0
C23 C 0.20275 0.05447 0.40682 0.0
H24 H 0.24672 0.1478 0.48561 0.0
H25 H 0.23263 0.14045 0.46457 0.0
H26 H 0.26445 0.11035 0.45652 0.0
H27 H 0.27758 0.11691 0.47774 0.0
H28 H 0.24055 0.14835 0.44366 0.0
H29 H 0.23583 0.09219 0.44473 0.0
H30 H 0.22079 0.11138 0.41123 0.0
H31 H 0.19716 0.07741 0.41142 0.0
H32 H 0.24853 0.08036 0.42859 0.0
H33 H 0.24101 0.05012 0.41814 0.0
H34 H 0.20816 0.14715 0.43457 0.0
H35 H 0.24423 0.14726 0.40419 0.0
H36 H 0.18986 0.04732 0.40082 0.0
H37 H 0.20152 0.16984 0.42319 0.0
H38 H 0.23783 0.1702 0.39289 0.0
C39 C 0.89261 0.14751 0.47613 0.0
C40 C 0.88403 0.13225 0.48468 0.0
C41 C 0.89648 0.14418 0.46389 0.0
C42 C 0.89198 0.12553 0.45992 0.0
C43 C 0.88395 0.11041 0.46863 0.0
C44 C 0.87995 0.11371 0.48082 0.0
C45 C 0.89492 0.12166 0.44667 0.0
C46 C 0.91142 0.13521 0.43993 0.0
C47 C 0.91392 0.1318 0.42731 0.0
C48 C 0.89955 0.11458 0.42146 0.0
C49 C 0.88318 0.10078 0.42809 0.0
C50 C 0.88097 0.10442 0.44065 0.0
C51 C 0.86835 0.08247 0.42194 0.0
C52 C 0.85947 0.08274 0.4106 0.0
C53 C 0.86295 0.06457 0.42743 0.0
C54 C 0.84906 0.04725 0.42163 0.0
C55 C 0.84002 0.04753 0.41036 0.0
C56 C 0.9316 0.14606 0.42028 0.0
C57 C 0.93913 0.16609 0.42182 0.0
C58 C 0.94109 0.13973 0.41194 0.0
C59 C 0.95759 0.15306 0.40527 0.0
C60 C 0.96511 0.17309 0.40679 0.0
C61 C 0.95566 0.17942 0.41516 0.0
C62 C 0.84528 0.06543 0.40492 0.0
H63 H 0.89573 0.16191 0.47879 0.0
H64 H 0.90243 0.15612 0.45743 0.0
H65 H 0.88069 0.09595 0.46601 0.0
H66 H 0.87363 0.10172 0.48725 0.0
H67 H 0.92259 0.14822 0.4446 0.0
H68 H 0.868 0.09396 0.4456 0.0
H69 H 0.9011 0.11181 0.41173 0.0
H70 H 0.86332 0.09637 0.40621 0.0
H71 H 0.86966 0.06398 0.43615 0.0
H72 H 0.84519 0.03364 0.42603 0.0
H73 H 0.93211 0.1715 0.42806 0.0
H74 H 0.93588 0.12444 0.41063 0.0
H75 H 0.83859 0.06601 0.39619 0.0
H76 H 0.96116 0.19473 0.41669 0.0
H77 H 0.96431 0.14762 0.39881 0.0
C78 C 0.89736 0.76112 0.47842 0.0
C79 C 0.87803 0.74735 0.48184 0.0
C80 C 0.9014 0.76924 0.46648 0.0
C81 C 0.88627 0.76372 0.45754 0.0
C82 C 0.86697 0.74982 0.46093 0.0
C83 C 0.8629 0.74187 0.47289 0.0
C84 C 0.8905 0.77253 0.44481 0.0
C85 C 0.90816 0.77716 0.43865 0.0
C86 C 0.91233 0.78557 0.42671 0.0
C87 C 0.89843 0.78931 0.42091 0.0
C88 C 0.88058 0.78452 0.42679 0.0
C89 C 0.87682 0.77626 0.43872 0.0
C90 C 0.8656 0.78784 0.42045 0.0
C91 C 0.87072 0.80596 0.41542 0.0
C92 C 0.84592 0.77285 0.41957 0.0
C93 C 0.83166 0.77587 0.4138 0.0
C94 C 0.83657 0.79411 0.40894 0.0
C95 C 0.93098 0.79001 0.42023 0.0
C96 C 0.94888 0.79765 0.4269 0.0
C97 C 0.93102 0.78633 0.40736 0.0
C98 C 0.9484 0.79005 0.40136 0.0
C99 C 0.96627 0.79756 0.40804 0.0
C100 C 0.96626 0.80137 0.4209 0.0
C101 C 0.85638 0.80911 0.40983 0.0
H102 H 0.90949 0.76558 0.48494 0.0
H103 H 0.91641 0.78005 0.46434 0.0
H104 H 0.85492 0.74492 0.4543 0.0
H105 H 0.84778 0.73156 0.47515 0.0
H106 H 0.91846 0.77368 0.443 0.0
H107 H 0.86331 0.77313 0.44336 0.0
H108 H 0.9014 0.79582 0.41176 0.0
H109 H 0.88576 0.81783 0.41606 0.0
H110 H 0.84159 0.75866 0.42323 0.0
H111 H 0.8168 0.76374 0.41305 0.0
H112 H 0.94951 0.80095 0.43678 0.0
H113 H 0.9175 0.78016 0.40195 0.0
H114 H 0.86082 0.82345 0.40643 0.0
H115 H 0.97976 0.80744 0.42633 0.0
H116 H 0.94772 0.78664 0.3915 0.0
C117 C 0.12821 0.23395 0.53704 0.0
C118 C 0.1285 0.25134 0.53423 0.0
C119 C 0.12452 0.22665 0.54919 0.0
C120 C 0.12064 0.2363 0.55881 0.0
C121 C 0.12076 0.25354 0.55607 0.0
C122 C 0.12482 0.26106 0.54399 0.0
C123 C 0.1164 0.22835 0.57167 0.0
C124 C 0.12902 0.22306 0.57759 0.0
C125 C 0.12526 0.21571 0.5898 0.0
C126 C 0.10819 0.21302 0.59589 0.0
C127 C 0.09534 0.21812 0.59007 0.0
C128 C 0.09975 0.22606 0.57805 0.0
C129 C 0.07719 0.215 0.59646 0.0
C130 C 0.06339 0.19664 0.60088 0.0
C131 C 0.07333 0.23029 0.59792 0.0
C132 C 0.0561 0.22732 0.60375 0.0
C133 C 0.04197 0.20884 0.60803 0.0
C134 C 0.13954 0.21148 0.59631 0.0
C135 C 0.14805 0.20194 0.59004 0.0
C136 C 0.14528 0.21757 0.60873 0.0
C137 C 0.15936 0.21445 0.61468 0.0
C138 C 0.168 0.20499 0.60842 0.0
C139 C 0.16201 0.19866 0.59603 0.0
C140 C 0.04592 0.19353 0.60647 0.0
H141 H 0.13053 0.22574 0.52983 0.0
H142 H 0.12432 0.21321 0.55101 0.0
H143 H 0.11803 0.2614 0.56335 0.0
H144 H 0.12532 0.27467 0.54238 0.0
H145 H 0.14216 0.22533 0.57283 0.0
H146 H 0.08985 0.22992 0.57349 0.0
H147 H 0.10492 0.20707 0.60521 0.0
H148 H 0.06591 0.18454 0.59975 0.0
H149 H 0.08382 0.24465 0.59468 0.0
H150 H 0.05404 0.23967 0.605 0.0
H151 H 0.14379 0.19687 0.58051 0.0
H152 H 0.13926 0.22523 0.61377 0.0
H153 H 0.03541 0.17899 0.60935 0.0
H154 H 0.16798 0.191 0.59094 0.0
H155 H 0.16379 0.2199 0.62413 0.0
C156 C 0.73123 0.85615 0.54338 0.0
C157 C 0.73838 0.87165 0.53502 0.0
C158 C 0.73869 0.85903 0.55556 0.0
C159 C 0.75357 0.87745 0.55961 0.0
C160 C 0.76101 0.89284 0.55112 0.0
C161 C 0.75344 0.88998 0.53899 0.0
C162 C 0.76103 0.88076 0.5727 0.0
C163 C 0.76388 0.86684 0.57888 0.0
C164 C 0.77097 0.87003 0.59123 0.0
C165 C 0.77496 0.88715 0.59748 0.0
C166 C 0.7722 0.90114 0.59146 0.0
C167 C 0.7653 0.89791 0.5791 0.0
C168 C 0.77665 0.91919 0.59811 0.0
C169 C 0.76838 0.91846 0.60984 0.0
C170 C 0.78938 0.93725 0.59282 0.0
C171 C 0.79396 0.95433 0.59923 0.0
C172 C 0.78559 0.9536 0.61092 0.0
C173 C 0.77464 0.85572 0.59758 0.0
C174 C 0.7603 0.83599 0.59748 0.0
C175 C 0.79249 0.86183 0.60395 0.0
C176 C 0.79595 0.84849 0.61015 0.0
C177 C 0.78152 0.82874 0.61024 0.0
C178 C 0.76366 0.82263 0.6038 0.0
C179 C 0.77267 0.93555 0.61614 0.0
H180 H 0.71949 0.8419 0.5406 0.0
H181 H 0.73245 0.84692 0.5619 0.0
H182 H 0.77276 0.90711 0.55383 0.0
H183 H 0.75944 0.90213 0.53267 0.0
H184 H 0.76114 0.85377 0.57397 0.0
H185 H 0.76281 0.90862 0.57459 0.0
H186 H 0.78035 0.88966 0.60704 0.0
H187 H 0.75846 0.90467 0.61406 0.0
H188 H 0.79599 0.93813 0.58381 0.0
H189 H 0.80386 0.96812 0.595 0.0
H190 H 0.74634 0.83095 0.59273 0.0
H191 H 0.8039 0.87694 0.60401 0.0
H192 H 0.7661 0.93467 0.62517 0.0
H193 H 0.75213 0.80759 0.60381 0.0
H194 H 0.81004 0.85366 0.61475 0.0
C195 C 0.10954 0.86285 0.53721 0.0
C196 C 0.12809 0.86519 0.53429 0.0
C197 C 0.10524 0.86588 0.54942 0.0
C198 C 0.11943 0.87146 0.55898 0.0
C199 C 0.13784 0.87351 0.55611 0.0
C200 C 0.14209 0.87035 0.54395 0.0
C201 C 0.11534 0.87558 0.57186 0.0
C202 C 0.09744 0.86304 0.57775 0.0
C203 C 0.09396 0.86668 0.59008 0.0
C204 C 0.10833 0.88336 0.59639 0.0
C205 C 0.12612 0.89624 0.59057 0.0
C206 C 0.12956 0.89213 0.57836 0.0
C207 C 0.14103 0.91417 0.59712 0.0
C208 C 0.13542 0.92629 0.60321 0.0
C209 C 0.16104 0.91956 0.59703 0.0
C210 C 0.17515 0.93676 0.60285 0.0
C211 C 0.16963 0.94913 0.60878 0.0
C212 C 0.07557 0.85283 0.59653 0.0
C213 C 0.05707 0.84674 0.59104 0.0
C214 C 0.07648 0.84556 0.60827 0.0
C215 C 0.05924 0.83227 0.61433 0.0
C216 C 0.04072 0.82627 0.60888 0.0
C217 C 0.03978 0.83374 0.59723 0.0
C218 C 0.14954 0.94361 0.6089 0.0
H219 H 0.09846 0.85911 0.53 0.0
H220 H 0.09098 0.86434 0.55132 0.0
H221 H 0.14897 0.87747 0.56332 0.0
H222 H 0.15635 0.87183 0.54216 0.0
H223 H 0.0865 0.85007 0.5729 0.0
H224 H 0.14316 0.90215 0.57378 0.0
H225 H 0.10566 0.88628 0.60587 0.0
H226 H 0.12013 0.92263 0.60328 0.0
H227 H 0.16576 0.91038 0.59253 0.0
H228 H 0.19038 0.94028 0.60276 0.0
H229 H 0.05598 0.8522 0.58202 0.0
H230 H 0.09057 0.84994 0.61268 0.0
H231 H 0.1447 0.95286 0.61315 0.0
H232 H 0.02569 0.82925 0.59281 0.0
H233 H 0.06035 0.82678 0.62333 0.0
C234 C 0.91362 0.46316 0.81544 0.0
C235 C 0.93041 0.46159 0.81782 0.0
C236 C 0.90589 0.46058 0.80334 0.0
C237 C 0.91467 0.45619 0.7934 0.0
C238 C 0.93145 0.45466 0.79574 0.0
C239 C 0.93929 0.45741 0.80779 0.0
C240 C 0.9063 0.45302 0.78061 0.0
C241 C 0.90102 0.46595 0.77546 0.0
C242 C 0.89372 0.46324 0.76319 0.0
C243 C 0.89112 0.44718 0.75619 0.0
C244 C 0.89594 0.43395 0.7613 0.0
C245 C 0.90375 0.43708 0.77345 0.0
C246 C 0.8925 0.41667 0.75402 0.0
C247 C 0.87427 0.40487 0.74811 0.0
C248 C 0.90726 0.41169 0.75311 0.0
C249 C 0.90383 0.39516 0.74643 0.0
C250 C 0.88546 0.38312 0.74066 0.0
C251 C 0.88924 0.47741 0.7575 0.0
C252 C 0.87619 0.48221 0.76328 0.0
C253 C 0.89788 0.48603 0.74613 0.0
C254 C 0.8936 0.49931 0.74062 0.0
C255 C 0.88033 0.5039 0.74629 0.0
C256 C 0.87159 0.49521 0.75764 0.0
C257 C 0.87074 0.38821 0.74156 0.0
H258 H 0.90625 0.46609 0.82295 0.0
H259 H 0.89282 0.46165 0.80181 0.0
H260 H 0.93868 0.45157 0.78821 0.0
H261 H 0.95247 0.45651 0.80921 0.0
H262 H 0.90323 0.47847 0.78083 0.0
H263 H 0.90734 0.42679 0.77746 0.0
H264 H 0.88535 0.44501 0.74673 0.0
H265 H 0.86256 0.40829 0.7488 0.0
H266 H 0.92153 0.4207 0.75748 0.0
H267 H 0.91564 0.39192 0.74573 0.0
H268 H 0.86932 0.47565 0.77204 0.0
H269 H 0.90805 0.48259 0.74154 0.0
H270 H 0.85631 0.37913 0.73744 0.0
H271 H 0.86137 0.49863 0.76218 0.0
H272 H 0.90042 0.50577 0.73183 0.0
C273 C 0.5543 0.47919 0.80779 0.0
C274 C 0.54973 0.46545 0.81721 0.0
C275 C 0.55837 0.47561 0.79566 0.0
C276 C 0.55764 0.45808 0.79266 0.0
C277 C 0.55321 0.44439 0.8021 0.0
C278 C 0.54947 0.44811 0.81428 0.0
C279 C 0.56077 0.45384 0.7796 0.0
C280 C 0.57692 0.46761 0.77274 0.0
C281 C 0.5796 0.46397 0.76022 0.0
C282 C 0.56552 0.44642 0.75453 0.0
C283 C 0.54938 0.43247 0.76129 0.0
C284 C 0.54725 0.43619 0.77385 0.0
C285 C 0.53449 0.41413 0.75518 0.0
C286 C 0.52539 0.41445 0.74394 0.0
C287 C 0.52906 0.39622 0.76066 0.0
C288 C 0.51488 0.37893 0.75496 0.0
C289 C 0.50557 0.37926 0.74381 0.0
C290 C 0.59715 0.47836 0.75313 0.0
C291 C 0.60438 0.49835 0.75456 0.0
C292 C 0.60698 0.47219 0.74495 0.0
C293 C 0.62358 0.48564 0.73841 0.0
C294 C 0.63087 0.50564 0.73988 0.0
C295 C 0.62102 0.51181 0.74804 0.0
C296 C 0.51092 0.39718 0.73837 0.0
H297 H 0.55472 0.49272 0.80981 0.0
H298 H 0.5616 0.48636 0.78856 0.0
H299 H 0.55264 0.43079 0.80005 0.0
H300 H 0.54589 0.43723 0.82135 0.0
H301 H 0.58765 0.48098 0.7773 0.0
H302 H 0.53461 0.42561 0.77902 0.0
H303 H 0.56708 0.44355 0.74482 0.0
H304 H 0.52924 0.42809 0.73958 0.0
H305 H 0.53591 0.39559 0.76931 0.0
H306 H 0.51095 0.3653 0.75936 0.0
H307 H 0.59709 0.50365 0.76066 0.0
H308 H 0.60201 0.45693 0.74371 0.0
H309 H 0.50403 0.39781 0.72974 0.0
H310 H 0.6263 0.52708 0.74954 0.0
H311 H 0.63061 0.48031 0.7321 0.0
C312 C 0.56354 0.09847 0.81153 0.0
C313 C 0.54425 0.08492 0.81519 0.0
C314 C 0.5674 0.10601 0.79943 0.0
C315 C 0.55214 0.10008 0.79053 0.0
C316 C 0.53289 0.08642 0.79416 0.0
C317 C 0.529 0.07909 0.8063 0.0
C318 C 0.55619 0.10809 0.77755 0.0
C319 C 0.57391 0.11267 0.77147 0.0
C320 C 0.57761 0.11986 0.75922 0.0
C321 C 0.56341 0.12267 0.75302 0.0
C322 C 0.54566 0.11826 0.75888 0.0
C323 C 0.5422 0.11101 0.77109 0.0
C324 C 0.53059 0.12104 0.75224 0.0
C325 C 0.53548 0.13903 0.74711 0.0
C326 C 0.51113 0.10571 0.75108 0.0
C327 C 0.49685 0.10825 0.74487 0.0
C328 C 0.50152 0.12636 0.73988 0.0
C329 C 0.5961 0.12399 0.75277 0.0
C330 C 0.61454 0.13543 0.75859 0.0
C331 C 0.59541 0.11632 0.74079 0.0
C332 C 0.61273 0.11975 0.73484 0.0
C333 C 0.63118 0.13126 0.74063 0.0
C334 C 0.63191 0.1392 0.75253 0.0
C335 C 0.52111 0.14173 0.74114 0.0
H336 H 0.57579 0.10319 0.81798 0.0
H337 H 0.58239 0.11667 0.79712 0.0
H338 H 0.52072 0.08116 0.7876 0.0
H339 H 0.51389 0.06896 0.80871 0.0
H340 H 0.58465 0.11004 0.77608 0.0
H341 H 0.52868 0.10806 0.77564 0.0
H342 H 0.56611 0.1282 0.74359 0.0
H343 H 0.55035 0.15115 0.74797 0.0
H344 H 0.50701 0.09162 0.75483 0.0
H345 H 0.4822 0.09585 0.74389 0.0
H346 H 0.61553 0.14159 0.7678 0.0
H347 H 0.58141 0.10737 0.73611 0.0
H348 H 0.52538 0.15601 0.73771 0.0
H349 H 0.6459 0.14801 0.75725 0.0
H350 H 0.61172 0.11351 0.72566 0.0
C351 C 0.79985 0.56837 0.87019 0.0
C352 C 0.79403 0.58149 0.86615 0.0
C353 C 0.79603 0.56125 0.88238 0.0
C354 C 0.78647 0.56722 0.89094 0.0
C355 C 0.78048 0.58023 0.88682 0.0
C356 C 0.78413 0.58718 0.87458 0.0
C357 C 0.7832 0.56031 0.90416 0.0
C358 C 0.7974 0.5576 0.91047 0.0
C359 C 0.79478 0.55154 0.92296 0.0
C360 C 0.77774 0.54846 0.92927 0.0
C361 C 0.76317 0.5509 0.92318 0.0
C362 C 0.76605 0.55668 0.91058 0.0
C363 C 0.745 0.54751 0.92994 0.0
C364 C 0.73601 0.53275 0.93884 0.0
C365 C 0.73646 0.55906 0.92756 0.0
C366 C 0.71949 0.55592 0.93383 0.0
C367 C 0.71058 0.54127 0.94281 0.0
C368 C 0.80995 0.54853 0.92938 0.0
C369 C 0.81831 0.53874 0.92325 0.0
C370 C 0.81631 0.55549 0.9416 0.0
C371 C 0.8308 0.5529 0.94749 0.0
C372 C 0.83923 0.54312 0.94136 0.0
C373 C 0.83268 0.53601 0.92916 0.0
C374 C 0.71914 0.52974 0.94521 0.0
H375 H 0.80727 0.56348 0.86388 0.0
H376 H 0.80053 0.55097 0.88507 0.0
H377 H 0.77339 0.58545 0.89314 0.0
H378 H 0.77966 0.59746 0.87182 0.0
H379 H 0.81087 0.56074 0.90578 0.0
H380 H 0.75471 0.55798 0.90566 0.0
H381 H 0.77585 0.54411 0.93895 0.0
H382 H 0.74189 0.52333 0.94084 0.0
H383 H 0.74301 0.57076 0.92093 0.0
H384 H 0.71328 0.56496 0.93153 0.0
H385 H 0.81355 0.53294 0.9139 0.0
H386 H 0.81036 0.56331 0.94653 0.0
H387 H 0.71297 0.51847 0.95214 0.0
H388 H 0.83845 0.52807 0.9242 0.0
H389 H 0.83564 0.5589 0.95678 0.0
C390 C 0.39719 0.18874 0.87613 0.0
C391 C 0.40696 0.20192 0.86645 0.0
C392 C 0.405 0.19256 0.88823 0.0
C393 C 0.42253 0.20979 0.89097 0.0
C394 C 0.43235 0.22299 0.88139 0.0
C395 C 0.42476 0.21902 0.86924 0.0
C396 C 0.43045 0.21414 0.90385 0.0
C397 C 0.434 0.20097 0.91028 0.0
C398 C 0.44161 0.20504 0.92253 0.0
C399 C 0.44557 0.22259 0.92826 0.0
C400 C 0.44204 0.23596 0.92192 0.0
C401 C 0.43445 0.23153 0.90968 0.0
C402 C 0.44623 0.2545 0.92803 0.0
C403 C 0.44294 0.25529 0.94088 0.0
C404 C 0.45346 0.27158 0.92104 0.0
C405 C 0.45708 0.28889 0.92672 0.0
C406 C 0.45394 0.2896 0.93954 0.0
C407 C 0.44563 0.19107 0.92924 0.0
C408 C 0.43315 0.17099 0.92763 0.0
C409 C 0.46209 0.19768 0.93721 0.0
C410 C 0.46594 0.18457 0.94341 0.0
C411 C 0.45363 0.16449 0.94164 0.0
C412 C 0.43718 0.15789 0.93366 0.0
C413 C 0.44693 0.2727 0.94659 0.0
H414 H 0.38328 0.17561 0.87445 0.0
H415 H 0.39711 0.18225 0.89553 0.0
H416 H 0.44601 0.2363 0.8833 0.0
H417 H 0.43296 0.22933 0.86202 0.0
H418 H 0.43131 0.18779 0.90556 0.0
H419 H 0.43114 0.24137 0.90473 0.0
H420 H 0.45143 0.22586 0.93768 0.0
H421 H 0.437 0.24241 0.94653 0.0
H422 H 0.45656 0.27167 0.9112 0.0
H423 H 0.46268 0.30183 0.92114 0.0
H424 H 0.42017 0.16532 0.92172 0.0
H425 H 0.47222 0.21301 0.93857 0.0
H426 H 0.44423 0.27291 0.95649 0.0
H427 H 0.4275 0.14257 0.93189 0.0
H428 H 0.47856 0.19025 0.94963 0.0
C429 C 0.77397 0.19754 0.87122 0.0
C430 C 0.79245 0.19959 0.86847 0.0
C431 C 0.76967 0.20104 0.88331 0.0
C432 C 0.78382 0.20688 0.8929 0.0
C433 C 0.80217 0.20867 0.89024 0.0
C434 C 0.80638 0.20494 0.87821 0.0
C435 C 0.77974 0.21168 0.90557 0.0
C436 C 0.76208 0.19915 0.91166 0.0
C437 C 0.75828 0.20363 0.92371 0.0
C438 C 0.77223 0.22114 0.92947 0.0
C439 C 0.78994 0.23384 0.92349 0.0
C440 C 0.79362 0.22891 0.91159 0.0
C441 C 0.80459 0.25226 0.92967 0.0
C442 C 0.79863 0.2644 0.93538 0.0
C443 C 0.82466 0.25785 0.92987 0.0
C444 C 0.83846 0.27517 0.93571 0.0
C445 C 0.83252 0.28737 0.94135 0.0
C446 C 0.74002 0.18989 0.93043 0.0
C447 C 0.72179 0.18001 0.92413 0.0
C448 C 0.74074 0.18643 0.94322 0.0
C449 C 0.72369 0.17346 0.94956 0.0
C450 C 0.70547 0.16355 0.94327 0.0
C451 C 0.70472 0.16699 0.93048 0.0
C452 C 0.81246 0.28183 0.94109 0.0
H453 H 0.76295 0.19372 0.86396 0.0
H454 H 0.75546 0.19972 0.88508 0.0
H455 H 0.81326 0.21287 0.8975 0.0
H456 H 0.82059 0.20622 0.87657 0.0
H457 H 0.75159 0.1856 0.90717 0.0
H458 H 0.80713 0.23878 0.90685 0.0
H459 H 0.76939 0.22488 0.93868 0.0
H460 H 0.78328 0.26053 0.93529 0.0
H461 H 0.82966 0.24872 0.92562 0.0
H462 H 0.85383 0.27914 0.93567 0.0
H463 H 0.72067 0.18251 0.91432 0.0
H464 H 0.75457 0.19351 0.94831 0.0
H465 H 0.80744 0.29087 0.94544 0.0
H466 H 0.69089 0.15979 0.92538 0.0
H467 H 0.72487 0.17089 0.95935 0.0
C468 C 0.58423 0.79922 0.14703 0.0
C469 C 0.60081 0.7976 0.15005 0.0
C470 C 0.57743 0.79679 0.13469 0.0
C471 C 0.58699 0.79257 0.12514 0.0
C472 C 0.60359 0.79104 0.12814 0.0
C473 C 0.61047 0.7936 0.14044 0.0
C474 C 0.5797 0.78966 0.11207 0.0
C475 C 0.57446 0.80245 0.10668 0.0
C476 C 0.56828 0.80007 0.09417 0.0
C477 C 0.56702 0.78462 0.08708 0.0
C478 C 0.57156 0.7713 0.09244 0.0
C479 C 0.57806 0.77406 0.10493 0.0
C480 C 0.56874 0.75409 0.08521 0.0
C481 C 0.55218 0.74382 0.0774 0.0
C482 C 0.58213 0.74733 0.08643 0.0
C483 C 0.57874 0.73043 0.08025 0.0
C484 C 0.56194 0.71993 0.07266 0.0
C485 C 0.56298 0.81364 0.08847 0.0
C486 C 0.54815 0.81635 0.09372 0.0
C487 C 0.57247 0.82368 0.07763 0.0
C488 C 0.56729 0.83634 0.07214 0.0
C489 C 0.55224 0.83882 0.07727 0.0
C490 C 0.54267 0.8287 0.08808 0.0
C491 C 0.54885 0.72699 0.07118 0.0
H492 H 0.57628 0.80203 0.15422 0.0
H493 H 0.56448 0.79785 0.13266 0.0
H494 H 0.61144 0.78811 0.12094 0.0
H495 H 0.62351 0.79266 0.14237 0.0
H496 H 0.57572 0.81457 0.11208 0.0
H497 H 0.58128 0.76371 0.10925 0.0
H498 H 0.56226 0.78289 0.07741 0.0
H499 H 0.54145 0.74848 0.07634 0.0
H500 H 0.59517 0.75503 0.09224 0.0
H501 H 0.58905 0.72533 0.08169 0.0
H502 H 0.5406 0.80866 0.10206 0.0
H503 H 0.58398 0.8218 0.07346 0.0
H504 H 0.53592 0.71943 0.06525 0.0
H505 H 0.53108 0.83048 0.0922 0.0
H506 H 0.5748 0.84398 0.06378 0.0
C507 C 0.2244 0.81537 0.14082 0.0
C508 C 0.21533 0.8002 0.1494 0.0
C509 C 0.2286 0.81182 0.12872 0.0
C510 C 0.224 0.79305 0.12496 0.0
C511 C 0.21546 0.77803 0.13371 0.0
C512 C 0.21108 0.78155 0.14574 0.0
C513 C 0.22747 0.78897 0.11188 0.0
C514 C 0.24422 0.80242 0.10529 0.0
C515 C 0.24731 0.79868 0.09288 0.0
C516 C 0.23339 0.78124 0.08706 0.0
C517 C 0.21667 0.7676 0.0935 0.0
C518 C 0.21381 0.77159 0.10585 0.0
C519 C 0.20205 0.74917 0.08733 0.0
C520 C 0.1947 0.74916 0.07535 0.0
C521 C 0.19521 0.73146 0.09348 0.0
C522 C 0.18134 0.71408 0.08774 0.0
C523 C 0.17383 0.71408 0.07581 0.0
C524 C 0.26504 0.81297 0.08598 0.0
C525 C 0.27131 0.83284 0.08662 0.0
C526 C 0.27573 0.80683 0.0786 0.0
C527 C 0.29224 0.82022 0.07198 0.0
C528 C 0.2984 0.84007 0.07252 0.0
C529 C 0.28775 0.84623 0.07994 0.0
C530 C 0.18062 0.73179 0.06968 0.0
H531 H 0.22769 0.82987 0.14335 0.0
H532 H 0.23493 0.8237 0.12221 0.0
H533 H 0.21212 0.76349 0.13127 0.0
H534 H 0.20437 0.76964 0.15222 0.0
H535 H 0.25512 0.81564 0.1099 0.0
H536 H 0.20057 0.7613 0.11065 0.0
H537 H 0.23556 0.77824 0.07749 0.0
H538 H 0.19963 0.76262 0.07044 0.0
H539 H 0.20071 0.73104 0.10269 0.0
H540 H 0.17627 0.70065 0.09271 0.0
H541 H 0.26331 0.83803 0.09215 0.0
H542 H 0.2714 0.79164 0.07801 0.0
H543 H 0.17518 0.73219 0.06045 0.0
H544 H 0.29223 0.86144 0.08066 0.0
H545 H 0.30003 0.81499 0.06628 0.0
C546 C 0.23182 0.43267 0.14483 0.0
C547 C 0.21254 0.41919 0.14847 0.0
C548 C 0.23567 0.44005 0.13269 0.0
C549 C 0.22038 0.43402 0.1238 0.0
C550 C 0.20112 0.42035 0.12744 0.0
C551 C 0.19725 0.41313 0.13961 0.0
C552 C 0.22443 0.44213 0.11087 0.0
C553 C 0.24195 0.44632 0.10468 0.0
C554 C 0.24603 0.45426 0.0926 0.0
C555 C 0.23222 0.45803 0.08672 0.0
C556 C 0.21449 0.45364 0.09262 0.0
C557 C 0.21077 0.44576 0.10466 0.0
C558 C 0.19967 0.45705 0.08619 0.0
C559 C 0.20496 0.47522 0.08119 0.0
C560 C 0.18 0.44209 0.08512 0.0
C561 C 0.16593 0.44519 0.07916 0.0
C562 C 0.17101 0.4635 0.07433 0.0
C563 C 0.26454 0.45827 0.08606 0.0
C564 C 0.28247 0.46568 0.09266 0.0
C565 C 0.26439 0.45452 0.07318 0.0
C566 C 0.28163 0.458 0.06709 0.0
C567 C 0.29952 0.46528 0.07371 0.0
C568 C 0.2997 0.4691 0.08657 0.0
C569 C 0.19079 0.47847 0.07545 0.0
H570 H 0.24391 0.43781 0.15145 0.0
H571 H 0.25063 0.45077 0.13036 0.0
H572 H 0.18898 0.41501 0.12085 0.0
H573 H 0.18229 0.40252 0.14203 0.0
H574 H 0.2522 0.44287 0.10914 0.0
H575 H 0.19735 0.44292 0.1093 0.0
H576 H 0.23514 0.46428 0.07749 0.0
H577 H 0.22 0.48706 0.08198 0.0
H578 H 0.17556 0.42786 0.08876 0.0
H579 H 0.15108 0.43308 0.07825 0.0
H580 H 0.28328 0.46906 0.10253 0.0
H581 H 0.25084 0.4485 0.06781 0.0
H582 H 0.19537 0.49286 0.0721 0.0
H583 H 0.31324 0.47498 0.09194 0.0
H584 H 0.28083 0.45458 0.05723 0.0
C585 C 0.46189 0.89964 0.20358 0.0
C586 C 0.46201 0.91697 0.20105 0.0
C587 C 0.45808 0.89199 0.21565 0.0
C588 C 0.45391 0.90128 0.2254 0.0
C589 C 0.45371 0.91843 0.22282 0.0
C590 C 0.45789 0.92628 0.21081 0.0
C591 C 0.45007 0.89327 0.23826 0.0
C592 C 0.46296 0.88806 0.2439 0.0
C593 C 0.45979 0.88089 0.25615 0.0
C594 C 0.44303 0.87831 0.26259 0.0
C595 C 0.42982 0.88321 0.25708 0.0
C596 C 0.43366 0.89098 0.24498 0.0
C597 C 0.41188 0.87995 0.26388 0.0
C598 C 0.39929 0.86196 0.26936 0.0
C599 C 0.40708 0.8947 0.26486 0.0
C600 C 0.39014 0.89155 0.27122 0.0
C601 C 0.3774 0.87345 0.27652 0.0
C602 C 0.47431 0.8767 0.26234 0.0
C603 C 0.48209 0.86656 0.25599 0.0
C604 C 0.48086 0.88325 0.27459 0.0
C605 C 0.49497 0.87994 0.28031 0.0
C606 C 0.50279 0.86975 0.274 0.0
C607 C 0.49605 0.86304 0.26176 0.0
C608 C 0.38216 0.85868 0.2755 0.0
H609 H 0.4651 0.8922 0.19627 0.0
H610 H 0.45824 0.8787 0.21734 0.0
H611 H 0.45066 0.92597 0.23015 0.0
H612 H 0.45776 0.93959 0.20913 0.0
H613 H 0.4759 0.89028 0.2389 0.0
H614 H 0.42352 0.89471 0.24064 0.0
H615 H 0.4403 0.87254 0.27196 0.0
H616 H 0.40254 0.85028 0.2687 0.0
H617 H 0.41653 0.90874 0.26078 0.0
H618 H 0.3868 0.90316 0.27179 0.0
H619 H 0.47722 0.86116 0.24658 0.0
H620 H 0.4754 0.89138 0.27968 0.0
H621 H 0.37269 0.84462 0.27954 0.0
H622 H 0.50138 0.85486 0.25663 0.0
H623 H 0.50001 0.88576 0.28961 0.0
C624 C 0.067 0.52297 0.20786 0.0
C625 C 0.07168 0.53832 0.19969 0.0
C626 C 0.07557 0.52655 0.21975 0.0
C627 C 0.0892 0.54556 0.22367 0.0
C628 C 0.09401 0.56087 0.21539 0.0
C629 C 0.08525 0.5573 0.20356 0.0
C630 C 0.09817 0.54936 0.23639 0.0
C631 C 0.10318 0.53637 0.24178 0.0
C632 C 0.11118 0.53957 0.2539 0.0
C633 C 0.11424 0.55602 0.26066 0.0
C634 C 0.1096 0.56926 0.25536 0.0
C635 C 0.10159 0.56588 0.24326 0.0
C636 C 0.1132 0.58671 0.26246 0.0
C637 C 0.10538 0.58504 0.27446 0.0
C638 C 0.12461 0.60515 0.25729 0.0
C639 C 0.12836 0.6217 0.26407 0.0
C640 C 0.12042 0.62003 0.27603 0.0
C641 C 0.11637 0.52573 0.25949 0.0
C642 C 0.10344 0.50567 0.25838 0.0
C643 C 0.13422 0.53249 0.26602 0.0
C644 C 0.139 0.51946 0.2714 0.0
C645 C 0.12598 0.49941 0.2704 0.0
C646 C 0.10817 0.49265 0.26381 0.0
C647 C 0.10879 0.60158 0.28114 0.0
H648 H 0.0564 0.50822 0.20515 0.0
H649 H 0.07121 0.51443 0.22594 0.0
H650 H 0.1047 0.57564 0.21799 0.0
H651 H 0.08927 0.56937 0.19737 0.0
H652 H 0.10126 0.52393 0.23645 0.0
H653 H 0.09754 0.57591 0.23936 0.0
H654 H 0.12029 0.55858 0.27005 0.0
H655 H 0.09647 0.57094 0.27859 0.0
H656 H 0.13085 0.60675 0.24807 0.0
H657 H 0.13726 0.63579 0.25993 0.0
H658 H 0.08951 0.50005 0.25348 0.0
H659 H 0.14456 0.54787 0.26692 0.0
H660 H 0.10257 0.59999 0.29037 0.0
H661 H 0.09792 0.47727 0.2628 0.0
H662 H 0.15274 0.52511 0.27653 0.0
C663 C 0.43388 0.53174 0.20374 0.0
C664 C 0.45317 0.5387 0.19951 0.0
C665 C 0.43047 0.53563 0.21596 0.0
C666 C 0.44627 0.54627 0.22432 0.0
C667 C 0.46558 0.5531 0.22001 0.0
C668 C 0.46897 0.54952 0.20774 0.0
C669 C 0.44278 0.54997 0.23752 0.0
C670 C 0.4263 0.53607 0.24411 0.0
C671 C 0.42356 0.53914 0.25669 0.0
C672 C 0.43759 0.55616 0.26282 0.0
C673 C 0.45395 0.57049 0.25639 0.0
C674 C 0.45622 0.56731 0.24371 0.0
C675 C 0.46871 0.58874 0.26288 0.0
C676 C 0.46285 0.59756 0.27202 0.0
C677 C 0.48883 0.59752 0.25998 0.0
C678 C 0.50265 0.61468 0.26596 0.0
C679 C 0.49683 0.62345 0.27516 0.0
C680 C 0.40593 0.52459 0.26344 0.0
C681 C 0.387 0.51847 0.25865 0.0
C682 C 0.40788 0.51697 0.27479 0.0
C683 C 0.39118 0.50334 0.28117 0.0
C684 C 0.37225 0.49743 0.27647 0.0
C685 C 0.3703 0.50517 0.26518 0.0
C686 C 0.47671 0.61459 0.27813 0.0
H687 H 0.42144 0.52346 0.19753 0.0
H688 H 0.41542 0.53039 0.21881 0.0
H689 H 0.47815 0.56093 0.22618 0.0
H690 H 0.48398 0.55481 0.20477 0.0
H691 H 0.41581 0.52255 0.23961 0.0
H692 H 0.46836 0.57855 0.23856 0.0
H693 H 0.43562 0.5582 0.27261 0.0
H694 H 0.44748 0.59144 0.27441 0.0
H695 H 0.49403 0.59106 0.25316 0.0
H696 H 0.51792 0.62115 0.26324 0.0
H697 H 0.38513 0.52423 0.24996 0.0
H698 H 0.42234 0.52144 0.27864 0.0
H699 H 0.47162 0.62067 0.28528 0.0
H700 H 0.35586 0.50074 0.26133 0.0
H701 H 0.39305 0.4976 0.28988 0.0
Tb702 Tb 0.49562 0.98729 0.99351 0.0
C703 C 0.5336 0.05893 0.02762 0.0
C704 C 0.56822 0.06904 0.0277 0.0
C705 C 0.55796 0.09303 0.03009 0.0
C706 C 0.5483 0.0544 0.02669 0.0
C707 C 0.53816 0.07822 0.0296 0.0
C708 C 0.57299 0.08844 0.02913 0.0
C709 C 0.50332 0.06653 0.03143 0.0
N710 N 0.51471 0.04417 0.02715 0.0
C711 C 0.49958 0.04761 0.02951 0.0
C712 C 0.52268 0.08195 0.03131 0.0
Tb713 Tb 0.50997 0.0138 0.02313 0.0
N714 N 0.54301 0.03549 0.02536 0.0
C715 C 0.55703 0.0301 0.02592 0.0
C716 C 0.58267 0.06367 0.02754 0.0
C717 C 0.57702 0.04408 0.02684 0.0
H718 H 0.48454 0.03585 0.02953 0.0
H719 H 0.58805 0.03972 0.02694 0.0
H720 H 0.58821 0.09993 0.0298 0.0
H721 H 0.49127 0.06921 0.03299 0.0
H722 H 0.55301 0.01507 0.02527 0.0
H723 H 0.41754 0.96014 0.98824 0.0
H724 H 0.59815 0.07446 0.02824 0.0
H725 H 0.52223 0.96614 0.98775 0.0
H726 H 0.45226 0.98514 0.9911 0.0
H727 H 0.51633 0.93327 0.98369 0.0
H728 H 0.56181 0.10799 0.03149 0.0
H729 H 0.40841 0.92577 0.98579 0.0
H730 H 0.41893 0.90086 0.98422 0.0
H731 H 0.52554 0.09658 0.03284 0.0
H732 H 0.44586 0.89348 0.98305 0.0
N733 N 0.46285 0.9652 0.99069 0.0
C734 C 0.44859 0.97025 0.99007 0.0
C735 C 0.42365 0.93669 0.98717 0.0
C736 C 0.43834 0.93168 0.98725 0.0
C737 C 0.4288 0.95608 0.98847 0.0
C738 C 0.45804 0.94649 0.98891 0.0
H739 H 0.48229 0.90551 0.98274 0.0
N740 N 0.49177 0.9573 0.98928 0.0
C741 C 0.504 0.93559 0.98505 0.0
C742 C 0.47305 0.94236 0.98821 0.0
C743 C 0.50727 0.95427 0.98729 0.0
C744 C 0.48478 0.91996 0.98451 0.0
C745 C 0.46898 0.92327 0.9859 0.0
O746 O 0.51224 0.99398 0.97704 0.0
O747 O 0.51775 0.0113 0.00427 0.0
O748 O 0.5078 0.03246 0.00923 0.0
O749 O 0.48629 0.0092 0.99487 0.0
O750 O 0.52737 0.99807 0.99234 0.0
O751 O 0.48549 0.99516 0.97757 0.0
O752 O 0.49382 0.00784 0.03976 0.0
O753 O 0.48769 0.98984 0.01236 0.0
O754 O 0.49705 0.96829 0.0075 0.0
O755 O 0.51871 0.99148 0.02182 0.0
O756 O 0.47826 0.00309 0.02451 0.0
O757 O 0.52033 0.00622 0.03908 0.0
C758 C 0.53317 0.01219 1.00016 0.0
C759 C 0.49476 0.9881 0.95807 0.0
C760 C 0.49549 0.99165 0.9353 0.0
C761 C 0.49962 -9e-05 0.94744 0.0
C762 C 0.48645 0.97136 0.9341 0.0
C763 C 0.48556 0.96797 0.95655 0.0
C764 C 0.48146 0.95968 0.94463 0.0
C765 C 0.49524 0.02698 0.99973 0.0
C766 C 0.49992 0.99699 0.97064 0.0
C767 C 0.44933 0.90827 0.98474 0.0
C768 C 0.43402 0.91248 0.9854 0.0
C769 C 0.47235 0.98907 0.01658 0.0
C770 C 0.51195 0.01436 0.05852 0.0
C771 C 0.50706 0.00303 0.06937 0.0
C772 C 0.51167 0.01184 0.08136 0.0
C773 C 0.52121 0.03222 0.08216 0.0
C774 C 0.52171 0.03457 0.05965 0.0
C775 C 0.52627 0.04341 0.0714 0.0
C776 C 0.50948 0.97362 0.01708 0.0
C777 C 0.50622 0.0049 0.04613 0.0
H778 H 0.50648 0.01546 0.94867 0.0
H779 H 0.48346 0.96442 0.92499 0.0
H780 H 0.48173 0.95867 0.96456 0.0
H781 H 0.47453 0.94412 0.94354 0.0
H782 H 0.49977 0.98741 0.06843 0.0
H783 H 0.52454 0.03961 0.09112 0.0
H784 H 0.52562 0.04352 0.05146 0.0
H785 H 0.53361 0.05904 0.07219 0.0
Tb786 Tb 0.01841 0.50457 0.99506 0.0
C787 C 0.94145 0.47539 0.02422 0.0
C788 C 0.93149 0.49938 0.02202 0.0
C789 C 0.90679 0.46569 0.02533 0.0
C790 C 0.94624 0.49423 0.02206 0.0
C791 C 0.92171 0.46088 0.02602 0.0
C792 C 0.91169 0.48495 0.0234 0.0
C793 C 0.93315 0.4384 0.03005 0.0
N794 N 0.95635 0.47148 0.02507 0.0
C795 C 0.95252 0.45336 0.02836 0.0
C796 C 0.91764 0.44212 0.02876 0.0
Tb797 Tb 0.98757 0.49695 0.02199 0.0
N798 N 0.96554 0.50776 0.02093 0.0
C799 C 0.97117 0.52697 0.02039 0.0
C800 C 0.93714 0.51894 0.02109 0.0
C801 C 0.95708 0.53281 0.02033 0.0
H802 H 0.96431 0.4502 0.02934 0.0
H803 H 0.96168 0.54802 0.0198 0.0
H804 H 0.90011 0.48859 0.02326 0.0
H805 H 0.93021 0.42402 0.03238 0.0
H806 H 0.98651 0.53789 0.01988 0.0
H807 H 0.04084 0.45077 0.99926 0.0
H808 H 0.92626 0.52345 0.02138 0.0
H809 H 0.04363 0.55076 0.98711 0.0
H810 H 0.01719 0.46229 0.9978 0.0
H811 H 0.07826 0.57567 0.98388 0.0
H812 H 0.89151 0.45475 0.02661 0.0
H813 H 0.07659 0.47401 0.99828 0.0
H814 H 0.10393 0.50835 0.99541 0.0
H815 H 0.90267 0.43053 0.03016 0.0
H816 H 0.11417 0.54244 0.99126 0.0
N817 N 0.03916 0.4921 0.9963 0.0
C818 C 0.03268 0.47273 0.99731 0.0
C819 C 0.06625 0.47921 0.99761 0.0
C820 C 0.07279 0.49888 0.99596 0.0
C821 C 0.04609 0.46606 0.99815 0.0
C822 C 0.05869 0.50488 0.99525 0.0
H823 H 0.10465 0.56759 0.98668 0.0
N824 N 0.05022 0.52874 0.99191 0.0
C825 C 0.07461 0.56122 0.98655 0.0
C826 C 0.06443 0.52392 0.99298 0.0
C827 C 0.05496 0.547 0.98833 0.0
C828 C 0.08946 0.55661 0.98816 0.0
C829 C 0.08445 0.5377 0.99128 0.0
O830 O 0.0168 0.51312 0.97676 0.0
O831 O 0.9931 0.50482 1.00265 0.0
O832 O 0.96973 0.47525 0.00783 0.0
O833 O 0.99468 0.47413 0.99684 0.0
O834 O 0.00899 0.52541 0.98993 0.0
O835 O 0.01069 0.48411 0.98056 0.0
O836 O 0.98953 0.48886 0.04036 0.0
O837 O 0.01303 0.49709 0.01443 0.0
O838 O 0.03606 0.52676 0.00896 0.0
O839 O 0.01108 0.52767 0.02021 0.0
O840 O 0.99773 0.47677 0.02733 0.0
O841 O 0.99444 0.51742 0.0364 0.0
C842 C 0.99362 0.5187 0.99679 0.0
C843 C 0.02358 0.49685 0.96081 0.0
C844 C 0.02437 0.49419 0.93816 0.0
C845 C 0.01461 0.49438 0.94909 0.0
C846 C 0.04335 0.49661 0.93911 0.0
C847 C 0.04254 0.49931 0.96161 0.0
C848 C 0.05237 0.49921 0.95079 0.0
C849 C 0.97589 0.46666 0.99988 0.0
C850 C 0.01263 0.49642 0.97199 0.0
C851 C 0.09868 0.53203 0.99242 0.0
C852 C 0.09286 0.51263 0.99477 0.0
C853 C 0.01307 0.48363 0.02046 0.0
C854 C 0.98151 0.50442 0.05615 0.0
C855 C 0.98995 0.50628 0.06801 0.0
C856 C 0.97962 0.5058 0.07884 0.0
C857 C 0.96061 0.50325 0.07763 0.0
C858 C 0.96256 0.50192 0.05513 0.0
C859 C 0.95216 0.50129 0.06583 0.0
C860 C 0.02982 0.53529 0.01689 0.0
C861 C 0.99291 0.50537 0.04506 0.0
H862 H 0.99984 0.49222 0.94852 0.0
H863 H 0.05126 0.49665 0.93083 0.0
H864 H 0.04968 0.50116 0.97054 0.0
H865 H 0.06701 0.50111 0.95147 0.0
H866 H 0.00472 0.50849 0.06877 0.0
H867 H 0.95223 0.50262 0.0858 0.0
H868 H 0.95583 0.50059 0.04614 0.0
H869 H 0.93752 0.49932 0.06497 0.0
Tb870 Tb 0.51265 0.49526 0.0238 0.0
C871 C 0.47472 0.53129 0.99204 0.0
C872 C 0.4399 0.508 0.99231 0.0
C873 C 0.45099 0.54232 0.99056 0.0
C874 C 0.45968 0.51244 0.99289 0.0
C875 C 0.47063 0.54648 0.99061 0.0
C876 C 0.43563 0.52308 0.99142 0.0
C877 C 0.50555 0.56842 0.98846 0.0
N878 N 0.49342 0.53462 0.99206 0.0
C879 C 0.50881 0.55282 0.98983 0.0
C880 C 0.48639 0.56528 0.989 0.0
Tb881 Tb 0.49744 0.50838 0.99526 0.0
N882 N 0.4645 0.49837 0.9937 0.0
C883 C 0.45007 0.47931 0.99297 0.0
C884 C 0.42506 0.48855 0.99233 0.0
C885 C 0.4302 0.47414 0.99246 0.0
H886 H 0.5237 0.55547 0.9895 0.0
H887 H 0.41886 0.45902 0.99224 0.0
H888 H 0.42052 0.52 0.99108 0.0
H889 H 0.51783 0.58286 0.98701 0.0
H890 H 0.45367 0.46793 0.99319 0.0
H891 H 0.59128 0.54276 0.02781 0.0
H892 H 0.40967 0.4845 0.99195 0.0
H893 H 0.48479 0.44812 0.02957 0.0
H894 H 0.55697 0.53479 0.02532 0.0
H895 H 0.48952 0.42036 0.03329 0.0
H896 H 0.44752 0.55379 0.98959 0.0
H897 H 0.59927 0.51653 0.03006 0.0
H898 H 0.58744 0.48102 0.0315 0.0
H899 H 0.4839 0.57738 0.9879 0.0
H900 H 0.55968 0.44762 0.03295 0.0
N901 N 0.54526 0.50424 0.02571 0.0
C902 C 0.56007 0.52314 0.02619 0.0
C903 C 0.58414 0.51297 0.02877 0.0
C904 C 0.56891 0.49371 0.02874 0.0
C905 C 0.57968 0.52777 0.02758 0.0
C906 C 0.5494 0.48981 0.02731 0.0
H907 H 0.52308 0.42487 0.03378 0.0
N908 N 0.51542 0.4684 0.02757 0.0
C909 C 0.50215 0.43458 0.03185 0.0
C910 C 0.53391 0.47118 0.02825 0.0
C911 C 0.49956 0.45045 0.02975 0.0
C912 C 0.52111 0.43717 0.03208 0.0
C913 C 0.53731 0.4557 0.03047 0.0
O914 O 0.49669 0.48649 0.04051 0.0
O915 O 0.49032 0.4984 0.01408 0.0
O916 O 0.50088 0.52926 0.00976 0.0
O917 O 0.5232 0.52661 0.02286 0.0
O918 O 0.48082 0.47548 0.0256 0.0
O919 O 0.52452 0.51304 0.03978 0.0
O920 O 0.51225 0.51828 0.97822 0.0
O921 O 0.51993 0.50541 0.00492 0.0
O922 O 0.50952 0.47431 0.00949 0.0
O923 O 0.4877 0.47719 0.99603 0.0
O924 O 0.52923 0.52819 0.99326 0.0
O925 O 0.48624 0.49016 0.97943 0.0
C926 C 0.47492 0.48425 0.01831 0.0
C927 C 0.51503 0.49697 0.05913 0.0
C928 C 0.51094 0.49594 0.08172 0.0
C929 C 0.50756 0.50116 0.06986 0.0
C930 C 0.52214 0.48669 0.08272 0.0
C931 C 0.52631 0.4879 0.06029 0.0
C932 C 0.52987 0.48283 0.07206 0.0
C933 C 0.51434 0.53601 0.01877 0.0
C934 C 0.50999 0.50129 0.04683 0.0
C935 C 0.55673 0.45932 0.03133 0.0
C936 C 0.57253 0.47833 0.0305 0.0
C937 C 0.53528 0.51951 1.00054 0.0
C938 C 0.49291 0.5058 0.95998 0.0
C939 C 0.49788 0.49948 0.94901 0.0
C940 C 0.49238 0.50297 0.93718 0.0
C941 C 0.4816 0.51275 0.93664 0.0
C942 C 0.48204 0.51532 0.95919 0.0
C943 C 0.4764 0.51873 0.94757 0.0
C944 C 0.49646 0.46775 1.00024 0.0
C945 C 0.49968 0.50276 0.9721 0.0
H946 H 0.4987 0.50804 0.06894 0.0
H947 H 0.52507 0.48264 0.09176 0.0
H948 H 0.53221 0.4846 0.05214 0.0
H949 H 0.53854 0.47578 0.07291 0.0
H950 H 0.50601 0.49184 0.94975 0.0
H951 H 0.47747 0.51615 0.92778 0.0
H952 H 0.47807 0.52024 0.96753 0.0
H953 H 0.46815 0.52625 0.947 0.0
Tb954 Tb 0.16025 0.32135 0.32635 0.0
C955 C 0.2012 0.39255 0.36123 0.0
C956 C 0.23574 0.40265 0.35976 0.0
C957 C 0.22582 0.42652 0.36403 0.0
C958 C 0.21575 0.38807 0.3592 0.0
C959 C 0.20599 0.41174 0.36396 0.0
C960 C 0.24069 0.42198 0.36191 0.0
C961 C 0.17141 0.39997 0.36726 0.0
N962 N 0.18229 0.37784 0.3611 0.0
C963 C 0.16743 0.38116 0.36452 0.0
C964 C 0.19075 0.41538 0.36683 0.0
Tb965 Tb 0.17707 0.34764 0.35593 0.0
N966 N 0.21029 0.36922 0.35726 0.0
C967 C 0.22429 0.36381 0.35676 0.0
C968 C 0.2501 0.39729 0.35847 0.0
C969 C 0.24434 0.37774 0.35715 0.0
H970 H 0.1524 0.36943 0.36482 0.0
H971 H 0.25532 0.37337 0.35639 0.0
H972 H 0.25595 0.43343 0.36225 0.0
H973 H 0.15954 0.40257 0.36969 0.0
H974 H 0.2202 0.34882 0.35565 0.0
H975 H 0.08221 0.29646 0.32481 0.0
H976 H 0.26562 0.40805 0.35878 0.0
H977 H 0.18466 0.299 0.3181 0.0
H978 H 0.11742 0.32078 0.32574 0.0
H979 H 0.17724 0.26561 0.31383 0.0
H980 H 0.22983 0.4414 0.36598 0.0
H981 H 0.07158 0.26163 0.32307 0.0
H982 H 0.08095 0.23587 0.32044 0.0
H983 H 0.1938 0.42992 0.36898 0.0
H984 H 0.10688 0.22743 0.31741 0.0
N985 N 0.12701 0.30006 0.32481 0.0
C986 C 0.11317 0.3057 0.3249 0.0
C987 C 0.08714 0.27227 0.32344 0.0
C988 C 0.10137 0.26667 0.32258 0.0
C989 C 0.09308 0.29191 0.32439 0.0
C990 C 0.1214 0.28111 0.32319 0.0
H991 H 0.14288 0.23847 0.31475 0.0
N992 N 0.15482 0.29095 0.3216 0.0
C993 C 0.16546 0.2684 0.31609 0.0
C994 C 0.13584 0.27637 0.3215 0.0
C995 C 0.16959 0.28736 0.31845 0.0
C996 C 0.14605 0.25313 0.31662 0.0
C997 C 0.1309 0.25704 0.31915 0.0
O998 O 0.17604 0.32825 0.30954 0.0
O999 O 0.1833 0.34537 0.33664 0.0
O1000 O 0.17387 0.36673 0.34286 0.0
O1001 O 0.15192 0.34389 0.32844 0.0
O1002 O 0.19172 0.33162 0.32419 0.0
O1003 O 0.14891 0.32865 0.31074 0.0
O1004 O 0.16157 0.34044 0.37286 0.0
O1005 O 0.15399 0.32385 0.34556 0.0
O1006 O 0.16312 0.30231 0.33961 0.0
O1007 O 0.18581 0.3254 0.35359 0.0
O1008 O 0.14554 0.33728 0.35819 0.0
O1009 O 0.18866 0.34006 0.37126 0.0
C1010 C 0.19826 0.346 0.33189 0.0
C1011 C 0.15792 0.32228 0.29092 0.0
C1012 C 0.16112 0.3263 0.26831 0.0
C1013 C 0.16453 0.33436 0.28042 0.0
C1014 C 0.15076 0.30609 0.26679 0.0
C1015 C 0.14739 0.30212 0.28922 0.0
C1016 C 0.1438 0.29409 0.27719 0.0
C1017 C 0.16125 0.36162 0.3334 0.0
C1018 C 0.16322 0.33094 0.30351 0.0
C1019 C 0.11101 0.24241 0.31908 0.0
C1020 C 0.09625 0.24722 0.3208 0.0
C1021 C 0.13901 0.32321 0.35026 0.0
C1022 C 0.18039 0.3467 0.39122 0.0
C1023 C 0.1734 0.33497 0.40186 0.0
C1024 C 0.17774 0.34334 0.41392 0.0
C1025 C 0.18938 0.36358 0.41516 0.0
C1026 C 0.19213 0.36683 0.3927 0.0
C1027 C 0.1966 0.37519 0.40462 0.0
C1028 C 0.17644 0.30768 0.34865 0.0
C1029 C 0.17458 0.33782 0.3787 0.0
H1030 H 0.17271 0.34995 0.28168 0.0
H1031 H 0.14801 0.2996 0.25754 0.0
H1032 H 0.14217 0.29261 0.29716 0.0
H1033 H 0.13577 0.27852 0.27594 0.0
H1034 H 0.16425 0.31941 0.40075 0.0
H1035 H 0.19309 0.37041 0.42432 0.0
H1036 H 0.19771 0.37607 0.38466 0.0
H1037 H 0.20564 0.39075 0.40569 0.0
Tb1038 Tb 0.68505 0.83764 0.32902 0.0
C1039 C 0.61002 0.81143 0.35989 0.0
C1040 C 0.60035 0.83554 0.35715 0.0
C1041 C 0.57558 0.80233 0.36169 0.0
C1042 C 0.6149 0.83011 0.35715 0.0
C1043 C 0.59033 0.79728 0.36229 0.0
C1044 C 0.58061 0.82148 0.3592 0.0
C1045 C 0.60154 0.7747 0.36658 0.0
N1046 N 0.62476 0.8073 0.36062 0.0
C1047 C 0.62087 0.78931 0.3643 0.0
C1048 C 0.58617 0.77865 0.36549 0.0
Tb1049 Tb 0.65592 0.83213 0.35644 0.0
N1050 N 0.63414 0.84327 0.3553 0.0
C1051 C 0.63996 0.86245 0.35408 0.0
C1052 C 0.60619 0.85504 0.35557 0.0
C1053 C 0.6261 0.86857 0.35406 0.0
H1054 H 0.63254 0.78597 0.36513 0.0
H1055 H 0.63084 0.88376 0.35301 0.0
H1056 H 0.56919 0.82534 0.35912 0.0
H1057 H 0.59851 0.7604 0.36922 0.0
H1058 H 0.65527 0.87314 0.35298 0.0
H1059 H 0.70804 0.78435 0.33172 0.0
H1060 H 0.59551 0.85981 0.35591 0.0
H1061 H 0.70948 0.88384 0.32071 0.0
H1062 H 0.68437 0.7958 0.33191 0.0
H1063 H 0.74385 0.90894 0.31684 0.0
H1064 H 0.56035 0.79167 0.36345 0.0
H1065 H 0.74366 0.80761 0.3293 0.0
H1066 H 0.77067 0.84196 0.32625 0.0
H1067 H 0.57122 0.76735 0.36736 0.0
H1068 H 0.78045 0.87597 0.32229 0.0
N1069 N 0.70609 0.82556 0.32982 0.0
C1070 C 0.69977 0.80625 0.33089 0.0
C1071 C 0.73327 0.81279 0.32951 0.0
C1072 C 0.73963 0.83245 0.32807 0.0
C1073 C 0.71323 0.79963 0.33083 0.0
C1074 C 0.72547 0.83838 0.32812 0.0
H1075 H 0.77051 0.90107 0.31865 0.0
N1076 N 0.71653 0.86198 0.3251 0.0
C1077 C 0.74042 0.89448 0.31936 0.0
C1078 C 0.7309 0.85732 0.32571 0.0
C1079 C 0.72092 0.88016 0.32153 0.0
C1080 C 0.75544 0.89 0.32043 0.0
C1081 C 0.75074 0.87114 0.32344 0.0
O1082 O 0.68252 0.84511 0.31059 0.0
O1083 O 0.66015 0.83839 0.33685 0.0
O1084 O 0.63725 0.8095 0.34306 0.0
O1085 O 0.66142 0.8073 0.33181 0.0
O1086 O 0.67531 0.85811 0.32356 0.0
O1087 O 0.6763 0.81625 0.31501 0.0
O1088 O 0.65814 0.82567 0.37522 0.0
O1089 O 0.68066 0.83111 0.34858 0.0
O1090 O 0.70366 0.86021 0.34251 0.0
O1091 O 0.67921 0.86243 0.35338 0.0
O1092 O 0.66594 0.81205 0.36227 0.0
O1093 O 0.66521 0.85444 0.36981 0.0
C1094 C 0.66025 0.8518 0.33066 0.0
C1095 C 0.68805 0.82766 0.29481 0.0
C1096 C 0.68779 0.82441 0.27214 0.0
C1097 C 0.67869 0.82527 0.28323 0.0
C1098 C 0.70649 0.8261 0.27281 0.0
C1099 C 0.70669 0.82933 0.2953 0.0
C1100 C 0.71586 0.82859 0.28434 0.0
C1101 C 0.64286 0.80017 0.33533 0.0
C1102 C 0.67787 0.82806 0.30618 0.0
C1103 C 0.7651 0.86556 0.32394 0.0
C1104 C 0.75954 0.8462 0.32621 0.0
C1105 C 0.68069 0.81791 0.35495 0.0
C1106 C 0.65318 0.84475 0.39015 0.0
C1107 C 0.66179 0.84653 0.40193 0.0
C1108 C 0.65306 0.84898 0.41272 0.0
C1109 C 0.63549 0.84953 0.41156 0.0
C1110 C 0.63563 0.8453 0.38917 0.0
C1111 C 0.62683 0.84763 0.39984 0.0
C1112 C 0.69785 0.86959 0.35005 0.0
C1113 C 0.66321 0.84312 0.37905 0.0
H1114 H 0.66415 0.82372 0.28288 0.0
H1115 H 0.71393 0.82569 0.26441 0.0
H1116 H 0.71411 0.83109 0.3041 0.0
H1117 H 0.73027 0.82991 0.28478 0.0
H1118 H 0.67552 0.84641 0.40267 0.0
H1119 H 0.62836 0.85123 0.41972 0.0
H1120 H 0.62884 0.84416 0.38022 0.0
H1121 H 0.6133 0.84805 0.39901 0.0
Tb1122 Tb 0.18087 0.83076 0.35518 0.0
C1123 C 0.13736 0.86006 0.32147 0.0
C1124 C 0.10291 0.83722 0.3245 0.0
C1125 C 0.1132 0.87036 0.31884 0.0
C1126 C 0.12275 0.84184 0.32462 0.0
C1127 C 0.13279 0.87445 0.3182 0.0
C1128 C 0.09825 0.85172 0.32197 0.0
C1129 C 0.16679 0.8949 0.31248 0.0
N1130 N 0.15597 0.86324 0.32078 0.0
C1131 C 0.17057 0.88016 0.31589 0.0
C1132 C 0.14789 0.89218 0.31387 0.0
Tb1133 Tb 0.16087 0.83834 0.32662 0.0
N1134 N 0.12786 0.8282 0.32678 0.0
C1135 C 0.11356 0.8092 0.32788 0.0
C1136 C 0.08834 0.818 0.32634 0.0
C1137 C 0.09366 0.80387 0.32788 0.0
H1138 H 0.18529 0.8826 0.31484 0.0
H1139 H 0.08245 0.78886 0.32903 0.0
H1140 H 0.0831 0.8485 0.322 0.0
H1141 H 0.17849 0.90839 0.30886 0.0
H1142 H 0.11735 0.79805 0.32907 0.0
H1143 H 0.25866 0.8834 0.35315 0.0
H1144 H 0.073 0.8139 0.32609 0.0
H1145 H 0.15782 0.78482 0.36388 0.0
H1146 H 0.22337 0.87264 0.35373 0.0
H1147 H 0.1661 0.75927 0.36766 0.0
H1148 H 0.10938 0.88127 0.31651 0.0
H1149 H 0.26987 0.85948 0.3545 0.0
H1150 H 0.26126 0.82484 0.35745 0.0
H1151 H 0.14499 0.90361 0.31123 0.0
H1152 H 0.23602 0.79096 0.36141 0.0
N1153 N 0.21425 0.84264 0.35512 0.0
C1154 C 0.22787 0.86193 0.35441 0.0
C1155 C 0.25428 0.85462 0.3548 0.0
C1156 C 0.24037 0.83503 0.35625 0.0
C1157 C 0.24801 0.86816 0.35406 0.0
C1158 C 0.22026 0.8295 0.35649 0.0
H1159 H 0.20046 0.76635 0.36538 0.0
N1160 N 0.18717 0.80621 0.35934 0.0
C1161 C 0.17751 0.77359 0.36504 0.0
C1162 C 0.20619 0.81057 0.3587 0.0
C1163 C 0.17289 0.78816 0.36296 0.0
C1164 C 0.19692 0.77766 0.36374 0.0
C1165 C 0.21162 0.79643 0.36073 0.0
O1166 O 0.16837 0.8222 0.37302 0.0
O1167 O 0.15662 0.83179 0.34629 0.0
O1168 O 0.16624 0.86232 0.33914 0.0
O1169 O 0.18873 0.86131 0.35312 0.0
O1170 O 0.14972 0.81057 0.35901 0.0
O1171 O 0.19339 0.85057 0.37008 0.0
O1172 O 0.17314 0.84443 0.3086 0.0
O1173 O 0.18512 0.83775 0.33571 0.0
O1174 O 0.17649 0.80809 0.34189 0.0
O1175 O 0.15171 0.80757 0.32958 0.0
O1176 O 0.19206 0.85829 0.32264 0.0
O1177 O 0.14755 0.81699 0.31261 0.0
C1178 C 0.14229 0.8181 0.35183 0.0
C1179 C 0.18997 0.83716 0.39012 0.0
C1180 C 0.19058 0.83888 0.41291 0.0
C1181 C 0.18211 0.83928 0.4014 0.0
C1182 C 0.20692 0.83609 0.41297 0.0
C1183 C 0.2062 0.83429 0.39037 0.0
C1184 C 0.21458 0.83372 0.40176 0.0
C1185 C 0.17954 0.86995 0.34826 0.0
C1186 C 0.1813 0.83849 0.37824 0.0
C1187 C 0.23154 0.80163 0.35999 0.0
C1188 C 0.2459 0.82092 0.35775 0.0
C1189 C 0.19954 0.85129 0.33019 0.0
C1190 C 0.15044 0.82879 0.29214 0.0
C1191 C 0.15843 0.82707 0.28081 0.0
C1192 C 0.14948 0.82691 0.26937 0.0
C1193 C 0.13261 0.82882 0.26942 0.0
C1194 C 0.13364 0.83075 0.29199 0.0
C1195 C 0.12484 0.83083 0.28067 0.0
C1196 C 0.16183 0.79949 0.33375 0.0
C1197 C 0.1595 0.82798 0.30399 0.0
H1198 H 0.16967 0.84168 0.40119 0.0
H1199 H 0.21365 0.83556 0.42169 0.0
H1200 H 0.21247 0.83266 0.3818 0.0
H1201 H 0.22712 0.83153 0.4019 0.0
H1202 H 0.17132 0.82539 0.28092 0.0
H1203 H 0.12553 0.82891 0.26074 0.0
H1204 H 0.1272 0.83201 0.30058 0.0
H1205 H 0.11187 0.83233 0.28062 0.0
Tb1206 Tb 0.82615 0.65275 0.66007 0.0
C1207 C 0.87045 0.72524 0.6939 0.0
C1208 C 0.9046 0.73432 0.69162 0.0
C1209 C 0.89592 0.759 0.69619 0.0
C1210 C 0.88445 0.72016 0.69148 0.0
C1211 C 0.87595 0.74463 0.6966 0.0
C1212 C 0.91024 0.75385 0.69368 0.0
C1213 C 0.84181 0.73382 0.70087 0.0
N1214 N 0.85141 0.71089 0.69426 0.0
C1215 C 0.83713 0.7148 0.69811 0.0
C1216 C 0.86128 0.74885 0.69995 0.0
Tb1217 Tb 0.84487 0.68026 0.68908 0.0
N1218 N 0.87832 0.70113 0.6897 0.0
C1219 C 0.89186 0.69513 0.68905 0.0
C1220 C 0.91845 0.72834 0.69009 0.0
C1221 C 0.91204 0.70861 0.68902 0.0
H1222 H 0.822 0.70335 0.69875 0.0
H1223 H 0.92263 0.70376 0.68811 0.0
H1224 H 0.92564 0.76498 0.69369 0.0
H1225 H 0.83038 0.73687 0.70366 0.0
H1226 H 0.88731 0.68 0.68813 0.0
H1227 H 0.74853 0.6299 0.65977 0.0
H1228 H 0.93408 0.73875 0.69009 0.0
H1229 H 0.84909 0.6288 0.65221 0.0
H1230 H 0.78394 0.6535 0.65996 0.0
H1231 H 0.84053 0.59485 0.64874 0.0
H1232 H 0.90046 0.77403 0.6981 0.0
H1233 H 0.7369 0.5948 0.65871 0.0
H1234 H 0.74516 0.56823 0.65645 0.0
H1235 H 0.86487 0.76357 0.7021 0.0
H1236 H 0.77024 0.55865 0.65338 0.0
N1237 N 0.79271 0.63214 0.65925 0.0
C1238 C 0.77927 0.6383 0.6594 0.0
C1239 C 0.75255 0.60513 0.65875 0.0
C1240 C 0.76632 0.59894 0.65785 0.0
C1241 C 0.75906 0.62492 0.65931 0.0
C1242 C 0.78651 0.613 0.65802 0.0
H1243 H 0.80588 0.56852 0.65031 0.0
N1244 N 0.81963 0.62179 0.65605 0.0
C1245 C 0.82912 0.59823 0.65094 0.0
C1246 C 0.80049 0.60761 0.65634 0.0
C1247 C 0.83391 0.61748 0.65287 0.0
C1248 C 0.80955 0.58341 0.65186 0.0
C1249 C 0.79489 0.58803 0.65439 0.0
O1250 O 0.84104 0.65812 0.64298 0.0
O1251 O 0.84995 0.67722 0.66965 0.0
O1252 O 0.84086 0.69898 0.67607 0.0
O1253 O 0.81856 0.67582 0.66188 0.0
O1254 O 0.85738 0.66228 0.65746 0.0
O1255 O 0.81441 0.6594 0.64437 0.0
O1256 O 0.83139 0.67559 0.7067 0.0
O1257 O 0.82095 0.6565 0.67927 0.0
O1258 O 0.82886 0.63398 0.67365 0.0
O1259 O 0.85285 0.65751 0.68674 0.0
O1260 O 0.81358 0.67044 0.69214 0.0
O1261 O 0.85552 0.67052 0.7037 0.0
C1262 C 0.8645 0.67718 0.66474 0.0
C1263 C 0.82195 0.65107 0.62467 0.0
C1264 C 0.82283 0.65335 0.60182 0.0
C1265 C 0.8274 0.66228 0.61377 0.0
C1266 C 0.81268 0.63294 0.60113 0.0
C1267 C 0.81156 0.63084 0.62367 0.0
C1268 C 0.80698 0.62186 0.61196 0.0
C1269 C 0.82775 0.69355 0.66686 0.0
C1270 C 0.82816 0.66073 0.63697 0.0
C1271 C 0.77486 0.57382 0.65473 0.0
C1272 C 0.76059 0.57927 0.65648 0.0
C1273 C 0.80637 0.65621 0.68433 0.0
C1274 C 0.85159 0.67933 0.7241 0.0
C1275 C 0.84397 0.66823 0.73494 0.0
C1276 C 0.85249 0.67589 0.74673 0.0
C1277 C 0.86845 0.69497 0.74748 0.0
C1278 C 0.86745 0.69831 0.72509 0.0
C1279 C 0.87577 0.70609 0.73674 0.0
C1280 C 0.8425 0.63944 0.68248 0.0
C1281 C 0.84326 0.67065 0.71181 0.0
H1282 H 0.83516 0.67791 0.61467 0.0
H1283 H 0.80937 0.6254 0.59223 0.0
H1284 H 0.80722 0.622 0.63192 0.0
H1285 H 0.79917 0.60621 0.61125 0.0
H1286 H 0.83175 0.65352 0.73416 0.0
H1287 H 0.87519 0.70137 0.75641 0.0
H1288 H 0.8735 0.70705 0.71686 0.0
H1289 H 0.88803 0.72076 0.73745 0.0
Tb1290 Tb 0.351 0.17395 0.66086 0.0
C1291 C 0.27381 0.13801 0.69043 0.0
C1292 C 0.26334 0.16178 0.69051 0.0
C1293 C 0.23906 0.12763 0.69229 0.0
C1294 C 0.27831 0.15699 0.68959 0.0
C1295 C 0.25419 0.12309 0.69206 0.0
C1296 C 0.24364 0.14697 0.69156 0.0
C1297 C 0.26624 0.10076 0.69454 0.0
N1298 N 0.28893 0.13437 0.69056 0.0
C1299 C 0.28548 0.1161 0.69304 0.0
C1300 C 0.25049 0.10422 0.69389 0.0
Tb1301 Tb 0.31998 0.16046 0.68808 0.0
N1302 N 0.29753 0.17086 0.68876 0.0
C1303 C 0.30285 0.19 0.68944 0.0
C1304 C 0.2687 0.18133 0.69086 0.0
C1305 C 0.28856 0.1955 0.69037 0.0
H1306 H 0.29745 0.11316 0.69356 0.0
H1307 H 0.29294 0.21068 0.69085 0.0
H1308 H 0.23191 0.15037 0.69215 0.0
H1309 H 0.26358 0.08629 0.6962 0.0
H1310 H 0.3181 0.20119 0.68916 0.0
H1311 H 0.37565 0.12185 0.65737 0.0
H1312 H 0.25766 0.18556 0.69193 0.0
H1313 H 0.37507 0.22162 0.65707 0.0
H1314 H 0.35127 0.13232 0.65902 0.0
H1315 H 0.40955 0.24801 0.65557 0.0
H1316 H 0.22386 0.11637 0.69344 0.0
H1317 H 0.41124 0.14612 0.65698 0.0
H1318 H 0.43785 0.18112 0.65739 0.0
H1319 H 0.23562 0.09234 0.69517 0.0
H1320 H 0.44711 0.21553 0.65712 0.0
N1321 N 0.37255 0.16248 0.65983 0.0
C1322 C 0.36665 0.1432 0.65891 0.0
C1323 C 0.40053 0.15085 0.65785 0.0
C1324 C 0.4065 0.17054 0.65845 0.0
C1325 C 0.3805 0.13713 0.65801 0.0
C1326 C 0.39196 0.17593 0.6593 0.0
H1327 H 0.43663 0.24063 0.65635 0.0
N1328 N 0.38252 0.19951 0.65919 0.0
C1329 C 0.40627 0.23321 0.65661 0.0
C1330 C 0.39716 0.19517 0.65912 0.0
C1331 C 0.38674 0.21819 0.65743 0.0
C1332 C 0.42152 0.229 0.6571 0.0
C1333 C 0.41705 0.20974 0.65812 0.0
O1334 O 0.34882 0.18592 0.64395 0.0
O1335 O 0.32478 0.17118 0.6693 0.0
O1336 O 0.30262 0.14005 0.67323 0.0
O1337 O 0.32784 0.14298 0.6603 0.0
O1338 O 0.34063 0.19477 0.65858 0.0
O1339 O 0.34546 0.1574 0.64438 0.0
O1340 O 0.32354 0.15004 0.70528 0.0
O1341 O 0.34599 0.16295 0.67953 0.0
O1342 O 0.36819 0.19341 0.67614 0.0
O1343 O 0.34274 0.19162 0.68822 0.0
O1344 O 0.33048 0.13983 0.6906 0.0
O1345 O 0.32547 0.17789 0.70413 0.0
C1346 C 0.32481 0.18586 0.665 0.0
C1347 C 0.35801 0.17542 0.62593 0.0
C1348 C 0.35912 0.17592 0.6032 0.0
C1349 C 0.34831 0.17076 0.61432 0.0
C1350 C 0.37978 0.1856 0.6038 0.0
C1351 C 0.37862 0.1849 0.62637 0.0
C1352 C 0.38944 0.18991 0.61535 0.0
C1353 C 0.30924 0.13363 0.66407 0.0
C1354 C 0.34632 0.17105 0.63736 0.0
C1355 C 0.43171 0.20455 0.65779 0.0
C1356 C 0.42644 0.18497 0.65793 0.0
C1357 C 0.34603 0.14836 0.68393 0.0
C1358 C 0.31406 0.16086 0.72299 0.0
C1359 C 0.32394 0.16528 0.73452 0.0
C1360 C 0.31333 0.16052 0.74572 0.0
C1361 C 0.29269 0.15141 0.74526 0.0
C1362 C 0.29348 0.15199 0.72269 0.0
C1363 C 0.28286 0.1473 0.73378 0.0
C1364 C 0.36153 0.20039 0.6849 0.0
C1365 C 0.32553 0.16501 0.71149 0.0
H1366 H 0.33236 0.16358 0.61395 0.0
H1367 H 0.3884 0.18966 0.59534 0.0
H1368 H 0.38638 0.1886 0.63517 0.0
H1369 H 0.40536 0.19729 0.61576 0.0
H1370 H 0.33986 0.17205 0.73477 0.0
H1371 H 0.28422 0.1477 0.75378 0.0
H1372 H 0.28561 0.14859 0.71394 0.0
H1373 H 0.26696 0.1404 0.73348 0.0
Tb1374 Tb 0.84677 0.16498 0.68965 0.0
C1375 C 0.80097 0.19218 0.65701 0.0
C1376 C 0.76694 0.1681 0.66035 0.0
C1377 C 0.77566 0.20117 0.65556 0.0
C1378 C 0.78701 0.17354 0.65988 0.0
C1379 C 0.79549 0.20617 0.65451 0.0
C1380 C 0.76138 0.18213 0.65851 0.0
C1381 C 0.82932 0.22839 0.64915 0.0
N1382 N 0.81988 0.19633 0.65607 0.0
C1383 C 0.83399 0.21399 0.65176 0.0
C1384 C 0.81003 0.22456 0.6507 0.0
Tb1385 Tb 0.82644 0.17221 0.66112 0.0
N1386 N 0.79304 0.16047 0.66145 0.0
C1387 C 0.7794 0.14123 0.66247 0.0
C1388 C 0.75305 0.14862 0.66225 0.0
C1389 C 0.75929 0.13508 0.66308 0.0
H1390 H 0.84898 0.21722 0.65065 0.0
H1391 H 0.74865 0.1199 0.66427 0.0
H1392 H 0.74606 0.1783 0.65899 0.0
H1393 H 0.84062 0.24246 0.64601 0.0
H1394 H 0.78384 0.13051 0.66325 0.0
H1395 H 0.92444 0.21763 0.68979 0.0
H1396 H 0.73748 0.14383 0.66273 0.0
H1397 H 0.82303 0.11861 0.69757 0.0
H1398 H 0.88925 0.2067 0.68852 0.0
H1399 H 0.83107 0.09306 0.70186 0.0
H1400 H 0.77115 0.21175 0.65382 0.0
H1401 H 0.93562 0.19381 0.69251 0.0
H1402 H 0.92693 0.15917 0.69513 0.0
H1403 H 0.80645 0.23573 0.64867 0.0
H1404 H 0.90145 0.12513 0.69827 0.0
N1405 N 0.88007 0.17671 0.69013 0.0
C1406 C 0.8937 0.19602 0.68962 0.0
C1407 C 0.92006 0.18887 0.69175 0.0
C1408 C 0.90609 0.16922 0.69267 0.0
C1409 C 0.91381 0.20234 0.6903 0.0
C1410 C 0.88598 0.16358 0.69196 0.0
H1411 H 0.86561 0.10032 0.70091 0.0
N1412 N 0.85271 0.14022 0.69393 0.0
C1413 C 0.84266 0.10747 0.69954 0.0
C1414 C 0.87177 0.14462 0.6939 0.0
C1415 C 0.83818 0.12205 0.69716 0.0
C1416 C 0.86217 0.11162 0.69899 0.0
C1417 C 0.87707 0.13048 0.69636 0.0
O1418 O 0.83401 0.15642 0.7074 0.0
O1419 O 0.82248 0.16564 0.68069 0.0
O1420 O 0.83129 0.19564 0.6739 0.0
O1421 O 0.85479 0.19555 0.68733 0.0
O1422 O 0.8156 0.14451 0.69337 0.0
O1423 O 0.8587 0.18503 0.70451 0.0
O1424 O 0.83875 0.17958 0.64316 0.0
O1425 O 0.85109 0.17227 0.67019 0.0
O1426 O 0.84344 0.14288 0.6762 0.0
O1427 O 0.81832 0.14169 0.66391 0.0
O1428 O 0.85749 0.19289 0.6572 0.0
O1429 O 0.81416 0.15124 0.6468 0.0
C1430 C 0.80814 0.15194 0.68613 0.0
C1431 C 0.85521 0.17166 0.72458 0.0
C1432 C 0.85538 0.1732 0.74736 0.0
C1433 C 0.84713 0.1737 0.73578 0.0
C1434 C 0.87168 0.17035 0.74755 0.0
C1435 C 0.87143 0.1688 0.72497 0.0
C1436 C 0.87957 0.16809 0.73642 0.0
C1437 C 0.84519 0.20387 0.6826 0.0
C1438 C 0.84662 0.17283 0.71263 0.0
C1439 C 0.89705 0.13578 0.69648 0.0
C1440 C 0.91155 0.15515 0.69468 0.0
C1441 C 0.86529 0.18614 0.66472 0.0
C1442 C 0.81699 0.16326 0.6264 0.0
C1443 C 0.82514 0.16117 0.61525 0.0
C1444 C 0.81634 0.16056 0.60367 0.0
C1445 C 0.79938 0.16233 0.6034 0.0
C1446 C 0.80017 0.16516 0.62596 0.0
C1447 C 0.79146 0.16473 0.61448 0.0
C1448 C 0.82886 0.13402 0.66803 0.0
C1449 C 0.82598 0.16289 0.63837 0.0
H1450 H 0.83469 0.17609 0.73546 0.0
H1451 H 0.87822 0.1697 0.75633 0.0
H1452 H 0.87787 0.16722 0.71647 0.0
H1453 H 0.89209 0.16587 0.73666 0.0
H1454 H 0.83806 0.15956 0.61561 0.0
H1455 H 0.79237 0.16201 0.5946 0.0
H1456 H 0.7937 0.1668 0.63445 0.0
H1457 H 0.77845 0.16615 0.61418 0.0
H1458 H 0.33394 0.84173 0.06987 0.0
H1459 H 0.36253 0.86528 0.05808 0.0
H1460 H 0.33091 0.89425 0.04728 0.0
H1461 H 0.30215 0.87053 0.05883 0.0
H1462 H 0.3506 0.89026 0.02765 0.0
H1463 H 0.3647 0.91245 0.07037 0.0
H1464 H 0.36941 0.90996 0.0929 0.0
H1465 H 0.4162 0.89836 0.08512 0.0
H1466 H 0.41155 0.90048 0.06251 0.0
H1467 H 0.43826 0.98844 0.02064 0.0
H1468 H 0.40705 0.96099 0.02734 0.0
H1469 H 0.43099 0.9231 0.02285 0.0
H1470 H 0.46262 0.95074 0.01677 0.0
H1471 H 0.41503 0.93042 0.04892 0.0
H1472 H 0.37353 0.88664 0.00708 0.0
H1473 H 0.36577 0.88847 0.98495 0.0
H1474 H 0.37264 0.94468 0.99166 0.0
H1475 H 0.37971 0.94283 0.01388 0.0
C1476 C 0.33302 0.85302 0.06489 0.0
C1477 C 0.31579 0.8543 0.06533 0.0
C1478 C 0.34942 0.86654 0.05823 0.0
C1479 C 0.34892 0.88162 0.05188 0.0
C1480 C 0.33164 0.88275 0.05213 0.0
C1481 C 0.31527 0.86929 0.05883 0.0
C1482 C 0.36646 0.8964 0.0451 0.0
C1483 C 0.36467 0.89908 0.03233 0.0
C1484 C 0.38489 0.9078 0.05115 0.0
C1485 C 0.38761 0.90638 0.06474 0.0
C1486 C 0.37585 0.90917 0.07345 0.0
C1487 C 0.37854 0.90786 0.08624 0.0
C1488 C 0.39305 0.90394 0.09044 0.0
C1489 C 0.40493 0.90135 0.08185 0.0
C1490 C 0.40228 0.9026 0.06905 0.0
C1491 C 0.43666 0.97414 0.02071 0.0
C1492 C 0.45273 0.97167 0.01789 0.0
C1493 C 0.41876 0.95844 0.02441 0.0
C1494 C 0.41648 0.93989 0.02518 0.0
C1495 C 0.4323 0.93721 0.02197 0.0
C1496 C 0.45035 0.95302 0.01844 0.0
C1497 C 0.39907 0.92436 0.03154 0.0
C1498 C 0.40097 0.92147 0.04425 0.0
C1499 C 0.38072 0.91297 0.02549 0.0
C1500 C 0.37775 0.91485 0.01204 0.0
C1501 C 0.37354 0.89945 0.00379 0.0
C1502 C 0.36903 0.90038 0.99127 0.0
C1503 C 0.36877 0.91671 0.98689 0.0
C1504 C 0.37297 0.9321 0.99504 0.0
C1505 C 0.37729 0.93114 0.0076 0.0
H1506 H 0.36534 0.91745 0.97719 0.0
H1507 H 0.39513 0.90296 0.10034 0.0
H1508 H 0.13147 0.44668 0.07979 0.0
H1509 H 0.10645 0.45118 0.06929 0.0
H1510 H 0.15048 0.49335 0.0451 0.0
H1511 H 0.17557 0.48813 0.05495 0.0
H1512 H 0.12138 0.50329 0.05783 0.0
H1513 H 0.12563 0.45576 0.03167 0.0
H1514 H 0.12598 0.4254 0.02786 0.0
H1515 H 0.06818 0.39277 0.04345 0.0
H1516 H 0.06762 0.42299 0.04753 0.0
H1517 H 0.05231 0.51184 0.02018 0.0
H1518 H 0.08038 0.5092 0.02703 0.0
H1519 H 0.04096 0.4508 0.03916 0.0
H1520 H 0.01307 0.45272 0.03063 0.0
H1521 H 0.07017 0.45048 0.03151 0.0
H1522 H 0.06555 0.49621 0.05942 0.0
H1523 H 0.06366 0.52565 0.06382 0.0
H1524 H 0.11999 0.56058 0.04679 0.0
H1525 H 0.12214 0.53131 0.04221 0.0
C1526 C 0.13594 0.45669 0.0721 0.0
C1527 C 0.15574 0.46688 0.06822 0.0
C1528 C 0.12157 0.45939 0.0662 0.0
C1529 C 0.12661 0.47259 0.05643 0.0
C1530 C 0.14631 0.48317 0.05268 0.0
C1531 C 0.16068 0.48021 0.05841 0.0
C1532 C 0.11112 0.47489 0.04996 0.0
C1533 C 0.11028 0.49187 0.05195 0.0
C1534 C 0.09642 0.45982 0.04254 0.0
C1535 C 0.09668 0.44165 0.04002 0.0
C1536 C 0.11308 0.44213 0.03439 0.0
C1537 C 0.11329 0.42494 0.03216 0.0
C1538 C 0.09713 0.40717 0.03544 0.0
C1539 C 0.0807 0.40655 0.04093 0.0
C1540 C 0.08042 0.4237 0.04319 0.0
C1541 C 0.04965 0.49825 0.02389 0.0
C1542 C 0.0305 0.48228 0.02438 0.0
C1543 C 0.06577 0.49687 0.02817 0.0
C1544 C 0.06299 0.47995 0.034 0.0
C1545 C 0.04373 0.46404 0.03468 0.0
C1546 C 0.02772 0.46517 0.02986 0.0
C1547 C 0.07993 0.47879 0.03956 0.0
C1548 C 0.08115 0.46199 0.03739 0.0
C1549 C 0.09474 0.4939 0.04705 0.0
C1550 C 0.09395 0.51157 0.05041 0.0
C1551 C 0.07755 0.51018 0.05664 0.0
C1552 C 0.07641 0.52683 0.05915 0.0
C1553 C 0.09167 0.54497 0.05556 0.0
C1554 C 0.10818 0.54652 0.04956 0.0
C1555 C 0.10939 0.52991 0.04704 0.0
H1556 H 0.09071 0.55783 0.05744 0.0
H1557 H 0.09733 0.39388 0.0337 0.0
H1558 H 0.58792 0.71088 0.06167 0.0
H1559 H 0.5808 0.67976 0.05263 0.0
H1560 H 0.51917 0.656 0.06077 0.0
H1561 H 0.52628 0.68671 0.07032 0.0
H1562 H 0.53067 0.6315 0.06726 0.0
H1563 H 0.5375 0.66912 0.03088 0.0
H1564 H 0.55408 0.69708 0.01688 0.0
H1565 H 0.60181 0.68588 0.01217 0.0
H1566 H 0.58563 0.65799 0.02629 0.0
H1567 H 0.4918 0.55305 0.02082 0.0
H1568 H 0.50104 0.58437 0.03067 0.0
H1569 H 0.55892 0.59343 0.03876 0.0
H1570 H 0.5496 0.56182 0.02938 0.0
H1571 H 0.55045 0.625 0.02435 0.0
H1572 H 0.54256 0.58681 0.06114 0.0
H1573 H 0.52555 0.55959 0.07559 0.0
H1574 H 0.47884 0.57243 0.07961 0.0
H1575 H 0.49523 0.5993 0.06482 0.0
C1576 C 0.57287 0.69899 0.06161 0.0
C1577 C 0.55767 0.70132 0.06669 0.0
C1578 C 0.5688 0.68127 0.05632 0.0
C1579 C 0.54942 0.66561 0.0559 0.0
C1580 C 0.53423 0.6679 0.06095 0.0
C1581 C 0.5383 0.68555 0.0663 0.0
C1582 C 0.54493 0.64666 0.05046 0.0
C1583 C 0.53483 0.63008 0.05782 0.0
C1584 C 0.55071 0.64485 0.03825 0.0
C1585 C 0.56045 0.66159 0.02975 0.0
C1586 C 0.55161 0.67271 0.02694 0.0
C1587 C 0.56092 0.68853 0.01897 0.0
C1588 C 0.57901 0.69329 0.01367 0.0
C1589 C 0.58781 0.6822 0.0163 0.0
C1590 C 0.57857 0.66638 0.02428 0.0
C1591 C 0.50647 0.56169 0.02475 0.0
C1592 C 0.51997 0.555 0.02442 0.0
C1593 C 0.51167 0.57949 0.03038 0.0
C1594 C 0.53055 0.59099 0.03552 0.0
C1595 C 0.54421 0.58458 0.03494 0.0
C1596 C 0.53886 0.56656 0.02961 0.0
C1597 C 0.53617 0.61001 0.04114 0.0
C1598 C 0.5464 0.62653 0.03379 0.0
C1599 C 0.53039 0.61176 0.05333 0.0
C1600 C 0.51996 0.59486 0.06166 0.0
C1601 C 0.52842 0.58354 0.06485 0.0
C1602 C 0.51893 0.56822 0.07317 0.0
C1603 C 0.5011 0.56425 0.07853 0.0
C1604 C 0.49264 0.57549 0.07547 0.0
C1605 C 0.50197 0.5907 0.06706 0.0
H1606 H 0.49388 0.55251 0.08508 0.0
H1607 H 0.5862 0.70554 0.0075 0.0
H1608 H 0.83598 0.32309 0.93914 0.0
H1609 H 0.86048 0.35355 0.94911 0.0
H1610 H 0.88671 0.32381 0.96729 0.0
H1611 H 0.86221 0.29329 0.95741 0.0
H1612 H 0.88153 0.34875 0.98333 0.0
H1613 H 0.90829 0.34989 0.94257 0.0
H1614 H 0.90744 0.34824 0.91956 0.0
H1615 H 0.89896 0.39736 0.91818 0.0
H1616 H 0.8995 0.39914 0.94119 0.0
H1617 H 0.98268 0.44313 0.98442 0.0
H1618 H 0.95834 0.4128 0.97442 0.0
H1619 H 0.91154 0.41785 0.99171 0.0
H1620 H 0.9357 0.44832 1.00163 0.0
H1621 H 0.92773 0.40497 0.95794 0.0
H1622 H 0.87557 0.37194 0.99946 0.0
H1623 H 0.87676 0.37423 0.02247 0.0
H1624 H 0.93741 0.38893 0.02226 0.0
H1625 H 0.93649 0.38645 0.99927 0.0
C1626 C 0.8469 0.32303 0.94533 0.0
C1627 C 0.84722 0.30582 0.94747 0.0
C1628 C 0.86094 0.34045 0.95096 0.0
C1629 C 0.87547 0.34094 0.95888 0.0
C1630 C 0.87563 0.32374 0.96119 0.0
C1631 C 0.86173 0.30636 0.95548 0.0
C1632 C 0.8906 0.35942 0.9647 0.0
C1633 C 0.89161 0.36105 0.97778 0.0
C1634 C 0.90381 0.37543 0.95746 0.0
C1635 C 0.90369 0.37449 0.94361 0.0
C1636 C 0.90607 0.36023 0.93736 0.0
C1637 C 0.90566 0.35928 0.92432 0.0
C1638 C 0.903 0.37259 0.91741 0.0
C1639 C 0.90088 0.38697 0.92354 0.0
C1640 C 0.90128 0.38798 0.93658 0.0
C1641 C 0.96722 0.43783 0.98612 0.0
C1642 C 0.96118 0.44808 0.99398 0.0
C1643 C 0.95333 0.42051 0.98035 0.0
C1644 C 0.93316 0.41302 0.98239 0.0
C1645 C 0.92705 0.42328 0.99012 0.0
C1646 C 0.94092 0.44066 0.99584 0.0
C1647 C 0.91854 0.39433 0.97655 0.0
C1648 C 0.9176 0.39268 0.96348 0.0
C1649 C 0.90542 0.37829 0.9838 0.0
C1650 C 0.90598 0.37914 0.99764 0.0
C1651 C 0.88911 0.37552 0.00433 0.0
C1652 C 0.88975 0.37688 0.01737 0.0
C1653 C 0.90715 0.38174 0.02382 0.0
C1654 C 0.92394 0.38519 0.01725 0.0
C1655 C 0.92337 0.38382 0.00422 0.0
H1656 H 0.90763 0.38284 0.0339 0.0
H1657 H 0.90274 0.37187 0.90732 0.0
H1658 H 0.67907 0.50691 0.95084 0.0
H1659 H 0.65028 0.50219 0.96239 0.0
H1660 H 0.6717 0.5636 0.96135 0.0
H1661 H 0.70114 0.56862 0.95057 0.0
H1662 H 0.6583 0.55196 0.98306 0.0
H1663 H 0.63245 0.52841 0.94212 0.0
H1664 H 0.62517 0.5085 0.92298 0.0
H1665 H 0.59272 0.45677 0.94437 0.0
H1666 H 0.60006 0.47637 0.96367 0.0
H1667 H 0.56955 0.55193 0.99585 0.0
H1668 H 0.60005 0.5546 0.98822 0.0
H1669 H 0.5752 0.49291 0.99208 0.0
H1670 H 0.54424 0.49016 0.99919 0.0
H1671 H 0.59042 0.50319 0.97002 0.0
H1672 H 0.61968 0.52859 0.01131 0.0
H1673 H 0.62814 0.55001 0.02991 0.0
H1674 H 0.65349 0.59992 0.0064 0.0
H1675 H 0.6455 0.57881 0.98775 0.0
C1676 C 0.67785 0.51949 0.95318 0.0
C1677 C 0.6926 0.53818 0.94967 0.0
C1678 C 0.66114 0.51671 0.95966 0.0
C1679 C 0.65851 0.53247 0.96262 0.0
C1680 C 0.67323 0.55113 0.95917 0.0
C1681 C 0.69003 0.55396 0.95283 0.0
C1682 C 0.64075 0.52971 0.96954 0.0
C1683 C 0.64347 0.54139 0.98009 0.0
C1684 C 0.62128 0.51568 0.96593 0.0
C1685 C 0.61702 0.50385 0.95436 0.0
C1686 C 0.62393 0.51278 0.94276 0.0
C1687 C 0.61976 0.50156 0.93188 0.0
C1688 C 0.60854 0.48138 0.93246 0.0
C1689 C 0.60145 0.47239 0.94393 0.0
C1690 C 0.6056 0.48356 0.95484 0.0
C1691 C 0.57077 0.53899 0.99536 0.0
C1692 C 0.5546 0.5209 0.99835 0.0
C1693 C 0.58832 0.54055 0.99107 0.0
C1694 C 0.59024 0.52403 0.98973 0.0
C1695 C 0.57424 0.50594 0.99309 0.0
C1696 C 0.55656 0.50437 0.99729 0.0
C1697 C 0.608 0.52544 0.98353 0.0
C1698 C 0.60527 0.51357 0.97306 0.0
C1699 C 0.62746 0.5395 0.98707 0.0
C1700 C 0.63174 0.55214 0.99819 0.0
C1701 C 0.62687 0.54412 0.01015 0.0
C1702 C 0.6317 0.5562 0.02068 0.0
C1703 C 0.64117 0.57628 0.01932 0.0
C1704 C 0.64607 0.58436 0.00744 0.0
C1705 C 0.64152 0.57236 0.9969 0.0
H1706 H 0.6448 0.58558 0.02748 0.0
H1707 H 0.60531 0.47272 0.92403 0.0
H1708 H 0.48985 0.16852 0.94678 0.0
H1709 H 0.49698 0.14576 0.95726 0.0
H1710 H 0.43476 0.10535 0.96051 0.0
H1711 H 0.42747 0.12869 0.95096 0.0
H1712 H 0.45126 0.10471 0.98077 0.0
H1713 H 0.46516 0.10061 0.93793 0.0
H1714 H 0.48013 0.11207 0.91729 0.0
H1715 H 0.53776 0.13423 0.93336 0.0
H1716 H 0.52315 0.12312 0.95414 0.0
H1717 H 0.46247 0.02029 0.98668 0.0
H1718 H 0.45575 0.0444 0.97744 0.0
H1719 H 0.51187 0.09022 0.99088 0.0
H1720 H 0.51853 0.06627 1.00046 0.0
H1721 H 0.4987 0.08767 0.96244 0.0
H1722 H 0.4818 0.09041 0.00594 0.0
H1723 H 0.46427 0.0753 0.02538 0.0
H1724 H 0.40884 0.05122 0.00599 0.0
H1725 H 0.42606 0.06604 0.98639 0.0
C1726 C 0.47763 0.15495 0.9499 0.0
C1727 C 0.45804 0.1505 0.94796 0.0
C1728 C 0.48176 0.14178 0.95572 0.0
C1729 C 0.46642 0.12363 0.95945 0.0
C1730 C 0.44687 0.1192 0.95765 0.0
C1731 C 0.44272 0.13251 0.95203 0.0
C1732 C 0.47076 0.10937 0.96536 0.0
C1733 C 0.4615 0.1009 0.97665 0.0
C1734 C 0.48421 0.10437 0.96008 0.0
C1735 C 0.49307 0.11123 0.94762 0.0
C1736 C 0.48104 0.10808 0.93708 0.0
C1737 C 0.48945 0.11448 0.92535 0.0
C1738 C 0.50988 0.12393 0.92402 0.0
C1739 C 0.52194 0.12695 0.93441 0.0
C1740 C 0.5136 0.12059 0.94616 0.0
C1741 C 0.47336 0.03549 0.98769 0.0
C1742 C 0.49101 0.04142 0.99429 0.0
C1743 C 0.46948 0.0492 0.98244 0.0
C1744 C 0.48334 0.06898 0.98352 0.0
C1745 C 0.50104 0.07497 0.98999 0.0
C1746 C 0.50476 0.0613 0.99548 0.0
C1747 C 0.47935 0.08338 0.97775 0.0
C1748 C 0.48859 0.09171 0.96649 0.0
C1749 C 0.46557 0.08789 0.98288 0.0
C1750 C 0.45522 0.07916 0.99468 0.0
C1751 C 0.46588 0.08174 0.00579 0.0
C1752 C 0.45601 0.07326 0.01685 0.0
C1753 C 0.43547 0.06223 0.01691 0.0
C1754 C 0.42476 0.05974 0.00592 0.0
C1755 C 0.43456 0.0682 0.99485 0.0
H1756 H 0.42785 0.05567 0.02547 0.0
H1757 H 0.51637 0.12886 0.91493 0.0
H1758 H 0.69383 0.16713 0.96679 0.0
H1759 H 0.66488 0.14334 0.97815 0.0
H1760 H 0.6473 0.10436 0.94644 0.0
H1761 H 0.67623 0.12803 0.93504 0.0
H1762 H 0.61612 0.10454 0.95616 0.0
H1763 H 0.67029 0.0984 0.97171 0.0
H1764 H 0.70305 0.10992 0.98117 0.0
H1765 H 0.6852 0.12761 0.01426 0.0
H1766 H 0.65241 0.11643 0.00491 0.0
H1767 H 0.56845 0.01491 0.9966 0.0
H1768 H 0.59866 0.04305 0.98919 0.0
H1769 H 0.57049 0.07758 0.99111 0.0
H1770 H 0.54025 0.04944 0.99823 0.0
H1771 H 0.62445 0.08044 0.997 0.0
H1772 H 0.58188 0.10356 0.96422 0.0
H1773 H 0.54907 0.08927 0.95422 0.0
H1774 H 0.54433 0.03324 0.95412 0.0
H1775 H 0.57718 0.04725 0.96392 0.0
C1776 C 0.68385 0.15346 0.96225 0.0
C1777 C 0.68742 0.14945 0.95002 0.0
C1778 C 0.66728 0.13989 0.96875 0.0
C1779 C 0.65401 0.12197 0.9632 0.0
C1780 C 0.6573 0.11811 0.95091 0.0
C1781 C 0.67383 0.13168 0.94439 0.0
C1782 C 0.63694 0.10704 0.97027 0.0
C1783 C 0.61797 0.09939 0.96512 0.0
C1784 C 0.6393 0.1001 0.98191 0.0
C1785 C 0.65898 0.10678 0.98756 0.0
C1786 C 0.67341 0.10489 0.98096 0.0
C1787 C 0.69197 0.11134 0.98631 0.0
C1788 C 0.69622 0.11955 0.99829 0.0
C1789 C 0.6819 0.12128 0.00497 0.0
C1790 C 0.66332 0.11488 0.99965 0.0
C1791 C 0.56891 0.02865 0.99571 0.0
C1792 C 0.55211 0.03006 0.99815 0.0
C1793 C 0.58616 0.04471 0.99153 0.0
C1794 C 0.58676 0.06235 0.9895 0.0
C1795 C 0.5703 0.06406 0.99256 0.0
C1796 C 0.55305 0.04799 0.99673 0.0
C1797 C 0.60374 0.07814 0.98292 0.0
C1798 C 0.62265 0.08587 0.98814 0.0
C1799 C 0.60139 0.08488 0.97122 0.0
C1800 C 0.5819 0.07644 0.96491 0.0
C1801 C 0.57387 0.08822 0.96199 0.0
C1802 C 0.55526 0.08016 0.95637 0.0
C1803 C 0.54459 0.06035 0.95356 0.0
C1804 C 0.55256 0.04857 0.95632 0.0
C1805 C 0.57117 0.05656 0.96191 0.0
H1806 H 0.53018 0.05414 0.94924 0.0
H1807 H 0.7106 0.12452 1.00242 0.0
H1808 H 0.87168 0.54406 0.93082 0.0
H1809 H 0.89684 0.53936 0.94104 0.0
H1810 H 0.86781 0.53191 0.97633 0.0
H1811 H 0.84225 0.53604 0.96616 0.0
H1812 H 0.90752 0.55638 0.97843 0.0
H1813 H 0.86394 0.4933 0.96097 0.0
H1814 H 0.84497 0.4698 0.94423 0.0
H1815 H 0.89835 0.48599 0.92434 0.0
H1816 H 0.91763 0.50979 0.94089 0.0
H1817 H 0.95403 0.49147 0.99536 0.0
H1818 H 0.9273 0.4962 0.98778 0.0
H1819 H 0.96918 0.55614 0.98062 0.0
H1820 H 0.99557 0.55176 0.98912 0.0
H1821 H 0.92197 0.50505 0.96527 0.0
H1822 H 0.95726 0.58018 0.98082 0.0
H1823 H 0.97307 0.60273 0.99863 0.0
H1824 H 0.93141 0.5603 0.02363 0.0
H1825 H 0.91557 0.53751 0.0059 0.0
C1826 C 0.87042 0.54115 0.94072 0.0
C1827 C 0.85477 0.54039 0.94761 0.0
C1828 C 0.88492 0.53855 0.94657 0.0
C1829 C 0.88419 0.53516 0.95945 0.0
C1830 C 0.86874 0.53456 0.96639 0.0
C1831 C 0.85416 0.53704 0.96054 0.0
C1832 C 0.89964 0.53248 0.96574 0.0
C1833 C 0.91066 0.54514 0.97552 0.0
C1834 C 0.90376 0.51778 0.96206 0.0
C1835 C 0.8922 0.50346 0.95211 0.0
C1836 C 0.87162 0.49196 0.95298 0.0
C1837 C 0.86081 0.47857 0.94353 0.0
C1838 C 0.87044 0.47644 0.93321 0.0
C1839 C 0.89091 0.48767 0.93233 0.0
C1840 C 0.90178 0.50111 0.94175 0.0
C1841 C 0.9574 0.50583 0.99268 0.0
C1842 C 0.97682 0.52143 0.99333 0.0
C1843 C 0.94211 0.50851 0.98819 0.0
C1844 C 0.94596 0.52673 0.98394 0.0
C1845 C 0.96546 0.5422 0.9844 0.0
C1846 C 0.98065 0.53961 0.9891 0.0
C1847 C 0.92999 0.52904 0.97795 0.0
C1848 C 0.91888 0.51631 0.96816 0.0
C1849 C 0.92572 0.54365 0.9816 0.0
C1850 C 0.9358 0.55695 0.9922 0.0
C1851 C 0.95173 0.57561 0.99016 0.0
C1852 C 0.96064 0.58843 1.00021 0.0
C1853 C 0.9534 0.58287 0.01228 0.0
C1854 C 0.93716 0.56452 0.0143 0.0
C1855 C 0.92834 0.55159 0.00429 0.0
H1856 H 0.96026 0.59283 0.02005 0.0
H1857 H 0.86205 0.46605 0.92591 0.0
H1858 H 0.47726 0.30718 0.95981 0.0
H1859 H 0.48404 0.33754 0.9699 0.0
H1860 H 0.44596 0.3433 0.94321 0.0
H1861 H 0.43996 0.31335 0.93275 0.0
H1862 H 0.47597 0.37684 0.94692 0.0
H1863 H 0.43157 0.32749 0.97412 0.0
H1864 H 0.41849 0.29831 0.98712 0.0
H1865 H 0.46971 0.32631 0.01081 0.0
H1866 H 0.48323 0.35557 0.99785 0.0
H1867 H 0.46721 0.44713 0.98315 0.0
H1868 H 0.4592 0.41656 0.97297 0.0
H1869 H 0.50588 0.41532 0.99355 0.0
H1870 H 0.51409 0.44596 0.0038 0.0
H1871 H 0.47005 0.37959 0.99293 0.0
H1872 H 0.51477 0.4281 0.96291 0.0
H1873 H 0.52441 0.45766 0.95074 0.0
H1874 H 0.46712 0.43069 0.93355 0.0
H1875 H 0.45731 0.40084 0.94541 0.0
C1876 C 0.47037 0.31497 0.95613 0.0
C1877 C 0.45802 0.30796 0.94558 0.0
C1878 C 0.47415 0.33225 0.96192 0.0
C1879 C 0.46518 0.34253 0.95749 0.0
C1880 C 0.45302 0.33563 0.94682 0.0
C1881 C 0.44957 0.31854 0.94088 0.0
C1882 C 0.46852 0.36047 0.96398 0.0
C1883 C 0.47443 0.37729 0.95696 0.0
C1884 C 0.46657 0.36123 0.97711 0.0
C1885 C 0.4585 0.34366 0.98494 0.0
C1886 C 0.44011 0.32737 0.98205 0.0
C1887 C 0.43261 0.31083 0.98942 0.0
C1888 C 0.44329 0.31044 0.99977 0.0
C1889 C 0.46147 0.32662 1.00278 0.0
C1890 C 0.46905 0.3432 0.99543 0.0
C1891 C 0.47579 0.44039 0.98555 0.0
C1892 C 0.49127 0.44899 0.99432 0.0
C1893 C 0.4712 0.42293 0.97969 0.0
C1894 C 0.48208 0.41383 0.98243 0.0
C1895 C 0.49732 0.42216 0.99133 0.0
C1896 C 0.50195 0.43965 0.99719 0.0
C1897 C 0.47773 0.39573 0.97588 0.0
C1898 C 0.47159 0.37896 0.98289 0.0
C1899 C 0.47901 0.39488 0.96276 0.0
C1900 C 0.48534 0.41228 0.95501 0.0
C1901 C 0.50431 0.42844 0.95644 0.0
C1902 C 0.5098 0.44523 0.9496 0.0
C1903 C 0.49639 0.44603 0.94136 0.0
C1904 C 0.47752 0.43001 0.93988 0.0
C1905 C 0.47204 0.4131 0.94657 0.0
H1906 H 0.50062 0.45904 0.93611 0.0
H1907 H 0.43745 0.29762 0.00546 0.0
H1908 H 0.13939 0.70618 0.06436 0.0
H1909 H 0.11477 0.67562 0.05452 0.0
H1910 H 0.15009 0.6499 0.06381 0.0
H1911 H 0.17472 0.68039 0.07371 0.0
H1912 H 0.13625 0.64367 0.03863 0.0
H1913 H 0.11143 0.63788 0.08044 0.0
H1914 H 0.10049 0.64861 0.09886 0.0
H1915 H 0.05494 0.64924 0.07691 0.0
H1916 H 0.06579 0.63877 0.0583 0.0
H1917 H 0.06793 0.54682 0.02259 0.0
H1918 H 0.0921 0.57676 0.03289 0.0
H1919 H 0.04979 0.59635 0.03361 0.0
H1920 H 0.025 0.56553 0.02422 0.0
H1921 H 0.06767 0.60625 0.05391 0.0
H1922 H 0.09261 0.61489 0.01197 0.0
H1923 H 0.1043 0.60711 0.99262 0.0
H1924 H 0.14891 0.60299 0.01339 0.0
H1925 H 0.13762 0.61096 0.03286 0.0
C1926 C 0.14192 0.69402 0.06426 0.0
C1927 C 0.15895 0.69563 0.0698 0.0
C1928 C 0.12781 0.67657 0.05871 0.0
C1929 C 0.13058 0.66049 0.05851 0.0
C1930 C 0.14768 0.66213 0.0639 0.0
C1931 C 0.16166 0.67949 0.0696 0.0
C1932 C 0.11576 0.64203 0.05252 0.0
C1933 C 0.12129 0.63532 0.04203 0.0
C1934 C 0.09614 0.63152 0.05676 0.0
C1935 C 0.08955 0.63773 0.06795 0.0
C1936 C 0.09919 0.64047 0.07952 0.0
C1937 C 0.09298 0.64647 0.09 0.0
C1938 C 0.07706 0.64965 0.08905 0.0
C1939 C 0.06728 0.64679 0.07763 0.0
C1940 C 0.07344 0.6408 0.06711 0.0
C1941 C 0.06379 0.55753 0.02493 0.0
C1942 C 0.04461 0.5539 0.02258 0.0
C1943 C 0.07772 0.57479 0.03072 0.0
C1944 C 0.07306 0.5892 0.03378 0.0
C1945 C 0.05385 0.58556 0.03136 0.0
C1946 C 0.03969 0.56798 0.02595 0.0
C1947 C 0.08799 0.60778 0.03982 0.0
C1948 C 0.08254 0.61454 0.05039 0.0
C1949 C 0.10763 0.61856 0.0355 0.0
C1950 C 0.11419 0.61339 0.02386 0.0
C1951 C 0.10483 0.61221 0.01241 0.0
C1952 C 0.11141 0.60781 1.00143 0.0
C1953 C 0.12728 0.60448 1.00178 0.0
C1954 C 0.13663 0.60558 0.01313 0.0
C1955 C 0.1302 0.61012 0.02413 0.0
H1956 H 0.13238 0.60112 0.99326 0.0
H1957 H 0.07228 0.6543 0.09717 0.0
H1958 H 0.31278 0.48066 0.05049 0.0
H1959 H 0.34226 0.48525 0.03975 0.0
H1960 H 0.35724 0.46204 0.07145 0.0
H1961 H 0.32784 0.45747 0.08225 0.0
H1962 H 0.38948 0.49209 0.06299 0.0
H1963 H 0.33567 0.4348 0.04457 0.0
H1964 H 0.30361 0.41537 0.03393 0.0
H1965 H 0.32478 0.45307 1.00236 0.0
H1966 H 0.35691 0.47289 0.0129 0.0
H1967 H 0.43962 0.45212 0.02149 0.0
H1968 H 0.40913 0.45009 0.02892 0.0
H1969 H 0.43726 0.5124 0.0288 0.0
H1970 H 0.46779 0.51445 0.02148 0.0
H1971 H 0.38365 0.4632 0.02085 0.0
H1972 H 0.42656 0.52564 0.05483 0.0
H1973 H 0.4593 0.54198 0.06496 0.0
H1974 H 0.45887 0.488 0.06644 0.0
H1975 H 0.42619 0.4714 0.05617 0.0
C1976 C 0.32228 0.47643 0.05517 0.0
C1977 C 0.31782 0.46859 0.06724 0.0
C1978 C 0.33919 0.4791 0.04901 0.0
C1979 C 0.35195 0.4738 0.0547 0.0
C1980 C 0.34772 0.46631 0.06684 0.0
C1981 C 0.33087 0.46372 0.07303 0.0
C1982 C 0.36947 0.47569 0.04796 0.0
C1983 C 0.38811 0.48583 0.05376 0.0
C1984 C 0.36789 0.46735 0.03595 0.0
C1985 C 0.34861 0.45544 0.02958 0.0
C1986 C 0.33344 0.43903 0.0354 0.0
C1987 C 0.31526 0.42793 0.02938 0.0
C1988 C 0.31214 0.43301 0.01749 0.0
C1989 C 0.32721 0.44917 0.01158 0.0
C1990 C 0.34541 0.46034 0.01757 0.0
C1991 C 0.43912 0.46535 0.02279 0.0
C1992 C 0.45596 0.48342 0.02071 0.0
C1993 C 0.42169 0.46418 0.02699 0.0
C1994 C 0.42091 0.48108 0.02947 0.0
C1995 C 0.43753 0.49916 0.02698 0.0
C1996 C 0.45495 0.50033 0.0227 0.0
C1997 C 0.40344 0.47976 0.03582 0.0
C1998 C 0.3849 0.46966 0.03 0.0
C1999 C 0.40498 0.48771 0.04791 0.0
C2000 C 0.424 0.49734 0.05476 0.0
C2001 C 0.4334 0.51726 0.05742 0.0
C2002 C 0.452 0.52658 0.06311 0.0
C2003 C 0.46118 0.51605 0.06635 0.0
C2004 C 0.45176 0.49615 0.06391 0.0
C2005 C 0.43324 0.4868 0.05813 0.0
H2006 H 0.47556 0.52326 0.07076 0.0
H2007 H 0.29806 0.4244 0.01284 0.0
H2008 H 0.57582 0.87698 0.07215 0.0
H2009 H 0.56631 0.89874 0.06219 0.0
H2010 H 0.50649 0.85165 0.05866 0.0
H2011 H 0.51584 0.82995 0.06895 0.0
H2012 H 0.5263 0.87596 0.03575 0.0
H2013 H 0.51087 0.87932 0.07881 0.0
H2014 H 0.51769 0.88399 0.10143 0.0
H2015 H 0.56443 0.94214 0.09531 0.0
H2016 H 0.55817 0.93768 0.07261 0.0
H2017 H 0.48687 0.93423 0.01521 0.0
H2018 H 0.49224 0.91015 0.02566 0.0
H2019 H 0.54589 0.95584 0.04223 0.0
H2020 H 0.5402 0.97997 0.03222 0.0
H2021 H 0.52673 0.93028 0.05897 0.0
H2022 H 0.54554 0.92712 0.01664 0.0
H2023 H 0.54078 0.92371 0.9938 0.0
H2024 H 0.49027 0.86713 0.99818 0.0
H2025 H 0.49473 0.87023 0.02108 0.0
C2026 C 0.56065 0.87134 0.06926 0.0
C2027 C 0.54651 0.85189 0.07131 0.0
C2028 C 0.55525 0.88373 0.06361 0.0
C2029 C 0.53572 0.87673 0.05974 0.0
C2030 C 0.52162 0.85724 0.06162 0.0
C2031 C 0.52693 0.84495 0.06751 0.0
C2032 C 0.53016 0.88987 0.05368 0.0
C2033 C 0.52608 0.88768 0.04083 0.0
C2034 C 0.53039 0.90536 0.06031 0.0
C2035 C 0.53422 0.90806 0.07397 0.0
C2036 C 0.52279 0.89301 0.08226 0.0
C2037 C 0.52653 0.89563 0.0951 0.0
C2038 C 0.54155 0.91331 0.0998 0.0
C2039 C 0.55285 0.92842 0.09166 0.0
C2040 C 0.5492 0.92585 0.0788 0.0
C2041 C 0.49987 0.93914 0.02103 0.0
C2042 C 0.51316 0.959 0.02286 0.0
C2043 C 0.50295 0.92535 0.02697 0.0
C2044 C 0.51961 0.93116 0.03463 0.0
C2045 C 0.53291 0.951 0.0364 0.0
C2046 C 0.52968 0.96478 0.03063 0.0
C2047 C 0.52314 0.91665 0.04092 0.0
C2048 C 0.52684 0.91854 0.05385 0.0
C2049 C 0.52287 0.90105 0.03432 0.0
C2050 C 0.52037 0.89898 0.02056 0.0
C2051 C 0.53338 0.91398 0.01273 0.0
C2052 C 0.53075 0.91209 0.99978 0.0
C2053 C 0.51519 0.89524 0.99455 0.0
C2054 C 0.50231 0.88018 1.00225 0.0
C2055 C 0.50491 0.88197 0.01522 0.0
H2056 H 0.51312 0.89385 0.98452 0.0
H2057 H 0.54436 0.91535 0.10975 0.0
H2058 H 0.97173 0.20696 0.39607 0.0
H2059 H 1.00071 0.23035 0.38464 0.0
H2060 H 0.02704 0.19457 0.38944 0.0
H2061 H 0.99845 0.17149 0.40136 0.0
H2062 H 0.05349 0.23114 0.39381 0.0
H2063 H 0.00696 0.19697 0.36112 0.0
H2064 H 0.97525 0.18313 0.34985 0.0
H2065 H 0.9828 0.23997 0.34583 0.0
H2066 H 0.01445 0.25413 0.35724 0.0
H2067 H 0.13118 0.28572 0.35202 0.0
H2068 H 0.10061 0.25783 0.35915 0.0
H2069 H 0.07359 0.29337 0.36146 0.0
H2070 H 0.10421 0.32133 0.35429 0.0
H2071 H 0.04783 0.25497 0.35221 0.0
H2072 H 0.09283 0.28837 0.38654 0.0
H2073 H 0.12494 0.30231 0.39735 0.0
H2074 H 0.1203 0.24635 0.39777 0.0
H2075 H 0.08827 0.23213 0.38678 0.0
C2076 C 0.98374 0.20412 0.39481 0.0
C2077 C 0.98269 0.18728 0.39965 0.0
C2078 C 1.00023 0.21741 0.38812 0.0
C2079 C 0.01597 0.21411 0.38599 0.0
C2080 C 0.01505 0.1974 0.39089 0.0
C2081 C 0.99859 0.18412 0.39762 0.0
C2082 C 0.03359 0.22833 0.37895 0.0
C2083 C 0.05224 0.23606 0.38462 0.0
C2084 C 0.03202 0.23505 0.36702 0.0
C2085 C 0.013 0.22659 0.36014 0.0
C2086 C 1.00179 0.20651 0.35792 0.0
C2087 C 0.98384 0.19861 0.35149 0.0
C2088 C 0.97699 0.21066 0.34715 0.0
C2089 C 0.98811 0.23065 0.34921 0.0
C2090 C 0.00607 0.23862 0.35565 0.0
C2091 C 0.11857 0.28745 0.35366 0.0
C2092 C 0.11992 0.30559 0.35241 0.0
C2093 C 0.10114 0.27153 0.35783 0.0
C2094 C 0.08488 0.27358 0.36089 0.0
C2095 C 0.08593 0.29147 0.35909 0.0
C2096 C 0.1034 0.30741 0.35504 0.0
C2097 C 0.0675 0.25773 0.36713 0.0
C2098 C 0.04898 0.2498 0.36133 0.0
C2099 C 0.06916 0.25078 0.37892 0.0
C2100 C 0.08825 0.25923 0.38573 0.0
C2101 C 0.09872 0.27906 0.38886 0.0
C2102 C 0.1169 0.28701 0.39503 0.0
C2103 C 0.12468 0.27523 0.39822 0.0
C2104 C 0.11427 0.25546 0.39528 0.0
C2105 C 0.09609 0.24745 0.38908 0.0
H2106 H 0.13875 0.2814 0.40301 0.0
H2107 H 0.96309 0.20452 0.34218 0.0
H2108 H 0.84042 0.81823 0.38941 0.0
H2109 H 0.81498 0.82319 0.37984 0.0
H2110 H 0.7719 0.78181 0.40487 0.0
H2111 H 0.79729 0.77752 0.41501 0.0
H2112 H 0.76116 0.77595 0.37842 0.0
H2113 H 0.78559 0.82561 0.41052 0.0
H2114 H 0.81132 0.85426 0.42181 0.0
H2115 H 0.8255 0.88744 0.3882 0.0
H2116 H 0.80003 0.85889 0.37666 0.0
H2117 H 0.67883 0.7863 0.36512 0.0
H2118 H 0.70549 0.78256 0.37358 0.0
H2119 H 0.74767 0.83959 0.36054 0.0
H2120 H 0.72063 0.84422 0.3537 0.0
H2121 H 0.76038 0.83767 0.38035 0.0
H2122 H 0.74114 0.78901 0.34733 0.0
H2123 H 0.71867 0.76038 0.33448 0.0
H2124 H 0.69752 0.72613 0.36756 0.0
H2125 H 0.72007 0.7545 0.3805 0.0
C2126 C 0.82566 0.81041 0.39309 0.0
C2127 C 0.8211 0.79738 0.40303 0.0
C2128 C 0.81107 0.8132 0.38752 0.0
C2129 C 0.79153 0.80285 0.39163 0.0
C2130 C 0.78686 0.78986 0.40149 0.0
C2131 C 0.80146 0.78731 0.40722 0.0
C2132 C 0.77582 0.80519 0.38547 0.0
C2133 C 0.76085 0.78939 0.3789 0.0
C2134 C 0.77578 0.82289 0.38576 0.0
C2135 C 0.79107 0.84005 0.3927 0.0
C2136 C 0.79433 0.83896 0.40551 0.0
C2137 C 0.80883 0.85519 0.41196 0.0
C2138 C 0.82008 0.87264 0.40572 0.0
C2139 C 0.8168 0.87391 0.39302 0.0
C2140 C 0.80233 0.85771 0.38652 0.0
C2141 C 0.69384 0.79794 0.36391 0.0
C2142 C 0.69761 0.81525 0.35822 0.0
C2143 C 0.70923 0.79567 0.36859 0.0
C2144 C 0.72899 0.81042 0.36735 0.0
C2145 C 0.73273 0.82777 0.36159 0.0
C2146 C 0.71722 0.83034 0.3574 0.0
C2147 C 0.74548 0.8084 0.37298 0.0
C2148 C 0.76063 0.82423 0.3796 0.0
C2149 C 0.74596 0.79081 0.37249 0.0
C2150 C 0.73196 0.77392 0.36484 0.0
C2151 C 0.73148 0.77542 0.35182 0.0
C2152 C 0.71884 0.75923 0.34454 0.0
C2153 C 0.70652 0.74151 0.35021 0.0
C2154 C 0.70698 0.73988 0.36317 0.0
C2155 C 0.71977 0.75598 0.37047 0.0
H2156 H 0.69671 0.72901 0.34456 0.0
H2157 H 0.8313 0.8852 0.41073 0.0
H2158 H 0.21537 0.01522 0.41862 0.0
H2159 H 0.20913 0.9855 0.40786 0.0
H2160 H 0.1982 0.00648 0.37349 0.0
H2161 H 0.20429 0.03622 0.38424 0.0
H2162 H 0.17154 0.9686 0.37688 0.0
H2163 H 0.24232 0.00881 0.37887 0.0
H2164 H 0.27427 0.02891 0.38953 0.0
H2165 H 0.26422 0.98056 0.41205 0.0
H2166 H 0.23209 0.96024 0.40164 0.0
H2167 H 0.17396 0.89817 0.33793 0.0
H2168 H 0.18104 0.92891 0.34726 0.0
H2169 H 0.20011 0.9141 0.38117 0.0
H2170 H 0.19466 0.88414 0.37144 0.0
H2171 H 0.22294 0.94972 0.37742 0.0
H2172 H 0.15213 0.90951 0.3764 0.0
H2173 H 0.12031 0.88858 0.3658 0.0
H2174 H 0.12965 0.9357 0.34225 0.0
H2175 H 0.16166 0.95683 0.3526 0.0
C2176 C 0.21172 0.01352 0.40876 0.0
C2177 C 0.21045 0.02809 0.40225 0.0
C2178 C 0.20813 0.99654 0.40263 0.0
C2179 C 0.20348 0.99392 0.38984 0.0
C2180 C 0.20178 0.00823 0.38337 0.0
C2181 C 0.20524 0.02519 0.38951 0.0
C2182 C 0.20071 0.97636 0.38317 0.0
C2183 C 0.18284 0.96455 0.37687 0.0
C2184 C 0.21531 0.97091 0.38338 0.0
C2185 C 0.23474 0.98306 0.38954 0.0
C2186 C 0.24688 0.0025 0.38615 0.0
C2187 C 0.26502 0.01392 0.39214 0.0
C2188 C 0.27125 0.00602 0.40148 0.0
C2189 C 0.25937 0.98666 0.40482 0.0
C2190 C 0.24121 0.97518 0.39887 0.0
C2191 C 0.17995 0.90156 0.34726 0.0
C2192 C 0.18391 0.88873 0.35382 0.0
C2193 C 0.18377 0.91909 0.35269 0.0
C2194 C 0.19071 0.9237 0.36505 0.0
C2195 C 0.19478 0.91093 0.37162 0.0
C2196 C 0.19159 0.89373 0.36603 0.0
C2197 C 0.19363 0.9417 0.37124 0.0
C2198 C 0.21157 0.95367 0.37743 0.0
C2199 C 0.17898 0.94715 0.37105 0.0
C2200 C 0.15934 0.93471 0.36522 0.0
C2201 C 0.14739 0.9154 0.36896 0.0
C2202 C 0.12934 0.90349 0.36298 0.0
C2203 C 0.12298 0.9108 0.35334 0.0
C2204 C 0.1346 0.93006 0.34972 0.0
C2205 C 0.15268 0.94202 0.35564 0.0
H2206 H 0.10904 0.90154 0.34869 0.0
H2207 H 0.2853 0.01489 0.40611 0.0
H2208 H 0.53495 0.63446 0.2818 0.0
H2209 H 0.55926 0.6644 0.29198 0.0
H2210 H 0.51655 0.68328 0.29431 0.0
H2211 H 0.49256 0.65401 0.28321 0.0
H2212 H 0.54966 0.71253 0.28855 0.0
H2213 H 0.53011 0.66471 0.3201 0.0
H2214 H 0.52338 0.63399 0.32965 0.0
H2215 H 0.58409 0.65002 0.32564 0.0
H2216 H 0.59113 0.68074 0.3159 0.0
H2217 H 0.603 0.78519 0.33518 0.0
H2218 H 0.57795 0.75504 0.32531 0.0
H2219 H 0.62293 0.74246 0.31361 0.0
H2220 H 0.64819 0.77273 0.32333 0.0
H2221 H 0.58827 0.71046 0.32469 0.0
H2222 H 0.60651 0.75941 0.29304 0.0
H2223 H 0.61182 0.79059 0.28513 0.0
H2224 H 0.55099 0.77245 0.29131 0.0
H2225 H 0.54539 0.74124 0.29947 0.0
C2226 C 0.53073 0.64506 0.28427 0.0
C2227 C 0.51165 0.64166 0.28165 0.0
C2228 C 0.54463 0.66211 0.2903 0.0
C2229 C 0.53969 0.67601 0.29417 0.0
C2230 C 0.52074 0.67277 0.2915 0.0
C2231 C 0.50691 0.65585 0.28527 0.0
C2232 C 0.55434 0.69395 0.30091 0.0
C2233 C 0.55786 0.71199 0.29656 0.0
C2234 C 0.56527 0.69341 0.31131 0.0
C2235 C 0.5611 0.67494 0.31716 0.0
C2236 C 0.54199 0.66162 0.32116 0.0
C2237 C 0.53812 0.64422 0.32662 0.0
C2238 C 0.55328 0.64003 0.32822 0.0
C2239 C 0.57235 0.65327 0.32438 0.0
C2240 C 0.5763 0.67068 0.3189 0.0
C2241 C 0.6076 0.77597 0.33059 0.0
C2242 C 0.62762 0.78139 0.33001 0.0
C2243 C 0.59325 0.75879 0.32492 0.0
C2244 C 0.59864 0.74664 0.31867 0.0
C2245 C 0.61852 0.7517 0.31838 0.0
C2246 C 0.63292 0.76901 0.3239 0.0
C2247 C 0.58355 0.72879 0.31225 0.0
C2248 C 0.57997 0.71085 0.31668 0.0
C2249 C 0.5723 0.72942 0.30211 0.0
C2250 C 0.57558 0.74805 0.297 0.0
C2251 C 0.5943 0.76212 0.29282 0.0
C2252 C 0.59736 0.77979 0.28827 0.0
C2253 C 0.58177 0.78352 0.28776 0.0
C2254 C 0.56306 0.76955 0.29174 0.0
C2255 C 0.55994 0.75186 0.29632 0.0
H2256 H 0.58416 0.79722 0.28425 0.0
H2257 H 0.55026 0.62656 0.33245 0.0
H2258 H 0.37338 0.89575 0.29458 0.0
H2259 H 0.34306 0.88991 0.305 0.0
H2260 H 0.30971 0.83756 0.28323 0.0
H2261 H 0.34 0.84314 0.27296 0.0
H2262 H 0.29377 0.86343 0.28366 0.0
H2263 H 0.31688 0.83193 0.31152 0.0
H2264 H 0.34109 0.82992 0.3252 0.0
H2265 H 0.34387 0.87511 0.3487 0.0
H2266 H 0.31989 0.87761 0.33503 0.0
H2267 H 0.20884 0.82215 0.32979 0.0
H2268 H 0.2394 0.82438 0.32226 0.0
H2269 H 0.2628 0.88496 0.31469 0.0
H2270 H 0.23262 0.88297 0.32268 0.0
H2271 H 0.28246 0.85203 0.32915 0.0
H2272 H 0.28044 0.8889 0.28393 0.0
H2273 H 0.25633 0.89148 0.27044 0.0
H2274 H 0.21121 0.83503 0.28174 0.0
H2275 H 0.23514 0.83196 0.29512 0.0
C2276 C 0.35958 0.88299 0.29203 0.0
C2277 C 0.35907 0.86989 0.28296 0.0
C2278 C 0.34229 0.87962 0.29803 0.0
C2279 C 0.32412 0.86326 0.29492 0.0
C2280 C 0.32356 0.85025 0.28579 0.0
C2281 C 0.34088 0.85341 0.27997 0.0
C2282 C 0.30563 0.85997 0.30097 0.0
C2283 C 0.29131 0.86089 0.2936 0.0
C2284 C 0.30234 0.85659 0.31394 0.0
C2285 C 0.31675 0.8551 0.32217 0.0
C2286 C 0.3228 0.84158 0.31953 0.0
C2287 C 0.33645 0.84032 0.3273 0.0
C2288 C 0.34406 0.85242 0.33779 0.0
C2289 C 0.33799 0.86577 0.34056 0.0
C2290 C 0.32436 0.86711 0.3328 0.0
C2291 C 0.22073 0.83606 0.32694 0.0
C2292 C 0.21855 0.85252 0.32716 0.0
C2293 C 0.23815 0.8373 0.32255 0.0
C2294 C 0.25337 0.85485 0.31792 0.0
C2295 C 0.25128 0.87131 0.31826 0.0
C2296 C 0.23405 0.87014 0.32282 0.0
C2297 C 0.27083 0.85577 0.31185 0.0
C2298 C 0.28495 0.85449 0.31921 0.0
C2299 C 0.274 0.85888 0.29886 0.0
C2300 C 0.25955 0.86031 0.29062 0.0
C2301 C 0.2654 0.877 0.28349 0.0
C2302 C 0.25177 0.87854 0.27586 0.0
C2303 C 0.23225 0.86345 0.27527 0.0
C2304 C 0.22632 0.84673 0.28225 0.0
C2305 C 0.23992 0.8451 0.28986 0.0
H2306 H 0.22174 0.86472 0.26938 0.0
H2307 H 0.35462 0.85141 0.3438 0.0
H2308 H 0.10153 0.46764 0.28403 0.0
H2309 H 0.1096 0.44546 0.29465 0.0
H2310 H 0.16927 0.47797 0.28142 0.0
H2311 H 0.16119 0.50005 0.27055 0.0
H2312 H 0.15432 0.43854 0.27947 0.0
H2313 H 0.1604 0.48475 0.31048 0.0
H2314 H 0.14981 0.50418 0.32274 0.0
H2315 H 0.10091 0.4522 0.33692 0.0
H2316 H 0.11105 0.43244 0.32459 0.0
H2317 H 0.17993 0.40044 0.33893 0.0
H2318 H 0.17592 0.4253 0.3284 0.0
H2319 H 0.1318 0.38174 0.30407 0.0
H2320 H 0.13546 0.35674 0.3146 0.0
H2321 H 0.14345 0.42979 0.32516 0.0
H2322 H 0.13974 0.40128 0.27454 0.0
H2323 H 0.15192 0.38258 0.26294 0.0
H2324 H 0.20034 0.40189 0.2887 0.0
H2325 H 0.18873 0.42104 0.3003 0.0
C2326 C 0.11631 0.46993 0.28325 0.0
C2327 C 0.13075 0.48561 0.27649 0.0
C2328 C 0.12093 0.45734 0.28939 0.0
C2329 C 0.14008 0.46021 0.28891 0.0
C2330 C 0.15442 0.47556 0.28192 0.0
C2331 C 0.14983 0.48822 0.27581 0.0
C2332 C 0.14515 0.44742 0.29598 0.0
C2333 C 0.15199 0.43664 0.28945 0.0
C2334 C 0.14249 0.44528 0.30905 0.0
C2335 C 0.1364 0.45712 0.31653 0.0
C2336 C 0.14731 0.47746 0.31614 0.0
C2337 C 0.1414 0.48853 0.32311 0.0
C2338 C 0.12468 0.47943 0.33059 0.0
C2339 C 0.11385 0.45923 0.33112 0.0
C2340 C 0.11969 0.44809 0.32415 0.0
C2341 C 0.16915 0.39607 0.33148 0.0
C2342 C 0.15797 0.37656 0.32765 0.0
C2343 C 0.16694 0.41032 0.32544 0.0
C2344 C 0.15374 0.40535 0.31538 0.0
C2345 C 0.14226 0.38588 0.31172 0.0
C2346 C 0.14435 0.3716 0.31779 0.0
C2347 C 0.15203 0.4205 0.3086 0.0
C2348 C 0.14585 0.43174 0.31518 0.0
C2349 C 0.15561 0.42326 0.29562 0.0
C2350 C 0.16319 0.41241 0.28839 0.0
C2351 C 0.15304 0.40162 0.2777 0.0
C2352 C 0.15981 0.39088 0.27115 0.0
C2353 C 0.17676 0.39086 0.27518 0.0
C2354 C 0.18712 0.40178 0.28566 0.0
C2355 C 0.18045 0.41258 0.29222 0.0
H2356 H 0.18202 0.38259 0.27009 0.0
H2357 H 0.12013 0.48802 0.33598 0.0
H2358 H 0.34088 0.50089 0.28385 0.0
H2359 H 0.31139 0.47689 0.29492 0.0
H2360 H 0.33403 0.43755 0.29505 0.0
H2361 H 0.36376 0.46167 0.28429 0.0
H2362 H 0.29187 0.42303 0.28554 0.0
H2363 H 0.3373 0.45596 0.3202 0.0
H2364 H 0.35989 0.48484 0.33268 0.0
H2365 H 0.3133 0.49721 0.33919 0.0
H2366 H 0.29051 0.46855 0.32658 0.0
H2367 H 0.23214 0.34779 0.32527 0.0
H2368 H 0.26184 0.37577 0.31723 0.0
H2369 H 0.2364 0.41197 0.324 0.0
H2370 H 0.20643 0.3839 0.33169 0.0
H2371 H 0.2785 0.42989 0.33003 0.0
H2372 H 0.23324 0.39993 0.29662 0.0
H2373 H 0.20874 0.37293 0.28359 0.0
H2374 H 0.25207 0.35737 0.27377 0.0
H2375 H 0.27684 0.38424 0.28685 0.0
C2376 C 0.33954 0.48713 0.28629 0.0
C2377 C 0.35455 0.48309 0.28325 0.0
C2378 C 0.32277 0.4735 0.29262 0.0
C2379 C 0.32061 0.45551 0.29579 0.0
C2380 C 0.33549 0.45139 0.29268 0.0
C2381 C 0.35244 0.46516 0.2866 0.0
C2382 C 0.30264 0.44079 0.30215 0.0
C2383 C 0.28906 0.42442 0.29529 0.0
C2384 C 0.29859 0.44308 0.31471 0.0
C2385 C 0.31228 0.46027 0.32231 0.0
C2386 C 0.33193 0.46496 0.32417 0.0
C2387 C 0.34476 0.48126 0.3313 0.0
C2388 C 0.33805 0.49289 0.33669 0.0
C2389 C 0.31849 0.48821 0.33499 0.0
C2390 C 0.30561 0.47194 0.32786 0.0
C2391 C 0.23306 0.36181 0.32526 0.0
C2392 C 0.21711 0.36371 0.32928 0.0
C2393 C 0.24998 0.37774 0.32067 0.0
C2394 C 0.25124 0.39588 0.31998 0.0
C2395 C 0.23572 0.39809 0.32453 0.0
C2396 C 0.21864 0.38205 0.32899 0.0
C2397 C 0.26806 0.41192 0.31349 0.0
C2398 C 0.28133 0.42854 0.32026 0.0
C2399 C 0.2716 0.41016 0.30074 0.0
C2400 C 0.25684 0.39397 0.29283 0.0
C2401 C 0.23751 0.39065 0.29178 0.0
C2402 C 0.22357 0.37539 0.28436 0.0
C2403 C 0.22881 0.36338 0.2779 0.0
C2404 C 0.24803 0.36667 0.2788 0.0
C2405 C 0.26204 0.38194 0.2862 0.0
H2406 H 0.21799 0.35156 0.27217 0.0
H2407 H 0.348 0.5055 0.34221 0.0
H2408 H 0.53431 0.86892 0.26321 0.0
H2409 H 0.55955 0.86433 0.27345 0.0
H2410 H 0.53184 0.85919 0.30898 0.0
H2411 H 0.50608 0.86292 0.29882 0.0
H2412 H 0.57196 0.88532 0.30961 0.0
H2413 H 0.52786 0.82036 0.29537 0.0
H2414 H 0.50844 0.79411 0.28021 0.0
H2415 H 0.56123 0.80683 0.26071 0.0
H2416 H 0.58094 0.83343 0.2756 0.0
H2417 H 0.62078 0.82401 0.33047 0.0
H2418 H 0.59335 0.8272 0.3225 0.0
H2419 H 0.63389 0.88644 0.31271 0.0
H2420 H 0.66108 0.88364 0.32153 0.0
H2421 H 0.58643 0.83287 0.2998 0.0
H2422 H 0.62009 0.91051 0.31059 0.0
H2423 H 0.63691 0.93548 0.32705 0.0
H2424 H 0.60069 0.89493 0.35489 0.0
H2425 H 0.58387 0.86973 0.33852 0.0
C2426 C 0.53328 0.86644 0.27317 0.0
C2427 C 0.51803 0.86639 0.28014 0.0
C2428 C 0.54784 0.86391 0.27902 0.0
C2429 C 0.54761 0.8614 0.29199 0.0
C2430 C 0.5324 0.8612 0.29897 0.0
C2431 C 0.51772 0.86349 0.29312 0.0
C2432 C 0.5636 0.85978 0.2984 0.0
C2433 C 0.5751 0.87383 0.30743 0.0
C2434 C 0.56776 0.8448 0.29564 0.0
C2435 C 0.55585 0.8291 0.2865 0.0
C2436 C 0.53531 0.81776 0.28774 0.0
C2437 C 0.52425 0.80277 0.27922 0.0
C2438 C 0.53358 0.79886 0.26947 0.0
C2439 C 0.554 0.80992 0.26824 0.0
C2440 C 0.56512 0.82497 0.27671 0.0
C2441 C 0.62375 0.83793 0.3271 0.0
C2442 C 0.64305 0.85379 0.32706 0.0
C2443 C 0.60804 0.8397 0.32238 0.0
C2444 C 0.61131 0.85724 0.31723 0.0
C2445 C 0.63066 0.87301 0.31709 0.0
C2446 C 0.64629 0.87133 0.322 0.0
C2447 C 0.59485 0.85845 0.31101 0.0
C2448 C 0.58332 0.84437 0.30195 0.0
C2449 C 0.5906 0.87338 0.3137 0.0
C2450 C 0.60123 0.88817 0.32348 0.0
C2451 C 0.61593 0.90692 0.32026 0.0
C2452 C 0.62543 0.92109 0.32954 0.0
C2453 C 0.62001 0.91673 0.34203 0.0
C2454 C 0.60503 0.89822 0.34523 0.0
C2455 C 0.59565 0.88396 0.33599 0.0
H2456 H 0.62731 0.92773 0.3492 0.0
H2457 H 0.525 0.78721 0.2629 0.0
H2458 H 0.09343 0.6279 0.28625 0.0
H2459 H 0.09977 0.65771 0.29718 0.0
H2460 H 0.16224 0.68114 0.29283 0.0
H2461 H 0.15595 0.65155 0.28165 0.0
H2462 H 0.14717 0.68457 0.31838 0.0
H2463 H 0.14546 0.69725 0.27415 0.0
H2464 H 0.13014 0.68972 0.2532 0.0
H2465 H 0.07994 0.69119 0.2677 0.0
H2466 H 0.09485 0.69843 0.2888 0.0
H2467 H 0.18538 0.78349 0.33281 0.0
H2468 H 0.17743 0.75211 0.32398 0.0
H2469 H 0.11837 0.73991 0.31569 0.0
H2470 H 0.12666 0.77181 0.32389 0.0
H2471 H 0.13032 0.72941 0.29703 0.0
H2472 H 0.12998 0.71698 0.34058 0.0
H2473 H 0.14275 0.72306 0.36219 0.0
H2474 H 0.19306 0.71946 0.35038 0.0
H2475 H 0.18057 0.71333 0.32867 0.0
C2476 C 0.10849 0.63939 0.28772 0.0
C2477 C 0.12422 0.63756 0.28311 0.0
C2478 C 0.11208 0.65634 0.29392 0.0
C2479 C 0.13145 0.67152 0.29578 0.0
C2480 C 0.1472 0.66951 0.29149 0.0
C2481 C 0.14361 0.65272 0.28507 0.0
C2482 C 0.13525 0.68985 0.30174 0.0
C2483 C 0.14369 0.69451 0.31372 0.0
C2484 C 0.13007 0.70239 0.29576 0.0
C2485 C 0.12116 0.69814 0.28307 0.0
C2486 C 0.13107 0.69577 0.2729 0.0
C2487 C 0.12248 0.69159 0.26099 0.0
C2488 C 0.10405 0.68991 0.25913 0.0
C2489 C 0.0942 0.69246 0.26916 0.0
C2490 C 0.10272 0.6966 0.28109 0.0
C2491 C 0.17067 0.77407 0.32917 0.0
C2492 C 0.15663 0.78008 0.32903 0.0
C2493 C 0.16607 0.75604 0.3242 0.0
C2494 C 0.14716 0.74341 0.31935 0.0
C2495 C 0.13306 0.74936 0.31936 0.0
C2496 C 0.13779 0.76758 0.32407 0.0
C2497 C 0.14235 0.72438 0.3138 0.0
C2498 C 0.13372 0.71951 0.30184 0.0
C2499 C 0.14697 0.71146 0.31993 0.0
C2500 C 0.15441 0.71484 0.33299 0.0
C2501 C 0.1438 0.71755 0.34258 0.0
C2502 C 0.15097 0.72097 0.35485 0.0
C2503 C 0.16874 0.72172 0.35765 0.0
C2504 C 0.17931 0.71889 0.34819 0.0
C2505 C 0.17215 0.71536 0.33591 0.0
H2506 H 0.17432 0.72447 0.36714 0.0
H2507 H 0.09743 0.68669 0.2499 0.0
H2508 H 0.84363 0.01607 0.40466 0.0
H2509 H 0.81932 0.98588 0.39424 0.0
H2510 H 0.77863 0.00722 0.39215 0.0
H2511 H 0.80307 0.03763 0.40234 0.0
H2512 H 0.7631 0.9664 0.40143 0.0
H2513 H 0.79876 0.00946 0.3674 0.0
H2514 H 0.82888 0.03184 0.35606 0.0
H2515 H 0.8441 0.98727 0.35252 0.0
H2516 H 0.8142 0.96471 0.36403 0.0
H2517 H 0.69166 0.89731 0.36065 0.0
H2518 H 0.71597 0.92772 0.3705 0.0
H2519 H 0.76191 0.91489 0.36171 0.0
H2520 H 0.73773 0.88476 0.35136 0.0
H2521 H 0.77525 0.95135 0.35844 0.0
H2522 H 0.74083 0.90778 0.3914 0.0
H2523 H 0.71161 0.88421 0.40302 0.0
H2524 H 0.69551 0.92759 0.40973 0.0
H2525 H 0.72445 0.95135 0.39795 0.0
C2526 C 0.82947 0.01426 0.40201 0.0
C2527 C 0.82521 0.02916 0.40426 0.0
C2528 C 0.81564 0.99707 0.39606 0.0
C2529 C 0.79722 0.99437 0.39245 0.0
C2530 C 0.79277 0.00905 0.3949 0.0
C2531 C 0.80674 0.02641 0.40063 0.0
C2532 C 0.78281 0.97639 0.38581 0.0
C2533 C 0.76557 0.96316 0.39198 0.0
C2534 C 0.78644 0.97196 0.37366 0.0
C2535 C 0.80437 0.98548 0.3667 0.0
C2536 C 0.80863 0.0045 0.36432 0.0
C2537 C 0.82564 0.0172 0.35783 0.0
C2538 C 0.83843 0.011 0.3536 0.0
C2539 C 0.8342 0.99207 0.35582 0.0
C2540 C 0.81722 0.97931 0.36231 0.0
C2541 C 0.70696 0.901 0.36075 0.0
C2542 C 0.71275 0.88855 0.35532 0.0
C2543 C 0.72084 0.91836 0.36646 0.0
C2544 C 0.74074 0.92341 0.36714 0.0
C2545 C 0.74665 0.91128 0.36137 0.0
C2546 C 0.7328 0.89404 0.35547 0.0
C2547 C 0.7553 0.94123 0.37399 0.0
C2548 C 0.77265 0.95446 0.3679 0.0
C2549 C 0.75193 0.94544 0.38633 0.0
C2550 C 0.73475 0.93132 0.39369 0.0
C2551 C 0.73101 0.91228 0.39529 0.0
C2552 C 0.71449 0.89887 0.40191 0.0
C2553 C 0.70169 0.90438 0.40708 0.0
C2554 C 0.70543 0.92334 0.4057 0.0
C2555 C 0.7219 0.93678 0.39906 0.0
H2556 H 0.68889 0.89398 0.41217 0.0
H2557 H 0.85159 0.02085 0.34858 0.0
H2558 H 0.99526 0.79088 0.41687 0.0
H2559 H 0.02501 0.79612 0.40623 0.0
H2560 H 0.00893 0.81747 0.37405 0.0
H2561 H 0.97919 0.81237 0.38466 0.0
H2562 H 0.02012 0.79277 0.36692 0.0
H2563 H 0.0467 0.84809 0.39421 0.0
H2564 H 0.05307 0.86564 0.41429 0.0
H2565 H 0.08177 0.83576 0.42836 0.0
H2566 H 0.07531 0.81781 0.40842 0.0
H2567 H 0.13185 0.84652 0.35157 0.0
H2568 H 0.10078 0.84358 0.35886 0.0
H2569 H 0.0799 0.78413 0.36849 0.0
H2570 H 0.11007 0.78655 0.36037 0.0
H2571 H 0.08717 0.82978 0.38536 0.0
H2572 H 0.05029 0.76826 0.35834 0.0
H2573 H 0.04143 0.7513 0.33799 0.0
H2574 H 0.02984 0.79449 0.3232 0.0
H2575 H 0.03974 0.81229 0.34332 0.0
C2576 C 0.99816 0.79695 0.4076 0.0
C2577 C 0.98474 0.8012 0.40166 0.0
C2578 C 0.01522 0.79994 0.40151 0.0
C2579 C 0.0194 0.80738 0.38935 0.0
C2580 C 0.00607 0.81168 0.38341 0.0
C2581 C 0.98899 0.80867 0.38949 0.0
C2582 C 0.03725 0.81001 0.38266 0.0
C2583 C 0.03478 0.80098 0.37096 0.0
C2584 C 0.05647 0.82071 0.38785 0.0
C2585 C 0.06035 0.83147 0.39985 0.0
C2586 C 0.05422 0.84514 0.40162 0.0
C2587 C 0.05787 0.85518 0.41297 0.0
C2588 C 0.06777 0.85178 0.42261 0.0
C2589 C 0.07408 0.83836 0.4209 0.0
C2590 C 0.07044 0.82826 0.40957 0.0
C2591 C 0.12026 0.83261 0.35473 0.0
C2592 C 0.12311 0.81654 0.35496 0.0
C2593 C 0.10255 0.83096 0.35896 0.0
C2594 C 0.08753 0.81334 0.36371 0.0
C2595 C 0.09062 0.79749 0.36418 0.0
C2596 C 0.10807 0.799 0.35973 0.0
C2597 C 0.06992 0.81219 0.36978 0.0
C2598 C 0.07248 0.8216 0.38136 0.0
C2599 C 0.05076 0.80183 0.3645 0.0
C2600 C 0.0467 0.79209 0.35215 0.0
C2601 C 0.04671 0.7746 0.35061 0.0
C2602 C 0.04129 0.76472 0.33915 0.0
C2603 C 0.03531 0.77193 0.32925 0.0
C2604 C 0.03465 0.789 0.33083 0.0
C2605 C 0.04038 0.7991 0.34221 0.0
H2606 H 0.031 0.7642 0.32041 0.0
H2607 H 0.07059 0.85957 0.43139 0.0
H2608 H 0.24541 0.2063 0.39708 0.0
H2609 H 0.23815 0.22902 0.38618 0.0
H2610 H 0.17596 0.18968 0.39062 0.0
H2611 H 0.18315 0.1671 0.40174 0.0
H2612 H 0.19005 0.20708 0.36519 0.0
H2613 H 0.19267 0.22342 0.40924 0.0
H2614 H 0.20841 0.23225 0.43006 0.0
H2615 H 0.2576 0.28305 0.41494 0.0
H2616 H 0.24228 0.27435 0.39398 0.0
H2617 H 0.15247 0.26853 0.34939 0.0
H2618 H 0.15982 0.24492 0.35857 0.0
H2619 H 0.21895 0.29067 0.36721 0.0
H2620 H 0.21118 0.31441 0.35877 0.0
H2621 H 0.20671 0.2694 0.38586 0.0
H2622 H 0.20678 0.25492 0.34238 0.0
H2623 H 0.19383 0.2471 0.32083 0.0
H2624 H 0.14346 0.19486 0.33339 0.0
H2625 H 0.15617 0.20235 0.35504 0.0
C2626 C 0.23021 0.20251 0.39565 0.0
C2627 C 0.21482 0.18506 0.40026 0.0
C2628 C 0.2261 0.21545 0.38947 0.0
C2629 C 0.20654 0.21095 0.38764 0.0
C2630 C 0.19114 0.19332 0.39195 0.0
C2631 C 0.19525 0.18054 0.39834 0.0
C2632 C 0.20219 0.22498 0.38162 0.0
C2633 C 0.19348 0.22065 0.36971 0.0
C2634 C 0.20726 0.24286 0.38742 0.0
C2635 C 0.21643 0.24812 0.40002 0.0
C2636 C 0.20693 0.23637 0.41033 0.0
C2637 C 0.21576 0.24137 0.42217 0.0
C2638 C 0.23402 0.25817 0.42382 0.0
C2639 C 0.24347 0.27003 0.41364 0.0
C2640 C 0.23472 0.26507 0.40179 0.0
C2641 C 0.16705 0.2735 0.35321 0.0
C2642 C 0.18125 0.29328 0.35343 0.0
C2643 C 0.17131 0.25997 0.35837 0.0
C2644 C 0.19007 0.26591 0.36343 0.0
C2645 C 0.20435 0.28569 0.36341 0.0
C2646 C 0.19992 0.29925 0.35857 0.0
C2647 C 0.19461 0.25172 0.36925 0.0
C2648 C 0.20333 0.25595 0.3812 0.0
C2649 C 0.18996 0.23394 0.36334 0.0
C2650 C 0.18235 0.22928 0.35033 0.0
C2651 C 0.1929 0.24181 0.34055 0.0
C2652 C 0.18562 0.23742 0.32832 0.0
C2653 C 0.16778 0.22054 0.32575 0.0
C2654 C 0.15727 0.20794 0.3354 0.0
C2655 C 0.16454 0.21221 0.34765 0.0
H2656 H 0.16214 0.21721 0.31628 0.0
H2657 H 0.24083 0.26203 0.43299 0.0
H2658 H 0.63769 0.53959 0.72916 0.0
H2659 H 0.66707 0.5633 0.71822 0.0
H2660 H 0.69354 0.52774 0.72352 0.0
H2661 H 0.66455 0.50435 0.73499 0.0
H2662 H 0.71977 0.56419 0.72815 0.0
H2663 H 0.67445 0.53056 0.69484 0.0
H2664 H 0.64314 0.51677 0.6831 0.0
H2665 H 0.65046 0.57354 0.67924 0.0
H2666 H 0.6817 0.58765 0.69111 0.0
H2667 H 0.7982 0.61871 0.68672 0.0
H2668 H 0.76759 0.59117 0.69405 0.0
H2669 H 0.74117 0.62725 0.69614 0.0
H2670 H 0.77187 0.6549 0.68871 0.0
H2671 H 0.71536 0.58882 0.68656 0.0
H2672 H 0.75815 0.62118 0.7223 0.0
H2673 H 0.78968 0.63507 0.73386 0.0
H2674 H 0.78752 0.58026 0.732 0.0
H2675 H 0.75586 0.566 0.72052 0.0
C2676 C 0.64981 0.53685 0.72811 0.0
C2677 C 0.64867 0.51998 0.73297 0.0
C2678 C 0.66654 0.55034 0.7217 0.0
C2679 C 0.68245 0.5472 0.71985 0.0
C2680 C 0.68143 0.53046 0.72475 0.0
C2681 C 0.66474 0.51699 0.73122 0.0
C2682 C 0.7003 0.56161 0.71306 0.0
C2683 C 0.71877 0.56928 0.71897 0.0
C2684 C 0.6991 0.56857 0.70113 0.0
C2685 C 0.68033 0.56014 0.69397 0.0
C2686 C 0.66931 0.54009 0.69157 0.0
C2687 C 0.65159 0.53222 0.68488 0.0
C2688 C 0.64479 0.54427 0.68045 0.0
C2689 C 0.65573 0.56423 0.68268 0.0
C2690 C 0.67346 0.57217 0.68938 0.0
C2691 C 0.78573 0.62065 0.68835 0.0
C2692 C 0.78724 0.63882 0.68687 0.0
C2693 C 0.76828 0.60494 0.69267 0.0
C2694 C 0.75215 0.60721 0.69568 0.0
C2695 C 0.75342 0.62518 0.6938 0.0
C2696 C 0.77092 0.64093 0.68959 0.0
C2697 C 0.73455 0.59135 0.70173 0.0
C2698 C 0.71622 0.58349 0.69569 0.0
C2699 C 0.73585 0.58414 0.7135 0.0
C2700 C 0.75471 0.59256 0.72053 0.0
C2701 C 0.76442 0.61211 0.72435 0.0
C2702 C 0.78227 0.62003 0.73092 0.0
C2703 C 0.79053 0.60852 0.73371 0.0
C2704 C 0.78102 0.58911 0.7299 0.0
C2705 C 0.76309 0.58107 0.72342 0.0
H2706 H 0.80426 0.61463 0.73888 0.0
H2707 H 0.63107 0.53815 0.67527 0.0
H2708 H 0.50599 0.15088 0.72044 0.0
H2709 H 0.48075 0.1555 0.71028 0.0
H2710 H 0.43647 0.11215 0.73376 0.0
H2711 H 0.46161 0.10828 0.74463 0.0
H2712 H 0.42993 0.10945 0.70498 0.0
H2713 H 0.44539 0.15138 0.74156 0.0
H2714 H 0.46812 0.17802 0.75556 0.0
H2715 H 0.48634 0.21768 0.725 0.0
H2716 H 0.46391 0.19117 0.71078 0.0
H2717 H 0.34556 0.11586 0.6911 0.0
H2718 H 0.37246 0.1125 0.69954 0.0
H2719 H 0.41297 0.17281 0.69208 0.0
H2720 H 0.38544 0.17663 0.68524 0.0
H2721 H 0.42339 0.1675 0.71196 0.0
H2722 H 0.41207 0.12851 0.67492 0.0
H2723 H 0.39289 0.10317 0.65908 0.0
H2724 H 0.37053 0.06009 0.68766 0.0
H2725 H 0.38978 0.08517 0.70359 0.0
C2726 C 0.491 0.14254 0.72369 0.0
C2727 C 0.48607 0.12915 0.73346 0.0
C2728 C 0.47654 0.14512 0.71774 0.0
C2729 C 0.45675 0.13414 0.72125 0.0
C2730 C 0.45166 0.12068 0.73086 0.0
C2731 C 0.46613 0.11839 0.737 0.0
C2732 C 0.44131 0.13658 0.71483 0.0
C2733 C 0.42833 0.12205 0.70655 0.0
C2734 C 0.43974 0.15333 0.71653 0.0
C2735 C 0.45317 0.16925 0.72508 0.0
C2736 C 0.4544 0.16573 0.7378 0.0
C2737 C 0.46719 0.18082 0.74578 0.0
C2738 C 0.47872 0.19952 0.74116 0.0
C2739 C 0.47744 0.20318 0.72856 0.0
C2740 C 0.46468 0.18813 0.72054 0.0
C2741 C 0.36028 0.12835 0.6911 0.0
C2742 C 0.36341 0.14636 0.68703 0.0
C2743 C 0.37583 0.12636 0.69579 0.0
C2744 C 0.39519 0.14219 0.69614 0.0
C2745 C 0.39835 0.16021 0.69189 0.0
C2746 C 0.38259 0.16236 0.6877 0.0
C2747 C 0.41167 0.14031 0.70188 0.0
C2748 C 0.42492 0.15493 0.71014 0.0
C2749 C 0.41385 0.12384 0.69989 0.0
C2750 C 0.4021 0.10874 0.69041 0.0
C2751 C 0.40289 0.11366 0.67779 0.0
C2752 C 0.39209 0.09934 0.66881 0.0
C2753 C 0.38034 0.08007 0.67238 0.0
C2754 C 0.37957 0.07504 0.68491 0.0
C2755 C 0.39051 0.08927 0.6939 0.0
H2756 H 0.37192 0.06902 0.66542 0.0
H2757 H 0.48861 0.21119 0.74736 0.0
H2758 H 0.89803 0.35779 0.7469 0.0
H2759 H 0.89162 0.32833 0.73578 0.0
H2760 H 0.85695 0.33764 0.70837 0.0
H2761 H 0.8639 0.3676 0.71912 0.0
H2762 H 0.83886 0.29903 0.71814 0.0
H2763 H 0.89978 0.3471 0.69995 0.0
H2764 H 0.93417 0.37392 0.70039 0.0
H2765 H 0.952 0.33789 0.71932 0.0
H2766 H 0.91765 0.31093 0.71916 0.0
H2767 H 0.82781 0.22519 0.67663 0.0
H2768 H 0.83549 0.25665 0.68507 0.0
H2769 H 0.88009 0.25701 0.70894 0.0
H2770 H 0.87337 0.2261 0.69996 0.0
H2771 H 0.89291 0.29156 0.70014 0.0
H2772 H 0.83309 0.24411 0.71945 0.0
H2773 H 0.79907 0.21656 0.71945 0.0
H2774 H 0.77928 0.25043 0.69977 0.0
H2775 H 0.81326 0.2781 0.69946 0.0
C2776 C 0.88931 0.3538 0.7384 0.0
C2777 C 0.88156 0.36516 0.73389 0.0
C2778 C 0.88555 0.33688 0.73211 0.0
C2779 C 0.87388 0.33091 0.72126 0.0
C2780 C 0.86593 0.34202 0.71677 0.0
C2781 C 0.86986 0.35908 0.72297 0.0
C2782 C 0.86998 0.31301 0.71462 0.0
C2783 C 0.85059 0.29744 0.71404 0.0
C2784 C 0.88542 0.31088 0.70958 0.0
C2785 C 0.9061 0.32706 0.70965 0.0
C2786 C 0.911 0.34495 0.7043 0.0
C2787 C 0.9305 0.36017 0.70448 0.0
C2788 C 0.94526 0.35763 0.70991 0.0
C2789 C 0.94055 0.33985 0.71514 0.0
C2790 C 0.92108 0.32459 0.71499 0.0
C2791 C 0.83953 0.2321 0.68347 0.0
C2792 C 0.85007 0.22314 0.68752 0.0
C2793 C 0.84374 0.25001 0.68842 0.0
C2794 C 0.85815 0.25905 0.69779 0.0
C2795 C 0.8689 0.2503 0.70172 0.0
C2796 C 0.86494 0.23255 0.69661 0.0
C2797 C 0.86177 0.27741 0.70372 0.0
C2798 C 0.88111 0.2931 0.7042 0.0
C2799 C 0.84631 0.27954 0.70883 0.0
C2800 C 0.82576 0.26312 0.70934 0.0
C2801 C 0.8215 0.24566 0.71508 0.0
C2802 C 0.80222 0.23002 0.71513 0.0
C2803 C 0.78703 0.23173 0.70959 0.0
C2804 C 0.79107 0.24912 0.70404 0.0
C2805 C 0.81033 0.26479 0.70393 0.0
H2806 H 0.77213 0.21959 0.70961 0.0
H2807 H 0.96034 0.36942 0.71004 0.0
H2808 H 0.16654 0.9667 0.63018 0.0
H2809 H 0.19076 0.99805 0.63909 0.0
H2810 H 0.23149 0.00514 0.60993 0.0
H2811 H 0.20713 0.97417 0.60063 0.0
H2812 H 0.24857 0.01466 0.63452 0.0
H2813 H 0.20826 0.02872 0.60728 0.0
H2814 H 0.17687 0.02457 0.59926 0.0
H2815 H 0.16433 0.03943 0.63535 0.0
H2816 H 0.19553 0.0434 0.64364 0.0
H2817 H 0.31696 0.11394 0.64588 0.0
H2818 H 0.29387 0.08297 0.63605 0.0
H2819 H 0.24694 0.07974 0.65869 0.0
H2820 H 0.26956 0.11126 0.66784 0.0
H2821 H 0.23327 0.06788 0.63693 0.0
H2822 H 0.27188 0.05329 0.6648 0.0
H2823 H 0.30254 0.057 0.67384 0.0
H2824 H 0.31726 0.04215 0.63845 0.0
H2825 H 0.28681 0.03863 0.62914 0.0
C2826 C 0.18054 0.97497 0.62555 0.0
C2827 C 0.18474 0.96785 0.6146 0.0
C2828 C 0.19443 0.99284 0.63072 0.0
C2829 C 0.21287 0.00395 0.62513 0.0
C2830 C 0.21736 0.99675 0.61442 0.0
C2831 C 0.20341 0.97896 0.60915 0.0
C2832 C 0.22726 0.02331 0.63029 0.0
C2833 C 0.24538 0.02641 0.63492 0.0
C2834 C 0.22284 0.03843 0.6311 0.0
C2835 C 0.20414 0.03617 0.6261 0.0
C2836 C 0.19873 0.03095 0.61353 0.0
C2837 C 0.18099 0.02865 0.60893 0.0
C2838 C 0.16859 0.03168 0.6168 0.0
C2839 C 0.17393 0.03706 0.62927 0.0
C2840 C 0.19165 0.03935 0.63392 0.0
C2841 C 0.30172 0.10668 0.64876 0.0
C2842 C 0.29526 0.11494 0.65791 0.0
C2843 C 0.28853 0.08885 0.64318 0.0
C2844 C 0.2687 0.07868 0.64684 0.0
C2845 C 0.26217 0.08714 0.65577 0.0
C2846 C 0.27523 0.10512 0.66114 0.0
C2847 C 0.25467 0.05934 0.64132 0.0
C2848 C 0.23658 0.05621 0.63657 0.0
C2849 C 0.259 0.0441 0.64062 0.0
C2850 C 0.27715 0.04588 0.64624 0.0
C2851 C 0.28171 0.05092 0.65892 0.0
C2852 C 0.29905 0.05298 0.6641 0.0
C2853 C 0.31187 0.04987 0.65672 0.0
C2854 C 0.30733 0.04459 0.64415 0.0
C2855 C 0.29003 0.04254 0.63892 0.0
H2856 H 0.3253 0.0515 0.66074 0.0
H2857 H 0.15485 0.0299 0.61322 0.0
H2858 H 0.02024 0.18278 0.62647 0.0
H2859 H 0.99005 0.17782 0.63628 0.0
H2860 H 0.99149 0.22318 0.61402 0.0
H2861 H 0.02087 0.22744 0.60345 0.0
H2862 H 0.98816 0.22452 0.64283 0.0
H2863 H 0.95869 0.18639 0.60558 0.0
H2864 H 0.95174 0.161 0.58983 0.0
H2865 H 0.92905 0.11779 0.61833 0.0
H2866 H 0.93609 0.14299 0.63429 0.0
H2867 H 0.89727 0.21858 0.65694 0.0
H2868 H 0.9277 0.22206 0.64861 0.0
H2869 H 0.90819 0.16253 0.65762 0.0
H2870 H 0.877 0.15869 0.66507 0.0
H2871 H 0.92149 0.16787 0.63588 0.0
H2872 H 0.95348 0.20558 0.67334 0.0
H2873 H 0.96177 0.2308 0.68958 0.0
H2874 H 0.98021 0.27413 0.66128 0.0
H2875 H 0.97226 0.24919 0.64495 0.0
C2876 C 0.01401 0.19146 0.62337 0.0
C2877 C 0.0233 0.2056 0.61408 0.0
C2878 C 0.99675 0.18866 0.6291 0.0
C2879 C 0.98854 0.20012 0.62587 0.0
C2880 C 0.99764 0.21421 0.61667 0.0
C2881 C 0.01464 0.21675 0.61073 0.0
C2882 C 0.97096 0.19798 0.6325 0.0
C2883 C 0.97353 0.21223 0.64125 0.0
C2884 C 0.952 0.18172 0.63066 0.0
C2885 C 0.94822 0.16661 0.62115 0.0
C2886 C 0.9525 0.17152 0.60852 0.0
C2887 C 0.94846 0.15715 0.59954 0.0
C2888 C 0.94005 0.13781 0.60308 0.0
C2889 C 0.93562 0.13279 0.61561 0.0
C2890 C 0.93962 0.1471 0.62462 0.0
C2891 C 0.89966 0.20634 0.65738 0.0
C2892 C 0.88491 0.18851 0.66197 0.0
C2893 C 0.91722 0.20839 0.65271 0.0
C2894 C 0.92069 0.19272 0.65268 0.0
C2895 C 0.90609 0.17495 0.65757 0.0
C2896 C 0.88829 0.1728 0.66202 0.0
C2897 C 0.93855 0.19439 0.64643 0.0
C2898 C 0.93609 0.18008 0.63766 0.0
C2899 C 0.95769 0.21058 0.6483 0.0
C2900 C 0.96196 0.22552 0.65799 0.0
C2901 C 0.95907 0.22047 0.67063 0.0
C2902 C 0.96384 0.23471 0.67983 0.0
C2903 C 0.97133 0.25402 0.67646 0.0
C2904 C 0.97431 0.25916 0.66388 0.0
C2905 C 0.96979 0.245 0.65466 0.0
H2906 H 0.97494 0.26501 0.68359 0.0
H2907 H 0.93689 0.1267 0.59612 0.0
H2908 H 0.80059 0.83386 0.63265 0.0
H2909 H 0.80809 0.81123 0.64317 0.0
H2910 H 0.7778 0.76884 0.61398 0.0
H2911 H 0.77081 0.79159 0.60313 0.0
H2912 H 0.76852 0.75406 0.63885 0.0
H2913 H 0.82516 0.79306 0.61303 0.0
H2914 H 0.85261 0.82387 0.60546 0.0
H2915 H 0.87713 0.83832 0.64251 0.0
H2916 H 0.84965 0.80771 0.65034 0.0
H2917 H 0.8012 0.68786 0.6484 0.0
H2918 H 0.79321 0.71128 0.63993 0.0
H2919 H 0.83463 0.75495 0.66545 0.0
H2920 H 0.84363 0.73185 0.67349 0.0
H2921 H 0.83802 0.77011 0.64378 0.0
H2922 H 0.78345 0.73144 0.6699 0.0
H2923 H 0.75615 0.70128 0.67832 0.0
H2924 H 0.72755 0.68709 0.64242 0.0
H2925 H 0.75483 0.71704 0.63373 0.0
C2926 C 0.79567 0.81981 0.62838 0.0
C2927 C 0.78522 0.81463 0.61697 0.0
C2928 C 0.79986 0.80686 0.63446 0.0
C2929 C 0.79358 0.78846 0.62929 0.0
C2930 C 0.7827 0.78299 0.61812 0.0
C2931 C 0.77866 0.79599 0.61196 0.0
C2932 C 0.79883 0.77508 0.63538 0.0
C2933 C 0.78368 0.75742 0.63984 0.0
C2934 C 0.81865 0.77986 0.63701 0.0
C2935 C 0.83524 0.7982 0.63229 0.0
C2936 C 0.83632 0.80289 0.61958 0.0
C2937 C 0.8519 0.8203 0.61524 0.0
C2938 C 0.86658 0.83307 0.62351 0.0
C2939 C 0.86573 0.82843 0.63613 0.0
C2940 C 0.85017 0.81105 0.64051 0.0
C2941 C 0.80863 0.70241 0.65227 0.0
C2942 C 0.8228 0.70784 0.66184 0.0
C2943 C 0.80392 0.71578 0.64745 0.0
C2944 C 0.81294 0.73475 0.65227 0.0
C2945 C 0.82731 0.74032 0.66168 0.0
C2946 C 0.83229 0.72703 0.66637 0.0
C2947 C 0.80768 0.74885 0.6472 0.0
C2948 C 0.82283 0.7667 0.64292 0.0
C2949 C 0.78785 0.74435 0.64591 0.0
C2950 C 0.77127 0.72643 0.65114 0.0
C2951 C 0.7714 0.72184 0.66378 0.0
C2952 C 0.75592 0.70478 0.6686 0.0
C2953 C 0.74015 0.69226 0.6609 0.0
C2954 C 0.73979 0.6968 0.64837 0.0
C2955 C 0.75524 0.71383 0.64349 0.0
H2956 H 0.72819 0.67906 0.66465 0.0
H2957 H 0.87863 0.84655 0.62013 0.0
H2958 H 0.00832 0.82931 0.61428 0.0
H2959 H 0.97826 0.80559 0.62502 0.0
H2960 H 1.00186 0.76727 0.62834 0.0
H2961 H 0.03206 0.79107 0.61789 0.0
H2962 H 0.96084 0.75077 0.61795 0.0
H2963 H 0.00316 0.78859 0.65269 0.0
H2964 H 0.02391 0.81898 0.66437 0.0
H2965 H 0.97507 0.82889 0.66715 0.0
H2966 H 0.9541 0.79869 0.6553 0.0
H2967 H 0.89778 0.67772 0.65802 0.0
H2968 H 0.92775 0.70488 0.64959 0.0
H2969 H 0.90376 0.74254 0.65549 0.0
H2970 H 0.87365 0.7153 0.66382 0.0
H2971 H 0.94359 0.76106 0.66079 0.0
H2972 H 0.90044 0.72435 0.62804 0.0
H2973 H 0.87809 0.69552 0.61553 0.0
H2974 H 0.92582 0.68565 0.60707 0.0
H2975 H 0.94837 0.71405 0.61995 0.0
C2976 C 0.00704 0.81581 0.61732 0.0
C2977 C 0.02248 0.812 0.61529 0.0
C2978 C 0.98995 0.80235 0.62348 0.0
C2979 C 0.98791 0.78473 0.62749 0.0
C2980 C 0.0032 0.78081 0.62533 0.0
C2981 C 0.02043 0.79441 0.61941 0.0
C2982 C 0.96971 0.77018 0.63377 0.0
C2983 C 0.95716 0.75287 0.62737 0.0
C2984 C 0.96454 0.77339 0.64583 0.0
C2985 C 0.97714 0.79151 0.65297 0.0
C2986 C 0.9969 0.79735 0.65567 0.0
C2987 C 0.00869 0.81452 0.66235 0.0
C2988 C 1.00084 0.8259 0.66646 0.0
C2989 C 0.98115 0.82009 0.66393 0.0
C2990 C 0.96931 0.80295 0.65724 0.0
C2991 C 0.89907 0.69189 0.65772 0.0
C2992 C 0.8835 0.69445 0.6617 0.0
C2993 C 0.91614 0.70736 0.65287 0.0
C2994 C 0.91788 0.72567 0.65175 0.0
C2995 C 0.90272 0.72853 0.65626 0.0
C2996 C 0.88555 0.71297 0.66108 0.0
C2997 C 0.93496 0.74133 0.6451 0.0
C2998 C 0.94722 0.7589 0.65137 0.0
C2999 C 0.93963 0.73855 0.63276 0.0
C3000 C 0.92608 0.72125 0.62511 0.0
C3001 C 0.90615 0.7159 0.62367 0.0
C3002 C 0.89344 0.69964 0.61647 0.0
C3003 C 0.90053 0.68877 0.61048 0.0
C3004 C 0.92034 0.69408 0.61173 0.0
C3005 C 0.93309 0.71024 0.61901 0.0
H3006 H 0.89067 0.67624 0.60486 0.0
H3007 H 0.00999 0.83918 0.67163 0.0
H3008 H 0.20091 0.20647 0.59815 0.0
H3009 H 0.22609 0.20205 0.60861 0.0
H3010 H 0.19572 0.19302 0.64353 0.0
H3011 H 0.17011 0.19677 0.63312 0.0
H3012 H 0.2354 0.21883 0.6459 0.0
H3013 H 0.19353 0.1553 0.62826 0.0
H3014 H 0.17558 0.13174 0.61133 0.0
H3015 H 0.22993 0.14955 0.59222 0.0
H3016 H 0.24818 0.17342 0.60896 0.0
H3017 H 0.28593 0.15691 0.66265 0.0
H3018 H 0.25827 0.16 0.65499 0.0
H3019 H 0.29718 0.22135 0.65024 0.0
H3020 H 0.32446 0.21843 0.65874 0.0
H3021 H 0.25194 0.16868 0.63341 0.0
H3022 H 0.27873 0.24572 0.6485 0.0
H3023 H 0.29418 0.2684 0.66629 0.0
H3024 H 0.26585 0.22126 0.69187 0.0
H3025 H 0.25045 0.19832 0.67412 0.0
C3026 C 0.19933 0.20322 0.60802 0.0
C3027 C 0.18333 0.20199 0.61474 0.0
C3028 C 0.21386 0.20079 0.614 0.0
C3029 C 0.2128 0.19714 0.62686 0.0
C3030 C 0.19691 0.19592 0.63361 0.0
C3031 C 0.18231 0.19818 0.62763 0.0
C3032 C 0.22842 0.19499 0.63335 0.0
C3033 C 0.23899 0.20784 0.64316 0.0
C3034 C 0.23313 0.18063 0.62986 0.0
C3035 C 0.22219 0.16627 0.6198 0.0
C3036 C 0.20163 0.15431 0.6204 0.0
C3037 C 0.19141 0.14088 0.61084 0.0
C3038 C 0.20161 0.13919 0.60069 0.0
C3039 C 0.22205 0.15089 0.60008 0.0
C3040 C 0.23234 0.16436 0.6096 0.0
C3041 C 0.28843 0.17115 0.66043 0.0
C3042 C 0.3073 0.18752 0.66167 0.0
C3043 C 0.27261 0.17291 0.65588 0.0
C3044 C 0.27537 0.191 0.65218 0.0
C3045 C 0.29429 0.20733 0.65341 0.0
C3046 C 0.30999 0.20562 0.65816 0.0
C3047 C 0.25896 0.19249 0.64607 0.0
C3048 C 0.24833 0.17962 0.63622 0.0
C3049 C 0.2541 0.20677 0.64952 0.0
C3050 C 0.26384 0.22033 0.66008 0.0
C3051 C 0.27597 0.24023 0.65793 0.0
C3052 C 0.28471 0.2531 0.66798 0.0
C3053 C 0.28114 0.24624 0.6802 0.0
C3054 C 0.26879 0.2265 0.68239 0.0
C3055 C 0.2602 0.21355 0.67236 0.0
H3056 H 0.28783 0.25623 0.68797 0.0
H3057 H 0.19366 0.12878 0.5933 0.0
H3058 H 0.75975 0.96373 0.62026 0.0
H3059 H 0.76749 0.99424 0.63076 0.0
H3060 H 0.82953 0.01442 0.62732 0.0
H3061 H 0.82186 0.98407 0.61659 0.0
H3062 H 0.81483 0.01937 0.65238 0.0
H3063 H 0.81467 0.03206 0.60818 0.0
H3064 H 0.80012 0.02507 0.58701 0.0
H3065 H 0.75071 0.02888 0.60054 0.0
H3066 H 0.76484 0.0356 0.62184 0.0
H3067 H 0.85293 0.11854 0.6674 0.0
H3068 H 0.84567 0.08743 0.6584 0.0
H3069 H 0.78667 0.07468 0.64933 0.0
H3070 H 0.79421 0.1062 0.65774 0.0
H3071 H 0.79997 0.06534 0.63066 0.0
H3072 H 0.79759 0.05161 0.67428 0.0
H3073 H 0.80961 0.05714 0.69606 0.0
H3074 H 0.86038 0.05393 0.6848 0.0
H3075 H 0.8486 0.0483 0.66294 0.0
C3076 C 0.77502 0.97465 0.62182 0.0
C3077 C 0.79024 0.97167 0.61761 0.0
C3078 C 0.77941 0.99201 0.62778 0.0
C3079 C 0.79906 0.00647 0.62977 0.0
C3080 C 0.81428 0.00335 0.62586 0.0
C3081 C 0.8099 0.98613 0.61969 0.0
C3082 C 0.80367 0.02513 0.63556 0.0
C3083 C 0.81183 0.02958 0.64762 0.0
C3084 C 0.79916 0.03806 0.62943 0.0
C3085 C 0.79071 0.03411 0.61662 0.0
C3086 C 0.80061 0.03121 0.60666 0.0
C3087 C 0.79246 0.02734 0.59464 0.0
C3088 C 0.77447 0.02648 0.59244 0.0
C3089 C 0.76463 0.02953 0.60226 0.0
C3090 C 0.7727 0.03338 0.61431 0.0
C3091 C 0.83837 0.10904 0.66355 0.0
C3092 C 0.82413 0.11479 0.66325 0.0
C3093 C 0.83419 0.09119 0.65847 0.0
C3094 C 0.81551 0.07853 0.65333 0.0
C3095 C 0.8012 0.08419 0.65321 0.0
C3096 C 0.80551 0.1022 0.65805 0.0
C3097 C 0.81108 0.05973 0.64763 0.0
C3098 C 0.80297 0.05521 0.63552 0.0
C3099 C 0.81528 0.04657 0.65383 0.0
C3100 C 0.8223 0.04969 0.66697 0.0
C3101 C 0.81135 0.05215 0.67645 0.0
C3102 C 0.81811 0.05527 0.68881 0.0
C3103 C 0.8358 0.05598 0.6918 0.0
C3104 C 0.84669 0.0534 0.68246 0.0
C3105 C 0.83995 0.05017 0.67009 0.0
H3106 H 0.84105 0.0585 0.70137 0.0
H3107 H 0.76819 0.02349 0.58312 0.0
H3108 H 0.50816 0.34725 0.73796 0.0
H3109 H 0.48299 0.3171 0.72791 0.0
H3110 H 0.44328 0.33968 0.72652 0.0
H3111 H 0.46857 0.37003 0.73633 0.0
H3112 H 0.42729 0.29936 0.73619 0.0
H3113 H 0.46189 0.34028 0.7013 0.0
H3114 H 0.49151 0.36167 0.6892 0.0
H3115 H 0.50525 0.31607 0.68579 0.0
H3116 H 0.47585 0.29448 0.69805 0.0
H3117 H 0.35401 0.2263 0.69707 0.0
H3118 H 0.37784 0.25695 0.70703 0.0
H3119 H 0.42491 0.24619 0.69729 0.0
H3120 H 0.40129 0.21611 0.6868 0.0
H3121 H 0.43706 0.28143 0.69344 0.0
H3122 H 0.40422 0.24036 0.72812 0.0
H3123 H 0.37609 0.21834 0.74114 0.0
H3124 H 0.36062 0.26251 0.74624 0.0
H3125 H 0.3885 0.28471 0.7331 0.0
C3126 C 0.49404 0.34573 0.73553 0.0
C3127 C 0.49029 0.36095 0.73788 0.0
C3128 C 0.47972 0.32857 0.72978 0.0
C3129 C 0.46132 0.32621 0.72648 0.0
C3130 C 0.4574 0.34124 0.72901 0.0
C3131 C 0.47186 0.35856 0.73454 0.0
C3132 C 0.44627 0.30812 0.72023 0.0
C3133 C 0.42923 0.29548 0.72678 0.0
C3134 C 0.44917 0.30291 0.70812 0.0
C3135 C 0.46679 0.31584 0.70071 0.0
C3136 C 0.47133 0.33487 0.69808 0.0
C3137 C 0.48806 0.34702 0.69117 0.0
C3138 C 0.50029 0.34025 0.68676 0.0
C3139 C 0.49578 0.3213 0.68923 0.0
C3140 C 0.47908 0.3091 0.69615 0.0
C3141 C 0.36944 0.23048 0.69709 0.0
C3142 C 0.37576 0.21877 0.69118 0.0
C3143 C 0.38307 0.24797 0.70285 0.0
C3144 C 0.40323 0.25383 0.70315 0.0
C3145 C 0.40949 0.24209 0.69722 0.0
C3146 C 0.39595 0.22484 0.69124 0.0
C3147 C 0.41789 0.27231 0.70941 0.0
C3148 C 0.43495 0.28514 0.70286 0.0
C3149 C 0.41515 0.2775 0.72164 0.0
C3150 C 0.39834 0.26414 0.72952 0.0
C3151 C 0.39473 0.24533 0.73193 0.0
C3152 C 0.37884 0.23282 0.73935 0.0
C3153 C 0.36655 0.23901 0.74449 0.0
C3154 C 0.37014 0.25773 0.74224 0.0
C3155 C 0.38599 0.27028 0.73481 0.0
H3156 H 0.35427 0.22935 0.75025 0.0
H3157 H 0.51323 0.34968 0.68141 0.0
H3158 H 0.66508 0.1658 0.73689 0.0
H3159 H 0.69537 0.17113 0.72663 0.0
H3160 H 0.66921 0.10965 0.72034 0.0
H3161 H 0.63879 0.10429 0.73031 0.0
H3162 H 0.70946 0.13047 0.73199 0.0
H3163 H 0.67147 0.13347 0.69691 0.0
H3164 H 0.65332 0.1466 0.68567 0.0
H3165 H 0.70476 0.20321 0.68637 0.0
H3166 H 0.72314 0.19047 0.6978 0.0
H3167 H 0.77443 0.12025 0.69285 0.0
H3168 H 0.74463 0.11859 0.70115 0.0
H3169 H 0.77031 0.18021 0.69631 0.0
H3170 H 0.80007 0.1818 0.68781 0.0
H3171 H 0.73176 0.1623 0.69092 0.0
H3172 H 0.77053 0.1625 0.72468 0.0
H3173 H 0.79085 0.15297 0.73698 0.0
H3174 H 0.74132 0.09563 0.74078 0.0
H3175 H 0.72076 0.10472 0.7283 0.0
C3176 C 0.66581 0.15345 0.73329 0.0
C3177 C 0.64956 0.13463 0.73438 0.0
C3178 C 0.68307 0.15651 0.72741 0.0
C3179 C 0.68452 0.14079 0.7227 0.0
C3180 C 0.66839 0.12199 0.72389 0.0
C3181 C 0.65101 0.11895 0.72953 0.0
C3182 C 0.70295 0.14381 0.71675 0.0
C3183 C 0.71422 0.13721 0.72294 0.0
C3184 C 0.70965 0.15343 0.70522 0.0
C3185 C 0.69859 0.16106 0.69835 0.0
C3186 C 0.67884 0.14876 0.69479 0.0
C3187 C 0.66853 0.15612 0.68836 0.0
C3188 C 0.67786 0.17574 0.68535 0.0
C3189 C 0.69754 0.18803 0.68873 0.0
C3190 C 0.70791 0.18074 0.69518 0.0
C3191 C 0.77357 0.13338 0.69339 0.0
C3192 C 0.78945 0.15108 0.68953 0.0
C3193 C 0.75659 0.13246 0.69819 0.0
C3194 C 0.7553 0.14932 0.69958 0.0
C3195 C 0.77092 0.16699 0.69535 0.0
C3196 C 0.78792 0.16788 0.69044 0.0
C3197 C 0.73804 0.14846 0.70601 0.0
C3198 C 0.72706 0.15557 0.69997 0.0
C3199 C 0.73189 0.13982 0.71788 0.0
C3200 C 0.74413 0.13424 0.72545 0.0
C3201 C 0.764 0.14781 0.72805 0.0
C3202 C 0.77556 0.1425 0.73507 0.0
C3203 C 0.76739 0.1237 0.73964 0.0
C3204 C 0.74763 0.11018 0.73722 0.0
C3205 C 0.736 0.11541 0.73018 0.0
H3206 H 0.77637 0.11962 0.74509 0.0
H3207 H 0.66985 0.18141 0.68036 0.0
H3208 H 0.84401 0.49812 0.74026 0.0
H3209 H 0.83628 0.52051 0.72934 0.0
H3210 H 0.89814 0.56293 0.72803 0.0
H3211 H 0.90595 0.54046 0.73869 0.0
H3212 H 0.87094 0.57655 0.73653 0.0
H3213 H 0.88109 0.54079 0.70329 0.0
H3214 H 0.87469 0.51094 0.69223 0.0
H3215 H 0.81394 0.4946 0.68743 0.0
H3216 H 0.81993 0.52424 0.69865 0.0
H3217 H 0.87562 0.64525 0.69457 0.0
H3218 H 0.88074 0.6213 0.7053 0.0
H3219 H 0.82216 0.57654 0.69466 0.0
H3220 H 0.81737 0.60036 0.6833 0.0
H3221 H 0.84534 0.56266 0.69299 0.0
H3222 H 0.83396 0.59774 0.72532 0.0
H3223 H 0.839 0.62689 0.73671 0.0
H3224 H 0.89922 0.64338 0.74402 0.0
H3225 H 0.89463 0.61438 0.73262 0.0
C3226 C 0.8559 0.51228 0.73769 0.0
C3227 C 0.87555 0.51764 0.74026 0.0
C3228 C 0.85149 0.52497 0.73145 0.0
C3229 C 0.86667 0.54328 0.72789 0.0
C3230 C 0.88626 0.54884 0.73072 0.0
C3231 C 0.8907 0.53602 0.73675 0.0
C3232 C 0.86219 0.55659 0.72101 0.0
C3233 C 0.86549 0.57365 0.72698 0.0
C3234 C 0.85449 0.55238 0.70872 0.0
C3235 C 0.8509 0.5346 0.70195 0.0
C3236 C 0.86632 0.53073 0.7 0.0
C3237 C 0.86278 0.51387 0.69367 0.0
C3238 C 0.8439 0.50084 0.68917 0.0
C3239 C 0.82854 0.50468 0.69095 0.0
C3240 C 0.832 0.52151 0.69729 0.0
C3241 C 0.86387 0.63029 0.69445 0.0
C3242 C 0.84603 0.6247 0.6882 0.0
C3243 C 0.86675 0.61662 0.70068 0.0
C3244 C 0.85162 0.59719 0.70112 0.0
C3245 C 0.834 0.59146 0.69454 0.0
C3246 C 0.83127 0.60509 0.68806 0.0
C3247 C 0.85429 0.58292 0.70844 0.0
C3248 C 0.85061 0.5656 0.70258 0.0
C3249 C 0.86132 0.58674 0.72094 0.0
C3250 C 0.864 0.60397 0.72803 0.0
C3251 C 0.8483 0.60762 0.72932 0.0
C3252 C 0.85107 0.6241 0.73578 0.0
C3253 C 0.86943 0.63702 0.74102 0.0
C3254 C 0.88502 0.63338 0.73993 0.0
C3255 C 0.88233 0.61689 0.7335 0.0
H3256 H 0.87159 0.64985 0.74592 0.0
H3257 H 0.84119 0.4878 0.68427 0.0
H3258 H 0.48845 0.95419 0.19477 0.0
H3259 H 0.49614 0.96839 0.17399 0.0
H3260 H 0.45339 0.91337 0.15778 0.0
H3261 H 0.44635 0.89893 0.17859 0.0
H3262 H 0.4826 0.92858 0.143 0.0
H3263 H 0.44469 0.95289 0.16205 0.0
H3264 H 0.43473 0.96839 0.17823 0.0
H3265 H 0.48987 0.02129 0.17462 0.0
H3266 H 0.50028 0.00603 0.15854 0.0
H3267 H 0.47901 0.97605 0.0859 0.0
H3268 H 0.46996 0.95803 0.10547 0.0
H3269 H 0.52266 0.0032 0.12307 0.0
H3270 H 0.5324 0.02082 0.10351 0.0
H3271 H 0.48574 0.99152 0.13625 0.0
H3272 H 0.52239 0.9643 0.11653 0.0
H3273 H 0.52863 0.94795 0.09897 0.0
H3274 H 0.47061 0.89876 0.10263 0.0
H3275 H 0.4639 0.91496 0.12009 0.0
C3276 C 0.48067 0.94515 0.18677 0.0
C3277 C 0.46668 0.92549 0.18833 0.0
C3278 C 0.485 0.95329 0.17487 0.0
C3279 C 0.47504 0.94214 0.16423 0.0
C3280 C 0.46127 0.92237 0.16577 0.0
C3281 C 0.45722 0.91412 0.17768 0.0
C3282 C 0.47898 0.95117 0.15159 0.0
C3283 C 0.483 0.9422 0.14154 0.0
C3284 C 0.47952 0.96898 0.14951 0.0
C3285 C 0.47333 0.97825 0.15917 0.0
C3286 C 0.45475 0.96779 0.16477 0.0
C3287 C 0.44901 0.97653 0.17391 0.0
C3288 C 0.46168 0.99579 0.17747 0.0
C3289 C 0.48009 0.00636 0.17187 0.0
C3290 C 0.48591 0.99768 0.16273 0.0
C3291 C 0.48892 0.98202 0.09383 0.0
C3292 C 0.5064 9e-05 0.09304 0.0
C3293 C 0.48362 0.97173 0.10506 0.0
C3294 C 0.49558 0.97934 0.11575 0.0
C3295 C 0.51311 0.99714 0.11497 0.0
C3296 C 0.51858 0.00728 0.10375 0.0
C3297 C 0.4897 0.96912 0.1279 0.0
C3298 C 0.48526 0.97786 0.1378 0.0
C3299 C 0.48828 0.95093 0.12973 0.0
C3300 C 0.49257 0.94093 0.11953 0.0
C3301 C 0.51092 0.95004 0.11355 0.0
C3302 C 0.51455 0.9408 0.10362 0.0
C3303 C 0.49999 0.92237 0.09965 0.0
C3304 C 0.48185 0.91306 0.10569 0.0
C3305 C 0.47813 0.92226 0.11561 0.0
H3306 H 0.50276 0.91531 0.09189 0.0
H3307 H 0.45721 0.00254 0.18455 0.0
H3308 H 0.06771 0.51119 0.18243 0.0
H3309 H 0.05192 0.5049 0.1618 0.0
H3310 H 0.03849 0.55048 0.16824 0.0
H3311 H 0.05431 0.55687 0.18886 0.0
H3312 H 0.00636 0.51522 0.15886 0.0
H3313 H 0.0747 0.55971 0.15004 0.0
H3314 H 0.11027 0.57108 0.15049 0.0
H3315 H 0.1 0.51989 0.13053 0.0
H3316 H 0.06431 0.50808 0.13013 0.0
H3317 H 0.97985 0.52832 0.09824 0.0
H3318 H 0.99516 0.53263 0.11879 0.0
H3319 H 0.01541 0.49323 0.10829 0.0
H3320 H 1.00024 0.48899 0.08763 0.0
H3321 H 0.04383 0.5239 0.1199 0.0
H3322 H 0.97628 0.47927 0.12799 0.0
H3323 H 0.94045 0.46656 0.12769 0.0
H3324 H 0.94848 0.5157 0.14919 0.0
H3325 H 0.98441 0.52887 0.14947 0.0
C3326 C 0.06134 0.51981 0.17944 0.0
C3327 C 0.06225 0.53455 0.1872 0.0
C3328 C 0.05242 0.51628 0.16766 0.0
C3329 C 0.04414 0.5273 0.16351 0.0
C3330 C 0.04484 0.54186 0.1713 0.0
C3331 C 0.05396 0.54556 0.18301 0.0
C3332 C 0.03472 0.52364 0.15105 0.0
C3333 C 0.01455 0.51733 0.15032 0.0
C3334 C 0.04536 0.52581 0.13997 0.0
C3335 C 0.06682 0.53291 0.14018 0.0
C3336 C 0.08001 0.55079 0.14585 0.0
C3337 C 0.10019 0.55734 0.14607 0.0
C3338 C 0.10739 0.54619 0.14057 0.0
C3339 C 0.09441 0.5285 0.13481 0.0
C3340 C 0.0742 0.52188 0.13457 0.0
C3341 C 0.9874 0.52043 0.10035 0.0
C3342 C 0.98876 0.50824 0.09135 0.0
C3343 C 0.99614 0.5229 0.1121 0.0
C3344 C 0.0062 0.51304 0.11514 0.0
C3345 C 0.00772 0.50097 0.10614 0.0
C3346 C 0.99907 0.49859 0.09435 0.0
C3347 C 0.0154 0.51561 0.12766 0.0
C3348 C 0.03554 0.5217 0.12842 0.0
C3349 C 0.00467 0.51302 0.13878 0.0
C3350 C 0.98306 0.50514 0.13865 0.0
C3351 C 0.97042 0.48745 0.13257 0.0
C3352 C 0.95009 0.48015 0.13242 0.0
C3353 C 0.9422 0.49034 0.13839 0.0
C3354 C 0.95462 0.50784 0.14455 0.0
C3355 C 0.97497 0.51522 0.14472 0.0
H3356 H 0.92645 0.48466 0.13826 0.0
H3357 H 0.12302 0.55128 0.14075 0.0
H3358 H 0.43686 0.50347 0.18779 0.0
H3359 H 0.44478 0.49608 0.16704 0.0
H3360 H 0.48565 0.55675 0.16148 0.0
H3361 H 0.47807 0.56418 0.18232 0.0
H3362 H 0.45841 0.53468 0.14009 0.0
H3363 H 0.50542 0.5335 0.16916 0.0
H3364 H 0.51465 0.52271 0.18823 0.0
H3365 H 0.4814 0.46363 0.17548 0.0
H3366 H 0.47172 0.47406 0.15642 0.0
H3367 H 0.51314 0.52998 0.0887 0.0
H3368 H 0.5012 0.53703 0.108 0.0
H3369 H 0.47751 0.47766 0.11934 0.0
H3370 H 0.49019 0.4709 0.10029 0.0
H3371 H 0.49488 0.49883 0.13796 0.0
H3372 H 0.4482 0.49803 0.10898 0.0
H3373 H 0.43576 0.50659 0.09034 0.0
H3374 H 0.46441 0.56598 0.10261 0.0
H3375 H 0.47723 0.55783 0.12124 0.0
C3376 C 0.44737 0.51523 0.18208 0.0
C3377 C 0.4569 0.53438 0.18665 0.0
C3378 C 0.4519 0.511 0.17026 0.0
C3379 C 0.4658 0.52588 0.16276 0.0
C3380 C 0.47485 0.54509 0.16713 0.0
C3381 C 0.4706 0.54929 0.17903 0.0
C3382 C 0.47166 0.52129 0.15064 0.0
C3383 C 0.46657 0.52702 0.13956 0.0
C3384 C 0.48174 0.51079 0.15002 0.0
C3385 C 0.48767 0.50454 0.16144 0.0
C3386 C 0.49992 0.51819 0.17048 0.0
C3387 C 0.50527 0.51214 0.18127 0.0
C3388 C 0.49857 0.49249 0.18308 0.0
C3389 C 0.48655 0.47885 0.17408 0.0
C3390 C 0.48114 0.48482 0.16328 0.0
C3391 C 0.50524 0.51844 0.09529 0.0
C3392 C 0.50268 0.49994 0.09305 0.0
C3393 C 0.4983 0.52243 0.1063 0.0
C3394 C 0.48822 0.50783 0.11514 0.0
C3395 C 0.48531 0.48922 0.11274 0.0
C3396 C 0.49255 0.48535 0.10185 0.0
C3397 C 0.48162 0.51213 0.12718 0.0
C3398 C 0.48662 0.50639 0.13834 0.0
C3399 C 0.47111 0.5223 0.12782 0.0
C3400 C 0.4638 0.52733 0.11647 0.0
C3401 C 0.45201 0.51295 0.10764 0.0
C3402 C 0.44486 0.51773 0.09709 0.0
C3403 C 0.44931 0.53682 0.09529 0.0
C3404 C 0.46097 0.55119 0.10402 0.0
C3405 C 0.46817 0.5465 0.11458 0.0
H3406 H 0.44367 0.54048 0.08716 0.0
H3407 H 0.50273 0.48784 0.19144 0.0
H3408 H 0.93345 0.48776 0.83574 0.0
H3409 H 0.9478 0.49266 0.85663 0.0
H3410 H 0.9615 0.44737 0.84969 0.0
H3411 H 0.94616 0.4416 0.82906 0.0
H3412 H 0.94861 0.44471 0.87258 0.0
H3413 H 0.99669 0.49616 0.84741 0.0
H3414 H 0.00908 0.52391 0.83317 0.0
H3415 H 0.99591 0.55569 0.86027 0.0
H3416 H 0.9832 0.52802 0.87461 0.0
H3417 H 0.02244 0.47021 0.91916 0.0
H3418 H 0.00542 0.4646 0.89904 0.0
H3419 H 0.98693 0.50544 0.90929 0.0
H3420 H 0.00415 0.51133 0.92937 0.0
H3421 H 1.0015 0.51048 0.88522 0.0
H3422 H 0.95454 0.45858 0.91074 0.0
H3423 H 0.94416 0.43111 0.92503 0.0
H3424 H 0.9569 0.40019 0.89705 0.0
H3425 H 0.96759 0.42758 0.88263 0.0
C3426 C 0.93922 0.47861 0.83871 0.0
C3427 C 0.93876 0.46437 0.83066 0.0
C3428 C 0.94763 0.4816 0.85062 0.0
C3429 C 0.95605 0.47062 0.85465 0.0
C3430 C 0.9552 0.45609 0.84676 0.0
C3431 C 0.94662 0.45297 0.8349 0.0
C3432 C 0.96607 0.47449 0.86698 0.0
C3433 C 0.96031 0.45905 0.87528 0.0
C3434 C 0.98112 0.49327 0.87062 0.0
C3435 C 0.98881 0.50995 0.86203 0.0
C3436 C 0.9963 0.50902 0.85029 0.0
C3437 C 0.0034 0.52474 0.84221 0.0
C3438 C 0.00323 0.54153 0.8458 0.0
C3439 C 0.99601 0.54266 0.85749 0.0
C3440 C 0.98886 0.52697 0.86561 0.0
C3441 C 0.01489 0.47812 0.91708 0.0
C3442 C 0.01457 0.49117 0.92583 0.0
C3443 C 0.00506 0.47478 0.90564 0.0
C3444 C 0.99476 0.48446 0.90276 0.0
C3445 C 0.99473 0.49777 0.91138 0.0
C3446 C 0.00446 0.50103 0.92285 0.0
C3447 C 0.98408 0.48072 0.89073 0.0
C3448 C 0.98972 0.49617 0.88251 0.0
C3449 C 0.96906 0.46194 0.88714 0.0
C3450 C 0.96207 0.44522 0.89565 0.0
C3451 C 0.95523 0.44596 0.90766 0.0
C3452 C 0.94929 0.43041 0.91578 0.0
C3453 C 0.95001 0.41399 0.91198 0.0
C3454 C 0.95643 0.41297 0.89999 0.0
C3455 C 0.9624 0.42848 0.89184 0.0
H3456 H 0.94559 0.40204 0.91832 0.0
H3457 H 0.00874 0.55369 0.83953 0.0
H3458 H 0.52362 0.47707 0.82355 0.0
H3459 H 0.51496 0.48265 0.84444 0.0
H3460 H 0.55615 0.46785 0.86055 0.0
H3461 H 0.56424 0.46149 0.83959 0.0
H3462 H 0.52531 0.4528 0.87407 0.0
H3463 H 0.56573 0.51617 0.85849 0.0
H3464 H 0.57755 0.54316 0.84368 0.0
H3465 H 0.52269 0.54257 0.84651 0.0
H3466 H 0.51042 0.51538 0.86121 0.0
H3467 H 0.52664 0.50243 0.93243 0.0
H3468 H 0.53675 0.49427 0.91279 0.0
H3469 H 0.48233 0.48285 0.89543 0.0
H3470 H 0.47149 0.48984 0.91515 0.0
H3471 H 0.52246 0.51233 0.88358 0.0
H3472 H 0.48182 0.44461 0.89701 0.0
H3473 H 0.47201 0.41822 0.91214 0.0
H3474 H 0.53186 0.43066 0.91477 0.0
H3475 H 0.54192 0.45689 0.89945 0.0
C3476 C 0.5309 0.47511 0.83155 0.0
C3477 C 0.54471 0.469 0.82995 0.0
C3478 C 0.526 0.47838 0.84351 0.0
C3479 C 0.53519 0.4761 0.85413 0.0
C3480 C 0.54887 0.46978 0.85254 0.0
C3481 C 0.55352 0.46617 0.84056 0.0
C3482 C 0.53027 0.48007 0.86686 0.0
C3483 C 0.52501 0.46599 0.87615 0.0
C3484 C 0.52978 0.49724 0.8697 0.0
C3485 C 0.53709 0.51361 0.86087 0.0
C3486 C 0.55613 0.5217 0.85589 0.0
C3487 C 0.56292 0.53704 0.84752 0.0
C3488 C 0.55086 0.54454 0.84414 0.0
C3489 C 0.532 0.53673 0.84914 0.0
C3490 C 0.52513 0.52136 0.85749 0.0
C3491 C 0.51656 0.49776 0.92455 0.0
C3492 C 0.49824 0.49697 0.92544 0.0
C3493 C 0.52245 0.49321 0.91331 0.0
C3494 C 0.51031 0.48807 0.90269 0.0
C3495 C 0.49194 0.48691 0.90354 0.0
C3496 C 0.48587 0.4911 0.91481 0.0
C3497 C 0.51718 0.48493 0.89049 0.0
C3498 C 0.52291 0.49925 0.8814 0.0
C3499 C 0.51854 0.46827 0.88792 0.0
C3500 C 0.51262 0.45273 0.89719 0.0
C3501 C 0.49288 0.44175 0.90087 0.0
C3502 C 0.48727 0.42677 0.90942 0.0
C3503 C 0.50132 0.42282 0.91446 0.0
C3504 C 0.52099 0.43374 0.91087 0.0
C3505 C 0.52664 0.44858 0.9022 0.0
H3506 H 0.49696 0.4113 0.92114 0.0
H3507 H 0.55615 0.55643 0.83766 0.0
H3508 H 0.56244 0.1031 0.8374 0.0
H3509 H 0.55539 0.08972 0.85843 0.0
H3510 H 0.5089 0.03548 0.84373 0.0
H3511 H 0.51638 0.04828 0.82262 0.0
H3512 H 0.49816 0.05015 0.8651 0.0
H3513 H 0.54995 0.03788 0.85158 0.0
H3514 H 0.58306 0.04757 0.84366 0.0
H3515 H 0.60929 0.08569 0.87523 0.0
H3516 H 0.57631 0.07642 0.88325 0.0
H3517 H 0.4746 0.98351 0.91332 0.0
H3518 H 0.48403 0.0018 0.89409 0.0
H3519 H 0.53685 0.04653 0.91198 0.0
H3520 H 0.52809 0.02756 0.93114 0.0
H3521 H 0.54593 0.04043 0.88994 0.0
H3522 H 0.49623 0.0526 0.9046 0.0
H3523 H 0.46406 0.04527 0.91304 0.0
H3524 H 0.435 0.01108 0.88039 0.0
H3525 H 0.46698 0.018 0.87181 0.0
C3526 C 0.55091 0.08822 0.83854 0.0
C3527 C 0.54001 0.07686 0.82816 0.0
C3528 C 0.54681 0.08064 0.85063 0.0
C3529 C 0.5316 0.0616 0.85267 0.0
C3530 C 0.52062 0.05026 0.8424 0.0
C3531 C 0.52487 0.05771 0.8303 0.0
C3532 C 0.52706 0.05339 0.86547 0.0
C3533 C 0.50852 0.04785 0.8705 0.0
C3534 C 0.54087 0.05113 0.87273 0.0
C3535 C 0.56067 0.05663 0.86794 0.0
C3536 C 0.56278 0.04846 0.85677 0.0
C3537 C 0.58152 0.05385 0.85228 0.0
C3538 C 0.59827 0.06729 0.85892 0.0
C3539 C 0.5963 0.07531 0.87009 0.0
C3540 C 0.57759 0.06999 0.87462 0.0
C3541 C 0.48833 0.99715 0.91321 0.0
C3542 C 0.50062 0.0039 0.92386 0.0
C3543 C 0.49358 0.00781 0.90219 0.0
C3544 C 0.51105 0.02578 0.90154 0.0
C3545 C 0.52325 0.03276 0.9122 0.0
C3546 C 0.5181 0.02196 0.92323 0.0
C3547 C 0.51677 0.03675 0.88956 0.0
C3548 C 0.53556 0.04286 0.88466 0.0
C3549 C 0.50331 0.03991 0.88251 0.0
C3550 C 0.48401 0.0357 0.88761 0.0
C3551 C 0.48297 0.0434 0.89926 0.0
C3552 C 0.46477 0.03934 0.90406 0.0
C3553 C 0.44749 0.02768 0.89727 0.0
C3554 C 0.44839 0.0201 0.88564 0.0
C3555 C 0.46656 0.02411 0.8808 0.0
H3556 H 0.43341 0.02455 0.901 0.0
H3557 H 0.61276 0.07144 0.85543 0.0
H3558 H 0.11376 0.27198 0.52227 0.0
H3559 H 0.12123 0.28565 0.50148 0.0
H3560 H 0.15869 0.26122 0.49528 0.0
H3561 H 0.1527 0.24894 0.5165 0.0
H3562 H 0.17583 0.2945 0.48605 0.0
H3563 H 0.11013 0.2421 0.4818 0.0
H3564 H 0.07495 0.2217 0.48677 0.0
H3565 H 0.06575 0.26962 0.48016 0.0
H3566 H 0.10095 0.2904 0.4753 0.0
H3567 H 0.18023 0.31132 0.41996 0.0
H3568 H 0.17042 0.29328 0.43961 0.0
H3569 H 0.14842 0.32992 0.45302 0.0
H3570 H 0.15847 0.34816 0.43353 0.0
H3571 H 0.12302 0.28834 0.45752 0.0
H3572 H 0.1907 0.34049 0.46278 0.0
H3573 H 0.22565 0.35891 0.4568 0.0
H3574 H 0.23019 0.30769 0.46026 0.0
H3575 H 0.19517 0.2889 0.46609 0.0
C3576 C 0.12385 0.26971 0.51662 0.0
C3577 C 0.13258 0.25924 0.52124 0.0
C3578 C 0.12783 0.27728 0.50456 0.0
C3579 C 0.14022 0.27417 0.49659 0.0
C3580 C 0.14898 0.26377 0.50115 0.0
C3581 C 0.14531 0.2565 0.5133 0.0
C3582 C 0.14447 0.28223 0.48368 0.0
C3583 C 0.16417 0.29279 0.47978 0.0
C3584 C 0.12941 0.28029 0.47539 0.0
C3585 C 0.10822 0.26785 0.47829 0.0
C3586 C 0.10063 0.24833 0.48149 0.0
C3587 C 0.08068 0.23669 0.48428 0.0
C3588 C 0.06813 0.24437 0.48381 0.0
C3589 C 0.0755 0.2637 0.48053 0.0
C3590 C 0.09544 0.27541 0.47774 0.0
C3591 C 0.17309 0.31536 0.42705 0.0
C3592 C 0.17023 0.33122 0.42526 0.0
C3593 C 0.16756 0.3051 0.43827 0.0
C3594 C 0.15878 0.31034 0.4478 0.0
C3595 C 0.15517 0.32565 0.4458 0.0
C3596 C 0.16101 0.3361 0.4347 0.0
C3597 C 0.15421 0.30055 0.46009 0.0
C3598 C 0.13452 0.28977 0.46383 0.0
C3599 C 0.1692 0.30192 0.46812 0.0
C3600 C 0.19028 0.31325 0.46473 0.0
C3601 C 0.19911 0.33312 0.46216 0.0
C3602 C 0.21894 0.34364 0.45882 0.0
C3603 C 0.23012 0.33447 0.45812 0.0
C3604 C 0.22151 0.31477 0.46079 0.0
C3605 C 0.20168 0.30419 0.46412 0.0
H3606 H 0.24547 0.34263 0.45553 0.0
H3607 H 0.05269 0.23534 0.48597 0.0
H3608 H 0.7303 0.84241 0.51832 0.0
H3609 H 0.71596 0.83791 0.49733 0.0
H3610 H 0.71289 0.89008 0.50211 0.0
H3611 H 0.72706 0.89458 0.52309 0.0
H3612 H 0.67826 0.85902 0.49262 0.0
H3613 H 0.74804 0.89134 0.48472 0.0
H3614 H 0.78134 0.89552 0.48593 0.0
H3615 H 0.76072 0.84089 0.46714 0.0
H3616 H 0.72721 0.83625 0.46598 0.0
H3617 H 0.65931 0.87556 0.43096 0.0
H3618 H 0.674 0.87866 0.45162 0.0
H3619 H 0.68226 0.83021 0.44319 0.0
H3620 H 0.66783 0.82725 0.42242 0.0
H3621 H 0.71378 0.85787 0.45467 0.0
H3622 H 0.64457 0.82518 0.46203 0.0
H3623 H 0.61081 0.81983 0.46092 0.0
H3624 H 0.62937 0.87317 0.48092 0.0
H3625 H 0.66332 0.87897 0.482 0.0
C3626 C 0.72649 0.85286 0.51489 0.0
C3627 C 0.72985 0.86888 0.5223 0.0
C3628 C 0.71843 0.85035 0.5029 0.0
C3629 C 0.7135 0.86375 0.49817 0.0
C3630 C 0.71665 0.87962 0.5056 0.0
C3631 C 0.72486 0.88223 0.51753 0.0
C3632 C 0.7049 0.86119 0.4855 0.0
C3633 C 0.68609 0.85898 0.4843 0.0
C3634 C 0.71493 0.86056 0.47472 0.0
C3635 C 0.73507 0.86335 0.47539 0.0
C3636 C 0.75057 0.88014 0.48095 0.0
C3637 C 0.76949 0.88261 0.4816 0.0
C3638 C 0.77313 0.86845 0.47665 0.0
C3639 C 0.75786 0.85182 0.47099 0.0
C3640 C 0.73891 0.84927 0.47032 0.0
C3641 C 0.66416 0.86551 0.43355 0.0
C3642 C 0.66229 0.85107 0.42514 0.0
C3643 C 0.67255 0.86729 0.44535 0.0
C3644 C 0.67892 0.85445 0.44903 0.0
C3645 C 0.67741 0.84024 0.44056 0.0
C3646 C 0.66918 0.83858 0.4287 0.0
C3647 C 0.68714 0.85587 0.46174 0.0
C3648 C 0.70588 0.85783 0.46297 0.0
C3649 C 0.67695 0.85607 0.47258 0.0
C3650 C 0.65653 0.85259 0.472 0.0
C3651 C 0.64148 0.83584 0.46611 0.0
C3652 C 0.62231 0.83272 0.4655 0.0
C3653 C 0.61796 0.84618 0.47082 0.0
C3654 C 0.63276 0.86277 0.47679 0.0
C3655 C 0.65197 0.86597 0.47742 0.0
H3656 H 0.6031 0.84373 0.47033 0.0
H3657 H 0.78779 0.87039 0.47716 0.0
H3658 H 0.10406 0.83828 0.51665 0.0
H3659 H 0.11243 0.83392 0.49538 0.0
H3660 H 0.17177 0.881 0.5012 0.0
H3661 H 0.16325 0.88614 0.52219 0.0
H3662 H 0.15984 0.88357 0.47892 0.0
H3663 H 0.159 0.83211 0.50254 0.0
H3664 H 0.14465 0.8037 0.51628 0.0
H3665 H 0.09842 0.77185 0.48948 0.0
H3666 H 0.11237 0.80019 0.47565 0.0
H3667 H 0.21115 0.86261 0.43252 0.0
H3668 H 0.19822 0.86689 0.45232 0.0
H3669 H 0.13921 0.82567 0.44016 0.0
H3670 H 0.1521 0.82135 0.42026 0.0
H3671 H 0.14844 0.81938 0.46469 0.0
H3672 H 0.1515 0.87087 0.44038 0.0
H3673 H 0.16713 0.89931 0.42671 0.0
H3674 H 0.21064 0.93121 0.45502 0.0
H3675 H 0.19544 0.90285 0.4688 0.0
C3676 C 0.11883 0.84789 0.51337 0.0
C3677 C 0.133 0.86248 0.52123 0.0
C3678 C 0.12366 0.84523 0.50122 0.0
C3679 C 0.14285 0.85692 0.49671 0.0
C3680 C 0.1569 0.87171 0.50445 0.0
C3681 C 0.15205 0.87448 0.51654 0.0
C3682 C 0.14843 0.85375 0.48399 0.0
C3683 C 0.15751 0.86956 0.47588 0.0
C3684 C 0.14499 0.83538 0.47984 0.0
C3685 C 0.1366 0.81833 0.48813 0.0
C3686 C 0.14569 0.8191 0.49962 0.0
C3687 C 0.13764 0.803 0.50742 0.0
C3688 C 0.1206 0.786 0.50377 0.0
C3689 C 0.1116 0.78505 0.4923 0.0
C3690 C 0.11957 0.80111 0.48448 0.0
C3691 C 0.19543 0.85443 0.43407 0.0
C3692 C 0.18263 0.84163 0.42485 0.0
C3693 C 0.18805 0.85697 0.44535 0.0
C3694 C 0.16775 0.84667 0.44768 0.0
C3695 C 0.15492 0.83378 0.43853 0.0
C3696 C 0.16228 0.83141 0.42716 0.0
C3697 C 0.16006 0.84923 0.45977 0.0
C3698 C 0.15061 0.83333 0.46773 0.0
C3699 C 0.1633 0.86753 0.46382 0.0
C3700 C 0.17243 0.88466 0.45559 0.0
C3701 C 0.1645 0.88389 0.44366 0.0
C3702 C 0.17326 0.90001 0.43589 0.0
C3703 C 0.18989 0.91704 0.43998 0.0
C3704 C 0.19777 0.918 0.45186 0.0
C3705 C 0.18907 0.90191 0.45966 0.0
H3706 H 0.19666 0.92951 0.43396 0.0
H3707 H 0.11439 0.77355 0.50982 0.0
H3708 H 0.61513 0.777 0.16207 0.0
H3709 H 0.6282 0.78175 0.18327 0.0
H3710 H 0.61512 0.82769 0.18922 0.0
H3711 H 0.60294 0.8237 0.16774 0.0
H3712 H 0.65037 0.83821 0.19796 0.0
H3713 H 0.58685 0.78242 0.20231 0.0
H3714 H 0.55922 0.7498 0.19731 0.0
H3715 H 0.59596 0.7253 0.20487 0.0
H3716 H 0.6239 0.75782 0.20975 0.0
H3717 H 0.66809 0.84234 0.26366 0.0
H3718 H 0.65146 0.8376 0.24347 0.0
H3719 H 0.66822 0.79561 0.23284 0.0
H3720 H 0.68459 0.80003 0.25307 0.0
H3721 H 0.62925 0.78354 0.22723 0.0
H3722 H 0.6932 0.84037 0.22177 0.0
H3723 H 0.72019 0.8732 0.22707 0.0
H3724 H 0.68122 0.89585 0.22207 0.0
H3725 H 0.65391 0.86309 0.2169 0.0
C3726 C 0.61518 0.78824 0.16783 0.0
C3727 C 0.60802 0.80001 0.16316 0.0
C3728 C 0.62241 0.79077 0.18003 0.0
C3729 C 0.62237 0.80489 0.18791 0.0
C3730 C 0.6152 0.81663 0.18332 0.0
C3731 C 0.60808 0.81421 0.17107 0.0
C3732 C 0.63044 0.80778 0.2008 0.0
C3733 C 0.64549 0.82631 0.20444 0.0
C3734 C 0.6243 0.7922 0.2092 0.0
C3735 C 0.60752 0.7726 0.2063 0.0
C3736 C 0.58908 0.7701 0.20282 0.0
C3737 C 0.57336 0.75162 0.20002 0.0
C3738 C 0.57585 0.7355 0.20075 0.0
C3739 C 0.59406 0.73781 0.2043 0.0
C3740 C 0.60984 0.75626 0.2071 0.0
C3741 C 0.6681 0.832 0.25705 0.0
C3742 C 0.67771 0.8216 0.25992 0.0
C3743 C 0.65872 0.8294 0.2455 0.0
C3744 C 0.65876 0.81637 0.23664 0.0
C3745 C 0.66807 0.80576 0.23955 0.0
C3746 C 0.67755 0.80842 0.25106 0.0
C3747 C 0.64926 0.81387 0.22427 0.0
C3748 C 0.63396 0.79542 0.22076 0.0
C3749 C 0.65504 0.82954 0.21604 0.0
C3750 C 0.67147 0.84925 0.21908 0.0
C3751 C 0.69035 0.85233 0.2219 0.0
C3752 C 0.70571 0.87093 0.22486 0.0
C3753 C 0.70241 0.88659 0.22494 0.0
C3754 C 0.68375 0.8837 0.22202 0.0
C3755 C 0.66833 0.86512 0.21907 0.0
H3756 H 0.71433 0.90098 0.22723 0.0
H3757 H 0.56365 0.7212 0.19857 0.0
H3758 H 0.23767 0.82945 0.16605 0.0
H3759 H 0.22797 0.83503 0.18675 0.0
H3760 H 0.1706 0.78446 0.18171 0.0
H3761 H 0.18019 0.7788 0.16108 0.0
H3762 H 0.16968 0.81753 0.19032 0.0
H3763 H 0.20239 0.78138 0.19989 0.0
H3764 H 0.23024 0.77527 0.19963 0.0
H3765 H 0.2667 0.82943 0.21863 0.0
H3766 H 0.23913 0.836 0.21885 0.0
H3767 H 0.12921 0.80204 0.25023 0.0
H3768 H 0.14197 0.79859 0.23019 0.0
H3769 H 0.20042 0.84306 0.24127 0.0
H3770 H 0.18767 0.84612 0.26153 0.0
H3771 H 0.20271 0.8156 0.22942 0.0
H3772 H 0.17121 0.8521 0.22077 0.0
H3773 H 0.1445 0.85988 0.22088 0.0
H3774 H 0.10743 0.80796 0.19984 0.0
H3775 H 0.13383 0.79972 0.19975 0.0
C3776 C 0.22299 0.81956 0.16937 0.0
C3777 C 0.20971 0.80364 0.16198 0.0
C3778 C 0.21751 0.82271 0.1812 0.0
C3779 C 0.1986 0.8101 0.18578 0.0
C3780 C 0.18527 0.79433 0.17836 0.0
C3781 C 0.19081 0.79105 0.16662 0.0
C3782 C 0.19252 0.81338 0.19823 0.0
C3783 C 0.17675 0.81692 0.19889 0.0
C3784 C 0.20222 0.81325 0.20935 0.0
C3785 C 0.21877 0.80928 0.20926 0.0
C3786 C 0.2164 0.79207 0.20391 0.0
C3787 C 0.23212 0.78851 0.20379 0.0
C3788 C 0.25025 0.80198 0.20907 0.0
C3789 C 0.25267 0.81903 0.21452 0.0
C3790 C 0.237 0.82267 0.21465 0.0
C3791 C 0.14478 0.8111 0.24837 0.0
C3792 C 0.15745 0.82447 0.25738 0.0
C3793 C 0.15206 0.80917 0.2369 0.0
C3794 C 0.17211 0.82088 0.23407 0.0
C3795 C 0.18489 0.83392 0.24319 0.0
C3796 C 0.17763 0.83567 0.25476 0.0
C3797 C 0.17959 0.81947 0.22157 0.0
C3798 C 0.19566 0.81634 0.22088 0.0
C3799 C 0.17035 0.82027 0.21038 0.0
C3800 C 0.15445 0.82521 0.21035 0.0
C3801 C 0.15732 0.84227 0.21624 0.0
C3802 C 0.14224 0.84677 0.21629 0.0
C3803 C 0.12427 0.8344 0.21039 0.0
C3804 C 0.12135 0.81752 0.20441 0.0
C3805 C 0.13638 0.81294 0.20435 0.0
H3806 H 0.11261 0.83791 0.21044 0.0
H3807 H 0.2624 0.79919 0.20897 0.0
H3808 H 0.23331 0.40675 0.16247 0.0
H3809 H 0.22593 0.39312 0.18348 0.0
H3810 H 0.175 0.40022 0.18479 0.0
H3811 H 0.18236 0.41398 0.16379 0.0
H3812 H 0.1972 0.41151 0.20726 0.0
H3813 H 0.16839 0.35696 0.17872 0.0
H3814 H 0.16866 0.33705 0.16106 0.0
H3815 H 0.21283 0.32948 0.17971 0.0
H3816 H 0.21301 0.34957 0.19741 0.0
H3817 H 0.14762 0.34875 0.25824 0.0
H3818 H 0.15787 0.36676 0.23864 0.0
H3819 H 0.20175 0.34972 0.23383 0.0
H3820 H 0.19093 0.33122 0.2532 0.0
H3821 H 0.18363 0.34432 0.21312 0.0
H3822 H 0.21369 0.3985 0.24135 0.0
H3823 H 0.21549 0.41941 0.25899 0.0
H3824 H 0.17141 0.4284 0.24156 0.0
H3825 H 0.16936 0.40754 0.22379 0.0
C3826 C 0.22064 0.40558 0.16727 0.0
C3827 C 0.20838 0.41138 0.16141 0.0
C3828 C 0.21638 0.3977 0.17926 0.0
C3829 C 0.19983 0.39553 0.1857 0.0
C3830 C 0.18783 0.40174 0.18001 0.0
C3831 C 0.19197 0.40945 0.16797 0.0
C3832 C 0.19469 0.38618 0.19818 0.0
C3833 C 0.19402 0.39674 0.20854 0.0
C3834 C 0.19103 0.3671 0.19993 0.0
C3835 C 0.19085 0.35493 0.18933 0.0
C3836 C 0.17827 0.35117 0.17901 0.0
C3837 C 0.17832 0.33984 0.169 0.0
C3838 C 0.19079 0.33205 0.16925 0.0
C3839 C 0.2032 0.33554 0.17952 0.0
C3840 C 0.20322 0.34689 0.18955 0.0
C3841 C 0.15963 0.34915 0.25304 0.0
C3842 C 0.1686 0.33876 0.25719 0.0
C3843 C 0.16557 0.3595 0.24187 0.0
C3844 C 0.18078 0.35984 0.23472 0.0
C3845 C 0.18998 0.34972 0.23909 0.0
C3846 C 0.18388 0.33921 0.25017 0.0
C3847 C 0.18628 0.36965 0.22235 0.0
C3848 C 0.18692 0.35913 0.21194 0.0
C3849 C 0.19016 0.38886 0.22062 0.0
C3850 C 0.19129 0.40136 0.23129 0.0
C3851 C 0.20433 0.40488 0.2413 0.0
C3852 C 0.20546 0.41679 0.25129 0.0
C3853 C 0.19359 0.42526 0.25138 0.0
C3854 C 0.18062 0.42187 0.24146 0.0
C3855 C 0.17952 0.41006 0.23141 0.0
H3856 H 0.19438 0.43436 0.25917 0.0
H3857 H 0.19081 0.32327 0.16149 0.0
H3858 H 0.82881 0.5953 0.85367 0.0
H3859 H 0.837 0.60966 0.83289 0.0
H3860 H 0.77829 0.60058 0.82875 0.0
H3861 H 0.76996 0.58613 0.84958 0.0
H3862 H 0.79254 0.59064 0.80692 0.0
H3863 H 0.81287 0.64385 0.83591 0.0
H3864 H 0.8302 0.66359 0.8545 0.0
H3865 H 0.88551 0.67463 0.8395 0.0
H3866 H 0.86847 0.65471 0.82089 0.0
H3867 H 0.81424 0.6531 0.75432 0.0
H3868 H 0.80272 0.63566 0.77402 0.0
H3869 H 0.86274 0.65405 0.78458 0.0
H3870 H 0.87426 0.67206 0.76521 0.0
H3871 H 0.84612 0.6589 0.80336 0.0
H3872 H 0.82676 0.60606 0.77438 0.0
H3873 H 0.80997 0.58558 0.75593 0.0
H3874 H 0.75396 0.57289 0.77064 0.0
H3875 H 0.77043 0.5936 0.78905 0.0
C3876 C 0.81756 0.59617 0.84829 0.0
C3877 C 0.79874 0.5896 0.8533 0.0
C3878 C 0.8223 0.60447 0.83644 0.0
C3879 C 0.80829 0.60629 0.82928 0.0
C3880 C 0.78933 0.59932 0.83411 0.0
C3881 C 0.78464 0.5912 0.84604 0.0
C3882 C 0.81375 0.61612 0.81698 0.0
C3883 C 0.80409 0.60564 0.80611 0.0
C3884 C 0.82908 0.63555 0.81592 0.0
C3885 C 0.83937 0.64764 0.82706 0.0
C3886 C 0.82871 0.65036 0.83662 0.0
C3887 C 0.83849 0.6616 0.84715 0.0
C3888 C 0.85894 0.67032 0.84819 0.0
C3889 C 0.86967 0.66785 0.83868 0.0
C3890 C 0.85996 0.6566 0.82814 0.0
C3891 C 0.82493 0.65327 0.76082 0.0
C3892 C 0.84517 0.66408 0.75825 0.0
C3893 C 0.81833 0.64322 0.77208 0.0
C3894 C 0.83181 0.64335 0.78085 0.0
C3895 C 0.85199 0.65378 0.77809 0.0
C3896 C 0.85858 0.66409 0.76699 0.0
C3897 C 0.82519 0.63337 0.79312 0.0
C3898 C 0.83459 0.64388 0.80405 0.0
C3899 C 0.80975 0.61389 0.79419 0.0
C3900 C 0.79986 0.60151 0.78306 0.0
C3901 C 0.81088 0.59903 0.77364 0.0
C3902 C 0.80141 0.58736 0.76319 0.0
C3903 C 0.78091 0.57791 0.76214 0.0
C3904 C 0.76984 0.5802 0.77148 0.0
C3905 C 0.77923 0.59191 0.78192 0.0
H3906 H 0.77357 0.56875 0.75411 0.0
H3907 H 0.86648 0.67902 0.85635 0.0
H3908 H 0.38633 0.16682 0.85422 0.0
H3909 H 0.37136 0.1604 0.83353 0.0
H3910 H 0.39465 0.22163 0.82831 0.0
H3911 H 0.40819 0.22806 0.84941 0.0
H3912 H 0.35978 0.20416 0.81997 0.0
H3913 H 0.41452 0.19481 0.81383 0.0
H3914 H 0.43665 0.18179 0.81776 0.0
H3915 H 0.38912 0.12409 0.81049 0.0
H3916 H 0.36663 0.13674 0.80668 0.0
H3917 H 0.34427 0.19489 0.75352 0.0
H3918 H 0.36139 0.20239 0.77378 0.0
H3919 H 0.32334 0.14346 0.78529 0.0
H3920 H 0.30597 0.136 0.76512 0.0
H3921 H 0.36676 0.16064 0.78965 0.0
H3922 H 0.31235 0.17246 0.79643 0.0
H3923 H 0.29253 0.18765 0.79129 0.0
H3924 H 0.34356 0.24407 0.79593 0.0
H3925 H 0.36374 0.22918 0.80093 0.0
C3926 C 0.38807 0.17895 0.84877 0.0
C3927 C 0.39853 0.19799 0.85357 0.0
C3928 C 0.37976 0.17526 0.83681 0.0
C3929 C 0.38217 0.19055 0.82922 0.0
C3930 C 0.39265 0.20957 0.83394 0.0
C3931 C 0.40063 0.21325 0.84599 0.0
C3932 C 0.37321 0.18667 0.81653 0.0
C3933 C 0.36162 0.19488 0.81331 0.0
C3934 C 0.37537 0.1744 0.8078 0.0
C3935 C 0.38884 0.16672 0.81009 0.0
C3936 C 0.40875 0.17933 0.81316 0.0
C3937 C 0.42137 0.17202 0.81536 0.0
C3938 C 0.41429 0.15212 0.81441 0.0
C3939 C 0.39458 0.1395 0.81124 0.0
C3940 C 0.38189 0.14674 0.80905 0.0
C3941 C 0.33965 0.18358 0.76038 0.0
C3942 C 0.3238 0.16493 0.75784 0.0
C3943 C 0.34938 0.18786 0.77191 0.0
C3944 C 0.34356 0.17345 0.78097 0.0
C3945 C 0.328 0.15472 0.77837 0.0
C3946 C 0.31804 0.15053 0.76693 0.0
C3947 C 0.35342 0.17805 0.79329 0.0
C3948 C 0.36512 0.16998 0.79638 0.0
C3949 C 0.35176 0.19078 0.80178 0.0
C3950 C 0.33958 0.19971 0.79892 0.0
C3951 C 0.31937 0.1881 0.79625 0.0
C3952 C 0.30807 0.19666 0.79339 0.0
C3953 C 0.31679 0.21681 0.79325 0.0
C3954 C 0.33683 0.22846 0.79602 0.0
C3955 C 0.3482 0.21997 0.79888 0.0
H3956 H 0.30802 0.22341 0.79103 0.0
H3957 H 0.42408 0.14649 0.81611 0.0
H3958 H 0.82797 0.21955 0.85658 0.0
H3959 H 0.83627 0.2144 0.83559 0.0
H3960 H 0.77639 0.1686 0.82946 0.0
H3961 H 0.76823 0.1728 0.85083 0.0
H3962 H 0.79994 0.15794 0.82014 0.0
H3963 H 0.79511 0.2148 0.81648 0.0
H3964 H 0.80135 0.24753 0.82183 0.0
H3965 H 0.86298 0.27107 0.81482 0.0
H3966 H 0.85716 0.23843 0.80959 0.0
H3967 H 0.81671 0.15638 0.75433 0.0
H3968 H 0.80369 0.16064 0.77416 0.0
H3969 H 0.86277 0.20044 0.78697 0.0
H3970 H 0.87582 0.19638 0.76718 0.0
H3971 H 0.83645 0.2135 0.79182 0.0
H3972 H 0.84016 0.15502 0.79684 0.0
H3973 H 0.83262 0.12204 0.79091 0.0
H3974 H 0.77079 0.10149 0.79451 0.0
H3975 H 0.77796 0.13442 0.8003 0.0
C3976 C 0.81657 0.20817 0.85088 0.0
C3977 C 0.79739 0.19658 0.85549 0.0
C3978 C 0.82129 0.20545 0.83875 0.0
C3979 C 0.80688 0.19136 0.8308 0.0
C3980 C 0.78775 0.17966 0.83537 0.0
C3981 C 0.78306 0.18222 0.84757 0.0
C3982 C 0.81197 0.18865 0.81783 0.0
C3983 C 0.8076 0.17007 0.81388 0.0
C3984 C 0.82214 0.20445 0.80964 0.0
C3985 C 0.82571 0.22413 0.81274 0.0
C3986 C 0.81002 0.22694 0.81616 0.0
C3987 C 0.81347 0.24548 0.81916 0.0
C3988 C 0.83255 0.26136 0.81869 0.0
C3989 C 0.84821 0.25875 0.81519 0.0
C3990 C 0.84484 0.24023 0.81219 0.0
C3991 C 0.82689 0.16615 0.76134 0.0
C3992 C 0.8473 0.17598 0.75923 0.0
C3993 C 0.81945 0.16848 0.77268 0.0
C3994 C 0.83229 0.18076 0.78207 0.0
C3995 C 0.85261 0.19088 0.77986 0.0
C3996 C 0.86006 0.18843 0.76859 0.0
C3997 C 0.8247 0.18293 0.7943 0.0
C3998 C 0.8286 0.20141 0.79807 0.0
C3999 C 0.81388 0.16702 0.80225 0.0
C4000 C 0.80958 0.14721 0.79887 0.0
C4001 C 0.82495 0.14349 0.79627 0.0
C4002 C 0.82075 0.12481 0.79296 0.0
C4003 C 0.80124 0.10969 0.7923 0.0
C4004 C 0.78589 0.11322 0.795 0.0
C4005 C 0.79002 0.13188 0.79831 0.0
H4006 H 0.79801 0.09524 0.78973 0.0
H4007 H 0.8352 0.27571 0.82102 0.0
H4008 H 0.26276 0.10765 0.50042 0.0
H4009 H 0.27817 0.11538 0.52124 0.0
H4010 H 0.29889 0.17597 0.51533 0.0
H4011 H 0.2832 0.16828 0.4946 0.0
H4012 H 0.32823 0.16557 0.52389 0.0
H4013 H 0.26396 0.15601 0.5337 0.0
H4014 H 0.22766 0.13786 0.53369 0.0
H4015 H 0.22808 0.09135 0.55332 0.0
H4016 H 0.2644 0.10911 0.55328 0.0
H4017 H 0.36546 0.20099 0.58436 0.0
H4018 H 0.34831 0.19391 0.56422 0.0
H4019 H 0.31299 0.13378 0.5743 0.0
H4020 H 0.32956 0.14109 0.59469 0.0
H4021 H 0.29068 0.14396 0.56333 0.0
H4022 H 0.35336 0.15119 0.55351 0.0
H4023 H 0.38958 0.16714 0.55315 0.0
H4024 H 0.39249 0.21488 0.5331 0.0
H4025 H 0.35627 0.19932 0.53349 0.0
C4026 C 0.27054 0.12259 0.50362 0.0
C4027 C 0.27181 0.13739 0.49597 0.0
C4028 C 0.27925 0.12696 0.51548 0.0
C4029 C 0.28959 0.14622 0.51977 0.0
C4030 C 0.29092 0.16103 0.51215 0.0
C4031 C 0.28191 0.15662 0.50038 0.0
C4032 C 0.29947 0.15092 0.53211 0.0
C4033 C 0.32009 0.16112 0.53255 0.0
C4034 C 0.28873 0.14447 0.54331 0.0
C4035 C 0.2669 0.1338 0.54336 0.0
C4036 C 0.25631 0.14183 0.5379 0.0
C4037 C 0.23573 0.13163 0.53794 0.0
C4038 C 0.22557 0.11344 0.54347 0.0
C4039 C 0.23597 0.10543 0.54902 0.0
C4040 C 0.25655 0.11556 0.549 0.0
C4041 C 0.35406 0.18627 0.58222 0.0
C4042 C 0.34887 0.17154 0.59099 0.0
C4043 C 0.34432 0.1822 0.57071 0.0
C4044 C 0.3296 0.16322 0.56761 0.0
C4045 C 0.3243 0.14853 0.57644 0.0
C4046 C 0.33378 0.15268 0.58806 0.0
C4047 C 0.31963 0.15871 0.55521 0.0
C4048 C 0.29895 0.14849 0.55472 0.0
C4049 C 0.33033 0.16481 0.54392 0.0
C4050 C 0.35211 0.17418 0.54364 0.0
C4051 C 0.36173 0.16515 0.5491 0.0
C4052 C 0.38226 0.17412 0.54888 0.0
C4053 C 0.39333 0.19204 0.54314 0.0
C4054 C 0.38389 0.20101 0.53756 0.0
C4055 C 0.36336 0.19212 0.53777 0.0
H4056 H 0.40922 0.19895 0.54298 0.0
H4057 H 0.20964 0.10558 0.54349 0.0
H4058 H 0.84972 0.10964 0.49703 0.0
H4059 H 0.84018 0.11529 0.51766 0.0
H4060 H 0.89626 0.16774 0.52178 0.0
H4061 H 0.906 0.16211 0.5011 0.0
H4062 H 0.88387 0.14431 0.54361 0.0
H4063 H 0.85888 0.1723 0.51436 0.0
H4064 H 0.84067 0.17251 0.49562 0.0
H4065 H 0.78726 0.12575 0.51029 0.0
H4066 H 0.80523 0.12507 0.52905 0.0
H4067 H 0.85459 0.18015 0.5959 0.0
H4068 H 0.86783 0.17611 0.57614 0.0
H4069 H 0.80993 0.13012 0.56536 0.0
H4070 H 0.79661 0.13467 0.58488 0.0
H4071 H 0.82516 0.15214 0.5467 0.0
H4072 H 0.84936 0.12294 0.5756 0.0
H4073 H 0.86709 0.12139 0.59421 0.0
H4074 H 0.9211 0.16847 0.58047 0.0
H4075 H 0.90364 0.17048 0.56184 0.0
C4076 C 0.86013 0.12227 0.50237 0.0
C4077 C 0.87861 0.13544 0.49742 0.0
C4078 C 0.85461 0.12553 0.51413 0.0
C4079 C 0.86747 0.14199 0.52121 0.0
C4080 C 0.88612 0.15496 0.51645 0.0
C4081 C 0.8916 0.15179 0.50462 0.0
C4082 C 0.86107 0.14588 0.5334 0.0
C4083 C 0.8712 0.1463 0.54432 0.0
C4084 C 0.8443 0.14806 0.5343 0.0
C4085 C 0.83344 0.14852 0.52306 0.0
C4086 C 0.84329 0.16196 0.51355 0.0
C4087 C 0.833 0.16218 0.50293 0.0
C4088 C 0.81283 0.14912 0.50175 0.0
C4089 C 0.80289 0.13584 0.51121 0.0
C4090 C 0.81312 0.13554 0.52184 0.0
C4091 C 0.84476 0.16912 0.58932 0.0
C4092 C 0.82457 0.15775 0.59189 0.0
C4093 C 0.85234 0.16674 0.57805 0.0
C4094 C 0.83996 0.15263 0.56926 0.0
C4095 C 0.81981 0.14115 0.57193 0.0
C4096 C 0.81219 0.14375 0.58308 0.0
C4097 C 0.84768 0.1502 0.55709 0.0
C4098 C 0.83784 0.15016 0.5461 0.0
C4099 C 0.86461 0.14817 0.55618 0.0
C4100 C 0.87514 0.147 0.56738 0.0
C4101 C 0.86499 0.13307 0.57659 0.0
C4102 C 0.875 0.13209 0.58713 0.0
C4103 C 0.8952 0.14487 0.58854 0.0
C4104 C 0.90545 0.15861 0.57938 0.0
C4105 C 0.8955 0.15967 0.56882 0.0
H4106 H 0.90291 0.14409 0.59671 0.0
H4107 H 0.8049 0.14932 0.49352 0.0
H4108 H 0.85067 0.7102 0.48855 0.0
H4109 H 0.84241 0.69671 0.50948 0.0
H4110 H 0.88736 0.75096 0.5252 0.0
H4111 H 0.89528 0.76494 0.50432 0.0
H4112 H 0.88696 0.71777 0.53544 0.0
H4113 H 0.84245 0.74138 0.5277 0.0
H4114 H 0.81767 0.74503 0.51568 0.0
H4115 H 0.77787 0.6837 0.51728 0.0
H4116 H 0.80254 0.67964 0.52915 0.0
H4117 H 0.85573 0.68919 0.5977 0.0
H4118 H 0.86559 0.7075 0.57842 0.0
H4119 H 0.81434 0.66192 0.55967 0.0
H4120 H 0.80342 0.64443 0.57914 0.0
H4121 H 0.81946 0.69363 0.55148 0.0
H4122 H 0.86413 0.66917 0.55774 0.0
H4123 H 0.8884 0.66482 0.56986 0.0
H4124 H 0.92751 0.72636 0.57078 0.0
H4125 H 0.90335 0.73109 0.55879 0.0
C4126 C 0.8587 0.71943 0.49642 0.0
C4127 C 0.87357 0.7388 0.49464 0.0
C4128 C 0.85402 0.71161 0.50841 0.0
C4129 C 0.86418 0.72285 0.51892 0.0
C4130 C 0.87937 0.74199 0.51721 0.0
C4131 C 0.88393 0.74993 0.50523 0.0
C4132 C 0.85855 0.71467 0.53168 0.0
C4133 C 0.87229 0.71271 0.53903 0.0
C4134 C 0.83932 0.70778 0.5363 0.0
C4135 C 0.82442 0.71019 0.52922 0.0
C4136 C 0.82848 0.72865 0.5254 0.0
C4137 C 0.81444 0.7308 0.51863 0.0
C4138 C 0.79623 0.7146 0.51569 0.0
C4139 C 0.792 0.69623 0.51955 0.0
C4140 C 0.80599 0.694 0.52631 0.0
C4141 C 0.84629 0.68316 0.58958 0.0
C4142 C 0.82882 0.66506 0.5901 0.0
C4143 C 0.85217 0.69357 0.57843 0.0
C4144 C 0.84104 0.68594 0.5674 0.0
C4145 C 0.82337 0.66815 0.56796 0.0
C4146 C 0.81726 0.65795 0.57914 0.0
C4147 C 0.8477 0.69623 0.55522 0.0
C4148 C 0.83417 0.69867 0.54795 0.0
C4149 C 0.86706 0.70336 0.55064 0.0
C4150 C 0.88187 0.70049 0.55747 0.0
C4151 C 0.87789 0.68177 0.56056 0.0
C4152 C 0.89161 0.67924 0.56741 0.0
C4153 C 0.90945 0.69531 0.57112 0.0
C4154 C 0.91367 0.71393 0.56791 0.0
C4155 C 0.89998 0.71655 0.56107 0.0
H4156 H 0.92003 0.69332 0.57647 0.0
H4157 H 0.78538 0.7163 0.51045 0.0
loop_
_geom_bond_atom_site_label_1
_geom_bond_atom_site_label_2
_geom_bond_distance
_geom_bond_site_symmetry_2
_ccdc_geom_bond_type
C0 C1 1.386 . S
C0 C2 1.397 . S
C0 H24 0.931 . S
C1 C0 1.386 . S
C1 C5 1.397 . S
C2 C0 1.397 . S
C2 C3 1.384 . S
C2 H25 0.930 . S
C3 C2 1.384 . S
C3 C4 1.377 . S
C3 C6 1.481 . S
C4 C3 1.377 . S
C4 C5 1.389 . S
C4 H26 0.929 . S
C5 C1 1.397 . S
C5 C4 1.389 . S
C5 H27 0.931 . S
C6 C3 1.481 . S
C6 C7 1.387 . S
C6 C11 1.390 . S
C7 C6 1.387 . S
C7 C8 1.401 . S
C7 H28 0.930 . S
C8 C7 1.401 . S
C8 C9 1.376 . S
C8 C17 1.511 . S
C9 C8 1.376 . S
C9 C10 1.392 . S
C9 H30 0.931 . S
C10 C9 1.392 . S
C10 C11 1.361 . S
C10 C12 1.500 . S
C11 C6 1.390 . S
C11 C10 1.361 . S
C11 H29 0.931 . S
C12 C10 1.500 . S
C12 C13 1.371 . S
C12 C14 1.365 . S
C13 C12 1.371 . S
C13 C23 1.386 . S
C13 H31 0.931 . S
C14 C12 1.365 . S
C14 C15 1.409 . S
C14 H32 0.929 . S
C15 C14 1.409 . S
C15 C16 1.380 . S
C15 H33 0.930 . S
C16 C15 1.380 . S
C16 C23 1.357 . S
C17 C8 1.511 . S
C17 C18 1.341 . S
C17 C19 1.371 . S
C18 C17 1.341 . S
C18 C22 1.394 . S
C18 H34 0.930 . S
C19 C17 1.371 . S
C19 C20 1.392 . S
C19 H35 0.931 . S
C20 C19 1.392 . S
C20 C21 1.331 . S
C20 H38 0.932 . S
C21 C20 1.331 . S
C21 C22 1.336 . S
C22 C18 1.394 . S
C22 C21 1.336 . S
C22 H37 0.929 . S
C23 C13 1.386 . S
C23 C16 1.357 . S
C23 H36 0.928 . S
H24 C0 0.931 . S
H25 C2 0.930 . S
H26 C4 0.929 . S
H27 C5 0.931 . S
H28 C7 0.930 . S
H29 C11 0.931 . S
H30 C9 0.931 . S
H31 C13 0.931 . S
H32 C14 0.929 . S
H33 C15 0.930 . S
H34 C18 0.930 . S
H35 C19 0.931 . S
H36 C23 0.928 . S
H37 C22 0.929 . S
H38 C20 0.932 . S
C39 C40 1.386 . S
C39 C41 1.397 . S
C39 H63 0.931 . S
C40 C39 1.386 . S
C40 C44 1.397 . S
C41 C39 1.397 . S
C41 C42 1.384 . S
C41 H64 0.930 . S
C42 C41 1.384 . S
C42 C43 1.377 . S
C42 C45 1.481 . S
C43 C42 1.377 . S
C43 C44 1.389 . S
C43 H65 0.929 . S
C44 C40 1.397 . S
C44 C43 1.389 . S
C44 H66 0.931 . S
C45 C42 1.481 . S
C45 C46 1.387 . S
C45 C50 1.390 . S
C46 C45 1.387 . S
C46 C47 1.401 . S
C46 H67 0.930 . S
C47 C46 1.401 . S
C47 C48 1.376 . S
C47 C56 1.511 . S
C48 C47 1.376 . S
C48 C49 1.392 . S
C48 H69 0.931 . S
C49 C48 1.392 . S
C49 C50 1.361 . S
C49 C51 1.500 . S
C50 C45 1.390 . S
C50 C49 1.361 . S
C50 H68 0.931 . S
C51 C49 1.500 . S
C51 C52 1.371 . S
C51 C53 1.365 . S
C52 C51 1.371 . S
C52 C62 1.386 . S
C52 H70 0.931 . S
C53 C51 1.365 . S
C53 C54 1.409 . S
C53 H71 0.929 . S
C54 C53 1.409 . S
C54 C55 1.380 . S
C54 H72 0.930 . S
C55 C54 1.380 . S
C55 C62 1.357 . S
C56 C47 1.511 . S
C56 C57 1.341 . S
C56 C58 1.371 . S
C57 C56 1.341 . S
C57 C61 1.394 . S
C57 H73 0.930 . S
C58 C56 1.371 . S
C58 C59 1.392 . S
C58 H74 0.931 . S
C59 C58 1.392 . S
C59 C60 1.331 . S
C59 H77 0.932 . S
C60 C59 1.331 . S
C60 C61 1.336 . S
C61 C57 1.394 . S
C61 C60 1.336 . S
C61 H76 0.929 . S
C62 C52 1.386 . S
C62 C55 1.357 . S
C62 H75 0.928 . S
H63 C39 0.931 . S
H64 C41 0.930 . S
H65 C43 0.929 . S
H66 C44 0.931 . S
H67 C46 0.930 . S
H68 C50 0.931 . S
H69 C48 0.931 . S
H70 C52 0.931 . S
H71 C53 0.929 . S
H72 C54 0.930 . S
H73 C57 0.930 . S
H74 C58 0.931 . S
H75 C62 0.928 . S
H76 C61 0.929 . S
H77 C59 0.932 . S
C78 C79 1.386 . S
C78 C80 1.397 . S
C78 H102 0.931 . S
C79 C78 1.386 . S
C79 C83 1.397 . S
C80 C78 1.397 . S
C80 C81 1.384 . S
C80 H103 0.930 . S
C81 C80 1.384 . S
C81 C82 1.377 . S
C81 C84 1.481 . S
C82 C81 1.377 . S
C82 C83 1.389 . S
C82 H104 0.929 . S
C83 C79 1.397 . S
C83 C82 1.389 . S
C83 H105 0.931 . S
C84 C81 1.481 . S
C84 C85 1.387 . S
C84 C89 1.390 . S
C85 C84 1.387 . S
C85 C86 1.401 . S
C85 H106 0.930 . S
C86 C85 1.401 . S
C86 C87 1.376 . S
C86 C95 1.511 . S
C87 C86 1.376 . S
C87 C88 1.392 . S
C87 H108 0.931 . S
C88 C87 1.392 . S
C88 C89 1.361 . S
C88 C90 1.500 . S
C89 C84 1.390 . S
C89 C88 1.361 . S
C89 H107 0.931 . S
C90 C88 1.500 . S
C90 C91 1.371 . S
C90 C92 1.365 . S
C91 C90 1.371 . S
C91 C101 1.386 . S
C91 H109 0.931 . S
C92 C90 1.365 . S
C92 C93 1.409 . S
C92 H110 0.929 . S
C93 C92 1.409 . S
C93 C94 1.380 . S
C93 H111 0.930 . S
C94 C93 1.380 . S
C94 C101 1.357 . S
C95 C86 1.511 . S
C95 C96 1.341 . S
C95 C97 1.371 . S
C96 C95 1.341 . S
C96 C100 1.394 . S
C96 H112 0.930 . S
C97 C95 1.371 . S
C97 C98 1.392 . S
C97 H113 0.931 . S
C98 C97 1.392 . S
C98 C99 1.331 . S
C98 H116 0.932 . S
C99 C98 1.331 . S
C99 C100 1.336 . S
C100 C96 1.394 . S
C100 C99 1.336 . S
C100 H115 0.929 . S
C101 C91 1.386 . S
C101 C94 1.357 . S
C101 H114 0.928 . S
H102 C78 0.931 . S
H103 C80 0.930 . S
H104 C82 0.929 . S
H105 C83 0.931 . S
H106 C85 0.930 . S
H107 C89 0.931 . S
H108 C87 0.931 . S
H109 C91 0.931 . S
H110 C92 0.929 . S
H111 C93 0.930 . S
H112 C96 0.930 . S
H113 C97 0.931 . S
H114 C101 0.928 . S
H115 C100 0.929 . S
H116 C98 0.932 . S
C117 C118 1.386 . S
C117 C119 1.397 . S
C117 H141 0.931 . S
C118 C117 1.386 . S
C118 C122 1.397 . S
C119 C117 1.397 . S
C119 C120 1.384 . S
C119 H142 0.930 . S
C120 C119 1.384 . S
C120 C121 1.377 . S
C120 C123 1.481 . S
C121 C120 1.377 . S
C121 C122 1.389 . S
C121 H143 0.929 . S
C122 C118 1.397 . S
C122 C121 1.389 . S
C122 H144 0.931 . S
C123 C120 1.481 . S
C123 C124 1.387 . S
C123 C128 1.390 . S
C124 C123 1.387 . S
C124 C125 1.401 . S
C124 H145 0.930 . S
C125 C124 1.401 . S
C125 C126 1.376 . S
C125 C134 1.511 . S
C126 C125 1.376 . S
C126 C127 1.392 . S
C126 H147 0.931 . S
C127 C126 1.392 . S
C127 C128 1.361 . S
C127 C129 1.500 . S
C128 C123 1.390 . S
C128 C127 1.361 . S
C128 H146 0.931 . S
C129 C127 1.500 . S
C129 C130 1.371 . S
C129 C131 1.365 . S
C130 C129 1.371 . S
C130 C140 1.386 . S
C130 H148 0.931 . S
C131 C129 1.365 . S
C131 C132 1.409 . S
C131 H149 0.929 . S
C132 C131 1.409 . S
C132 C133 1.380 . S
C132 H150 0.930 . S
C133 C132 1.380 . S
C133 C140 1.357 . S
C134 C125 1.511 . S
C134 C135 1.341 . S
C134 C136 1.371 . S
C135 C134 1.341 . S
C135 C139 1.394 . S
C135 H151 0.930 . S
C136 C134 1.371 . S
C136 C137 1.392 . S
C136 H152 0.931 . S
C137 C136 1.392 . S
C137 C138 1.331 . S
C137 H155 0.932 . S
C138 C137 1.331 . S
C138 C139 1.336 . S
C139 C135 1.394 . S
C139 C138 1.336 . S
C139 H154 0.929 . S
C140 C130 1.386 . S
C140 C133 1.357 . S
C140 H153 0.928 . S
H141 C117 0.931 . S
H142 C119 0.930 . S
H143 C121 0.929 . S
H144 C122 0.931 . S
H145 C124 0.930 . S
H146 C128 0.931 . S
H147 C126 0.931 . S
H148 C130 0.931 . S
H149 C131 0.929 . S
H150 C132 0.930 . S
H151 C135 0.930 . S
H152 C136 0.931 . S
H153 C140 0.928 . S
H154 C139 0.929 . S
H155 C137 0.932 . S
C156 C157 1.386 . S
C156 C158 1.397 . S
C156 H180 0.931 . S
C157 C156 1.386 . S
C157 C161 1.397 . S
C158 C156 1.397 . S
C158 C159 1.384 . S
C158 H181 0.930 . S
C159 C158 1.384 . S
C159 C160 1.377 . S
C159 C162 1.481 . S
C160 C159 1.377 . S
C160 C161 1.389 . S
C160 H182 0.929 . S
C161 C157 1.397 . S
C161 C160 1.389 . S
C161 H183 0.931 . S
C162 C159 1.481 . S
C162 C163 1.387 . S
C162 C167 1.390 . S
C163 C162 1.387 . S
C163 C164 1.401 . S
C163 H184 0.930 . S
C164 C163 1.401 . S
C164 C165 1.376 . S
C164 C173 1.511 . S
C165 C164 1.376 . S
C165 C166 1.392 . S
C165 H186 0.931 . S
C166 C165 1.392 . S
C166 C167 1.361 . S
C166 C168 1.500 . S
C167 C162 1.390 . S
C167 C166 1.361 . S
C167 H185 0.931 . S
C168 C166 1.500 . S
C168 C169 1.371 . S
C168 C170 1.365 . S
C169 C168 1.371 . S
C169 C179 1.386 . S
C169 H187 0.931 . S
C170 C168 1.365 . S
C170 C171 1.409 . S
C170 H188 0.929 . S
C171 C170 1.409 . S
C171 C172 1.380 . S
C171 H189 0.930 . S
C172 C171 1.380 . S
C172 C179 1.357 . S
C173 C164 1.511 . S
C173 C174 1.341 . S
C173 C175 1.371 . S
C174 C173 1.341 . S
C174 C178 1.394 . S
C174 H190 0.930 . S
C175 C173 1.371 . S
C175 C176 1.392 . S
C175 H191 0.931 . S
C176 C175 1.392 . S
C176 C177 1.331 . S
C176 H194 0.932 . S
C177 C176 1.331 . S
C177 C178 1.336 . S
C178 C174 1.394 . S
C178 C177 1.336 . S
C178 H193 0.929 . S
C179 C169 1.386 . S
C179 C172 1.357 . S
C179 H192 0.928 . S
H180 C156 0.931 . S
H181 C158 0.930 . S
H182 C160 0.929 . S
H183 C161 0.931 . S
H184 C163 0.930 . S
H185 C167 0.931 . S
H186 C165 0.931 . S
H187 C169 0.931 . S
H188 C170 0.929 . S
H189 C171 0.930 . S
H190 C174 0.930 . S
H191 C175 0.931 . S
H192 C179 0.928 . S
H193 C178 0.929 . S
H194 C176 0.932 . S
C195 C196 1.386 . S
C195 C197 1.397 . S
C195 H219 0.931 . S
C196 C195 1.386 . S
C196 C200 1.397 . S
C197 C195 1.397 . S
C197 C198 1.384 . S
C197 H220 0.930 . S
C198 C197 1.384 . S
C198 C199 1.377 . S
C198 C201 1.481 . S
C199 C198 1.377 . S
C199 C200 1.389 . S
C199 H221 0.929 . S
C200 C196 1.397 . S
C200 C199 1.389 . S
C200 H222 0.931 . S
C201 C198 1.481 . S
C201 C202 1.387 . S
C201 C206 1.390 . S
C202 C201 1.387 . S
C202 C203 1.401 . S
C202 H223 0.930 . S
C203 C202 1.401 . S
C203 C204 1.376 . S
C203 C212 1.511 . S
C204 C203 1.376 . S
C204 C205 1.392 . S
C204 H225 0.931 . S
C205 C204 1.392 . S
C205 C206 1.361 . S
C205 C207 1.500 . S
C206 C201 1.390 . S
C206 C205 1.361 . S
C206 H224 0.931 . S
C207 C205 1.500 . S
C207 C208 1.371 . S
C207 C209 1.365 . S
C208 C207 1.371 . S
C208 C218 1.386 . S
C208 H226 0.931 . S
C209 C207 1.365 . S
C209 C210 1.409 . S
C209 H227 0.929 . S
C210 C209 1.409 . S
C210 C211 1.380 . S
C210 H228 0.930 . S
C211 C210 1.380 . S
C211 C218 1.357 . S
C212 C203 1.511 . S
C212 C213 1.341 . S
C212 C214 1.371 . S
C213 C212 1.341 . S
C213 C217 1.394 . S
C213 H229 0.930 . S
C214 C212 1.371 . S
C214 C215 1.392 . S
C214 H230 0.931 . S
C215 C214 1.392 . S
C215 C216 1.331 . S
C215 H233 0.932 . S
C216 C215 1.331 . S
C216 C217 1.336 . S
C217 C213 1.394 . S
C217 C216 1.336 . S
C217 H232 0.929 . S
C218 C208 1.386 . S
C218 C211 1.357 . S
C218 H231 0.928 . S
H219 C195 0.931 . S
H220 C197 0.930 . S
H221 C199 0.929 . S
H222 C200 0.931 . S
H223 C202 0.930 . S
H224 C206 0.931 . S
H225 C204 0.931 . S
H226 C208 0.931 . S
H227 C209 0.929 . S
H228 C210 0.930 . S
H229 C213 0.930 . S
H230 C214 0.931 . S
H231 C218 0.928 . S
H232 C217 0.929 . S
H233 C215 0.932 . S
C234 C235 1.386 . S
C234 C236 1.397 . S
C234 H258 0.931 . S
C235 C234 1.386 . S
C235 C239 1.397 . S
C236 C234 1.397 . S
C236 C237 1.384 . S
C236 H259 0.930 . S
C237 C236 1.384 . S
C237 C238 1.377 . S
C237 C240 1.481 . S
C238 C237 1.377 . S
C238 C239 1.389 . S
C238 H260 0.929 . S
C239 C235 1.397 . S
C239 C238 1.389 . S
C239 H261 0.931 . S
C240 C237 1.481 . S
C240 C241 1.387 . S
C240 C245 1.390 . S
C241 C240 1.387 . S
C241 C242 1.401 . S
C241 H262 0.930 . S
C242 C241 1.401 . S
C242 C243 1.376 . S
C242 C251 1.511 . S
C243 C242 1.376 . S
C243 C244 1.392 . S
C243 H264 0.931 . S
C244 C243 1.392 . S
C244 C245 1.361 . S
C244 C246 1.500 . S
C245 C240 1.390 . S
C245 C244 1.361 . S
C245 H263 0.931 . S
C246 C244 1.500 . S
C246 C247 1.371 . S
C246 C248 1.365 . S
C247 C246 1.371 . S
C247 C257 1.386 . S
C247 H265 0.931 . S
C248 C246 1.365 . S
C248 C249 1.409 . S
C248 H266 0.929 . S
C249 C248 1.409 . S
C249 C250 1.380 . S
C249 H267 0.930 . S
C250 C249 1.380 . S
C250 C257 1.357 . S
C251 C242 1.511 . S
C251 C252 1.341 . S
C251 C253 1.371 . S
C252 C251 1.341 . S
C252 C256 1.394 . S
C252 H268 0.930 . S
C253 C251 1.371 . S
C253 C254 1.392 . S
C253 H269 0.931 . S
C254 C253 1.392 . S
C254 C255 1.331 . S
C254 H272 0.932 . S
C255 C254 1.331 . S
C255 C256 1.336 . S
C256 C252 1.394 . S
C256 C255 1.336 . S
C256 H271 0.929 . S
C257 C247 1.386 . S
C257 C250 1.357 . S
C257 H270 0.928 . S
H258 C234 0.931 . S
H259 C236 0.930 . S
H260 C238 0.929 . S
H261 C239 0.931 . S
H262 C241 0.930 . S
H263 C245 0.931 . S
H264 C243 0.931 . S
H265 C247 0.931 . S
H266 C248 0.929 . S
H267 C249 0.930 . S
H268 C252 0.930 . S
H269 C253 0.931 . S
H270 C257 0.928 . S
H271 C256 0.929 . S
H272 C254 0.932 . S
C273 C274 1.386 . S
C273 C275 1.397 . S
C273 H297 0.931 . S
C274 C273 1.386 . S
C274 C278 1.397 . S
C275 C273 1.397 . S
C275 C276 1.384 . S
C275 H298 0.930 . S
C276 C275 1.384 . S
C276 C277 1.377 . S
C276 C279 1.481 . S
C277 C276 1.377 . S
C277 C278 1.389 . S
C277 H299 0.929 . S
C278 C274 1.397 . S
C278 C277 1.389 . S
C278 H300 0.931 . S
C279 C276 1.481 . S
C279 C280 1.387 . S
C279 C284 1.390 . S
C280 C279 1.387 . S
C280 C281 1.401 . S
C280 H301 0.930 . S
C281 C280 1.401 . S
C281 C282 1.376 . S
C281 C290 1.511 . S
C282 C281 1.376 . S
C282 C283 1.392 . S
C282 H303 0.931 . S
C283 C282 1.392 . S
C283 C284 1.361 . S
C283 C285 1.500 . S
C284 C279 1.390 . S
C284 C283 1.361 . S
C284 H302 0.931 . S
C285 C283 1.500 . S
C285 C286 1.371 . S
C285 C287 1.365 . S
C286 C285 1.371 . S
C286 C296 1.386 . S
C286 H304 0.931 . S
C287 C285 1.365 . S
C287 C288 1.409 . S
C287 H305 0.929 . S
C288 C287 1.409 . S
C288 C289 1.380 . S
C288 H306 0.930 . S
C289 C288 1.380 . S
C289 C296 1.357 . S
C290 C281 1.511 . S
C290 C291 1.341 . S
C290 C292 1.371 . S
C291 C290 1.341 . S
C291 C295 1.394 . S
C291 H307 0.930 . S
C292 C290 1.371 . S
C292 C293 1.392 . S
C292 H308 0.931 . S
C293 C292 1.392 . S
C293 C294 1.331 . S
C293 H311 0.932 . S
C294 C293 1.331 . S
C294 C295 1.336 . S
C295 C291 1.394 . S
C295 C294 1.336 . S
C295 H310 0.929 . S
C296 C286 1.386 . S
C296 C289 1.357 . S
C296 H309 0.928 . S
H297 C273 0.931 . S
H298 C275 0.930 . S
H299 C277 0.929 . S
H300 C278 0.931 . S
H301 C280 0.930 . S
H302 C284 0.931 . S
H303 C282 0.931 . S
H304 C286 0.931 . S
H305 C287 0.929 . S
H306 C288 0.930 . S
H307 C291 0.930 . S
H308 C292 0.931 . S
H309 C296 0.928 . S
H310 C295 0.929 . S
H311 C293 0.932 . S
C312 C313 1.386 . S
C312 C314 1.397 . S
C312 H336 0.931 . S
C313 C312 1.386 . S
C313 C317 1.397 . S
C314 C312 1.397 . S
C314 C315 1.384 . S
C314 H337 0.930 . S
C315 C314 1.384 . S
C315 C316 1.377 . S
C315 C318 1.481 . S
C316 C315 1.377 . S
C316 C317 1.389 . S
C316 H338 0.929 . S
C317 C313 1.397 . S
C317 C316 1.389 . S
C317 H339 0.931 . S
C318 C315 1.481 . S
C318 C319 1.387 . S
C318 C323 1.390 . S
C319 C318 1.387 . S
C319 C320 1.401 . S
C319 H340 0.930 . S
C320 C319 1.401 . S
C320 C321 1.376 . S
C320 C329 1.511 . S
C321 C320 1.376 . S
C321 C322 1.392 . S
C321 H342 0.931 . S
C322 C321 1.392 . S
C322 C323 1.361 . S
C322 C324 1.500 . S
C323 C318 1.390 . S
C323 C322 1.361 . S
C323 H341 0.931 . S
C324 C322 1.500 . S
C324 C325 1.371 . S
C324 C326 1.365 . S
C325 C324 1.371 . S
C325 C335 1.386 . S
C325 H343 0.931 . S
C326 C324 1.365 . S
C326 C327 1.409 . S
C326 H344 0.929 . S
C327 C326 1.409 . S
C327 C328 1.380 . S
C327 H345 0.930 . S
C328 C327 1.380 . S
C328 C335 1.357 . S
C329 C320 1.511 . S
C329 C330 1.341 . S
C329 C331 1.371 . S
C330 C329 1.341 . S
C330 C334 1.394 . S
C330 H346 0.930 . S
C331 C329 1.371 . S
C331 C332 1.392 . S
C331 H347 0.931 . S
C332 C331 1.392 . S
C332 C333 1.331 . S
C332 H350 0.932 . S
C333 C332 1.331 . S
C333 C334 1.336 . S
C334 C330 1.394 . S
C334 C333 1.336 . S
C334 H349 0.929 . S
C335 C325 1.386 . S
C335 C328 1.357 . S
C335 H348 0.928 . S
H336 C312 0.931 . S
H337 C314 0.930 . S
H338 C316 0.929 . S
H339 C317 0.931 . S
H340 C319 0.930 . S
H341 C323 0.931 . S
H342 C321 0.931 . S
H343 C325 0.931 . S
H344 C326 0.929 . S
H345 C327 0.930 . S
H346 C330 0.930 . S
H347 C331 0.931 . S
H348 C335 0.928 . S
H349 C334 0.929 . S
H350 C332 0.932 . S
C351 C352 1.386 . S
C351 C353 1.397 . S
C351 H375 0.931 . S
C352 C351 1.386 . S
C352 C356 1.397 . S
C353 C351 1.397 . S
C353 C354 1.384 . S
C353 H376 0.930 . S
C354 C353 1.384 . S
C354 C355 1.377 . S
C354 C357 1.481 . S
C355 C354 1.377 . S
C355 C356 1.389 . S
C355 H377 0.929 . S
C356 C352 1.397 . S
C356 C355 1.389 . S
C356 H378 0.931 . S
C357 C354 1.481 . S
C357 C358 1.387 . S
C357 C362 1.390 . S
C358 C357 1.387 . S
C358 C359 1.401 . S
C358 H379 0.930 . S
C359 C358 1.401 . S
C359 C360 1.376 . S
C359 C368 1.511 . S
C360 C359 1.376 . S
C360 C361 1.392 . S
C360 H381 0.931 . S
C361 C360 1.392 . S
C361 C362 1.361 . S
C361 C363 1.500 . S
C362 C357 1.390 . S
C362 C361 1.361 . S
C362 H380 0.931 . S
C363 C361 1.500 . S
C363 C364 1.371 . S
C363 C365 1.365 . S
C364 C363 1.371 . S
C364 C374 1.386 . S
C364 H382 0.931 . S
C365 C363 1.365 . S
C365 C366 1.409 . S
C365 H383 0.929 . S
C366 C365 1.409 . S
C366 C367 1.380 . S
C366 H384 0.930 . S
C367 C366 1.380 . S
C367 C374 1.357 . S
C368 C359 1.511 . S
C368 C369 1.341 . S
C368 C370 1.371 . S
C369 C368 1.341 . S
C369 C373 1.394 . S
C369 H385 0.930 . S
C370 C368 1.371 . S
C370 C371 1.392 . S
C370 H386 0.931 . S
C371 C370 1.392 . S
C371 C372 1.331 . S
C371 H389 0.932 . S
C372 C371 1.331 . S
C372 C373 1.336 . S
C373 C369 1.394 . S
C373 C372 1.336 . S
C373 H388 0.929 . S
C374 C364 1.386 . S
C374 C367 1.357 . S
C374 H387 0.928 . S
H375 C351 0.931 . S
H376 C353 0.930 . S
H377 C355 0.929 . S
H378 C356 0.931 . S
H379 C358 0.930 . S
H380 C362 0.931 . S
H381 C360 0.931 . S
H382 C364 0.931 . S
H383 C365 0.929 . S
H384 C366 0.930 . S
H385 C369 0.930 . S
H386 C370 0.931 . S
H387 C374 0.928 . S
H388 C373 0.929 . S
H389 C371 0.932 . S
C390 C391 1.386 . S
C390 C392 1.397 . S
C390 H414 0.931 . S
C391 C390 1.386 . S
C391 C395 1.397 . S
C392 C390 1.397 . S
C392 C393 1.384 . S
C392 H415 0.930 . S
C393 C392 1.384 . S
C393 C394 1.377 . S
C393 C396 1.481 . S
C394 C393 1.377 . S
C394 C395 1.389 . S
C394 H416 0.929 . S
C395 C391 1.397 . S
C395 C394 1.389 . S
C395 H417 0.931 . S
C396 C393 1.481 . S
C396 C397 1.387 . S
C396 C401 1.390 . S
C397 C396 1.387 . S
C397 C398 1.401 . S
C397 H418 0.930 . S
C398 C397 1.401 . S
C398 C399 1.376 . S
C398 C407 1.511 . S
C399 C398 1.376 . S
C399 C400 1.392 . S
C399 H420 0.931 . S
C400 C399 1.392 . S
C400 C401 1.361 . S
C400 C402 1.500 . S
C401 C396 1.390 . S
C401 C400 1.361 . S
C401 H419 0.931 . S
C402 C400 1.500 . S
C402 C403 1.371 . S
C402 C404 1.365 . S
C403 C402 1.371 . S
C403 C413 1.386 . S
C403 H421 0.931 . S
C404 C402 1.365 . S
C404 C405 1.409 . S
C404 H422 0.929 . S
C405 C404 1.409 . S
C405 C406 1.380 . S
C405 H423 0.930 . S
C406 C405 1.380 . S
C406 C413 1.357 . S
C407 C398 1.511 . S
C407 C408 1.341 . S
C407 C409 1.371 . S
C408 C407 1.341 . S
C408 C412 1.394 . S
C408 H424 0.930 . S
C409 C407 1.371 . S
C409 C410 1.392 . S
C409 H425 0.931 . S
C410 C409 1.392 . S
C410 C411 1.331 . S
C410 H428 0.932 . S
C411 C410 1.331 . S
C411 C412 1.336 . S
C412 C408 1.394 . S
C412 C411 1.336 . S
C412 H427 0.929 . S
C413 C403 1.386 . S
C413 C406 1.357 . S
C413 H426 0.928 . S
H414 C390 0.931 . S
H415 C392 0.930 . S
H416 C394 0.929 . S
H417 C395 0.931 . S
H418 C397 0.930 . S
H419 C401 0.931 . S
H420 C399 0.931 . S
H421 C403 0.931 . S
H422 C404 0.929 . S
H423 C405 0.930 . S
H424 C408 0.930 . S
H425 C409 0.931 . S
H426 C413 0.928 . S
H427 C412 0.929 . S
H428 C410 0.932 . S
C429 C430 1.386 . S
C429 C431 1.397 . S
C429 H453 0.931 . S
C430 C429 1.386 . S
C430 C434 1.397 . S
C431 C429 1.397 . S
C431 C432 1.384 . S
C431 H454 0.930 . S
C432 C431 1.384 . S
C432 C433 1.377 . S
C432 C435 1.481 . S
C433 C432 1.377 . S
C433 C434 1.389 . S
C433 H455 0.929 . S
C434 C430 1.397 . S
C434 C433 1.389 . S
C434 H456 0.931 . S
C435 C432 1.481 . S
C435 C436 1.387 . S
C435 C440 1.390 . S
C436 C435 1.387 . S
C436 C437 1.401 . S
C436 H457 0.930 . S
C437 C436 1.401 . S
C437 C438 1.376 . S
C437 C446 1.511 . S
C438 C437 1.376 . S
C438 C439 1.392 . S
C438 H459 0.931 . S
C439 C438 1.392 . S
C439 C440 1.361 . S
C439 C441 1.500 . S
C440 C435 1.390 . S
C440 C439 1.361 . S
C440 H458 0.931 . S
C441 C439 1.500 . S
C441 C442 1.371 . S
C441 C443 1.365 . S
C442 C441 1.371 . S
C442 C452 1.386 . S
C442 H460 0.931 . S
C443 C441 1.365 . S
C443 C444 1.409 . S
C443 H461 0.929 . S
C444 C443 1.409 . S
C444 C445 1.380 . S
C444 H462 0.930 . S
C445 C444 1.380 . S
C445 C452 1.357 . S
C446 C437 1.511 . S
C446 C447 1.341 . S
C446 C448 1.371 . S
C447 C446 1.341 . S
C447 C451 1.394 . S
C447 H463 0.930 . S
C448 C446 1.371 . S
C448 C449 1.392 . S
C448 H464 0.931 . S
C449 C448 1.392 . S
C449 C450 1.331 . S
C449 H467 0.932 . S
C450 C449 1.331 . S
C450 C451 1.336 . S
C451 C447 1.394 . S
C451 C450 1.336 . S
C451 H466 0.929 . S
C452 C442 1.386 . S
C452 C445 1.357 . S
C452 H465 0.928 . S
H453 C429 0.931 . S
H454 C431 0.930 . S
H455 C433 0.929 . S
H456 C434 0.931 . S
H457 C436 0.930 . S
H458 C440 0.931 . S
H459 C438 0.931 . S
H460 C442 0.931 . S
H461 C443 0.929 . S
H462 C444 0.930 . S
H463 C447 0.930 . S
H464 C448 0.931 . S
H465 C452 0.928 . S
H466 C451 0.929 . S
H467 C449 0.932 . S
C468 C469 1.386 . S
C468 C470 1.397 . S
C468 H492 0.931 . S
C469 C468 1.386 . S
C469 C473 1.397 . S
C470 C468 1.397 . S
C470 C471 1.384 . S
C470 H493 0.930 . S
C471 C470 1.384 . S
C471 C472 1.377 . S
C471 C474 1.481 . S
C472 C471 1.377 . S
C472 C473 1.389 . S
C472 H494 0.929 . S
C473 C469 1.397 . S
C473 C472 1.389 . S
C473 H495 0.931 . S
C474 C471 1.481 . S
C474 C475 1.387 . S
C474 C479 1.390 . S
C475 C474 1.387 . S
C475 C476 1.401 . S
C475 H496 0.930 . S
C476 C475 1.401 . S
C476 C477 1.376 . S
C476 C485 1.511 . S
C477 C476 1.376 . S
C477 C478 1.392 . S
C477 H498 0.931 . S
C478 C477 1.392 . S
C478 C479 1.361 . S
C478 C480 1.500 . S
C479 C474 1.390 . S
C479 C478 1.361 . S
C479 H497 0.931 . S
C480 C478 1.500 . S
C480 C481 1.371 . S
C480 C482 1.365 . S
C481 C480 1.371 . S
C481 C491 1.386 . S
C481 H499 0.931 . S
C482 C480 1.365 . S
C482 C483 1.409 . S
C482 H500 0.929 . S
C483 C482 1.409 . S
C483 C484 1.380 . S
C483 H501 0.930 . S
C484 C483 1.380 . S
C484 C491 1.357 . S
C485 C476 1.511 . S
C485 C486 1.341 . S
C485 C487 1.371 . S
C486 C485 1.341 . S
C486 C490 1.394 . S
C486 H502 0.930 . S
C487 C485 1.371 . S
C487 C488 1.392 . S
C487 H503 0.931 . S
C488 C487 1.392 . S
C488 C489 1.331 . S
C488 H506 0.932 . S
C489 C488 1.331 . S
C489 C490 1.336 . S
C490 C486 1.394 . S
C490 C489 1.336 . S
C490 H505 0.929 . S
C491 C481 1.386 . S
C491 C484 1.357 . S
C491 H504 0.928 . S
H492 C468 0.931 . S
H493 C470 0.930 . S
H494 C472 0.929 . S
H495 C473 0.931 . S
H496 C475 0.930 . S
H497 C479 0.931 . S
H498 C477 0.931 . S
H499 C481 0.931 . S
H500 C482 0.929 . S
H501 C483 0.930 . S
H502 C486 0.930 . S
H503 C487 0.931 . S
H504 C491 0.928 . S
H505 C490 0.929 . S
H506 C488 0.932 . S
C507 C508 1.386 . S
C507 C509 1.397 . S
C507 H531 0.931 . S
C508 C507 1.386 . S
C508 C512 1.397 . S
C509 C507 1.397 . S
C509 C510 1.384 . S
C509 H532 0.930 . S
C510 C509 1.384 . S
C510 C511 1.377 . S
C510 C513 1.481 . S
C511 C510 1.377 . S
C511 C512 1.389 . S
C511 H533 0.929 . S
C512 C508 1.397 . S
C512 C511 1.389 . S
C512 H534 0.931 . S
C513 C510 1.481 . S
C513 C514 1.387 . S
C513 C518 1.390 . S
C514 C513 1.387 . S
C514 C515 1.401 . S
C514 H535 0.930 . S
C515 C514 1.401 . S
C515 C516 1.376 . S
C515 C524 1.511 . S
C516 C515 1.376 . S
C516 C517 1.392 . S
C516 H537 0.931 . S
C517 C516 1.392 . S
C517 C518 1.361 . S
C517 C519 1.500 . S
C518 C513 1.390 . S
C518 C517 1.361 . S
C518 H536 0.931 . S
C519 C517 1.500 . S
C519 C520 1.371 . S
C519 C521 1.365 . S
C520 C519 1.371 . S
C520 C530 1.386 . S
C520 H538 0.931 . S
C521 C519 1.365 . S
C521 C522 1.409 . S
C521 H539 0.929 . S
C522 C521 1.409 . S
C522 C523 1.380 . S
C522 H540 0.930 . S
C523 C522 1.380 . S
C523 C530 1.357 . S
C524 C515 1.511 . S
C524 C525 1.341 . S
C524 C526 1.371 . S
C525 C524 1.341 . S
C525 C529 1.394 . S
C525 H541 0.930 . S
C526 C524 1.371 . S
C526 C527 1.392 . S
C526 H542 0.931 . S
C527 C526 1.392 . S
C527 C528 1.331 . S
C527 H545 0.932 . S
C528 C527 1.331 . S
C528 C529 1.336 . S
C529 C525 1.394 . S
C529 C528 1.336 . S
C529 H544 0.929 . S
C530 C520 1.386 . S
C530 C523 1.357 . S
C530 H543 0.928 . S
H531 C507 0.931 . S
H532 C509 0.930 . S
H533 C511 0.929 . S
H534 C512 0.931 . S
H535 C514 0.930 . S
H536 C518 0.931 . S
H537 C516 0.931 . S
H538 C520 0.931 . S
H539 C521 0.929 . S
H540 C522 0.930 . S
H541 C525 0.930 . S
H542 C526 0.931 . S
H543 C530 0.928 . S
H544 C529 0.929 . S
H545 C527 0.932 . S
C546 C547 1.386 . S
C546 C548 1.397 . S
C546 H570 0.931 . S
C547 C546 1.386 . S
C547 C551 1.397 . S
C548 C546 1.397 . S
C548 C549 1.384 . S
C548 H571 0.930 . S
C549 C548 1.384 . S
C549 C550 1.377 . S
C549 C552 1.481 . S
C550 C549 1.377 . S
C550 C551 1.389 . S
C550 H572 0.929 . S
C551 C547 1.397 . S
C551 C550 1.389 . S
C551 H573 0.931 . S
C552 C549 1.481 . S
C552 C553 1.387 . S
C552 C557 1.390 . S
C553 C552 1.387 . S
C553 C554 1.401 . S
C553 H574 0.930 . S
C554 C553 1.401 . S
C554 C555 1.376 . S
C554 C563 1.511 . S
C555 C554 1.376 . S
C555 C556 1.392 . S
C555 H576 0.931 . S
C556 C555 1.392 . S
C556 C557 1.361 . S
C556 C558 1.500 . S
C557 C552 1.390 . S
C557 C556 1.361 . S
C557 H575 0.931 . S
C558 C556 1.500 . S
C558 C559 1.371 . S
C558 C560 1.365 . S
C559 C558 1.371 . S
C559 C569 1.386 . S
C559 H577 0.931 . S
C560 C558 1.365 . S
C560 C561 1.409 . S
C560 H578 0.929 . S
C561 C560 1.409 . S
C561 C562 1.380 . S
C561 H579 0.930 . S
C562 C561 1.380 . S
C562 C569 1.357 . S
C563 C554 1.511 . S
C563 C564 1.341 . S
C563 C565 1.371 . S
C564 C563 1.341 . S
C564 C568 1.394 . S
C564 H580 0.930 . S
C565 C563 1.371 . S
C565 C566 1.392 . S
C565 H581 0.931 . S
C566 C565 1.392 . S
C566 C567 1.331 . S
C566 H584 0.932 . S
C567 C566 1.331 . S
C567 C568 1.336 . S
C568 C564 1.394 . S
C568 C567 1.336 . S
C568 H583 0.929 . S
C569 C559 1.386 . S
C569 C562 1.357 . S
C569 H582 0.928 . S
H570 C546 0.931 . S
H571 C548 0.930 . S
H572 C550 0.929 . S
H573 C551 0.931 . S
H574 C553 0.930 . S
H575 C557 0.931 . S
H576 C555 0.931 . S
H577 C559 0.931 . S
H578 C560 0.929 . S
H579 C561 0.930 . S
H580 C564 0.930 . S
H581 C565 0.931 . S
H582 C569 0.928 . S
H583 C568 0.929 . S
H584 C566 0.932 . S
C585 C586 1.386 . S
C585 C587 1.397 . S
C585 H609 0.931 . S
C586 C585 1.386 . S
C586 C590 1.397 . S
C587 C585 1.397 . S
C587 C588 1.384 . S
C587 H610 0.930 . S
C588 C587 1.384 . S
C588 C589 1.377 . S
C588 C591 1.481 . S
C589 C588 1.377 . S
C589 C590 1.389 . S
C589 H611 0.929 . S
C590 C586 1.397 . S
C590 C589 1.389 . S
C590 H612 0.931 . S
C591 C588 1.481 . S
C591 C592 1.387 . S
C591 C596 1.390 . S
C592 C591 1.387 . S
C592 C593 1.401 . S
C592 H613 0.930 . S
C593 C592 1.401 . S
C593 C594 1.376 . S
C593 C602 1.511 . S
C594 C593 1.376 . S
C594 C595 1.392 . S
C594 H615 0.931 . S
C595 C594 1.392 . S
C595 C596 1.361 . S
C595 C597 1.500 . S
C596 C591 1.390 . S
C596 C595 1.361 . S
C596 H614 0.931 . S
C597 C595 1.500 . S
C597 C598 1.371 . S
C597 C599 1.365 . S
C598 C597 1.371 . S
C598 C608 1.386 . S
C598 H616 0.931 . S
C599 C597 1.365 . S
C599 C600 1.409 . S
C599 H617 0.929 . S
C600 C599 1.409 . S
C600 C601 1.380 . S
C600 H618 0.930 . S
C601 C600 1.380 . S
C601 C608 1.357 . S
C602 C593 1.511 . S
C602 C603 1.341 . S
C602 C604 1.371 . S
C603 C602 1.341 . S
C603 C607 1.394 . S
C603 H619 0.930 . S
C604 C602 1.371 . S
C604 C605 1.392 . S
C604 H620 0.931 . S
C605 C604 1.392 . S
C605 C606 1.331 . S
C605 H623 0.932 . S
C606 C605 1.331 . S
C606 C607 1.336 . S
C607 C603 1.394 . S
C607 C606 1.336 . S
C607 H622 0.929 . S
C608 C598 1.386 . S
C608 C601 1.357 . S
C608 H621 0.928 . S
H609 C585 0.931 . S
H610 C587 0.930 . S
H611 C589 0.929 . S
H612 C590 0.931 . S
H613 C592 0.930 . S
H614 C596 0.931 . S
H615 C594 0.931 . S
H616 C598 0.931 . S
H617 C599 0.929 . S
H618 C600 0.930 . S
H619 C603 0.930 . S
H620 C604 0.931 . S
H621 C608 0.928 . S
H622 C607 0.929 . S
H623 C605 0.932 . S
C624 C625 1.386 . S
C624 C626 1.397 . S
C624 H648 0.931 . S
C625 C624 1.386 . S
C625 C629 1.397 . S
C626 C624 1.397 . S
C626 C627 1.384 . S
C626 H649 0.930 . S
C627 C626 1.384 . S
C627 C628 1.377 . S
C627 C630 1.481 . S
C628 C627 1.377 . S
C628 C629 1.389 . S
C628 H650 0.929 . S
C629 C625 1.397 . S
C629 C628 1.389 . S
C629 H651 0.931 . S
C630 C627 1.481 . S
C630 C631 1.387 . S
C630 C635 1.390 . S
C631 C630 1.387 . S
C631 C632 1.401 . S
C631 H652 0.930 . S
C632 C631 1.401 . S
C632 C633 1.376 . S
C632 C641 1.511 . S
C633 C632 1.376 . S
C633 C634 1.392 . S
C633 H654 0.931 . S
C634 C633 1.392 . S
C634 C635 1.361 . S
C634 C636 1.500 . S
C635 C630 1.390 . S
C635 C634 1.361 . S
C635 H653 0.931 . S
C636 C634 1.500 . S
C636 C637 1.371 . S
C636 C638 1.365 . S
C637 C636 1.371 . S
C637 C647 1.386 . S
C637 H655 0.931 . S
C638 C636 1.365 . S
C638 C639 1.409 . S
C638 H656 0.929 . S
C639 C638 1.409 . S
C639 C640 1.380 . S
C639 H657 0.930 . S
C640 C639 1.380 . S
C640 C647 1.357 . S
C641 C632 1.511 . S
C641 C642 1.341 . S
C641 C643 1.371 . S
C642 C641 1.341 . S
C642 C646 1.394 . S
C642 H658 0.930 . S
C643 C641 1.371 . S
C643 C644 1.392 . S
C643 H659 0.931 . S
C644 C643 1.392 . S
C644 C645 1.331 . S
C644 H662 0.932 . S
C645 C644 1.331 . S
C645 C646 1.336 . S
C646 C642 1.394 . S
C646 C645 1.336 . S
C646 H661 0.929 . S
C647 C637 1.386 . S
C647 C640 1.357 . S
C647 H660 0.928 . S
H648 C624 0.931 . S
H649 C626 0.930 . S
H650 C628 0.929 . S
H651 C629 0.931 . S
H652 C631 0.930 . S
H653 C635 0.931 . S
H654 C633 0.931 . S
H655 C637 0.931 . S
H656 C638 0.929 . S
H657 C639 0.930 . S
H658 C642 0.930 . S
H659 C643 0.931 . S
H660 C647 0.928 . S
H661 C646 0.929 . S
H662 C644 0.932 . S
C663 C664 1.386 . S
C663 C665 1.397 . S
C663 H687 0.931 . S
C664 C663 1.386 . S
C664 C668 1.397 . S
C665 C663 1.397 . S
C665 C666 1.384 . S
C665 H688 0.930 . S
C666 C665 1.384 . S
C666 C667 1.377 . S
C666 C669 1.481 . S
C667 C666 1.377 . S
C667 C668 1.389 . S
C667 H689 0.929 . S
C668 C664 1.397 . S
C668 C667 1.389 . S
C668 H690 0.931 . S
C669 C666 1.481 . S
C669 C670 1.387 . S
C669 C674 1.390 . S
C670 C669 1.387 . S
C670 C671 1.401 . S
C670 H691 0.930 . S
C671 C670 1.401 . S
C671 C672 1.376 . S
C671 C680 1.511 . S
C672 C671 1.376 . S
C672 C673 1.392 . S
C672 H693 0.931 . S
C673 C672 1.392 . S
C673 C674 1.361 . S
C673 C675 1.500 . S
C674 C669 1.390 . S
C674 C673 1.361 . S
C674 H692 0.931 . S
C675 C673 1.500 . S
C675 C676 1.371 . S
C675 C677 1.365 . S
C676 C675 1.371 . S
C676 C686 1.386 . S
C676 H694 0.931 . S
C677 C675 1.365 . S
C677 C678 1.409 . S
C677 H695 0.929 . S
C678 C677 1.409 . S
C678 C679 1.380 . S
C678 H696 0.930 . S
C679 C678 1.380 . S
C679 C686 1.357 . S
C680 C671 1.511 . S
C680 C681 1.341 . S
C680 C682 1.371 . S
C681 C680 1.341 . S
C681 C685 1.394 . S
C681 H697 0.930 . S
C682 C680 1.371 . S
C682 C683 1.392 . S
C682 H698 0.931 . S
C683 C682 1.392 . S
C683 C684 1.331 . S
C683 H701 0.932 . S
C684 C683 1.331 . S
C684 C685 1.336 . S
C685 C681 1.394 . S
C685 C684 1.336 . S
C685 H700 0.929 . S
C686 C676 1.386 . S
C686 C679 1.357 . S
C686 H699 0.928 . S
H687 C663 0.931 . S
H688 C665 0.930 . S
H689 C667 0.929 . S
H690 C668 0.931 . S
H691 C670 0.930 . S
H692 C674 0.931 . S
H693 C672 0.931 . S
H694 C676 0.931 . S
H695 C677 0.929 . S
H696 C678 0.930 . S
H697 C681 0.930 . S
H698 C682 0.931 . S
H699 C686 0.928 . S
H700 C685 0.929 . S
H701 C683 0.932 . S
Tb702 N733 2.660 . S
Tb702 N740 2.600 . S
Tb702 O746 2.546 . S
Tb702 O747 2.610 1_566 S
Tb702 O749 2.320 1_565 S
Tb702 O750 2.552 1_565 S
Tb702 O751 2.413 . S
Tb702 O753 2.362 1_556 S
Tb702 O754 2.390 1_556 S
Tb702 C766 2.833 . S
C703 C706 1.432 . S
C703 C707 1.414 . S
C703 N710 1.359 . S
C704 C706 1.417 . S
C704 C708 1.432 . S
C704 C716 1.410 . S
C705 C707 1.444 . S
C705 C708 1.317 . S
C705 H728 0.929 . S
C706 C703 1.432 . S
C706 C704 1.417 . S
C706 N714 1.360 . S
C707 C703 1.414 . S
C707 C705 1.444 . S
C707 C712 1.385 . S
C708 C704 1.432 . S
C708 C705 1.317 . S
C708 H720 0.930 . S
C709 C711 1.392 . S
C709 C712 1.370 . S
C709 H721 0.931 . S
N710 C703 1.359 . S
N710 C711 1.327 . S
N710 Tb713 2.600 . S
C711 C709 1.392 . S
C711 N710 1.327 . S
C711 H718 0.930 . S
C712 C707 1.385 . S
C712 C709 1.370 . S
C712 H731 0.930 . S
Tb713 N710 2.600 . S
Tb713 N714 2.660 . S
Tb713 O747 2.362 . S
Tb713 O748 2.421 . S
Tb713 O752 2.546 . S
Tb713 O753 2.610 1_545 S
Tb713 O755 2.320 1_545 S
Tb713 O756 2.552 1_545 S
Tb713 O757 2.413 . S
Tb713 C777 2.833 . S
N714 C706 1.360 . S
N714 Tb713 2.660 . S
N714 C715 1.305 . S
C715 N714 1.305 . S
C715 C717 1.407 . S
C715 H722 0.930 . S
C716 C704 1.410 . S
C716 C717 1.345 . S
C716 H724 0.930 . S
C717 C715 1.407 . S
C717 C716 1.345 . S
C717 H719 0.930 . S
H718 C711 0.930 . S
H719 C717 0.930 . S
H720 C708 0.930 . S
H721 C709 0.931 . S
H722 C715 0.930 . S
H723 C737 0.930 . S
H724 C716 0.930 . S
H725 C743 0.930 . S
H726 C734 0.930 . S
H727 C741 0.931 . S
H728 C705 0.929 . S
H729 C735 0.930 . S
H730 C768 0.930 . S
H731 C712 0.930 . S
H732 C767 0.929 . S
N733 Tb702 2.660 . S
N733 C734 1.305 . S
N733 C738 1.360 . S
C734 H726 0.930 . S
C734 N733 1.305 . S
C734 C737 1.407 . S
C735 H729 0.930 . S
C735 C736 1.410 . S
C735 C737 1.345 . S
C736 C735 1.410 . S
C736 C738 1.417 . S
C736 C768 1.432 . S
C737 H723 0.930 . S
C737 C734 1.407 . S
C737 C735 1.345 . S
C738 N733 1.360 . S
C738 C736 1.417 . S
C738 C742 1.432 . S
H739 C744 0.930 . S
N740 Tb702 2.600 . S
N740 C742 1.359 . S
N740 C743 1.327 . S
C741 H727 0.931 . S
C741 C743 1.392 . S
C741 C744 1.370 . S
C742 C738 1.432 . S
C742 N740 1.359 . S
C742 C745 1.414 . S
C743 H725 0.930 . S
C743 N740 1.327 . S
C743 C741 1.392 . S
C744 H739 0.930 . S
C744 C741 1.370 . S
C744 C745 1.385 . S
C745 C742 1.414 . S
C745 C744 1.385 . S
C745 C767 1.444 . S
O746 Tb702 2.546 . S
O746 C766 1.251 . S
O747 Tb702 2.610 1_544 S
O747 Tb713 2.362 . S
O747 C758 1.283 1_554 S
O748 Tb713 2.421 . S
O748 C765 1.262 1_554 S
O749 Tb702 2.320 1_545 S
O749 C765 1.260 . S
O750 Tb702 2.552 1_545 S
O750 C758 1.243 . S
O751 Tb702 2.413 . S
O751 C766 1.256 . S
O752 Tb713 2.546 . S
O752 C777 1.251 . S
O753 Tb702 2.362 1_554 S
O753 Tb713 2.610 1_565 S
O753 C769 1.283 . S
O754 Tb702 2.390 1_554 S
O754 C776 1.318 . S
O755 Tb713 2.320 1_565 S
O755 C776 1.260 . S
O756 Tb713 2.552 1_565 S
O756 C769 1.243 . S
O757 Tb713 2.413 . S
O757 C777 1.256 . S
C758 O747 1.283 1_556 S
C758 O750 1.243 . S
C759 C761 1.382 1_565 S
C759 C763 1.393 . S
C759 C766 1.500 . S
C760 C761 1.400 . S
C760 C762 1.384 1_545 S
C761 C759 1.382 1_545 S
C761 C760 1.400 . S
C761 H778 0.930 . S
C762 C760 1.384 1_565 S
C762 C764 1.392 . S
C762 H779 0.931 . S
C763 C759 1.393 . S
C763 C764 1.401 . S
C763 H780 0.930 . S
C764 C762 1.392 . S
C764 C763 1.401 . S
C764 H781 0.930 . S
C765 O748 1.262 1_556 S
C765 O749 1.260 . S
C766 Tb702 2.833 . S
C766 O746 1.251 . S
C766 O751 1.256 . S
C766 C759 1.500 . S
C767 H732 0.929 . S
C767 C745 1.444 . S
C767 C768 1.317 . S
C768 H730 0.930 . S
C768 C736 1.432 . S
C768 C767 1.317 . S
C769 O753 1.283 . S
C769 O756 1.243 . S
C770 C771 1.382 1_545 S
C770 C774 1.393 . S
C770 C777 1.500 . S
C771 C770 1.382 1_565 S
C771 C772 1.400 . S
C771 H782 0.930 . S
C772 C771 1.400 . S
C772 C773 1.384 1_565 S
C773 C772 1.384 1_545 S
C773 C775 1.392 . S
C773 H783 0.931 . S
C774 C770 1.393 . S
C774 C775 1.401 . S
C774 H784 0.930 . S
C775 C773 1.392 . S
C775 C774 1.401 . S
C775 H785 0.930 . S
C776 O754 1.318 . S
C776 O755 1.260 . S
C777 Tb713 2.833 . S
C777 O752 1.251 . S
C777 O757 1.256 . S
C777 C770 1.500 . S
H778 C761 0.930 . S
H779 C762 0.931 . S
H780 C763 0.930 . S
H781 C764 0.930 . S
H782 C771 0.930 . S
H783 C773 0.931 . S
H784 C774 0.930 . S
H785 C775 0.930 . S
Tb786 N817 2.660 . S
Tb786 N824 2.600 . S
Tb786 O830 2.546 . S
Tb786 O831 2.610 1_456 S
Tb786 O833 2.320 1_455 S
Tb786 O834 2.552 1_455 S
Tb786 O835 2.413 . S
Tb786 O837 2.362 1_556 S
Tb786 O838 2.421 1_556 S
Tb786 C850 2.833 . S
C787 C790 1.432 . S
C787 C791 1.414 . S
C787 N794 1.359 . S
C788 C790 1.417 . S
C788 C792 1.432 . S
C788 C800 1.410 . S
C789 C791 1.444 . S
C789 C792 1.317 . S
C789 H812 0.929 . S
C790 C787 1.432 . S
C790 C788 1.417 . S
C790 N798 1.360 . S
C791 C787 1.414 . S
C791 C789 1.444 . S
C791 C796 1.385 . S
C792 C788 1.432 . S
C792 C789 1.317 . S
C792 H804 0.930 . S
C793 C795 1.392 . S
C793 C796 1.370 . S
C793 H805 0.931 . S
N794 C787 1.359 . S
N794 C795 1.327 . S
N794 Tb797 2.600 . S
C795 C793 1.392 . S
C795 N794 1.327 . S
C795 H802 0.930 . S
C796 C791 1.385 . S
C796 C793 1.370 . S
C796 H815 0.930 . S
Tb797 N794 2.600 . S
Tb797 N798 2.660 . S
Tb797 O831 2.362 . S
Tb797 O832 2.421 . S
Tb797 O836 2.546 . S
Tb797 O837 2.610 1_655 S
Tb797 O839 2.320 1_655 S
Tb797 O840 2.552 1_655 S
Tb797 O841 2.413 . S
Tb797 C861 2.833 . S
N798 C790 1.360 . S
N798 Tb797 2.660 . S
N798 C799 1.305 . S
C799 N798 1.305 . S
C799 C801 1.407 . S
C799 H806 0.930 . S
C800 C788 1.410 . S
C800 C801 1.345 . S
C800 H808 0.930 . S
C801 C799 1.407 . S
C801 C800 1.345 . S
C801 H803 0.930 . S
H802 C795 0.930 . S
H803 C801 0.930 . S
H804 C792 0.930 . S
H805 C793 0.931 . S
H806 C799 0.930 . S
H807 C821 0.930 . S
H808 C800 0.930 . S
H809 C827 0.930 . S
H810 C818 0.930 . S
H811 C825 0.931 . S
H812 C789 0.929 . S
H813 C819 0.930 . S
H814 C852 0.930 . S
H815 C796 0.930 . S
H816 C851 0.929 . S
N817 Tb786 2.660 . S
N817 C818 1.305 . S
N817 C822 1.360 . S
C818 H810 0.930 . S
C818 N817 1.305 . S
C818 C821 1.407 . S
C819 H813 0.930 . S
C819 C820 1.410 . S
C819 C821 1.345 . S
C820 C819 1.410 . S
C820 C822 1.417 . S
C820 C852 1.432 . S
C821 H807 0.930 . S
C821 C818 1.407 . S
C821 C819 1.345 . S
C822 N817 1.360 . S
C822 C820 1.417 . S
C822 C826 1.432 . S
H823 C828 0.930 . S
N824 Tb786 2.600 . S
N824 C826 1.359 . S
N824 C827 1.327 . S
C825 H811 0.931 . S
C825 C827 1.392 . S
C825 C828 1.370 . S
C826 C822 1.432 . S
C826 N824 1.359 . S
C826 C829 1.414 . S
C827 H809 0.930 . S
C827 N824 1.327 . S
C827 C825 1.392 . S
C828 H823 0.930 . S
C828 C825 1.370 . S
C828 C829 1.385 . S
C829 C826 1.414 . S
C829 C828 1.385 . S
C829 C851 1.444 . S
O830 Tb786 2.546 . S
O830 C850 1.251 . S
O831 Tb786 2.610 1_654 S
O831 Tb797 2.362 . S
O831 C842 1.283 1_554 S
O832 Tb797 2.421 . S
O832 C849 1.262 1_554 S
O833 Tb786 2.320 1_655 S
O833 C849 1.260 . S
O834 Tb786 2.552 1_655 S
O834 C842 1.243 . S
O835 Tb786 2.413 . S
O835 C850 1.256 . S
O836 Tb797 2.546 . S
O836 C861 1.251 . S
O837 Tb786 2.362 1_554 S
O837 Tb797 2.610 1_455 S
O837 C853 1.283 . S
O838 Tb786 2.421 1_554 S
O838 C860 1.262 . S
O839 Tb797 2.320 1_455 S
O839 C860 1.260 . S
O840 Tb797 2.552 1_455 S
O840 C853 1.243 . S
O841 Tb797 2.413 . S
O841 C861 1.256 . S
C842 O831 1.283 1_556 S
C842 O834 1.243 . S
C843 C845 1.382 1_455 S
C843 C847 1.393 . S
C843 C850 1.500 . S
C844 C845 1.400 . S
C844 C846 1.384 1_655 S
C845 C843 1.382 1_655 S
C845 C844 1.400 . S
C845 H862 0.930 . S
C846 C844 1.384 1_455 S
C846 C848 1.392 . S
C846 H863 0.931 . S
C847 C843 1.393 . S
C847 C848 1.401 . S
C847 H864 0.930 . S
C848 C846 1.392 . S
C848 C847 1.401 . S
C848 H865 0.930 . S
C849 O832 1.262 1_556 S
C849 O833 1.260 . S
C850 Tb786 2.833 . S
C850 O830 1.251 . S
C850 O835 1.256 . S
C850 C843 1.500 . S
C851 H816 0.929 . S
C851 C829 1.444 . S
C851 C852 1.317 . S
C852 H814 0.930 . S
C852 C820 1.432 . S
C852 C851 1.317 . S
C853 O837 1.283 . S
C853 O840 1.243 . S
C854 C855 1.382 1_655 S
C854 C858 1.393 . S
C854 C861 1.500 . S
C855 C854 1.382 1_455 S
C855 C856 1.400 . S
C855 H866 0.930 . S
C856 C855 1.400 . S
C856 C857 1.384 1_455 S
C857 C856 1.384 1_655 S
C857 C859 1.392 . S
C857 H867 0.931 . S
C858 C854 1.393 . S
C858 C859 1.401 . S
C858 H868 0.930 . S
C859 C857 1.392 . S
C859 C858 1.401 . S
C859 H869 0.930 . S
C860 O838 1.262 . S
C860 O839 1.260 . S
C861 Tb797 2.833 . S
C861 O836 1.251 . S
C861 O841 1.256 . S
C861 C854 1.500 . S
H862 C845 0.930 . S
H863 C846 0.931 . S
H864 C847 0.930 . S
H865 C848 0.930 . S
H866 C855 0.930 . S
H867 C857 0.931 . S
H868 C858 0.930 . S
H869 C859 0.930 . S
Tb870 N901 2.660 . S
Tb870 N908 2.600 . S
Tb870 O914 2.546 . S
Tb870 O915 2.610 . S
Tb870 O917 2.320 . S
Tb870 O918 2.552 . S
Tb870 O919 2.413 . S
Tb870 O921 2.362 . S
Tb870 O922 2.421 . S
Tb870 C934 2.833 . S
C871 C874 1.432 . S
C871 C875 1.414 . S
C871 N878 1.359 . S
C872 C874 1.417 . S
C872 C876 1.432 . S
C872 C884 1.410 . S
C873 C875 1.444 . S
C873 C876 1.317 . S
C873 H896 0.929 . S
C874 C871 1.432 . S
C874 C872 1.417 . S
C874 N882 1.360 . S
C875 C871 1.414 . S
C875 C873 1.444 . S
C875 C880 1.385 . S
C876 C872 1.432 . S
C876 C873 1.317 . S
C876 H888 0.930 . S
C877 C879 1.392 . S
C877 C880 1.370 . S
C877 H889 0.931 . S
N878 C871 1.359 . S
N878 C879 1.327 . S
N878 Tb881 2.600 . S
C879 C877 1.392 . S
C879 N878 1.327 . S
C879 H886 0.930 . S
C880 C875 1.385 . S
C880 C877 1.370 . S
C880 H899 0.930 . S
Tb881 N878 2.600 . S
Tb881 N882 2.660 . S
Tb881 O915 2.362 1_556 S
Tb881 O916 2.381 1_556 S
Tb881 O920 2.546 . S
Tb881 O921 2.610 1_556 S
Tb881 O923 2.320 . S
Tb881 O924 2.552 . S
Tb881 O925 2.413 . S
Tb881 C945 2.833 . S
N882 C874 1.360 . S
N882 Tb881 2.660 . S
N882 C883 1.305 . S
C883 N882 1.305 . S
C883 C885 1.407 . S
C883 H890 0.930 . S
C884 C872 1.410 . S
C884 C885 1.345 . S
C884 H892 0.930 . S
C885 C883 1.407 . S
C885 C884 1.345 . S
C885 H887 0.930 . S
H886 C879 0.930 . S
H887 C885 0.930 . S
H888 C876 0.930 . S
H889 C877 0.931 . S
H890 C883 0.930 . S
H891 C905 0.930 . S
H892 C884 0.930 . S
H893 C911 0.930 . S
H894 C902 0.930 . S
H895 C909 0.931 . S
H896 C873 0.929 . S
H897 C903 0.930 . S
H898 C936 0.930 . S
H899 C880 0.930 . S
H900 C935 0.929 . S
N901 Tb870 2.660 . S
N901 C902 1.305 . S
N901 C906 1.360 . S
C902 H894 0.930 . S
C902 N901 1.305 . S
C902 C905 1.407 . S
C903 H897 0.930 . S
C903 C904 1.410 . S
C903 C905 1.345 . S
C904 C903 1.410 . S
C904 C906 1.417 . S
C904 C936 1.432 . S
C905 H891 0.930 . S
C905 C902 1.407 . S
C905 C903 1.345 . S
C906 N901 1.360 . S
C906 C904 1.417 . S
C906 C910 1.432 . S
H907 C912 0.930 . S
N908 Tb870 2.600 . S
N908 C910 1.359 . S
N908 C911 1.327 . S
C909 H895 0.931 . S
C909 C911 1.392 . S
C909 C912 1.370 . S
C910 C906 1.432 . S
C910 N908 1.359 . S
C910 C913 1.414 . S
C911 H893 0.930 . S
C911 N908 1.327 . S
C911 C909 1.392 . S
C912 H907 0.930 . S
C912 C909 1.370 . S
C912 C913 1.385 . S
C913 C910 1.414 . S
C913 C912 1.385 . S
C913 C935 1.444 . S
O914 Tb870 2.546 . S
O914 C934 1.251 . S
O915 Tb870 2.610 . S
O915 Tb881 2.362 1_554 S
O915 C926 1.283 . S
O916 Tb881 2.381 1_554 S
O916 C933 1.334 . S
O917 Tb870 2.320 . S
O917 C933 1.260 . S
O918 Tb870 2.552 . S
O918 C926 1.243 . S
O919 Tb870 2.413 . S
O919 C934 1.256 . S
O920 Tb881 2.546 . S
O920 C945 1.251 . S
O921 Tb870 2.362 . S
O921 Tb881 2.610 1_554 S
O921 C937 1.283 1_554 S
O922 Tb870 2.421 . S
O922 C944 1.262 1_554 S
O923 Tb881 2.320 . S
O923 C944 1.260 . S
O924 Tb881 2.552 . S
O924 C937 1.243 . S
O925 Tb881 2.413 . S
O925 C945 1.256 . S
C926 O915 1.283 . S
C926 O918 1.243 . S
C927 C929 1.382 . S
C927 C931 1.393 . S
C927 C934 1.500 . S
C928 C929 1.400 . S
C928 C930 1.384 . S
C929 C927 1.382 . S
C929 C928 1.400 . S
C929 H946 0.930 . S
C930 C928 1.384 . S
C930 C932 1.392 . S
C930 H947 0.931 . S
C931 C927 1.393 . S
C931 C932 1.401 . S
C931 H948 0.930 . S
C932 C930 1.392 . S
C932 C931 1.401 . S
C932 H949 0.930 . S
C933 O916 1.334 . S
C933 O917 1.260 . S
C934 Tb870 2.833 . S
C934 O914 1.251 . S
C934 O919 1.256 . S
C934 C927 1.500 . S
C935 H900 0.929 . S
C935 C913 1.444 . S
C935 C936 1.317 . S
C936 H898 0.930 . S
C936 C904 1.432 . S
C936 C935 1.317 . S
C937 O921 1.283 1_556 S
C937 O924 1.243 . S
C938 C939 1.382 . S
C938 C942 1.393 . S
C938 C945 1.500 . S
C939 C938 1.382 . S
C939 C940 1.400 . S
C939 H950 0.930 . S
C940 C939 1.400 . S
C940 C941 1.384 . S
C941 C940 1.384 . S
C941 C943 1.392 . S
C941 H951 0.931 . S
C942 C938 1.393 . S
C942 C943 1.401 . S
C942 H952 0.930 . S
C943 C941 1.392 . S
C943 C942 1.401 . S
C943 H953 0.930 . S
C944 O922 1.262 1_556 S
C944 O923 1.260 . S
C945 Tb881 2.833 . S
C945 O920 1.251 . S
C945 O925 1.256 . S
C945 C938 1.500 . S
H946 C929 0.930 . S
H947 C930 0.931 . S
H948 C931 0.930 . S
H949 C932 0.930 . S
H950 C939 0.930 . S
H951 C941 0.931 . S
H952 C942 0.930 . S
H953 C943 0.930 . S
Tb954 N985 2.660 . S
Tb954 N992 2.600 . S
Tb954 O998 2.546 . S
Tb954 O999 2.610 . S
Tb954 O1001 2.320 . S
Tb954 O1002 2.552 . S
Tb954 O1003 2.413 . S
Tb954 O1005 2.362 . S
Tb954 O1006 2.421 . S
Tb954 C1018 2.833 . S
C955 C958 1.432 . S
C955 C959 1.414 . S
C955 N962 1.359 . S
C956 C958 1.417 . S
C956 C960 1.432 . S
C956 C968 1.410 . S
C957 C959 1.444 . S
C957 C960 1.317 . S
C957 H980 0.929 . S
C958 C955 1.432 . S
C958 C956 1.417 . S
C958 N966 1.360 . S
C959 C955 1.414 . S
C959 C957 1.444 . S
C959 C964 1.385 . S
C960 C956 1.432 . S
C960 C957 1.317 . S
C960 H972 0.930 . S
C961 C963 1.392 . S
C961 C964 1.370 . S
C961 H973 0.931 . S
N962 C955 1.359 . S
N962 C963 1.327 . S
N962 Tb965 2.600 . S
C963 C961 1.392 . S
C963 N962 1.327 . S
C963 H970 0.930 . S
C964 C959 1.385 . S
C964 C961 1.370 . S
C964 H983 0.930 . S
Tb965 N962 2.600 . S
Tb965 N966 2.660 . S
Tb965 O999 2.362 . S
Tb965 O1000 2.421 . S
Tb965 O1004 2.546 . S
Tb965 O1005 2.610 . S
Tb965 O1007 2.320 . S
Tb965 O1008 2.552 . S
Tb965 O1009 2.413 . S
Tb965 C1029 2.833 . S
N966 C958 1.360 . S
N966 Tb965 2.660 . S
N966 C967 1.305 . S
C967 N966 1.305 . S
C967 C969 1.407 . S
C967 H974 0.930 . S
C968 C956 1.410 . S
C968 C969 1.345 . S
C968 H976 0.930 . S
C969 C967 1.407 . S
C969 C968 1.345 . S
C969 H971 0.930 . S
H970 C963 0.930 . S
H971 C969 0.930 . S
H972 C960 0.930 . S
H973 C961 0.931 . S
H974 C967 0.930 . S
H975 C989 0.930 . S
H976 C968 0.930 . S
H977 C995 0.930 . S
H978 C986 0.930 . S
H979 C993 0.931 . S
H980 C957 0.929 . S
H981 C987 0.930 . S
H982 C1020 0.930 . S
H983 C964 0.930 . S
H984 C1019 0.929 . S
N985 Tb954 2.660 . S
N985 C986 1.305 . S
N985 C990 1.360 . S
C986 H978 0.930 . S
C986 N985 1.305 . S
C986 C989 1.407 . S
C987 H981 0.930 . S
C987 C988 1.410 . S
C987 C989 1.345 . S
C988 C987 1.410 . S
C988 C990 1.417 . S
C988 C1020 1.432 . S
C989 H975 0.930 . S
C989 C986 1.407 . S
C989 C987 1.345 . S
C990 N985 1.360 . S
C990 C988 1.417 . S
C990 C994 1.432 . S
H991 C996 0.930 . S
N992 Tb954 2.600 . S
N992 C994 1.359 . S
N992 C995 1.327 . S
C993 H979 0.931 . S
C993 C995 1.392 . S
C993 C996 1.370 . S
C994 C990 1.432 . S
C994 N992 1.359 . S
C994 C997 1.414 . S
C995 H977 0.930 . S
C995 N992 1.327 . S
C995 C993 1.392 . S
C996 H991 0.930 . S
C996 C993 1.370 . S
C996 C997 1.385 . S
C997 C994 1.414 . S
C997 C996 1.385 . S
C997 C1019 1.444 . S
O998 Tb954 2.546 . S
O998 C1018 1.251 . S
O999 Tb954 2.610 . S
O999 Tb965 2.362 . S
O999 C1010 1.283 . S
O1000 Tb965 2.421 . S
O1000 C1017 1.262 . S
O1001 Tb954 2.320 . S
O1001 C1017 1.260 . S
O1002 Tb954 2.552 . S
O1002 C1010 1.243 . S
O1003 Tb954 2.413 . S
O1003 C1018 1.256 . S
O1004 Tb965 2.546 . S
O1004 C1029 1.251 . S
O1005 Tb954 2.362 . S
O1005 Tb965 2.610 . S
O1005 C1021 1.283 . S
O1006 Tb954 2.421 . S
O1006 C1028 1.262 . S
O1007 Tb965 2.320 . S
O1007 C1028 1.260 . S
O1008 Tb965 2.552 . S
O1008 C1021 1.243 . S
O1009 Tb965 2.413 . S
O1009 C1029 1.256 . S
C1010 O999 1.283 . S
C1010 O1002 1.243 . S
C1011 C1013 1.382 . S
C1011 C1015 1.393 . S
C1011 C1018 1.500 . S
C1012 C1013 1.400 . S
C1012 C1014 1.384 . S
C1013 C1011 1.382 . S
C1013 C1012 1.400 . S
C1013 H1030 0.930 . S
C1014 C1012 1.384 . S
C1014 C1016 1.392 . S
C1014 H1031 0.931 . S
C1015 C1011 1.393 . S
C1015 C1016 1.401 . S
C1015 H1032 0.930 . S
C1016 C1014 1.392 . S
C1016 C1015 1.401 . S
C1016 H1033 0.930 . S
C1017 O1000 1.262 . S
C1017 O1001 1.260 . S
C1018 Tb954 2.833 . S
C1018 O998 1.251 . S
C1018 O1003 1.256 . S
C1018 C1011 1.500 . S
C1019 H984 0.929 . S
C1019 C997 1.444 . S
C1019 C1020 1.317 . S
C1020 H982 0.930 . S
C1020 C988 1.432 . S
C1020 C1019 1.317 . S
C1021 O1005 1.283 . S
C1021 O1008 1.243 . S
C1022 C1023 1.382 . S
C1022 C1026 1.393 . S
C1022 C1029 1.500 . S
C1023 C1022 1.382 . S
C1023 C1024 1.400 . S
C1023 H1034 0.930 . S
C1024 C1023 1.400 . S
C1024 C1025 1.384 . S
C1025 C1024 1.384 . S
C1025 C1027 1.392 . S
C1025 H1035 0.931 . S
C1026 C1022 1.393 . S
C1026 C1027 1.401 . S
C1026 H1036 0.930 . S
C1027 C1025 1.392 . S
C1027 C1026 1.401 . S
C1027 H1037 0.930 . S
C1028 O1006 1.262 . S
C1028 O1007 1.260 . S
C1029 Tb965 2.833 . S
C1029 O1004 1.251 . S
C1029 O1009 1.256 . S
C1029 C1022 1.500 . S
H1030 C1013 0.930 . S
H1031 C1014 0.931 . S
H1032 C1015 0.930 . S
H1033 C1016 0.930 . S
H1034 C1023 0.930 . S
H1035 C1025 0.931 . S
H1036 C1026 0.930 . S
H1037 C1027 0.930 . S
Tb1038 N1069 2.660 . S
Tb1038 N1076 2.600 . S
Tb1038 O1082 2.546 . S
Tb1038 O1083 2.610 . S
Tb1038 O1085 2.320 . S
Tb1038 O1086 2.552 . S
Tb1038 O1087 2.413 . S
Tb1038 O1089 2.362 . S
Tb1038 O1090 2.421 . S
Tb1038 C1102 2.833 . S
C1039 C1042 1.432 . S
C1039 C1043 1.414 . S
C1039 N1046 1.359 . S
C1040 C1042 1.417 . S
C1040 C1044 1.432 . S
C1040 C1052 1.410 . S
C1041 C1043 1.444 . S
C1041 C1044 1.317 . S
C1041 H1064 0.929 . S
C1042 C1039 1.432 . S
C1042 C1040 1.417 . S
C1042 N1050 1.360 . S
C1043 C1039 1.414 . S
C1043 C1041 1.444 . S
C1043 C1048 1.385 . S
C1044 C1040 1.432 . S
C1044 C1041 1.317 . S
C1044 H1056 0.930 . S
C1045 C1047 1.392 . S
C1045 C1048 1.370 . S
C1045 H1057 0.931 . S
N1046 C1039 1.359 . S
N1046 C1047 1.327 . S
N1046 Tb1049 2.600 . S
C1047 C1045 1.392 . S
C1047 N1046 1.327 . S
C1047 H1054 0.930 . S
C1048 C1043 1.385 . S
C1048 C1045 1.370 . S
C1048 H1067 0.930 . S
Tb1049 N1046 2.600 . S
Tb1049 N1050 2.660 . S
Tb1049 O1083 2.362 . S
Tb1049 O1084 2.421 . S
Tb1049 O1088 2.546 . S
Tb1049 O1089 2.610 . S
Tb1049 O1091 2.320 . S
Tb1049 O1092 2.552 . S
Tb1049 O1093 2.413 . S
Tb1049 C1113 2.833 . S
N1050 C1042 1.360 . S
N1050 Tb1049 2.660 . S
N1050 C1051 1.305 . S
C1051 N1050 1.305 . S
C1051 C1053 1.407 . S
C1051 H1058 0.930 . S
C1052 C1040 1.410 . S
C1052 C1053 1.345 . S
C1052 H1060 0.930 . S
C1053 C1051 1.407 . S
C1053 C1052 1.345 . S
C1053 H1055 0.930 . S
H1054 C1047 0.930 . S
H1055 C1053 0.930 . S
H1056 C1044 0.930 . S
H1057 C1045 0.931 . S
H1058 C1051 0.930 . S
H1059 C1073 0.930 . S
H1060 C1052 0.930 . S
H1061 C1079 0.930 . S
H1062 C1070 0.930 . S
H1063 C1077 0.931 . S
H1064 C1041 0.929 . S
H1065 C1071 0.930 . S
H1066 C1104 0.930 . S
H1067 C1048 0.930 . S
H1068 C1103 0.929 . S
N1069 Tb1038 2.660 . S
N1069 C1070 1.305 . S
N1069 C1074 1.360 . S
C1070 H1062 0.930 . S
C1070 N1069 1.305 . S
C1070 C1073 1.407 . S
C1071 H1065 0.930 . S
C1071 C1072 1.410 . S
C1071 C1073 1.345 . S
C1072 C1071 1.410 . S
C1072 C1074 1.417 . S
C1072 C1104 1.432 . S
C1073 H1059 0.930 . S
C1073 C1070 1.407 . S
C1073 C1071 1.345 . S
C1074 N1069 1.360 . S
C1074 C1072 1.417 . S
C1074 C1078 1.432 . S
H1075 C1080 0.930 . S
N1076 Tb1038 2.600 . S
N1076 C1078 1.359 . S
N1076 C1079 1.327 . S
C1077 H1063 0.931 . S
C1077 C1079 1.392 . S
C1077 C1080 1.370 . S
C1078 C1074 1.432 . S
C1078 N1076 1.359 . S
C1078 C1081 1.414 . S
C1079 H1061 0.930 . S
C1079 N1076 1.327 . S
C1079 C1077 1.392 . S
C1080 H1075 0.930 . S
C1080 C1077 1.370 . S
C1080 C1081 1.385 . S
C1081 C1078 1.414 . S
C1081 C1080 1.385 . S
C1081 C1103 1.444 . S
O1082 Tb1038 2.546 . S
O1082 C1102 1.251 . S
O1083 Tb1038 2.610 . S
O1083 Tb1049 2.362 . S
O1083 C1094 1.283 . S
O1084 Tb1049 2.421 . S
O1084 C1101 1.262 . S
O1085 Tb1038 2.320 . S
O1085 C1101 1.260 . S
O1086 Tb1038 2.552 . S
O1086 C1094 1.243 . S
O1087 Tb1038 2.413 . S
O1087 C1102 1.256 . S
O1088 Tb1049 2.546 . S
O1088 C1113 1.251 . S
O1089 Tb1038 2.362 . S
O1089 Tb1049 2.610 . S
O1089 C1105 1.283 . S
O1090 Tb1038 2.421 . S
O1090 C1112 1.262 . S
O1091 Tb1049 2.320 . S
O1091 C1112 1.260 . S
O1092 Tb1049 2.552 . S
O1092 C1105 1.243 . S
O1093 Tb1049 2.413 . S
O1093 C1113 1.256 . S
C1094 O1083 1.283 . S
C1094 O1086 1.243 . S
C1095 C1097 1.382 . S
C1095 C1099 1.393 . S
C1095 C1102 1.500 . S
C1096 C1097 1.400 . S
C1096 C1098 1.384 . S
C1097 C1095 1.382 . S
C1097 C1096 1.400 . S
C1097 H1114 0.930 . S
C1098 C1096 1.384 . S
C1098 C1100 1.392 . S
C1098 H1115 0.931 . S
C1099 C1095 1.393 . S
C1099 C1100 1.401 . S
C1099 H1116 0.930 . S
C1100 C1098 1.392 . S
C1100 C1099 1.401 . S
C1100 H1117 0.930 . S
C1101 O1084 1.262 . S
C1101 O1085 1.260 . S
C1102 Tb1038 2.833 . S
C1102 O1082 1.251 . S
C1102 O1087 1.256 . S
C1102 C1095 1.500 . S
C1103 H1068 0.929 . S
C1103 C1081 1.444 . S
C1103 C1104 1.317 . S
C1104 H1066 0.930 . S
C1104 C1072 1.432 . S
C1104 C1103 1.317 . S
C1105 O1089 1.283 . S
C1105 O1092 1.243 . S
C1106 C1107 1.382 . S
C1106 C1110 1.393 . S
C1106 C1113 1.500 . S
C1107 C1106 1.382 . S
C1107 C1108 1.400 . S
C1107 H1118 0.930 . S
C1108 C1107 1.400 . S
C1108 C1109 1.384 . S
C1109 C1108 1.384 . S
C1109 C1111 1.392 . S
C1109 H1119 0.931 . S
C1110 C1106 1.393 . S
C1110 C1111 1.401 . S
C1110 H1120 0.930 . S
C1111 C1109 1.392 . S
C1111 C1110 1.401 . S
C1111 H1121 0.930 . S
C1112 O1090 1.262 . S
C1112 O1091 1.260 . S
C1113 Tb1049 2.833 . S
C1113 O1088 1.251 . S
C1113 O1093 1.256 . S
C1113 C1106 1.500 . S
H1114 C1097 0.930 . S
H1115 C1098 0.931 . S
H1116 C1099 0.930 . S
H1117 C1100 0.930 . S
H1118 C1107 0.930 . S
H1119 C1109 0.931 . S
H1120 C1110 0.930 . S
H1121 C1111 0.930 . S
Tb1122 N1153 2.660 . S
Tb1122 N1160 2.600 . S
Tb1122 O1166 2.546 . S
Tb1122 O1167 2.610 . S
Tb1122 O1169 2.320 . S
Tb1122 O1170 2.552 . S
Tb1122 O1171 2.413 . S
Tb1122 O1173 2.362 . S
Tb1122 O1174 2.421 . S
Tb1122 C1186 2.833 . S
C1123 C1126 1.432 . S
C1123 C1127 1.414 . S
C1123 N1130 1.359 . S
C1124 C1126 1.417 . S
C1124 C1128 1.432 . S
C1124 C1136 1.410 . S
C1125 C1127 1.444 . S
C1125 C1128 1.317 . S
C1125 H1148 0.929 . S
C1126 C1123 1.432 . S
C1126 C1124 1.417 . S
C1126 N1134 1.360 . S
C1127 C1123 1.414 . S
C1127 C1125 1.444 . S
C1127 C1132 1.385 . S
C1128 C1124 1.432 . S
C1128 C1125 1.317 . S
C1128 H1140 0.930 . S
C1129 C1131 1.392 . S
C1129 C1132 1.370 . S
C1129 H1141 0.931 . S
N1130 C1123 1.359 . S
N1130 C1131 1.327 . S
N1130 Tb1133 2.600 . S
C1131 C1129 1.392 . S
C1131 N1130 1.327 . S
C1131 H1138 0.930 . S
C1132 C1127 1.385 . S
C1132 C1129 1.370 . S
C1132 H1151 0.930 . S
Tb1133 N1130 2.600 . S
Tb1133 N1134 2.660 . S
Tb1133 O1167 2.362 . S
Tb1133 O1168 2.421 . S
Tb1133 O1172 2.546 . S
Tb1133 O1173 2.610 . S
Tb1133 O1175 2.320 . S
Tb1133 O1176 2.552 . S
Tb1133 O1177 2.413 . S
Tb1133 C1197 2.833 . S
N1134 C1126 1.360 . S
N1134 Tb1133 2.660 . S
N1134 C1135 1.305 . S
C1135 N1134 1.305 . S
C1135 C1137 1.407 . S
C1135 H1142 0.930 . S
C1136 C1124 1.410 . S
C1136 C1137 1.345 . S
C1136 H1144 0.930 . S
C1137 C1135 1.407 . S
C1137 C1136 1.345 . S
C1137 H1139 0.930 . S
H1138 C1131 0.930 . S
H1139 C1137 0.930 . S
H1140 C1128 0.930 . S
H1141 C1129 0.931 . S
H1142 C1135 0.930 . S
H1143 C1157 0.930 . S
H1144 C1136 0.930 . S
H1145 C1163 0.930 . S
H1146 C1154 0.930 . S
H1147 C1161 0.931 . S
H1148 C1125 0.929 . S
H1149 C1155 0.930 . S
H1150 C1188 0.930 . S
H1151 C1132 0.930 . S
H1152 C1187 0.929 . S
N1153 Tb1122 2.660 . S
N1153 C1154 1.305 . S
N1153 C1158 1.360 . S
C1154 H1146 0.930 . S
C1154 N1153 1.305 . S
C1154 C1157 1.407 . S
C1155 H1149 0.930 . S
C1155 C1156 1.410 . S
C1155 C1157 1.345 . S
C1156 C1155 1.410 . S
C1156 C1158 1.417 . S
C1156 C1188 1.432 . S
C1157 H1143 0.930 . S
C1157 C1154 1.407 . S
C1157 C1155 1.345 . S
C1158 N1153 1.360 . S
C1158 C1156 1.417 . S
C1158 C1162 1.432 . S
H1159 C1164 0.930 . S
N1160 Tb1122 2.600 . S
N1160 C1162 1.359 . S
N1160 C1163 1.327 . S
C1161 H1147 0.931 . S
C1161 C1163 1.392 . S
C1161 C1164 1.370 . S
C1162 C1158 1.432 . S
C1162 N1160 1.359 . S
C1162 C1165 1.414 . S
C1163 H1145 0.930 . S
C1163 N1160 1.327 . S
C1163 C1161 1.392 . S
C1164 H1159 0.930 . S
C1164 C1161 1.370 . S
C1164 C1165 1.385 . S
C1165 C1162 1.414 . S
C1165 C1164 1.385 . S
C1165 C1187 1.444 . S
O1166 Tb1122 2.546 . S
O1166 C1186 1.251 . S
O1167 Tb1122 2.610 . S
O1167 Tb1133 2.362 . S
O1167 C1178 1.283 . S
O1168 Tb1133 2.421 . S
O1168 C1185 1.262 . S
O1169 Tb1122 2.320 . S
O1169 C1185 1.260 . S
O1170 Tb1122 2.552 . S
O1170 C1178 1.243 . S
O1171 Tb1122 2.413 . S
O1171 C1186 1.256 . S
O1172 Tb1133 2.546 . S
O1172 C1197 1.251 . S
O1173 Tb1122 2.362 . S
O1173 Tb1133 2.610 . S
O1173 C1189 1.283 . S
O1174 Tb1122 2.421 . S
O1174 C1196 1.262 . S
O1175 Tb1133 2.320 . S
O1175 C1196 1.260 . S
O1176 Tb1133 2.552 . S
O1176 C1189 1.243 . S
O1177 Tb1133 2.413 . S
O1177 C1197 1.256 . S
C1178 O1167 1.283 . S
C1178 O1170 1.243 . S
C1179 C1181 1.382 . S
C1179 C1183 1.393 . S
C1179 C1186 1.500 . S
C1180 C1181 1.400 . S
C1180 C1182 1.384 . S
C1181 C1179 1.382 . S
C1181 C1180 1.400 . S
C1181 H1198 0.930 . S
C1182 C1180 1.384 . S
C1182 C1184 1.392 . S
C1182 H1199 0.931 . S
C1183 C1179 1.393 . S
C1183 C1184 1.401 . S
C1183 H1200 0.930 . S
C1184 C1182 1.392 . S
C1184 C1183 1.401 . S
C1184 H1201 0.930 . S
C1185 O1168 1.262 . S
C1185 O1169 1.260 . S
C1186 Tb1122 2.833 . S
C1186 O1166 1.251 . S
C1186 O1171 1.256 . S
C1186 C1179 1.500 . S
C1187 H1152 0.929 . S
C1187 C1165 1.444 . S
C1187 C1188 1.317 . S
C1188 H1150 0.930 . S
C1188 C1156 1.432 . S
C1188 C1187 1.317 . S
C1189 O1173 1.283 . S
C1189 O1176 1.243 . S
C1190 C1191 1.382 . S
C1190 C1194 1.393 . S
C1190 C1197 1.500 . S
C1191 C1190 1.382 . S
C1191 C1192 1.400 . S
C1191 H1202 0.930 . S
C1192 C1191 1.400 . S
C1192 C1193 1.384 . S
C1193 C1192 1.384 . S
C1193 C1195 1.392 . S
C1193 H1203 0.931 . S
C1194 C1190 1.393 . S
C1194 C1195 1.401 . S
C1194 H1204 0.930 . S
C1195 C1193 1.392 . S
C1195 C1194 1.401 . S
C1195 H1205 0.930 . S
C1196 O1174 1.262 . S
C1196 O1175 1.260 . S
C1197 Tb1133 2.833 . S
C1197 O1172 1.251 . S
C1197 O1177 1.256 . S
C1197 C1190 1.500 . S
H1198 C1181 0.930 . S
H1199 C1182 0.931 . S
H1200 C1183 0.930 . S
H1201 C1184 0.930 . S
H1202 C1191 0.930 . S
H1203 C1193 0.931 . S
H1204 C1194 0.930 . S
H1205 C1195 0.930 . S
Tb1206 N1237 2.660 . S
Tb1206 N1244 2.600 . S
Tb1206 O1250 2.546 . S
Tb1206 O1251 2.610 . S
Tb1206 O1253 2.320 . S
Tb1206 O1254 2.552 . S
Tb1206 O1255 2.413 . S
Tb1206 O1257 2.362 . S
Tb1206 O1258 2.421 . S
Tb1206 C1270 2.833 . S
C1207 C1210 1.432 . S
C1207 C1211 1.414 . S
C1207 N1214 1.359 . S
C1208 C1210 1.417 . S
C1208 C1212 1.432 . S
C1208 C1220 1.410 . S
C1209 C1211 1.444 . S
C1209 C1212 1.317 . S
C1209 H1232 0.929 . S
C1210 C1207 1.432 . S
C1210 C1208 1.417 . S
C1210 N1218 1.360 . S
C1211 C1207 1.414 . S
C1211 C1209 1.444 . S
C1211 C1216 1.385 . S
C1212 C1208 1.432 . S
C1212 C1209 1.317 . S
C1212 H1224 0.930 . S
C1213 C1215 1.392 . S
C1213 C1216 1.370 . S
C1213 H1225 0.931 . S
N1214 C1207 1.359 . S
N1214 C1215 1.327 . S
N1214 Tb1217 2.600 . S
C1215 C1213 1.392 . S
C1215 N1214 1.327 . S
C1215 H1222 0.930 . S
C1216 C1211 1.385 . S
C1216 C1213 1.370 . S
C1216 H1235 0.930 . S
Tb1217 N1214 2.600 . S
Tb1217 N1218 2.660 . S
Tb1217 O1251 2.362 . S
Tb1217 O1252 2.421 . S
Tb1217 O1256 2.546 . S
Tb1217 O1257 2.610 . S
Tb1217 O1259 2.320 . S
Tb1217 O1260 2.552 . S
Tb1217 O1261 2.413 . S
Tb1217 C1281 2.833 . S
N1218 C1210 1.360 . S
N1218 Tb1217 2.660 . S
N1218 C1219 1.305 . S
C1219 N1218 1.305 . S
C1219 C1221 1.407 . S
C1219 H1226 0.930 . S
C1220 C1208 1.410 . S
C1220 C1221 1.345 . S
C1220 H1228 0.930 . S
C1221 C1219 1.407 . S
C1221 C1220 1.345 . S
C1221 H1223 0.930 . S
H1222 C1215 0.930 . S
H1223 C1221 0.930 . S
H1224 C1212 0.930 . S
H1225 C1213 0.931 . S
H1226 C1219 0.930 . S
H1227 C1241 0.930 . S
H1228 C1220 0.930 . S
H1229 C1247 0.930 . S
H1230 C1238 0.930 . S
H1231 C1245 0.931 . S
H1232 C1209 0.929 . S
H1233 C1239 0.930 . S
H1234 C1272 0.930 . S
H1235 C1216 0.930 . S
H1236 C1271 0.929 . S
N1237 Tb1206 2.660 . S
N1237 C1238 1.305 . S
N1237 C1242 1.360 . S
C1238 H1230 0.930 . S
C1238 N1237 1.305 . S
C1238 C1241 1.407 . S
C1239 H1233 0.930 . S
C1239 C1240 1.410 . S
C1239 C1241 1.345 . S
C1240 C1239 1.410 . S
C1240 C1242 1.417 . S
C1240 C1272 1.432 . S
C1241 H1227 0.930 . S
C1241 C1238 1.407 . S
C1241 C1239 1.345 . S
C1242 N1237 1.360 . S
C1242 C1240 1.417 . S
C1242 C1246 1.432 . S
H1243 C1248 0.930 . S
N1244 Tb1206 2.600 . S
N1244 C1246 1.359 . S
N1244 C1247 1.327 . S
C1245 H1231 0.931 . S
C1245 C1247 1.392 . S
C1245 C1248 1.370 . S
C1246 C1242 1.432 . S
C1246 N1244 1.359 . S
C1246 C1249 1.414 . S
C1247 H1229 0.930 . S
C1247 N1244 1.327 . S
C1247 C1245 1.392 . S
C1248 H1243 0.930 . S
C1248 C1245 1.370 . S
C1248 C1249 1.385 . S
C1249 C1246 1.414 . S
C1249 C1248 1.385 . S
C1249 C1271 1.444 . S
O1250 Tb1206 2.546 . S
O1250 C1270 1.251 . S
O1251 Tb1206 2.610 . S
O1251 Tb1217 2.362 . S
O1251 C1262 1.283 . S
O1252 Tb1217 2.421 . S
O1252 C1269 1.262 . S
O1253 Tb1206 2.320 . S
O1253 C1269 1.260 . S
O1254 Tb1206 2.552 . S
O1254 C1262 1.243 . S
O1255 Tb1206 2.413 . S
O1255 C1270 1.256 . S
O1256 Tb1217 2.546 . S
O1256 C1281 1.251 . S
O1257 Tb1206 2.362 . S
O1257 Tb1217 2.610 . S
O1257 C1273 1.283 . S
O1258 Tb1206 2.421 . S
O1258 C1280 1.262 . S
O1259 Tb1217 2.320 . S
O1259 C1280 1.260 . S
O1260 Tb1217 2.552 . S
O1260 C1273 1.243 . S
O1261 Tb1217 2.413 . S
O1261 C1281 1.256 . S
C1262 O1251 1.283 . S
C1262 O1254 1.243 . S
C1263 C1265 1.382 . S
C1263 C1267 1.393 . S
C1263 C1270 1.500 . S
C1264 C1265 1.400 . S
C1264 C1266 1.384 . S
C1265 C1263 1.382 . S
C1265 C1264 1.400 . S
C1265 H1282 0.930 . S
C1266 C1264 1.384 . S
C1266 C1268 1.392 . S
C1266 H1283 0.931 . S
C1267 C1263 1.393 . S
C1267 C1268 1.401 . S
C1267 H1284 0.930 . S
C1268 C1266 1.392 . S
C1268 C1267 1.401 . S
C1268 H1285 0.930 . S
C1269 O1252 1.262 . S
C1269 O1253 1.260 . S
C1270 Tb1206 2.833 . S
C1270 O1250 1.251 . S
C1270 O1255 1.256 . S
C1270 C1263 1.500 . S
C1271 H1236 0.929 . S
C1271 C1249 1.444 . S
C1271 C1272 1.317 . S
C1272 H1234 0.930 . S
C1272 C1240 1.432 . S
C1272 C1271 1.317 . S
C1273 O1257 1.283 . S
C1273 O1260 1.243 . S
C1274 C1275 1.382 . S
C1274 C1278 1.393 . S
C1274 C1281 1.500 . S
C1275 C1274 1.382 . S
C1275 C1276 1.400 . S
C1275 H1286 0.930 . S
C1276 C1275 1.400 . S
C1276 C1277 1.384 . S
C1277 C1276 1.384 . S
C1277 C1279 1.392 . S
C1277 H1287 0.931 . S
C1278 C1274 1.393 . S
C1278 C1279 1.401 . S
C1278 H1288 0.930 . S
C1279 C1277 1.392 . S
C1279 C1278 1.401 . S
C1279 H1289 0.930 . S
C1280 O1258 1.262 . S
C1280 O1259 1.260 . S
C1281 Tb1217 2.833 . S
C1281 O1256 1.251 . S
C1281 O1261 1.256 . S
C1281 C1274 1.500 . S
H1282 C1265 0.930 . S
H1283 C1266 0.931 . S
H1284 C1267 0.930 . S
H1285 C1268 0.930 . S
H1286 C1275 0.930 . S
H1287 C1277 0.931 . S
H1288 C1278 0.930 . S
H1289 C1279 0.930 . S
Tb1290 N1321 2.660 . S
Tb1290 N1328 2.600 . S
Tb1290 O1334 2.546 . S
Tb1290 O1335 2.610 . S
Tb1290 O1337 2.320 . S
Tb1290 O1338 2.552 . S
Tb1290 O1339 2.413 . S
Tb1290 O1341 2.362 . S
Tb1290 O1342 2.421 . S
Tb1290 C1354 2.833 . S
C1291 C1294 1.432 . S
C1291 C1295 1.414 . S
C1291 N1298 1.359 . S
C1292 C1294 1.417 . S
C1292 C1296 1.432 . S
C1292 C1304 1.410 . S
C1293 C1295 1.444 . S
C1293 C1296 1.317 . S
C1293 H1316 0.929 . S
C1294 C1291 1.432 . S
C1294 C1292 1.417 . S
C1294 N1302 1.360 . S
C1295 C1291 1.414 . S
C1295 C1293 1.444 . S
C1295 C1300 1.385 . S
C1296 C1292 1.432 . S
C1296 C1293 1.317 . S
C1296 H1308 0.930 . S
C1297 C1299 1.392 . S
C1297 C1300 1.370 . S
C1297 H1309 0.931 . S
N1298 C1291 1.359 . S
N1298 C1299 1.327 . S
N1298 Tb1301 2.600 . S
C1299 C1297 1.392 . S
C1299 N1298 1.327 . S
C1299 H1306 0.930 . S
C1300 C1295 1.385 . S
C1300 C1297 1.370 . S
C1300 H1319 0.930 . S
Tb1301 N1298 2.600 . S
Tb1301 N1302 2.660 . S
Tb1301 O1335 2.362 . S
Tb1301 O1336 2.421 . S
Tb1301 O1340 2.546 . S
Tb1301 O1341 2.610 . S
Tb1301 O1343 2.320 . S
Tb1301 O1344 2.552 . S
Tb1301 O1345 2.413 . S
Tb1301 C1365 2.833 . S
N1302 C1294 1.360 . S
N1302 Tb1301 2.660 . S
N1302 C1303 1.305 . S
C1303 N1302 1.305 . S
C1303 C1305 1.407 . S
C1303 H1310 0.930 . S
C1304 C1292 1.410 . S
C1304 C1305 1.345 . S
C1304 H1312 0.930 . S
C1305 C1303 1.407 . S
C1305 C1304 1.345 . S
C1305 H1307 0.930 . S
H1306 C1299 0.930 . S
H1307 C1305 0.930 . S
H1308 C1296 0.930 . S
H1309 C1297 0.931 . S
H1310 C1303 0.930 . S
H1311 C1325 0.930 . S
H1312 C1304 0.930 . S
H1313 C1331 0.930 . S
H1314 C1322 0.930 . S
H1315 C1329 0.931 . S
H1316 C1293 0.929 . S
H1317 C1323 0.930 . S
H1318 C1356 0.930 . S
H1319 C1300 0.930 . S
H1320 C1355 0.929 . S
N1321 Tb1290 2.660 . S
N1321 C1322 1.305 . S
N1321 C1326 1.360 . S
C1322 H1314 0.930 . S
C1322 N1321 1.305 . S
C1322 C1325 1.407 . S
C1323 H1317 0.930 . S
C1323 C1324 1.410 . S
C1323 C1325 1.345 . S
C1324 C1323 1.410 . S
C1324 C1326 1.417 . S
C1324 C1356 1.432 . S
C1325 H1311 0.930 . S
C1325 C1322 1.407 . S
C1325 C1323 1.345 . S
C1326 N1321 1.360 . S
C1326 C1324 1.417 . S
C1326 C1330 1.432 . S
H1327 C1332 0.930 . S
N1328 Tb1290 2.600 . S
N1328 C1330 1.359 . S
N1328 C1331 1.327 . S
C1329 H1315 0.931 . S
C1329 C1331 1.392 . S
C1329 C1332 1.370 . S
C1330 C1326 1.432 . S
C1330 N1328 1.359 . S
C1330 C1333 1.414 . S
C1331 H1313 0.930 . S
C1331 N1328 1.327 . S
C1331 C1329 1.392 . S
C1332 H1327 0.930 . S
C1332 C1329 1.370 . S
C1332 C1333 1.385 . S
C1333 C1330 1.414 . S
C1333 C1332 1.385 . S
C1333 C1355 1.444 . S
O1334 Tb1290 2.546 . S
O1334 C1354 1.251 . S
O1335 Tb1290 2.610 . S
O1335 Tb1301 2.362 . S
O1335 C1346 1.283 . S
O1336 Tb1301 2.421 . S
O1336 C1353 1.262 . S
O1337 Tb1290 2.320 . S
O1337 C1353 1.260 . S
O1338 Tb1290 2.552 . S
O1338 C1346 1.243 . S
O1339 Tb1290 2.413 . S
O1339 C1354 1.256 . S
O1340 Tb1301 2.546 . S
O1340 C1365 1.251 . S
O1341 Tb1290 2.362 . S
O1341 Tb1301 2.610 . S
O1341 C1357 1.283 . S
O1342 Tb1290 2.421 . S
O1342 C1364 1.262 . S
O1343 Tb1301 2.320 . S
O1343 C1364 1.260 . S
O1344 Tb1301 2.552 . S
O1344 C1357 1.243 . S
O1345 Tb1301 2.413 . S
O1345 C1365 1.256 . S
C1346 O1335 1.283 . S
C1346 O1338 1.243 . S
C1347 C1349 1.382 . S
C1347 C1351 1.393 . S
C1347 C1354 1.500 . S
C1348 C1349 1.400 . S
C1348 C1350 1.384 . S
C1349 C1347 1.382 . S
C1349 C1348 1.400 . S
C1349 H1366 0.930 . S
C1350 C1348 1.384 . S
C1350 C1352 1.392 . S
C1350 H1367 0.931 . S
C1351 C1347 1.393 . S
C1351 C1352 1.401 . S
C1351 H1368 0.930 . S
C1352 C1350 1.392 . S
C1352 C1351 1.401 . S
C1352 H1369 0.930 . S
C1353 O1336 1.262 . S
C1353 O1337 1.260 . S
C1354 Tb1290 2.833 . S
C1354 O1334 1.251 . S
C1354 O1339 1.256 . S
C1354 C1347 1.500 . S
C1355 H1320 0.929 . S
C1355 C1333 1.444 . S
C1355 C1356 1.317 . S
C1356 H1318 0.930 . S
C1356 C1324 1.432 . S
C1356 C1355 1.317 . S
C1357 O1341 1.283 . S
C1357 O1344 1.243 . S
C1358 C1359 1.382 . S
C1358 C1362 1.393 . S
C1358 C1365 1.500 . S
C1359 C1358 1.382 . S
C1359 C1360 1.400 . S
C1359 H1370 0.930 . S
C1360 C1359 1.400 . S
C1360 C1361 1.384 . S
C1361 C1360 1.384 . S
C1361 C1363 1.392 . S
C1361 H1371 0.931 . S
C1362 C1358 1.393 . S
C1362 C1363 1.401 . S
C1362 H1372 0.930 . S
C1363 C1361 1.392 . S
C1363 C1362 1.401 . S
C1363 H1373 0.930 . S
C1364 O1342 1.262 . S
C1364 O1343 1.260 . S
C1365 Tb1301 2.833 . S
C1365 O1340 1.251 . S
C1365 O1345 1.256 . S
C1365 C1358 1.500 . S
H1366 C1349 0.930 . S
H1367 C1350 0.931 . S
H1368 C1351 0.930 . S
H1369 C1352 0.930 . S
H1370 C1359 0.930 . S
H1371 C1361 0.931 . S
H1372 C1362 0.930 . S
H1373 C1363 0.930 . S
Tb1374 N1405 2.660 . S
Tb1374 N1412 2.600 . S
Tb1374 O1418 2.546 . S
Tb1374 O1419 2.610 . S
Tb1374 O1421 2.320 . S
Tb1374 O1422 2.552 . S
Tb1374 O1423 2.413 . S
Tb1374 O1425 2.362 . S
Tb1374 O1426 2.421 . S
Tb1374 C1438 2.833 . S
C1375 C1378 1.432 . S
C1375 C1379 1.414 . S
C1375 N1382 1.359 . S
C1376 C1378 1.417 . S
C1376 C1380 1.432 . S
C1376 C1388 1.410 . S
C1377 C1379 1.444 . S
C1377 C1380 1.317 . S
C1377 H1400 0.929 . S
C1378 C1375 1.432 . S
C1378 C1376 1.417 . S
C1378 N1386 1.360 . S
C1379 C1375 1.414 . S
C1379 C1377 1.444 . S
C1379 C1384 1.385 . S
C1380 C1376 1.432 . S
C1380 C1377 1.317 . S
C1380 H1392 0.930 . S
C1381 C1383 1.392 . S
C1381 C1384 1.370 . S
C1381 H1393 0.931 . S
N1382 C1375 1.359 . S
N1382 C1383 1.327 . S
N1382 Tb1385 2.600 . S
C1383 C1381 1.392 . S
C1383 N1382 1.327 . S
C1383 H1390 0.930 . S
C1384 C1379 1.385 . S
C1384 C1381 1.370 . S
C1384 H1403 0.930 . S
Tb1385 N1382 2.600 . S
Tb1385 N1386 2.660 . S
Tb1385 O1419 2.362 . S
Tb1385 O1420 2.421 . S
Tb1385 O1424 2.546 . S
Tb1385 O1425 2.610 . S
Tb1385 O1427 2.320 . S
Tb1385 O1428 2.552 . S
Tb1385 O1429 2.413 . S
Tb1385 C1449 2.833 . S
N1386 C1378 1.360 . S
N1386 Tb1385 2.660 . S
N1386 C1387 1.305 . S
C1387 N1386 1.305 . S
C1387 C1389 1.407 . S
C1387 H1394 0.930 . S
C1388 C1376 1.410 . S
C1388 C1389 1.345 . S
C1388 H1396 0.930 . S
C1389 C1387 1.407 . S
C1389 C1388 1.345 . S
C1389 H1391 0.930 . S
H1390 C1383 0.930 . S
H1391 C1389 0.930 . S
H1392 C1380 0.930 . S
H1393 C1381 0.931 . S
H1394 C1387 0.930 . S
H1395 C1409 0.930 . S
H1396 C1388 0.930 . S
H1397 C1415 0.930 . S
H1398 C1406 0.930 . S
H1399 C1413 0.931 . S
H1400 C1377 0.929 . S
H1401 C1407 0.930 . S
H1402 C1440 0.930 . S
H1403 C1384 0.930 . S
H1404 C1439 0.929 . S
N1405 Tb1374 2.660 . S
N1405 C1406 1.305 . S
N1405 C1410 1.360 . S
C1406 H1398 0.930 . S
C1406 N1405 1.305 . S
C1406 C1409 1.407 . S
C1407 H1401 0.930 . S
C1407 C1408 1.410 . S
C1407 C1409 1.345 . S
C1408 C1407 1.410 . S
C1408 C1410 1.417 . S
C1408 C1440 1.432 . S
C1409 H1395 0.930 . S
C1409 C1406 1.407 . S
C1409 C1407 1.345 . S
C1410 N1405 1.360 . S
C1410 C1408 1.417 . S
C1410 C1414 1.432 . S
H1411 C1416 0.930 . S
N1412 Tb1374 2.600 . S
N1412 C1414 1.359 . S
N1412 C1415 1.327 . S
C1413 H1399 0.931 . S
C1413 C1415 1.392 . S
C1413 C1416 1.370 . S
C1414 C1410 1.432 . S
C1414 N1412 1.359 . S
C1414 C1417 1.414 . S
C1415 H1397 0.930 . S
C1415 N1412 1.327 . S
C1415 C1413 1.392 . S
C1416 H1411 0.930 . S
C1416 C1413 1.370 . S
C1416 C1417 1.385 . S
C1417 C1414 1.414 . S
C1417 C1416 1.385 . S
C1417 C1439 1.444 . S
O1418 Tb1374 2.546 . S
O1418 C1438 1.251 . S
O1419 Tb1374 2.610 . S
O1419 Tb1385 2.362 . S
O1419 C1430 1.283 . S
O1420 Tb1385 2.421 . S
O1420 C1437 1.262 . S
O1421 Tb1374 2.320 . S
O1421 C1437 1.260 . S
O1422 Tb1374 2.552 . S
O1422 C1430 1.243 . S
O1423 Tb1374 2.413 . S
O1423 C1438 1.256 . S
O1424 Tb1385 2.546 . S
O1424 C1449 1.251 . S
O1425 Tb1374 2.362 . S
O1425 Tb1385 2.610 . S
O1425 C1441 1.283 . S
O1426 Tb1374 2.421 . S
O1426 C1448 1.262 . S
O1427 Tb1385 2.320 . S
O1427 C1448 1.260 . S
O1428 Tb1385 2.552 . S
O1428 C1441 1.243 . S
O1429 Tb1385 2.413 . S
O1429 C1449 1.256 . S
C1430 O1419 1.283 . S
C1430 O1422 1.243 . S
C1431 C1433 1.382 . S
C1431 C1435 1.393 . S
C1431 C1438 1.500 . S
C1432 C1433 1.400 . S
C1432 C1434 1.384 . S
C1433 C1431 1.382 . S
C1433 C1432 1.400 . S
C1433 H1450 0.930 . S
C1434 C1432 1.384 . S
C1434 C1436 1.392 . S
C1434 H1451 0.931 . S
C1435 C1431 1.393 . S
C1435 C1436 1.401 . S
C1435 H1452 0.930 . S
C1436 C1434 1.392 . S
C1436 C1435 1.401 . S
C1436 H1453 0.930 . S
C1437 O1420 1.262 . S
C1437 O1421 1.260 . S
C1438 Tb1374 2.833 . S
C1438 O1418 1.251 . S
C1438 O1423 1.256 . S
C1438 C1431 1.500 . S
C1439 H1404 0.929 . S
C1439 C1417 1.444 . S
C1439 C1440 1.317 . S
C1440 H1402 0.930 . S
C1440 C1408 1.432 . S
C1440 C1439 1.317 . S
C1441 O1425 1.283 . S
C1441 O1428 1.243 . S
C1442 C1443 1.382 . S
C1442 C1446 1.393 . S
C1442 C1449 1.500 . S
C1443 C1442 1.382 . S
C1443 C1444 1.400 . S
C1443 H1454 0.930 . S
C1444 C1443 1.400 . S
C1444 C1445 1.384 . S
C1445 C1444 1.384 . S
C1445 C1447 1.392 . S
C1445 H1455 0.931 . S
C1446 C1442 1.393 . S
C1446 C1447 1.401 . S
C1446 H1456 0.930 . S
C1447 C1445 1.392 . S
C1447 C1446 1.401 . S
C1447 H1457 0.930 . S
C1448 O1426 1.262 . S
C1448 O1427 1.260 . S
C1449 Tb1385 2.833 . S
C1449 O1424 1.251 . S
C1449 O1429 1.256 . S
C1449 C1442 1.500 . S
H1450 C1433 0.930 . S
H1451 C1434 0.931 . S
H1452 C1435 0.930 . S
H1453 C1436 0.930 . S
H1454 C1443 0.930 . S
H1455 C1445 0.931 . S
H1456 C1446 0.930 . S
H1457 C1447 0.930 . S
H1458 C1476 0.951 . S
H1459 C1478 0.951 . S
H1460 C1480 0.950 . S
H1461 C1481 0.950 . S
H1462 C1483 0.950 . S
H1463 C1486 0.950 . S
H1464 C1487 0.950 . S
H1465 C1489 0.950 . S
H1466 C1490 0.950 . S
H1467 C1491 0.951 . S
H1468 C1493 0.951 . S
H1469 C1495 0.950 . S
H1470 C1496 0.950 . S
H1471 C1498 0.950 . S
H1472 C1501 0.950 . S
H1473 C1502 0.950 . S
H1474 C1504 0.950 . S
H1475 C1505 0.950 . S
C1476 H1458 0.951 . S
C1476 C1477 1.366 . S
C1476 C1478 1.388 . S
C1477 C1476 1.366 . S
C1477 C1481 1.385 . S
C1478 H1459 0.951 . S
C1478 C1476 1.388 . S
C1478 C1479 1.366 . S
C1479 C1478 1.366 . S
C1479 C1480 1.414 . S
C1479 C1482 1.499 . S
C1480 H1460 0.950 . S
C1480 C1479 1.414 . S
C1480 C1481 1.374 . S
C1481 H1461 0.950 . S
C1481 C1477 1.385 . S
C1481 C1480 1.374 . S
C1482 C1479 1.499 . S
C1482 C1483 1.373 . S
C1482 C1484 1.389 . S
C1483 H1462 0.950 . S
C1483 C1482 1.373 . S
C1483 C1499 1.377 . S
C1484 C1482 1.389 . S
C1484 C1485 1.524 . S
C1484 C1498 1.377 . S
C1485 C1484 1.524 . S
C1485 C1486 1.397 . S
C1485 C1490 1.363 . S
C1486 H1463 0.950 . S
C1486 C1485 1.397 . S
C1486 C1487 1.334 . S
C1487 H1464 0.950 . S
C1487 C1486 1.334 . S
C1487 C1488 1.287 . S
C1488 C1487 1.287 . S
C1488 C1489 1.524 . S
C1488 H1507 0.913 . S
C1489 H1465 0.950 . S
C1489 C1488 1.524 . S
C1489 C1490 1.415 . S
C1490 H1466 0.950 . S
C1490 C1485 1.363 . S
C1490 C1489 1.415 . S
C1491 H1467 0.951 . S
C1491 C1492 1.366 . S
C1491 C1493 1.388 . S
C1492 C1491 1.366 . S
C1492 C1496 1.385 . S
C1493 H1468 0.951 . S
C1493 C1491 1.388 . S
C1493 C1494 1.366 . S
C1494 C1493 1.366 . S
C1494 C1495 1.414 . S
C1494 C1497 1.499 . S
C1495 H1469 0.950 . S
C1495 C1494 1.414 . S
C1495 C1496 1.374 . S
C1496 H1470 0.950 . S
C1496 C1492 1.385 . S
C1496 C1495 1.374 . S
C1497 C1494 1.499 . S
C1497 C1498 1.373 . S
C1497 C1499 1.389 . S
C1498 H1471 0.950 . S
C1498 C1484 1.377 . S
C1498 C1497 1.373 . S
C1499 C1483 1.377 . S
C1499 C1497 1.389 . S
C1499 C1500 1.524 . S
C1500 C1499 1.524 . S
C1500 C1501 1.397 . S
C1500 C1505 1.363 . S
C1501 H1472 0.950 . S
C1501 C1500 1.397 . S
C1501 C1502 1.334 1_554 S
C1502 H1473 0.950 . S
C1502 C1501 1.334 1_556 S
C1502 C1503 1.287 . S
C1503 C1502 1.287 . S
C1503 C1504 1.524 . S
C1503 H1506 0.999 . S
C1504 H1474 0.950 . S
C1504 C1503 1.524 . S
C1504 C1505 1.415 1_556 S
C1505 H1475 0.950 . S
C1505 C1500 1.363 . S
C1505 C1504 1.415 1_554 S
H1506 C1503 0.999 . S
H1507 C1488 0.913 . S
H1508 C1526 0.951 . S
H1509 C1528 0.951 . S
H1510 C1530 0.950 . S
H1511 C1531 0.950 . S
H1512 C1533 0.950 . S
H1513 C1536 0.950 . S
H1514 C1537 0.950 . S
H1515 C1539 0.950 . S
H1516 C1540 0.950 . S
H1517 C1541 0.951 . S
H1518 C1543 0.951 . S
H1519 C1545 0.950 . S
H1520 C1546 0.950 . S
H1521 C1548 0.950 . S
H1522 C1551 0.950 . S
H1523 C1552 0.950 . S
H1524 C1554 0.950 . S
H1525 C1555 0.950 . S
C1526 H1508 0.951 . S
C1526 C1527 1.366 . S
C1526 C1528 1.388 . S
C1527 C1526 1.366 . S
C1527 C1531 1.385 . S
C1528 H1509 0.951 . S
C1528 C1526 1.388 . S
C1528 C1529 1.366 . S
C1529 C1528 1.366 . S
C1529 C1530 1.414 . S
C1529 C1532 1.499 . S
C1530 H1510 0.950 . S
C1530 C1529 1.414 . S
C1530 C1531 1.374 . S
C1531 H1511 0.950 . S
C1531 C1527 1.385 . S
C1531 C1530 1.374 . S
C1532 C1529 1.499 . S
C1532 C1533 1.373 . S
C1532 C1534 1.389 . S
C1533 H1512 0.950 . S
C1533 C1532 1.373 . S
C1533 C1549 1.377 . S
C1534 C1532 1.389 . S
C1534 C1535 1.524 . S
C1534 C1548 1.377 . S
C1535 C1534 1.524 . S
C1535 C1536 1.397 . S
C1535 C1540 1.363 . S
C1536 H1513 0.950 . S
C1536 C1535 1.397 . S
C1536 C1537 1.334 . S
C1537 H1514 0.950 . S
C1537 C1536 1.334 . S
C1537 C1538 1.287 . S
C1538 C1537 1.287 . S
C1538 C1539 1.524 . S
C1538 H1557 0.913 . S
C1539 H1515 0.950 . S
C1539 C1538 1.524 . S
C1539 C1540 1.415 . S
C1540 H1516 0.950 . S
C1540 C1535 1.363 . S
C1540 C1539 1.415 . S
C1541 H1517 0.951 . S
C1541 C1542 1.366 . S
C1541 C1543 1.388 . S
C1542 C1541 1.366 . S
C1542 C1546 1.385 . S
C1543 H1518 0.951 . S
C1543 C1541 1.388 . S
C1543 C1544 1.366 . S
C1544 C1543 1.366 . S
C1544 C1545 1.414 . S
C1544 C1547 1.499 . S
C1545 H1519 0.950 . S
C1545 C1544 1.414 . S
C1545 C1546 1.374 . S
C1546 H1520 0.950 . S
C1546 C1542 1.385 . S
C1546 C1545 1.374 . S
C1547 C1544 1.499 . S
C1547 C1548 1.373 . S
C1547 C1549 1.389 . S
C1548 H1521 0.950 . S
C1548 C1534 1.377 . S
C1548 C1547 1.373 . S
C1549 C1533 1.377 . S
C1549 C1547 1.389 . S
C1549 C1550 1.524 . S
C1550 C1549 1.524 . S
C1550 C1551 1.397 . S
C1550 C1555 1.363 . S
C1551 H1522 0.950 . S
C1551 C1550 1.397 . S
C1551 C1552 1.334 . S
C1552 H1523 0.950 . S
C1552 C1551 1.334 . S
C1552 C1553 1.287 . S
C1553 C1552 1.287 . S
C1553 C1554 1.524 . S
C1553 H1556 0.999 . S
C1554 H1524 0.950 . S
C1554 C1553 1.524 . S
C1554 C1555 1.415 . S
C1555 H1525 0.950 . S
C1555 C1550 1.363 . S
C1555 C1554 1.415 . S
H1556 C1553 0.999 . S
H1557 C1538 0.913 . S
H1558 C1576 0.951 . S
H1559 C1578 0.951 . S
H1560 C1580 0.950 . S
H1561 C1581 0.950 . S
H1562 C1583 0.950 . S
H1563 C1586 0.950 . S
H1564 C1587 0.950 . S
H1565 C1589 0.950 . S
H1566 C1590 0.950 . S
H1567 C1591 0.951 . S
H1568 C1593 0.951 . S
H1569 C1595 0.950 . S
H1570 C1596 0.950 . S
H1571 C1598 0.950 . S
H1572 C1601 0.950 . S
H1573 C1602 0.950 . S
H1574 C1604 0.950 . S
H1575 C1605 0.950 . S
C1576 H1558 0.951 . S
C1576 C1577 1.366 . S
C1576 C1578 1.388 . S
C1577 C1576 1.366 . S
C1577 C1581 1.385 . S
C1578 H1559 0.951 . S
C1578 C1576 1.388 . S
C1578 C1579 1.366 . S
C1579 C1578 1.366 . S
C1579 C1580 1.414 . S
C1579 C1582 1.499 . S
C1580 H1560 0.950 . S
C1580 C1579 1.414 . S
C1580 C1581 1.374 . S
C1581 H1561 0.950 . S
C1581 C1577 1.385 . S
C1581 C1580 1.374 . S
C1582 C1579 1.499 . S
C1582 C1583 1.373 . S
C1582 C1584 1.389 . S
C1583 H1562 0.950 . S
C1583 C1582 1.373 . S
C1583 C1599 1.377 . S
C1584 C1582 1.389 . S
C1584 C1585 1.524 . S
C1584 C1598 1.377 . S
C1585 C1584 1.524 . S
C1585 C1586 1.397 . S
C1585 C1590 1.363 . S
C1586 H1563 0.950 . S
C1586 C1585 1.397 . S
C1586 C1587 1.334 . S
C1587 H1564 0.950 . S
C1587 C1586 1.334 . S
C1587 C1588 1.287 . S
C1588 C1587 1.287 . S
C1588 C1589 1.524 . S
C1588 H1607 0.913 . S
C1589 H1565 0.950 . S
C1589 C1588 1.524 . S
C1589 C1590 1.415 . S
C1590 H1566 0.950 . S
C1590 C1585 1.363 . S
C1590 C1589 1.415 . S
C1591 H1567 0.951 . S
C1591 C1592 1.366 . S
C1591 C1593 1.388 . S
C1592 C1591 1.366 . S
C1592 C1596 1.385 . S
C1593 H1568 0.951 . S
C1593 C1591 1.388 . S
C1593 C1594 1.366 . S
C1594 C1593 1.366 . S
C1594 C1595 1.414 . S
C1594 C1597 1.499 . S
C1595 H1569 0.950 . S
C1595 C1594 1.414 . S
C1595 C1596 1.374 . S
C1596 H1570 0.950 . S
C1596 C1592 1.385 . S
C1596 C1595 1.374 . S
C1597 C1594 1.499 . S
C1597 C1598 1.373 . S
C1597 C1599 1.389 . S
C1598 H1571 0.950 . S
C1598 C1584 1.377 . S
C1598 C1597 1.373 . S
C1599 C1583 1.377 . S
C1599 C1597 1.389 . S
C1599 C1600 1.524 . S
C1600 C1599 1.524 . S
C1600 C1601 1.397 . S
C1600 C1605 1.363 . S
C1601 H1572 0.950 . S
C1601 C1600 1.397 . S
C1601 C1602 1.334 . S
C1602 H1573 0.950 . S
C1602 C1601 1.334 . S
C1602 C1603 1.287 . S
C1603 C1602 1.287 . S
C1603 C1604 1.524 . S
C1603 H1606 0.999 . S
C1604 H1574 0.950 . S
C1604 C1603 1.524 . S
C1604 C1605 1.415 . S
C1605 H1575 0.950 . S
C1605 C1600 1.363 . S
C1605 C1604 1.415 . S
H1606 C1603 0.999 . S
H1607 C1588 0.913 . S
H1608 C1626 0.951 . S
H1609 C1628 0.951 . S
H1610 C1630 0.950 . S
H1611 C1631 0.950 . S
H1612 C1633 0.950 . S
H1613 C1636 0.950 . S
H1614 C1637 0.950 . S
H1615 C1639 0.950 . S
H1616 C1640 0.950 . S
H1617 C1641 0.951 1_554 S
H1618 C1643 0.951 . S
H1619 C1645 0.950 . S
H1620 C1646 0.950 . S
H1621 C1648 0.950 . S
H1622 C1651 0.950 1_556 S
H1623 C1652 0.950 . S
H1624 C1654 0.950 . S
H1625 C1655 0.950 . S
C1626 H1608 0.951 . S
C1626 C1627 1.366 . S
C1626 C1628 1.388 . S
C1627 C1626 1.366 . S
C1627 C1631 1.385 . S
C1628 H1609 0.951 . S
C1628 C1626 1.388 . S
C1628 C1629 1.366 . S
C1629 C1628 1.366 . S
C1629 C1630 1.414 . S
C1629 C1632 1.499 . S
C1630 H1610 0.950 . S
C1630 C1629 1.414 . S
C1630 C1631 1.374 . S
C1631 H1611 0.950 . S
C1631 C1627 1.385 . S
C1631 C1630 1.374 . S
C1632 C1629 1.499 . S
C1632 C1633 1.373 . S
C1632 C1634 1.389 . S
C1633 H1612 0.950 . S
C1633 C1632 1.373 . S
C1633 C1649 1.377 . S
C1634 C1632 1.389 . S
C1634 C1635 1.524 . S
C1634 C1648 1.377 . S
C1635 C1634 1.524 . S
C1635 C1636 1.397 . S
C1635 C1640 1.363 . S
C1636 H1613 0.950 . S
C1636 C1635 1.397 . S
C1636 C1637 1.334 . S
C1637 H1614 0.950 . S
C1637 C1636 1.334 . S
C1637 C1638 1.287 . S
C1638 C1637 1.287 . S
C1638 C1639 1.524 . S
C1638 H1657 0.913 . S
C1639 H1615 0.950 . S
C1639 C1638 1.524 . S
C1639 C1640 1.415 . S
C1640 H1616 0.950 . S
C1640 C1635 1.363 . S
C1640 C1639 1.415 . S
C1641 H1617 0.951 1_556 S
C1641 C1642 1.366 . S
C1641 C1643 1.388 . S
C1642 C1641 1.366 . S
C1642 C1646 1.385 . S
C1643 H1618 0.951 . S
C1643 C1641 1.388 . S
C1643 C1644 1.366 . S
C1644 C1643 1.366 . S
C1644 C1645 1.414 . S
C1644 C1647 1.499 . S
C1645 H1619 0.950 . S
C1645 C1644 1.414 . S
C1645 C1646 1.374 . S
C1646 H1620 0.950 . S
C1646 C1642 1.385 . S
C1646 C1645 1.374 . S
C1647 C1644 1.499 . S
C1647 C1648 1.373 . S
C1647 C1649 1.389 . S
C1648 H1621 0.950 . S
C1648 C1634 1.377 . S
C1648 C1647 1.373 . S
C1649 C1633 1.377 . S
C1649 C1647 1.389 . S
C1649 C1650 1.524 . S
C1650 C1649 1.524 . S
C1650 C1651 1.397 1_556 S
C1650 C1655 1.363 1_556 S
C1651 H1622 0.950 1_554 S
C1651 C1650 1.397 1_554 S
C1651 C1652 1.334 . S
C1652 H1623 0.950 . S
C1652 C1651 1.334 . S
C1652 C1653 1.287 . S
C1653 C1652 1.287 . S
C1653 C1654 1.524 . S
C1653 H1656 0.999 . S
C1654 H1624 0.950 . S
C1654 C1653 1.524 . S
C1654 C1655 1.415 . S
C1655 H1625 0.950 . S
C1655 C1650 1.363 1_554 S
C1655 C1654 1.415 . S
H1656 C1653 0.999 . S
H1657 C1638 0.913 . S
H1658 C1676 0.951 . S
H1659 C1678 0.951 . S
H1660 C1680 0.950 . S
H1661 C1681 0.950 . S
H1662 C1683 0.950 . S
H1663 C1686 0.950 . S
H1664 C1687 0.950 . S
H1665 C1689 0.950 . S
H1666 C1690 0.950 . S
H1667 C1691 0.951 . S
H1668 C1693 0.951 . S
H1669 C1695 0.950 . S
H1670 C1696 0.950 . S
H1671 C1698 0.950 . S
H1672 C1701 0.948 . S
H1673 C1702 0.950 . S
H1674 C1704 0.950 . S
H1675 C1705 0.950 . S
C1676 H1658 0.951 . S
C1676 C1677 1.366 . S
C1676 C1678 1.388 . S
C1677 C1676 1.366 . S
C1677 C1681 1.385 . S
C1678 H1659 0.951 . S
C1678 C1676 1.388 . S
C1678 C1679 1.366 . S
C1679 C1678 1.366 . S
C1679 C1680 1.414 . S
C1679 C1682 1.499 . S
C1680 H1660 0.950 . S
C1680 C1679 1.414 . S
C1680 C1681 1.374 . S
C1681 H1661 0.950 . S
C1681 C1677 1.385 . S
C1681 C1680 1.374 . S
C1682 C1679 1.499 . S
C1682 C1683 1.373 . S
C1682 C1684 1.389 . S
C1683 H1662 0.950 . S
C1683 C1682 1.373 . S
C1683 C1699 1.377 . S
C1684 C1682 1.389 . S
C1684 C1685 1.524 . S
C1684 C1698 1.377 . S
C1685 C1684 1.524 . S
C1685 C1686 1.397 . S
C1685 C1690 1.363 . S
C1686 H1663 0.950 . S
C1686 C1685 1.397 . S
C1686 C1687 1.334 . S
C1687 H1664 0.950 . S
C1687 C1686 1.334 . S
C1687 C1688 1.287 . S
C1688 C1687 1.287 . S
C1688 C1689 1.524 . S
C1688 H1707 0.913 . S
C1689 H1665 0.950 . S
C1689 C1688 1.524 . S
C1689 C1690 1.415 . S
C1690 H1666 0.950 . S
C1690 C1685 1.363 . S
C1690 C1689 1.415 . S
C1691 H1667 0.951 . S
C1691 C1692 1.366 . S
C1691 C1693 1.388 . S
C1692 C1691 1.366 . S
C1692 C1696 1.385 . S
C1693 H1668 0.951 . S
C1693 C1691 1.388 . S
C1693 C1694 1.366 . S
C1694 C1693 1.366 . S
C1694 C1695 1.414 . S
C1694 C1697 1.499 . S
C1695 H1669 0.950 . S
C1695 C1694 1.414 . S
C1695 C1696 1.374 . S
C1696 H1670 0.950 . S
C1696 C1692 1.385 . S
C1696 C1695 1.374 . S
C1697 C1694 1.499 . S
C1697 C1698 1.373 . S
C1697 C1699 1.389 . S
C1698 H1671 0.950 . S
C1698 C1684 1.377 . S
C1698 C1697 1.373 . S
C1699 C1683 1.377 . S
C1699 C1697 1.389 . S
C1699 C1700 1.524 . S
C1700 C1699 1.524 . S
C1700 C1701 1.397 1_556 S
C1700 C1705 1.363 . S
C1701 H1672 0.948 . S
C1701 C1700 1.397 1_554 S
C1701 C1702 1.334 . S
C1702 H1673 0.950 . S
C1702 C1701 1.334 . S
C1702 C1703 1.287 . S
C1703 C1702 1.287 . S
C1703 C1704 1.524 . S
C1703 H1706 0.999 . S
C1704 H1674 0.950 . S
C1704 C1703 1.524 . S
C1704 C1705 1.415 1_554 S
C1705 H1675 0.950 . S
C1705 C1700 1.363 . S
C1705 C1704 1.415 1_556 S
H1706 C1703 0.999 . S
H1707 C1688 0.913 . S
H1708 C1726 0.951 . S
H1709 C1728 0.951 . S
H1710 C1730 0.950 . S
H1711 C1731 0.950 . S
H1712 C1733 0.950 . S
H1713 C1736 0.950 . S
H1714 C1737 0.950 . S
H1715 C1739 0.950 . S
H1716 C1740 0.950 . S
H1717 C1741 0.951 . S
H1718 C1743 0.951 . S
H1719 C1745 0.950 . S
H1720 C1746 0.950 . S
H1721 C1748 0.950 . S
H1722 C1751 0.950 . S
H1723 C1752 0.950 . S
H1724 C1754 0.950 . S
H1725 C1755 0.950 . S
C1726 H1708 0.951 . S
C1726 C1727 1.366 . S
C1726 C1728 1.388 . S
C1727 C1726 1.366 . S
C1727 C1731 1.385 . S
C1728 H1709 0.951 . S
C1728 C1726 1.388 . S
C1728 C1729 1.366 . S
C1729 C1728 1.366 . S
C1729 C1730 1.414 . S
C1729 C1732 1.499 . S
C1730 H1710 0.950 . S
C1730 C1729 1.414 . S
C1730 C1731 1.374 . S
C1731 H1711 0.950 . S
C1731 C1727 1.385 . S
C1731 C1730 1.374 . S
C1732 C1729 1.499 . S
C1732 C1733 1.373 . S
C1732 C1734 1.389 . S
C1733 H1712 0.950 . S
C1733 C1732 1.373 . S
C1733 C1749 1.377 . S
C1734 C1732 1.389 . S
C1734 C1735 1.524 . S
C1734 C1748 1.377 . S
C1735 C1734 1.524 . S
C1735 C1736 1.397 . S
C1735 C1740 1.363 . S
C1736 H1713 0.950 . S
C1736 C1735 1.397 . S
C1736 C1737 1.334 . S
C1737 H1714 0.950 . S
C1737 C1736 1.334 . S
C1737 C1738 1.287 . S
C1738 C1737 1.287 . S
C1738 C1739 1.524 . S
C1738 H1757 0.913 . S
C1739 H1715 0.950 . S
C1739 C1738 1.524 . S
C1739 C1740 1.415 . S
C1740 H1716 0.950 . S
C1740 C1735 1.363 . S
C1740 C1739 1.415 . S
C1741 H1717 0.951 . S
C1741 C1742 1.366 . S
C1741 C1743 1.388 . S
C1742 C1741 1.366 . S
C1742 C1746 1.385 . S
C1743 H1718 0.951 . S
C1743 C1741 1.388 . S
C1743 C1744 1.366 . S
C1744 C1743 1.366 . S
C1744 C1745 1.414 . S
C1744 C1747 1.499 . S
C1745 H1719 0.950 . S
C1745 C1744 1.414 . S
C1745 C1746 1.374 . S
C1746 H1720 0.950 . S
C1746 C1742 1.385 . S
C1746 C1745 1.374 . S
C1747 C1744 1.499 . S
C1747 C1748 1.373 . S
C1747 C1749 1.389 . S
C1748 H1721 0.950 . S
C1748 C1734 1.377 . S
C1748 C1747 1.373 . S
C1749 C1733 1.377 . S
C1749 C1747 1.389 . S
C1749 C1750 1.524 . S
C1750 C1749 1.524 . S
C1750 C1751 1.397 1_556 S
C1750 C1755 1.363 . S
C1751 H1722 0.950 . S
C1751 C1750 1.397 1_554 S
C1751 C1752 1.334 . S
C1752 H1723 0.950 . S
C1752 C1751 1.334 . S
C1752 C1753 1.287 . S
C1753 C1752 1.287 . S
C1753 C1754 1.524 . S
C1753 H1756 0.999 . S
C1754 H1724 0.950 . S
C1754 C1753 1.524 . S
C1754 C1755 1.415 1_554 S
C1755 H1725 0.950 . S
C1755 C1750 1.363 . S
C1755 C1754 1.415 1_556 S
H1756 C1753 0.999 . S
H1757 C1738 0.913 . S
H1758 C1776 0.951 . S
H1759 C1778 0.951 . S
H1760 C1780 0.950 . S
H1761 C1781 0.950 . S
H1762 C1783 0.950 . S
H1763 C1786 0.950 . S
H1764 C1787 0.950 . S
H1765 C1789 1.035 . S
H1766 C1790 0.944 1_554 S
H1767 C1791 0.951 . S
H1768 C1793 0.951 . S
H1769 C1795 0.954 . S
H1770 C1796 0.886 1_554 S
H1771 C1798 0.950 . S
H1772 C1801 0.950 . S
H1773 C1802 0.950 . S
H1774 C1804 0.950 . S
H1775 C1805 0.950 . S
C1776 H1758 0.951 . S
C1776 C1777 1.366 . S
C1776 C1778 1.388 . S
C1777 C1776 1.366 . S
C1777 C1781 1.385 . S
C1778 H1759 0.951 . S
C1778 C1776 1.388 . S
C1778 C1779 1.366 . S
C1779 C1778 1.366 . S
C1779 C1780 1.414 . S
C1779 C1782 1.499 . S
C1780 H1760 0.950 . S
C1780 C1779 1.414 . S
C1780 C1781 1.374 . S
C1781 H1761 0.950 . S
C1781 C1777 1.385 . S
C1781 C1780 1.374 . S
C1782 C1779 1.499 . S
C1782 C1783 1.373 . S
C1782 C1784 1.389 . S
C1783 H1762 0.950 . S
C1783 C1782 1.373 . S
C1783 C1799 1.377 . S
C1784 C1782 1.389 . S
C1784 C1785 1.524 . S
C1784 C1798 1.377 . S
C1785 C1784 1.524 . S
C1785 C1786 1.397 . S
C1785 C1790 1.363 . S
C1786 H1763 0.950 . S
C1786 C1785 1.397 . S
C1786 C1787 1.334 . S
C1787 H1764 0.950 . S
C1787 C1786 1.334 . S
C1787 C1788 1.287 . S
C1788 C1787 1.287 . S
C1788 C1789 1.465 1_556 S
C1788 H1807 0.913 . S
C1789 H1765 1.035 . S
C1789 C1788 1.465 1_554 S
C1789 C1790 1.379 1_554 S
C1790 H1766 0.944 1_556 S
C1790 C1785 1.363 . S
C1790 C1789 1.379 1_556 S
C1791 H1767 0.951 . S
C1791 C1792 1.366 . S
C1791 C1793 1.388 . S
C1792 C1791 1.366 . S
C1792 C1796 1.424 . S
C1793 H1768 0.951 . S
C1793 C1791 1.388 . S
C1793 C1794 1.366 . S
C1794 C1793 1.366 . S
C1794 C1795 1.414 . S
C1794 C1797 1.499 . S
C1795 H1769 0.954 . S
C1795 C1794 1.414 . S
C1795 C1796 1.401 . S
C1796 H1770 0.886 1_556 S
C1796 C1792 1.424 . S
C1796 C1795 1.401 . S
C1797 C1794 1.499 . S
C1797 C1798 1.373 . S
C1797 C1799 1.389 . S
C1798 H1771 0.950 . S
C1798 C1784 1.377 . S
C1798 C1797 1.373 . S
C1799 C1783 1.377 . S
C1799 C1797 1.389 . S
C1799 C1800 1.524 . S
C1800 C1799 1.524 . S
C1800 C1801 1.397 . S
C1800 C1805 1.363 . S
C1801 H1772 0.950 . S
C1801 C1800 1.397 . S
C1801 C1802 1.334 . S
C1802 H1773 0.950 . S
C1802 C1801 1.334 . S
C1802 C1803 1.287 . S
C1803 C1802 1.287 . S
C1803 C1804 1.524 . S
C1803 H1806 0.999 . S
C1804 H1774 0.950 . S
C1804 C1803 1.524 . S
C1804 C1805 1.415 . S
C1805 H1775 0.950 . S
C1805 C1800 1.363 . S
C1805 C1804 1.415 . S
H1806 C1803 0.999 . S
H1807 C1788 0.913 . S
H1808 C1826 0.951 . S
H1809 C1828 0.951 . S
H1810 C1830 0.950 . S
H1811 C1831 0.950 . S
H1812 C1833 0.950 . S
H1813 C1836 0.950 . S
H1814 C1837 0.950 . S
H1815 C1839 0.950 . S
H1816 C1840 0.950 . S
H1817 C1841 0.951 1_554 S
H1818 C1843 0.951 . S
H1819 C1845 0.950 . S
H1820 C1846 0.950 . S
H1821 C1848 0.950 . S
H1822 C1851 0.950 . S
H1823 C1852 0.950 . S
H1824 C1854 0.950 . S
H1825 C1855 0.950 . S
C1826 H1808 0.951 . S
C1826 C1827 1.366 . S
C1826 C1828 1.388 . S
C1827 C1826 1.366 . S
C1827 C1831 1.385 . S
C1828 H1809 0.951 . S
C1828 C1826 1.388 . S
C1828 C1829 1.366 . S
C1829 C1828 1.366 . S
C1829 C1830 1.414 . S
C1829 C1832 1.499 . S
C1830 H1810 0.950 . S
C1830 C1829 1.414 . S
C1830 C1831 1.374 . S
C1831 H1811 0.950 . S
C1831 C1827 1.385 . S
C1831 C1830 1.374 . S
C1832 C1829 1.499 . S
C1832 C1833 1.373 . S
C1832 C1834 1.389 . S
C1833 H1812 0.950 . S
C1833 C1832 1.373 . S
C1833 C1849 1.377 . S
C1834 C1832 1.389 . S
C1834 C1835 1.524 . S
C1834 C1848 1.377 . S
C1835 C1834 1.524 . S
C1835 C1836 1.397 . S
C1835 C1840 1.363 . S
C1836 H1813 0.950 . S
C1836 C1835 1.397 . S
C1836 C1837 1.334 . S
C1837 H1814 0.950 . S
C1837 C1836 1.334 . S
C1837 C1838 1.287 . S
C1838 C1837 1.287 . S
C1838 C1839 1.524 . S
C1838 H1857 0.913 . S
C1839 H1815 0.950 . S
C1839 C1838 1.524 . S
C1839 C1840 1.415 . S
C1840 H1816 0.950 . S
C1840 C1835 1.363 . S
C1840 C1839 1.415 . S
C1841 H1817 0.951 1_556 S
C1841 C1842 1.366 . S
C1841 C1843 1.388 . S
C1842 C1841 1.366 . S
C1842 C1846 1.385 . S
C1843 H1818 0.951 . S
C1843 C1841 1.388 . S
C1843 C1844 1.366 . S
C1844 C1843 1.366 . S
C1844 C1845 1.414 . S
C1844 C1847 1.499 . S
C1845 H1819 0.950 . S
C1845 C1844 1.414 . S
C1845 C1846 1.374 . S
C1846 H1820 0.950 . S
C1846 C1842 1.385 . S
C1846 C1845 1.374 . S
C1847 C1844 1.499 . S
C1847 C1848 1.373 . S
C1847 C1849 1.389 . S
C1848 H1821 0.950 . S
C1848 C1834 1.377 . S
C1848 C1847 1.373 . S
C1849 C1833 1.377 . S
C1849 C1847 1.389 . S
C1849 C1850 1.524 . S
C1850 C1849 1.524 . S
C1850 C1851 1.397 . S
C1850 C1855 1.363 1_556 S
C1851 H1822 0.950 . S
C1851 C1850 1.397 . S
C1851 C1852 1.334 1_556 S
C1852 H1823 0.950 . S
C1852 C1851 1.334 1_554 S
C1852 C1853 1.287 . S
C1853 C1852 1.287 . S
C1853 C1854 1.524 . S
C1853 H1856 0.999 . S
C1854 H1824 0.950 . S
C1854 C1853 1.524 . S
C1854 C1855 1.415 . S
C1855 H1825 0.950 . S
C1855 C1850 1.363 1_554 S
C1855 C1854 1.415 . S
H1856 C1853 0.999 . S
H1857 C1838 0.913 . S
H1858 C1876 0.951 . S
H1859 C1878 0.951 . S
H1860 C1880 0.950 . S
H1861 C1881 0.950 . S
H1862 C1883 0.950 . S
H1863 C1886 0.950 . S
H1864 C1887 0.949 . S
H1865 C1889 0.950 . S
H1866 C1890 0.950 . S
H1867 C1891 0.951 . S
H1868 C1893 0.951 . S
H1869 C1895 0.950 . S
H1870 C1896 0.997 . S
H1871 C1898 0.950 . S
H1872 C1901 0.950 . S
H1873 C1902 0.950 . S
H1874 C1904 0.950 . S
H1875 C1905 0.950 . S
C1876 H1858 0.951 . S
C1876 C1877 1.366 . S
C1876 C1878 1.388 . S
C1877 C1876 1.366 . S
C1877 C1881 1.385 . S
C1878 H1859 0.951 . S
C1878 C1876 1.388 . S
C1878 C1879 1.366 . S
C1879 C1878 1.366 . S
C1879 C1880 1.414 . S
C1879 C1882 1.499 . S
C1880 H1860 0.950 . S
C1880 C1879 1.414 . S
C1880 C1881 1.374 . S
C1881 H1861 0.950 . S
C1881 C1877 1.385 . S
C1881 C1880 1.374 . S
C1882 C1879 1.499 . S
C1882 C1883 1.373 . S
C1882 C1884 1.389 . S
C1883 H1862 0.950 . S
C1883 C1882 1.373 . S
C1883 C1899 1.377 . S
C1884 C1882 1.389 . S
C1884 C1885 1.524 . S
C1884 C1898 1.377 . S
C1885 C1884 1.524 . S
C1885 C1886 1.397 . S
C1885 C1890 1.363 . S
C1886 H1863 0.950 . S
C1886 C1885 1.397 . S
C1886 C1887 1.326 1_556 S
C1887 H1864 0.949 . S
C1887 C1886 1.326 1_554 S
C1887 C1888 1.294 . S
C1888 C1887 1.294 . S
C1888 C1889 1.524 . S
C1888 H1907 0.913 . S
C1889 H1865 0.950 . S
C1889 C1888 1.524 . S
C1889 C1890 1.415 1_554 S
C1890 H1866 0.950 . S
C1890 C1885 1.363 . S
C1890 C1889 1.415 1_556 S
C1891 H1867 0.951 . S
C1891 C1892 1.366 . S
C1891 C1893 1.388 . S
C1892 C1891 1.366 . S
C1892 C1896 1.385 . S
C1893 H1868 0.951 . S
C1893 C1891 1.388 . S
C1893 C1894 1.366 . S
C1894 C1893 1.366 . S
C1894 C1895 1.414 . S
C1894 C1897 1.499 . S
C1895 H1869 0.950 . S
C1895 C1894 1.414 . S
C1895 C1896 1.374 . S
C1896 H1870 0.997 . S
C1896 C1892 1.385 . S
C1896 C1895 1.374 . S
C1897 C1894 1.499 . S
C1897 C1898 1.373 . S
C1897 C1899 1.389 . S
C1898 H1871 0.950 . S
C1898 C1884 1.377 . S
C1898 C1897 1.373 . S
C1899 C1883 1.377 . S
C1899 C1897 1.389 . S
C1899 C1900 1.524 . S
C1900 C1899 1.524 . S
C1900 C1901 1.397 . S
C1900 C1905 1.363 . S
C1901 H1872 0.950 . S
C1901 C1900 1.397 . S
C1901 C1902 1.334 . S
C1902 H1873 0.950 . S
C1902 C1901 1.334 . S
C1902 C1903 1.287 . S
C1903 C1902 1.287 . S
C1903 C1904 1.524 . S
C1903 H1906 0.999 . S
C1904 H1874 0.950 . S
C1904 C1903 1.524 . S
C1904 C1905 1.415 . S
C1905 H1875 0.950 . S
C1905 C1900 1.363 . S
C1905 C1904 1.415 . S
H1906 C1903 0.999 . S
H1907 C1888 0.913 . S
H1908 C1926 0.951 . S
H1909 C1928 0.951 . S
H1910 C1930 0.950 . S
H1911 C1931 0.950 . S
H1912 C1933 0.950 . S
H1913 C1936 0.950 . S
H1914 C1937 0.950 . S
H1915 C1939 0.950 . S
H1916 C1940 0.950 . S
H1917 C1941 0.951 . S
H1918 C1943 0.951 . S
H1919 C1945 0.950 . S
H1920 C1946 0.950 . S
H1921 C1948 0.950 . S
H1922 C1951 0.950 . S
H1923 C1952 0.940 1_556 S
H1924 C1954 0.950 . S
H1925 C1955 0.950 . S
C1926 H1908 0.951 . S
C1926 C1927 1.366 . S
C1926 C1928 1.388 . S
C1927 C1926 1.366 . S
C1927 C1931 1.385 . S
C1928 H1909 0.951 . S
C1928 C1926 1.388 . S
C1928 C1929 1.366 . S
C1929 C1928 1.366 . S
C1929 C1930 1.414 . S
C1929 C1932 1.499 . S
C1930 H1910 0.950 . S
C1930 C1929 1.414 . S
C1930 C1931 1.374 . S
C1931 H1911 0.950 . S
C1931 C1927 1.385 . S
C1931 C1930 1.374 . S
C1932 C1929 1.499 . S
C1932 C1933 1.373 . S
C1932 C1934 1.389 . S
C1933 H1912 0.950 . S
C1933 C1932 1.373 . S
C1933 C1949 1.377 . S
C1934 C1932 1.389 . S
C1934 C1935 1.524 . S
C1934 C1948 1.377 . S
C1935 C1934 1.524 . S
C1935 C1936 1.397 . S
C1935 C1940 1.363 . S
C1936 H1913 0.950 . S
C1936 C1935 1.397 . S
C1936 C1937 1.334 . S
C1937 H1914 0.950 . S
C1937 C1936 1.334 . S
C1937 C1938 1.287 . S
C1938 C1937 1.287 . S
C1938 C1939 1.524 . S
C1938 H1957 0.913 . S
C1939 H1915 0.950 . S
C1939 C1938 1.524 . S
C1939 C1940 1.415 . S
C1940 H1916 0.950 . S
C1940 C1935 1.363 . S
C1940 C1939 1.415 . S
C1941 H1917 0.951 . S
C1941 C1942 1.366 . S
C1941 C1943 1.388 . S
C1942 C1941 1.366 . S
C1942 C1946 1.385 . S
C1943 H1918 0.951 . S
C1943 C1941 1.388 . S
C1943 C1944 1.366 . S
C1944 C1943 1.366 . S
C1944 C1945 1.414 . S
C1944 C1947 1.499 . S
C1945 H1919 0.950 . S
C1945 C1944 1.414 . S
C1945 C1946 1.374 . S
C1946 H1920 0.950 . S
C1946 C1942 1.385 . S
C1946 C1945 1.374 . S
C1947 C1944 1.499 . S
C1947 C1948 1.373 . S
C1947 C1949 1.389 . S
C1948 H1921 0.950 . S
C1948 C1934 1.377 . S
C1948 C1947 1.373 . S
C1949 C1933 1.377 . S
C1949 C1947 1.389 . S
C1949 C1950 1.524 . S
C1950 C1949 1.524 . S
C1950 C1951 1.397 . S
C1950 C1955 1.363 . S
C1951 H1922 0.950 . S
C1951 C1950 1.397 . S
C1951 C1952 1.343 . S
C1952 H1923 0.940 1_554 S
C1952 C1951 1.343 . S
C1952 C1953 1.289 . S
C1953 C1952 1.289 . S
C1953 C1954 1.524 . S
C1953 H1956 0.999 1_554 S
C1954 H1924 0.950 . S
C1954 C1953 1.524 . S
C1954 C1955 1.415 . S
C1955 H1925 0.950 . S
C1955 C1950 1.363 . S
C1955 C1954 1.415 . S
H1956 C1953 0.999 1_556 S
H1957 C1938 0.913 . S
H1958 C1976 0.951 . S
H1959 C1978 0.951 . S
H1960 C1980 0.950 . S
H1961 C1981 0.950 . S
H1962 C1983 0.950 . S
H1963 C1986 0.950 . S
H1964 C1987 0.950 . S
H1965 C1989 0.950 1_556 S
H1966 C1990 0.950 . S
H1967 C1991 0.951 . S
H1968 C1993 0.951 . S
H1969 C1995 0.950 . S
H1970 C1996 0.950 . S
H1971 C1998 0.950 . S
H1972 C2001 0.950 . S
H1973 C2002 0.950 . S
H1974 C2004 0.950 . S
H1975 C2005 0.950 . S
C1976 H1958 0.951 . S
C1976 C1977 1.366 . S
C1976 C1978 1.388 . S
C1977 C1976 1.366 . S
C1977 C1981 1.385 . S
C1978 H1959 0.951 . S
C1978 C1976 1.388 . S
C1978 C1979 1.366 . S
C1979 C1978 1.366 . S
C1979 C1980 1.414 . S
C1979 C1982 1.499 . S
C1980 H1960 0.950 . S
C1980 C1979 1.414 . S
C1980 C1981 1.374 . S
C1981 H1961 0.950 . S
C1981 C1977 1.385 . S
C1981 C1980 1.374 . S
C1982 C1979 1.499 . S
C1982 C1983 1.373 . S
C1982 C1984 1.389 . S
C1983 H1962 0.950 . S
C1983 C1982 1.373 . S
C1983 C1999 1.377 . S
C1984 C1982 1.389 . S
C1984 C1985 1.524 . S
C1984 C1998 1.377 . S
C1985 C1984 1.524 . S
C1985 C1986 1.397 . S
C1985 C1990 1.363 . S
C1986 H1963 0.950 . S
C1986 C1985 1.397 . S
C1986 C1987 1.334 . S
C1987 H1964 0.950 . S
C1987 C1986 1.334 . S
C1987 C1988 1.287 . S
C1988 C1987 1.287 . S
C1988 C1989 1.524 . S
C1988 H2007 0.913 . S
C1989 H1965 0.950 1_554 S
C1989 C1988 1.524 . S
C1989 C1990 1.415 . S
C1990 H1966 0.950 . S
C1990 C1985 1.363 . S
C1990 C1989 1.415 . S
C1991 H1967 0.951 . S
C1991 C1992 1.366 . S
C1991 C1993 1.388 . S
C1992 C1991 1.366 . S
C1992 C1996 1.385 . S
C1993 H1968 0.951 . S
C1993 C1991 1.388 . S
C1993 C1994 1.366 . S
C1994 C1993 1.366 . S
C1994 C1995 1.414 . S
C1994 C1997 1.499 . S
C1995 H1969 0.950 . S
C1995 C1994 1.414 . S
C1995 C1996 1.374 . S
C1996 H1970 0.950 . S
C1996 C1992 1.385 . S
C1996 C1995 1.374 . S
C1997 C1994 1.499 . S
C1997 C1998 1.373 . S
C1997 C1999 1.389 . S
C1998 H1971 0.950 . S
C1998 C1984 1.377 . S
C1998 C1997 1.373 . S
C1999 C1983 1.377 . S
C1999 C1997 1.389 . S
C1999 C2000 1.524 . S
C2000 C1999 1.524 . S
C2000 C2001 1.397 . S
C2000 C2005 1.363 . S
C2001 H1972 0.950 . S
C2001 C2000 1.397 . S
C2001 C2002 1.334 . S
C2002 H1973 0.950 . S
C2002 C2001 1.334 . S
C2002 C2003 1.287 . S
C2003 C2002 1.287 . S
C2003 C2004 1.524 . S
C2003 H2006 0.999 . S
C2004 H1974 0.950 . S
C2004 C2003 1.524 . S
C2004 C2005 1.415 . S
C2005 H1975 0.950 . S
C2005 C2000 1.363 . S
C2005 C2004 1.415 . S
H2006 C2003 0.999 . S
H2007 C1988 0.913 . S
H2008 C2026 0.951 . S
H2009 C2028 0.951 . S
H2010 C2030 0.950 . S
H2011 C2031 0.950 . S
H2012 C2033 0.950 . S
H2013 C2036 0.950 . S
H2014 C2037 0.950 . S
H2015 C2039 0.950 . S
H2016 C2040 0.950 . S
H2017 C2041 0.951 . S
H2018 C2043 0.951 . S
H2019 C2045 0.950 . S
H2020 C2046 0.950 . S
H2021 C2048 0.950 . S
H2022 C2051 0.950 . S
H2023 C2052 0.950 . S
H2024 C2054 0.950 . S
H2025 C2055 0.950 . S
C2026 H2008 0.951 . S
C2026 C2027 1.366 . S
C2026 C2028 1.388 . S
C2027 C2026 1.366 . S
C2027 C2031 1.385 . S
C2028 H2009 0.951 . S
C2028 C2026 1.388 . S
C2028 C2029 1.366 . S
C2029 C2028 1.366 . S
C2029 C2030 1.414 . S
C2029 C2032 1.499 . S
C2030 H2010 0.950 . S
C2030 C2029 1.414 . S
C2030 C2031 1.374 . S
C2031 H2011 0.950 . S
C2031 C2027 1.385 . S
C2031 C2030 1.374 . S
C2032 C2029 1.499 . S
C2032 C2033 1.373 . S
C2032 C2034 1.389 . S
C2033 H2012 0.950 . S
C2033 C2032 1.373 . S
C2033 C2049 1.377 . S
C2034 C2032 1.389 . S
C2034 C2035 1.524 . S
C2034 C2048 1.377 . S
C2035 C2034 1.524 . S
C2035 C2036 1.397 . S
C2035 C2040 1.363 . S
C2036 H2013 0.950 . S
C2036 C2035 1.397 . S
C2036 C2037 1.334 . S
C2037 H2014 0.950 . S
C2037 C2036 1.334 . S
C2037 C2038 1.287 . S
C2038 C2037 1.287 . S
C2038 C2039 1.524 . S
C2038 H2057 0.913 . S
C2039 H2015 0.950 . S
C2039 C2038 1.524 . S
C2039 C2040 1.415 . S
C2040 H2016 0.950 . S
C2040 C2035 1.363 . S
C2040 C2039 1.415 . S
C2041 H2017 0.951 . S
C2041 C2042 1.366 . S
C2041 C2043 1.388 . S
C2042 C2041 1.366 . S
C2042 C2046 1.385 . S
C2043 H2018 0.951 . S
C2043 C2041 1.388 . S
C2043 C2044 1.366 . S
C2044 C2043 1.366 . S
C2044 C2045 1.414 . S
C2044 C2047 1.499 . S
C2045 H2019 0.950 . S
C2045 C2044 1.414 . S
C2045 C2046 1.374 . S
C2046 H2020 0.950 . S
C2046 C2042 1.385 . S
C2046 C2045 1.374 . S
C2047 C2044 1.499 . S
C2047 C2048 1.373 . S
C2047 C2049 1.389 . S
C2048 H2021 0.950 . S
C2048 C2034 1.377 . S
C2048 C2047 1.373 . S
C2049 C2033 1.377 . S
C2049 C2047 1.389 . S
C2049 C2050 1.524 . S
C2050 C2049 1.524 . S
C2050 C2051 1.397 . S
C2050 C2055 1.363 . S
C2051 H2022 0.950 . S
C2051 C2050 1.397 . S
C2051 C2052 1.334 1_554 S
C2052 H2023 0.950 . S
C2052 C2051 1.334 1_556 S
C2052 C2053 1.287 . S
C2053 C2052 1.287 . S
C2053 C2054 1.524 . S
C2053 H2056 0.999 . S
C2054 H2024 0.950 . S
C2054 C2053 1.524 . S
C2054 C2055 1.415 1_556 S
C2055 H2025 0.950 . S
C2055 C2050 1.363 . S
C2055 C2054 1.415 1_554 S
H2056 C2053 0.999 . S
H2057 C2038 0.913 . S
H2058 C2076 0.951 . S
H2059 C2078 0.951 . S
H2060 C2080 0.950 . S
H2061 C2081 0.950 . S
H2062 C2083 0.950 . S
H2063 C2086 0.927 1_455 S
H2064 C2087 0.950 . S
H2065 C2089 0.950 . S
H2066 C2090 0.950 . S
H2067 C2091 0.951 . S
H2068 C2093 0.951 . S
H2069 C2095 0.950 . S
H2070 C2096 0.950 . S
H2071 C2098 0.950 . S
H2072 C2101 0.950 . S
H2073 C2102 0.950 . S
H2074 C2104 0.950 . S
H2075 C2105 0.950 . S
C2076 H2058 0.951 . S
C2076 C2077 1.366 . S
C2076 C2078 1.388 . S
C2077 C2076 1.366 . S
C2077 C2081 1.385 . S
C2078 H2059 0.951 . S
C2078 C2076 1.388 . S
C2078 C2079 1.366 1_655 S
C2079 C2078 1.366 1_455 S
C2079 C2080 1.414 . S
C2079 C2082 1.499 . S
C2080 H2060 0.950 . S
C2080 C2079 1.414 . S
C2080 C2081 1.374 1_455 S
C2081 H2061 0.950 . S
C2081 C2077 1.385 . S
C2081 C2080 1.374 1_655 S
C2082 C2079 1.499 . S
C2082 C2083 1.373 . S
C2082 C2084 1.389 . S
C2083 H2062 0.950 . S
C2083 C2082 1.373 . S
C2083 C2099 1.377 . S
C2084 C2082 1.389 . S
C2084 C2085 1.524 . S
C2084 C2098 1.377 . S
C2085 C2084 1.524 . S
C2085 C2086 1.395 1_455 S
C2085 C2090 1.363 . S
C2086 H2063 0.927 1_655 S
C2086 C2085 1.395 1_655 S
C2086 C2087 1.359 . S
C2087 H2064 0.950 . S
C2087 C2086 1.359 . S
C2087 C2088 1.287 . S
C2088 C2087 1.287 . S
C2088 C2089 1.524 . S
C2088 H2107 0.913 . S
C2089 H2065 0.950 . S
C2089 C2088 1.524 . S
C2089 C2090 1.415 1_655 S
C2090 H2066 0.950 . S
C2090 C2085 1.363 . S
C2090 C2089 1.415 1_455 S
C2091 H2067 0.951 . S
C2091 C2092 1.366 . S
C2091 C2093 1.388 . S
C2092 C2091 1.366 . S
C2092 C2096 1.385 . S
C2093 H2068 0.951 . S
C2093 C2091 1.388 . S
C2093 C2094 1.366 . S
C2094 C2093 1.366 . S
C2094 C2095 1.414 . S
C2094 C2097 1.499 . S
C2095 H2069 0.950 . S
C2095 C2094 1.414 . S
C2095 C2096 1.374 . S
C2096 H2070 0.950 . S
C2096 C2092 1.385 . S
C2096 C2095 1.374 . S
C2097 C2094 1.499 . S
C2097 C2098 1.373 . S
C2097 C2099 1.389 . S
C2098 H2071 0.950 . S
C2098 C2084 1.377 . S
C2098 C2097 1.373 . S
C2099 C2083 1.377 . S
C2099 C2097 1.389 . S
C2099 C2100 1.524 . S
C2100 C2099 1.524 . S
C2100 C2101 1.397 . S
C2100 C2105 1.363 . S
C2101 H2072 0.950 . S
C2101 C2100 1.397 . S
C2101 C2102 1.334 . S
C2102 H2073 0.950 . S
C2102 C2101 1.334 . S
C2102 C2103 1.287 . S
C2103 C2102 1.287 . S
C2103 C2104 1.524 . S
C2103 H2106 0.999 . S
C2104 H2074 0.950 . S
C2104 C2103 1.524 . S
C2104 C2105 1.415 . S
C2105 H2075 0.950 . S
C2105 C2100 1.363 . S
C2105 C2104 1.415 . S
H2106 C2103 0.999 . S
H2107 C2088 0.913 . S
H2108 C2126 0.951 . S
H2109 C2128 0.951 . S
H2110 C2130 0.950 . S
H2111 C2131 0.950 . S
H2112 C2133 0.950 . S
H2113 C2136 0.950 . S
H2114 C2137 0.950 . S
H2115 C2139 0.950 . S
H2116 C2140 0.950 . S
H2117 C2141 0.951 . S
H2118 C2143 0.951 . S
H2119 C2145 0.950 . S
H2120 C2146 0.950 . S
H2121 C2148 0.950 . S
H2122 C2151 0.950 . S
H2123 C2152 0.950 . S
H2124 C2154 0.950 . S
H2125 C2155 0.950 . S
C2126 H2108 0.951 . S
C2126 C2127 1.366 . S
C2126 C2128 1.388 . S
C2127 C2126 1.366 . S
C2127 C2131 1.385 . S
C2128 H2109 0.951 . S
C2128 C2126 1.388 . S
C2128 C2129 1.366 . S
C2129 C2128 1.366 . S
C2129 C2130 1.414 . S
C2129 C2132 1.499 . S
C2130 H2110 0.950 . S
C2130 C2129 1.414 . S
C2130 C2131 1.374 . S
C2131 H2111 0.950 . S
C2131 C2127 1.385 . S
C2131 C2130 1.374 . S
C2132 C2129 1.499 . S
C2132 C2133 1.373 . S
C2132 C2134 1.389 . S
C2133 H2112 0.950 . S
C2133 C2132 1.373 . S
C2133 C2149 1.377 . S
C2134 C2132 1.389 . S
C2134 C2135 1.524 . S
C2134 C2148 1.377 . S
C2135 C2134 1.524 . S
C2135 C2136 1.397 . S
C2135 C2140 1.363 . S
C2136 H2113 0.950 . S
C2136 C2135 1.397 . S
C2136 C2137 1.334 . S
C2137 H2114 0.950 . S
C2137 C2136 1.334 . S
C2137 C2138 1.287 . S
C2138 C2137 1.287 . S
C2138 C2139 1.524 . S
C2138 H2157 0.913 . S
C2139 H2115 0.950 . S
C2139 C2138 1.524 . S
C2139 C2140 1.415 . S
C2140 H2116 0.950 . S
C2140 C2135 1.363 . S
C2140 C2139 1.415 . S
C2141 H2117 0.951 . S
C2141 C2142 1.366 . S
C2141 C2143 1.388 . S
C2142 C2141 1.366 . S
C2142 C2146 1.385 . S
C2143 H2118 0.951 . S
C2143 C2141 1.388 . S
C2143 C2144 1.366 . S
C2144 C2143 1.366 . S
C2144 C2145 1.414 . S
C2144 C2147 1.499 . S
C2145 H2119 0.950 . S
C2145 C2144 1.414 . S
C2145 C2146 1.374 . S
C2146 H2120 0.950 . S
C2146 C2142 1.385 . S
C2146 C2145 1.374 . S
C2147 C2144 1.499 . S
C2147 C2148 1.373 . S
C2147 C2149 1.389 . S
C2148 H2121 0.950 . S
C2148 C2134 1.377 . S
C2148 C2147 1.373 . S
C2149 C2133 1.377 . S
C2149 C2147 1.389 . S
C2149 C2150 1.524 . S
C2150 C2149 1.524 . S
C2150 C2151 1.397 . S
C2150 C2155 1.363 . S
C2151 H2122 0.950 . S
C2151 C2150 1.397 . S
C2151 C2152 1.334 . S
C2152 H2123 0.950 . S
C2152 C2151 1.334 . S
C2152 C2153 1.287 . S
C2153 C2152 1.287 . S
C2153 C2154 1.524 . S
C2153 H2156 0.999 . S
C2154 H2124 0.950 . S
C2154 C2153 1.524 . S
C2154 C2155 1.415 . S
C2155 H2125 0.950 . S
C2155 C2150 1.363 . S
C2155 C2154 1.415 . S
H2156 C2153 0.999 . S
H2157 C2138 0.913 . S
H2158 C2176 0.951 . S
H2159 C2178 0.951 1_565 S
H2160 C2180 0.950 . S
H2161 C2181 0.950 . S
H2162 C2183 0.950 . S
H2163 C2186 0.950 . S
H2164 C2187 0.950 1_545 S
H2165 C2189 0.950 . S
H2166 C2190 0.950 . S
H2167 C2191 0.951 . S
H2168 C2193 0.951 . S
H2169 C2195 0.950 . S
H2170 C2196 0.950 . S
H2171 C2198 0.950 . S
H2172 C2201 0.950 . S
H2173 C2202 0.950 . S
H2174 C2204 0.950 . S
H2175 C2205 0.950 . S
C2176 H2158 0.951 . S
C2176 C2177 1.366 . S
C2176 C2178 1.388 . S
C2177 C2176 1.366 . S
C2177 C2181 1.385 . S
C2178 H2159 0.951 1_545 S
C2178 C2176 1.388 . S
C2178 C2179 1.366 . S
C2179 C2178 1.366 . S
C2179 C2180 1.414 . S
C2179 C2182 1.499 1_545 S
C2180 H2160 0.950 . S
C2180 C2179 1.414 . S
C2180 C2181 1.374 . S
C2181 H2161 0.950 . S
C2181 C2177 1.385 . S
C2181 C2180 1.374 . S
C2182 C2179 1.499 1_565 S
C2182 C2183 1.373 . S
C2182 C2184 1.389 . S
C2183 H2162 0.950 . S
C2183 C2182 1.373 . S
C2183 C2199 1.377 . S
C2184 C2182 1.389 . S
C2184 C2185 1.524 . S
C2184 C2198 1.377 . S
C2185 C2184 1.524 . S
C2185 C2186 1.397 . S
C2185 C2190 1.363 . S
C2186 H2163 0.950 . S
C2186 C2185 1.397 . S
C2186 C2187 1.334 . S
C2187 H2164 0.950 1_565 S
C2187 C2186 1.334 . S
C2187 C2188 1.287 . S
C2188 C2187 1.287 . S
C2188 C2189 1.524 . S
C2188 H2207 0.913 . S
C2189 H2165 0.950 . S
C2189 C2188 1.524 . S
C2189 C2190 1.415 . S
C2190 H2166 0.950 . S
C2190 C2185 1.363 . S
C2190 C2189 1.415 . S
C2191 H2167 0.951 . S
C2191 C2192 1.366 . S
C2191 C2193 1.388 . S
C2192 C2191 1.366 . S
C2192 C2196 1.385 . S
C2193 H2168 0.951 . S
C2193 C2191 1.388 . S
C2193 C2194 1.366 . S
C2194 C2193 1.366 . S
C2194 C2195 1.414 . S
C2194 C2197 1.499 . S
C2195 H2169 0.950 . S
C2195 C2194 1.414 . S
C2195 C2196 1.374 . S
C2196 H2170 0.950 . S
C2196 C2192 1.385 . S
C2196 C2195 1.374 . S
C2197 C2194 1.499 . S
C2197 C2198 1.373 . S
C2197 C2199 1.389 . S
C2198 H2171 0.950 . S
C2198 C2184 1.377 . S
C2198 C2197 1.373 . S
C2199 C2183 1.377 . S
C2199 C2197 1.389 . S
C2199 C2200 1.524 . S
C2200 C2199 1.524 . S
C2200 C2201 1.397 . S
C2200 C2205 1.363 . S
C2201 H2172 0.950 . S
C2201 C2200 1.397 . S
C2201 C2202 1.334 . S
C2202 H2173 0.950 . S
C2202 C2201 1.334 . S
C2202 C2203 1.287 . S
C2203 C2202 1.287 . S
C2203 C2204 1.524 . S
C2203 H2206 0.999 . S
C2204 H2174 0.950 . S
C2204 C2203 1.524 . S
C2204 C2205 1.415 . S
C2205 H2175 0.950 . S
C2205 C2200 1.363 . S
C2205 C2204 1.415 . S
H2206 C2203 0.999 . S
H2207 C2188 0.913 . S
H2208 C2226 0.951 . S
H2209 C2228 0.951 . S
H2210 C2230 0.950 . S
H2211 C2231 0.950 . S
H2212 C2233 0.950 . S
H2213 C2236 0.950 . S
H2214 C2237 0.950 . S
H2215 C2239 0.950 . S
H2216 C2240 0.950 . S
H2217 C2241 0.951 . S
H2218 C2243 0.951 . S
H2219 C2245 0.950 . S
H2220 C2246 0.950 . S
H2221 C2248 0.950 . S
H2222 C2251 0.950 . S
H2223 C2252 0.950 . S
H2224 C2254 0.950 . S
H2225 C2255 0.950 . S
C2226 H2208 0.951 . S
C2226 C2227 1.366 . S
C2226 C2228 1.388 . S
C2227 C2226 1.366 . S
C2227 C2231 1.385 . S
C2228 H2209 0.951 . S
C2228 C2226 1.388 . S
C2228 C2229 1.366 . S
C2229 C2228 1.366 . S
C2229 C2230 1.414 . S
C2229 C2232 1.499 . S
C2230 H2210 0.950 . S
C2230 C2229 1.414 . S
C2230 C2231 1.374 . S
C2231 H2211 0.950 . S
C2231 C2227 1.385 . S
C2231 C2230 1.374 . S
C2232 C2229 1.499 . S
C2232 C2233 1.373 . S
C2232 C2234 1.389 . S
C2233 H2212 0.950 . S
C2233 C2232 1.373 . S
C2233 C2249 1.377 . S
C2234 C2232 1.389 . S
C2234 C2235 1.524 . S
C2234 C2248 1.377 . S
C2235 C2234 1.524 . S
C2235 C2236 1.397 . S
C2235 C2240 1.363 . S
C2236 H2213 0.950 . S
C2236 C2235 1.397 . S
C2236 C2237 1.334 . S
C2237 H2214 0.950 . S
C2237 C2236 1.334 . S
C2237 C2238 1.287 . S
C2238 C2237 1.287 . S
C2238 C2239 1.524 . S
C2238 H2257 0.913 . S
C2239 H2215 0.950 . S
C2239 C2238 1.524 . S
C2239 C2240 1.415 . S
C2240 H2216 0.950 . S
C2240 C2235 1.363 . S
C2240 C2239 1.415 . S
C2241 H2217 0.951 . S
C2241 C2242 1.366 . S
C2241 C2243 1.388 . S
C2242 C2241 1.366 . S
C2242 C2246 1.385 . S
C2243 H2218 0.951 . S
C2243 C2241 1.388 . S
C2243 C2244 1.366 . S
C2244 C2243 1.366 . S
C2244 C2245 1.414 . S
C2244 C2247 1.499 . S
C2245 H2219 0.950 . S
C2245 C2244 1.414 . S
C2245 C2246 1.374 . S
C2246 H2220 0.950 . S
C2246 C2242 1.385 . S
C2246 C2245 1.374 . S
C2247 C2244 1.499 . S
C2247 C2248 1.373 . S
C2247 C2249 1.389 . S
C2248 H2221 0.950 . S
C2248 C2234 1.377 . S
C2248 C2247 1.373 . S
C2249 C2233 1.377 . S
C2249 C2247 1.389 . S
C2249 C2250 1.524 . S
C2250 C2249 1.524 . S
C2250 C2251 1.397 . S
C2250 C2255 1.363 . S
C2251 H2222 0.950 . S
C2251 C2250 1.397 . S
C2251 C2252 1.334 . S
C2252 H2223 0.950 . S
C2252 C2251 1.334 . S
C2252 C2253 1.287 . S
C2253 C2252 1.287 . S
C2253 C2254 1.524 . S
C2253 H2256 0.999 . S
C2254 H2224 0.950 . S
C2254 C2253 1.524 . S
C2254 C2255 1.415 . S
C2255 H2225 0.950 . S
C2255 C2250 1.363 . S
C2255 C2254 1.415 . S
H2256 C2253 0.999 . S
H2257 C2238 0.913 . S
H2258 C2276 0.951 . S
H2259 C2278 0.951 . S
H2260 C2280 0.950 . S
H2261 C2281 0.950 . S
H2262 C2283 0.950 . S
H2263 C2286 0.950 . S
H2264 C2287 0.950 . S
H2265 C2289 0.950 . S
H2266 C2290 0.950 . S
H2267 C2291 0.951 . S
H2268 C2293 0.951 . S
H2269 C2295 0.950 . S
H2270 C2296 0.950 . S
H2271 C2298 0.950 . S
H2272 C2301 0.950 . S
H2273 C2302 0.950 . S
H2274 C2304 0.950 . S
H2275 C2305 0.950 . S
C2276 H2258 0.951 . S
C2276 C2277 1.366 . S
C2276 C2278 1.388 . S
C2277 C2276 1.366 . S
C2277 C2281 1.385 . S
C2278 H2259 0.951 . S
C2278 C2276 1.388 . S
C2278 C2279 1.366 . S
C2279 C2278 1.366 . S
C2279 C2280 1.414 . S
C2279 C2282 1.499 . S
C2280 H2260 0.950 . S
C2280 C2279 1.414 . S
C2280 C2281 1.374 . S
C2281 H2261 0.950 . S
C2281 C2277 1.385 . S
C2281 C2280 1.374 . S
C2282 C2279 1.499 . S
C2282 C2283 1.373 . S
C2282 C2284 1.389 . S
C2283 H2262 0.950 . S
C2283 C2282 1.373 . S
C2283 C2299 1.377 . S
C2284 C2282 1.389 . S
C2284 C2285 1.524 . S
C2284 C2298 1.377 . S
C2285 C2284 1.524 . S
C2285 C2286 1.397 . S
C2285 C2290 1.363 . S
C2286 H2263 0.950 . S
C2286 C2285 1.397 . S
C2286 C2287 1.334 . S
C2287 H2264 0.950 . S
C2287 C2286 1.334 . S
C2287 C2288 1.287 . S
C2288 C2287 1.287 . S
C2288 C2289 1.524 . S
C2288 H2307 0.913 . S
C2289 H2265 0.950 . S
C2289 C2288 1.524 . S
C2289 C2290 1.415 . S
C2290 H2266 0.950 . S
C2290 C2285 1.363 . S
C2290 C2289 1.415 . S
C2291 H2267 0.951 . S
C2291 C2292 1.366 . S
C2291 C2293 1.388 . S
C2292 C2291 1.366 . S
C2292 C2296 1.385 . S
C2293 H2268 0.951 . S
C2293 C2291 1.388 . S
C2293 C2294 1.366 . S
C2294 C2293 1.366 . S
C2294 C2295 1.414 . S
C2294 C2297 1.499 . S
C2295 H2269 0.950 . S
C2295 C2294 1.414 . S
C2295 C2296 1.374 . S
C2296 H2270 0.950 . S
C2296 C2292 1.385 . S
C2296 C2295 1.374 . S
C2297 C2294 1.499 . S
C2297 C2298 1.373 . S
C2297 C2299 1.389 . S
C2298 H2271 0.950 . S
C2298 C2284 1.377 . S
C2298 C2297 1.373 . S
C2299 C2283 1.377 . S
C2299 C2297 1.389 . S
C2299 C2300 1.524 . S
C2300 C2299 1.524 . S
C2300 C2301 1.397 . S
C2300 C2305 1.363 . S
C2301 H2272 0.950 . S
C2301 C2300 1.397 . S
C2301 C2302 1.334 . S
C2302 H2273 0.950 . S
C2302 C2301 1.334 . S
C2302 C2303 1.287 . S
C2303 C2302 1.287 . S
C2303 C2304 1.524 . S
C2303 H2306 0.999 . S
C2304 H2274 0.950 . S
C2304 C2303 1.524 . S
C2304 C2305 1.415 . S
C2305 H2275 0.950 . S
C2305 C2300 1.363 . S
C2305 C2304 1.415 . S
H2306 C2303 0.999 . S
H2307 C2288 0.913 . S
H2308 C2326 0.951 . S
H2309 C2328 0.951 . S
H2310 C2330 0.950 . S
H2311 C2331 0.950 . S
H2312 C2333 0.950 . S
H2313 C2336 0.950 . S
H2314 C2337 0.950 . S
H2315 C2339 0.950 . S
H2316 C2340 0.950 . S
H2317 C2341 0.951 . S
H2318 C2343 0.951 . S
H2319 C2345 0.950 . S
H2320 C2346 0.950 . S
H2321 C2348 0.950 . S
H2322 C2351 0.950 . S
H2323 C2352 0.950 . S
H2324 C2354 0.950 . S
H2325 C2355 0.950 . S
C2326 H2308 0.951 . S
C2326 C2327 1.366 . S
C2326 C2328 1.388 . S
C2327 C2326 1.366 . S
C2327 C2331 1.385 . S
C2328 H2309 0.951 . S
C2328 C2326 1.388 . S
C2328 C2329 1.366 . S
C2329 C2328 1.366 . S
C2329 C2330 1.414 . S
C2329 C2332 1.499 . S
C2330 H2310 0.950 . S
C2330 C2329 1.414 . S
C2330 C2331 1.374 . S
C2331 H2311 0.950 . S
C2331 C2327 1.385 . S
C2331 C2330 1.374 . S
C2332 C2329 1.499 . S
C2332 C2333 1.373 . S
C2332 C2334 1.389 . S
C2333 H2312 0.950 . S
C2333 C2332 1.373 . S
C2333 C2349 1.377 . S
C2334 C2332 1.389 . S
C2334 C2335 1.524 . S
C2334 C2348 1.377 . S
C2335 C2334 1.524 . S
C2335 C2336 1.397 . S
C2335 C2340 1.363 . S
C2336 H2313 0.950 . S
C2336 C2335 1.397 . S
C2336 C2337 1.334 . S
C2337 H2314 0.950 . S
C2337 C2336 1.334 . S
C2337 C2338 1.287 . S
C2338 C2337 1.287 . S
C2338 C2339 1.524 . S
C2338 H2357 0.913 . S
C2339 H2315 0.950 . S
C2339 C2338 1.524 . S
C2339 C2340 1.415 . S
C2340 H2316 0.950 . S
C2340 C2335 1.363 . S
C2340 C2339 1.415 . S
C2341 H2317 0.951 . S
C2341 C2342 1.366 . S
C2341 C2343 1.388 . S
C2342 C2341 1.366 . S
C2342 C2346 1.385 . S
C2343 H2318 0.951 . S
C2343 C2341 1.388 . S
C2343 C2344 1.366 . S
C2344 C2343 1.366 . S
C2344 C2345 1.414 . S
C2344 C2347 1.499 . S
C2345 H2319 0.950 . S
C2345 C2344 1.414 . S
C2345 C2346 1.374 . S
C2346 H2320 0.950 . S
C2346 C2342 1.385 . S
C2346 C2345 1.374 . S
C2347 C2344 1.499 . S
C2347 C2348 1.373 . S
C2347 C2349 1.389 . S
C2348 H2321 0.950 . S
C2348 C2334 1.377 . S
C2348 C2347 1.373 . S
C2349 C2333 1.377 . S
C2349 C2347 1.389 . S
C2349 C2350 1.524 . S
C2350 C2349 1.524 . S
C2350 C2351 1.397 . S
C2350 C2355 1.363 . S
C2351 H2322 0.950 . S
C2351 C2350 1.397 . S
C2351 C2352 1.334 . S
C2352 H2323 0.950 . S
C2352 C2351 1.334 . S
C2352 C2353 1.287 . S
C2353 C2352 1.287 . S
C2353 C2354 1.524 . S
C2353 H2356 0.999 . S
C2354 H2324 0.950 . S
C2354 C2353 1.524 . S
C2354 C2355 1.415 . S
C2355 H2325 0.950 . S
C2355 C2350 1.363 . S
C2355 C2354 1.415 . S
H2356 C2353 0.999 . S
H2357 C2338 0.913 . S
H2358 C2376 0.951 . S
H2359 C2378 0.951 . S
H2360 C2380 0.950 . S
H2361 C2381 0.950 . S
H2362 C2383 0.950 . S
H2363 C2386 0.950 . S
H2364 C2387 0.950 . S
H2365 C2389 0.950 . S
H2366 C2390 0.950 . S
H2367 C2391 0.951 . S
H2368 C2393 0.951 . S
H2369 C2395 0.950 . S
H2370 C2396 0.950 . S
H2371 C2398 0.950 . S
H2372 C2401 0.950 . S
H2373 C2402 0.950 . S
H2374 C2404 0.950 . S
H2375 C2405 0.950 . S
C2376 H2358 0.951 . S
C2376 C2377 1.366 . S
C2376 C2378 1.388 . S
C2377 C2376 1.366 . S
C2377 C2381 1.385 . S
C2378 H2359 0.951 . S
C2378 C2376 1.388 . S
C2378 C2379 1.366 . S
C2379 C2378 1.366 . S
C2379 C2380 1.414 . S
C2379 C2382 1.499 . S
C2380 H2360 0.950 . S
C2380 C2379 1.414 . S
C2380 C2381 1.374 . S
C2381 H2361 0.950 . S
C2381 C2377 1.385 . S
C2381 C2380 1.374 . S
C2382 C2379 1.499 . S
C2382 C2383 1.373 . S
C2382 C2384 1.389 . S
C2383 H2362 0.950 . S
C2383 C2382 1.373 . S
C2383 C2399 1.377 . S
C2384 C2382 1.389 . S
C2384 C2385 1.524 . S
C2384 C2398 1.377 . S
C2385 C2384 1.524 . S
C2385 C2386 1.397 . S
C2385 C2390 1.363 . S
C2386 H2363 0.950 . S
C2386 C2385 1.397 . S
C2386 C2387 1.334 . S
C2387 H2364 0.950 . S
C2387 C2386 1.334 . S
C2387 C2388 1.287 . S
C2388 C2387 1.287 . S
C2388 C2389 1.524 . S
C2388 H2407 0.913 . S
C2389 H2365 0.950 . S
C2389 C2388 1.524 . S
C2389 C2390 1.415 . S
C2390 H2366 0.950 . S
C2390 C2385 1.363 . S
C2390 C2389 1.415 . S
C2391 H2367 0.951 . S
C2391 C2392 1.366 . S
C2391 C2393 1.388 . S
C2392 C2391 1.366 . S
C2392 C2396 1.385 . S
C2393 H2368 0.951 . S
C2393 C2391 1.388 . S
C2393 C2394 1.366 . S
C2394 C2393 1.366 . S
C2394 C2395 1.414 . S
C2394 C2397 1.499 . S
C2395 H2369 0.950 . S
C2395 C2394 1.414 . S
C2395 C2396 1.374 . S
C2396 H2370 0.950 . S
C2396 C2392 1.385 . S
C2396 C2395 1.374 . S
C2397 C2394 1.499 . S
C2397 C2398 1.373 . S
C2397 C2399 1.389 . S
C2398 H2371 0.950 . S
C2398 C2384 1.377 . S
C2398 C2397 1.373 . S
C2399 C2383 1.377 . S
C2399 C2397 1.389 . S
C2399 C2400 1.524 . S
C2400 C2399 1.524 . S
C2400 C2401 1.397 . S
C2400 C2405 1.363 . S
C2401 H2372 0.950 . S
C2401 C2400 1.397 . S
C2401 C2402 1.334 . S
C2402 H2373 0.950 . S
C2402 C2401 1.334 . S
C2402 C2403 1.287 . S
C2403 C2402 1.287 . S
C2403 C2404 1.524 . S
C2403 H2406 0.999 . S
C2404 H2374 0.950 . S
C2404 C2403 1.524 . S
C2404 C2405 1.415 . S
C2405 H2375 0.950 . S
C2405 C2400 1.363 . S
C2405 C2404 1.415 . S
H2406 C2403 0.999 . S
H2407 C2388 0.913 . S
H2408 C2426 0.951 . S
H2409 C2428 0.951 . S
H2410 C2430 0.950 . S
H2411 C2431 0.950 . S
H2412 C2433 0.950 . S
H2413 C2436 0.950 . S
H2414 C2437 0.950 . S
H2415 C2439 0.950 . S
H2416 C2440 0.950 . S
H2417 C2441 0.951 . S
H2418 C2443 0.951 . S
H2419 C2445 0.950 . S
H2420 C2446 0.950 . S
H2421 C2448 0.950 . S
H2422 C2451 0.950 . S
H2423 C2452 0.950 . S
H2424 C2454 0.950 . S
H2425 C2455 0.950 . S
C2426 H2408 0.951 . S
C2426 C2427 1.366 . S
C2426 C2428 1.388 . S
C2427 C2426 1.366 . S
C2427 C2431 1.385 . S
C2428 H2409 0.951 . S
C2428 C2426 1.388 . S
C2428 C2429 1.366 . S
C2429 C2428 1.366 . S
C2429 C2430 1.414 . S
C2429 C2432 1.499 . S
C2430 H2410 0.950 . S
C2430 C2429 1.414 . S
C2430 C2431 1.374 . S
C2431 H2411 0.950 . S
C2431 C2427 1.385 . S
C2431 C2430 1.374 . S
C2432 C2429 1.499 . S
C2432 C2433 1.373 . S
C2432 C2434 1.389 . S
C2433 H2412 0.950 . S
C2433 C2432 1.373 . S
C2433 C2449 1.377 . S
C2434 C2432 1.389 . S
C2434 C2435 1.524 . S
C2434 C2448 1.377 . S
C2435 C2434 1.524 . S
C2435 C2436 1.397 . S
C2435 C2440 1.363 . S
C2436 H2413 0.950 . S
C2436 C2435 1.397 . S
C2436 C2437 1.334 . S
C2437 H2414 0.950 . S
C2437 C2436 1.334 . S
C2437 C2438 1.287 . S
C2438 C2437 1.287 . S
C2438 C2439 1.524 . S
C2438 H2457 0.913 . S
C2439 H2415 0.950 . S
C2439 C2438 1.524 . S
C2439 C2440 1.415 . S
C2440 H2416 0.950 . S
C2440 C2435 1.363 . S
C2440 C2439 1.415 . S
C2441 H2417 0.951 . S
C2441 C2442 1.366 . S
C2441 C2443 1.388 . S
C2442 C2441 1.366 . S
C2442 C2446 1.385 . S
C2443 H2418 0.951 . S
C2443 C2441 1.388 . S
C2443 C2444 1.366 . S
C2444 C2443 1.366 . S
C2444 C2445 1.414 . S
C2444 C2447 1.499 . S
C2445 H2419 0.950 . S
C2445 C2444 1.414 . S
C2445 C2446 1.374 . S
C2446 H2420 0.950 . S
C2446 C2442 1.385 . S
C2446 C2445 1.374 . S
C2447 C2444 1.499 . S
C2447 C2448 1.373 . S
C2447 C2449 1.389 . S
C2448 H2421 0.950 . S
C2448 C2434 1.377 . S
C2448 C2447 1.373 . S
C2449 C2433 1.377 . S
C2449 C2447 1.389 . S
C2449 C2450 1.524 . S
C2450 C2449 1.524 . S
C2450 C2451 1.397 . S
C2450 C2455 1.363 . S
C2451 H2422 0.950 . S
C2451 C2450 1.397 . S
C2451 C2452 1.334 . S
C2452 H2423 0.950 . S
C2452 C2451 1.334 . S
C2452 C2453 1.287 . S
C2453 C2452 1.287 . S
C2453 C2454 1.524 . S
C2453 H2456 0.999 . S
C2454 H2424 0.950 . S
C2454 C2453 1.524 . S
C2454 C2455 1.415 . S
C2455 H2425 0.950 . S
C2455 C2450 1.363 . S
C2455 C2454 1.415 . S
H2456 C2453 0.999 . S
H2457 C2438 0.913 . S
H2458 C2476 0.951 . S
H2459 C2478 0.951 . S
H2460 C2480 0.950 . S
H2461 C2481 0.950 . S
H2462 C2483 0.950 . S
H2463 C2486 0.950 . S
H2464 C2487 0.950 . S
H2465 C2489 0.950 . S
H2466 C2490 0.950 . S
H2467 C2491 0.951 . S
H2468 C2493 0.951 . S
H2469 C2495 0.950 . S
H2470 C2496 0.950 . S
H2471 C2498 0.950 . S
H2472 C2501 0.950 . S
H2473 C2502 0.950 . S
H2474 C2504 0.950 . S
H2475 C2505 0.950 . S
C2476 H2458 0.951 . S
C2476 C2477 1.366 . S
C2476 C2478 1.388 . S
C2477 C2476 1.366 . S
C2477 C2481 1.385 . S
C2478 H2459 0.951 . S
C2478 C2476 1.388 . S
C2478 C2479 1.366 . S
C2479 C2478 1.366 . S
C2479 C2480 1.414 . S
C2479 C2482 1.499 . S
C2480 H2460 0.950 . S
C2480 C2479 1.414 . S
C2480 C2481 1.374 . S
C2481 H2461 0.950 . S
C2481 C2477 1.385 . S
C2481 C2480 1.374 . S
C2482 C2479 1.499 . S
C2482 C2483 1.373 . S
C2482 C2484 1.389 . S
C2483 H2462 0.950 . S
C2483 C2482 1.373 . S
C2483 C2499 1.377 . S
C2484 C2482 1.389 . S
C2484 C2485 1.524 . S
C2484 C2498 1.377 . S
C2485 C2484 1.524 . S
C2485 C2486 1.397 . S
C2485 C2490 1.363 . S
C2486 H2463 0.950 . S
C2486 C2485 1.397 . S
C2486 C2487 1.334 . S
C2487 H2464 0.950 . S
C2487 C2486 1.334 . S
C2487 C2488 1.287 . S
C2488 C2487 1.287 . S
C2488 C2489 1.524 . S
C2488 H2507 0.913 . S
C2489 H2465 0.950 . S
C2489 C2488 1.524 . S
C2489 C2490 1.415 . S
C2490 H2466 0.950 . S
C2490 C2485 1.363 . S
C2490 C2489 1.415 . S
C2491 H2467 0.951 . S
C2491 C2492 1.366 . S
C2491 C2493 1.388 . S
C2492 C2491 1.366 . S
C2492 C2496 1.385 . S
C2493 H2468 0.951 . S
C2493 C2491 1.388 . S
C2493 C2494 1.366 . S
C2494 C2493 1.366 . S
C2494 C2495 1.414 . S
C2494 C2497 1.499 . S
C2495 H2469 0.950 . S
C2495 C2494 1.414 . S
C2495 C2496 1.374 . S
C2496 H2470 0.950 . S
C2496 C2492 1.385 . S
C2496 C2495 1.374 . S
C2497 C2494 1.499 . S
C2497 C2498 1.373 . S
C2497 C2499 1.389 . S
C2498 H2471 0.950 . S
C2498 C2484 1.377 . S
C2498 C2497 1.373 . S
C2499 C2483 1.377 . S
C2499 C2497 1.389 . S
C2499 C2500 1.524 . S
C2500 C2499 1.524 . S
C2500 C2501 1.397 . S
C2500 C2505 1.363 . S
C2501 H2472 0.950 . S
C2501 C2500 1.397 . S
C2501 C2502 1.334 . S
C2502 H2473 0.950 . S
C2502 C2501 1.334 . S
C2502 C2503 1.287 . S
C2503 C2502 1.287 . S
C2503 C2504 1.524 . S
C2503 H2506 0.999 . S
C2504 H2474 0.950 . S
C2504 C2503 1.524 . S
C2504 C2505 1.415 . S
C2505 H2475 0.950 . S
C2505 C2500 1.363 . S
C2505 C2504 1.415 . S
H2506 C2503 0.999 . S
H2507 C2488 0.913 . S
H2508 C2526 0.951 . S
H2509 C2528 0.951 1_565 S
H2510 C2530 0.950 . S
H2511 C2531 0.950 . S
H2512 C2533 0.950 . S
H2513 C2536 0.919 1_545 S
H2514 C2537 0.950 . S
H2515 C2539 0.950 . S
H2516 C2540 0.950 . S
H2517 C2541 0.951 . S
H2518 C2543 0.951 . S
H2519 C2545 0.950 . S
H2520 C2546 0.950 . S
H2521 C2548 0.950 . S
H2522 C2551 0.950 . S
H2523 C2552 0.950 . S
H2524 C2554 0.950 . S
H2525 C2555 0.950 . S
C2526 H2508 0.951 . S
C2526 C2527 1.366 . S
C2526 C2528 1.388 . S
C2527 C2526 1.366 . S
C2527 C2531 1.385 . S
C2528 H2509 0.951 1_545 S
C2528 C2526 1.388 . S
C2528 C2529 1.381 1_545 S
C2529 C2528 1.381 1_565 S
C2529 C2530 1.362 1_565 S
C2529 C2532 1.534 . S
C2530 H2510 0.950 . S
C2530 C2529 1.362 1_545 S
C2530 C2531 1.374 . S
C2531 H2511 0.950 . S
C2531 C2527 1.385 . S
C2531 C2530 1.374 . S
C2532 C2529 1.534 . S
C2532 C2533 1.373 . S
C2532 C2534 1.389 . S
C2533 H2512 0.950 . S
C2533 C2532 1.373 . S
C2533 C2549 1.377 . S
C2534 C2532 1.389 . S
C2534 C2535 1.524 . S
C2534 C2548 1.377 . S
C2535 C2534 1.524 . S
C2535 C2536 1.397 . S
C2535 C2540 1.363 . S
C2536 H2513 0.919 1_565 S
C2536 C2535 1.397 . S
C2536 C2537 1.334 1_565 S
C2537 H2514 0.950 . S
C2537 C2536 1.334 1_545 S
C2537 C2538 1.287 1_545 S
C2538 C2537 1.287 1_565 S
C2538 C2539 1.524 . S
C2538 H2557 0.913 . S
C2539 H2515 0.950 . S
C2539 C2538 1.524 . S
C2539 C2540 1.415 . S
C2540 H2516 0.950 . S
C2540 C2535 1.363 . S
C2540 C2539 1.415 . S
C2541 H2517 0.951 . S
C2541 C2542 1.366 . S
C2541 C2543 1.388 . S
C2542 C2541 1.366 . S
C2542 C2546 1.385 . S
C2543 H2518 0.951 . S
C2543 C2541 1.388 . S
C2543 C2544 1.366 . S
C2544 C2543 1.366 . S
C2544 C2545 1.414 . S
C2544 C2547 1.499 . S
C2545 H2519 0.950 . S
C2545 C2544 1.414 . S
C2545 C2546 1.374 . S
C2546 H2520 0.950 . S
C2546 C2542 1.385 . S
C2546 C2545 1.374 . S
C2547 C2544 1.499 . S
C2547 C2548 1.373 . S
C2547 C2549 1.389 . S
C2548 H2521 0.950 . S
C2548 C2534 1.377 . S
C2548 C2547 1.373 . S
C2549 C2533 1.377 . S
C2549 C2547 1.389 . S
C2549 C2550 1.524 . S
C2550 C2549 1.524 . S
C2550 C2551 1.397 . S
C2550 C2555 1.363 . S
C2551 H2522 0.950 . S
C2551 C2550 1.397 . S
C2551 C2552 1.334 . S
C2552 H2523 0.950 . S
C2552 C2551 1.334 . S
C2552 C2553 1.287 . S
C2553 C2552 1.287 . S
C2553 C2554 1.524 . S
C2553 H2556 0.999 . S
C2554 H2524 0.950 . S
C2554 C2553 1.524 . S
C2554 C2555 1.415 . S
C2555 H2525 0.950 . S
C2555 C2550 1.363 . S
C2555 C2554 1.415 . S
H2556 C2553 0.999 . S
H2557 C2538 0.913 . S
H2558 C2576 0.951 . S
H2559 C2578 0.951 . S
H2560 C2580 0.950 1_455 S
H2561 C2581 0.950 . S
H2562 C2583 0.950 . S
H2563 C2586 0.950 . S
H2564 C2587 0.950 . S
H2565 C2589 0.950 . S
H2566 C2590 0.950 . S
H2567 C2591 0.951 . S
H2568 C2593 0.951 . S
H2569 C2595 0.950 . S
H2570 C2596 0.950 . S
H2571 C2598 0.950 . S
H2572 C2601 0.950 . S
H2573 C2602 0.950 . S
H2574 C2604 0.950 . S
H2575 C2605 0.950 . S
C2576 H2558 0.951 . S
C2576 C2577 1.366 . S
C2576 C2578 1.388 1_655 S
C2577 C2576 1.366 . S
C2577 C2581 1.385 . S
C2578 H2559 0.951 . S
C2578 C2576 1.388 1_455 S
C2578 C2579 1.366 . S
C2579 C2578 1.366 . S
C2579 C2580 1.414 1_455 S
C2579 C2582 1.499 . S
C2580 H2560 0.950 1_655 S
C2580 C2579 1.414 1_655 S
C2580 C2581 1.374 . S
C2581 H2561 0.950 . S
C2581 C2577 1.385 . S
C2581 C2580 1.374 . S
C2582 C2579 1.499 . S
C2582 C2583 1.373 . S
C2582 C2584 1.389 . S
C2583 H2562 0.950 . S
C2583 C2582 1.373 . S
C2583 C2599 1.377 . S
C2584 C2582 1.389 . S
C2584 C2585 1.524 . S
C2584 C2598 1.377 . S
C2585 C2584 1.524 . S
C2585 C2586 1.397 . S
C2585 C2590 1.363 . S
C2586 H2563 0.950 . S
C2586 C2585 1.397 . S
C2586 C2587 1.334 . S
C2587 H2564 0.950 . S
C2587 C2586 1.334 . S
C2587 C2588 1.287 . S
C2588 C2587 1.287 . S
C2588 C2589 1.524 . S
C2588 H2607 0.913 . S
C2589 H2565 0.950 . S
C2589 C2588 1.524 . S
C2589 C2590 1.415 . S
C2590 H2566 0.950 . S
C2590 C2585 1.363 . S
C2590 C2589 1.415 . S
C2591 H2567 0.951 . S
C2591 C2592 1.366 . S
C2591 C2593 1.388 . S
C2592 C2591 1.366 . S
C2592 C2596 1.385 . S
C2593 H2568 0.951 . S
C2593 C2591 1.388 . S
C2593 C2594 1.366 . S
C2594 C2593 1.366 . S
C2594 C2595 1.414 . S
C2594 C2597 1.499 . S
C2595 H2569 0.950 . S
C2595 C2594 1.414 . S
C2595 C2596 1.374 . S
C2596 H2570 0.950 . S
C2596 C2592 1.385 . S
C2596 C2595 1.374 . S
C2597 C2594 1.499 . S
C2597 C2598 1.373 . S
C2597 C2599 1.389 . S
C2598 H2571 0.950 . S
C2598 C2584 1.377 . S
C2598 C2597 1.373 . S
C2599 C2583 1.377 . S
C2599 C2597 1.389 . S
C2599 C2600 1.524 . S
C2600 C2599 1.524 . S
C2600 C2601 1.397 . S
C2600 C2605 1.363 . S
C2601 H2572 0.950 . S
C2601 C2600 1.397 . S
C2601 C2602 1.334 . S
C2602 H2573 0.950 . S
C2602 C2601 1.334 . S
C2602 C2603 1.287 . S
C2603 C2602 1.287 . S
C2603 C2604 1.524 . S
C2603 H2606 0.999 . S
C2604 H2574 0.950 . S
C2604 C2603 1.524 . S
C2604 C2605 1.415 . S
C2605 H2575 0.950 . S
C2605 C2600 1.363 . S
C2605 C2604 1.415 . S
H2606 C2603 0.999 . S
H2607 C2588 0.913 . S
H2608 C2626 0.951 . S
H2609 C2628 0.951 . S
H2610 C2630 0.950 . S
H2611 C2631 0.950 . S
H2612 C2633 0.950 . S
H2613 C2636 0.950 . S
H2614 C2637 0.950 . S
H2615 C2639 0.950 . S
H2616 C2640 0.950 . S
H2617 C2641 0.951 . S
H2618 C2643 0.951 . S
H2619 C2645 0.950 . S
H2620 C2646 0.950 . S
H2621 C2648 0.950 . S
H2622 C2651 0.950 . S
H2623 C2652 0.950 . S
H2624 C2654 0.950 . S
H2625 C2655 0.950 . S
C2626 H2608 0.951 . S
C2626 C2627 1.366 . S
C2626 C2628 1.388 . S
C2627 C2626 1.366 . S
C2627 C2631 1.385 . S
C2628 H2609 0.951 . S
C2628 C2626 1.388 . S
C2628 C2629 1.366 . S
C2629 C2628 1.366 . S
C2629 C2630 1.414 . S
C2629 C2632 1.499 . S
C2630 H2610 0.950 . S
C2630 C2629 1.414 . S
C2630 C2631 1.374 . S
C2631 H2611 0.950 . S
C2631 C2627 1.385 . S
C2631 C2630 1.374 . S
C2632 C2629 1.499 . S
C2632 C2633 1.373 . S
C2632 C2634 1.389 . S
C2633 H2612 0.950 . S
C2633 C2632 1.373 . S
C2633 C2649 1.377 . S
C2634 C2632 1.389 . S
C2634 C2635 1.524 . S
C2634 C2648 1.377 . S
C2635 C2634 1.524 . S
C2635 C2636 1.397 . S
C2635 C2640 1.363 . S
C2636 H2613 0.950 . S
C2636 C2635 1.397 . S
C2636 C2637 1.334 . S
C2637 H2614 0.950 . S
C2637 C2636 1.334 . S
C2637 C2638 1.287 . S
C2638 C2637 1.287 . S
C2638 C2639 1.524 . S
C2638 H2657 0.913 . S
C2639 H2615 0.950 . S
C2639 C2638 1.524 . S
C2639 C2640 1.415 . S
C2640 H2616 0.950 . S
C2640 C2635 1.363 . S
C2640 C2639 1.415 . S
C2641 H2617 0.951 . S
C2641 C2642 1.366 . S
C2641 C2643 1.388 . S
C2642 C2641 1.366 . S
C2642 C2646 1.385 . S
C2643 H2618 0.951 . S
C2643 C2641 1.388 . S
C2643 C2644 1.366 . S
C2644 C2643 1.366 . S
C2644 C2645 1.414 . S
C2644 C2647 1.499 . S
C2645 H2619 0.950 . S
C2645 C2644 1.414 . S
C2645 C2646 1.374 . S
C2646 H2620 0.950 . S
C2646 C2642 1.385 . S
C2646 C2645 1.374 . S
C2647 C2644 1.499 . S
C2647 C2648 1.373 . S
C2647 C2649 1.389 . S
C2648 H2621 0.950 . S
C2648 C2634 1.377 . S
C2648 C2647 1.373 . S
C2649 C2633 1.377 . S
C2649 C2647 1.389 . S
C2649 C2650 1.524 . S
C2650 C2649 1.524 . S
C2650 C2651 1.397 . S
C2650 C2655 1.363 . S
C2651 H2622 0.950 . S
C2651 C2650 1.397 . S
C2651 C2652 1.334 . S
C2652 H2623 0.950 . S
C2652 C2651 1.334 . S
C2652 C2653 1.287 . S
C2653 C2652 1.287 . S
C2653 C2654 1.524 . S
C2653 H2656 0.999 . S
C2654 H2624 0.950 . S
C2654 C2653 1.524 . S
C2654 C2655 1.415 . S
C2655 H2625 0.950 . S
C2655 C2650 1.363 . S
C2655 C2654 1.415 . S
H2656 C2653 0.999 . S
H2657 C2638 0.913 . S
H2658 C2676 0.951 . S
H2659 C2678 0.951 . S
H2660 C2680 0.950 . S
H2661 C2681 0.950 . S
H2662 C2683 0.950 . S
H2663 C2686 0.950 . S
H2664 C2687 0.950 . S
H2665 C2689 0.950 . S
H2666 C2690 0.950 . S
H2667 C2691 0.951 . S
H2668 C2693 0.951 . S
H2669 C2695 0.950 . S
H2670 C2696 0.950 . S
H2671 C2698 0.950 . S
H2672 C2701 0.950 . S
H2673 C2702 0.950 . S
H2674 C2704 0.950 . S
H2675 C2705 0.950 . S
C2676 H2658 0.951 . S
C2676 C2677 1.366 . S
C2676 C2678 1.388 . S
C2677 C2676 1.366 . S
C2677 C2681 1.385 . S
C2678 H2659 0.951 . S
C2678 C2676 1.388 . S
C2678 C2679 1.366 . S
C2679 C2678 1.366 . S
C2679 C2680 1.414 . S
C2679 C2682 1.499 . S
C2680 H2660 0.950 . S
C2680 C2679 1.414 . S
C2680 C2681 1.374 . S
C2681 H2661 0.950 . S
C2681 C2677 1.385 . S
C2681 C2680 1.374 . S
C2682 C2679 1.499 . S
C2682 C2683 1.373 . S
C2682 C2684 1.389 . S
C2683 H2662 0.950 . S
C2683 C2682 1.373 . S
C2683 C2699 1.377 . S
C2684 C2682 1.389 . S
C2684 C2685 1.524 . S
C2684 C2698 1.377 . S
C2685 C2684 1.524 . S
C2685 C2686 1.397 . S
C2685 C2690 1.363 . S
C2686 H2663 0.950 . S
C2686 C2685 1.397 . S
C2686 C2687 1.334 . S
C2687 H2664 0.950 . S
C2687 C2686 1.334 . S
C2687 C2688 1.287 . S
C2688 C2687 1.287 . S
C2688 C2689 1.524 . S
C2688 H2707 0.913 . S
C2689 H2665 0.950 . S
C2689 C2688 1.524 . S
C2689 C2690 1.415 . S
C2690 H2666 0.950 . S
C2690 C2685 1.363 . S
C2690 C2689 1.415 . S
C2691 H2667 0.951 . S
C2691 C2692 1.366 . S
C2691 C2693 1.388 . S
C2692 C2691 1.366 . S
C2692 C2696 1.385 . S
C2693 H2668 0.951 . S
C2693 C2691 1.388 . S
C2693 C2694 1.366 . S
C2694 C2693 1.366 . S
C2694 C2695 1.414 . S
C2694 C2697 1.499 . S
C2695 H2669 0.950 . S
C2695 C2694 1.414 . S
C2695 C2696 1.374 . S
C2696 H2670 0.950 . S
C2696 C2692 1.385 . S
C2696 C2695 1.374 . S
C2697 C2694 1.499 . S
C2697 C2698 1.373 . S
C2697 C2699 1.389 . S
C2698 H2671 0.950 . S
C2698 C2684 1.377 . S
C2698 C2697 1.373 . S
C2699 C2683 1.377 . S
C2699 C2697 1.389 . S
C2699 C2700 1.524 . S
C2700 C2699 1.524 . S
C2700 C2701 1.397 . S
C2700 C2705 1.363 . S
C2701 H2672 0.950 . S
C2701 C2700 1.397 . S
C2701 C2702 1.334 . S
C2702 H2673 0.950 . S
C2702 C2701 1.334 . S
C2702 C2703 1.287 . S
C2703 C2702 1.287 . S
C2703 C2704 1.524 . S
C2703 H2706 0.999 . S
C2704 H2674 0.950 . S
C2704 C2703 1.524 . S
C2704 C2705 1.415 . S
C2705 H2675 0.950 . S
C2705 C2700 1.363 . S
C2705 C2704 1.415 . S
H2706 C2703 0.999 . S
H2707 C2688 0.913 . S
H2708 C2726 0.951 . S
H2709 C2728 0.951 . S
H2710 C2730 0.950 . S
H2711 C2731 0.950 . S
H2712 C2733 0.950 . S
H2713 C2736 0.950 . S
H2714 C2737 0.950 . S
H2715 C2739 0.950 . S
H2716 C2740 0.950 . S
H2717 C2741 0.951 . S
H2718 C2743 0.951 . S
H2719 C2745 0.950 . S
H2720 C2746 0.950 . S
H2721 C2748 0.950 . S
H2722 C2751 0.950 . S
H2723 C2752 0.950 . S
H2724 C2754 0.950 . S
H2725 C2755 0.950 . S
C2726 H2708 0.951 . S
C2726 C2727 1.366 . S
C2726 C2728 1.388 . S
C2727 C2726 1.366 . S
C2727 C2731 1.385 . S
C2728 H2709 0.951 . S
C2728 C2726 1.388 . S
C2728 C2729 1.366 . S
C2729 C2728 1.366 . S
C2729 C2730 1.414 . S
C2729 C2732 1.499 . S
C2730 H2710 0.950 . S
C2730 C2729 1.414 . S
C2730 C2731 1.374 . S
C2731 H2711 0.950 . S
C2731 C2727 1.385 . S
C2731 C2730 1.374 . S
C2732 C2729 1.499 . S
C2732 C2733 1.373 . S
C2732 C2734 1.389 . S
C2733 H2712 0.950 . S
C2733 C2732 1.373 . S
C2733 C2749 1.377 . S
C2734 C2732 1.389 . S
C2734 C2735 1.524 . S
C2734 C2748 1.377 . S
C2735 C2734 1.524 . S
C2735 C2736 1.397 . S
C2735 C2740 1.363 . S
C2736 H2713 0.950 . S
C2736 C2735 1.397 . S
C2736 C2737 1.334 . S
C2737 H2714 0.950 . S
C2737 C2736 1.334 . S
C2737 C2738 1.287 . S
C2738 C2737 1.287 . S
C2738 C2739 1.524 . S
C2738 H2757 0.913 . S
C2739 H2715 0.950 . S
C2739 C2738 1.524 . S
C2739 C2740 1.415 . S
C2740 H2716 0.950 . S
C2740 C2735 1.363 . S
C2740 C2739 1.415 . S
C2741 H2717 0.951 . S
C2741 C2742 1.366 . S
C2741 C2743 1.388 . S
C2742 C2741 1.366 . S
C2742 C2746 1.385 . S
C2743 H2718 0.951 . S
C2743 C2741 1.388 . S
C2743 C2744 1.366 . S
C2744 C2743 1.366 . S
C2744 C2745 1.414 . S
C2744 C2747 1.499 . S
C2745 H2719 0.950 . S
C2745 C2744 1.414 . S
C2745 C2746 1.374 . S
C2746 H2720 0.950 . S
C2746 C2742 1.385 . S
C2746 C2745 1.374 . S
C2747 C2744 1.499 . S
C2747 C2748 1.373 . S
C2747 C2749 1.389 . S
C2748 H2721 0.950 . S
C2748 C2734 1.377 . S
C2748 C2747 1.373 . S
C2749 C2733 1.377 . S
C2749 C2747 1.389 . S
C2749 C2750 1.524 . S
C2750 C2749 1.524 . S
C2750 C2751 1.397 . S
C2750 C2755 1.363 . S
C2751 H2722 0.950 . S
C2751 C2750 1.397 . S
C2751 C2752 1.334 . S
C2752 H2723 0.950 . S
C2752 C2751 1.334 . S
C2752 C2753 1.287 . S
C2753 C2752 1.287 . S
C2753 C2754 1.524 . S
C2753 H2756 0.999 . S
C2754 H2724 0.950 . S
C2754 C2753 1.524 . S
C2754 C2755 1.415 . S
C2755 H2725 0.950 . S
C2755 C2750 1.363 . S
C2755 C2754 1.415 . S
H2756 C2753 0.999 . S
H2757 C2738 0.913 . S
H2758 C2776 0.951 . S
H2759 C2778 0.951 . S
H2760 C2780 0.950 . S
H2761 C2781 0.950 . S
H2762 C2783 0.950 . S
H2763 C2786 0.950 . S
H2764 C2787 0.950 . S
H2765 C2789 0.950 . S
H2766 C2790 0.950 . S
H2767 C2791 0.951 . S
H2768 C2793 0.951 . S
H2769 C2795 0.950 . S
H2770 C2796 0.950 . S
H2771 C2798 0.950 . S
H2772 C2801 0.950 . S
H2773 C2802 0.950 . S
H2774 C2804 0.950 . S
H2775 C2805 0.950 . S
C2776 H2758 0.951 . S
C2776 C2777 1.366 . S
C2776 C2778 1.388 . S
C2777 C2776 1.366 . S
C2777 C2781 1.385 . S
C2778 H2759 0.951 . S
C2778 C2776 1.388 . S
C2778 C2779 1.366 . S
C2779 C2778 1.366 . S
C2779 C2780 1.414 . S
C2779 C2782 1.499 . S
C2780 H2760 0.950 . S
C2780 C2779 1.414 . S
C2780 C2781 1.374 . S
C2781 H2761 0.950 . S
C2781 C2777 1.385 . S
C2781 C2780 1.374 . S
C2782 C2779 1.499 . S
C2782 C2783 1.373 . S
C2782 C2784 1.389 . S
C2783 H2762 0.950 . S
C2783 C2782 1.373 . S
C2783 C2799 1.377 . S
C2784 C2782 1.389 . S
C2784 C2785 1.524 . S
C2784 C2798 1.377 . S
C2785 C2784 1.524 . S
C2785 C2786 1.397 . S
C2785 C2790 1.363 . S
C2786 H2763 0.950 . S
C2786 C2785 1.397 . S
C2786 C2787 1.334 . S
C2787 H2764 0.950 . S
C2787 C2786 1.334 . S
C2787 C2788 1.287 . S
C2788 C2787 1.287 . S
C2788 C2789 1.524 . S
C2788 H2807 0.913 . S
C2789 H2765 0.950 . S
C2789 C2788 1.524 . S
C2789 C2790 1.415 . S
C2790 H2766 0.950 . S
C2790 C2785 1.363 . S
C2790 C2789 1.415 . S
C2791 H2767 0.951 . S
C2791 C2792 1.366 . S
C2791 C2793 1.388 . S
C2792 C2791 1.366 . S
C2792 C2796 1.385 . S
C2793 H2768 0.951 . S
C2793 C2791 1.388 . S
C2793 C2794 1.366 . S
C2794 C2793 1.366 . S
C2794 C2795 1.414 . S
C2794 C2797 1.499 . S
C2795 H2769 0.950 . S
C2795 C2794 1.414 . S
C2795 C2796 1.374 . S
C2796 H2770 0.950 . S
C2796 C2792 1.385 . S
C2796 C2795 1.374 . S
C2797 C2794 1.499 . S
C2797 C2798 1.373 . S
C2797 C2799 1.389 . S
C2798 H2771 0.950 . S
C2798 C2784 1.377 . S
C2798 C2797 1.373 . S
C2799 C2783 1.377 . S
C2799 C2797 1.389 . S
C2799 C2800 1.524 . S
C2800 C2799 1.524 . S
C2800 C2801 1.397 . S
C2800 C2805 1.363 . S
C2801 H2772 0.950 . S
C2801 C2800 1.397 . S
C2801 C2802 1.334 . S
C2802 H2773 0.950 . S
C2802 C2801 1.334 . S
C2802 C2803 1.287 . S
C2803 C2802 1.287 . S
C2803 C2804 1.524 . S
C2803 H2806 0.999 . S
C2804 H2774 0.950 . S
C2804 C2803 1.524 . S
C2804 C2805 1.415 . S
C2805 H2775 0.950 . S
C2805 C2800 1.363 . S
C2805 C2804 1.415 . S
H2806 C2803 0.999 . S
H2807 C2788 0.913 . S
H2808 C2826 0.951 . S
H2809 C2828 0.951 . S
H2810 C2830 0.922 1_545 S
H2811 C2831 0.950 . S
H2812 C2833 0.950 . S
H2813 C2836 0.950 . S
H2814 C2837 0.950 . S
H2815 C2839 0.950 . S
H2816 C2840 0.950 . S
H2817 C2841 0.951 . S
H2818 C2843 0.951 . S
H2819 C2845 0.950 . S
H2820 C2846 0.950 . S
H2821 C2848 0.950 . S
H2822 C2851 0.950 . S
H2823 C2852 0.950 . S
H2824 C2854 0.950 . S
H2825 C2855 0.950 . S
C2826 H2808 0.951 . S
C2826 C2827 1.366 . S
C2826 C2828 1.388 . S
C2827 C2826 1.366 . S
C2827 C2831 1.385 . S
C2828 H2809 0.951 . S
C2828 C2826 1.388 . S
C2828 C2829 1.366 1_565 S
C2829 C2828 1.366 1_545 S
C2829 C2830 1.406 1_545 S
C2829 C2832 1.499 . S
C2830 H2810 0.922 1_565 S
C2830 C2829 1.406 1_565 S
C2830 C2831 1.413 . S
C2831 H2811 0.950 . S
C2831 C2827 1.385 . S
C2831 C2830 1.413 . S
C2832 C2829 1.499 . S
C2832 C2833 1.373 . S
C2832 C2834 1.389 . S
C2833 H2812 0.950 . S
C2833 C2832 1.373 . S
C2833 C2849 1.377 . S
C2834 C2832 1.389 . S
C2834 C2835 1.524 . S
C2834 C2848 1.377 . S
C2835 C2834 1.524 . S
C2835 C2836 1.397 . S
C2835 C2840 1.363 . S
C2836 H2813 0.950 . S
C2836 C2835 1.397 . S
C2836 C2837 1.334 . S
C2837 H2814 0.950 . S
C2837 C2836 1.334 . S
C2837 C2838 1.287 . S
C2838 C2837 1.287 . S
C2838 C2839 1.524 . S
C2838 H2857 0.913 . S
C2839 H2815 0.950 . S
C2839 C2838 1.524 . S
C2839 C2840 1.415 . S
C2840 H2816 0.950 . S
C2840 C2835 1.363 . S
C2840 C2839 1.415 . S
C2841 H2817 0.951 . S
C2841 C2842 1.366 . S
C2841 C2843 1.388 . S
C2842 C2841 1.366 . S
C2842 C2846 1.385 . S
C2843 H2818 0.951 . S
C2843 C2841 1.388 . S
C2843 C2844 1.366 . S
C2844 C2843 1.366 . S
C2844 C2845 1.414 . S
C2844 C2847 1.499 . S
C2845 H2819 0.950 . S
C2845 C2844 1.414 . S
C2845 C2846 1.374 . S
C2846 H2820 0.950 . S
C2846 C2842 1.385 . S
C2846 C2845 1.374 . S
C2847 C2844 1.499 . S
C2847 C2848 1.373 . S
C2847 C2849 1.389 . S
C2848 H2821 0.950 . S
C2848 C2834 1.377 . S
C2848 C2847 1.373 . S
C2849 C2833 1.377 . S
C2849 C2847 1.389 . S
C2849 C2850 1.524 . S
C2850 C2849 1.524 . S
C2850 C2851 1.397 . S
C2850 C2855 1.363 . S
C2851 H2822 0.950 . S
C2851 C2850 1.397 . S
C2851 C2852 1.334 . S
C2852 H2823 0.950 . S
C2852 C2851 1.334 . S
C2852 C2853 1.287 . S
C2853 C2852 1.287 . S
C2853 C2854 1.524 . S
C2853 H2856 0.999 . S
C2854 H2824 0.950 . S
C2854 C2853 1.524 . S
C2854 C2855 1.415 . S
C2855 H2825 0.950 . S
C2855 C2850 1.363 . S
C2855 C2854 1.415 . S
H2856 C2853 0.999 . S
H2857 C2838 0.913 . S
H2858 C2876 0.951 . S
H2859 C2878 0.951 . S
H2860 C2880 0.950 . S
H2861 C2881 0.950 . S
H2862 C2883 0.950 . S
H2863 C2886 0.950 . S
H2864 C2887 0.950 . S
H2865 C2889 0.950 . S
H2866 C2890 0.950 . S
H2867 C2891 0.951 . S
H2868 C2893 0.951 . S
H2869 C2895 0.950 . S
H2870 C2896 0.950 . S
H2871 C2898 0.950 . S
H2872 C2901 0.950 . S
H2873 C2902 0.950 . S
H2874 C2904 0.950 . S
H2875 C2905 0.950 . S
C2876 H2858 0.951 . S
C2876 C2877 1.366 . S
C2876 C2878 1.388 . S
C2877 C2876 1.366 . S
C2877 C2881 1.385 . S
C2878 H2859 0.951 . S
C2878 C2876 1.388 . S
C2878 C2879 1.366 1_455 S
C2879 C2878 1.366 1_655 S
C2879 C2880 1.414 . S
C2879 C2882 1.499 . S
C2880 H2860 0.950 . S
C2880 C2879 1.414 . S
C2880 C2881 1.374 1_655 S
C2881 H2861 0.950 . S
C2881 C2877 1.385 . S
C2881 C2880 1.374 1_455 S
C2882 C2879 1.499 . S
C2882 C2883 1.373 . S
C2882 C2884 1.389 . S
C2883 H2862 0.950 . S
C2883 C2882 1.373 . S
C2883 C2899 1.377 . S
C2884 C2882 1.389 . S
C2884 C2885 1.524 . S
C2884 C2898 1.377 . S
C2885 C2884 1.524 . S
C2885 C2886 1.397 . S
C2885 C2890 1.363 . S
C2886 H2863 0.950 . S
C2886 C2885 1.397 . S
C2886 C2887 1.334 . S
C2887 H2864 0.950 . S
C2887 C2886 1.334 . S
C2887 C2888 1.287 . S
C2888 C2887 1.287 . S
C2888 C2889 1.524 . S
C2888 H2907 0.913 . S
C2889 H2865 0.950 . S
C2889 C2888 1.524 . S
C2889 C2890 1.415 . S
C2890 H2866 0.950 . S
C2890 C2885 1.363 . S
C2890 C2889 1.415 . S
C2891 H2867 0.951 . S
C2891 C2892 1.366 . S
C2891 C2893 1.388 . S
C2892 C2891 1.366 . S
C2892 C2896 1.385 . S
C2893 H2868 0.951 . S
C2893 C2891 1.388 . S
C2893 C2894 1.366 . S
C2894 C2893 1.366 . S
C2894 C2895 1.414 . S
C2894 C2897 1.499 . S
C2895 H2869 0.950 . S
C2895 C2894 1.414 . S
C2895 C2896 1.374 . S
C2896 H2870 0.950 . S
C2896 C2892 1.385 . S
C2896 C2895 1.374 . S
C2897 C2894 1.499 . S
C2897 C2898 1.373 . S
C2897 C2899 1.389 . S
C2898 H2871 0.950 . S
C2898 C2884 1.377 . S
C2898 C2897 1.373 . S
C2899 C2883 1.377 . S
C2899 C2897 1.389 . S
C2899 C2900 1.524 . S
C2900 C2899 1.524 . S
C2900 C2901 1.397 . S
C2900 C2905 1.363 . S
C2901 H2872 0.950 . S
C2901 C2900 1.397 . S
C2901 C2902 1.334 . S
C2902 H2873 0.950 . S
C2902 C2901 1.334 . S
C2902 C2903 1.287 . S
C2903 C2902 1.287 . S
C2903 C2904 1.524 . S
C2903 H2906 0.999 . S
C2904 H2874 0.950 . S
C2904 C2903 1.524 . S
C2904 C2905 1.415 . S
C2905 H2875 0.950 . S
C2905 C2900 1.363 . S
C2905 C2904 1.415 . S
H2906 C2903 0.999 . S
H2907 C2888 0.913 . S
H2908 C2926 0.951 . S
H2909 C2928 0.951 . S
H2910 C2930 0.950 . S
H2911 C2931 0.950 . S
H2912 C2933 0.950 . S
H2913 C2936 0.950 . S
H2914 C2937 0.950 . S
H2915 C2939 0.950 . S
H2916 C2940 0.950 . S
H2917 C2941 0.951 . S
H2918 C2943 0.951 . S
H2919 C2945 0.950 . S
H2920 C2946 0.950 . S
H2921 C2948 0.950 . S
H2922 C2951 0.950 . S
H2923 C2952 0.950 . S
H2924 C2954 0.950 . S
H2925 C2955 0.950 . S
C2926 H2908 0.951 . S
C2926 C2927 1.366 . S
C2926 C2928 1.388 . S
C2927 C2926 1.366 . S
C2927 C2931 1.385 . S
C2928 H2909 0.951 . S
C2928 C2926 1.388 . S
C2928 C2929 1.366 . S
C2929 C2928 1.366 . S
C2929 C2930 1.414 . S
C2929 C2932 1.499 . S
C2930 H2910 0.950 . S
C2930 C2929 1.414 . S
C2930 C2931 1.374 . S
C2931 H2911 0.950 . S
C2931 C2927 1.385 . S
C2931 C2930 1.374 . S
C2932 C2929 1.499 . S
C2932 C2933 1.373 . S
C2932 C2934 1.389 . S
C2933 H2912 0.950 . S
C2933 C2932 1.373 . S
C2933 C2949 1.377 . S
C2934 C2932 1.389 . S
C2934 C2935 1.524 . S
C2934 C2948 1.377 . S
C2935 C2934 1.524 . S
C2935 C2936 1.397 . S
C2935 C2940 1.363 . S
C2936 H2913 0.950 . S
C2936 C2935 1.397 . S
C2936 C2937 1.334 . S
C2937 H2914 0.950 . S
C2937 C2936 1.334 . S
C2937 C2938 1.287 . S
C2938 C2937 1.287 . S
C2938 C2939 1.524 . S
C2938 H2957 0.913 . S
C2939 H2915 0.950 . S
C2939 C2938 1.524 . S
C2939 C2940 1.415 . S
C2940 H2916 0.950 . S
C2940 C2935 1.363 . S
C2940 C2939 1.415 . S
C2941 H2917 0.951 . S
C2941 C2942 1.366 . S
C2941 C2943 1.388 . S
C2942 C2941 1.366 . S
C2942 C2946 1.385 . S
C2943 H2918 0.951 . S
C2943 C2941 1.388 . S
C2943 C2944 1.366 . S
C2944 C2943 1.366 . S
C2944 C2945 1.414 . S
C2944 C2947 1.499 . S
C2945 H2919 0.950 . S
C2945 C2944 1.414 . S
C2945 C2946 1.374 . S
C2946 H2920 0.950 . S
C2946 C2942 1.385 . S
C2946 C2945 1.374 . S
C2947 C2944 1.499 . S
C2947 C2948 1.373 . S
C2947 C2949 1.389 . S
C2948 H2921 0.950 . S
C2948 C2934 1.377 . S
C2948 C2947 1.373 . S
C2949 C2933 1.377 . S
C2949 C2947 1.389 . S
C2949 C2950 1.524 . S
C2950 C2949 1.524 . S
C2950 C2951 1.397 . S
C2950 C2955 1.363 . S
C2951 H2922 0.950 . S
C2951 C2950 1.397 . S
C2951 C2952 1.334 . S
C2952 H2923 0.950 . S
C2952 C2951 1.334 . S
C2952 C2953 1.287 . S
C2953 C2952 1.287 . S
C2953 C2954 1.524 . S
C2953 H2956 0.999 . S
C2954 H2924 0.950 . S
C2954 C2953 1.524 . S
C2954 C2955 1.415 . S
C2955 H2925 0.950 . S
C2955 C2950 1.363 . S
C2955 C2954 1.415 . S
H2956 C2953 0.999 . S
H2957 C2938 0.913 . S
H2958 C2976 0.951 . S
H2959 C2978 0.951 . S
H2960 C2980 0.950 . S
H2961 C2981 0.950 . S
H2962 C2983 0.950 . S
H2963 C2986 0.950 . S
H2964 C2987 0.950 1_455 S
H2965 C2989 0.950 . S
H2966 C2990 0.950 . S
H2967 C2991 0.951 . S
H2968 C2993 0.951 . S
H2969 C2995 0.950 . S
H2970 C2996 0.950 . S
H2971 C2998 0.950 . S
H2972 C3001 0.950 . S
H2973 C3002 0.950 . S
H2974 C3004 0.950 . S
H2975 C3005 0.950 . S
C2976 H2958 0.951 . S
C2976 C2977 1.366 . S
C2976 C2978 1.388 1_455 S
C2977 C2976 1.366 . S
C2977 C2981 1.385 . S
C2978 H2959 0.951 . S
C2978 C2976 1.388 1_655 S
C2978 C2979 1.366 . S
C2979 C2978 1.366 . S
C2979 C2980 1.414 1_655 S
C2979 C2982 1.499 . S
C2980 H2960 0.950 . S
C2980 C2979 1.414 1_455 S
C2980 C2981 1.374 . S
C2981 H2961 0.950 . S
C2981 C2977 1.385 . S
C2981 C2980 1.374 . S
C2982 C2979 1.499 . S
C2982 C2983 1.373 . S
C2982 C2984 1.389 . S
C2983 H2962 0.950 . S
C2983 C2982 1.373 . S
C2983 C2999 1.377 . S
C2984 C2982 1.389 . S
C2984 C2985 1.524 . S
C2984 C2998 1.377 . S
C2985 C2984 1.524 . S
C2985 C2986 1.397 . S
C2985 C2990 1.363 . S
C2986 H2963 0.950 . S
C2986 C2985 1.397 . S
C2986 C2987 1.334 . S
C2987 H2964 0.950 1_655 S
C2987 C2986 1.334 . S
C2987 C2988 1.287 . S
C2988 C2987 1.287 . S
C2988 C2989 1.524 . S
C2988 H3007 0.913 . S
C2989 H2965 0.950 . S
C2989 C2988 1.524 . S
C2989 C2990 1.415 . S
C2990 H2966 0.950 . S
C2990 C2985 1.363 . S
C2990 C2989 1.415 . S
C2991 H2967 0.951 . S
C2991 C2992 1.366 . S
C2991 C2993 1.388 . S
C2992 C2991 1.366 . S
C2992 C2996 1.385 . S
C2993 H2968 0.951 . S
C2993 C2991 1.388 . S
C2993 C2994 1.366 . S
C2994 C2993 1.366 . S
C2994 C2995 1.414 . S
C2994 C2997 1.499 . S
C2995 H2969 0.950 . S
C2995 C2994 1.414 . S
C2995 C2996 1.374 . S
C2996 H2970 0.950 . S
C2996 C2992 1.385 . S
C2996 C2995 1.374 . S
C2997 C2994 1.499 . S
C2997 C2998 1.373 . S
C2997 C2999 1.389 . S
C2998 H2971 0.950 . S
C2998 C2984 1.377 . S
C2998 C2997 1.373 . S
C2999 C2983 1.377 . S
C2999 C2997 1.389 . S
C2999 C3000 1.524 . S
C3000 C2999 1.524 . S
C3000 C3001 1.397 . S
C3000 C3005 1.363 . S
C3001 H2972 0.950 . S
C3001 C3000 1.397 . S
C3001 C3002 1.334 . S
C3002 H2973 0.950 . S
C3002 C3001 1.334 . S
C3002 C3003 1.287 . S
C3003 C3002 1.287 . S
C3003 C3004 1.524 . S
C3003 H3006 0.999 . S
C3004 H2974 0.950 . S
C3004 C3003 1.524 . S
C3004 C3005 1.415 . S
C3005 H2975 0.950 . S
C3005 C3000 1.363 . S
C3005 C3004 1.415 . S
H3006 C3003 0.999 . S
H3007 C2988 0.913 . S
H3008 C3026 0.951 . S
H3009 C3028 0.951 . S
H3010 C3030 0.950 . S
H3011 C3031 0.950 . S
H3012 C3033 0.950 . S
H3013 C3036 0.950 . S
H3014 C3037 0.950 . S
H3015 C3039 0.950 . S
H3016 C3040 0.950 . S
H3017 C3041 0.951 . S
H3018 C3043 0.951 . S
H3019 C3045 0.950 . S
H3020 C3046 0.950 . S
H3021 C3048 0.950 . S
H3022 C3051 0.950 . S
H3023 C3052 0.950 . S
H3024 C3054 0.950 . S
H3025 C3055 0.950 . S
C3026 H3008 0.951 . S
C3026 C3027 1.366 . S
C3026 C3028 1.388 . S
C3027 C3026 1.366 . S
C3027 C3031 1.385 . S
C3028 H3009 0.951 . S
C3028 C3026 1.388 . S
C3028 C3029 1.366 . S
C3029 C3028 1.366 . S
C3029 C3030 1.414 . S
C3029 C3032 1.499 . S
C3030 H3010 0.950 . S
C3030 C3029 1.414 . S
C3030 C3031 1.374 . S
C3031 H3011 0.950 . S
C3031 C3027 1.385 . S
C3031 C3030 1.374 . S
C3032 C3029 1.499 . S
C3032 C3033 1.373 . S
C3032 C3034 1.389 . S
C3033 H3012 0.950 . S
C3033 C3032 1.373 . S
C3033 C3049 1.377 . S
C3034 C3032 1.389 . S
C3034 C3035 1.524 . S
C3034 C3048 1.377 . S
C3035 C3034 1.524 . S
C3035 C3036 1.397 . S
C3035 C3040 1.363 . S
C3036 H3013 0.950 . S
C3036 C3035 1.397 . S
C3036 C3037 1.334 . S
C3037 H3014 0.950 . S
C3037 C3036 1.334 . S
C3037 C3038 1.287 . S
C3038 C3037 1.287 . S
C3038 C3039 1.524 . S
C3038 H3057 0.913 . S
C3039 H3015 0.950 . S
C3039 C3038 1.524 . S
C3039 C3040 1.415 . S
C3040 H3016 0.950 . S
C3040 C3035 1.363 . S
C3040 C3039 1.415 . S
C3041 H3017 0.951 . S
C3041 C3042 1.366 . S
C3041 C3043 1.388 . S
C3042 C3041 1.366 . S
C3042 C3046 1.385 . S
C3043 H3018 0.951 . S
C3043 C3041 1.388 . S
C3043 C3044 1.366 . S
C3044 C3043 1.366 . S
C3044 C3045 1.414 . S
C3044 C3047 1.499 . S
C3045 H3019 0.950 . S
C3045 C3044 1.414 . S
C3045 C3046 1.374 . S
C3046 H3020 0.950 . S
C3046 C3042 1.385 . S
C3046 C3045 1.374 . S
C3047 C3044 1.499 . S
C3047 C3048 1.373 . S
C3047 C3049 1.389 . S
C3048 H3021 0.950 . S
C3048 C3034 1.377 . S
C3048 C3047 1.373 . S
C3049 C3033 1.377 . S
C3049 C3047 1.389 . S
C3049 C3050 1.524 . S
C3050 C3049 1.524 . S
C3050 C3051 1.397 . S
C3050 C3055 1.363 . S
C3051 H3022 0.950 . S
C3051 C3050 1.397 . S
C3051 C3052 1.334 . S
C3052 H3023 0.950 . S
C3052 C3051 1.334 . S
C3052 C3053 1.287 . S
C3053 C3052 1.287 . S
C3053 C3054 1.524 . S
C3053 H3056 0.999 . S
C3054 H3024 0.950 . S
C3054 C3053 1.524 . S
C3054 C3055 1.415 . S
C3055 H3025 0.950 . S
C3055 C3050 1.363 . S
C3055 C3054 1.415 . S
H3056 C3053 0.999 . S
H3057 C3038 0.913 . S
H3058 C3076 0.951 . S
H3059 C3078 0.951 . S
H3060 C3080 0.950 1_545 S
H3061 C3081 0.950 . S
H3062 C3083 0.950 . S
H3063 C3086 0.950 . S
H3064 C3087 0.950 . S
H3065 C3089 0.950 . S
H3066 C3090 0.950 . S
H3067 C3091 0.951 . S
H3068 C3093 0.951 . S
H3069 C3095 0.950 . S
H3070 C3096 0.950 . S
H3071 C3098 0.950 . S
H3072 C3101 0.950 . S
H3073 C3102 0.950 . S
H3074 C3104 0.950 . S
H3075 C3105 0.950 . S
C3076 H3058 0.951 . S
C3076 C3077 1.366 . S
C3076 C3078 1.388 . S
C3077 C3076 1.366 . S
C3077 C3081 1.385 . S
C3078 H3059 0.951 . S
C3078 C3076 1.388 . S
C3078 C3079 1.355 1_565 S
C3079 C3078 1.355 1_545 S
C3079 C3080 1.364 1_545 S
C3079 C3082 1.558 . S
C3080 H3060 0.950 1_565 S
C3080 C3079 1.364 1_565 S
C3080 C3081 1.374 . S
C3081 H3061 0.950 . S
C3081 C3077 1.385 . S
C3081 C3080 1.374 . S
C3082 C3079 1.558 . S
C3082 C3083 1.373 . S
C3082 C3084 1.389 . S
C3083 H3062 0.950 . S
C3083 C3082 1.373 . S
C3083 C3099 1.377 . S
C3084 C3082 1.389 . S
C3084 C3085 1.524 . S
C3084 C3098 1.377 . S
C3085 C3084 1.524 . S
C3085 C3086 1.397 . S
C3085 C3090 1.363 . S
C3086 H3063 0.950 . S
C3086 C3085 1.397 . S
C3086 C3087 1.334 . S
C3087 H3064 0.950 . S
C3087 C3086 1.334 . S
C3087 C3088 1.287 . S
C3088 C3087 1.287 . S
C3088 C3089 1.524 . S
C3088 H3107 0.913 . S
C3089 H3065 0.950 . S
C3089 C3088 1.524 . S
C3089 C3090 1.415 . S
C3090 H3066 0.950 . S
C3090 C3085 1.363 . S
C3090 C3089 1.415 . S
C3091 H3067 0.951 . S
C3091 C3092 1.366 . S
C3091 C3093 1.388 . S
C3092 C3091 1.366 . S
C3092 C3096 1.385 . S
C3093 H3068 0.951 . S
C3093 C3091 1.388 . S
C3093 C3094 1.366 . S
C3094 C3093 1.366 . S
C3094 C3095 1.414 . S
C3094 C3097 1.499 . S
C3095 H3069 0.950 . S
C3095 C3094 1.414 . S
C3095 C3096 1.374 . S
C3096 H3070 0.950 . S
C3096 C3092 1.385 . S
C3096 C3095 1.374 . S
C3097 C3094 1.499 . S
C3097 C3098 1.373 . S
C3097 C3099 1.389 . S
C3098 H3071 0.950 . S
C3098 C3084 1.377 . S
C3098 C3097 1.373 . S
C3099 C3083 1.377 . S
C3099 C3097 1.389 . S
C3099 C3100 1.524 . S
C3100 C3099 1.524 . S
C3100 C3101 1.397 . S
C3100 C3105 1.363 . S
C3101 H3072 0.950 . S
C3101 C3100 1.397 . S
C3101 C3102 1.334 . S
C3102 H3073 0.950 . S
C3102 C3101 1.334 . S
C3102 C3103 1.287 . S
C3103 C3102 1.287 . S
C3103 C3104 1.524 . S
C3103 H3106 0.999 . S
C3104 H3074 0.950 . S
C3104 C3103 1.524 . S
C3104 C3105 1.415 . S
C3105 H3075 0.950 . S
C3105 C3100 1.363 . S
C3105 C3104 1.415 . S
H3106 C3103 0.999 . S
H3107 C3088 0.913 . S
H3108 C3126 0.951 . S
H3109 C3128 0.951 . S
H3110 C3130 0.950 . S
H3111 C3131 0.950 . S
H3112 C3133 0.950 . S
H3113 C3136 0.950 . S
H3114 C3137 0.950 . S
H3115 C3139 0.950 . S
H3116 C3140 0.950 . S
H3117 C3141 0.951 . S
H3118 C3143 0.951 . S
H3119 C3145 0.950 . S
H3120 C3146 0.950 . S
H3121 C3148 0.950 . S
H3122 C3151 0.950 . S
H3123 C3152 0.950 . S
H3124 C3154 0.950 . S
H3125 C3155 0.950 . S
C3126 H3108 0.951 . S
C3126 C3127 1.366 . S
C3126 C3128 1.388 . S
C3127 C3126 1.366 . S
C3127 C3131 1.385 . S
C3128 H3109 0.951 . S
C3128 C3126 1.388 . S
C3128 C3129 1.366 . S
C3129 C3128 1.366 . S
C3129 C3130 1.414 . S
C3129 C3132 1.499 . S
C3130 H3110 0.950 . S
C3130 C3129 1.414 . S
C3130 C3131 1.374 . S
C3131 H3111 0.950 . S
C3131 C3127 1.385 . S
C3131 C3130 1.374 . S
C3132 C3129 1.499 . S
C3132 C3133 1.373 . S
C3132 C3134 1.389 . S
C3133 H3112 0.950 . S
C3133 C3132 1.373 . S
C3133 C3149 1.377 . S
C3134 C3132 1.389 . S
C3134 C3135 1.524 . S
C3134 C3148 1.377 . S
C3135 C3134 1.524 . S
C3135 C3136 1.397 . S
C3135 C3140 1.363 . S
C3136 H3113 0.950 . S
C3136 C3135 1.397 . S
C3136 C3137 1.334 . S
C3137 H3114 0.950 . S
C3137 C3136 1.334 . S
C3137 C3138 1.287 . S
C3138 C3137 1.287 . S
C3138 C3139 1.524 . S
C3138 H3157 0.913 . S
C3139 H3115 0.950 . S
C3139 C3138 1.524 . S
C3139 C3140 1.415 . S
C3140 H3116 0.950 . S
C3140 C3135 1.363 . S
C3140 C3139 1.415 . S
C3141 H3117 0.951 . S
C3141 C3142 1.366 . S
C3141 C3143 1.388 . S
C3142 C3141 1.366 . S
C3142 C3146 1.385 . S
C3143 H3118 0.951 . S
C3143 C3141 1.388 . S
C3143 C3144 1.366 . S
C3144 C3143 1.366 . S
C3144 C3145 1.414 . S
C3144 C3147 1.499 . S
C3145 H3119 0.950 . S
C3145 C3144 1.414 . S
C3145 C3146 1.374 . S
C3146 H3120 0.950 . S
C3146 C3142 1.385 . S
C3146 C3145 1.374 . S
C3147 C3144 1.499 . S
C3147 C3148 1.373 . S
C3147 C3149 1.389 . S
C3148 H3121 0.950 . S
C3148 C3134 1.377 . S
C3148 C3147 1.373 . S
C3149 C3133 1.377 . S
C3149 C3147 1.389 . S
C3149 C3150 1.524 . S
C3150 C3149 1.524 . S
C3150 C3151 1.397 . S
C3150 C3155 1.363 . S
C3151 H3122 0.950 . S
C3151 C3150 1.397 . S
C3151 C3152 1.334 . S
C3152 H3123 0.950 . S
C3152 C3151 1.334 . S
C3152 C3153 1.287 . S
C3153 C3152 1.287 . S
C3153 C3154 1.524 . S
C3153 H3156 0.999 . S
C3154 H3124 0.950 . S
C3154 C3153 1.524 . S
C3154 C3155 1.415 . S
C3155 H3125 0.950 . S
C3155 C3150 1.363 . S
C3155 C3154 1.415 . S
H3156 C3153 0.999 . S
H3157 C3138 0.913 . S
H3158 C3176 0.951 . S
H3159 C3178 0.951 . S
H3160 C3180 0.950 . S
H3161 C3181 0.950 . S
H3162 C3183 0.950 . S
H3163 C3186 0.950 . S
H3164 C3187 0.950 . S
H3165 C3189 0.950 . S
H3166 C3190 0.950 . S
H3167 C3191 0.951 . S
H3168 C3193 0.951 . S
H3169 C3195 0.950 . S
H3170 C3196 0.950 . S
H3171 C3198 0.950 . S
H3172 C3201 0.950 . S
H3173 C3202 0.950 . S
H3174 C3204 0.950 . S
H3175 C3205 0.950 . S
C3176 H3158 0.951 . S
C3176 C3177 1.366 . S
C3176 C3178 1.388 . S
C3177 C3176 1.366 . S
C3177 C3181 1.385 . S
C3178 H3159 0.951 . S
C3178 C3176 1.388 . S
C3178 C3179 1.366 . S
C3179 C3178 1.366 . S
C3179 C3180 1.414 . S
C3179 C3182 1.499 . S
C3180 H3160 0.950 . S
C3180 C3179 1.414 . S
C3180 C3181 1.374 . S
C3181 H3161 0.950 . S
C3181 C3177 1.385 . S
C3181 C3180 1.374 . S
C3182 C3179 1.499 . S
C3182 C3183 1.373 . S
C3182 C3184 1.389 . S
C3183 H3162 0.950 . S
C3183 C3182 1.373 . S
C3183 C3199 1.377 . S
C3184 C3182 1.389 . S
C3184 C3185 1.524 . S
C3184 C3198 1.377 . S
C3185 C3184 1.524 . S
C3185 C3186 1.397 . S
C3185 C3190 1.363 . S
C3186 H3163 0.950 . S
C3186 C3185 1.397 . S
C3186 C3187 1.334 . S
C3187 H3164 0.950 . S
C3187 C3186 1.334 . S
C3187 C3188 1.287 . S
C3188 C3187 1.287 . S
C3188 C3189 1.524 . S
C3188 H3207 0.913 . S
C3189 H3165 0.950 . S
C3189 C3188 1.524 . S
C3189 C3190 1.415 . S
C3190 H3166 0.950 . S
C3190 C3185 1.363 . S
C3190 C3189 1.415 . S
C3191 H3167 0.951 . S
C3191 C3192 1.366 . S
C3191 C3193 1.388 . S
C3192 C3191 1.366 . S
C3192 C3196 1.385 . S
C3193 H3168 0.951 . S
C3193 C3191 1.388 . S
C3193 C3194 1.366 . S
C3194 C3193 1.366 . S
C3194 C3195 1.414 . S
C3194 C3197 1.499 . S
C3195 H3169 0.950 . S
C3195 C3194 1.414 . S
C3195 C3196 1.374 . S
C3196 H3170 0.950 . S
C3196 C3192 1.385 . S
C3196 C3195 1.374 . S
C3197 C3194 1.499 . S
C3197 C3198 1.373 . S
C3197 C3199 1.389 . S
C3198 H3171 0.950 . S
C3198 C3184 1.377 . S
C3198 C3197 1.373 . S
C3199 C3183 1.377 . S
C3199 C3197 1.389 . S
C3199 C3200 1.524 . S
C3200 C3199 1.524 . S
C3200 C3201 1.397 . S
C3200 C3205 1.363 . S
C3201 H3172 0.950 . S
C3201 C3200 1.397 . S
C3201 C3202 1.334 . S
C3202 H3173 0.950 . S
C3202 C3201 1.334 . S
C3202 C3203 1.287 . S
C3203 C3202 1.287 . S
C3203 C3204 1.524 . S
C3203 H3206 0.999 . S
C3204 H3174 0.950 . S
C3204 C3203 1.524 . S
C3204 C3205 1.415 . S
C3205 H3175 0.950 . S
C3205 C3200 1.363 . S
C3205 C3204 1.415 . S
H3206 C3203 0.999 . S
H3207 C3188 0.913 . S
H3208 C3226 0.951 . S
H3209 C3228 0.951 . S
H3210 C3230 0.950 . S
H3211 C3231 0.950 . S
H3212 C3233 0.950 . S
H3213 C3236 0.950 . S
H3214 C3237 0.950 . S
H3215 C3239 0.950 . S
H3216 C3240 0.950 . S
H3217 C3241 0.951 . S
H3218 C3243 0.951 . S
H3219 C3245 0.950 . S
H3220 C3246 0.950 . S
H3221 C3248 0.950 . S
H3222 C3251 0.950 . S
H3223 C3252 0.950 . S
H3224 C3254 0.950 . S
H3225 C3255 0.950 . S
C3226 H3208 0.951 . S
C3226 C3227 1.366 . S
C3226 C3228 1.388 . S
C3227 C3226 1.366 . S
C3227 C3231 1.385 . S
C3228 H3209 0.951 . S
C3228 C3226 1.388 . S
C3228 C3229 1.366 . S
C3229 C3228 1.366 . S
C3229 C3230 1.414 . S
C3229 C3232 1.499 . S
C3230 H3210 0.950 . S
C3230 C3229 1.414 . S
C3230 C3231 1.374 . S
C3231 H3211 0.950 . S
C3231 C3227 1.385 . S
C3231 C3230 1.374 . S
C3232 C3229 1.499 . S
C3232 C3233 1.373 . S
C3232 C3234 1.389 . S
C3233 H3212 0.950 . S
C3233 C3232 1.373 . S
C3233 C3249 1.377 . S
C3234 C3232 1.389 . S
C3234 C3235 1.524 . S
C3234 C3248 1.377 . S
C3235 C3234 1.524 . S
C3235 C3236 1.397 . S
C3235 C3240 1.363 . S
C3236 H3213 0.950 . S
C3236 C3235 1.397 . S
C3236 C3237 1.334 . S
C3237 H3214 0.950 . S
C3237 C3236 1.334 . S
C3237 C3238 1.287 . S
C3238 C3237 1.287 . S
C3238 C3239 1.524 . S
C3238 H3257 0.913 . S
C3239 H3215 0.950 . S
C3239 C3238 1.524 . S
C3239 C3240 1.415 . S
C3240 H3216 0.950 . S
C3240 C3235 1.363 . S
C3240 C3239 1.415 . S
C3241 H3217 0.951 . S
C3241 C3242 1.366 . S
C3241 C3243 1.388 . S
C3242 C3241 1.366 . S
C3242 C3246 1.385 . S
C3243 H3218 0.951 . S
C3243 C3241 1.388 . S
C3243 C3244 1.366 . S
C3244 C3243 1.366 . S
C3244 C3245 1.414 . S
C3244 C3247 1.499 . S
C3245 H3219 0.950 . S
C3245 C3244 1.414 . S
C3245 C3246 1.374 . S
C3246 H3220 0.950 . S
C3246 C3242 1.385 . S
C3246 C3245 1.374 . S
C3247 C3244 1.499 . S
C3247 C3248 1.373 . S
C3247 C3249 1.389 . S
C3248 H3221 0.950 . S
C3248 C3234 1.377 . S
C3248 C3247 1.373 . S
C3249 C3233 1.377 . S
C3249 C3247 1.389 . S
C3249 C3250 1.524 . S
C3250 C3249 1.524 . S
C3250 C3251 1.397 . S
C3250 C3255 1.363 . S
C3251 H3222 0.950 . S
C3251 C3250 1.397 . S
C3251 C3252 1.334 . S
C3252 H3223 0.950 . S
C3252 C3251 1.334 . S
C3252 C3253 1.287 . S
C3253 C3252 1.287 . S
C3253 C3254 1.524 . S
C3253 H3256 0.999 . S
C3254 H3224 0.950 . S
C3254 C3253 1.524 . S
C3254 C3255 1.415 . S
C3255 H3225 0.950 . S
C3255 C3250 1.363 . S
C3255 C3254 1.415 . S
H3256 C3253 0.999 . S
H3257 C3238 0.913 . S
H3258 C3276 0.951 . S
H3259 C3278 0.951 . S
H3260 C3280 0.950 . S
H3261 C3281 0.950 . S
H3262 C3283 0.950 . S
H3263 C3286 0.950 . S
H3264 C3287 0.950 . S
H3265 C3289 0.944 . S
H3266 C3290 0.950 1_545 S
H3267 C3291 0.951 . S
H3268 C3293 0.951 . S
H3269 C3295 0.950 . S
H3270 C3296 0.950 1_545 S
H3271 C3298 0.950 . S
H3272 C3301 0.950 . S
H3273 C3302 0.950 . S
H3274 C3304 0.950 . S
H3275 C3305 0.950 . S
C3276 H3258 0.951 . S
C3276 C3277 1.366 . S
C3276 C3278 1.388 . S
C3277 C3276 1.366 . S
C3277 C3281 1.385 . S
C3278 H3259 0.951 . S
C3278 C3276 1.388 . S
C3278 C3279 1.366 . S
C3279 C3278 1.366 . S
C3279 C3280 1.414 . S
C3279 C3282 1.499 . S
C3280 H3260 0.950 . S
C3280 C3279 1.414 . S
C3280 C3281 1.374 . S
C3281 H3261 0.950 . S
C3281 C3277 1.385 . S
C3281 C3280 1.374 . S
C3282 C3279 1.499 . S
C3282 C3283 1.373 . S
C3282 C3284 1.389 . S
C3283 H3262 0.950 . S
C3283 C3282 1.373 . S
C3283 C3299 1.377 . S
C3284 C3282 1.389 . S
C3284 C3285 1.524 . S
C3284 C3298 1.377 . S
C3285 C3284 1.524 . S
C3285 C3286 1.397 . S
C3285 C3290 1.363 . S
C3286 H3263 0.950 . S
C3286 C3285 1.397 . S
C3286 C3287 1.334 . S
C3287 H3264 0.950 . S
C3287 C3286 1.334 . S
C3287 C3288 1.287 . S
C3288 C3287 1.287 . S
C3288 C3289 1.526 1_565 S
C3288 H3307 0.913 . S
C3289 H3265 0.944 . S
C3289 C3288 1.526 1_545 S
C3289 C3290 1.419 1_545 S
C3290 H3266 0.950 1_565 S
C3290 C3285 1.363 . S
C3290 C3289 1.419 1_565 S
C3291 H3267 0.951 . S
C3291 C3292 1.366 . S
C3291 C3293 1.388 . S
C3292 C3291 1.366 . S
C3292 C3296 1.385 . S
C3293 H3268 0.951 . S
C3293 C3291 1.388 . S
C3293 C3294 1.366 . S
C3294 C3293 1.366 . S
C3294 C3295 1.414 . S
C3294 C3297 1.499 . S
C3295 H3269 0.950 . S
C3295 C3294 1.414 . S
C3295 C3296 1.374 . S
C3296 H3270 0.950 1_565 S
C3296 C3292 1.385 . S
C3296 C3295 1.374 . S
C3297 C3294 1.499 . S
C3297 C3298 1.373 . S
C3297 C3299 1.389 . S
C3298 H3271 0.950 . S
C3298 C3284 1.377 . S
C3298 C3297 1.373 . S
C3299 C3283 1.377 . S
C3299 C3297 1.389 . S
C3299 C3300 1.524 . S
C3300 C3299 1.524 . S
C3300 C3301 1.397 . S
C3300 C3305 1.363 . S
C3301 H3272 0.950 . S
C3301 C3300 1.397 . S
C3301 C3302 1.334 . S
C3302 H3273 0.950 . S
C3302 C3301 1.334 . S
C3302 C3303 1.287 . S
C3303 C3302 1.287 . S
C3303 C3304 1.524 . S
C3303 H3306 0.999 . S
C3304 H3274 0.950 . S
C3304 C3303 1.524 . S
C3304 C3305 1.415 . S
C3305 H3275 0.950 . S
C3305 C3300 1.363 . S
C3305 C3304 1.415 . S
H3306 C3303 0.999 . S
H3307 C3288 0.913 . S
H3308 C3326 0.951 . S
H3309 C3328 0.951 . S
H3310 C3330 0.950 . S
H3311 C3331 0.950 . S
H3312 C3333 0.950 . S
H3313 C3336 0.950 . S
H3314 C3337 0.950 . S
H3315 C3339 0.950 . S
H3316 C3340 0.950 . S
H3317 C3341 0.946 1_655 S
H3318 C3343 0.951 . S
H3319 C3345 0.950 . S
H3320 C3346 0.950 . S
H3321 C3348 0.950 . S
H3322 C3351 0.950 1_455 S
H3323 C3352 0.950 . S
H3324 C3354 0.950 . S
H3325 C3355 0.950 . S
C3326 H3308 0.951 . S
C3326 C3327 1.366 . S
C3326 C3328 1.388 . S
C3327 C3326 1.366 . S
C3327 C3331 1.385 . S
C3328 H3309 0.951 . S
C3328 C3326 1.388 . S
C3328 C3329 1.366 . S
C3329 C3328 1.366 . S
C3329 C3330 1.414 . S
C3329 C3332 1.499 . S
C3330 H3310 0.950 . S
C3330 C3329 1.414 . S
C3330 C3331 1.374 . S
C3331 H3311 0.950 . S
C3331 C3327 1.385 . S
C3331 C3330 1.374 . S
C3332 C3329 1.499 . S
C3332 C3333 1.373 . S
C3332 C3334 1.389 . S
C3333 H3312 0.950 . S
C3333 C3332 1.373 . S
C3333 C3349 1.377 . S
C3334 C3332 1.389 . S
C3334 C3335 1.524 . S
C3334 C3348 1.377 . S
C3335 C3334 1.524 . S
C3335 C3336 1.397 . S
C3335 C3340 1.363 . S
C3336 H3313 0.950 . S
C3336 C3335 1.397 . S
C3336 C3337 1.334 . S
C3337 H3314 0.950 . S
C3337 C3336 1.334 . S
C3337 C3338 1.287 . S
C3338 C3337 1.287 . S
C3338 C3339 1.524 . S
C3338 H3357 0.913 . S
C3339 H3315 0.950 . S
C3339 C3338 1.524 . S
C3339 C3340 1.415 . S
C3340 H3316 0.950 . S
C3340 C3335 1.363 . S
C3340 C3339 1.415 . S
C3341 H3317 0.946 1_455 S
C3341 C3342 1.366 . S
C3341 C3343 1.388 . S
C3342 C3341 1.366 . S
C3342 C3346 1.385 . S
C3343 H3318 0.951 . S
C3343 C3341 1.388 . S
C3343 C3344 1.366 . S
C3344 C3343 1.366 . S
C3344 C3345 1.414 . S
C3344 C3347 1.499 . S
C3345 H3319 0.950 . S
C3345 C3344 1.414 . S
C3345 C3346 1.374 . S
C3346 H3320 0.950 . S
C3346 C3342 1.385 . S
C3346 C3345 1.374 . S
C3347 C3344 1.499 . S
C3347 C3348 1.373 . S
C3347 C3349 1.389 . S
C3348 H3321 0.950 . S
C3348 C3334 1.377 . S
C3348 C3347 1.373 . S
C3349 C3333 1.377 . S
C3349 C3347 1.389 . S
C3349 C3350 1.524 1_455 S
C3350 C3349 1.524 1_655 S
C3350 C3351 1.397 . S
C3350 C3355 1.363 . S
C3351 H3322 0.950 1_655 S
C3351 C3350 1.397 . S
C3351 C3352 1.334 . S
C3352 H3323 0.950 . S
C3352 C3351 1.334 . S
C3352 C3353 1.287 . S
C3353 C3352 1.287 . S
C3353 C3354 1.524 . S
C3353 H3356 0.999 . S
C3354 H3324 0.950 . S
C3354 C3353 1.524 . S
C3354 C3355 1.415 . S
C3355 H3325 0.950 . S
C3355 C3350 1.363 . S
C3355 C3354 1.415 . S
H3356 C3353 0.999 . S
H3357 C3338 0.913 . S
H3358 C3376 0.951 . S
H3359 C3378 0.951 . S
H3360 C3380 0.950 . S
H3361 C3381 0.950 . S
H3362 C3383 0.950 . S
H3363 C3386 0.950 . S
H3364 C3387 0.950 . S
H3365 C3389 0.950 . S
H3366 C3390 0.950 . S
H3367 C3391 0.951 . S
H3368 C3393 0.951 . S
H3369 C3395 0.950 . S
H3370 C3396 0.950 . S
H3371 C3398 0.950 . S
H3372 C3401 0.950 . S
H3373 C3402 0.950 . S
H3374 C3404 0.950 . S
H3375 C3405 0.950 . S
C3376 H3358 0.951 . S
C3376 C3377 1.366 . S
C3376 C3378 1.388 . S
C3377 C3376 1.366 . S
C3377 C3381 1.385 . S
C3378 H3359 0.951 . S
C3378 C3376 1.388 . S
C3378 C3379 1.366 . S
C3379 C3378 1.366 . S
C3379 C3380 1.414 . S
C3379 C3382 1.499 . S
C3380 H3360 0.950 . S
C3380 C3379 1.414 . S
C3380 C3381 1.374 . S
C3381 H3361 0.950 . S
C3381 C3377 1.385 . S
C3381 C3380 1.374 . S
C3382 C3379 1.499 . S
C3382 C3383 1.373 . S
C3382 C3384 1.389 . S
C3383 H3362 0.950 . S
C3383 C3382 1.373 . S
C3383 C3399 1.377 . S
C3384 C3382 1.389 . S
C3384 C3385 1.524 . S
C3384 C3398 1.377 . S
C3385 C3384 1.524 . S
C3385 C3386 1.397 . S
C3385 C3390 1.363 . S
C3386 H3363 0.950 . S
C3386 C3385 1.397 . S
C3386 C3387 1.334 . S
C3387 H3364 0.950 . S
C3387 C3386 1.334 . S
C3387 C3388 1.287 . S
C3388 C3387 1.287 . S
C3388 C3389 1.524 . S
C3388 H3407 0.913 . S
C3389 H3365 0.950 . S
C3389 C3388 1.524 . S
C3389 C3390 1.415 . S
C3390 H3366 0.950 . S
C3390 C3385 1.363 . S
C3390 C3389 1.415 . S
C3391 H3367 0.951 . S
C3391 C3392 1.366 . S
C3391 C3393 1.388 . S
C3392 C3391 1.366 . S
C3392 C3396 1.385 . S
C3393 H3368 0.951 . S
C3393 C3391 1.388 . S
C3393 C3394 1.366 . S
C3394 C3393 1.366 . S
C3394 C3395 1.414 . S
C3394 C3397 1.499 . S
C3395 H3369 0.950 . S
C3395 C3394 1.414 . S
C3395 C3396 1.374 . S
C3396 H3370 0.950 . S
C3396 C3392 1.385 . S
C3396 C3395 1.374 . S
C3397 C3394 1.499 . S
C3397 C3398 1.373 . S
C3397 C3399 1.389 . S
C3398 H3371 0.950 . S
C3398 C3384 1.377 . S
C3398 C3397 1.373 . S
C3399 C3383 1.377 . S
C3399 C3397 1.389 . S
C3399 C3400 1.524 . S
C3400 C3399 1.524 . S
C3400 C3401 1.397 . S
C3400 C3405 1.363 . S
C3401 H3372 0.950 . S
C3401 C3400 1.397 . S
C3401 C3402 1.334 . S
C3402 H3373 0.950 . S
C3402 C3401 1.334 . S
C3402 C3403 1.287 . S
C3403 C3402 1.287 . S
C3403 C3404 1.524 . S
C3403 H3406 0.999 . S
C3404 H3374 0.950 . S
C3404 C3403 1.524 . S
C3404 C3405 1.415 . S
C3405 H3375 0.950 . S
C3405 C3400 1.363 . S
C3405 C3404 1.415 . S
H3406 C3403 0.999 . S
H3407 C3388 0.913 . S
H3408 C3426 0.951 . S
H3409 C3428 0.951 . S
H3410 C3430 0.950 . S
H3411 C3431 0.950 . S
H3412 C3433 0.950 . S
H3413 C3436 0.950 . S
H3414 C3437 0.950 1_455 S
H3415 C3439 0.950 . S
H3416 C3440 0.950 . S
H3417 C3441 0.951 . S
H3418 C3443 0.951 . S
H3419 C3445 0.950 . S
H3420 C3446 0.950 . S
H3421 C3448 0.950 . S
H3422 C3451 0.950 . S
H3423 C3452 0.950 . S
H3424 C3454 0.950 . S
H3425 C3455 0.950 . S
C3426 H3408 0.951 . S
C3426 C3427 1.366 . S
C3426 C3428 1.388 . S
C3427 C3426 1.366 . S
C3427 C3431 1.385 . S
C3428 H3409 0.951 . S
C3428 C3426 1.388 . S
C3428 C3429 1.366 . S
C3429 C3428 1.366 . S
C3429 C3430 1.414 . S
C3429 C3432 1.499 . S
C3430 H3410 0.950 . S
C3430 C3429 1.414 . S
C3430 C3431 1.374 . S
C3431 H3411 0.950 . S
C3431 C3427 1.385 . S
C3431 C3430 1.374 . S
C3432 C3429 1.499 . S
C3432 C3433 1.373 . S
C3432 C3434 1.389 . S
C3433 H3412 0.950 . S
C3433 C3432 1.373 . S
C3433 C3449 1.377 . S
C3434 C3432 1.389 . S
C3434 C3435 1.524 . S
C3434 C3448 1.377 . S
C3435 C3434 1.524 . S
C3435 C3436 1.397 . S
C3435 C3440 1.363 . S
C3436 H3413 0.950 . S
C3436 C3435 1.397 . S
C3436 C3437 1.334 . S
C3437 H3414 0.950 1_655 S
C3437 C3436 1.334 . S
C3437 C3438 1.287 . S
C3438 C3437 1.287 . S
C3438 C3439 1.524 . S
C3438 H3457 0.913 . S
C3439 H3415 0.950 . S
C3439 C3438 1.524 . S
C3439 C3440 1.415 . S
C3440 H3416 0.950 . S
C3440 C3435 1.363 . S
C3440 C3439 1.415 . S
C3441 H3417 0.951 . S
C3441 C3442 1.366 . S
C3441 C3443 1.388 . S
C3442 C3441 1.366 . S
C3442 C3446 1.385 . S
C3443 H3418 0.951 . S
C3443 C3441 1.388 . S
C3443 C3444 1.366 . S
C3444 C3443 1.366 . S
C3444 C3445 1.414 . S
C3444 C3447 1.499 . S
C3445 H3419 0.950 . S
C3445 C3444 1.414 . S
C3445 C3446 1.374 . S
C3446 H3420 0.950 . S
C3446 C3442 1.385 . S
C3446 C3445 1.374 . S
C3447 C3444 1.499 . S
C3447 C3448 1.373 . S
C3447 C3449 1.389 . S
C3448 H3421 0.950 . S
C3448 C3434 1.377 . S
C3448 C3447 1.373 . S
C3449 C3433 1.377 . S
C3449 C3447 1.389 . S
C3449 C3450 1.524 . S
C3450 C3449 1.524 . S
C3450 C3451 1.397 . S
C3450 C3455 1.363 . S
C3451 H3422 0.950 . S
C3451 C3450 1.397 . S
C3451 C3452 1.334 . S
C3452 H3423 0.950 . S
C3452 C3451 1.334 . S
C3452 C3453 1.287 . S
C3453 C3452 1.287 . S
C3453 C3454 1.524 . S
C3453 H3456 0.999 . S
C3454 H3424 0.950 . S
C3454 C3453 1.524 . S
C3454 C3455 1.415 . S
C3455 H3425 0.950 . S
C3455 C3450 1.363 . S
C3455 C3454 1.415 . S
H3456 C3453 0.999 . S
H3457 C3438 0.913 . S
H3458 C3476 0.951 . S
H3459 C3478 0.951 . S
H3460 C3480 0.950 . S
H3461 C3481 0.950 . S
H3462 C3483 0.950 . S
H3463 C3486 0.950 . S
H3464 C3487 0.950 . S
H3465 C3489 0.950 . S
H3466 C3490 0.950 . S
H3467 C3491 0.951 . S
H3468 C3493 0.951 . S
H3469 C3495 0.950 . S
H3470 C3496 0.950 . S
H3471 C3498 0.950 . S
H3472 C3501 0.950 . S
H3473 C3502 0.950 . S
H3474 C3504 0.950 . S
H3475 C3505 0.950 . S
C3476 H3458 0.951 . S
C3476 C3477 1.366 . S
C3476 C3478 1.388 . S
C3477 C3476 1.366 . S
C3477 C3481 1.385 . S
C3478 H3459 0.951 . S
C3478 C3476 1.388 . S
C3478 C3479 1.366 . S
C3479 C3478 1.366 . S
C3479 C3480 1.414 . S
C3479 C3482 1.499 . S
C3480 H3460 0.950 . S
C3480 C3479 1.414 . S
C3480 C3481 1.374 . S
C3481 H3461 0.950 . S
C3481 C3477 1.385 . S
C3481 C3480 1.374 . S
C3482 C3479 1.499 . S
C3482 C3483 1.373 . S
C3482 C3484 1.389 . S
C3483 H3462 0.950 . S
C3483 C3482 1.373 . S
C3483 C3499 1.377 . S
C3484 C3482 1.389 . S
C3484 C3485 1.524 . S
C3484 C3498 1.377 . S
C3485 C3484 1.524 . S
C3485 C3486 1.397 . S
C3485 C3490 1.363 . S
C3486 H3463 0.950 . S
C3486 C3485 1.397 . S
C3486 C3487 1.334 . S
C3487 H3464 0.950 . S
C3487 C3486 1.334 . S
C3487 C3488 1.287 . S
C3488 C3487 1.287 . S
C3488 C3489 1.524 . S
C3488 H3507 0.913 . S
C3489 H3465 0.950 . S
C3489 C3488 1.524 . S
C3489 C3490 1.415 . S
C3490 H3466 0.950 . S
C3490 C3485 1.363 . S
C3490 C3489 1.415 . S
C3491 H3467 0.951 . S
C3491 C3492 1.366 . S
C3491 C3493 1.388 . S
C3492 C3491 1.366 . S
C3492 C3496 1.385 . S
C3493 H3468 0.951 . S
C3493 C3491 1.388 . S
C3493 C3494 1.366 . S
C3494 C3493 1.366 . S
C3494 C3495 1.414 . S
C3494 C3497 1.499 . S
C3495 H3469 0.950 . S
C3495 C3494 1.414 . S
C3495 C3496 1.374 . S
C3496 H3470 0.950 . S
C3496 C3492 1.385 . S
C3496 C3495 1.374 . S
C3497 C3494 1.499 . S
C3497 C3498 1.373 . S
C3497 C3499 1.389 . S
C3498 H3471 0.950 . S
C3498 C3484 1.377 . S
C3498 C3497 1.373 . S
C3499 C3483 1.377 . S
C3499 C3497 1.389 . S
C3499 C3500 1.524 . S
C3500 C3499 1.524 . S
C3500 C3501 1.397 . S
C3500 C3505 1.363 . S
C3501 H3472 0.950 . S
C3501 C3500 1.397 . S
C3501 C3502 1.334 . S
C3502 H3473 0.950 . S
C3502 C3501 1.334 . S
C3502 C3503 1.287 . S
C3503 C3502 1.287 . S
C3503 C3504 1.524 . S
C3503 H3506 0.999 . S
C3504 H3474 0.950 . S
C3504 C3503 1.524 . S
C3504 C3505 1.415 . S
C3505 H3475 0.950 . S
C3505 C3500 1.363 . S
C3505 C3504 1.415 . S
H3506 C3503 0.999 . S
H3507 C3488 0.913 . S
H3508 C3526 0.951 . S
H3509 C3528 0.951 . S
H3510 C3530 0.950 . S
H3511 C3531 0.950 . S
H3512 C3533 0.950 . S
H3513 C3536 0.950 . S
H3514 C3537 0.950 . S
H3515 C3539 0.950 . S
H3516 C3540 0.950 . S
H3517 C3541 0.951 1_565 S
H3518 C3543 0.951 . S
H3519 C3545 0.950 . S
H3520 C3546 0.950 . S
H3521 C3548 0.950 . S
H3522 C3551 0.950 . S
H3523 C3552 0.950 . S
H3524 C3554 0.950 . S
H3525 C3555 0.950 . S
C3526 H3508 0.951 . S
C3526 C3527 1.366 . S
C3526 C3528 1.388 . S
C3527 C3526 1.366 . S
C3527 C3531 1.385 . S
C3528 H3509 0.951 . S
C3528 C3526 1.388 . S
C3528 C3529 1.366 . S
C3529 C3528 1.366 . S
C3529 C3530 1.414 . S
C3529 C3532 1.499 . S
C3530 H3510 0.950 . S
C3530 C3529 1.414 . S
C3530 C3531 1.374 . S
C3531 H3511 0.950 . S
C3531 C3527 1.385 . S
C3531 C3530 1.374 . S
C3532 C3529 1.499 . S
C3532 C3533 1.373 . S
C3532 C3534 1.389 . S
C3533 H3512 0.950 . S
C3533 C3532 1.373 . S
C3533 C3549 1.377 . S
C3534 C3532 1.389 . S
C3534 C3535 1.524 . S
C3534 C3548 1.377 . S
C3535 C3534 1.524 . S
C3535 C3536 1.397 . S
C3535 C3540 1.363 . S
C3536 H3513 0.950 . S
C3536 C3535 1.397 . S
C3536 C3537 1.334 . S
C3537 H3514 0.950 . S
C3537 C3536 1.334 . S
C3537 C3538 1.287 . S
C3538 C3537 1.287 . S
C3538 C3539 1.524 . S
C3538 H3557 0.913 . S
C3539 H3515 0.950 . S
C3539 C3538 1.524 . S
C3539 C3540 1.415 . S
C3540 H3516 0.950 . S
C3540 C3535 1.363 . S
C3540 C3539 1.415 . S
C3541 H3517 0.951 1_545 S
C3541 C3542 1.366 . S
C3541 C3543 1.388 . S
C3542 C3541 1.366 . S
C3542 C3546 1.385 . S
C3543 H3518 0.951 . S
C3543 C3541 1.388 . S
C3543 C3544 1.366 . S
C3544 C3543 1.366 . S
C3544 C3545 1.414 . S
C3544 C3547 1.499 . S
C3545 H3519 0.950 . S
C3545 C3544 1.414 . S
C3545 C3546 1.374 . S
C3546 H3520 0.950 . S
C3546 C3542 1.385 . S
C3546 C3545 1.374 . S
C3547 C3544 1.499 . S
C3547 C3548 1.373 . S
C3547 C3549 1.389 . S
C3548 H3521 0.950 . S
C3548 C3534 1.377 . S
C3548 C3547 1.373 . S
C3549 C3533 1.377 . S
C3549 C3547 1.389 . S
C3549 C3550 1.524 . S
C3550 C3549 1.524 . S
C3550 C3551 1.397 . S
C3550 C3555 1.363 1_545 S
C3551 H3522 0.950 . S
C3551 C3550 1.397 . S
C3551 C3552 1.334 . S
C3552 H3523 0.950 . S
C3552 C3551 1.334 . S
C3552 C3553 1.287 1_545 S
C3553 C3552 1.287 1_565 S
C3553 C3554 1.524 . S
C3553 H3556 0.999 . S
C3554 H3524 0.950 . S
C3554 C3553 1.524 . S
C3554 C3555 1.415 . S
C3555 H3525 0.950 . S
C3555 C3550 1.363 1_565 S
C3555 C3554 1.415 . S
H3556 C3553 0.999 . S
H3557 C3538 0.913 . S
H3558 C3576 0.951 . S
H3559 C3578 0.951 . S
H3560 C3580 0.950 . S
H3561 C3581 0.950 . S
H3562 C3583 0.950 . S
H3563 C3586 0.950 . S
H3564 C3587 0.950 . S
H3565 C3589 0.950 . S
H3566 C3590 0.950 . S
H3567 C3591 0.951 . S
H3568 C3593 0.951 . S
H3569 C3595 0.950 . S
H3570 C3596 0.950 . S
H3571 C3598 0.950 . S
H3572 C3601 0.950 . S
H3573 C3602 0.950 . S
H3574 C3604 0.950 . S
H3575 C3605 0.950 . S
C3576 H3558 0.951 . S
C3576 C3577 1.366 . S
C3576 C3578 1.388 . S
C3577 C3576 1.366 . S
C3577 C3581 1.385 . S
C3578 H3559 0.951 . S
C3578 C3576 1.388 . S
C3578 C3579 1.366 . S
C3579 C3578 1.366 . S
C3579 C3580 1.414 . S
C3579 C3582 1.499 . S
C3580 H3560 0.950 . S
C3580 C3579 1.414 . S
C3580 C3581 1.374 . S
C3581 H3561 0.950 . S
C3581 C3577 1.385 . S
C3581 C3580 1.374 . S
C3582 C3579 1.499 . S
C3582 C3583 1.373 . S
C3582 C3584 1.389 . S
C3583 H3562 0.950 . S
C3583 C3582 1.373 . S
C3583 C3599 1.377 . S
C3584 C3582 1.389 . S
C3584 C3585 1.524 . S
C3584 C3598 1.377 . S
C3585 C3584 1.524 . S
C3585 C3586 1.397 . S
C3585 C3590 1.363 . S
C3586 H3563 0.950 . S
C3586 C3585 1.397 . S
C3586 C3587 1.334 . S
C3587 H3564 0.950 . S
C3587 C3586 1.334 . S
C3587 C3588 1.287 . S
C3588 C3587 1.287 . S
C3588 C3589 1.524 . S
C3588 H3607 0.913 . S
C3589 H3565 0.950 . S
C3589 C3588 1.524 . S
C3589 C3590 1.415 . S
C3590 H3566 0.950 . S
C3590 C3585 1.363 . S
C3590 C3589 1.415 . S
C3591 H3567 0.951 . S
C3591 C3592 1.366 . S
C3591 C3593 1.388 . S
C3592 C3591 1.366 . S
C3592 C3596 1.385 . S
C3593 H3568 0.951 . S
C3593 C3591 1.388 . S
C3593 C3594 1.366 . S
C3594 C3593 1.366 . S
C3594 C3595 1.414 . S
C3594 C3597 1.499 . S
C3595 H3569 0.950 . S
C3595 C3594 1.414 . S
C3595 C3596 1.374 . S
C3596 H3570 0.950 . S
C3596 C3592 1.385 . S
C3596 C3595 1.374 . S
C3597 C3594 1.499 . S
C3597 C3598 1.373 . S
C3597 C3599 1.389 . S
C3598 H3571 0.950 . S
C3598 C3584 1.377 . S
C3598 C3597 1.373 . S
C3599 C3583 1.377 . S
C3599 C3597 1.389 . S
C3599 C3600 1.524 . S
C3600 C3599 1.524 . S
C3600 C3601 1.397 . S
C3600 C3605 1.363 . S
C3601 H3572 0.950 . S
C3601 C3600 1.397 . S
C3601 C3602 1.334 . S
C3602 H3573 0.950 . S
C3602 C3601 1.334 . S
C3602 C3603 1.287 . S
C3603 C3602 1.287 . S
C3603 C3604 1.524 . S
C3603 H3606 0.999 . S
C3604 H3574 0.950 . S
C3604 C3603 1.524 . S
C3604 C3605 1.415 . S
C3605 H3575 0.950 . S
C3605 C3600 1.363 . S
C3605 C3604 1.415 . S
H3606 C3603 0.999 . S
H3607 C3588 0.913 . S
H3608 C3626 0.951 . S
H3609 C3628 0.951 . S
H3610 C3630 0.950 . S
H3611 C3631 0.950 . S
H3612 C3633 0.950 . S
H3613 C3636 0.950 . S
H3614 C3637 0.950 . S
H3615 C3639 0.950 . S
H3616 C3640 0.950 . S
H3617 C3641 0.951 . S
H3618 C3643 0.951 . S
H3619 C3645 0.950 . S
H3620 C3646 0.950 . S
H3621 C3648 0.950 . S
H3622 C3651 0.950 . S
H3623 C3652 0.950 . S
H3624 C3654 0.950 . S
H3625 C3655 0.950 . S
C3626 H3608 0.951 . S
C3626 C3627 1.366 . S
C3626 C3628 1.388 . S
C3627 C3626 1.366 . S
C3627 C3631 1.385 . S
C3628 H3609 0.951 . S
C3628 C3626 1.388 . S
C3628 C3629 1.366 . S
C3629 C3628 1.366 . S
C3629 C3630 1.414 . S
C3629 C3632 1.499 . S
C3630 H3610 0.950 . S
C3630 C3629 1.414 . S
C3630 C3631 1.374 . S
C3631 H3611 0.950 . S
C3631 C3627 1.385 . S
C3631 C3630 1.374 . S
C3632 C3629 1.499 . S
C3632 C3633 1.373 . S
C3632 C3634 1.389 . S
C3633 H3612 0.950 . S
C3633 C3632 1.373 . S
C3633 C3649 1.377 . S
C3634 C3632 1.389 . S
C3634 C3635 1.524 . S
C3634 C3648 1.377 . S
C3635 C3634 1.524 . S
C3635 C3636 1.397 . S
C3635 C3640 1.363 . S
C3636 H3613 0.950 . S
C3636 C3635 1.397 . S
C3636 C3637 1.334 . S
C3637 H3614 0.950 . S
C3637 C3636 1.334 . S
C3637 C3638 1.287 . S
C3638 C3637 1.287 . S
C3638 C3639 1.524 . S
C3638 H3657 0.913 . S
C3639 H3615 0.950 . S
C3639 C3638 1.524 . S
C3639 C3640 1.415 . S
C3640 H3616 0.950 . S
C3640 C3635 1.363 . S
C3640 C3639 1.415 . S
C3641 H3617 0.951 . S
C3641 C3642 1.366 . S
C3641 C3643 1.388 . S
C3642 C3641 1.366 . S
C3642 C3646 1.385 . S
C3643 H3618 0.951 . S
C3643 C3641 1.388 . S
C3643 C3644 1.366 . S
C3644 C3643 1.366 . S
C3644 C3645 1.414 . S
C3644 C3647 1.499 . S
C3645 H3619 0.950 . S
C3645 C3644 1.414 . S
C3645 C3646 1.374 . S
C3646 H3620 0.950 . S
C3646 C3642 1.385 . S
C3646 C3645 1.374 . S
C3647 C3644 1.499 . S
C3647 C3648 1.373 . S
C3647 C3649 1.389 . S
C3648 H3621 0.950 . S
C3648 C3634 1.377 . S
C3648 C3647 1.373 . S
C3649 C3633 1.377 . S
C3649 C3647 1.389 . S
C3649 C3650 1.524 . S
C3650 C3649 1.524 . S
C3650 C3651 1.397 . S
C3650 C3655 1.363 . S
C3651 H3622 0.950 . S
C3651 C3650 1.397 . S
C3651 C3652 1.334 . S
C3652 H3623 0.950 . S
C3652 C3651 1.334 . S
C3652 C3653 1.287 . S
C3653 C3652 1.287 . S
C3653 C3654 1.524 . S
C3653 H3656 0.999 . S
C3654 H3624 0.950 . S
C3654 C3653 1.524 . S
C3654 C3655 1.415 . S
C3655 H3625 0.950 . S
C3655 C3650 1.363 . S
C3655 C3654 1.415 . S
H3656 C3653 0.999 . S
H3657 C3638 0.913 . S
H3658 C3676 0.951 . S
H3659 C3678 0.951 . S
H3660 C3680 0.950 . S
H3661 C3681 0.950 . S
H3662 C3683 0.950 . S
H3663 C3686 0.950 . S
H3664 C3687 0.950 . S
H3665 C3689 0.950 . S
H3666 C3690 0.950 . S
H3667 C3691 0.951 . S
H3668 C3693 0.951 . S
H3669 C3695 0.950 . S
H3670 C3696 0.950 . S
H3671 C3698 0.950 . S
H3672 C3701 0.950 . S
H3673 C3702 0.950 . S
H3674 C3704 0.950 . S
H3675 C3705 0.950 . S
C3676 H3658 0.951 . S
C3676 C3677 1.366 . S
C3676 C3678 1.388 . S
C3677 C3676 1.366 . S
C3677 C3681 1.385 . S
C3678 H3659 0.951 . S
C3678 C3676 1.388 . S
C3678 C3679 1.366 . S
C3679 C3678 1.366 . S
C3679 C3680 1.414 . S
C3679 C3682 1.499 . S
C3680 H3660 0.950 . S
C3680 C3679 1.414 . S
C3680 C3681 1.374 . S
C3681 H3661 0.950 . S
C3681 C3677 1.385 . S
C3681 C3680 1.374 . S
C3682 C3679 1.499 . S
C3682 C3683 1.373 . S
C3682 C3684 1.389 . S
C3683 H3662 0.950 . S
C3683 C3682 1.373 . S
C3683 C3699 1.377 . S
C3684 C3682 1.389 . S
C3684 C3685 1.524 . S
C3684 C3698 1.377 . S
C3685 C3684 1.524 . S
C3685 C3686 1.397 . S
C3685 C3690 1.363 . S
C3686 H3663 0.950 . S
C3686 C3685 1.397 . S
C3686 C3687 1.334 . S
C3687 H3664 0.950 . S
C3687 C3686 1.334 . S
C3687 C3688 1.287 . S
C3688 C3687 1.287 . S
C3688 C3689 1.524 . S
C3688 H3707 0.913 . S
C3689 H3665 0.950 . S
C3689 C3688 1.524 . S
C3689 C3690 1.415 . S
C3690 H3666 0.950 . S
C3690 C3685 1.363 . S
C3690 C3689 1.415 . S
C3691 H3667 0.951 . S
C3691 C3692 1.366 . S
C3691 C3693 1.388 . S
C3692 C3691 1.366 . S
C3692 C3696 1.385 . S
C3693 H3668 0.951 . S
C3693 C3691 1.388 . S
C3693 C3694 1.366 . S
C3694 C3693 1.366 . S
C3694 C3695 1.414 . S
C3694 C3697 1.499 . S
C3695 H3669 0.950 . S
C3695 C3694 1.414 . S
C3695 C3696 1.374 . S
C3696 H3670 0.950 . S
C3696 C3692 1.385 . S
C3696 C3695 1.374 . S
C3697 C3694 1.499 . S
C3697 C3698 1.373 . S
C3697 C3699 1.389 . S
C3698 H3671 0.950 . S
C3698 C3684 1.377 . S
C3698 C3697 1.373 . S
C3699 C3683 1.377 . S
C3699 C3697 1.389 . S
C3699 C3700 1.524 . S
C3700 C3699 1.524 . S
C3700 C3701 1.397 . S
C3700 C3705 1.363 . S
C3701 H3672 0.950 . S
C3701 C3700 1.397 . S
C3701 C3702 1.334 . S
C3702 H3673 0.950 . S
C3702 C3701 1.334 . S
C3702 C3703 1.287 . S
C3703 C3702 1.287 . S
C3703 C3704 1.524 . S
C3703 H3706 0.999 . S
C3704 H3674 0.950 . S
C3704 C3703 1.524 . S
C3704 C3705 1.415 . S
C3705 H3675 0.950 . S
C3705 C3700 1.363 . S
C3705 C3704 1.415 . S
H3706 C3703 0.999 . S
H3707 C3688 0.913 . S
H3708 C3726 0.951 . S
H3709 C3728 0.951 . S
H3710 C3730 0.950 . S
H3711 C3731 0.950 . S
H3712 C3733 0.950 . S
H3713 C3736 0.950 . S
H3714 C3737 0.950 . S
H3715 C3739 0.950 . S
H3716 C3740 0.950 . S
H3717 C3741 0.951 . S
H3718 C3743 0.951 . S
H3719 C3745 0.950 . S
H3720 C3746 0.950 . S
H3721 C3748 0.950 . S
H3722 C3751 0.950 . S
H3723 C3752 0.950 . S
H3724 C3754 0.950 . S
H3725 C3755 0.950 . S
C3726 H3708 0.951 . S
C3726 C3727 1.366 . S
C3726 C3728 1.388 . S
C3727 C3726 1.366 . S
C3727 C3731 1.385 . S
C3728 H3709 0.951 . S
C3728 C3726 1.388 . S
C3728 C3729 1.366 . S
C3729 C3728 1.366 . S
C3729 C3730 1.414 . S
C3729 C3732 1.499 . S
C3730 H3710 0.950 . S
C3730 C3729 1.414 . S
C3730 C3731 1.374 . S
C3731 H3711 0.950 . S
C3731 C3727 1.385 . S
C3731 C3730 1.374 . S
C3732 C3729 1.499 . S
C3732 C3733 1.373 . S
C3732 C3734 1.389 . S
C3733 H3712 0.950 . S
C3733 C3732 1.373 . S
C3733 C3749 1.377 . S
C3734 C3732 1.389 . S
C3734 C3735 1.524 . S
C3734 C3748 1.377 . S
C3735 C3734 1.524 . S
C3735 C3736 1.397 . S
C3735 C3740 1.363 . S
C3736 H3713 0.950 . S
C3736 C3735 1.397 . S
C3736 C3737 1.334 . S
C3737 H3714 0.950 . S
C3737 C3736 1.334 . S
C3737 C3738 1.287 . S
C3738 C3737 1.287 . S
C3738 C3739 1.524 . S
C3738 H3757 0.913 . S
C3739 H3715 0.950 . S
C3739 C3738 1.524 . S
C3739 C3740 1.415 . S
C3740 H3716 0.950 . S
C3740 C3735 1.363 . S
C3740 C3739 1.415 . S
C3741 H3717 0.951 . S
C3741 C3742 1.366 . S
C3741 C3743 1.388 . S
C3742 C3741 1.366 . S
C3742 C3746 1.385 . S
C3743 H3718 0.951 . S
C3743 C3741 1.388 . S
C3743 C3744 1.366 . S
C3744 C3743 1.366 . S
C3744 C3745 1.414 . S
C3744 C3747 1.499 . S
C3745 H3719 0.950 . S
C3745 C3744 1.414 . S
C3745 C3746 1.374 . S
C3746 H3720 0.950 . S
C3746 C3742 1.385 . S
C3746 C3745 1.374 . S
C3747 C3744 1.499 . S
C3747 C3748 1.373 . S
C3747 C3749 1.389 . S
C3748 H3721 0.950 . S
C3748 C3734 1.377 . S
C3748 C3747 1.373 . S
C3749 C3733 1.377 . S
C3749 C3747 1.389 . S
C3749 C3750 1.524 . S
C3750 C3749 1.524 . S
C3750 C3751 1.397 . S
C3750 C3755 1.363 . S
C3751 H3722 0.950 . S
C3751 C3750 1.397 . S
C3751 C3752 1.334 . S
C3752 H3723 0.950 . S
C3752 C3751 1.334 . S
C3752 C3753 1.287 . S
C3753 C3752 1.287 . S
C3753 C3754 1.524 . S
C3753 H3756 0.999 . S
C3754 H3724 0.950 . S
C3754 C3753 1.524 . S
C3754 C3755 1.415 . S
C3755 H3725 0.950 . S
C3755 C3750 1.363 . S
C3755 C3754 1.415 . S
H3756 C3753 0.999 . S
H3757 C3738 0.913 . S
H3758 C3776 0.951 . S
H3759 C3778 0.951 . S
H3760 C3780 0.950 . S
H3761 C3781 0.950 . S
H3762 C3783 0.950 . S
H3763 C3786 0.950 . S
H3764 C3787 0.950 . S
H3765 C3789 0.950 . S
H3766 C3790 0.950 . S
H3767 C3791 0.951 . S
H3768 C3793 0.951 . S
H3769 C3795 0.950 . S
H3770 C3796 0.950 . S
H3771 C3798 0.950 . S
H3772 C3801 0.950 . S
H3773 C3802 0.950 . S
H3774 C3804 0.950 . S
H3775 C3805 0.950 . S
C3776 H3758 0.951 . S
C3776 C3777 1.366 . S
C3776 C3778 1.388 . S
C3777 C3776 1.366 . S
C3777 C3781 1.385 . S
C3778 H3759 0.951 . S
C3778 C3776 1.388 . S
C3778 C3779 1.366 . S
C3779 C3778 1.366 . S
C3779 C3780 1.414 . S
C3779 C3782 1.499 . S
C3780 H3760 0.950 . S
C3780 C3779 1.414 . S
C3780 C3781 1.374 . S
C3781 H3761 0.950 . S
C3781 C3777 1.385 . S
C3781 C3780 1.374 . S
C3782 C3779 1.499 . S
C3782 C3783 1.373 . S
C3782 C3784 1.389 . S
C3783 H3762 0.950 . S
C3783 C3782 1.373 . S
C3783 C3799 1.377 . S
C3784 C3782 1.389 . S
C3784 C3785 1.524 . S
C3784 C3798 1.377 . S
C3785 C3784 1.524 . S
C3785 C3786 1.397 . S
C3785 C3790 1.363 . S
C3786 H3763 0.950 . S
C3786 C3785 1.397 . S
C3786 C3787 1.334 . S
C3787 H3764 0.950 . S
C3787 C3786 1.334 . S
C3787 C3788 1.287 . S
C3788 C3787 1.287 . S
C3788 C3789 1.524 . S
C3788 H3807 0.913 . S
C3789 H3765 0.950 . S
C3789 C3788 1.524 . S
C3789 C3790 1.415 . S
C3790 H3766 0.950 . S
C3790 C3785 1.363 . S
C3790 C3789 1.415 . S
C3791 H3767 0.951 . S
C3791 C3792 1.366 . S
C3791 C3793 1.388 . S
C3792 C3791 1.366 . S
C3792 C3796 1.385 . S
C3793 H3768 0.951 . S
C3793 C3791 1.388 . S
C3793 C3794 1.366 . S
C3794 C3793 1.366 . S
C3794 C3795 1.414 . S
C3794 C3797 1.499 . S
C3795 H3769 0.950 . S
C3795 C3794 1.414 . S
C3795 C3796 1.374 . S
C3796 H3770 0.950 . S
C3796 C3792 1.385 . S
C3796 C3795 1.374 . S
C3797 C3794 1.499 . S
C3797 C3798 1.373 . S
C3797 C3799 1.389 . S
C3798 H3771 0.950 . S
C3798 C3784 1.377 . S
C3798 C3797 1.373 . S
C3799 C3783 1.377 . S
C3799 C3797 1.389 . S
C3799 C3800 1.524 . S
C3800 C3799 1.524 . S
C3800 C3801 1.397 . S
C3800 C3805 1.363 . S
C3801 H3772 0.950 . S
C3801 C3800 1.397 . S
C3801 C3802 1.334 . S
C3802 H3773 0.950 . S
C3802 C3801 1.334 . S
C3802 C3803 1.287 . S
C3803 C3802 1.287 . S
C3803 C3804 1.524 . S
C3803 H3806 0.999 . S
C3804 H3774 0.950 . S
C3804 C3803 1.524 . S
C3804 C3805 1.415 . S
C3805 H3775 0.950 . S
C3805 C3800 1.363 . S
C3805 C3804 1.415 . S
H3806 C3803 0.999 . S
H3807 C3788 0.913 . S
H3808 C3826 0.951 . S
H3809 C3828 0.951 . S
H3810 C3830 0.950 . S
H3811 C3831 0.950 . S
H3812 C3833 0.950 . S
H3813 C3836 0.950 . S
H3814 C3837 0.950 . S
H3815 C3839 0.950 . S
H3816 C3840 0.950 . S
H3817 C3841 0.951 . S
H3818 C3843 0.951 . S
H3819 C3845 0.950 . S
H3820 C3846 0.950 . S
H3821 C3848 0.950 . S
H3822 C3851 0.950 . S
H3823 C3852 0.950 . S
H3824 C3854 0.950 . S
H3825 C3855 0.950 . S
C3826 H3808 0.951 . S
C3826 C3827 1.366 . S
C3826 C3828 1.388 . S
C3827 C3826 1.366 . S
C3827 C3831 1.385 . S
C3828 H3809 0.951 . S
C3828 C3826 1.388 . S
C3828 C3829 1.366 . S
C3829 C3828 1.366 . S
C3829 C3830 1.414 . S
C3829 C3832 1.499 . S
C3830 H3810 0.950 . S
C3830 C3829 1.414 . S
C3830 C3831 1.374 . S
C3831 H3811 0.950 . S
C3831 C3827 1.385 . S
C3831 C3830 1.374 . S
C3832 C3829 1.499 . S
C3832 C3833 1.373 . S
C3832 C3834 1.389 . S
C3833 H3812 0.950 . S
C3833 C3832 1.373 . S
C3833 C3849 1.377 . S
C3834 C3832 1.389 . S
C3834 C3835 1.524 . S
C3834 C3848 1.377 . S
C3835 C3834 1.524 . S
C3835 C3836 1.397 . S
C3835 C3840 1.363 . S
C3836 H3813 0.950 . S
C3836 C3835 1.397 . S
C3836 C3837 1.334 . S
C3837 H3814 0.950 . S
C3837 C3836 1.334 . S
C3837 C3838 1.287 . S
C3838 C3837 1.287 . S
C3838 C3839 1.524 . S
C3838 H3857 0.913 . S
C3839 H3815 0.950 . S
C3839 C3838 1.524 . S
C3839 C3840 1.415 . S
C3840 H3816 0.950 . S
C3840 C3835 1.363 . S
C3840 C3839 1.415 . S
C3841 H3817 0.951 . S
C3841 C3842 1.366 . S
C3841 C3843 1.388 . S
C3842 C3841 1.366 . S
C3842 C3846 1.385 . S
C3843 H3818 0.951 . S
C3843 C3841 1.388 . S
C3843 C3844 1.366 . S
C3844 C3843 1.366 . S
C3844 C3845 1.414 . S
C3844 C3847 1.499 . S
C3845 H3819 0.950 . S
C3845 C3844 1.414 . S
C3845 C3846 1.374 . S
C3846 H3820 0.950 . S
C3846 C3842 1.385 . S
C3846 C3845 1.374 . S
C3847 C3844 1.499 . S
C3847 C3848 1.373 . S
C3847 C3849 1.389 . S
C3848 H3821 0.950 . S
C3848 C3834 1.377 . S
C3848 C3847 1.373 . S
C3849 C3833 1.377 . S
C3849 C3847 1.389 . S
C3849 C3850 1.524 . S
C3850 C3849 1.524 . S
C3850 C3851 1.397 . S
C3850 C3855 1.363 . S
C3851 H3822 0.950 . S
C3851 C3850 1.397 . S
C3851 C3852 1.334 . S
C3852 H3823 0.950 . S
C3852 C3851 1.334 . S
C3852 C3853 1.287 . S
C3853 C3852 1.287 . S
C3853 C3854 1.524 . S
C3853 H3856 0.999 . S
C3854 H3824 0.950 . S
C3854 C3853 1.524 . S
C3854 C3855 1.415 . S
C3855 H3825 0.950 . S
C3855 C3850 1.363 . S
C3855 C3854 1.415 . S
H3856 C3853 0.999 . S
H3857 C3838 0.913 . S
H3858 C3876 0.951 . S
H3859 C3878 0.951 . S
H3860 C3880 0.950 . S
H3861 C3881 0.950 . S
H3862 C3883 0.950 . S
H3863 C3886 0.950 . S
H3864 C3887 0.950 . S
H3865 C3889 0.950 . S
H3866 C3890 0.950 . S
H3867 C3891 0.951 . S
H3868 C3893 0.951 . S
H3869 C3895 0.950 . S
H3870 C3896 0.950 . S
H3871 C3898 0.950 . S
H3872 C3901 0.950 . S
H3873 C3902 0.950 . S
H3874 C3904 0.950 . S
H3875 C3905 0.950 . S
C3876 H3858 0.951 . S
C3876 C3877 1.366 . S
C3876 C3878 1.388 . S
C3877 C3876 1.366 . S
C3877 C3881 1.385 . S
C3878 H3859 0.951 . S
C3878 C3876 1.388 . S
C3878 C3879 1.366 . S
C3879 C3878 1.366 . S
C3879 C3880 1.414 . S
C3879 C3882 1.499 . S
C3880 H3860 0.950 . S
C3880 C3879 1.414 . S
C3880 C3881 1.374 . S
C3881 H3861 0.950 . S
C3881 C3877 1.385 . S
C3881 C3880 1.374 . S
C3882 C3879 1.499 . S
C3882 C3883 1.373 . S
C3882 C3884 1.389 . S
C3883 H3862 0.950 . S
C3883 C3882 1.373 . S
C3883 C3899 1.377 . S
C3884 C3882 1.389 . S
C3884 C3885 1.524 . S
C3884 C3898 1.377 . S
C3885 C3884 1.524 . S
C3885 C3886 1.397 . S
C3885 C3890 1.363 . S
C3886 H3863 0.950 . S
C3886 C3885 1.397 . S
C3886 C3887 1.334 . S
C3887 H3864 0.950 . S
C3887 C3886 1.334 . S
C3887 C3888 1.287 . S
C3888 C3887 1.287 . S
C3888 C3889 1.524 . S
C3888 H3907 0.913 . S
C3889 H3865 0.950 . S
C3889 C3888 1.524 . S
C3889 C3890 1.415 . S
C3890 H3866 0.950 . S
C3890 C3885 1.363 . S
C3890 C3889 1.415 . S
C3891 H3867 0.951 . S
C3891 C3892 1.366 . S
C3891 C3893 1.388 . S
C3892 C3891 1.366 . S
C3892 C3896 1.385 . S
C3893 H3868 0.951 . S
C3893 C3891 1.388 . S
C3893 C3894 1.366 . S
C3894 C3893 1.366 . S
C3894 C3895 1.414 . S
C3894 C3897 1.499 . S
C3895 H3869 0.950 . S
C3895 C3894 1.414 . S
C3895 C3896 1.374 . S
C3896 H3870 0.950 . S
C3896 C3892 1.385 . S
C3896 C3895 1.374 . S
C3897 C3894 1.499 . S
C3897 C3898 1.373 . S
C3897 C3899 1.389 . S
C3898 H3871 0.950 . S
C3898 C3884 1.377 . S
C3898 C3897 1.373 . S
C3899 C3883 1.377 . S
C3899 C3897 1.389 . S
C3899 C3900 1.524 . S
C3900 C3899 1.524 . S
C3900 C3901 1.397 . S
C3900 C3905 1.363 . S
C3901 H3872 0.950 . S
C3901 C3900 1.397 . S
C3901 C3902 1.334 . S
C3902 H3873 0.950 . S
C3902 C3901 1.334 . S
C3902 C3903 1.287 . S
C3903 C3902 1.287 . S
C3903 C3904 1.524 . S
C3903 H3906 0.999 . S
C3904 H3874 0.950 . S
C3904 C3903 1.524 . S
C3904 C3905 1.415 . S
C3905 H3875 0.950 . S
C3905 C3900 1.363 . S
C3905 C3904 1.415 . S
H3906 C3903 0.999 . S
H3907 C3888 0.913 . S
H3908 C3926 0.951 . S
H3909 C3928 0.951 . S
H3910 C3930 0.950 . S
H3911 C3931 0.950 . S
H3912 C3933 0.950 . S
H3913 C3936 0.950 . S
H3914 C3937 0.950 . S
H3915 C3939 0.950 . S
H3916 C3940 0.950 . S
H3917 C3941 0.951 . S
H3918 C3943 0.951 . S
H3919 C3945 0.950 . S
H3920 C3946 0.950 . S
H3921 C3948 0.950 . S
H3922 C3951 0.950 . S
H3923 C3952 0.950 . S
H3924 C3954 0.950 . S
H3925 C3955 0.950 . S
C3926 H3908 0.951 . S
C3926 C3927 1.366 . S
C3926 C3928 1.388 . S
C3927 C3926 1.366 . S
C3927 C3931 1.385 . S
C3928 H3909 0.951 . S
C3928 C3926 1.388 . S
C3928 C3929 1.366 . S
C3929 C3928 1.366 . S
C3929 C3930 1.414 . S
C3929 C3932 1.499 . S
C3930 H3910 0.950 . S
C3930 C3929 1.414 . S
C3930 C3931 1.374 . S
C3931 H3911 0.950 . S
C3931 C3927 1.385 . S
C3931 C3930 1.374 . S
C3932 C3929 1.499 . S
C3932 C3933 1.373 . S
C3932 C3934 1.389 . S
C3933 H3912 0.950 . S
C3933 C3932 1.373 . S
C3933 C3949 1.377 . S
C3934 C3932 1.389 . S
C3934 C3935 1.524 . S
C3934 C3948 1.377 . S
C3935 C3934 1.524 . S
C3935 C3936 1.397 . S
C3935 C3940 1.363 . S
C3936 H3913 0.950 . S
C3936 C3935 1.397 . S
C3936 C3937 1.334 . S
C3937 H3914 0.950 . S
C3937 C3936 1.334 . S
C3937 C3938 1.287 . S
C3938 C3937 1.287 . S
C3938 C3939 1.524 . S
C3938 H3957 0.913 . S
C3939 H3915 0.950 . S
C3939 C3938 1.524 . S
C3939 C3940 1.415 . S
C3940 H3916 0.950 . S
C3940 C3935 1.363 . S
C3940 C3939 1.415 . S
C3941 H3917 0.951 . S
C3941 C3942 1.366 . S
C3941 C3943 1.388 . S
C3942 C3941 1.366 . S
C3942 C3946 1.385 . S
C3943 H3918 0.951 . S
C3943 C3941 1.388 . S
C3943 C3944 1.366 . S
C3944 C3943 1.366 . S
C3944 C3945 1.414 . S
C3944 C3947 1.499 . S
C3945 H3919 0.950 . S
C3945 C3944 1.414 . S
C3945 C3946 1.374 . S
C3946 H3920 0.950 . S
C3946 C3942 1.385 . S
C3946 C3945 1.374 . S
C3947 C3944 1.499 . S
C3947 C3948 1.373 . S
C3947 C3949 1.389 . S
C3948 H3921 0.950 . S
C3948 C3934 1.377 . S
C3948 C3947 1.373 . S
C3949 C3933 1.377 . S
C3949 C3947 1.389 . S
C3949 C3950 1.524 . S
C3950 C3949 1.524 . S
C3950 C3951 1.397 . S
C3950 C3955 1.363 . S
C3951 H3922 0.950 . S
C3951 C3950 1.397 . S
C3951 C3952 1.334 . S
C3952 H3923 0.950 . S
C3952 C3951 1.334 . S
C3952 C3953 1.287 . S
C3953 C3952 1.287 . S
C3953 C3954 1.524 . S
C3953 H3956 0.999 . S
C3954 H3924 0.950 . S
C3954 C3953 1.524 . S
C3954 C3955 1.415 . S
C3955 H3925 0.950 . S
C3955 C3950 1.363 . S
C3955 C3954 1.415 . S
H3956 C3953 0.999 . S
H3957 C3938 0.913 . S
H3958 C3976 0.951 . S
H3959 C3978 0.951 . S
H3960 C3980 0.950 . S
H3961 C3981 0.950 . S
H3962 C3983 0.950 . S
H3963 C3986 0.950 . S
H3964 C3987 0.950 . S
H3965 C3989 0.950 . S
H3966 C3990 0.950 . S
H3967 C3991 0.951 . S
H3968 C3993 0.951 . S
H3969 C3995 0.950 . S
H3970 C3996 0.950 . S
H3971 C3998 0.950 . S
H3972 C4001 0.950 . S
H3973 C4002 0.950 . S
H3974 C4004 0.950 . S
H3975 C4005 0.950 . S
C3976 H3958 0.951 . S
C3976 C3977 1.366 . S
C3976 C3978 1.388 . S
C3977 C3976 1.366 . S
C3977 C3981 1.385 . S
C3978 H3959 0.951 . S
C3978 C3976 1.388 . S
C3978 C3979 1.366 . S
C3979 C3978 1.366 . S
C3979 C3980 1.414 . S
C3979 C3982 1.499 . S
C3980 H3960 0.950 . S
C3980 C3979 1.414 . S
C3980 C3981 1.374 . S
C3981 H3961 0.950 . S
C3981 C3977 1.385 . S
C3981 C3980 1.374 . S
C3982 C3979 1.499 . S
C3982 C3983 1.373 . S
C3982 C3984 1.389 . S
C3983 H3962 0.950 . S
C3983 C3982 1.373 . S
C3983 C3999 1.377 . S
C3984 C3982 1.389 . S
C3984 C3985 1.524 . S
C3984 C3998 1.377 . S
C3985 C3984 1.524 . S
C3985 C3986 1.397 . S
C3985 C3990 1.363 . S
C3986 H3963 0.950 . S
C3986 C3985 1.397 . S
C3986 C3987 1.334 . S
C3987 H3964 0.950 . S
C3987 C3986 1.334 . S
C3987 C3988 1.287 . S
C3988 C3987 1.287 . S
C3988 C3989 1.524 . S
C3988 H4007 0.913 . S
C3989 H3965 0.950 . S
C3989 C3988 1.524 . S
C3989 C3990 1.415 . S
C3990 H3966 0.950 . S
C3990 C3985 1.363 . S
C3990 C3989 1.415 . S
C3991 H3967 0.951 . S
C3991 C3992 1.366 . S
C3991 C3993 1.388 . S
C3992 C3991 1.366 . S
C3992 C3996 1.385 . S
C3993 H3968 0.951 . S
C3993 C3991 1.388 . S
C3993 C3994 1.366 . S
C3994 C3993 1.366 . S
C3994 C3995 1.414 . S
C3994 C3997 1.499 . S
C3995 H3969 0.950 . S
C3995 C3994 1.414 . S
C3995 C3996 1.374 . S
C3996 H3970 0.950 . S
C3996 C3992 1.385 . S
C3996 C3995 1.374 . S
C3997 C3994 1.499 . S
C3997 C3998 1.373 . S
C3997 C3999 1.389 . S
C3998 H3971 0.950 . S
C3998 C3984 1.377 . S
C3998 C3997 1.373 . S
C3999 C3983 1.377 . S
C3999 C3997 1.389 . S
C3999 C4000 1.524 . S
C4000 C3999 1.524 . S
C4000 C4001 1.397 . S
C4000 C4005 1.363 . S
C4001 H3972 0.950 . S
C4001 C4000 1.397 . S
C4001 C4002 1.334 . S
C4002 H3973 0.950 . S
C4002 C4001 1.334 . S
C4002 C4003 1.287 . S
C4003 C4002 1.287 . S
C4003 C4004 1.524 . S
C4003 H4006 0.999 . S
C4004 H3974 0.950 . S
C4004 C4003 1.524 . S
C4004 C4005 1.415 . S
C4005 H3975 0.950 . S
C4005 C4000 1.363 . S
C4005 C4004 1.415 . S
H4006 C4003 0.999 . S
H4007 C3988 0.913 . S
H4008 C4026 0.951 . S
H4009 C4028 0.951 . S
H4010 C4030 0.950 . S
H4011 C4031 0.950 . S
H4012 C4033 0.950 . S
H4013 C4036 0.950 . S
H4014 C4037 0.950 . S
H4015 C4039 0.950 . S
H4016 C4040 0.950 . S
H4017 C4041 0.951 . S
H4018 C4043 0.951 . S
H4019 C4045 0.950 . S
H4020 C4046 0.950 . S
H4021 C4048 0.950 . S
H4022 C4051 0.950 . S
H4023 C4052 0.950 . S
H4024 C4054 0.950 . S
H4025 C4055 0.950 . S
C4026 H4008 0.951 . S
C4026 C4027 1.366 . S
C4026 C4028 1.388 . S
C4027 C4026 1.366 . S
C4027 C4031 1.385 . S
C4028 H4009 0.951 . S
C4028 C4026 1.388 . S
C4028 C4029 1.366 . S
C4029 C4028 1.366 . S
C4029 C4030 1.414 . S
C4029 C4032 1.499 . S
C4030 H4010 0.950 . S
C4030 C4029 1.414 . S
C4030 C4031 1.374 . S
C4031 H4011 0.950 . S
C4031 C4027 1.385 . S
C4031 C4030 1.374 . S
C4032 C4029 1.499 . S
C4032 C4033 1.373 . S
C4032 C4034 1.389 . S
C4033 H4012 0.950 . S
C4033 C4032 1.373 . S
C4033 C4049 1.377 . S
C4034 C4032 1.389 . S
C4034 C4035 1.524 . S
C4034 C4048 1.377 . S
C4035 C4034 1.524 . S
C4035 C4036 1.397 . S
C4035 C4040 1.363 . S
C4036 H4013 0.950 . S
C4036 C4035 1.397 . S
C4036 C4037 1.334 . S
C4037 H4014 0.950 . S
C4037 C4036 1.334 . S
C4037 C4038 1.287 . S
C4038 C4037 1.287 . S
C4038 C4039 1.524 . S
C4038 H4057 0.913 . S
C4039 H4015 0.950 . S
C4039 C4038 1.524 . S
C4039 C4040 1.415 . S
C4040 H4016 0.950 . S
C4040 C4035 1.363 . S
C4040 C4039 1.415 . S
C4041 H4017 0.951 . S
C4041 C4042 1.366 . S
C4041 C4043 1.388 . S
C4042 C4041 1.366 . S
C4042 C4046 1.385 . S
C4043 H4018 0.951 . S
C4043 C4041 1.388 . S
C4043 C4044 1.366 . S
C4044 C4043 1.366 . S
C4044 C4045 1.414 . S
C4044 C4047 1.499 . S
C4045 H4019 0.950 . S
C4045 C4044 1.414 . S
C4045 C4046 1.374 . S
C4046 H4020 0.950 . S
C4046 C4042 1.385 . S
C4046 C4045 1.374 . S
C4047 C4044 1.499 . S
C4047 C4048 1.373 . S
C4047 C4049 1.389 . S
C4048 H4021 0.950 . S
C4048 C4034 1.377 . S
C4048 C4047 1.373 . S
C4049 C4033 1.377 . S
C4049 C4047 1.389 . S
C4049 C4050 1.524 . S
C4050 C4049 1.524 . S
C4050 C4051 1.397 . S
C4050 C4055 1.363 . S
C4051 H4022 0.950 . S
C4051 C4050 1.397 . S
C4051 C4052 1.334 . S
C4052 H4023 0.950 . S
C4052 C4051 1.334 . S
C4052 C4053 1.287 . S
C4053 C4052 1.287 . S
C4053 C4054 1.524 . S
C4053 H4056 0.999 . S
C4054 H4024 0.950 . S
C4054 C4053 1.524 . S
C4054 C4055 1.415 . S
C4055 H4025 0.950 . S
C4055 C4050 1.363 . S
C4055 C4054 1.415 . S
H4056 C4053 0.999 . S
H4057 C4038 0.913 . S
H4058 C4076 0.951 . S
H4059 C4078 0.951 . S
H4060 C4080 0.950 . S
H4061 C4081 0.950 . S
H4062 C4083 0.950 . S
H4063 C4086 0.950 . S
H4064 C4087 0.950 . S
H4065 C4089 0.950 . S
H4066 C4090 0.950 . S
H4067 C4091 0.951 . S
H4068 C4093 0.951 . S
H4069 C4095 0.950 . S
H4070 C4096 0.950 . S
H4071 C4098 0.950 . S
H4072 C4101 0.950 . S
H4073 C4102 0.950 . S
H4074 C4104 0.950 . S
H4075 C4105 0.950 . S
C4076 H4058 0.951 . S
C4076 C4077 1.366 . S
C4076 C4078 1.388 . S
C4077 C4076 1.366 . S
C4077 C4081 1.385 . S
C4078 H4059 0.951 . S
C4078 C4076 1.388 . S
C4078 C4079 1.366 . S
C4079 C4078 1.366 . S
C4079 C4080 1.414 . S
C4079 C4082 1.499 . S
C4080 H4060 0.950 . S
C4080 C4079 1.414 . S
C4080 C4081 1.374 . S
C4081 H4061 0.950 . S
C4081 C4077 1.385 . S
C4081 C4080 1.374 . S
C4082 C4079 1.499 . S
C4082 C4083 1.373 . S
C4082 C4084 1.389 . S
C4083 H4062 0.950 . S
C4083 C4082 1.373 . S
C4083 C4099 1.377 . S
C4084 C4082 1.389 . S
C4084 C4085 1.524 . S
C4084 C4098 1.377 . S
C4085 C4084 1.524 . S
C4085 C4086 1.397 . S
C4085 C4090 1.363 . S
C4086 H4063 0.950 . S
C4086 C4085 1.397 . S
C4086 C4087 1.334 . S
C4087 H4064 0.950 . S
C4087 C4086 1.334 . S
C4087 C4088 1.287 . S
C4088 C4087 1.287 . S
C4088 C4089 1.524 . S
C4088 H4107 0.913 . S
C4089 H4065 0.950 . S
C4089 C4088 1.524 . S
C4089 C4090 1.415 . S
C4090 H4066 0.950 . S
C4090 C4085 1.363 . S
C4090 C4089 1.415 . S
C4091 H4067 0.951 . S
C4091 C4092 1.366 . S
C4091 C4093 1.388 . S
C4092 C4091 1.366 . S
C4092 C4096 1.385 . S
C4093 H4068 0.951 . S
C4093 C4091 1.388 . S
C4093 C4094 1.366 . S
C4094 C4093 1.366 . S
C4094 C4095 1.414 . S
C4094 C4097 1.499 . S
C4095 H4069 0.950 . S
C4095 C4094 1.414 . S
C4095 C4096 1.374 . S
C4096 H4070 0.950 . S
C4096 C4092 1.385 . S
C4096 C4095 1.374 . S
C4097 C4094 1.499 . S
C4097 C4098 1.373 . S
C4097 C4099 1.389 . S
C4098 H4071 0.950 . S
C4098 C4084 1.377 . S
C4098 C4097 1.373 . S
C4099 C4083 1.377 . S
C4099 C4097 1.389 . S
C4099 C4100 1.524 . S
C4100 C4099 1.524 . S
C4100 C4101 1.397 . S
C4100 C4105 1.363 . S
C4101 H4072 0.950 . S
C4101 C4100 1.397 . S
C4101 C4102 1.334 . S
C4102 H4073 0.950 . S
C4102 C4101 1.334 . S
C4102 C4103 1.287 . S
C4103 C4102 1.287 . S
C4103 C4104 1.524 . S
C4103 H4106 0.999 . S
C4104 H4074 0.950 . S
C4104 C4103 1.524 . S
C4104 C4105 1.415 . S
C4105 H4075 0.950 . S
C4105 C4100 1.363 . S
C4105 C4104 1.415 . S
H4106 C4103 0.999 . S
H4107 C4088 0.913 . S
H4108 C4126 0.951 . S
H4109 C4128 0.951 . S
H4110 C4130 0.950 . S
H4111 C4131 0.950 . S
H4112 C4133 0.950 . S
H4113 C4136 0.950 . S
H4114 C4137 0.950 . S
H4115 C4139 0.950 . S
H4116 C4140 0.950 . S
H4117 C4141 0.951 . S
H4118 C4143 0.951 . S
H4119 C4145 0.950 . S
H4120 C4146 0.950 . S
H4121 C4148 0.950 . S
H4122 C4151 0.950 . S
H4123 C4152 0.950 . S
H4124 C4154 0.950 . S
H4125 C4155 0.950 . S
C4126 H4108 0.951 . S
C4126 C4127 1.366 . S
C4126 C4128 1.388 . S
C4127 C4126 1.366 . S
C4127 C4131 1.385 . S
C4128 H4109 0.951 . S
C4128 C4126 1.388 . S
C4128 C4129 1.366 . S
C4129 C4128 1.366 . S
C4129 C4130 1.414 . S
C4129 C4132 1.499 . S
C4130 H4110 0.950 . S
C4130 C4129 1.414 . S
C4130 C4131 1.374 . S
C4131 H4111 0.950 . S
C4131 C4127 1.385 . S
C4131 C4130 1.374 . S
C4132 C4129 1.499 . S
C4132 C4133 1.373 . S
C4132 C4134 1.389 . S
C4133 H4112 0.950 . S
C4133 C4132 1.373 . S
C4133 C4149 1.377 . S
C4134 C4132 1.389 . S
C4134 C4135 1.524 . S
C4134 C4148 1.377 . S
C4135 C4134 1.524 . S
C4135 C4136 1.397 . S
C4135 C4140 1.363 . S
C4136 H4113 0.950 . S
C4136 C4135 1.397 . S
C4136 C4137 1.334 . S
C4137 H4114 0.950 . S
C4137 C4136 1.334 . S
C4137 C4138 1.287 . S
C4138 C4137 1.287 . S
C4138 C4139 1.524 . S
C4138 H4157 0.913 . S
C4139 H4115 0.950 . S
C4139 C4138 1.524 . S
C4139 C4140 1.415 . S
C4140 H4116 0.950 . S
C4140 C4135 1.363 . S
C4140 C4139 1.415 . S
C4141 H4117 0.951 . S
C4141 C4142 1.366 . S
C4141 C4143 1.388 . S
C4142 C4141 1.366 . S
C4142 C4146 1.385 . S
C4143 H4118 0.951 . S
C4143 C4141 1.388 . S
C4143 C4144 1.366 . S
C4144 C4143 1.366 . S
C4144 C4145 1.414 . S
C4144 C4147 1.499 . S
C4145 H4119 0.950 . S
C4145 C4144 1.414 . S
C4145 C4146 1.374 . S
C4146 H4120 0.950 . S
C4146 C4142 1.385 . S
C4146 C4145 1.374 . S
C4147 C4144 1.499 . S
C4147 C4148 1.373 . S
C4147 C4149 1.389 . S
C4148 H4121 0.950 . S
C4148 C4134 1.377 . S
C4148 C4147 1.373 . S
C4149 C4133 1.377 . S
C4149 C4147 1.389 . S
C4149 C4150 1.524 . S
C4150 C4149 1.524 . S
C4150 C4151 1.397 . S
C4150 C4155 1.363 . S
C4151 H4122 0.950 . S
C4151 C4150 1.397 . S
C4151 C4152 1.334 . S
C4152 H4123 0.950 . S
C4152 C4151 1.334 . S
C4152 C4153 1.287 . S
C4153 C4152 1.287 . S
C4153 C4154 1.524 . S
C4153 H4156 0.999 . S
C4154 H4124 0.950 . S
C4154 C4153 1.524 . S
C4154 C4155 1.415 . S
C4155 H4125 0.950 . S
C4155 C4150 1.363 . S
C4155 C4154 1.415 . S
H4156 C4153 0.999 . S
H4157 C4138 0.913 . S
C1477 C528 1.388 . S
C1492 C769 1.313 . S
C1527 C562 1.471 . S
C1542 C853 1.397 . S
C1577 C484 1.447 . S
C1592 C933 1.408 . S
C1627 C445 1.400 . S
C1642 C849 1.364 . S
C1692 C937 1.322 . S
C1677 C367 1.398 . S
C1727 C411 1.354 . S
C1742 C765 1.316 . S
C1792 C758 1.334 . S
C1777 C450 1.407 . S
C1842 C842 1.380 . S
C1827 C372 1.451 . S
C1877 C406 1.446 . S
C1892 C944 1.408 . S
C1927 C523 1.398 . S
C1942 C860 1.363 . S
C1977 C567 1.376 . S
C1992 C926 1.304 . S
C2042 C776 1.337 . S
C2027 C489 1.371 . S
C2092 C1021 1.314 . S
C2077 C60 1.389 . S
C2127 C94 1.472 . S
C2142 C1105 1.398 . S
C2177 C16 1.447 . S
C2192 C1185 1.408 . S
C2227 C679 1.400 . S
C2242 C1101 1.364 . S
C2277 C601 1.398 . S
C2292 C1189 1.323 . S
C2327 C645 1.354 . S
C2342 C1017 1.316 . S
C2377 C684 1.407 . S
C2392 C1010 1.335 . S
C2427 C606 1.451 . S
C2442 C1094 1.380 . S
C2492 C1196 1.408 . S
C2477 C640 1.446 . S
C2527 C55 1.398 . S
C2542 C1112 1.363 . S
C2592 C1178 1.304 . S
C2577 C99 1.376 . S
C2627 C21 1.371 . S
C2642 C1028 1.337 . S
C2692 C1273 1.314 . S
C2677 C294 1.389 . S
C2727 C328 1.472 . S
C2742 C1357 1.398 . S
C2792 C1437 1.408 . S
C2777 C250 1.447 . S
C2842 C1353 1.365 . S
C2827 C211 1.400 . S
C2892 C1441 1.322 . S
C2877 C133 1.398 . S
C2927 C177 1.354 . S
C2942 C1269 1.317 . S
C2977 C216 1.407 . S
C2992 C1262 1.335 . S
C3027 C138 1.451 . S
C3042 C1346 1.380 . S
C3092 C1448 1.408 . S
C3077 C172 1.446 . S
C3127 C289 1.398 . S
C3142 C1364 1.363 . S
C3177 C333 1.377 . S
C3192 C1430 1.305 . S
C3227 C255 1.371 . S
C3242 C1280 1.337 . S
C3277 C586 1.433 . S
C3292 C772 1.312 . S
C3342 C856 1.339 . S
C3327 C625 1.483 . S
C3377 C664 1.456 . S
C3392 C928 1.320 . S
C3427 C235 1.499 . S
C3442 C844 1.352 . S
C3477 C274 1.440 . S
C3492 C940 1.306 . S
C3542 C760 1.312 . S
C3527 C313 1.432 . S
C3577 C118 1.433 . S
C3592 C1024 1.313 . S
C3627 C157 1.483 . S
C3642 C1108 1.339 . S
C3677 C196 1.456 . S
C3692 C1180 1.320 . S
C3727 C469 1.499 . S
C3742 C1096 1.353 . S
C3792 C1192 1.308 . S
C3777 C508 1.440 . S
C3827 C547 1.432 . S
C3842 C1012 1.311 . S
C3877 C352 1.433 . S
C3892 C1276 1.311 . S
C3927 C391 1.484 . S
C3942 C1360 1.339 . S
C3992 C1432 1.322 . S
C3977 C430 1.456 . S
C4027 C1 1.499 . S
C4042 C1348 1.353 . S
C4077 C40 1.440 . S
C4092 C1444 1.306 . S
C4127 C79 1.432 . S
C4142 C1264 1.312 . S
