# Generated by pormake.
# Topology ptr, (4,4)-cn, num edge types: 1
# Building blocks:
#     Node 0, Type 0, BuildingBlock: AZAVOO_clean_sbu_0, # of connection points: 4
#     Node 1, Type 0, BuildingBlock: AZAVOO_clean_sbu_0, # of connection points: 4
#     Node 2, Type 0, BuildingBlock: AZAVOO_clean_sbu_0, # of connection points: 4
#     Node 3, Type 0, BuildingBlock: AZAVOO_clean_sbu_0, # of connection points: 4
#     Node 4, Type 0, BuildingBlock: AZAVOO_clean_sbu_0, # of connection points: 4
#     Node 5, Type 0, BuildingBlock: AZAVOO_clean_sbu_0, # of connection points: 4
#     Node 6, Type 0, BuildingBlock: AZAVOO_clean_sbu_0, # of connection points: 4
#     Node 7, Type 0, BuildingBlock: AZAVOO_clean_sbu_0, # of connection points: 4
#     Node 8, Type 0, BuildingBlock: AZAVOO_clean_sbu_0, # of connection points: 4
#     Node 9, Type 0, BuildingBlock: AZAVOO_clean_sbu_0, # of connection points: 4
#     Node 10, Type 0, BuildingBlock: AZAVOO_clean_sbu_0, # of connection points: 4
#     Node 11, Type 0, BuildingBlock: AZAVOO_clean_sbu_0, # of connection points: 4
#     Node 12, Type 0, BuildingBlock: AZAVOO_clean_sbu_0, # of connection points: 4
#     Node 13, Type 0, BuildingBlock: AZAVOO_clean_sbu_0, # of connection points: 4
#     Node 14, Type 0, BuildingBlock: AZAVOO_clean_sbu_0, # of connection points: 4
#     Node 15, Type 0, BuildingBlock: AZAVOO_clean_sbu_0, # of connection points: 4
#     Node 16, Type 0, BuildingBlock: AZAVOO_clean_sbu_0, # of connection points: 4
#     Node 17, Type 0, BuildingBlock: AZAVOO_clean_sbu_0, # of connection points: 4
#     Node 18, Type 1, BuildingBlock: MUDLON_clean_linker_0, # of connection points: 4
#     Node 19, Type 1, BuildingBlock: MUDLON_clean_linker_0, # of connection points: 4
#     Node 20, Type 1, BuildingBlock: MUDLON_clean_linker_0, # of connection points: 4
#     Node 21, Type 1, BuildingBlock: MUDLON_clean_linker_0, # of connection points: 4
#     Node 22, Type 1, BuildingBlock: MUDLON_clean_linker_0, # of connection points: 4
#     Node 23, Type 1, BuildingBlock: MUDLON_clean_linker_0, # of connection points: 4
#     Node 24, Type 1, BuildingBlock: MUDLON_clean_linker_0, # of connection points: 4
#     Node 25, Type 1, BuildingBlock: MUDLON_clean_linker_0, # of connection points: 4
#     Node 26, Type 1, BuildingBlock: MUDLON_clean_linker_0, # of connection points: 4
#     Node 27, Type 1, BuildingBlock: MUDLON_clean_linker_0, # of connection points: 4
#     Node 28, Type 1, BuildingBlock: MUDLON_clean_linker_0, # of connection points: 4
#     Node 29, Type 1, BuildingBlock: MUDLON_clean_linker_0, # of connection points: 4
#     Node 30, Type 1, BuildingBlock: MUDLON_clean_linker_0, # of connection points: 4
#     Node 31, Type 1, BuildingBlock: MUDLON_clean_linker_0, # of connection points: 4
#     Node 32, Type 1, BuildingBlock: MUDLON_clean_linker_0, # of connection points: 4
#     Node 33, Type 1, BuildingBlock: MUDLON_clean_linker_0, # of connection points: 4
#     Node 34, Type 1, BuildingBlock: MUDLON_clean_linker_0, # of connection points: 4
#     Node 35, Type 1, BuildingBlock: MUDLON_clean_linker_0, # of connection points: 4
#     Edge 36, Type (0, 1), BuildingBlock: OJICUG_clean_linker_0, # of connection points: 2
#     Edge 37, Type (0, 1), BuildingBlock: OJICUG_clean_linker_0, # of connection points: 2
#     Edge 38, Type (0, 1), BuildingBlock: OJICUG_clean_linker_0, # of connection points: 2
#     Edge 39, Type (0, 1), BuildingBlock: OJICUG_clean_linker_0, # of connection points: 2
#     Edge 40, Type (0, 1), BuildingBlock: OJICUG_clean_linker_0, # of connection points: 2
#     Edge 41, Type (0, 1), BuildingBlock: OJICUG_clean_linker_0, # of connection points: 2
#     Edge 42, Type (0, 1), BuildingBlock: OJICUG_clean_linker_0, # of connection points: 2
#     Edge 43, Type (0, 1), BuildingBlock: OJICUG_clean_linker_0, # of connection points: 2
#     Edge 44, Type (0, 1), BuildingBlock: OJICUG_clean_linker_0, # of connection points: 2
#     Edge 45, Type (0, 1), BuildingBlock: OJICUG_clean_linker_0, # of connection points: 2
#     Edge 46, Type (0, 1), BuildingBlock: OJICUG_clean_linker_0, # of connection points: 2
#     Edge 47, Type (0, 1), BuildingBlock: OJICUG_clean_linker_0, # of connection points: 2
#     Edge 48, Type (0, 1), BuildingBlock: OJICUG_clean_linker_0, # of connection points: 2
#     Edge 49, Type (0, 1), BuildingBlock: OJICUG_clean_linker_0, # of connection points: 2
#     Edge 50, Type (0, 1), BuildingBlock: OJICUG_clean_linker_0, # of connection points: 2
#     Edge 51, Type (0, 1), BuildingBlock: OJICUG_clean_linker_0, # of connection points: 2
#     Edge 52, Type (0, 1), BuildingBlock: OJICUG_clean_linker_0, # of connection points: 2
#     Edge 53, Type (0, 1), BuildingBlock: OJICUG_clean_linker_0, # of connection points: 2
#     Edge 54, Type (0, 1), BuildingBlock: OJICUG_clean_linker_0, # of connection points: 2
#     Edge 55, Type (0, 1), BuildingBlock: OJICUG_clean_linker_0, # of connection points: 2
#     Edge 56, Type (0, 1), BuildingBlock: OJICUG_clean_linker_0, # of connection points: 2
#     Edge 57, Type (0, 1), BuildingBlock: OJICUG_clean_linker_0, # of connection points: 2
#     Edge 58, Type (0, 1), BuildingBlock: OJICUG_clean_linker_0, # of connection points: 2
#     Edge 59, Type (0, 1), BuildingBlock: OJICUG_clean_linker_0, # of connection points: 2
#     Edge 60, Type (0, 1), BuildingBlock: OJICUG_clean_linker_0, # of connection points: 2
#     Edge 61, Type (0, 1), BuildingBlock: OJICUG_clean_linker_0, # of connection points: 2
#     Edge 62, Type (0, 1), BuildingBlock: OJICUG_clean_linker_0, # of connection points: 2
#     Edge 63, Type (0, 1), BuildingBlock: OJICUG_clean_linker_0, # of connection points: 2
#     Edge 64, Type (0, 1), BuildingBlock: OJICUG_clean_linker_0, # of connection points: 2
#     Edge 65, Type (0, 1), BuildingBlock: OJICUG_clean_linker_0, # of connection points: 2
#     Edge 66, Type (0, 1), BuildingBlock: OJICUG_clean_linker_0, # of connection points: 2
#     Edge 67, Type (0, 1), BuildingBlock: OJICUG_clean_linker_0, # of connection points: 2
#     Edge 68, Type (0, 1), BuildingBlock: OJICUG_clean_linker_0, # of connection points: 2
#     Edge 69, Type (0, 1), BuildingBlock: OJICUG_clean_linker_0, # of connection points: 2
#     Edge 70, Type (0, 1), BuildingBlock: OJICUG_clean_linker_0, # of connection points: 2
#     Edge 71, Type (0, 1), BuildingBlock: OJICUG_clean_linker_0, # of connection points: 2
#     Edge 72, Type (0, 1), BuildingBlock: OJICUG_clean_linker_0, # of connection points: 2
#     Edge 73, Type (0, 1), BuildingBlock: OJICUG_clean_linker_0, # of connection points: 2
#     Edge 74, Type (0, 1), BuildingBlock: OJICUG_clean_linker_0, # of connection points: 2
#     Edge 75, Type (0, 1), BuildingBlock: OJICUG_clean_linker_0, # of connection points: 2
#     Edge 76, Type (0, 1), BuildingBlock: OJICUG_clean_linker_0, # of connection points: 2
#     Edge 77, Type (0, 1), BuildingBlock: OJICUG_clean_linker_0, # of connection points: 2
#     Edge 78, Type (0, 1), BuildingBlock: OJICUG_clean_linker_0, # of connection points: 2
#     Edge 79, Type (0, 1), BuildingBlock: OJICUG_clean_linker_0, # of connection points: 2
#     Edge 80, Type (0, 1), BuildingBlock: OJICUG_clean_linker_0, # of connection points: 2
#     Edge 81, Type (0, 1), BuildingBlock: OJICUG_clean_linker_0, # of connection points: 2
#     Edge 82, Type (0, 1), BuildingBlock: OJICUG_clean_linker_0, # of connection points: 2
#     Edge 83, Type (0, 1), BuildingBlock: OJICUG_clean_linker_0, # of connection points: 2
#     Edge 84, Type (0, 1), BuildingBlock: OJICUG_clean_linker_0, # of connection points: 2
#     Edge 85, Type (0, 1), BuildingBlock: OJICUG_clean_linker_0, # of connection points: 2
#     Edge 86, Type (0, 1), BuildingBlock: OJICUG_clean_linker_0, # of connection points: 2
#     Edge 87, Type (0, 1), BuildingBlock: OJICUG_clean_linker_0, # of connection points: 2
#     Edge 88, Type (0, 1), BuildingBlock: OJICUG_clean_linker_0, # of connection points: 2
#     Edge 89, Type (0, 1), BuildingBlock: OJICUG_clean_linker_0, # of connection points: 2
#     Edge 90, Type (0, 1), BuildingBlock: OJICUG_clean_linker_0, # of connection points: 2
#     Edge 91, Type (0, 1), BuildingBlock: OJICUG_clean_linker_0, # of connection points: 2
#     Edge 92, Type (0, 1), BuildingBlock: OJICUG_clean_linker_0, # of connection points: 2
#     Edge 93, Type (0, 1), BuildingBlock: OJICUG_clean_linker_0, # of connection points: 2
#     Edge 94, Type (0, 1), BuildingBlock: OJICUG_clean_linker_0, # of connection points: 2
#     Edge 95, Type (0, 1), BuildingBlock: OJICUG_clean_linker_0, # of connection points: 2
#     Edge 96, Type (0, 1), BuildingBlock: OJICUG_clean_linker_0, # of connection points: 2
#     Edge 97, Type (0, 1), BuildingBlock: OJICUG_clean_linker_0, # of connection points: 2
#     Edge 98, Type (0, 1), BuildingBlock: OJICUG_clean_linker_0, # of connection points: 2
#     Edge 99, Type (0, 1), BuildingBlock: OJICUG_clean_linker_0, # of connection points: 2
#     Edge 100, Type (0, 1), BuildingBlock: OJICUG_clean_linker_0, # of connection points: 2
#     Edge 101, Type (0, 1), BuildingBlock: OJICUG_clean_linker_0, # of connection points: 2
#     Edge 102, Type (0, 1), BuildingBlock: OJICUG_clean_linker_0, # of connection points: 2
#     Edge 103, Type (0, 1), BuildingBlock: OJICUG_clean_linker_0, # of connection points: 2
#     Edge 104, Type (0, 1), BuildingBlock: OJICUG_clean_linker_0, # of connection points: 2
#     Edge 105, Type (0, 1), BuildingBlock: OJICUG_clean_linker_0, # of connection points: 2
#     Edge 106, Type (0, 1), BuildingBlock: OJICUG_clean_linker_0, # of connection points: 2
#     Edge 107, Type (0, 1), BuildingBlock: OJICUG_clean_linker_0, # of connection points: 2
# Relax obj value: 0.069
# Max RMSD: 0.230
# Mean RMSD: 0.113
data_MOF--net-ptr--node1-AZAVOO_clean_sbu_0--node2-MUDLON_clean_linker_0--edge1-OJICUG_clean_linker_0
_symmetry_space_group_name_H-M    P1
_symmetry_Int_Tables_number       1
_symmetry_cell_setting            triclinic
loop_
_symmetry_equiv_pos_as_xyz
'x, y, z'
_cell_length_a     85.404216
_cell_length_b     84.133768
_cell_length_c     47.678565
_cell_angle_alpha  91.116713
_cell_angle_beta   91.130873
_cell_angle_gamma 119.99971
loop_
_atom_site_label
_atom_site_type_symbol
_atom_site_fract_x
_atom_site_fract_y
_atom_site_fract_z
_atom_type_partial_charge
Mg0 Mg 0.00064 0.3534 0.98321 0.0
O1 O -0.0008 0.36748 0.024 0.0
O2 O 0.9739 0.36923 0.02143 0.0
Mg3 Mg 0.9609 0.35908 0.97743 0.0
C4 C 0.98819 0.37184 0.03464 0.0
C5 C 0.02163 0.33274 0.99581 0.0
O6 O 0.01049 0.32208 0.97546 0.0
O7 O 0.97706 0.32577 0.99552 0.0
O8 O 0.95327 0.32944 0.98705 0.0
O9 O 0.01716 0.38066 0.96374 0.0
O10 O 0.98728 0.36471 0.96194 0.0
C11 C 0.95999 0.3194 0.99372 0.0
C12 C 0.00194 0.37948 0.95625 0.0
O13 O 0.02097 0.34688 0.00388 0.0
Mg14 Mg 0.65716 0.63862 0.06783 0.0
O15 O 0.63993 0.62387 0.02844 0.0
O16 O 0.61154 0.61737 0.03481 0.0
Mg17 Mg 0.61065 0.6275 0.07946 0.0
C18 C 0.62355 0.61705 0.01965 0.0
C19 C 0.6951 0.66473 0.04462 0.0
O20 O 0.69362 0.67604 0.06227 0.0
O21 O 0.65636 0.6644 0.05762 0.0
O22 O 0.62842 0.65794 0.06777 0.0
O23 O 0.65084 0.61183 0.08544 0.0
O24 O 0.63459 0.6253 0.09227 0.0
C25 C 0.64441 0.66915 0.06 0.0
C26 C 0.63675 0.61136 0.09596 0.0
O27 O 0.68256 0.64803 0.04268 0.0
Mg28 Mg 0.364 0.9988 0.99349 0.0
O29 O 0.3839 0.00938 0.03107 0.0
O30 O 0.40972 0.03348 0.0181 0.0
Mg31 Mg 0.40696 0.03632 0.97072 0.0
C32 C 0.39996 0.02242 0.03665 0.0
C33 C 0.33147 0.96619 0.02065 0.0
O34 O 0.33524 0.95746 0.00121 0.0
O35 O 0.36056 0.02381 0.99555 0.0
O36 O 0.3861 0.04569 0.97764 0.0
O37 O 0.3731 0.97912 0.98138 0.0
O38 O 0.38502 0.00732 0.96602 0.0
C39 C 0.37033 0.0401 0.98705 0.0
C40 C 0.38493 0.99197 0.96622 0.0
O41 O 0.34093 0.98358 0.0229 0.0
Mg42 Mg 0.99414 0.65192 0.03772 0.0
O43 O 0.00234 0.64037 4e-05 0.0
O44 O 0.02671 0.63887 0.01408 0.0
Mg45 Mg 0.03367 0.64856 0.05999 0.0
C46 C 0.01481 0.63655 0.99531 0.0
C47 C 0.97653 0.67342 0.01532 0.0
O48 O 0.98738 0.68417 0.03584 0.0
O49 O 0.01828 0.68053 0.03223 0.0
O50 O 0.04183 0.67805 0.04774 0.0
O51 O 0.97651 0.62347 0.05258 0.0
O52 O 0.00529 0.64126 0.06536 0.0
C53 C 0.03516 0.68751 0.03793 0.0
C54 C 0.99067 0.62561 0.06647 0.0
O55 O 0.97592 0.65826 0.00983 0.0
Mg56 Mg 0.36407 0.37025 0.9785 0.0
O57 O 0.38377 0.37969 0.01665 0.0
O58 O 0.40866 0.37927 0.00439 0.0
Mg59 Mg 0.40538 0.37091 0.95778 0.0
C60 C 0.39944 0.38203 0.02259 0.0
C61 C 0.32508 0.3577 0.99881 0.0
O62 O 0.32086 0.35109 0.97286 0.0
O63 O 0.35762 0.34066 0.98273 0.0
O64 O 0.38275 0.34175 0.9676 0.0
O65 O 0.37571 0.39906 0.96481 0.0
O66 O 0.38566 0.38037 0.95187 0.0
C67 C 0.36668 0.33283 0.97655 0.0
C68 C 0.38726 0.39643 0.95129 0.0
O69 O 0.34156 0.36598 0.00723 0.0
Mg70 Mg 0.62971 0.9955 0.02547 0.0
O71 O 0.61056 0.98436 0.98665 0.0
O72 O 0.58625 0.95805 0.99797 0.0
Mg73 Mg 0.58887 0.95339 0.04452 0.0
C74 C 0.59524 0.97026 0.98023 0.0
C75 C 0.66073 0.03167 0.00175 0.0
O76 O 0.65496 0.03871 0.02101 0.0
O77 O 0.63702 0.97307 0.02092 0.0
O78 O 0.61255 0.94843 0.0364 0.0
O79 O 0.61692 0.01172 0.04016 0.0
O80 O 0.60779 0.98302 0.051 0.0
C81 C 0.6287 0.95627 0.02767 0.0
C82 C 0.60554 0.99701 0.05262 0.0
O83 O 0.653 0.01433 0.99835 0.0
Mg84 Mg 0.67639 0.6901 0.31817 0.0
O85 O 0.67073 0.70341 0.35625 0.0
O86 O 0.6481 0.70822 0.34387 0.0
Mg87 Mg 0.63975 0.69858 0.29801 0.0
C88 C 0.65979 0.70915 0.36193 0.0
C89 C 0.69751 0.67072 0.33372 0.0
O90 O 0.69228 0.66522 0.30748 0.0
O91 O 0.65074 0.66298 0.32451 0.0
O92 O 0.62893 0.66831 0.3093 0.0
O93 O 0.69622 0.71765 0.30295 0.0
O94 O 0.66708 0.7029 0.29115 0.0
C95 C 0.63411 0.65752 0.31879 0.0
C96 C 0.68274 0.71742 0.28961 0.0
O97 O 0.69298 0.68149 0.34533 0.0
Mg98 Mg 0.31847 0.98075 0.39807 0.0
O99 O 0.29915 0.9666 0.36047 0.0
O100 O 0.27136 0.96015 0.37158 0.0
Mg101 Mg 0.27285 0.96882 0.41798 0.0
C102 C 0.28244 0.96008 0.35405 0.0
C103 C 0.3565 0.00573 0.37199 0.0
O104 O 0.35808 0.0171 0.39259 0.0
O105 O 0.31732 0.00686 0.39186 0.0
O106 O 0.29028 0.99949 0.40839 0.0
O107 O 0.31323 0.9536 0.41265 0.0
O108 O 0.29738 0.96666 0.42514 0.0
C109 C 0.30551 0.01117 0.39868 0.0
C110 C 0.29975 0.95269 0.42597 0.0
O111 O 0.34211 0.99022 0.36917 0.0
Mg112 Mg 0.02948 0.31723 0.31827 0.0
O113 O 0.04721 0.32326 0.35802 0.0
O114 O 0.07538 0.3453 0.34987 0.0
Mg115 Mg 0.07548 0.35359 0.30441 0.0
C116 C 0.06363 0.33384 0.3661 0.0
C117 C 0.00069 0.28542 0.35237 0.0
O118 O 0.01071 0.27841 0.34464 0.0
O119 O 0.02865 0.34353 0.32501 0.0
O120 O 0.05659 0.36511 0.31413 0.0
O121 O 0.03684 0.29681 0.30181 0.0
O122 O 0.05183 0.32638 0.2932 0.0
C123 C 0.04049 0.36026 0.3213 0.0
C124 C 0.05016 0.31039 0.28984 0.0
O125 O 0.00472 0.30131 0.34443 0.0
Mg126 Mg 0.66022 0.97453 0.36446 0.0
O127 O 0.66919 0.96265 0.32817 0.0
O128 O 0.69244 0.96013 0.34509 0.0
Mg129 Mg 0.69778 0.96923 0.39137 0.0
C130 C 0.68152 0.95841 0.32501 0.0
C131 C 0.62778 0.97743 0.34536 0.0
O132 O 0.62434 0.97142 0.37101 0.0
O133 O 0.68509 0.00288 0.35955 0.0
O134 O 0.70672 0.99882 0.37936 0.0
O135 O 0.64103 0.94648 0.37941 0.0
O136 O 0.66964 0.9629 0.39368 0.0
C137 C 0.70149 0.00909 0.36799 0.0
C138 C 0.65441 0.94783 0.39456 0.0
O139 O 0.64266 0.98066 0.33497 0.0
Mg140 Mg 0.01884 0.69337 0.30315 0.0
O141 O 0.04026 0.70616 0.33888 0.0
O142 O 0.06699 0.7127 0.322 0.0
Mg143 Mg 0.06262 0.70409 0.27526 0.0
C144 C 0.05724 0.71242 0.34217 0.0
C145 C 0.98418 0.66798 0.33649 0.0
O146 O 0.98483 0.65526 0.32102 0.0
O147 O 0.01945 0.66657 0.30616 0.0
O148 O 0.04547 0.67367 0.28596 0.0
O149 O 0.02488 0.72131 0.28907 0.0
O150 O 0.038 0.7061 0.27347 0.0
C151 C 0.03074 0.66208 0.2971 0.0
C152 C 0.03643 0.72047 0.2728 0.0
O153 O 0.9963 0.68471 0.33432 0.0
Mg154 Mg 0.30382 0.35189 0.37215 0.0
O155 O 0.28515 0.34394 0.33323 0.0
O156 O 0.25758 0.32157 0.34381 0.0
Mg157 Mg 0.2589 0.31524 0.39009 0.0
C158 C 0.26865 0.33263 0.32641 0.0
C159 C 0.34348 0.36977 0.35368 0.0
O160 O 0.34508 0.36473 0.379 0.0
O161 O 0.30517 0.32584 0.36734 0.0
O162 O 0.27827 0.30407 0.3815 0.0
O163 O 0.29626 0.37254 0.38648 0.0
O164 O 0.28195 0.34338 0.39782 0.0
C165 C 0.29421 0.30921 0.37318 0.0
C166 C 0.28318 0.35926 0.39936 0.0
O167 O 0.3281 0.36681 0.3448 0.0
Mg168 Mg 0.33829 0.02624 0.65266 0.0
O169 O 0.32801 0.03611 0.68971 0.0
O170 O 0.30462 0.03851 0.67323 0.0
Mg171 Mg 0.3 0.03037 0.62652 0.0
C172 C 0.31543 0.03993 0.69328 0.0
C173 C 0.36103 0.00932 0.67078 0.0
O174 O 0.35701 0.00429 0.64413 0.0
O175 O 0.31415 0.99738 0.6546 0.0
O176 O 0.2914 0.00035 0.63667 0.0
O177 O 0.3568 0.05515 0.64101 0.0
O178 O 0.32872 0.03818 0.62435 0.0
C179 C 0.29758 0.99052 0.64677 0.0
C180 C 0.34353 0.05379 0.62549 0.0
O181 O 0.35507 0.01901 0.68198 0.0
Mg182 Mg 0.97066 0.30344 0.72381 0.0
O183 O 0.9516 0.28999 0.68564 0.0
O184 O 0.92353 0.28312 0.69569 0.0
Mg185 Mg 0.92518 0.29372 0.74082 0.0
C186 C 0.93493 0.28323 0.67869 0.0
C187 C 0.01048 0.31788 0.70289 0.0
O188 O 0.01508 0.32262 0.72949 0.0
O189 O 0.97143 0.33044 0.71662 0.0
O190 O 0.94359 0.32376 0.72835 0.0
O191 O 0.96365 0.27604 0.73989 0.0
O192 O 0.94904 0.29074 0.75064 0.0
C193 C 0.95945 0.33506 0.72021 0.0
C194 C 0.95057 0.27632 0.75277 0.0
O195 O 0.99396 0.31057 0.69498 0.0
Mg196 Mg 0.70438 0.66074 0.6546 0.0
O197 O 0.72429 0.6722 0.69242 0.0
O198 O 0.75027 0.69559 0.67847 0.0
Mg199 Mg 0.74743 0.69806 0.63124 0.0
C200 C 0.74046 0.68516 0.69758 0.0
C201 C 0.67123 0.62799 0.67892 0.0
O202 O 0.67406 0.62048 0.65661 0.0
O203 O 0.70051 0.68558 0.6557 0.0
O204 O 0.72675 0.70744 0.63929 0.0
O205 O 0.71388 0.64126 0.6431 0.0
O206 O 0.72537 0.66923 0.62702 0.0
C207 C 0.71089 0.702 0.64817 0.0
C208 C 0.72545 0.65398 0.62749 0.0
O209 O 0.68145 0.64509 0.68407 0.0
Mg210 Mg 0.32987 0.31707 0.70367 0.0
O211 O 0.33586 0.30421 0.66509 0.0
O212 O 0.35687 0.29726 0.67892 0.0
Mg213 Mg 0.36469 0.30599 0.72499 0.0
C214 C 0.3462 0.29762 0.66013 0.0
C215 C 0.31267 0.34027 0.68563 0.0
O216 O 0.32108 0.34881 0.7093 0.0
O217 O 0.35628 0.34368 0.69908 0.0
O218 O 0.37698 0.33659 0.71406 0.0
O219 O 0.30878 0.28971 0.71776 0.0
O220 O 0.3378 0.30287 0.73017 0.0
C221 C 0.37265 0.34813 0.70491 0.0
C222 C 0.32172 0.28893 0.73105 0.0
O223 O 0.31419 0.32678 0.67666 0.0
Mg224 Mg 0.68105 0.02844 0.63643 0.0
O225 O 0.70035 0.04249 0.6741 0.0
O226 O 0.7271 0.04516 0.66533 0.0
Mg227 Mg 0.72492 0.0337 0.62034 0.0
C228 C 0.71664 0.04753 0.68148 0.0
C229 C 0.64167 0.01074 0.6543 0.0
O230 O 0.63975 0.00339 0.629 0.0
O231 O 0.67823 0.00078 0.64639 0.0
O232 O 0.70467 0.00426 0.63311 0.0
O233 O 0.6902 0.05585 0.61776 0.0
O234 O 0.70231 0.03839 0.60948 0.0
C235 C 0.68877 0.99435 0.64226 0.0
C236 C 0.70221 0.05339 0.6053 0.0
O237 O 0.65742 0.02245 0.66364 0.0
Mg238 Mg 0.97698 0.69172 0.69991 0.0
O239 O 0.95487 0.67851 0.66503 0.0
O240 O 0.92991 0.65627 0.68374 0.0
Mg241 Mg 0.9355 0.65624 0.73069 0.0
C242 C 0.93846 0.66546 0.66275 0.0
C243 C 0.01491 0.712 0.67588 0.0
O244 O 0.01847 0.71149 0.70268 0.0
O245 O 0.9803 0.66646 0.69992 0.0
O246 O 0.95523 0.64605 0.72087 0.0
O247 O 0.96863 0.71232 0.71141 0.0
O248 O 0.95757 0.68502 0.72975 0.0
C249 C 0.97033 0.65059 0.70975 0.0
C250 C 0.95761 0.7003 0.72846 0.0
O251 O 0.99852 0.70497 0.6674 0.0
H252 H 0.24197 0.32421 0.14724 0.0
N253 N 0.23322 0.35058 0.13365 0.0
H254 H 0.24963 0.31843 0.19415 0.0
H255 H 0.23184 0.3658 0.18221 0.0
H256 H 0.23875 0.35936 0.22951 0.0
H257 H 0.22891 0.32308 0.09682 0.0
H258 H 0.25086 0.32481 0.0632 0.0
H259 H 0.26459 0.37972 0.12236 0.0
H260 H 0.2866 0.38166 0.08847 0.0
H261 H 0.21781 0.36856 0.11269 0.0
H262 H 0.2064 0.31462 0.13567 0.0
H263 H 0.18566 0.35656 0.10147 0.0
H264 H 0.17418 0.30256 0.12536 0.0
H265 H 0.09596 0.32745 0.13333 0.0
H266 H 0.08648 0.32869 0.18041 0.0
H267 H 0.083 0.27674 0.19714 0.0
H268 H 0.09228 0.27538 0.14906 0.0
H269 H 0.0683 0.27737 0.08608 0.0
H270 H 0.04984 0.28505 0.05555 0.0
H271 H 0.09396 0.34099 0.05354 0.0
H272 H 0.11211 0.33341 0.08417 0.0
H273 H 0.12714 0.33457 0.12811 0.0
H274 H 0.15941 0.34613 0.12975 0.0
H275 H 0.15067 0.2958 0.08928 0.0
N276 N 0.10057 0.30015 0.10955 0.0
H277 H 0.11791 0.284 0.08825 0.0
C278 C 0.23672 0.34584 0.1611 0.0
C279 C 0.24133 0.33209 0.16489 0.0
C280 C 0.24562 0.32869 0.19172 0.0
C281 C 0.24479 0.3385 0.21521 0.0
C282 C 0.23942 0.35161 0.21161 0.0
C283 C 0.23555 0.35532 0.18473 0.0
C284 C 0.24514 0.35137 0.11207 0.0
C285 C 0.24133 0.33598 0.09489 0.0
C286 C 0.2539 0.33699 0.07563 0.0
C287 C 0.2705 0.35334 0.07329 0.0
C288 C 0.27405 0.36879 0.09007 0.0
C289 C 0.26148 0.36777 0.10926 0.0
C290 C 0.21442 0.3426 0.12532 0.0
C291 C 0.20833 0.35411 0.11514 0.0
C292 C 0.18999 0.34724 0.10889 0.0
C293 C 0.17734 0.32865 0.11283 0.0
C294 C 0.18358 0.31691 0.1219 0.0
C295 C 0.20198 0.32381 0.12804 0.0
C296 C 0.0947 0.30116 0.13744 0.0
C297 C 0.09314 0.31624 0.14689 0.0
C298 C 0.08792 0.31707 0.17411 0.0
C299 C 0.0842 0.30292 0.19268 0.0
C300 C 0.08574 0.28783 0.18329 0.0
C301 C 0.09101 0.28702 0.15592 0.0
C302 C 0.09159 0.30465 0.08765 0.0
C303 C 0.0741 0.29118 0.07852 0.0
C304 C 0.06359 0.2956 0.06107 0.0
C305 C 0.07037 0.31369 0.05237 0.0
C306 C 0.08823 0.327 0.06029 0.0
C307 C 0.09874 0.32257 0.07772 0.0
C308 C 0.11996 0.30827 0.10803 0.0
C309 C 0.13201 0.326 0.11928 0.0
C310 C 0.1506 0.33271 0.12003 0.0
C311 C 0.15765 0.3219 0.10963 0.0
C312 C 0.14565 0.30439 0.09771 0.0
C313 C 0.12698 0.29768 0.0969 0.0
H314 H 0.71947 0.78401 0.14834 0.0
N315 N 0.69702 0.79445 0.12792 0.0
H316 H 0.71721 0.76874 0.19244 0.0
H317 H 0.67442 0.79078 0.17047 0.0
H318 H 0.67211 0.77565 0.2147 0.0
H319 H 0.66134 0.76771 0.13093 0.0
H320 H 0.64694 0.73868 0.10489 0.0
H321 H 0.7082 0.78735 0.08005 0.0
H322 H 0.69325 0.75862 0.05202 0.0
H323 H 0.72466 0.82807 0.13606 0.0
H324 H 0.66731 0.79833 0.1167 0.0
H325 H 0.72435 0.85688 0.13715 0.0
H326 H 0.66699 0.82711 0.11607 0.0
H327 H 0.69195 0.94223 0.14744 0.0
H328 H 0.68775 0.95258 0.19302 0.0
H329 H 0.69459 0.91062 0.23244 0.0
H330 H 0.69922 0.90042 0.1872 0.0
H331 H 0.66069 0.90041 0.13215 0.0
H332 H 0.64433 0.90745 0.09696 0.0
H333 H 0.69342 0.93719 0.051 0.0
H334 H 0.70988 0.93059 0.08732 0.0
H335 H 0.72253 0.90752 0.11502 0.0
H336 H 0.72194 0.87828 0.10992 0.0
H337 H 0.66898 0.85067 0.14576 0.0
N338 N 0.69713 0.91352 0.13508 0.0
H339 H 0.66941 0.87984 0.14931 0.0
C340 C 0.69714 0.78845 0.15604 0.0
C341 C 0.70941 0.78261 0.16309 0.0
C342 C 0.70811 0.77396 0.18833 0.0
C343 C 0.6944 0.7709 0.20698 0.0
C344 C 0.68269 0.77765 0.2006 0.0
C345 C 0.68407 0.78639 0.17539 0.0
C346 C 0.68617 0.77957 0.10799 0.0
C347 C 0.66833 0.76603 0.11349 0.0
C348 C 0.65996 0.74935 0.09819 0.0
C349 C 0.66907 0.74595 0.07666 0.0
C350 C 0.68604 0.76043 0.06907 0.0
C351 C 0.69455 0.77698 0.08481 0.0
C352 C 0.69615 0.81107 0.12606 0.0
C353 C 0.71207 0.82784 0.1315 0.0
C354 C 0.71185 0.8443 0.13191 0.0
C355 C 0.69566 0.84442 0.12651 0.0
C356 C 0.67968 0.82757 0.12068 0.0
C357 C 0.67987 0.81103 0.1207 0.0
C358 C 0.69447 0.9194 0.1628 0.0
C359 C 0.69207 0.93479 0.16563 0.0
C360 C 0.68971 0.94083 0.19186 0.0
C361 C 0.69032 0.93212 0.21631 0.0
C362 C 0.69378 0.91749 0.21395 0.0
C363 C 0.69612 0.91141 0.1877 0.0
C364 C 0.68661 0.91529 0.11255 0.0
C365 C 0.66785 0.9081 0.11422 0.0
C366 C 0.65848 0.91207 0.09385 0.0
C367 C 0.66756 0.92305 0.07113 0.0
C368 C 0.68606 0.92902 0.06847 0.0
C369 C 0.69548 0.92522 0.08909 0.0
C370 C 0.69622 0.89593 0.13288 0.0
C371 C 0.71082 0.89511 0.12169 0.0
C372 C 0.71046 0.87838 0.11896 0.0
C373 C 0.69548 0.86205 0.12772 0.0
C374 C 0.68064 0.86286 0.13844 0.0
C375 C 0.6809 0.87958 0.14067 0.0
H376 H 0.11016 0.77637 0.14509 0.0
N377 N 0.10946 0.80629 0.12383 0.0
H378 H 0.09395 0.75865 0.18386 0.0
H379 H 0.08817 0.81225 0.15769 0.0
H380 H 0.06999 0.79288 0.19578 0.0
H381 H 0.08238 0.80108 0.08924 0.0
H382 H 0.06593 0.77553 0.05549 0.0
H383 H 0.12285 0.78534 0.10097 0.0
H384 H 0.10571 0.75877 0.07035 0.0
H385 H 0.13679 0.80077 0.14531 0.0
H386 H 0.12601 0.84126 0.10965 0.0
H387 H 0.16796 0.82345 0.1531 0.0
H388 H 0.15817 0.86435 0.11624 0.0
H389 H 0.25061 0.88584 0.20925 0.0
H390 H 0.26029 0.90123 0.25574 0.0
H391 H 0.24899 0.94319 0.22834 0.0
H392 H 0.23974 0.92799 0.1818 0.0
H393 H 0.23985 0.92306 0.13219 0.0
H394 H 0.26136 0.93997 0.09574 0.0
H395 H 0.28892 0.90961 0.11197 0.0
H396 H 0.26744 0.89294 0.14842 0.0
H397 H 0.22648 0.86288 0.14468 0.0
H398 H 0.19511 0.84117 0.13057 0.0
H399 H 0.18038 0.88202 0.15239 0.0
N400 N 0.24013 0.8969 0.16472 0.0
H401 H 0.21199 0.90392 0.16475 0.0
C402 C 0.10084 0.79616 0.1485 0.0
C403 C 0.10214 0.78081 0.15638 0.0
C404 C 0.09238 0.77024 0.17847 0.0
C405 C 0.08026 0.774 0.19257 0.0
C406 C 0.07924 0.78962 0.1854 0.0
C407 C 0.08954 0.80064 0.1636 0.0
C408 C 0.10349 0.79484 0.09847 0.0
C409 C 0.08788 0.79228 0.08415 0.0
C410 C 0.0783 0.77737 0.06526 0.0
C411 C 0.08381 0.76428 0.06105 0.0
C412 C 0.10069 0.76821 0.0729 0.0
C413 C 0.11057 0.7835 0.09095 0.0
C414 C 0.12865 0.8192 0.12706 0.0
C415 C 0.14094 0.81445 0.13883 0.0
C416 C 0.15913 0.82758 0.14304 0.0
C417 C 0.16571 0.84579 0.13522 0.0
C418 C 0.15355 0.85051 0.12286 0.0
C419 C 0.13521 0.83731 0.11888 0.0
C420 C 0.24431 0.90562 0.19223 0.0
C421 C 0.25007 0.89825 0.21343 0.0
C422 C 0.25565 0.90708 0.23982 0.0
C423 C 0.25538 0.92338 0.24553 0.0
C424 C 0.24916 0.93054 0.2245 0.0
C425 C 0.24383 0.92183 0.19793 0.0
C426 C 0.25225 0.90689 0.14301 0.0
C427 C 0.25059 0.92018 0.12795 0.0
C428 C 0.26286 0.92978 0.10718 0.0
C429 C 0.27677 0.92605 0.10101 0.0
C430 C 0.27821 0.91261 0.11603 0.0
C431 C 0.26607 0.90317 0.13688 0.0
C432 C 0.2215 0.8848 0.15637 0.0
C433 C 0.21644 0.86711 0.14626 0.0
C434 C 0.19849 0.85472 0.13837 0.0
C435 C 0.18509 0.8597 0.14082 0.0
C436 C 0.19032 0.87772 0.15011 0.0
C437 C 0.20841 0.89023 0.15759 0.0
H438 H 0.33812 0.22498 0.85445 0.0
N439 N 0.30999 0.21026 0.89031 0.0
H440 H 0.33975 0.24175 0.81294 0.0
H441 H 0.28228 0.20958 0.86296 0.0
H442 H 0.28271 0.22383 0.81886 0.0
H443 H 0.29361 0.21763 0.9312 0.0
H444 H 0.30674 0.24493 0.96261 0.0
H445 H 0.34631 0.23505 0.89869 0.0
H446 H 0.3592 0.26238 0.92828 0.0
H447 H 0.33941 0.20545 0.89809 0.0
H448 H 0.28155 0.17699 0.88431 0.0
H449 H 0.33884 0.17628 0.89857 0.0
H450 H 0.28089 0.14772 0.88271 0.0
H451 H 0.30699 0.05812 0.8714 0.0
H452 H 0.30912 0.04602 0.82585 0.0
H453 H 0.30654 0.09017 0.78559 0.0
H454 H 0.30413 0.10222 0.83076 0.0
H455 H 0.29499 0.07504 0.93347 0.0
H456 H 0.31185 0.06794 0.96827 0.0
H457 H 0.35821 0.09153 0.91525 0.0
H458 H 0.34162 0.09948 0.88179 0.0
H459 H 0.33391 0.12207 0.86756 0.0
H460 H 0.33538 0.15178 0.87043 0.0
H461 H 0.28322 0.12622 0.90893 0.0
N462 N 0.30579 0.08911 0.88328 0.0
H463 H 0.28149 0.09646 0.90415 0.0
C464 C 0.31032 0.21695 0.86264 0.0
C465 C 0.32612 0.2251 0.84718 0.0
C466 C 0.32685 0.23436 0.82278 0.0
C467 C 0.31149 0.23486 0.81248 0.0
C468 C 0.29515 0.22479 0.82658 0.0
C469 C 0.29472 0.2163 0.85165 0.0
C470 C 0.31879 0.22421 0.91233 0.0
C471 C 0.30804 0.2271 0.93125 0.0
C472 C 0.31556 0.24284 0.94894 0.0
C473 C 0.33403 0.25614 0.94778 0.0
C474 C 0.34499 0.25248 0.9302 0.0
C475 C 0.3375 0.2367 0.91282 0.0
C476 C 0.31039 0.1934 0.89171 0.0
C477 C 0.32655 0.19296 0.89527 0.0
C478 C 0.32621 0.17616 0.89515 0.0
C479 C 0.3098 0.15948 0.89078 0.0
C480 C 0.29375 0.16012 0.8869 0.0
C481 C 0.29407 0.17686 0.88759 0.0
C482 C 0.30683 0.08208 0.85549 0.0
C483 C 0.30731 0.06558 0.85296 0.0
C484 C 0.30846 0.05855 0.8268 0.0
C485 C 0.30848 0.0674 0.80216 0.0
C486 C 0.30681 0.08316 0.80425 0.0
C487 C 0.30575 0.09028 0.83046 0.0
C488 C 0.31689 0.08738 0.90488 0.0
C489 C 0.30894 0.07901 0.92983 0.0
C490 C 0.31858 0.07488 0.94955 0.0
C491 C 0.33632 0.07878 0.94442 0.0
C492 C 0.34468 0.08842 0.92024 0.0
C493 C 0.33514 0.09287 0.90083 0.0
C494 C 0.30734 0.10699 0.88508 0.0
C495 C 0.32279 0.12292 0.8765 0.0
C496 C 0.32366 0.13995 0.8784 0.0
C497 C 0.30934 0.14151 0.88969 0.0
C498 C 0.29427 0.12558 0.89932 0.0
C499 C 0.29327 0.10854 0.89681 0.0
H500 H 0.74968 0.12349 0.82544 0.0
N501 N 0.75774 0.11109 0.87099 0.0
H502 H 0.74073 0.10858 0.77855 0.0
H503 H 0.75714 0.0794 0.8542 0.0
H504 H 0.74849 0.0646 0.80744 0.0
H505 H 0.75846 0.08524 0.90393 0.0
H506 H 0.73555 0.06621 0.93731 0.0
H507 H 0.72874 0.11283 0.88474 0.0
H508 H 0.7058 0.09397 0.91812 0.0
H509 H 0.77159 0.14425 0.89486 0.0
H510 H 0.78564 0.10364 0.86954 0.0
H511 H 0.8029 0.16506 0.91054 0.0
H512 H 0.81711 0.12465 0.88345 0.0
H513 H 0.89329 0.23095 0.89958 0.0
H514 H 0.90612 0.24717 0.8572 0.0
H515 H 0.9123 0.20201 0.82638 0.0
H516 H 0.89985 0.18591 0.86996 0.0
H517 H 0.92296 0.21276 0.93299 0.0
H518 H 0.93919 0.2403 0.9627 0.0
H519 H 0.88852 0.23722 0.9822 0.0
H520 H 0.87258 0.21054 0.95098 0.0
H521 H 0.86247 0.2055 0.89823 0.0
H522 H 0.83064 0.18376 0.89033 0.0
H523 H 0.83898 0.14024 0.92015 0.0
N524 N 0.88893 0.1976 0.914 0.0
H525 H 0.87143 0.16223 0.92651 0.0
C526 C 0.75419 0.1027 0.84323 0.0
C527 C 0.74964 0.11076 0.82149 0.0
C528 C 0.74446 0.10219 0.79486 0.0
C529 C 0.74389 0.08542 0.78943 0.0
C530 C 0.74898 0.07761 0.81099 0.0
C531 C 0.75394 0.08608 0.83775 0.0
C532 C 0.74515 0.10035 0.89181 0.0
C533 C 0.74701 0.08719 0.90694 0.0
C534 C 0.73391 0.07634 0.92595 0.0
C535 C 0.71888 0.07861 0.93028 0.0
C536 C 0.71732 0.09205 0.91547 0.0
C537 C 0.73032 0.10276 0.89636 0.0
C538 C 0.7763 0.1226 0.88048 0.0
C539 C 0.7815 0.13991 0.89251 0.0
C540 C 0.79943 0.1518 0.9013 0.0
C541 C 0.81268 0.1467 0.89789 0.0
C542 C 0.80731 0.12904 0.88663 0.0
C543 C 0.78926 0.11703 0.87824 0.0
C544 C 0.89572 0.20715 0.88815 0.0
C545 C 0.89731 0.22441 0.88379 0.0
C546 C 0.90451 0.23365 0.85925 0.0
C547 C 0.91015 0.22587 0.8382 0.0
C548 C 0.90824 0.20846 0.84228 0.0
C549 C 0.90107 0.19921 0.86705 0.0
C550 C 0.89663 0.20976 0.93865 0.0
C551 C 0.91529 0.21773 0.94429 0.0
C552 C 0.92458 0.23355 0.9615 0.0
C553 C 0.9153 0.24152 0.97425 0.0
C554 C 0.89626 0.23201 0.97176 0.0
C555 C 0.88702 0.21647 0.95389 0.0
C556 C 0.86953 0.18547 0.91267 0.0
C557 C 0.85759 0.19133 0.9031 0.0
C558 C 0.83919 0.17882 0.89891 0.0
C559 C 0.83213 0.16014 0.90448 0.0
C560 C 0.84396 0.15444 0.91514 0.0
C561 C 0.86247 0.16699 0.91908 0.0
H562 H 0.77953 0.73224 0.8648 0.0
N563 N 0.78878 0.71263 0.89695 0.0
H564 H 0.76794 0.72538 0.81593 0.0
H565 H 0.78187 0.68226 0.86516 0.0
H566 H 0.76995 0.67511 0.81651 0.0
H567 H 0.75958 0.67763 0.90042 0.0
H568 H 0.73792 0.66641 0.9373 0.0
H569 H 0.78948 0.73026 0.94413 0.0
H570 H 0.76851 0.71866 0.98254 0.0
H571 H 0.82057 0.7392 0.88134 0.0
H572 H 0.79532 0.68714 0.92161 0.0
H573 H 0.84974 0.74085 0.88572 0.0
H574 H 0.8247 0.68933 0.92844 0.0
H575 H 0.94055 0.74334 0.87869 0.0
H576 H 0.94989 0.74021 0.83163 0.0
H577 H 0.89637 0.69434 0.81273 0.0
H578 H 0.88742 0.697 0.85957 0.0
H579 H 0.90681 0.68729 0.89397 0.0
H580 H 0.92218 0.67507 0.92202 0.0
H581 H 0.93958 0.72045 0.98213 0.0
H582 H 0.92543 0.73337 0.95245 0.0
H583 H 0.9028 0.74823 0.91109 0.0
H584 H 0.87345 0.74623 0.91482 0.0
H585 H 0.84729 0.68695 0.90698 0.0
N586 N 0.9094 0.72101 0.90222 0.0
H587 H 0.87688 0.68925 0.9061 0.0
C588 C 0.78141 0.70775 0.8686 0.0
C589 C 0.77741 0.71974 0.85434 0.0
C590 C 0.7709 0.71585 0.8265 0.0
C591 C 0.76807 0.69972 0.81254 0.0
C592 C 0.77189 0.68756 0.82691 0.0
C593 C 0.77869 0.69163 0.85463 0.0
C594 C 0.77602 0.70507 0.9191 0.0
C595 C 0.76159 0.68682 0.91798 0.0
C596 C 0.74927 0.68027 0.93951 0.0
C597 C 0.7513 0.69161 0.96303 0.0
C598 C 0.76617 0.70963 0.96452 0.0
C599 C 0.77827 0.71628 0.9427 0.0
C600 C 0.80583 0.71326 0.90138 0.0
C601 C 0.82145 0.72831 0.89168 0.0
C602 C 0.83818 0.72928 0.89456 0.0
C603 C 0.83982 0.71536 0.9079 0.0
C604 C 0.82407 0.70025 0.91782 0.0
C605 C 0.80721 0.69907 0.91423 0.0
C606 C 0.91337 0.72048 0.87298 0.0
C607 C 0.93077 0.73286 0.86414 0.0
C608 C 0.93602 0.73112 0.83719 0.0
C609 C 0.92389 0.71692 0.81853 0.0
C610 C 0.9061 0.70526 0.82677 0.0
C611 C 0.90092 0.7069 0.85372 0.0
C612 C 0.91544 0.71163 0.92073 0.0
C613 C 0.91394 0.69464 0.91316 0.0
C614 C 0.92264 0.68752 0.9295 0.0
C615 C 0.93259 0.69694 0.95418 0.0
C616 C 0.9327 0.71312 0.96277 0.0
C617 C 0.92439 0.72044 0.94607 0.0
C618 C 0.89198 0.71899 0.90766 0.0
C619 C 0.89069 0.73484 0.91076 0.0
C620 C 0.87384 0.73361 0.91247 0.0
C621 C 0.85779 0.71643 0.91029 0.0
C622 C 0.85922 0.70045 0.90879 0.0
C623 C 0.87617 0.70171 0.90798 0.0
H624 H 0.7336 0.60325 0.48047 0.0
N625 N 0.76255 0.62254 0.45022 0.0
H626 H 0.72815 0.6107 0.52782 0.0
H627 H 0.78659 0.65156 0.48414 0.0
H628 H 0.7814 0.65901 0.53165 0.0
H629 H 0.77358 0.65901 0.44398 0.0
H630 H 0.75897 0.67126 0.41389 0.0
H631 H 0.73695 0.60436 0.41072 0.0
H632 H 0.72212 0.61651 0.38057 0.0
H633 H 0.77043 0.59793 0.46865 0.0
H634 H 0.79295 0.64791 0.42279 0.0
H635 H 0.79954 0.59951 0.46986 0.0
H636 H 0.82176 0.64881 0.4217 0.0
H637 H 0.88791 0.60939 0.50401 0.0
H638 H 0.90067 0.6177 0.55218 0.0
H639 H 0.90376 0.6703 0.54577 0.0
H640 H 0.89092 0.66194 0.4982 0.0
H641 H 0.9097 0.66526 0.46075 0.0
H642 H 0.93432 0.67446 0.42886 0.0
H643 H 0.90922 0.61867 0.39497 0.0
H644 H 0.8854 0.60936 0.42891 0.0
H645 H 0.85075 0.59953 0.4604 0.0
H646 H 0.82147 0.59659 0.44896 0.0
H647 H 0.84687 0.65588 0.44872 0.0
N648 N 0.88225 0.63003 0.46846 0.0
H649 H 0.87621 0.65833 0.45679 0.0
C650 C 0.76035 0.62685 0.47877 0.0
C651 C 0.74411 0.61533 0.49171 0.0
C652 C 0.74113 0.61953 0.51882 0.0
C653 C 0.75439 0.63542 0.53352 0.0
C654 C 0.77089 0.64674 0.52078 0.0
C655 C 0.77386 0.64251 0.49364 0.0
C656 C 0.75631 0.63066 0.42961 0.0
C657 C 0.76255 0.64965 0.42993 0.0
C658 C 0.7541 0.65664 0.41283 0.0
C659 C 0.73925 0.64484 0.39506 0.0
C660 C 0.7336 0.626 0.39385 0.0
C661 C 0.74205 0.61902 0.41101 0.0
C662 C 0.77933 0.62272 0.44583 0.0
C663 C 0.78156 0.60895 0.45806 0.0
C664 C 0.79829 0.60985 0.4585 0.0
C665 C 0.81327 0.62435 0.44591 0.0
C666 C 0.81077 0.63767 0.43226 0.0
C667 C 0.79407 0.63703 0.43254 0.0
C668 C 0.88848 0.63496 0.49734 0.0
C669 C 0.89115 0.62261 0.51318 0.0
C670 C 0.8984 0.62736 0.54061 0.0
C671 C 0.90329 0.64469 0.55256 0.0
C672 C 0.90029 0.65693 0.53692 0.0
C673 C 0.89284 0.65208 0.50964 0.0
C674 C 0.89592 0.63644 0.44772 0.0
C675 C 0.90953 0.65495 0.44669 0.0
C676 C 0.92357 0.66026 0.42803 0.0
C677 C 0.92402 0.6473 0.40942 0.0
C678 C 0.90974 0.62898 0.40952 0.0
C679 C 0.89597 0.62362 0.42865 0.0
C680 C 0.86548 0.62909 0.46052 0.0
C681 C 0.8499 0.61182 0.45757 0.0
C682 C 0.83314 0.61024 0.45131 0.0
C683 C 0.8315 0.626 0.44868 0.0
C684 C 0.84739 0.64336 0.4505 0.0
C685 C 0.86426 0.64486 0.45583 0.0
H686 H 0.3862 0.13072 0.49641 0.0
N687 N 0.36245 0.13754 0.47045 0.0
H688 H 0.3817 0.11305 0.53856 0.0
H689 H 0.33424 0.12661 0.5059 0.0
H690 H 0.32963 0.10901 0.54826 0.0
H691 H 0.32602 0.11824 0.45719 0.0
H692 H 0.3102 0.08933 0.43021 0.0
H693 H 0.37718 0.12265 0.4387 0.0
H694 H 0.36158 0.09307 0.4136 0.0
H695 H 0.37505 0.16579 0.50831 0.0
H696 H 0.34616 0.14704 0.42797 0.0
H697 H 0.37252 0.19327 0.50647 0.0
H698 H 0.3434 0.17433 0.42677 0.0
H699 H 0.36961 0.28635 0.48759 0.0
H700 H 0.36671 0.29741 0.53419 0.0
H701 H 0.33086 0.24154 0.55718 0.0
H702 H 0.33322 0.23058 0.5105 0.0
H703 H 0.31792 0.2425 0.46974 0.0
H704 H 0.30223 0.25255 0.43813 0.0
H705 H 0.34822 0.27522 0.38433 0.0
H706 H 0.36433 0.26618 0.41753 0.0
H707 H 0.38281 0.24904 0.47578 0.0
H708 H 0.38484 0.221 0.47575 0.0
H709 H 0.32763 0.18875 0.45519 0.0
N710 N 0.35353 0.25186 0.46755 0.0
H711 H 0.32562 0.21676 0.45565 0.0
C712 C 0.36058 0.12988 0.49791 0.0
C713 C 0.37402 0.12637 0.50803 0.0
C714 C 0.37142 0.11632 0.53217 0.0
C715 C 0.35524 0.10951 0.54669 0.0
C716 C 0.34213 0.11384 0.53732 0.0
C717 C 0.34477 0.12395 0.51318 0.0
C718 C 0.35289 0.12272 0.44982 0.0
C719 C 0.33388 0.11314 0.44687 0.0
C720 C 0.32483 0.09642 0.43167 0.0
C721 C 0.33449 0.08848 0.42009 0.0
C722 C 0.35354 0.09867 0.42173 0.0
C723 C 0.36257 0.11563 0.43624 0.0
C724 C 0.35973 0.1533 0.46937 0.0
C725 C 0.36769 0.16717 0.49066 0.0
C726 C 0.36646 0.18307 0.48948 0.0
C727 C 0.35749 0.18575 0.46671 0.0
C728 C 0.34997 0.17233 0.44494 0.0
C729 C 0.35141 0.1565 0.44591 0.0
C730 C 0.35198 0.25768 0.4956 0.0
C731 C 0.36117 0.27652 0.50273 0.0
C732 C 0.35941 0.2828 0.52917 0.0
C733 C 0.34861 0.27029 0.54916 0.0
C734 C 0.33938 0.25142 0.54214 0.0
C735 C 0.34083 0.24516 0.51548 0.0
C736 C 0.34257 0.25417 0.44641 0.0
C737 C 0.32457 0.24948 0.45103 0.0
C738 C 0.31549 0.25506 0.43258 0.0
C739 C 0.32405 0.26509 0.40879 0.0
C740 C 0.34138 0.26805 0.40284 0.0
C741 C 0.35058 0.26278 0.42163 0.0
C742 C 0.3542 0.23508 0.46547 0.0
C743 C 0.37076 0.23592 0.47106 0.0
C744 C 0.37186 0.21993 0.47119 0.0
C745 C 0.35638 0.20273 0.4655 0.0
C746 C 0.3398 0.20186 0.45938 0.0
C747 C 0.33866 0.21788 0.4596 0.0
H748 H 0.77266 0.10114 0.46677 0.0
N749 N 0.77272 0.13154 0.44697 0.0
H750 H 0.759 0.08511 0.50856 0.0
H751 H 0.75442 0.13963 0.48394 0.0
H752 H 0.73815 0.12187 0.5242 0.0
H753 H 0.73974 0.11732 0.42398 0.0
H754 H 0.72396 0.0894 0.39484 0.0
H755 H 0.78973 0.11693 0.41492 0.0
H756 H 0.77433 0.08979 0.38445 0.0
H757 H 0.80002 0.12523 0.46544 0.0
H758 H 0.7895 0.16674 0.43341 0.0
H759 H 0.8314 0.14751 0.4727 0.0
H760 H 0.82186 0.18945 0.43931 0.0
H761 H 0.91288 0.25511 0.49948 0.0
H762 H 0.91923 0.27133 0.54511 0.0
H763 H 0.90485 0.22096 0.58668 0.0
H764 H 0.89918 0.20485 0.54086 0.0
H765 H 0.90227 0.2403 0.44876 0.0
H766 H 0.92524 0.25597 0.41382 0.0
H767 H 0.95778 0.23537 0.45155 0.0
H768 H 0.93444 0.21933 0.48578 0.0
H769 H 0.88961 0.18599 0.46592 0.0
H770 H 0.85837 0.16541 0.44984 0.0
H771 H 0.84444 0.20624 0.47571 0.0
N772 N 0.9034 0.21897 0.49039 0.0
H773 H 0.87605 0.22717 0.48999 0.0
C774 C 0.76514 0.1221 0.47259 0.0
C775 C 0.76595 0.10639 0.47983 0.0
C776 C 0.75752 0.09679 0.50352 0.0
C777 C 0.74699 0.1018 0.51977 0.0
C778 C 0.74628 0.11763 0.51262 0.0
C779 C 0.75546 0.12776 0.48945 0.0
C780 C 0.7658 0.1191 0.42259 0.0
C781 C 0.74748 0.11169 0.41471 0.0
C782 C 0.73847 0.09567 0.39787 0.0
C783 C 0.74772 0.08689 0.38792 0.0
C784 C 0.76659 0.09573 0.39267 0.0
C785 C 0.77553 0.11151 0.41009 0.0
C786 C 0.79203 0.14422 0.44911 0.0
C787 C 0.80431 0.13909 0.45974 0.0
C788 C 0.82259 0.15196 0.4635 0.0
C789 C 0.82929 0.17033 0.45646 0.0
C790 C 0.81714 0.17545 0.44523 0.0
C791 C 0.79869 0.16249 0.44164 0.0
C792 C 0.90594 0.22877 0.51679 0.0
C793 C 0.91116 0.24752 0.51831 0.0
C794 C 0.9147 0.25678 0.54436 0.0
C795 C 0.91256 0.24736 0.56925 0.0
C796 C 0.90652 0.22848 0.56774 0.0
C797 C 0.90336 0.21931 0.54169 0.0
C798 C 0.91667 0.22853 0.46967 0.0
C799 C 0.9143 0.23909 0.44933 0.0
C800 C 0.92751 0.24814 0.42953 0.0
C801 C 0.94332 0.24685 0.42981 0.0
C802 C 0.94563 0.23638 0.45039 0.0
C803 C 0.93241 0.22731 0.47007 0.0
C804 C 0.88503 0.20783 0.47978 0.0
C805 C 0.87981 0.19051 0.46781 0.0
C806 C 0.86193 0.17876 0.45881 0.0
C807 C 0.84875 0.18397 0.46209 0.0
C808 C 0.8542 0.20176 0.47283 0.0
C809 C 0.87225 0.21368 0.48136 0.0
H810 H 0.0117 0.5609 0.18606 0.0
N811 N 0.9809 0.53925 0.21434 0.0
H812 H 0.01432 0.57947 0.14597 0.0
H813 H 0.95402 0.5389 0.18457 0.0
H814 H 0.95654 0.55826 0.14542 0.0
H815 H 0.96312 0.55292 0.2415 0.0
H816 H 0.97622 0.58113 0.27024 0.0
H817 H 0.01551 0.55732 0.23722 0.0
H818 H 0.02854 0.5848 0.26764 0.0
H819 H 0.99227 0.52551 0.17027 0.0
H820 H 0.98118 0.52024 0.25887 0.0
H821 H 0.00253 0.5036 0.17327 0.0
H822 H 0.99133 0.49782 0.26145 0.0
H823 H 0.0409 0.43451 0.18965 0.0
H824 H 0.03253 0.41485 0.14754 0.0
H825 H 0.98091 0.41294 0.14316 0.0
H826 H 0.98882 0.43106 0.18682 0.0
H827 H 0.99299 0.41718 0.24152 0.0
H828 H 0.99523 0.39918 0.27891 0.0
H829 H 0.05361 0.43382 0.28052 0.0
H830 H 0.05072 0.45301 0.24598 0.0
H831 H 0.0383 0.47917 0.19588 0.0
H832 H 0.02872 0.5022 0.19592 0.0
H833 H 0.98177 0.46602 0.24232 0.0
N834 N 0.02124 0.44593 0.2166 0.0
H835 H 0.99128 0.44317 0.2421 0.0
C836 C 0.98256 0.54832 0.18815 0.0
C837 C -0.00045 0.55994 0.17687 0.0
C838 C 0.00103 0.57071 0.15407 0.0
C839 C 0.98568 0.57061 0.14254 0.0
C840 C 0.96865 0.55855 0.15334 0.0
C841 C 0.96715 0.54749 0.17582 0.0
C842 C 0.98824 0.55302 0.23697 0.0
C843 C 0.97732 0.55959 0.24777 0.0
C844 C 0.98488 0.57573 0.26439 0.0
C845 C 0.00359 0.58556 0.27097 0.0
C846 C 0.0142 0.57795 0.26237 0.0
C847 C 0.0067 0.56204 0.2452 0.0
C848 C 0.98695 0.52582 0.21493 0.0
C849 C 0.99244 0.52023 0.19067 0.0
C850 C 0.99825 0.50743 0.19222 0.0
C851 C 0.99816 0.49935 0.21771 0.0
C852 C 0.99175 0.50401 0.24156 0.0
C853 C 0.98608 0.51695 0.24011 0.0
C854 C 0.0157 0.43456 0.19121 0.0
C855 C 0.02774 0.42973 0.1796 0.0
C856 C 0.02295 0.4186 0.15526 0.0
C857 C 0.00608 0.41239 0.14134 0.0
C858 C 0.99392 0.41715 0.15324 0.0
C859 C 0.99854 0.42783 0.17815 0.0
C860 C 0.02172 0.43673 0.24145 0.0
C861 C 0.00614 0.42147 0.25115 0.0
C862 C 0.00756 0.41084 0.27212 0.0
C863 C 0.02466 0.41454 0.28266 0.0
C864 C 0.04011 0.43043 0.27368 0.0
C865 C 0.03857 0.44146 0.25361 0.0
C866 C 0.01571 0.45951 0.21912 0.0
C867 C 0.02605 0.47633 0.20629 0.0
C868 C 0.0205 0.48937 0.20619 0.0
C869 C 0.00448 0.48586 0.21909 0.0
C870 C 0.99428 0.46916 0.23248 0.0
C871 C -0.00024 0.45604 0.23236 0.0
H872 H 0.59959 0.5416 0.23513 0.0
N873 N 0.56588 0.53162 0.24802 0.0
H874 H 0.61547 0.55766 0.1935 0.0
H875 H 0.54991 0.53541 0.19961 0.0
H876 H 0.5655 0.55095 0.15804 0.0
H877 H 0.55787 0.55898 0.23977 0.0
H878 H 0.57135 0.58806 0.26572 0.0
H879 H 0.58252 0.5389 0.29824 0.0
H880 H 0.59557 0.56794 0.32546 0.0
H881 H 0.55897 0.49773 0.2561 0.0
H882 H 0.53271 0.52925 0.2407 0.0
H883 H 0.52972 0.46945 0.25299 0.0
H884 H 0.50368 0.50117 0.2352 0.0
H885 H 0.43891 0.38545 0.19241 0.0
H886 H 0.42806 0.37783 0.14329 0.0
H887 H 0.43 0.42995 0.13741 0.0
H888 H 0.44117 0.43759 0.18638 0.0
H889 H 0.42111 0.42634 0.22436 0.0
H890 H 0.39685 0.41633 0.25733 0.0
H891 H 0.41509 0.38238 0.29691 0.0
H892 H 0.4398 0.39298 0.26409 0.0
H893 H 0.47951 0.42169 0.21216 0.0
H894 H 0.50826 0.45006 0.21997 0.0
H895 H 0.47996 0.47615 0.25476 0.0
N896 N 0.4466 0.4156 0.22214 0.0
H897 H 0.45137 0.4483 0.2448 0.0
C898 C 0.57361 0.5373 0.22081 0.0
C899 C 0.592 0.54315 0.218 0.0
C900 C 0.60102 0.55229 0.19417 0.0
C901 C 0.59176 0.55576 0.17261 0.0
C902 C 0.57306 0.54874 0.17451 0.0
C903 C 0.56406 0.53966 0.19836 0.0
C904 C 0.5694 0.54676 0.26685 0.0
C905 C 0.5656 0.56053 0.25886 0.0
C906 C 0.57334 0.57727 0.27394 0.0
C907 C 0.58489 0.58057 0.29751 0.0
C908 C 0.58713 0.56607 0.30703 0.0
C909 C 0.57952 0.54938 0.29172 0.0
C910 C 0.54814 0.51556 0.24827 0.0
C911 C 0.54686 0.4985 0.25197 0.0
C912 C 0.53012 0.48234 0.2498 0.0
C913 C 0.51422 0.48285 0.24325 0.0
C914 C 0.51549 0.5001 0.24049 0.0
C915 C 0.53223 0.51629 0.24335 0.0
C916 C 0.4407 0.41194 0.19303 0.0
C917 C 0.43707 0.39522 0.18041 0.0
C918 C 0.43095 0.39095 0.15242 0.0
C919 C 0.42817 0.4033 0.13661 0.0
C920 C 0.43187 0.42012 0.14923 0.0
C921 C 0.43824 0.42449 0.17716 0.0
C922 C 0.43232 0.41035 0.24175 0.0
C923 C 0.41997 0.41678 0.2401 0.0
C924 C 0.406 0.41097 0.25896 0.0
C925 C 0.40395 0.39848 0.27972 0.0
C926 C 0.41641 0.3922 0.28144 0.0
C927 C 0.43046 0.39813 0.26265 0.0
C928 C 0.46324 0.43263 0.22808 0.0
C929 C 0.47958 0.43358 0.22145 0.0
C930 C 0.49603 0.44981 0.22625 0.0
C931 C 0.49659 0.4655 0.23836 0.0
C932 C 0.48015 0.46451 0.24509 0.0
C933 C 0.46365 0.44836 0.23966 0.0
H934 H 0.53674 0.95546 0.18776 0.0
N935 N 0.53359 0.97961 0.22019 0.0
H936 H 0.55165 0.96067 0.14312 0.0
H937 H 0.54823 0.01152 0.1914 0.0
H938 H 0.56227 0.01668 0.14583 0.0
H939 H 0.56664 0.00972 0.23368 0.0
H940 H 0.58974 0.01055 0.26592 0.0
H941 H 0.52955 0.95406 0.25583 0.0
H942 H 0.5525 0.95483 0.28837 0.0
H943 H 0.50289 0.9696 0.19196 0.0
H944 H 0.53731 0.00636 0.25917 0.0
H945 H 0.48334 0.98268 0.19516 0.0
H946 H 0.51689 0.01831 0.26442 0.0
H947 H 0.41781 0.00953 0.21295 0.0
H948 H 0.40499 0.00777 0.16647 0.0
H949 H 0.45662 0.05204 0.14115 0.0
H950 H 0.46892 0.05468 0.18875 0.0
H951 H 0.44486 0.05796 0.25569 0.0
H952 H 0.42218 0.05217 0.29087 0.0
H953 H 0.41098 0.99627 0.29592 0.0
H954 H 0.43291 0.00181 0.26087 0.0
H955 H 0.44269 0.99853 0.21672 0.0
H956 H 0.46167 0.98471 0.21799 0.0
H957 H 0.50727 0.03699 0.24631 0.0
N958 N 0.45261 0.03394 0.23204 0.0
H959 H 0.48741 0.05006 0.2478 0.0
C960 C 0.5413 0.98298 0.19279 0.0
C961 C 0.54217 0.96879 0.17852 0.0
C962 C 0.55055 0.9718 0.15283 0.0
C963 C 0.55808 0.9891 0.14059 0.0
C964 C 0.55681 0.00325 0.15468 0.0
C965 C 0.54866 0.00029 0.18066 0.0
C966 C 0.54636 0.98171 0.24228 0.0
C967 C 0.56338 0.99777 0.24579 0.0
C968 C 0.5766 0.9982 0.2641 0.0
C969 C 0.57298 0.9827 0.27946 0.0
C970 C 0.55565 0.96703 0.27696 0.0
C971 C 0.54252 0.96656 0.25846 0.0
C972 C 0.52168 0.98692 0.22502 0.0
C973 C 0.50602 0.98026 0.20782 0.0
C974 C 0.4947 0.98768 0.20996 0.0
C975 C 0.49832 0.00161 0.23021 0.0
C976 C 0.51376 0.00792 0.24813 0.0
C977 C 0.52545 0.00086 0.24535 0.0
C978 C 0.44436 0.03257 0.20464 0.0
C979 C 0.42633 0.01913 0.19767 0.0
C980 C 0.41905 0.01794 0.17072 0.0
C981 C 0.42971 0.02972 0.14972 0.0
C982 C 0.44779 0.04298 0.15674 0.0
C983 C 0.45494 0.04445 0.18391 0.0
C984 C 0.4408 0.0305 0.25534 0.0
C985 C 0.43767 0.04455 0.26472 0.0
C986 C 0.42474 0.04122 0.28483 0.0
C987 C 0.41465 0.02369 0.29592 0.0
C988 C 0.41828 0.00983 0.28737 0.0
C989 C 0.4311 0.01312 0.26728 0.0
C990 C 0.46357 0.02529 0.23281 0.0
C991 C 0.45667 0.0069 0.22385 0.0
C992 C 0.46773 0.99909 0.22412 0.0
C993 C 0.48622 0.00967 0.23203 0.0
C994 C 0.49309 0.02817 0.24068 0.0
C995 C 0.48181 0.03578 0.24131 0.0
H996 H 0.39719 0.94196 0.82108 0.0
N997 N 0.42586 0.96278 0.7913 0.0
H998 H 0.39065 0.94865 0.86816 0.0
H999 H 0.4491 0.99171 0.82662 0.0
H1000 H 0.44291 0.99822 0.8737 0.0
H1001 H 0.43611 0.99915 0.78625 0.0
H1002 H 0.4217 0.01131 0.75545 0.0
H1003 H 0.40095 0.94469 0.75102 0.0
H1004 H 0.38639 0.95674 0.72011 0.0
H1005 H 0.42858 0.93287 0.78767 0.0
H1006 H 0.45971 0.99166 0.78172 0.0
H1007 H 0.45602 0.93097 0.78317 0.0
H1008 H 0.4874 0.99019 0.77946 0.0
H1009 H 0.54835 0.93369 0.81137 0.0
H1010 H 0.56206 0.93687 0.85834 0.0
H1011 H 0.56198 0.98767 0.87284 0.0
H1012 H 0.54805 0.98424 0.82603 0.0
H1013 H 0.56457 0.9932 0.78419 0.0
H1014 H 0.58846 0.00725 0.75049 0.0
H1015 H 0.56972 0.95402 0.71017 0.0
H1016 H 0.54554 0.94012 0.74382 0.0
H1017 H 0.50874 0.93503 0.81169 0.0
H1018 H 0.48112 0.93668 0.81045 0.0
H1019 H 0.50576 0.98215 0.75467 0.0
N1020 N 0.5397 0.95655 0.78715 0.0
H1021 H 0.53356 0.98125 0.75739 0.0
C1022 C 0.42352 0.96626 0.8202 0.0
C1023 C 0.40731 0.9541 0.8327 0.0
C1024 C 0.40369 0.9579 0.85966 0.0
C1025 C 0.41628 0.974 0.87467 0.0
C1026 C 0.43287 0.9858 0.86256 0.0
C1027 C 0.43645 0.98201 0.83557 0.0
C1028 C 0.41954 0.97091 0.77094 0.0
C1029 C 0.42549 0.98983 0.77162 0.0
C1030 C 0.41713 0.99676 0.75413 0.0
C1031 C 0.4028 0.98497 0.73551 0.0
C1032 C 0.39747 0.96622 0.73405 0.0
C1033 C 0.40575 0.9593 0.75165 0.0
C1034 C 0.4421 0.96233 0.78548 0.0
C1035 C 0.44139 0.94536 0.78536 0.0
C1036 C 0.45715 0.94437 0.78317 0.0
C1037 C 0.47409 0.96046 0.78159 0.0
C1038 C 0.47466 0.97747 0.7805 0.0
C1039 C 0.45879 0.97838 0.7821 0.0
C1040 C 0.54728 0.95871 0.81522 0.0
C1041 C 0.55124 0.94544 0.8248 0.0
C1042 C 0.55901 0.94726 0.85156 0.0
C1043 C 0.56313 0.96255 0.86916 0.0
C1044 C 0.55914 0.97587 0.85956 0.0
C1045 C 0.55118 0.97392 0.83288 0.0
C1046 C 0.55327 0.96552 0.76652 0.0
C1047 C 0.56556 0.98454 0.76811 0.0
C1048 C 0.57926 0.99257 0.74882 0.0
C1049 C 0.58107 0.98175 0.7277 0.0
C1050 C 0.56857 0.96279 0.72591 0.0
C1051 C 0.55481 0.9548 0.74515 0.0
C1052 C 0.52353 0.95806 0.78513 0.0
C1053 C 0.50824 0.94546 0.79936 0.0
C1054 C 0.49233 0.94629 0.7983 0.0
C1055 C 0.49107 0.95952 0.78232 0.0
C1056 C 0.50627 0.97198 0.76763 0.0
C1057 C 0.52233 0.97138 0.76912 0.0
H1058 H 0.98987 0.56528 0.84716 0.0
N1059 N 0.01605 0.58053 0.80781 0.0
H1060 H 0.98987 0.57918 0.8926 0.0
H1061 H 0.04257 0.6113 0.83182 0.0
H1062 H 0.0427 0.62525 0.87754 0.0
H1063 H 0.03192 0.59791 0.76149 0.0
H1064 H 0.02102 0.61247 0.72818 0.0
H1065 H 0.98306 0.57875 0.80754 0.0
H1066 H 0.9724 0.59326 0.77524 0.0
H1067 H 0.98216 0.55089 0.79411 0.0
H1068 H 0.03726 0.56635 0.8167 0.0
H1069 H 0.97391 0.5189 0.79181 0.0
H1070 H 0.0288 0.53394 0.81582 0.0
H1071 H 0.95651 0.42275 0.8429 0.0
H1072 H 0.96346 0.40937 0.88261 0.0
H1073 H 0.02059 0.44712 0.87313 0.0
H1074 H 0.01331 0.4596 0.83219 0.0
H1075 H 0.00702 0.44701 0.78079 0.0
H1076 H 0.00372 0.42351 0.74704 0.0
H1077 H 0.94549 0.39699 0.753 0.0
H1078 H 0.94913 0.4218 0.78413 0.0
H1079 H 0.9603 0.46278 0.82322 0.0
H1080 H 0.96907 0.49518 0.82207 0.0
H1081 H 0.01998 0.50738 0.78661 0.0
N1082 N 0.97956 0.44743 0.80891 0.0
H1083 H 0.0114 0.47519 0.78919 0.0
C1084 C 0.01631 0.5873 0.836 0.0
C1085 C 0.00154 0.57828 0.85365 0.0
C1086 C 0.00147 0.5863 0.87956 0.0
C1087 C 0.01622 0.60335 0.88851 0.0
C1088 C 0.03119 0.61206 0.87125 0.0
C1089 C 0.03116 0.60412 0.84521 0.0
C1090 C 0.00843 0.58727 0.78705 0.0
C1091 C 0.01878 0.59662 0.76417 0.0
C1092 C 0.01256 0.60495 0.74528 0.0
C1093 C 0.99579 0.60395 0.74895 0.0
C1094 C 0.9852 0.59401 0.77136 0.0
C1095 C 0.99142 0.58581 0.79017 0.0
C1096 C 0.01054 0.56126 0.80534 0.0
C1097 C 0.99259 0.54754 0.79852 0.0
C1098 C 0.98778 0.52905 0.7975 0.0
C1099 C 0.00065 0.52374 0.80373 0.0
C1100 C 0.01858 0.53748 0.81044 0.0
C1101 C 0.02343 0.55601 0.81114 0.0
C1102 C 0.98432 0.44214 0.83475 0.0
C1103 C 0.9705 0.4283 0.84978 0.0
C1104 C 0.97456 0.42078 0.87265 0.0
C1105 C 0.99265 0.42713 0.88131 0.0
C1106 C 0.00652 0.44166 0.86688 0.0
C1107 C 0.0024 0.44899 0.84363 0.0
C1108 C 0.97825 0.43637 0.78462 0.0
C1109 C 0.99355 0.43677 0.77354 0.0
C1110 C 0.99159 0.4229 0.75468 0.0
C1111 C 0.97432 0.40784 0.74754 0.0
C1112 C 0.95906 0.40826 0.75735 0.0
C1113 C 0.96106 0.42246 0.77541 0.0
C1114 C 0.98501 0.46647 0.80604 0.0
C1115 C 0.97329 0.47249 0.81504 0.0
C1116 C 0.97831 0.491 0.81419 0.0
C1117 C 0.99522 0.50395 0.80406 0.0
C1118 C 0.00694 0.49785 0.79481 0.0
C1119 C 0.00194 0.4793 0.79595 0.0
H1120 H 0.45328 0.43331 0.8123 0.0
N1121 N 0.45881 0.46561 0.78978 0.0
H1122 H 0.43827 0.42002 0.85481 0.0
H1123 H 0.44617 0.48004 0.82719 0.0
H1124 H 0.4316 0.46697 0.87144 0.0
H1125 H 0.43241 0.4626 0.75574 0.0
H1126 H 0.4136 0.43714 0.72302 0.0
H1127 H 0.46771 0.44048 0.76898 0.0
H1128 H 0.44803 0.41396 0.73955 0.0
H1129 H 0.48395 0.45725 0.81103 0.0
H1130 H 0.47763 0.49978 0.77262 0.0
H1131 H 0.51602 0.47841 0.81878 0.0
H1132 H 0.51018 0.52108 0.77931 0.0
H1133 H 0.61957 0.58592 0.84411 0.0
H1134 H 0.62646 0.602 0.889 0.0
H1135 H 0.57943 0.55642 0.92331 0.0
H1136 H 0.57204 0.54017 0.87796 0.0
H1137 H 0.58871 0.57977 0.80539 0.0
H1138 H 0.60654 0.59776 0.76635 0.0
H1139 H 0.63209 0.5646 0.76174 0.0
H1140 H 0.61405 0.54656 0.80066 0.0
H1141 H 0.57599 0.51681 0.81174 0.0
H1142 H 0.5444 0.49547 0.79778 0.0
H1143 H 0.5311 0.53767 0.81733 0.0
N1144 N 0.59056 0.55153 0.82976 0.0
H1145 H 0.56279 0.559 0.83023 0.0
C1146 C 0.45068 0.45772 0.81602 0.0
C1147 C 0.44863 0.4409 0.8247 0.0
C1148 C 0.4402 0.43334 0.84957 0.0
C1149 C 0.4338 0.44245 0.86682 0.0
C1150 C 0.43621 0.45948 0.85854 0.0
C1151 C 0.44457 0.46701 0.83336 0.0
C1152 C 0.45107 0.45317 0.76566 0.0
C1153 C 0.43619 0.45231 0.75133 0.0
C1154 C 0.42525 0.43748 0.73302 0.0
C1155 C 0.42854 0.42273 0.72952 0.0
C1156 C 0.44469 0.42473 0.74156 0.0
C1157 C 0.45602 0.43997 0.75892 0.0
C1158 C 0.47825 0.47698 0.79137 0.0
C1159 C 0.48946 0.47105 0.80375 0.0
C1160 C 0.50795 0.48322 0.80805 0.0
C1161 C 0.51572 0.50153 0.79987 0.0
C1162 C 0.50461 0.50718 0.78638 0.0
C1163 C 0.48606 0.49501 0.78226 0.0
C1164 C 0.59438 0.562 0.85629 0.0
C1165 C 0.61017 0.57936 0.86064 0.0
C1166 C 0.61441 0.58859 0.88674 0.0
C1167 C 0.60338 0.58061 0.90965 0.0
C1168 C 0.58794 0.56317 0.90584 0.0
C1169 C 0.58367 0.55388 0.8797 0.0
C1170 C 0.60016 0.56184 0.8059 0.0
C1171 C 0.59794 0.57621 0.79569 0.0
C1172 C 0.60824 0.58657 0.77356 0.0
C1173 C 0.62071 0.58259 0.76107 0.0
C1174 C 0.62245 0.56786 0.77078 0.0
C1175 C 0.61227 0.55762 0.79304 0.0
C1176 C 0.5717 0.53934 0.8223 0.0
C1177 C 0.5662 0.52138 0.81295 0.0
C1178 C 0.54815 0.50923 0.80508 0.0
C1179 C 0.53515 0.5148 0.80654 0.0
C1180 C 0.54076 0.53297 0.81553 0.0
C1181 C 0.55887 0.54517 0.82313 0.0
H1182 H 0.66814 0.90495 0.54675 0.0
N1183 N 0.6389 0.87256 0.56169 0.0
H1184 H 0.67156 0.92052 0.50314 0.0
H1185 H 0.61642 0.86043 0.51668 0.0
H1186 H 0.62011 0.87561 0.47194 0.0
H1187 H 0.62094 0.88938 0.5766 0.0
H1188 H 0.63211 0.91684 0.60655 0.0
H1189 H 0.66723 0.88463 0.60197 0.0
H1190 H 0.67802 0.91155 0.6325 0.0
H1191 H 0.67351 0.87955 0.55398 0.0
H1192 H 0.61911 0.83661 0.56869 0.0
H1193 H 0.68337 0.85711 0.55089 0.0
H1194 H 0.6286 0.81368 0.56386 0.0
H1195 H 0.70534 0.78244 0.50676 0.0
H1196 H 0.69912 0.76384 0.46353 0.0
H1197 H 0.64176 0.73832 0.47704 0.0
H1198 H 0.64823 0.75736 0.52018 0.0
H1199 H 0.6554 0.75187 0.56854 0.0
H1200 H 0.66012 0.73458 0.60468 0.0
H1201 H 0.71793 0.77201 0.60244 0.0
H1202 H 0.71262 0.79021 0.56878 0.0
H1203 H 0.69247 0.81254 0.51574 0.0
H1204 H 0.68182 0.83442 0.52063 0.0
H1205 H 0.64492 0.80089 0.5836 0.0
N1206 N 0.68171 0.7817 0.54256 0.0
H1207 H 0.65475 0.77864 0.57722 0.0
C1208 C 0.64182 0.88155 0.53517 0.0
C1209 C 0.65759 0.89837 0.53056 0.0
C1210 C 0.65962 0.9072 0.50534 0.0
C1211 C 0.64612 0.89935 0.48385 0.0
C1212 C 0.63066 0.88222 0.48815 0.0
C1213 C 0.62854 0.87346 0.5136 0.0
C1214 C 0.64342 0.88515 0.58574 0.0
C1215 C 0.63317 0.89385 0.58931 0.0
C1216 C 0.63959 0.90958 0.60664 0.0
C1217 C 0.65631 0.91681 0.6214 0.0
C1218 C 0.66543 0.90677 0.62062 0.0
C1219 C 0.65916 0.89119 0.6029 0.0
C1220 C 0.64553 0.85977 0.56204 0.0
C1221 C 0.66365 0.86525 0.55664 0.0
C1222 C 0.66924 0.8523 0.5545 0.0
C1223 C 0.65678 0.83347 0.55682 0.0
C1224 C 0.63868 0.82805 0.56238 0.0
C1225 C 0.63318 0.8411 0.56508 0.0
C1226 C 0.67729 0.77127 0.51648 0.0
C1227 C 0.69144 0.77291 0.5002 0.0
C1228 C 0.68785 0.76215 0.47572 0.0
C1229 C 0.66995 0.74945 0.46699 0.0
C1230 C 0.65569 0.74803 0.48314 0.0
C1231 C 0.65933 0.75883 0.50778 0.0
C1232 C 0.6837 0.77259 0.56644 0.0
C1233 C 0.66899 0.75678 0.57683 0.0
C1234 C 0.6718 0.74666 0.59718 0.0
C1235 C 0.68947 0.75156 0.60651 0.0
C1236 C 0.70406 0.7678 0.59658 0.0
C1237 C 0.70113 0.77825 0.57702 0.0
C1238 C 0.67464 0.79398 0.54612 0.0
C1239 C 0.68199 0.80989 0.53045 0.0
C1240 C 0.676 0.82248 0.53354 0.0
C1241 C 0.66265 0.81963 0.55286 0.0
C1242 C 0.65509 0.80351 0.56833 0.0
C1243 C 0.66088 0.79073 0.56482 0.0
H1244 H 0.2678 0.87694 0.5576 0.0
N1245 N 0.23399 0.86462 0.57311 0.0
H1246 H 0.28234 0.89542 0.51698 0.0
H1247 H 0.21661 0.87027 0.52881 0.0
H1248 H 0.23098 0.88856 0.4881 0.0
H1249 H 0.22151 0.88898 0.57152 0.0
H1250 H 0.23483 0.91806 0.59741 0.0
H1251 H 0.25419 0.87313 0.62027 0.0
H1252 H 0.26687 0.90193 0.64796 0.0
H1253 H 0.22657 0.833 0.54854 0.0
H1254 H 0.20103 0.85878 0.59285 0.0
H1255 H 0.19723 0.8057 0.5396 0.0
H1256 H 0.17191 0.83119 0.58551 0.0
H1257 H 0.09493 0.71787 0.51369 0.0
H1258 H 0.0813 0.70858 0.46615 0.0
H1259 H 0.10211 0.76543 0.447 0.0
H1260 H 0.11515 0.77468 0.49449 0.0
H1261 H 0.08769 0.7624 0.53698 0.0
H1262 H 0.06427 0.75447 0.57162 0.0
H1263 H 0.08438 0.72386 0.61664 0.0
H1264 H 0.10781 0.73203 0.58207 0.0
H1265 H 0.14436 0.75299 0.54596 0.0
H1266 H 0.17363 0.78 0.55807 0.0
H1267 H 0.14923 0.81423 0.55176 0.0
N1268 N 0.11295 0.75149 0.53665 0.0
H1269 H 0.1199 0.78695 0.54172 0.0
C1270 C 0.24122 0.87232 0.54638 0.0
C1271 C 0.25963 0.87904 0.54208 0.0
C1272 C 0.26788 0.88954 0.51885 0.0
C1273 C 0.25781 0.89356 0.49951 0.0
C1274 C 0.23911 0.88587 0.50287 0.0
C1275 C 0.23087 0.87533 0.52606 0.0
C1276 C 0.23709 0.87891 0.5936 0.0
C1277 C 0.23109 0.89146 0.58855 0.0
C1278 C 0.2387 0.90818 0.60369 0.0
C1279 C 0.25232 0.91268 0.62453 0.0
C1280 C 0.25684 0.89923 0.63153 0.0
C1281 C 0.24939 0.8826 0.61604 0.0
C1282 C 0.21628 0.84822 0.57093 0.0
C1283 C 0.21467 0.83269 0.5567 0.0
C1284 C 0.19783 0.81698 0.55181 0.0
C1285 C 0.18203 0.81613 0.5617 0.0
C1286 C 0.18366 0.83144 0.57692 0.0
C1287 C 0.20053 0.84735 0.58134 0.0
C1288 C 0.10624 0.74692 0.50784 0.0
C1289 C 0.09663 0.72833 0.49918 0.0
C1290 C 0.0888 0.72305 0.47217 0.0
C1291 C 0.09073 0.73632 0.45304 0.0
C1292 C 0.10059 0.75497 0.46138 0.0
C1293 C 0.10809 0.76025 0.48865 0.0
C1294 C 0.09941 0.74769 0.55704 0.0
C1295 C 0.08709 0.75409 0.55442 0.0
C1296 C 0.07368 0.74947 0.57412 0.0
C1297 C 0.07249 0.73854 0.59685 0.0
C1298 C 0.08508 0.73249 0.59959 0.0
C1299 C 0.09839 0.73704 0.57984 0.0
C1300 C 0.13007 0.76796 0.54241 0.0
C1301 C 0.14543 0.76637 0.54716 0.0
C1302 C 0.16217 0.78188 0.55394 0.0
C1303 C 0.16398 0.79947 0.55567 0.0
C1304 C 0.14843 0.80098 0.55103 0.0
C1305 C 0.13162 0.78537 0.54484 0.0
H1306 H 0.23322 0.3422 0.55116 0.0
N1307 N 0.23057 0.37057 0.57549 0.0
H1308 H 0.24279 0.34073 0.50432 0.0
H1309 H 0.23938 0.39539 0.53591 0.0
H1310 H 0.24886 0.39385 0.48802 0.0
H1311 H 0.26301 0.39441 0.59743 0.0
H1312 H 0.28299 0.38776 0.62622 0.0
H1313 H 0.22079 0.33775 0.60099 0.0
H1314 H 0.24056 0.33114 0.62952 0.0
H1315 H 0.20338 0.33566 0.56003 0.0
H1316 H 0.21406 0.38741 0.5973 0.0
H1317 H 0.17116 0.32412 0.5614 0.0
H1318 H 0.18137 0.37568 0.5991 0.0
H1319 H 0.08769 0.34469 0.54583 0.0
H1320 H 0.07967 0.34849 0.49787 0.0
H1321 H 0.09091 0.30667 0.46774 0.0
H1322 H 0.09817 0.30223 0.51608 0.0
H1323 H 0.10337 0.34885 0.59717 0.0
H1324 H 0.08274 0.34903 0.63184 0.0
H1325 H 0.04517 0.29183 0.61139 0.0
H1326 H 0.06594 0.29174 0.57678 0.0
H1327 H 0.11364 0.30254 0.58437 0.0
H1328 H 0.14614 0.31485 0.5927 0.0
H1329 H 0.15655 0.36766 0.56438 0.0
N1330 N 0.09745 0.31963 0.56272 0.0
H1331 H 0.12403 0.35531 0.55675 0.0
C1332 C 0.23564 0.36903 0.54725 0.0
C1333 C 0.23645 0.35354 0.53768 0.0
C1334 C 0.24178 0.35262 0.51059 0.0
C1335 C 0.24641 0.36709 0.49228 0.0
C1336 C 0.24541 0.3825 0.50167 0.0
C1337 C 0.23999 0.38339 0.52892 0.0
C1338 C 0.24039 0.36672 0.59682 0.0
C1339 C 0.25789 0.38068 0.60499 0.0
C1340 C 0.26929 0.37684 0.62136 0.0
C1341 C 0.26341 0.35886 0.62977 0.0
C1342 C 0.24556 0.34506 0.62292 0.0
C1343 C 0.23414 0.34893 0.60672 0.0
C1344 C 0.21131 0.36254 0.57863 0.0
C1345 C 0.19888 0.34452 0.56895 0.0
C1346 C 0.18031 0.33783 0.56989 0.0
C1347 C 0.17368 0.34897 0.58039 0.0
C1348 C 0.18607 0.36682 0.59068 0.0
C1349 C 0.20471 0.37349 0.58985 0.0
C1350 C 0.09319 0.32282 0.53466 0.0
C1351 C 0.08827 0.33616 0.5291 0.0
C1352 C 0.08376 0.33841 0.50169 0.0
C1353 C 0.08466 0.32782 0.47936 0.0
C1354 C 0.09015 0.31497 0.48473 0.0
C1355 C 0.09423 0.3124 0.5122 0.0
C1356 C 0.08621 0.32014 0.58449 0.0
C1357 C 0.09084 0.33628 0.60038 0.0
C1358 C 0.07904 0.33638 0.62021 0.0
C1359 C 0.06233 0.32047 0.62422 0.0
C1360 C 0.05786 0.30435 0.60852 0.0
C1361 C 0.06972 0.30423 0.58891 0.0
C1362 C 0.11648 0.32791 0.56975 0.0
C1363 C 0.12297 0.31683 0.58037 0.0
C1364 C 0.14151 0.32386 0.58496 0.0
C1365 C 0.15393 0.34218 0.57894 0.0
C1366 C 0.14733 0.35354 0.56944 0.0
C1367 C 0.12876 0.34647 0.56489 0.0
C1368 C 0.01077 0.3938 0.07036 0.0
C1369 C 0.9927 0.38132 0.06248 0.0
H1370 H 0.02909 0.41399 0.10031 0.0
C1371 C 0.97901 0.37871 0.0808 0.0
H1372 H 0.02157 0.39627 0.05641 0.0
C1373 C 0.98333 0.3884 0.10662 0.0
C1374 C 0.00142 0.40135 0.11436 0.0
H1375 H 0.96496 0.36907 0.07525 0.0
H1376 H 0.97242 0.38563 0.12046 0.0
C1377 C 0.01505 0.40388 0.09575 0.0
C1378 C 0.6273 0.58144 0.11886 0.0
C1379 C 0.62397 0.59578 0.11265 0.0
H1380 H 0.61956 0.55732 0.14246 0.0
C1381 C 0.60906 0.59586 0.1244 0.0
H1382 H 0.63867 0.58097 0.11008 0.0
C1383 C 0.59816 0.58235 0.14286 0.0
C1384 C 0.60193 0.56846 0.15008 0.0
H1385 H 0.60615 0.60673 0.12023 0.0
H1386 H 0.58729 0.58334 0.15251 0.0
C1387 C 0.61642 0.56794 0.13747 0.0
C1388 C 0.42089 0.04165 0.07653 0.0
C1389 C 0.40758 0.02442 0.06545 0.0
H1390 H 0.43773 0.05702 0.11202 0.0
C1391 C 0.4016 0.00899 0.0821 0.0
H1392 H 0.42564 0.0538 0.06421 0.0
C1393 C 0.4089 0.01068 0.10918 0.0
C1394 C 0.42207 0.02795 0.12062 0.0
H1395 H 0.3915 0.99549 0.07397 0.0
H1396 H 0.40435 0.99833 0.12092 0.0
C1397 C 0.4279 0.04343 0.10391 0.0
C1398 C 0.39361 0.97056 0.94354 0.0
C1399 C 0.3961 0.98833 0.94677 0.0
H1400 H 0.39832 0.95211 0.91833 0.0
C1401 C 0.40741 0.0019 0.92841 0.0
H1402 H 0.38505 0.95982 0.95746 0.0
C1403 C 0.41489 0.99745 0.90594 0.0
C1404 C 0.41124 0.97934 0.90138 0.0
H1405 H 0.40963 0.01573 0.93033 0.0
H1406 H 0.42254 0.00797 0.89113 0.0
C1407 C 0.40109 0.9661 0.92102 0.0
C1408 C 0.01411 0.40334 0.92005 0.0
C1409 C 0.00132 0.39403 0.94044 0.0
H1410 H 0.0212 0.42068 0.88488 0.0
C1411 C 0.98697 0.39746 0.94357 0.0
H1412 H 0.02527 0.40087 0.91719 0.0
C1413 C 0.98488 0.40924 0.92563 0.0
C1414 C 0.99682 0.41746 0.90362 0.0
H1415 H 0.97716 0.39077 0.95956 0.0
H1416 H 0.97354 0.41142 0.92851 0.0
C1417 C 0.01179 0.41479 0.90162 0.0
C1418 C 0.63143 0.608 0.974 0.0
C1419 C 0.61831 0.60809 0.99125 0.0
H1420 H 0.63698 0.59908 0.93507 0.0
C1421 C 0.60019 0.5992 0.9813 0.0
H1422 H 0.64552 0.61464 0.98095 0.0
C1423 C 0.59531 0.5903 0.95482 0.0
C1424 C 0.60845 0.59017 0.93768 0.0
H1425 H 0.58972 0.599 0.99401 0.0
H1426 H 0.58126 0.58365 0.94767 0.0
C1427 C 0.62656 0.59915 0.94757 0.0
C1428 C 0.03073 0.62781 0.95989 0.0
C1429 C 0.01531 0.62864 0.9675 0.0
H1430 H 0.04308 0.61917 0.92905 0.0
C1431 C 0.00026 0.6213 0.94869 0.0
H1432 H 0.04258 0.63336 0.97384 0.0
C1433 C 0.00053 0.61303 0.92309 0.0
C1434 C 0.01593 0.61214 0.91562 0.0
H1435 H 0.98815 0.62166 0.95391 0.0
H1436 H 0.98873 0.60745 0.90902 0.0
C1437 C 0.03106 0.61975 0.93419 0.0
C1438 C 0.41705 0.41102 0.92834 0.0
C1439 C 0.40087 0.41075 0.93387 0.0
H1440 H 0.44068 0.42198 0.90387 0.0
C1441 C 0.39686 0.42294 0.92004 0.0
H1442 H 0.42068 0.40207 0.93915 0.0
C1443 C 0.40809 0.43407 0.89923 0.0
C1444 C 0.42369 0.4334 0.89224 0.0
H1445 H 0.38442 0.42297 0.92393 0.0
H1446 H 0.40392 0.4423 0.88751 0.0
C1447 C 0.42846 0.42238 0.908 0.0
C1448 C 0.57241 0.9514 0.94206 0.0
C1449 C 0.58734 0.96821 0.95153 0.0
H1450 H 0.55309 0.93647 0.90863 0.0
C1451 C 0.59432 0.98312 0.93355 0.0
H1452 H 0.5667 0.93963 0.95534 0.0
C1453 C 0.58641 0.98132 0.90686 0.0
C1454 C 0.57151 0.96451 0.89747 0.0
H1455 H 0.60577 0.99628 0.94021 0.0
H1456 H 0.59206 0.99303 0.89345 0.0
C1457 C 0.56465 0.94955 0.91527 0.0
C1458 C 0.59585 0.01143 0.08913 0.0
C1459 C 0.59156 0.9966 0.07053 0.0
H1460 H 0.58889 0.02057 0.12646 0.0
C1461 C 0.57496 0.98032 0.07248 0.0
H1462 H 0.60868 0.02408 0.0881 0.0
C1463 C 0.56337 0.9784 0.094 0.0
C1464 C 0.56841 0.99256 0.11446 0.0
H1465 H 0.57123 0.96882 0.058 0.0
H1466 H 0.55083 0.96549 0.0953 0.0
C1467 C 0.58445 0.00938 0.11111 0.0
C1468 C 0.00395 0.61515 0.10384 0.0
C1469 C 0.99005 0.61094 0.0838 0.0
H1470 H 0.01328 0.60607 0.13839 0.0
C1471 C 0.97516 0.59301 0.08191 0.0
H1472 H 0.01554 0.62889 0.10602 0.0
C1473 C 0.97401 0.57968 0.10021 0.0
C1474 C 0.98761 0.58408 0.12105 0.0
H1475 H 0.96427 0.58934 0.06654 0.0
H1476 H 0.96234 0.566 0.09821 0.0
C1477 C 0.0027 0.60195 0.12234 0.0
C1478 C 0.39954 0.39516 0.07035 0.0
C1479 C 0.40708 0.38794 0.05156 0.0
H1480 H 0.40043 0.40582 0.11193 0.0
C1481 C 0.42189 0.38623 0.06083 0.0
H1482 H 0.38816 0.39672 0.06386 0.0
C1483 C 0.42879 0.39132 0.08839 0.0
C1484 C 0.4212 0.39846 0.10715 0.0
H1485 H 0.42801 0.38071 0.04693 0.0
H1486 H 0.44013 0.38974 0.09502 0.0
C1487 C 0.40661 0.40048 0.09781 0.0
C1488 C 0.67478 0.72041 0.40967 0.0
C1489 C 0.66138 0.71814 0.38979 0.0
H1490 H 0.68778 0.73179 0.44971 0.0
C1491 C 0.6501 0.72536 0.39628 0.0
H1492 H 0.68365 0.71495 0.40551 0.0
C1493 C 0.65255 0.73511 0.42163 0.0
C1494 C 0.66635 0.7379 0.44104 0.0
H1495 H 0.63961 0.72387 0.38151 0.0
H1496 H 0.64401 0.74098 0.42559 0.0
C1497 C 0.67723 0.73017 0.43496 0.0
C1498 C 0.2733 0.93584 0.45656 0.0
C1499 C 0.28775 0.93644 0.44213 0.0
H1500 H 0.25253 0.92182 0.48589 0.0
C1501 C 0.29136 0.92195 0.4449 0.0
H1502 H 0.27021 0.9468 0.45506 0.0
C1503 C 0.28119 0.90758 0.46271 0.0
C1504 C 0.26715 0.90736 0.4779 0.0
H1505 H 0.30239 0.92199 0.43401 0.0
H1506 H 0.28454 0.89683 0.46504 0.0
C1507 C 0.26308 0.92144 0.47417 0.0
C1508 C 0.0871 0.33734 0.40192 0.0
C1509 C 0.06918 0.33271 0.3952 0.0
H1510 H 0.10596 0.33906 0.434 0.0
C1511 C 0.0565 0.32674 0.41651 0.0
H1512 H 0.09713 0.34188 0.38588 0.0
C1513 C 0.06166 0.32554 0.44402 0.0
C1514 C 0.07947 0.32984 0.45054 0.0
H1515 H 0.04261 0.32315 0.41197 0.0
H1516 H 0.05168 0.32092 0.46014 0.0
C1517 C 0.09215 0.33569 0.42931 0.0
C1518 C 0.07719 0.32248 0.26008 0.0
C1519 C 0.06136 0.30742 0.26955 0.0
H1520 H 0.09719 0.3327 0.22879 0.0
C1521 C 0.05485 0.29012 0.25618 0.0
H1522 H 0.08271 0.33592 0.27016 0.0
C1523 C 0.063 0.28832 0.23207 0.0
C1524 C 0.07788 0.30378 0.22115 0.0
H1525 H 0.04266 0.27825 0.26301 0.0
H1526 H 0.05688 0.27512 0.22095 0.0
C1527 C 0.08542 0.32065 0.23623 0.0
C1528 C 0.67077 0.73184 0.2565 0.0
C1529 C 0.68544 0.73272 0.27176 0.0
H1530 H 0.66213 0.74325 0.22412 0.0
C1531 C 0.70293 0.74748 0.26771 0.0
H1532 H 0.65713 0.72064 0.25904 0.0
C1533 C 0.7058 0.76047 0.24762 0.0
C1534 C 0.69122 0.75902 0.23131 0.0
H1535 H 0.71452 0.74859 0.27922 0.0
H1536 H 0.71949 0.77135 0.24426 0.0
C1537 C 0.67363 0.74487 0.23654 0.0
C1538 C 0.25868 0.94775 0.31504 0.0
C1539 C 0.27563 0.95134 0.32583 0.0
H1540 H 0.23903 0.93621 0.28087 0.0
C1541 C 0.28592 0.94597 0.30971 0.0
H1542 H 0.25045 0.95175 0.32692 0.0
C1543 C 0.27929 0.93691 0.28368 0.0
C1544 C 0.26234 0.93324 0.27299 0.0
H1545 H 0.29901 0.94846 0.3174 0.0
H1546 H 0.28747 0.93283 0.27182 0.0
C1547 C 0.25217 0.93893 0.28871 0.0
C1548 C 0.67233 0.94991 0.27399 0.0
C1549 C 0.68347 0.95143 0.29721 0.0
H1550 H 0.66564 0.94245 0.23036 0.0
C1551 C 0.69673 0.94636 0.2936 0.0
H1552 H 0.66196 0.95364 0.27599 0.0
C1553 C 0.69887 0.94003 0.26746 0.0
C1554 C 0.68782 0.93861 0.24422 0.0
H1555 H 0.7056 0.94737 0.31095 0.0
H1556 H 0.70942 0.93656 0.26538 0.0
C1557 C 0.67451 0.94359 0.24779 0.0
C1558 C 0.05273 0.75334 0.25764 0.0
C1559 C 0.04682 0.73465 0.25253 0.0
H1560 H 0.06846 0.78076 0.24284 0.0
C1561 C 0.05094 0.72906 0.22721 0.0
H1562 H 0.04958 0.75791 0.27701 0.0
C1563 C 0.06112 0.74183 0.20759 0.0
C1564 C 0.06801 0.76069 0.21304 0.0
H1565 H 0.04616 0.71468 0.22239 0.0
H1566 H 0.06368 0.73683 0.1881 0.0
C1567 C 0.06342 0.76634 0.23807 0.0
C1568 C 0.27406 0.33827 0.27534 0.0
C1569 C 0.26211 0.33288 0.29763 0.0
H1570 H 0.27769 0.34385 0.23152 0.0
C1571 C 0.24414 0.3286 0.29236 0.0
H1572 H 0.28796 0.34159 0.27881 0.0
C1573 C 0.23841 0.33028 0.26545 0.0
C1574 C 0.25043 0.33578 0.24331 0.0
H1575 H 0.23469 0.32453 0.3092 0.0
H1576 H 0.22464 0.32737 0.26193 0.0
C1577 C 0.2682 0.33949 0.24834 0.0
C1578 C 0.27799 0.37975 0.43169 0.0
C1579 C 0.27149 0.3625 0.41818 0.0
H1580 H 0.2752 0.39473 0.46619 0.0
C1581 C 0.25499 0.34768 0.42617 0.0
H1582 H 0.2907 0.39141 0.42594 0.0
C1583 C 0.246 0.34962 0.44892 0.0
C1584 C 0.25347 0.36636 0.46438 0.0
H1585 H 0.24944 0.33433 0.41579 0.0
H1586 H 0.23369 0.33772 0.45534 0.0
C1587 C 0.26909 0.38165 0.45473 0.0
C1588 C 0.66695 0.93272 0.42513 0.0
C1589 C 0.65194 0.93332 0.41394 0.0
H1590 H 0.67683 0.92099 0.45507 0.0
C1591 C 0.63469 0.92114 0.42368 0.0
H1592 H 0.68038 0.9417 0.41778 0.0
C1593 C 0.63267 0.90952 0.4456 0.0
C1594 C 0.64784 0.90964 0.45794 0.0
H1595 H 0.62286 0.92133 0.41552 0.0
H1596 H 0.61932 0.90118 0.45379 0.0
C1597 C 0.66491 0.9209 0.44669 0.0
C1598 C 0.05542 0.71238 0.39449 0.0
C1599 C 0.06578 0.71902 0.37048 0.0
H1600 H 0.05533 0.71251 0.43947 0.0
C1601 C 0.0844 0.73169 0.37384 0.0
H1602 H 0.04107 0.70255 0.39259 0.0
C1603 C 0.09247 0.7376 0.40069 0.0
C1604 C 0.08215 0.73063 0.42461 0.0
H1605 H 0.09272 0.73709 0.35573 0.0
H1606 H 0.10684 0.74734 0.40279 0.0
C1607 C 0.06357 0.71799 0.42129 0.0
C1608 C 0.30085 0.05252 0.72508 0.0
C1609 C 0.31348 0.04661 0.72133 0.0
H1610 H 0.2893 0.06356 0.75343 0.0
C1611 C 0.32432 0.04743 0.74452 0.0
H1612 H 0.29225 0.05208 0.70774 0.0
C1613 C 0.32262 0.05406 0.77076 0.0
C1614 C 0.3101 0.06011 0.77438 0.0
H1615 H 0.3342 0.04303 0.74243 0.0
H1616 H 0.33132 0.05473 0.78813 0.0
C1617 C 0.29922 0.05922 0.75125 0.0
C1618 C 0.94393 0.24907 0.78118 0.0
C1619 C 0.9386 0.26127 0.77097 0.0
H1620 H 0.9393 0.22848 0.81078 0.0
C1621 C 0.92265 0.26011 0.78059 0.0
H1622 H 0.95619 0.24964 0.77418 0.0
C1623 C 0.91279 0.24777 0.80114 0.0
C1624 C 0.91883 0.23651 0.81296 0.0
H1625 H 0.91803 0.26912 0.77294 0.0
H1626 H 0.90074 0.2475 0.80844 0.0
C1627 C 0.93419 0.23687 0.8021 0.0
C1628 C 0.7629 0.70566 0.73502 0.0
C1629 C 0.74788 0.68859 0.72681 0.0
H1630 H 0.78095 0.72255 0.76867 0.0
C1631 C 0.73977 0.67505 0.74694 0.0
H1632 H 0.76942 0.7164 0.72007 0.0
C1633 C 0.74652 0.67854 0.7747 0.0
C1634 C 0.76129 0.69573 0.78295 0.0
H1635 H 0.72821 0.66175 0.74126 0.0
H1636 H 0.73995 0.66793 0.78986 0.0
C1637 C 0.76945 0.70923 0.76286 0.0
C1638 C 0.73347 0.63234 0.60388 0.0
C1639 C 0.7363 0.65021 0.60754 0.0
H1640 H 0.73724 0.61365 0.57764 0.0
C1641 C 0.74744 0.66374 0.58897 0.0
H1642 H 0.72503 0.62163 0.61793 0.0
C1643 C 0.75432 0.65915 0.56585 0.0
C1644 C 0.7502 0.64093 0.56084 0.0
H1645 H 0.74993 0.67766 0.59122 0.0
H1646 H 0.76182 0.66963 0.5509 0.0
C1647 C 0.74033 0.62773 0.5807 0.0
C1648 C 0.33166 0.06691 0.58977 0.0
C1649 C 0.34568 0.06919 0.60833 0.0
H1650 H 0.32371 0.07781 0.55574 0.0
C1651 C 0.36231 0.08572 0.60843 0.0
H1652 H 0.3187 0.05433 0.58907 0.0
C1653 C 0.36518 0.09925 0.58931 0.0
C1654 C 0.35146 0.09655 0.56974 0.0
H1655 H 0.37336 0.08795 0.62256 0.0
H1656 H 0.37831 0.11162 0.58935 0.0
C1657 C 0.33451 0.08044 0.57071 0.0
C1658 C 0.94078 0.28078 0.62813 0.0
C1659 C 0.92868 0.27485 0.65024 0.0
H1660 H 0.94493 0.27686 0.58494 0.0
C1661 C 0.91089 0.26036 0.64514 0.0
H1662 H 0.95455 0.29196 0.63143 0.0
C1663 C 0.90551 0.25153 0.61866 0.0
C1664 C 0.9177 0.25736 0.59672 0.0
H1665 H 0.90132 0.25547 0.66184 0.0
H1666 H 0.89189 0.24007 0.61534 0.0
C1667 C 0.93527 0.27223 0.60153 0.0
C1668 C 0.35098 0.27666 0.62812 0.0
C1669 C 0.34602 0.29018 0.6317 0.0
H1670 H 0.3554 0.25962 0.59913 0.0
C1671 C 0.34145 0.29679 0.60789 0.0
H1672 H 0.35449 0.27124 0.64608 0.0
C1673 C 0.3423 0.29035 0.58098 0.0
C1674 C 0.3473 0.27689 0.57752 0.0
H1675 H 0.33765 0.30725 0.61001 0.0
H1676 H 0.33899 0.29583 0.56288 0.0
C1677 C 0.35143 0.26995 0.60131 0.0
C1678 C 0.72048 0.08517 0.58694 0.0
C1679 C 0.71432 0.06629 0.58476 0.0
H1680 H 0.73638 0.11145 0.56894 0.0
C1681 C 0.71903 0.05926 0.5616 0.0
H1682 H 0.71698 0.09088 0.60468 0.0
C1683 C 0.72936 0.07074 0.54063 0.0
C1684 C 0.73595 0.08979 0.54268 0.0
H1685 H 0.71413 0.04467 0.5591 0.0
H1686 H 0.73174 0.06442 0.52248 0.0
C1687 C 0.73145 0.09688 0.56629 0.0
C1688 C 0.91321 0.64343 0.63001 0.0
C1689 C 0.92918 0.66042 0.63473 0.0
H1690 H 0.89255 0.62513 0.60026 0.0
C1691 C 0.93637 0.67231 0.61229 0.0
H1692 H 0.90734 0.63391 0.64681 0.0
C1693 C 0.92779 0.6673 0.58572 0.0
C1694 C 0.912 0.65021 0.58096 0.0
H1695 H 0.94863 0.68549 0.61523 0.0
H1696 H 0.93372 0.67665 0.56874 0.0
C1697 C 0.90478 0.63833 0.60335 0.0
C1698 C 0.95081 0.72261 0.75329 0.0
C1699 C 0.94669 0.70442 0.74778 0.0
H1700 H 0.94672 0.74094 0.78006 0.0
C1701 C 0.93354 0.69037 0.76361 0.0
H1702 H 0.96093 0.73376 0.74147 0.0
C1703 C 0.92547 0.69444 0.78555 0.0
C1704 C 0.93039 0.71271 0.79232 0.0
H1705 H 0.93 0.67623 0.76002 0.0
H1706 H 0.91616 0.68331 0.79825 0.0
C1707 C 0.9428 0.72674 0.7755 0.0
C1708 C 0.32939 0.26601 0.74982 0.0
C1709 C 0.31791 0.27342 0.74886 0.0
H1710 H 0.33564 0.24706 0.7689 0.0
C1711 C 0.30346 0.26704 0.76701 0.0
H1712 H 0.34053 0.27065 0.73573 0.0
C1713 C 0.30115 0.25427 0.78709 0.0
C1714 C 0.31285 0.24698 0.78886 0.0
H1715 H 0.29456 0.27275 0.76682 0.0
H1716 H 0.29064 0.25091 0.80196 0.0
C1717 C 0.32665 0.25263 0.76918 0.0
C1718 C 0.73989 0.05929 0.72129 0.0
C1719 C 0.72368 0.05698 0.70927 0.0
H1720 H 0.75898 0.07004 0.75624 0.0
C1721 C 0.71425 0.06408 0.72389 0.0
H1722 H 0.74747 0.05396 0.71059 0.0
C1723 C 0.72094 0.07342 0.74973 0.0
C1724 C 0.73709 0.07569 0.76177 0.0
H1725 H 0.70175 0.06262 0.71524 0.0
H1726 H 0.71333 0.07868 0.7605 0.0
C1727 C 0.74646 0.06843 0.74742 0.0
C1728 C 0.04675 0.3398 0.03077 0.0
C1729 C 0.03453 0.32815 0.0095 0.0
H1730 H 0.06752 0.34431 0.061 0.0
C1731 C 0.03458 0.31197 0.00174 0.0
H1732 H 0.04706 0.35236 0.03728 0.0
C1733 C 0.0464 0.30739 0.01528 0.0
C1734 C 0.05848 0.31893 0.03678 0.0
H1735 H 0.02537 0.30272 0.98538 0.0
H1736 H 0.04609 0.2948 0.00891 0.0
C1737 C 0.05859 0.33525 0.04423 0.0
C1738 C 0.63761 0.69501 0.06059 0.0
C1739 C 0.65008 0.68887 0.05763 0.0
H1740 H 0.63366 0.71795 0.06751 0.0
C1741 C 0.66853 0.70199 0.05602 0.0
H1742 H 0.62325 0.6853 0.06142 0.0
C1743 C 0.67455 0.72065 0.0602 0.0
C1744 C 0.66225 0.72677 0.06562 0.0
H1745 H 0.67856 0.69784 0.05346 0.0
H1746 H 0.689 0.73003 0.06121 0.0
C1747 C 0.64361 0.71377 0.06431 0.0
C1748 C 0.31165 0.96522 0.0594 0.0
C1749 C 0.31683 0.9559 0.04028 0.0
H1750 H 0.29483 0.96303 0.09358 0.0
C1751 C 0.30817 0.93665 0.04049 0.0
H1752 H 0.31803 0.98005 0.0597 0.0
C1753 C 0.29494 0.92695 0.05991 0.0
C1754 C 0.28999 0.93628 0.07935 0.0
H1755 H 0.31181 0.92906 0.02598 0.0
H1756 H 0.2886 0.91212 0.05978 0.0
C1757 C 0.29829 0.95549 0.07868 0.0
C1758 C 0.37243 0.07004 0.9755 0.0
C1759 C 0.36196 0.05168 0.98325 0.0
H1760 H 0.37257 0.0934 0.95828 0.0
C1761 C 0.34303 0.04361 0.98285 0.0
H1762 H 0.38706 0.07677 0.976 0.0
C1763 C 0.33473 0.05295 0.97205 0.0
C1764 C 0.34514 0.07073 0.96182 0.0
H1765 H 0.33452 0.02951 0.98874 0.0
H1766 H 0.32012 0.04559 0.96979 0.0
C1767 C 0.3641 0.07952 0.9651 0.0
C1768 C 0.92938 0.2916 0.98632 0.0
C1769 C 0.9476 0.29929 0.99522 0.0
H1770 H 0.90514 0.26768 0.97226 0.0
C1771 C 0.95418 0.28743 0.00183 0.0
H1772 H 0.92377 0.30026 0.98115 0.0
C1773 C 0.9432 0.2684 0.99738 0.0
C1774 C 0.9255 0.26086 0.98578 0.0
H1775 H 0.96807 0.29286 0.00913 0.0
H1776 H 0.94891 0.25974 0.0018 0.0
C1777 C 0.91855 0.2727 0.98144 0.0
C1778 C 0.71969 0.69039 0.01906 0.0
C1779 C 0.71028 0.67171 0.02533 0.0
H1780 H 0.73943 0.71118 0.99395 0.0
C1781 C 0.71494 0.65971 0.01199 0.0
H1782 H 0.71626 0.69994 0.02883 0.0
C1783 C 0.72862 0.66624 0.99246 0.0
C1784 C 0.73767 0.68485 0.98537 0.0
H1785 H 0.708 0.64526 0.01661 0.0
H1786 H 0.73201 0.65663 0.98287 0.0
C1787 C 0.73309 0.69685 0.99913 0.0
C1788 C 0.94904 0.66615 0.98542 0.0
C1789 C 0.9653 0.67912 0.99919 0.0
H1790 H 0.92553 0.6614 0.96151 0.0
C1791 C 0.97071 0.69782 0.9981 0.0
H1792 H 0.94448 0.65162 0.98614 0.0
C1793 C 0.96016 0.70349 0.98345 0.0
C1794 C 0.94364 0.6906 0.97001 0.0
H1795 H 0.98328 0.70815 0.00826 0.0
H1796 H 0.96519 0.71809 0.98237 0.0
C1797 C 0.93822 0.67181 0.97122 0.0
C1798 C 0.36785 0.30372 0.97709 0.0
C1799 C 0.3576 0.31255 0.97588 0.0
H1800 H 0.36828 0.27872 0.97077 0.0
C1801 C 0.3389 0.30197 0.97001 0.0
H1802 H 0.38226 0.31148 0.98199 0.0
C1803 C 0.33095 0.28328 0.96274 0.0
C1804 C 0.34148 0.27469 0.96169 0.0
H1805 H 0.33064 0.3084 0.96885 0.0
H1806 H 0.31683 0.27599 0.95599 0.0
C1807 C 0.35984 0.28495 0.97043 0.0
C1808 C 0.68314 0.06285 0.98536 0.0
C1809 C 0.67598 0.04374 0.98411 0.0
H1810 H 0.70243 0.08887 0.96947 0.0
C1811 C 0.68345 0.03625 0.96568 0.0
H1812 H 0.67774 0.06906 -0.00061 0.0
C1813 C 0.69763 0.04762 0.94865 0.0
C1814 C 0.70456 0.06668 0.94953 0.0
H1815 H 0.67827 0.02158 0.96427 0.0
H1816 H 0.70289 0.04142 0.93429 0.0
C1817 C 0.69724 0.0742 0.96817 0.0
C1818 C 0.65802 0.95671 0.0339 0.0
C1819 C 0.63907 0.94658 0.03074 0.0
H1820 H 0.68187 0.95733 0.04959 0.0
C1821 C 0.63008 0.92768 0.03572 0.0
H1822 H 0.66539 0.97129 0.03018 0.0
C1823 C 0.63962 0.91953 0.04644 0.0
C1824 C 0.65829 0.93017 0.05279 0.0
H1825 H 0.6155 0.91942 0.03303 0.0
H1826 H 0.63217 0.90513 0.05134 0.0
C1827 C 0.66752 0.94863 0.045 0.0
C1828 C 0.0655 0.71543 0.03228 0.0
C1829 C 0.047 0.70763 0.03726 0.0
H1830 H 0.09151 0.73965 0.03357 0.0
C1831 C 0.04031 0.71914 0.0455 0.0
H1832 H 0.07095 0.70685 0.0255 0.0
C1833 C 0.05214 0.73779 0.05144 0.0
C1834 C 0.07097 0.74555 0.04851 0.0
H1835 H 0.0261 0.71348 0.04963 0.0
H1836 H 0.04647 0.74565 0.06029 0.0
C1837 C 0.0773 0.73424 0.03728 0.0
C1838 C 0.31578 0.36394 0.04525 0.0
C1839 C 0.31097 0.35615 0.01789 0.0
H1840 H 0.30676 0.36897 0.08417 0.0
C1841 C 0.29268 0.34721 0.00892 0.0
H1842 H 0.32974 0.37087 0.05288 0.0
C1843 C 0.27948 0.3462 0.0269 0.0
C1844 C 0.28435 0.35418 0.05414 0.0
H1845 H 0.28854 0.34109 0.98796 0.0
H1846 H 0.26552 0.33944 0.01932 0.0
C1847 C 0.30262 0.36297 0.06314 0.0
C1848 C 0.71274 0.65189 0.33653 0.0
C1849 C 0.70849 0.66442 0.34928 0.0
H1850 H 0.72595 0.63607 0.34079 0.0
C1851 C 0.71481 0.67079 0.37695 0.0
H1852 H 0.70814 0.64674 0.3152 0.0
C1853 C 0.72503 0.66466 0.3916 0.0
C1854 C 0.72911 0.65198 0.37895 0.0
H1855 H 0.71178 0.68044 0.38739 0.0
H1856 H 0.72939 0.66955 0.41309 0.0
C1857 C 0.7229 0.64571 0.35122 0.0
C1858 C 0.30206 0.03708 0.41755 0.0
C1859 C 0.31067 0.0308 0.39931 0.0
H1860 H 0.30298 0.05993 0.439 0.0
C1861 C 0.32562 0.04371 0.3847 0.0
H1862 H 0.29053 0.02751 0.42922 0.0
C1863 C 0.33255 0.06253 0.38969 0.0
C1864 C 0.32494 0.06886 0.40993 0.0
H1865 H 0.33241 0.03928 0.37021 0.0
H1866 H 0.34433 0.07208 0.37851 0.0
C1867 C 0.3092 0.05583 0.42302 0.0
C1868 C 0.97618 0.28367 0.38244 0.0
C1869 C 0.98546 0.2753 0.37112 0.0
H1870 H 0.95579 0.28138 0.41016 0.0
C1871 C 0.98037 0.25731 0.37849 0.0
H1872 H 0.9798 0.29755 0.37723 0.0
C1873 C 0.96651 0.24799 0.39714 0.0
C1874 C 0.95746 0.25648 0.40896 0.0
H1875 H 0.98717 0.25043 0.36999 0.0
H1876 H 0.96286 0.2341 0.40229 0.0
C1877 C 0.96234 0.27437 0.4012 0.0
C1878 C 0.04649 0.39254 0.32515 0.0
C1879 C 0.03448 0.37386 0.31907 0.0
H1880 H 0.05222 0.42009 0.32063 0.0
C1881 C 0.01776 0.36859 0.30565 0.0
H1882 H 0.05941 0.39693 0.3358 0.0
C1883 C 0.014 0.38181 0.29552 0.0
C1884 C 0.02667 0.40069 0.29933 0.0
H1885 H 0.00827 0.35425 0.3005 0.0
H1886 H 0.00176 0.37697 0.28276 0.0
C1887 C 0.04244 0.40581 0.31597 0.0
C1888 C 0.62676 0.62483 0.32171 0.0
C1889 C 0.62079 0.6376 0.3195 0.0
H1890 H 0.62025 0.59696 0.3162 0.0
C1891 C 0.60224 0.63104 0.31445 0.0
H1892 H 0.64094 0.62935 0.32565 0.0
C1893 C 0.59021 0.61228 0.3095 0.0
C1894 C 0.59649 0.59967 0.30918 0.0
H1895 H 0.59712 0.64048 0.31302 0.0
H1896 H 0.57613 0.60777 0.30466 0.0
C1897 C 0.61479 0.60612 0.31646 0.0
C1898 C 0.3877 0.02747 0.35563 0.0
C1899 C 0.37136 0.01069 0.35238 0.0
H1900 H 0.41431 0.04472 0.34046 0.0
C1901 C 0.36931 0.99847 0.33023 0.0
H1902 H 0.38969 0.03719 0.37248 0.0
C1903 C 0.38332 0.00281 0.31192 0.0
C1904 C 0.39977 0.01946 0.31533 0.0
H1905 H 0.35686 0.98548 0.32697 0.0
H1906 H 0.38119 0.99315 0.29491 0.0
C1907 C 0.40177 0.03183 0.33724 0.0
C1908 C 0.618 0.98738 0.30225 0.0
C1909 C 0.61416 0.97967 0.32886 0.0
H1910 H 0.60798 0.99446 0.26581 0.0
C1911 C 0.59693 0.9737 0.33955 0.0
H1912 H 0.63115 0.99214 0.29344 0.0
C1913 C 0.58369 0.975 0.32375 0.0
C1914 C 0.58742 0.98245 0.29699 0.0
H1915 H 0.59351 0.96773 0.36002 0.0
H1916 H 0.57049 0.97012 0.33246 0.0
C1917 C 0.60478 0.98883 0.28652 0.0
C1918 C 0.03564 0.63678 0.27959 0.0
C1919 C 0.02558 0.64242 0.29572 0.0
H1920 H 0.03654 0.6147 0.25871 0.0
C1921 C 0.0095 0.62893 0.30736 0.0
H1922 H 0.04813 0.64674 0.27035 0.0
C1923 C 0.00296 0.61028 0.30114 0.0
C1924 C 0.01223 0.60474 0.28288 0.0
H1925 H 0.00155 0.63278 0.32025 0.0
H1926 H 0.99024 0.60028 0.30972 0.0
C1927 C 0.02901 0.61823 0.27307 0.0
C1928 C 0.3568 0.38085 0.30688 0.0
C1929 C 0.35911 0.37782 0.33515 0.0
H1930 H 0.36898 0.38935 0.26717 0.0
C1931 C 0.37637 0.38202 0.34528 0.0
H1932 H 0.34366 0.37766 0.29837 0.0
C1933 C 0.39097 0.38892 0.32742 0.0
C1934 C 0.38861 0.3917 0.29902 0.0
H1935 H 0.37862 0.37991 0.36699 0.0
H1936 H 0.40413 0.39216 0.33592 0.0
C1937 C 0.37136 0.38765 0.28901 0.0
C1938 C 0.28988 0.27792 0.38176 0.0
C1939 C 0.30129 0.29637 0.37515 0.0
H1940 H 0.28804 0.25318 0.3964 0.0
C1941 C 0.32004 0.3032 0.37477 0.0
H1942 H 0.27535 0.27213 0.38181 0.0
C1943 C 0.32733 0.29251 0.38378 0.0
C1944 C 0.31606 0.2746 0.39295 0.0
H1945 H 0.32927 0.31731 0.36964 0.0
H1946 H 0.34192 0.29893 0.38554 0.0
C1947 C 0.29718 0.26711 0.39037 0.0
C1948 C 0.73189 0.0362 0.38008 0.0
C1949 C 0.71451 0.02912 0.36768 0.0
H1950 H 0.75575 0.05967 0.39649 0.0
C1951 C 0.70925 0.04149 0.35794 0.0
H1952 H 0.73652 0.02714 0.38767 0.0
C1953 C 0.72061 0.06046 0.36249 0.0
C1954 C 0.73739 0.06743 0.3771 0.0
H1955 H 0.69605 0.03653 0.34796 0.0
H1956 H 0.7159 0.06957 0.35559 0.0
C1957 C 0.7431 0.05504 0.38488 0.0
C1958 C 0.96342 0.67547 0.36243 0.0
C1959 C 0.96909 0.6629 0.35546 0.0
H1960 H 0.94432 0.68024 0.38374 0.0
C1961 C 0.95996 0.64524 0.36622 0.0
H1962 H 0.97014 0.68913 0.35414 0.0
C1963 C 0.94549 0.64027 0.38387 0.0
C1964 C 0.93951 0.6527 0.3906 0.0
H1965 H 0.96417 0.63533 0.36133 0.0
H1966 H 0.93918 0.62672 0.39248 0.0
C1967 C 0.94866 0.67037 0.37954 0.0
C1968 C 0.37751 0.00973 0.71528 0.0
C1969 C 0.37218 0.00361 0.68723 0.0
H1970 H 0.39136 0.00864 0.75251 0.0
C1971 C 0.37753 0.99182 0.67493 0.0
H1972 H 0.37363 0.01883 0.72537 0.0
C1973 C 0.38771 0.98603 0.69043 0.0
C1974 C 0.39287 0.99196 0.71857 0.0
H1975 H 0.37373 0.9869 0.65333 0.0
H1976 H 0.39156 0.9769 0.68036 0.0
C1977 C 0.38778 0.004 0.73076 0.0
C1978 C 0.98185 0.36782 0.73148 0.0
C1979 C 0.96487 0.35468 0.72002 0.0
H1980 H 0.998 0.39454 0.75 0.0
C1981 C 0.95223 0.36009 0.71303 0.0
H1982 H 0.99182 0.36398 0.73726 0.0
C1983 C 0.95601 0.378 0.71934 0.0
C1984 C 0.97223 0.39067 0.73386 0.0
H1985 H 0.93909 0.35024 0.70385 0.0
H1986 H 0.94576 0.38153 0.71414 0.0
C1987 C 0.98541 0.38551 0.73868 0.0
C1988 C 0.64785 0.59724 0.69518 0.0
C1989 C 0.65727 0.61647 0.69879 0.0
H1990 H 0.62878 0.57145 0.71197 0.0
C1991 C 0.65377 0.62449 0.72221 0.0
H1992 H 0.65018 0.59063 0.67732 0.0
C1993 C 0.64148 0.61348 0.742 0.0
C1994 C 0.63252 0.59425 0.73885 0.0
H1995 H 0.66078 0.63926 0.72556 0.0
H1996 H 0.63944 0.62002 0.76026 0.0
C1997 C 0.63565 0.58624 0.71507 0.0
C1998 C 0.68651 0.7075 0.63096 0.0
C1999 C 0.70342 0.71426 0.64464 0.0
H2000 H 0.66908 0.71376 0.60729 0.0
C2001 C 0.71434 0.73322 0.64997 0.0
H2002 H 0.67794 0.69291 0.62636 0.0
C2003 C 0.70896 0.74532 0.63999 0.0
C2004 C 0.69294 0.73876 0.62337 0.0
H2005 H 0.7274 0.73871 0.66072 0.0
H2006 H 0.71789 0.75988 0.6441 0.0
C2007 C 0.68142 0.71959 0.62008 0.0
C2008 C 0.26675 0.96235 0.64348 0.0
C2009 C 0.28562 0.9703 0.64638 0.0
H2010 H 0.24127 0.93784 0.63582 0.0
C2011 C 0.29311 0.95876 0.64598 0.0
H2012 H 0.26053 0.97085 0.64412 0.0
C2013 C 0.28215 0.93989 0.64052 0.0
C2014 C 0.26334 0.93201 0.6358 0.0
H2015 H 0.30761 0.96442 0.64809 0.0
H2016 H 0.28867 0.93176 0.63827 0.0
C2017 C 0.25572 0.94341 0.63854 0.0
C2018 C 0.04251 0.32799 0.69038 0.0
C2019 C 0.02405 0.3196 0.6825 0.0
H2020 H 0.06914 0.33484 0.67807 0.0
C2021 C 0.01847 0.31213 0.65506 0.0
H2022 H 0.04724 0.33388 0.71135 0.0
C2023 C 0.03095 0.31261 0.63617 0.0
C2024 C 0.04933 0.32067 0.64417 0.0
H2025 H 0.00438 0.30562 0.64822 0.0
H2026 H 0.0262 0.30665 0.61523 0.0
C2027 C 0.05505 0.32859 0.67133 0.0
C2028 C 0.29982 0.36111 0.67948 0.0
C2029 C 0.30054 0.34542 0.67078 0.0
H2030 H 0.28745 0.37762 0.67345 0.0
C2031 C 0.28905 0.33431 0.64843 0.0
H2032 H 0.30848 0.36995 0.69665 0.0
C2033 C 0.27695 0.33864 0.63533 0.0
C2034 C 0.27614 0.35425 0.64413 0.0
H2035 H 0.28925 0.32212 0.64121 0.0
H2036 H 0.26834 0.32985 0.61806 0.0
C2037 C 0.2878 0.36553 0.66619 0.0
C2038 C 0.69194 0.96657 0.63513 0.0
C2039 C 0.68145 0.97426 0.6438 0.0
H2040 H 0.69227 0.94258 0.62101 0.0
C2041 C 0.66323 0.96239 0.64992 0.0
H2042 H 0.70606 0.97524 0.63044 0.0
C2043 C 0.65529 0.94343 0.64491 0.0
C2044 C 0.66538 0.93594 0.63352 0.0
H2045 H 0.65479 0.96781 0.65701 0.0
H2046 H 0.64103 0.93476 0.64862 0.0
C2047 C 0.684 0.94769 0.62992 0.0
C2048 C 0.02602 0.72023 0.62705 0.0
C2049 C 0.02973 0.71982 0.65581 0.0
H2050 H 0.03664 0.72642 0.58585 0.0
C2051 C 0.04771 0.72648 0.66516 0.0
H2052 H 0.01231 0.71522 0.61917 0.0
C2053 C 0.06163 0.73294 0.64609 0.0
C2054 C 0.05788 0.73293 0.61726 0.0
H2055 H 0.05105 0.72646 0.68719 0.0
H2056 H 0.07533 0.73785 0.65393 0.0
C2057 C 0.03997 0.72675 0.60798 0.0
C2058 C 0.96524 0.61898 0.71523 0.0
C2059 C 0.97734 0.63778 0.7121 0.0
H2060 H 0.96174 0.59327 0.72823 0.0
C2061 C 0.99599 0.64451 0.71594 0.0
H2062 H 0.95081 0.61336 0.71194 0.0
C2063 C 0.00224 0.63306 0.7258 0.0
C2064 C 0.98994 0.61467 0.73166 0.0
H2065 H 0.00562 0.65895 0.71367 0.0
H2066 H 0.01653 0.63902 0.73098 0.0
C2067 C 0.9715 0.60751 0.72468 0.0
C2068 C 0.3822 0.38106 0.71319 0.0
C2069 C 0.38669 0.36775 0.70522 0.0
H2070 H 0.39155 0.40837 0.72799 0.0
C2071 C 0.4049 0.37319 0.70116 0.0
H2072 H 0.36826 0.37725 0.71666 0.0
C2073 C 0.41846 0.39145 0.70655 0.0
C2074 C 0.41417 0.40453 0.71722 0.0
H2075 H 0.40869 0.3632 0.69464 0.0
H2076 H 0.43233 0.39502 0.70339 0.0
C2077 C 0.39573 0.39912 0.7195 0.0
C2078 C 0.6085 0.99144 0.66215 0.0
C2079 C 0.62595 0.00434 0.67248 0.0
H2080 H 0.58057 0.97444 0.67132 0.0
C2081 C 0.62838 0.01038 0.70074 0.0
H2082 H 0.60617 0.98657 0.64043 0.0
C2083 C 0.61375 0.0033 0.71849 0.0
C2084 C 0.59635 0.99006 0.70835 0.0
H2085 H 0.64166 0.02027 0.70939 0.0
H2086 H 0.61621 0.00779 0.74038 0.0
C2087 C 0.59385 0.98439 0.67989 0.0
loop_
_geom_bond_atom_site_label_1
_geom_bond_atom_site_label_2
_geom_bond_distance
_geom_bond_site_symmetry_2
_ccdc_geom_bond_type
Mg0 O1 2.028 1_556 S
Mg0 O7 1.983 1_456 S
Mg0 O9 2.114 . S
Mg0 O10 2.251 1_455 S
Mg0 O13 2.010 1_556 S
O1 Mg0 2.028 1_554 S
O1 C4 1.250 1_455 S
O2 Mg3 2.028 1_554 S
O2 C4 1.248 . S
Mg3 O2 2.028 1_556 S
Mg3 O8 2.032 . S
Mg3 O10 2.079 . S
C4 O1 1.250 1_655 S
C4 O2 1.248 . S
C5 O6 1.283 . S
C5 O13 1.249 . S
O6 C5 1.283 . S
O7 Mg0 1.983 1_654 S
O7 C11 1.242 1_554 S
O8 Mg3 2.032 . S
O8 C11 1.259 . S
O9 Mg0 2.114 . S
O9 C12 1.252 . S
O10 Mg0 2.251 1_655 S
O10 Mg3 2.079 . S
O10 C12 1.273 1_655 S
C11 O7 1.242 1_556 S
C11 O8 1.259 . S
C12 O9 1.252 . S
C12 O10 1.273 1_455 S
O13 Mg0 2.010 1_554 S
O13 C5 1.249 . S
Mg14 O15 2.028 1_554 S
Mg14 O21 1.986 . S
Mg14 O23 2.114 . S
Mg14 O24 2.251 . S
Mg14 O27 2.010 . S
O15 Mg14 2.028 1_556 S
O15 C18 1.250 . S
O16 Mg17 2.028 1_556 S
O16 C18 1.248 . S
Mg17 O16 2.028 1_554 S
Mg17 O22 2.032 . S
Mg17 O24 2.079 . S
C18 O15 1.250 . S
C18 O16 1.248 . S
C19 O20 1.264 . S
C19 O27 1.249 . S
O20 C19 1.264 . S
O21 Mg14 1.986 . S
O21 C25 1.246 . S
O22 Mg17 2.032 . S
O22 C25 1.259 . S
O23 Mg14 2.114 . S
O23 C26 1.252 . S
O24 Mg14 2.251 . S
O24 Mg17 2.079 . S
O24 C26 1.273 . S
C25 O21 1.246 . S
C25 O22 1.259 . S
C26 O23 1.252 . S
C26 O24 1.273 . S
O27 Mg14 2.010 . S
O27 C19 1.249 . S
Mg28 O29 2.021 1_556 S
Mg28 O35 1.986 1_566 S
Mg28 O37 2.114 . S
Mg28 O38 2.251 1_565 S
Mg28 O41 2.010 1_556 S
O29 Mg28 2.021 1_554 S
O29 C32 1.243 1_565 S
O30 Mg31 2.028 1_554 S
O30 C32 1.248 . S
Mg31 O30 2.028 1_556 S
Mg31 O36 2.032 . S
Mg31 O38 2.079 . S
C32 O29 1.243 1_545 S
C32 O30 1.248 . S
C33 O34 1.257 1_554 S
C33 O41 1.249 . S
O34 C33 1.257 1_556 S
O35 Mg28 1.986 1_544 S
O35 C39 1.246 1_554 S
O36 Mg31 2.032 . S
O36 C39 1.259 . S
O37 Mg28 2.114 . S
O37 C40 1.252 . S
O38 Mg28 2.251 1_545 S
O38 Mg31 2.079 . S
O38 C40 1.273 1_545 S
C39 O35 1.246 1_556 S
C39 O36 1.259 . S
C40 O37 1.252 . S
C40 O38 1.273 1_565 S
O41 Mg28 2.010 1_554 S
O41 C33 1.249 . S
Mg42 O43 2.028 1_554 S
Mg42 O49 1.986 1_655 S
Mg42 O51 2.114 . S
Mg42 O52 2.251 1_655 S
Mg42 O55 2.010 . S
O43 Mg42 2.028 1_556 S
O43 C46 1.250 1_655 S
O44 Mg45 2.028 1_556 S
O44 C46 1.248 . S
Mg45 O44 2.028 1_554 S
Mg45 O50 2.032 . S
Mg45 O52 2.079 . S
C46 O43 1.250 1_455 S
C46 O44 1.248 . S
C47 O48 1.264 . S
C47 O55 1.249 . S
O48 C47 1.264 . S
O49 Mg42 1.986 1_455 S
O49 C53 1.246 . S
O50 Mg45 2.032 . S
O50 C53 1.259 . S
O51 Mg42 2.114 . S
O51 C54 1.252 . S
O52 Mg42 2.251 1_455 S
O52 Mg45 2.079 . S
O52 C54 1.273 1_455 S
C53 O49 1.246 . S
C53 O50 1.259 . S
C54 O51 1.252 . S
C54 O52 1.273 1_655 S
O55 Mg42 2.010 . S
O55 C47 1.249 . S
Mg56 O57 2.009 1_556 S
Mg56 O63 1.984 1_556 S
Mg56 O65 2.123 . S
Mg56 O66 2.263 . S
Mg56 O69 2.003 1_556 S
O57 Mg56 2.009 1_554 S
O57 C60 1.250 . S
O58 Mg59 2.028 1_554 S
O58 C60 1.248 . S
Mg59 O58 2.028 1_556 S
Mg59 O64 2.032 . S
Mg59 O66 2.079 . S
C60 O57 1.250 . S
C60 O58 1.248 . S
C61 O62 1.264 . S
C61 O69 1.249 . S
O62 C61 1.264 . S
O63 Mg56 1.984 1_554 S
O63 C67 1.246 1_554 S
O64 Mg59 2.032 . S
O64 C67 1.259 . S
O65 Mg56 2.123 . S
O65 C68 1.252 . S
O66 Mg56 2.263 . S
O66 Mg59 2.079 . S
O66 C68 1.273 . S
C67 O63 1.246 1_556 S
C67 O64 1.259 . S
C68 O65 1.252 . S
C68 O66 1.273 . S
O69 Mg56 2.003 1_554 S
O69 C61 1.249 . S
Mg70 O71 2.028 1_554 S
Mg70 O77 1.986 1_545 S
Mg70 O79 2.114 . S
Mg70 O80 2.251 1_545 S
Mg70 O83 2.010 . S
O71 Mg70 2.028 1_556 S
O71 C74 1.250 1_545 S
O72 Mg73 2.028 1_556 S
O72 C74 1.248 . S
Mg73 O72 2.028 1_554 S
Mg73 O78 2.032 . S
Mg73 O80 2.079 . S
C74 O71 1.250 1_565 S
C74 O72 1.248 . S
C75 O76 1.264 . S
C75 O83 1.249 . S
O76 C75 1.264 . S
O77 Mg70 1.986 1_565 S
O77 C81 1.246 . S
O78 Mg73 2.032 . S
O78 C81 1.259 . S
O79 Mg70 2.114 . S
O79 C82 1.252 . S
O80 Mg70 2.251 1_565 S
O80 Mg73 2.079 . S
O80 C82 1.273 1_565 S
C81 O77 1.246 . S
C81 O78 1.259 . S
C82 O79 1.252 . S
C82 O80 1.273 1_545 S
O83 Mg70 2.010 . S
O83 C75 1.249 . S
Mg84 O85 2.028 . S
Mg84 O91 1.986 . S
Mg84 O93 2.114 . S
Mg84 O94 2.251 . S
Mg84 O97 2.010 . S
O85 Mg84 2.028 . S
O85 C88 1.250 . S
O86 Mg87 2.028 . S
O86 C88 1.248 . S
Mg87 O86 2.028 . S
Mg87 O92 2.032 . S
Mg87 O94 2.079 . S
C88 O85 1.250 . S
C88 O86 1.248 . S
C89 O90 1.264 . S
C89 O97 1.249 . S
O90 C89 1.264 . S
O91 Mg84 1.986 . S
O91 C95 1.246 . S
O92 Mg87 2.032 . S
O92 C95 1.259 . S
O93 Mg84 2.114 . S
O93 C96 1.252 . S
O94 Mg84 2.251 . S
O94 Mg87 2.079 . S
O94 C96 1.273 . S
C95 O91 1.246 . S
C95 O92 1.259 . S
C96 O93 1.252 . S
C96 O94 1.273 . S
O97 Mg84 2.010 . S
O97 C89 1.249 . S
Mg98 O99 2.028 . S
Mg98 O105 1.928 1_565 S
Mg98 O107 2.114 . S
Mg98 O108 2.251 . S
Mg98 O111 2.010 . S
O99 Mg98 2.028 . S
O99 C102 1.250 . S
O100 Mg101 2.028 . S
O100 C102 1.248 . S
Mg101 O100 2.028 . S
Mg101 O106 2.032 . S
Mg101 O108 2.079 . S
C102 O99 1.250 . S
C102 O100 1.248 . S
C103 O104 1.264 . S
C103 O111 1.249 . S
O104 C103 1.264 . S
O105 Mg98 1.928 1_545 S
O105 C109 1.291 . S
O106 Mg101 2.032 . S
O106 C109 1.259 1_565 S
O107 Mg98 2.114 . S
O107 C110 1.252 . S
O108 Mg98 2.251 . S
O108 Mg101 2.079 . S
O108 C110 1.273 . S
C109 O105 1.291 . S
C109 O106 1.259 1_545 S
C110 O107 1.252 . S
C110 O108 1.273 . S
O111 Mg98 2.010 . S
O111 C103 1.249 . S
Mg112 O113 2.028 . S
Mg112 O119 1.986 . S
Mg112 O121 2.114 . S
Mg112 O122 2.251 . S
Mg112 O125 2.010 1_455 S
O113 Mg112 2.028 . S
O113 C116 1.250 . S
O114 Mg115 2.028 . S
O114 C116 1.248 . S
Mg115 O114 2.028 . S
Mg115 O120 2.032 . S
Mg115 O122 2.079 . S
C116 O113 1.250 . S
C116 O114 1.248 . S
C117 O118 1.264 . S
C117 O125 1.249 . S
O118 C117 1.264 . S
O119 Mg112 1.986 . S
O119 C123 1.246 . S
O120 Mg115 2.032 . S
O120 C123 1.259 . S
O121 Mg112 2.114 . S
O121 C124 1.252 . S
O122 Mg112 2.251 . S
O122 Mg115 2.079 . S
O122 C124 1.273 . S
C123 O119 1.246 . S
C123 O120 1.259 . S
C124 O121 1.252 . S
C124 O122 1.273 . S
O125 Mg112 2.010 1_655 S
O125 C117 1.249 . S
Mg126 O127 2.028 . S
Mg126 O133 1.986 . S
Mg126 O135 2.114 . S
Mg126 O136 2.251 . S
Mg126 O139 2.010 . S
O127 Mg126 2.028 . S
O127 C130 1.250 . S
O128 Mg129 2.028 . S
O128 C130 1.248 . S
Mg129 O128 2.028 . S
Mg129 O134 2.032 . S
Mg129 O136 2.079 . S
C130 O127 1.250 . S
C130 O128 1.248 . S
C131 O132 1.264 . S
C131 O139 1.249 . S
O132 C131 1.264 . S
O133 Mg126 1.986 . S
O133 C137 1.246 1_565 S
O134 Mg129 2.032 . S
O134 C137 1.259 1_565 S
O135 Mg126 2.114 . S
O135 C138 1.252 . S
O136 Mg126 2.251 . S
O136 Mg129 2.079 . S
O136 C138 1.273 . S
C137 O133 1.246 1_545 S
C137 O134 1.259 1_545 S
C138 O135 1.252 . S
C138 O136 1.273 . S
O139 Mg126 2.010 . S
O139 C131 1.249 . S
Mg140 O141 2.028 . S
Mg140 O147 1.986 . S
Mg140 O149 2.114 . S
Mg140 O150 2.251 . S
Mg140 O153 1.951 1_455 S
O141 Mg140 2.028 . S
O141 C144 1.250 . S
O142 Mg143 2.028 . S
O142 C144 1.248 . S
Mg143 O142 2.028 . S
Mg143 O148 2.032 . S
Mg143 O150 2.079 . S
C144 O141 1.250 . S
C144 O142 1.248 . S
C145 O146 1.264 . S
C145 O153 1.310 . S
O146 C145 1.264 . S
O147 Mg140 1.986 . S
O147 C151 1.246 . S
O148 Mg143 2.032 . S
O148 C151 1.259 . S
O149 Mg140 2.114 . S
O149 C152 1.252 . S
O150 Mg140 2.251 . S
O150 Mg143 2.079 . S
O150 C152 1.273 . S
C151 O147 1.246 . S
C151 O148 1.259 . S
C152 O149 1.252 . S
C152 O150 1.273 . S
O153 Mg140 1.951 1_655 S
O153 C145 1.310 . S
Mg154 O155 2.028 . S
Mg154 O161 1.986 . S
Mg154 O163 2.114 . S
Mg154 O164 2.251 . S
Mg154 O167 2.010 . S
O155 Mg154 2.028 . S
O155 C158 1.250 . S
O156 Mg157 2.028 . S
O156 C158 1.248 . S
Mg157 O156 2.028 . S
Mg157 O162 2.032 . S
Mg157 O164 2.079 . S
C158 O155 1.250 . S
C158 O156 1.248 . S
C159 O160 1.264 . S
C159 O167 1.249 . S
O160 C159 1.264 . S
O161 Mg154 1.986 . S
O161 C165 1.246 . S
O162 Mg157 2.032 . S
O162 C165 1.259 . S
O163 Mg154 2.114 . S
O163 C166 1.252 . S
O164 Mg154 2.251 . S
O164 Mg157 2.079 . S
O164 C166 1.273 . S
C165 O161 1.246 . S
C165 O162 1.259 . S
C166 O163 1.252 . S
C166 O164 1.273 . S
O167 Mg154 2.010 . S
O167 C159 1.249 . S
Mg168 O169 2.028 . S
Mg168 O175 1.986 . S
Mg168 O177 2.114 . S
Mg168 O178 2.251 . S
Mg168 O181 2.010 . S
O169 Mg168 2.028 . S
O169 C172 1.250 . S
O170 Mg171 2.028 . S
O170 C172 1.248 . S
Mg171 O170 2.028 . S
Mg171 O176 2.032 . S
Mg171 O178 2.079 . S
C172 O169 1.250 . S
C172 O170 1.248 . S
C173 O174 1.264 . S
C173 O181 1.249 . S
O174 C173 1.264 . S
O175 Mg168 1.986 . S
O175 C179 1.246 1_545 S
O176 Mg171 2.032 . S
O176 C179 1.259 1_545 S
O177 Mg168 2.114 . S
O177 C180 1.252 . S
O178 Mg168 2.251 . S
O178 Mg171 2.079 . S
O178 C180 1.273 . S
C179 O175 1.246 1_565 S
C179 O176 1.259 1_565 S
C180 O177 1.252 . S
C180 O178 1.273 . S
O181 Mg168 2.010 . S
O181 C173 1.249 . S
Mg182 O183 2.028 . S
Mg182 O189 1.986 . S
Mg182 O191 2.114 . S
Mg182 O192 2.251 . S
Mg182 O195 2.010 1_655 S
O183 Mg182 2.028 . S
O183 C186 1.250 . S
O184 Mg185 2.028 . S
O184 C186 1.248 . S
Mg185 O184 2.028 . S
Mg185 O190 2.032 . S
Mg185 O192 2.079 . S
C186 O183 1.250 . S
C186 O184 1.248 . S
C187 O188 1.264 . S
C187 O195 1.249 . S
O188 C187 1.264 . S
O189 Mg182 1.986 . S
O189 C193 1.246 . S
O190 Mg185 2.032 . S
O190 C193 1.259 . S
O191 Mg182 2.114 . S
O191 C194 1.252 . S
O192 Mg182 2.251 . S
O192 Mg185 2.079 . S
O192 C194 1.273 . S
C193 O189 1.246 . S
C193 O190 1.259 . S
C194 O191 1.252 . S
C194 O192 1.273 . S
O195 Mg182 2.010 1_455 S
O195 C187 1.249 . S
Mg196 O197 2.028 . S
Mg196 O203 1.986 . S
Mg196 O205 2.114 . S
Mg196 O206 2.251 . S
Mg196 O209 2.010 . S
O197 Mg196 2.028 . S
O197 C200 1.250 . S
O198 Mg199 2.028 . S
O198 C200 1.248 . S
Mg199 O198 2.028 . S
Mg199 O204 2.032 . S
Mg199 O206 2.079 . S
C200 O197 1.250 . S
C200 O198 1.248 . S
C201 O202 1.264 . S
C201 O209 1.249 . S
O202 C201 1.264 . S
O203 Mg196 1.986 . S
O203 C207 1.246 . S
O204 Mg199 2.032 . S
O204 C207 1.259 . S
O205 Mg196 2.114 . S
O205 C208 1.252 . S
O206 Mg196 2.251 . S
O206 Mg199 2.079 . S
O206 C208 1.273 . S
C207 O203 1.246 . S
C207 O204 1.259 . S
C208 O205 1.252 . S
C208 O206 1.273 . S
O209 Mg196 2.010 . S
O209 C201 1.249 . S
Mg210 O211 2.028 . S
Mg210 O217 1.986 . S
Mg210 O219 2.114 . S
Mg210 O220 2.251 . S
Mg210 O223 2.010 . S
O211 Mg210 2.028 . S
O211 C214 1.250 . S
O212 Mg213 2.028 . S
O212 C214 1.248 . S
Mg213 O212 2.028 . S
Mg213 O218 2.032 . S
Mg213 O220 2.079 . S
C214 O211 1.250 . S
C214 O212 1.248 . S
C215 O216 1.264 . S
C215 O223 1.249 . S
O216 C215 1.264 . S
O217 Mg210 1.986 . S
O217 C221 1.246 . S
O218 Mg213 2.032 . S
O218 C221 1.259 . S
O219 Mg210 2.114 . S
O219 C222 1.252 . S
O220 Mg210 2.251 . S
O220 Mg213 2.079 . S
O220 C222 1.273 . S
C221 O217 1.246 . S
C221 O218 1.259 . S
C222 O219 1.252 . S
C222 O220 1.273 . S
O223 Mg210 2.010 . S
O223 C215 1.249 . S
Mg224 O225 2.028 . S
Mg224 O231 1.986 . S
Mg224 O233 2.114 . S
Mg224 O234 2.251 . S
Mg224 O237 2.010 . S
O225 Mg224 2.028 . S
O225 C228 1.250 . S
O226 Mg227 2.028 . S
O226 C228 1.248 . S
Mg227 O226 2.028 . S
Mg227 O232 2.032 . S
Mg227 O234 2.079 . S
C228 O225 1.250 . S
C228 O226 1.248 . S
C229 O230 1.264 . S
C229 O237 1.249 . S
O230 C229 1.264 . S
O231 Mg224 1.986 . S
O231 C235 1.246 1_545 S
O232 Mg227 2.032 . S
O232 C235 1.259 1_545 S
O233 Mg224 2.114 . S
O233 C236 1.252 . S
O234 Mg224 2.251 . S
O234 Mg227 2.079 . S
O234 C236 1.273 . S
C235 O231 1.246 1_565 S
C235 O232 1.259 1_565 S
C236 O233 1.252 . S
C236 O234 1.273 . S
O237 Mg224 2.010 . S
O237 C229 1.249 . S
Mg238 O239 2.028 . S
Mg238 O245 1.986 . S
Mg238 O247 2.114 . S
Mg238 O248 2.251 . S
Mg238 O251 2.010 1_655 S
O239 Mg238 2.028 . S
O239 C242 1.250 . S
O240 Mg241 2.028 . S
O240 C242 1.248 . S
Mg241 O240 2.028 . S
Mg241 O246 2.032 . S
Mg241 O248 2.079 . S
C242 O239 1.250 . S
C242 O240 1.248 . S
C243 O244 1.264 . S
C243 O251 1.249 . S
O244 C243 1.264 . S
O245 Mg238 1.986 . S
O245 C249 1.246 . S
O246 Mg241 2.032 . S
O246 C249 1.259 . S
O247 Mg238 2.114 . S
O247 C250 1.252 . S
O248 Mg238 2.251 . S
O248 Mg241 2.079 . S
O248 C250 1.273 . S
C249 O245 1.246 . S
C249 O246 1.259 . S
C250 O247 1.252 . S
C250 O248 1.273 . S
O251 Mg238 2.010 1_455 S
O251 C243 1.249 . S
H252 C279 0.929 . S
N253 C278 1.433 . S
N253 C284 1.435 . S
N253 C290 1.423 . S
H254 C280 0.930 . S
H255 C283 0.931 . S
H256 C282 0.929 . S
H257 C285 0.930 . S
H258 C286 0.932 . S
H259 C289 0.929 . S
H260 C288 0.931 . S
H261 C291 0.929 . S
H262 C295 0.932 . S
H263 C292 0.931 . S
H264 C294 0.929 . S
H265 C297 0.929 . S
H266 C298 0.930 . S
H267 C300 0.929 . S
H268 C301 0.931 . S
H269 C303 0.930 . S
H270 C304 0.932 . S
H271 C306 0.931 . S
H272 C307 0.929 . S
H273 C309 0.929 . S
H274 C310 0.931 . S
H275 C312 0.929 . S
N276 C296 1.433 . S
N276 C302 1.435 . S
N276 C308 1.423 . S
H277 C313 0.932 . S
C278 N253 1.433 . S
C278 C279 1.363 . S
C278 C283 1.370 . S
C279 H252 0.929 . S
C279 C278 1.363 . S
C279 C280 1.385 . S
C280 H254 0.930 . S
C280 C279 1.385 . S
C280 C281 1.357 . S
C281 C280 1.357 . S
C281 C282 1.406 . S
C282 H256 0.929 . S
C282 C281 1.406 . S
C282 C283 1.391 . S
C283 H255 0.931 . S
C283 C278 1.370 . S
C283 C282 1.391 . S
C284 N253 1.435 . S
C284 C285 1.358 . S
C284 C289 1.371 . S
C285 H257 0.930 . S
C285 C284 1.358 . S
C285 C286 1.405 . S
C286 H258 0.932 . S
C286 C285 1.405 . S
C286 C287 1.383 . S
C287 C286 1.383 . S
C287 C288 1.393 . S
C288 H260 0.931 . S
C288 C287 1.393 . S
C288 C289 1.382 . S
C289 H259 0.929 . S
C289 C284 1.371 . S
C289 C288 1.382 . S
C290 N253 1.423 . S
C290 C291 1.362 . S
C290 C295 1.388 . S
C291 H261 0.929 . S
C291 C290 1.362 . S
C291 C292 1.376 . S
C292 H263 0.931 . S
C292 C291 1.376 . S
C292 C293 1.396 . S
C293 C292 1.396 . S
C293 C294 1.348 . S
C293 C311 1.472 . S
C294 H264 0.929 . S
C294 C293 1.348 . S
C294 C295 1.443 . S
C295 H262 0.932 . S
C295 C290 1.388 . S
C295 C294 1.443 . S
C296 N276 1.433 . S
C296 C297 1.363 . S
C296 C301 1.370 . S
C297 H265 0.929 . S
C297 C296 1.363 . S
C297 C298 1.385 . S
C298 H266 0.930 . S
C298 C297 1.385 . S
C298 C299 1.357 . S
C299 C298 1.357 . S
C299 C300 1.406 . S
C300 H267 0.929 . S
C300 C299 1.406 . S
C300 C301 1.391 . S
C301 H268 0.931 . S
C301 C296 1.370 . S
C301 C300 1.391 . S
C302 N276 1.435 . S
C302 C303 1.358 . S
C302 C307 1.371 . S
C303 H269 0.930 . S
C303 C302 1.358 . S
C303 C304 1.405 . S
C304 H270 0.932 . S
C304 C303 1.405 . S
C304 C305 1.383 . S
C305 C304 1.383 . S
C305 C306 1.393 . S
C306 H271 0.931 . S
C306 C305 1.393 . S
C306 C307 1.382 . S
C307 H272 0.929 . S
C307 C302 1.371 . S
C307 C306 1.382 . S
C308 N276 1.423 . S
C308 C309 1.362 . S
C308 C313 1.388 . S
C309 H273 0.929 . S
C309 C308 1.362 . S
C309 C310 1.376 . S
C310 H274 0.931 . S
C310 C309 1.376 . S
C310 C311 1.396 . S
C311 C293 1.472 . S
C311 C310 1.396 . S
C311 C312 1.348 . S
C312 H275 0.929 . S
C312 C311 1.348 . S
C312 C313 1.443 . S
C313 H277 0.932 . S
C313 C308 1.388 . S
C313 C312 1.443 . S
H314 C341 0.929 . S
N315 C340 1.433 . S
N315 C346 1.435 . S
N315 C352 1.423 . S
H316 C342 0.930 . S
H317 C345 0.931 . S
H318 C344 0.929 . S
H319 C347 0.930 . S
H320 C348 0.932 . S
H321 C351 0.929 . S
H322 C350 0.931 . S
H323 C353 0.929 . S
H324 C357 0.932 . S
H325 C354 0.931 . S
H326 C356 0.929 . S
H327 C359 0.929 . S
H328 C360 0.930 . S
H329 C362 0.929 . S
H330 C363 0.931 . S
H331 C365 0.930 . S
H332 C366 0.932 . S
H333 C368 0.931 . S
H334 C369 0.929 . S
H335 C371 0.929 . S
H336 C372 0.931 . S
H337 C374 0.929 . S
N338 C358 1.433 . S
N338 C364 1.435 . S
N338 C370 1.423 . S
H339 C375 0.932 . S
C340 N315 1.433 . S
C340 C341 1.363 . S
C340 C345 1.370 . S
C341 H314 0.929 . S
C341 C340 1.363 . S
C341 C342 1.385 . S
C342 H316 0.930 . S
C342 C341 1.385 . S
C342 C343 1.357 . S
C343 C342 1.357 . S
C343 C344 1.406 . S
C344 H318 0.929 . S
C344 C343 1.406 . S
C344 C345 1.391 . S
C345 H317 0.931 . S
C345 C340 1.370 . S
C345 C344 1.391 . S
C346 N315 1.435 . S
C346 C347 1.358 . S
C346 C351 1.371 . S
C347 H319 0.930 . S
C347 C346 1.358 . S
C347 C348 1.405 . S
C348 H320 0.932 . S
C348 C347 1.405 . S
C348 C349 1.383 . S
C349 C348 1.383 . S
C349 C350 1.393 . S
C350 H322 0.931 . S
C350 C349 1.393 . S
C350 C351 1.382 . S
C351 H321 0.929 . S
C351 C346 1.371 . S
C351 C350 1.382 . S
C352 N315 1.423 . S
C352 C353 1.362 . S
C352 C357 1.388 . S
C353 H323 0.929 . S
C353 C352 1.362 . S
C353 C354 1.376 . S
C354 H325 0.931 . S
C354 C353 1.376 . S
C354 C355 1.396 . S
C355 C354 1.396 . S
C355 C356 1.348 . S
C355 C373 1.472 . S
C356 H326 0.929 . S
C356 C355 1.348 . S
C356 C357 1.443 . S
C357 H324 0.932 . S
C357 C352 1.388 . S
C357 C356 1.443 . S
C358 N338 1.433 . S
C358 C359 1.363 . S
C358 C363 1.370 . S
C359 H327 0.929 . S
C359 C358 1.363 . S
C359 C360 1.385 . S
C360 H328 0.930 . S
C360 C359 1.385 . S
C360 C361 1.357 . S
C361 C360 1.357 . S
C361 C362 1.406 . S
C362 H329 0.929 . S
C362 C361 1.406 . S
C362 C363 1.391 . S
C363 H330 0.931 . S
C363 C358 1.370 . S
C363 C362 1.391 . S
C364 N338 1.435 . S
C364 C365 1.358 . S
C364 C369 1.371 . S
C365 H331 0.930 . S
C365 C364 1.358 . S
C365 C366 1.405 . S
C366 H332 0.932 . S
C366 C365 1.405 . S
C366 C367 1.383 . S
C367 C366 1.383 . S
C367 C368 1.393 . S
C368 H333 0.931 . S
C368 C367 1.393 . S
C368 C369 1.382 . S
C369 H334 0.929 . S
C369 C364 1.371 . S
C369 C368 1.382 . S
C370 N338 1.423 . S
C370 C371 1.362 . S
C370 C375 1.388 . S
C371 H335 0.929 . S
C371 C370 1.362 . S
C371 C372 1.376 . S
C372 H336 0.931 . S
C372 C371 1.376 . S
C372 C373 1.396 . S
C373 C355 1.472 . S
C373 C372 1.396 . S
C373 C374 1.348 . S
C374 H337 0.929 . S
C374 C373 1.348 . S
C374 C375 1.443 . S
C375 H339 0.932 . S
C375 C370 1.388 . S
C375 C374 1.443 . S
H376 C403 0.929 . S
N377 C402 1.433 . S
N377 C408 1.435 . S
N377 C414 1.423 . S
H378 C404 0.930 . S
H379 C407 0.931 . S
H380 C406 0.929 . S
H381 C409 0.930 . S
H382 C410 0.932 . S
H383 C413 0.929 . S
H384 C412 0.931 . S
H385 C415 0.929 . S
H386 C419 0.932 . S
H387 C416 0.931 . S
H388 C418 0.929 . S
H389 C421 0.929 . S
H390 C422 0.930 . S
H391 C424 0.929 . S
H392 C425 0.931 . S
H393 C427 0.930 . S
H394 C428 0.932 . S
H395 C430 0.931 . S
H396 C431 0.929 . S
H397 C433 0.929 . S
H398 C434 0.931 . S
H399 C436 0.929 . S
N400 C420 1.433 . S
N400 C426 1.435 . S
N400 C432 1.423 . S
H401 C437 0.932 . S
C402 N377 1.433 . S
C402 C403 1.363 . S
C402 C407 1.370 . S
C403 H376 0.929 . S
C403 C402 1.363 . S
C403 C404 1.385 . S
C404 H378 0.930 . S
C404 C403 1.385 . S
C404 C405 1.357 . S
C405 C404 1.357 . S
C405 C406 1.406 . S
C406 H380 0.929 . S
C406 C405 1.406 . S
C406 C407 1.391 . S
C407 H379 0.931 . S
C407 C402 1.370 . S
C407 C406 1.391 . S
C408 N377 1.435 . S
C408 C409 1.358 . S
C408 C413 1.371 . S
C409 H381 0.930 . S
C409 C408 1.358 . S
C409 C410 1.405 . S
C410 H382 0.932 . S
C410 C409 1.405 . S
C410 C411 1.383 . S
C411 C410 1.383 . S
C411 C412 1.393 . S
C412 H384 0.931 . S
C412 C411 1.393 . S
C412 C413 1.382 . S
C413 H383 0.929 . S
C413 C408 1.371 . S
C413 C412 1.382 . S
C414 N377 1.423 . S
C414 C415 1.362 . S
C414 C419 1.388 . S
C415 H385 0.929 . S
C415 C414 1.362 . S
C415 C416 1.376 . S
C416 H387 0.931 . S
C416 C415 1.376 . S
C416 C417 1.396 . S
C417 C416 1.396 . S
C417 C418 1.348 . S
C417 C435 1.472 . S
C418 H388 0.929 . S
C418 C417 1.348 . S
C418 C419 1.443 . S
C419 H386 0.932 . S
C419 C414 1.388 . S
C419 C418 1.443 . S
C420 N400 1.433 . S
C420 C421 1.363 . S
C420 C425 1.370 . S
C421 H389 0.929 . S
C421 C420 1.363 . S
C421 C422 1.385 . S
C422 H390 0.930 . S
C422 C421 1.385 . S
C422 C423 1.357 . S
C423 C422 1.357 . S
C423 C424 1.406 . S
C424 H391 0.929 . S
C424 C423 1.406 . S
C424 C425 1.391 . S
C425 H392 0.931 . S
C425 C420 1.370 . S
C425 C424 1.391 . S
C426 N400 1.435 . S
C426 C427 1.358 . S
C426 C431 1.371 . S
C427 H393 0.930 . S
C427 C426 1.358 . S
C427 C428 1.405 . S
C428 H394 0.932 . S
C428 C427 1.405 . S
C428 C429 1.383 . S
C429 C428 1.383 . S
C429 C430 1.393 . S
C430 H395 0.931 . S
C430 C429 1.393 . S
C430 C431 1.382 . S
C431 H396 0.929 . S
C431 C426 1.371 . S
C431 C430 1.382 . S
C432 N400 1.423 . S
C432 C433 1.362 . S
C432 C437 1.388 . S
C433 H397 0.929 . S
C433 C432 1.362 . S
C433 C434 1.376 . S
C434 H398 0.931 . S
C434 C433 1.376 . S
C434 C435 1.396 . S
C435 C417 1.472 . S
C435 C434 1.396 . S
C435 C436 1.348 . S
C436 H399 0.929 . S
C436 C435 1.348 . S
C436 C437 1.443 . S
C437 H401 0.932 . S
C437 C432 1.388 . S
C437 C436 1.443 . S
H438 C465 0.929 . S
N439 C464 1.433 . S
N439 C470 1.435 . S
N439 C476 1.423 . S
H440 C466 0.930 . S
H441 C469 0.931 . S
H442 C468 0.929 . S
H443 C471 0.930 . S
H444 C472 0.932 . S
H445 C475 0.929 . S
H446 C474 0.931 . S
H447 C477 0.929 . S
H448 C481 0.932 . S
H449 C478 0.931 . S
H450 C480 0.929 . S
H451 C483 0.929 . S
H452 C484 0.930 . S
H453 C486 0.929 . S
H454 C487 0.931 . S
H455 C489 0.930 . S
H456 C490 0.932 . S
H457 C492 0.931 . S
H458 C493 0.929 . S
H459 C495 0.929 . S
H460 C496 0.931 . S
H461 C498 0.929 . S
N462 C482 1.433 . S
N462 C488 1.435 . S
N462 C494 1.423 . S
H463 C499 0.932 . S
C464 N439 1.433 . S
C464 C465 1.363 . S
C464 C469 1.370 . S
C465 H438 0.929 . S
C465 C464 1.363 . S
C465 C466 1.385 . S
C466 H440 0.930 . S
C466 C465 1.385 . S
C466 C467 1.357 . S
C467 C466 1.357 . S
C467 C468 1.406 . S
C468 H442 0.929 . S
C468 C467 1.406 . S
C468 C469 1.391 . S
C469 H441 0.931 . S
C469 C464 1.370 . S
C469 C468 1.391 . S
C470 N439 1.435 . S
C470 C471 1.358 . S
C470 C475 1.371 . S
C471 H443 0.930 . S
C471 C470 1.358 . S
C471 C472 1.405 . S
C472 H444 0.932 . S
C472 C471 1.405 . S
C472 C473 1.383 . S
C473 C472 1.383 . S
C473 C474 1.393 . S
C474 H446 0.931 . S
C474 C473 1.393 . S
C474 C475 1.382 . S
C475 H445 0.929 . S
C475 C470 1.371 . S
C475 C474 1.382 . S
C476 N439 1.423 . S
C476 C477 1.362 . S
C476 C481 1.388 . S
C477 H447 0.929 . S
C477 C476 1.362 . S
C477 C478 1.376 . S
C478 H449 0.931 . S
C478 C477 1.376 . S
C478 C479 1.396 . S
C479 C478 1.396 . S
C479 C480 1.348 . S
C479 C497 1.472 . S
C480 H450 0.929 . S
C480 C479 1.348 . S
C480 C481 1.443 . S
C481 H448 0.932 . S
C481 C476 1.388 . S
C481 C480 1.443 . S
C482 N462 1.433 . S
C482 C483 1.363 . S
C482 C487 1.370 . S
C483 H451 0.929 . S
C483 C482 1.363 . S
C483 C484 1.385 . S
C484 H452 0.930 . S
C484 C483 1.385 . S
C484 C485 1.357 . S
C485 C484 1.357 . S
C485 C486 1.406 . S
C486 H453 0.929 . S
C486 C485 1.406 . S
C486 C487 1.391 . S
C487 H454 0.931 . S
C487 C482 1.370 . S
C487 C486 1.391 . S
C488 N462 1.435 . S
C488 C489 1.358 . S
C488 C493 1.371 . S
C489 H455 0.930 . S
C489 C488 1.358 . S
C489 C490 1.405 . S
C490 H456 0.932 . S
C490 C489 1.405 . S
C490 C491 1.383 . S
C491 C490 1.383 . S
C491 C492 1.393 . S
C492 H457 0.931 . S
C492 C491 1.393 . S
C492 C493 1.382 . S
C493 H458 0.929 . S
C493 C488 1.371 . S
C493 C492 1.382 . S
C494 N462 1.423 . S
C494 C495 1.362 . S
C494 C499 1.388 . S
C495 H459 0.929 . S
C495 C494 1.362 . S
C495 C496 1.376 . S
C496 H460 0.931 . S
C496 C495 1.376 . S
C496 C497 1.396 . S
C497 C479 1.472 . S
C497 C496 1.396 . S
C497 C498 1.348 . S
C498 H461 0.929 . S
C498 C497 1.348 . S
C498 C499 1.443 . S
C499 H463 0.932 . S
C499 C494 1.388 . S
C499 C498 1.443 . S
H500 C527 0.929 . S
N501 C526 1.433 . S
N501 C532 1.435 . S
N501 C538 1.423 . S
H502 C528 0.930 . S
H503 C531 0.931 . S
H504 C530 0.929 . S
H505 C533 0.930 . S
H506 C534 0.932 . S
H507 C537 0.929 . S
H508 C536 0.931 . S
H509 C539 0.929 . S
H510 C543 0.932 . S
H511 C540 0.931 . S
H512 C542 0.929 . S
H513 C545 0.929 . S
H514 C546 0.930 . S
H515 C548 0.929 . S
H516 C549 0.931 . S
H517 C551 0.930 . S
H518 C552 0.932 . S
H519 C554 0.931 . S
H520 C555 0.929 . S
H521 C557 0.929 . S
H522 C558 0.931 . S
H523 C560 0.929 . S
N524 C544 1.433 . S
N524 C550 1.435 . S
N524 C556 1.423 . S
H525 C561 0.932 . S
C526 N501 1.433 . S
C526 C527 1.363 . S
C526 C531 1.370 . S
C527 H500 0.929 . S
C527 C526 1.363 . S
C527 C528 1.385 . S
C528 H502 0.930 . S
C528 C527 1.385 . S
C528 C529 1.357 . S
C529 C528 1.357 . S
C529 C530 1.406 . S
C530 H504 0.929 . S
C530 C529 1.406 . S
C530 C531 1.391 . S
C531 H503 0.931 . S
C531 C526 1.370 . S
C531 C530 1.391 . S
C532 N501 1.435 . S
C532 C533 1.358 . S
C532 C537 1.371 . S
C533 H505 0.930 . S
C533 C532 1.358 . S
C533 C534 1.405 . S
C534 H506 0.932 . S
C534 C533 1.405 . S
C534 C535 1.383 . S
C535 C534 1.383 . S
C535 C536 1.393 . S
C536 H508 0.931 . S
C536 C535 1.393 . S
C536 C537 1.382 . S
C537 H507 0.929 . S
C537 C532 1.371 . S
C537 C536 1.382 . S
C538 N501 1.423 . S
C538 C539 1.362 . S
C538 C543 1.388 . S
C539 H509 0.929 . S
C539 C538 1.362 . S
C539 C540 1.376 . S
C540 H511 0.931 . S
C540 C539 1.376 . S
C540 C541 1.396 . S
C541 C540 1.396 . S
C541 C542 1.348 . S
C541 C559 1.472 . S
C542 H512 0.929 . S
C542 C541 1.348 . S
C542 C543 1.443 . S
C543 H510 0.932 . S
C543 C538 1.388 . S
C543 C542 1.443 . S
C544 N524 1.433 . S
C544 C545 1.363 . S
C544 C549 1.370 . S
C545 H513 0.929 . S
C545 C544 1.363 . S
C545 C546 1.385 . S
C546 H514 0.930 . S
C546 C545 1.385 . S
C546 C547 1.357 . S
C547 C546 1.357 . S
C547 C548 1.406 . S
C548 H515 0.929 . S
C548 C547 1.406 . S
C548 C549 1.391 . S
C549 H516 0.931 . S
C549 C544 1.370 . S
C549 C548 1.391 . S
C550 N524 1.435 . S
C550 C551 1.358 . S
C550 C555 1.371 . S
C551 H517 0.930 . S
C551 C550 1.358 . S
C551 C552 1.405 . S
C552 H518 0.932 . S
C552 C551 1.405 . S
C552 C553 1.383 . S
C553 C552 1.383 . S
C553 C554 1.393 . S
C554 H519 0.931 . S
C554 C553 1.393 . S
C554 C555 1.382 . S
C555 H520 0.929 . S
C555 C550 1.371 . S
C555 C554 1.382 . S
C556 N524 1.423 . S
C556 C557 1.362 . S
C556 C561 1.388 . S
C557 H521 0.929 . S
C557 C556 1.362 . S
C557 C558 1.376 . S
C558 H522 0.931 . S
C558 C557 1.376 . S
C558 C559 1.396 . S
C559 C541 1.472 . S
C559 C558 1.396 . S
C559 C560 1.348 . S
C560 H523 0.929 . S
C560 C559 1.348 . S
C560 C561 1.443 . S
C561 H525 0.932 . S
C561 C556 1.388 . S
C561 C560 1.443 . S
H562 C589 0.929 . S
N563 C588 1.433 . S
N563 C594 1.435 . S
N563 C600 1.423 . S
H564 C590 0.930 . S
H565 C593 0.931 . S
H566 C592 0.929 . S
H567 C595 0.930 . S
H568 C596 0.932 . S
H569 C599 0.929 . S
H570 C598 0.931 . S
H571 C601 0.929 . S
H572 C605 0.932 . S
H573 C602 0.931 . S
H574 C604 0.929 . S
H575 C607 0.929 . S
H576 C608 0.930 . S
H577 C610 0.929 . S
H578 C611 0.931 . S
H579 C613 0.930 . S
H580 C614 0.932 . S
H581 C616 0.931 . S
H582 C617 0.929 . S
H583 C619 0.929 . S
H584 C620 0.931 . S
H585 C622 0.929 . S
N586 C606 1.433 . S
N586 C612 1.435 . S
N586 C618 1.423 . S
H587 C623 0.932 . S
C588 N563 1.433 . S
C588 C589 1.363 . S
C588 C593 1.370 . S
C589 H562 0.929 . S
C589 C588 1.363 . S
C589 C590 1.385 . S
C590 H564 0.930 . S
C590 C589 1.385 . S
C590 C591 1.357 . S
C591 C590 1.357 . S
C591 C592 1.406 . S
C592 H566 0.929 . S
C592 C591 1.406 . S
C592 C593 1.391 . S
C593 H565 0.931 . S
C593 C588 1.370 . S
C593 C592 1.391 . S
C594 N563 1.435 . S
C594 C595 1.358 . S
C594 C599 1.371 . S
C595 H567 0.930 . S
C595 C594 1.358 . S
C595 C596 1.405 . S
C596 H568 0.932 . S
C596 C595 1.405 . S
C596 C597 1.383 . S
C597 C596 1.383 . S
C597 C598 1.393 . S
C598 H570 0.931 . S
C598 C597 1.393 . S
C598 C599 1.382 . S
C599 H569 0.929 . S
C599 C594 1.371 . S
C599 C598 1.382 . S
C600 N563 1.423 . S
C600 C601 1.362 . S
C600 C605 1.388 . S
C601 H571 0.929 . S
C601 C600 1.362 . S
C601 C602 1.376 . S
C602 H573 0.931 . S
C602 C601 1.376 . S
C602 C603 1.396 . S
C603 C602 1.396 . S
C603 C604 1.348 . S
C603 C621 1.472 . S
C604 H574 0.929 . S
C604 C603 1.348 . S
C604 C605 1.443 . S
C605 H572 0.932 . S
C605 C600 1.388 . S
C605 C604 1.443 . S
C606 N586 1.433 . S
C606 C607 1.363 . S
C606 C611 1.370 . S
C607 H575 0.929 . S
C607 C606 1.363 . S
C607 C608 1.385 . S
C608 H576 0.930 . S
C608 C607 1.385 . S
C608 C609 1.357 . S
C609 C608 1.357 . S
C609 C610 1.406 . S
C610 H577 0.929 . S
C610 C609 1.406 . S
C610 C611 1.391 . S
C611 H578 0.931 . S
C611 C606 1.370 . S
C611 C610 1.391 . S
C612 N586 1.435 . S
C612 C613 1.358 . S
C612 C617 1.371 . S
C613 H579 0.930 . S
C613 C612 1.358 . S
C613 C614 1.405 . S
C614 H580 0.932 . S
C614 C613 1.405 . S
C614 C615 1.383 . S
C615 C614 1.383 . S
C615 C616 1.393 . S
C616 H581 0.931 . S
C616 C615 1.393 . S
C616 C617 1.382 . S
C617 H582 0.929 . S
C617 C612 1.371 . S
C617 C616 1.382 . S
C618 N586 1.423 . S
C618 C619 1.362 . S
C618 C623 1.388 . S
C619 H583 0.929 . S
C619 C618 1.362 . S
C619 C620 1.376 . S
C620 H584 0.931 . S
C620 C619 1.376 . S
C620 C621 1.396 . S
C621 C603 1.472 . S
C621 C620 1.396 . S
C621 C622 1.348 . S
C622 H585 0.929 . S
C622 C621 1.348 . S
C622 C623 1.443 . S
C623 H587 0.932 . S
C623 C618 1.388 . S
C623 C622 1.443 . S
H624 C651 0.929 . S
N625 C650 1.433 . S
N625 C656 1.435 . S
N625 C662 1.423 . S
H626 C652 0.930 . S
H627 C655 0.931 . S
H628 C654 0.929 . S
H629 C657 0.930 . S
H630 C658 0.932 . S
H631 C661 0.929 . S
H632 C660 0.931 . S
H633 C663 0.929 . S
H634 C667 0.932 . S
H635 C664 0.931 . S
H636 C666 0.929 . S
H637 C669 0.929 . S
H638 C670 0.930 . S
H639 C672 0.929 . S
H640 C673 0.931 . S
H641 C675 0.930 . S
H642 C676 0.932 . S
H643 C678 0.931 . S
H644 C679 0.929 . S
H645 C681 0.929 . S
H646 C682 0.931 . S
H647 C684 0.929 . S
N648 C668 1.433 . S
N648 C674 1.435 . S
N648 C680 1.423 . S
H649 C685 0.932 . S
C650 N625 1.433 . S
C650 C651 1.363 . S
C650 C655 1.370 . S
C651 H624 0.929 . S
C651 C650 1.363 . S
C651 C652 1.385 . S
C652 H626 0.930 . S
C652 C651 1.385 . S
C652 C653 1.357 . S
C653 C652 1.357 . S
C653 C654 1.406 . S
C654 H628 0.929 . S
C654 C653 1.406 . S
C654 C655 1.391 . S
C655 H627 0.931 . S
C655 C650 1.370 . S
C655 C654 1.391 . S
C656 N625 1.435 . S
C656 C657 1.358 . S
C656 C661 1.371 . S
C657 H629 0.930 . S
C657 C656 1.358 . S
C657 C658 1.405 . S
C658 H630 0.932 . S
C658 C657 1.405 . S
C658 C659 1.383 . S
C659 C658 1.383 . S
C659 C660 1.393 . S
C660 H632 0.931 . S
C660 C659 1.393 . S
C660 C661 1.382 . S
C661 H631 0.929 . S
C661 C656 1.371 . S
C661 C660 1.382 . S
C662 N625 1.423 . S
C662 C663 1.362 . S
C662 C667 1.388 . S
C663 H633 0.929 . S
C663 C662 1.362 . S
C663 C664 1.376 . S
C664 H635 0.931 . S
C664 C663 1.376 . S
C664 C665 1.396 . S
C665 C664 1.396 . S
C665 C666 1.348 . S
C665 C683 1.472 . S
C666 H636 0.929 . S
C666 C665 1.348 . S
C666 C667 1.443 . S
C667 H634 0.932 . S
C667 C662 1.388 . S
C667 C666 1.443 . S
C668 N648 1.433 . S
C668 C669 1.363 . S
C668 C673 1.370 . S
C669 H637 0.929 . S
C669 C668 1.363 . S
C669 C670 1.385 . S
C670 H638 0.930 . S
C670 C669 1.385 . S
C670 C671 1.357 . S
C671 C670 1.357 . S
C671 C672 1.406 . S
C672 H639 0.929 . S
C672 C671 1.406 . S
C672 C673 1.391 . S
C673 H640 0.931 . S
C673 C668 1.370 . S
C673 C672 1.391 . S
C674 N648 1.435 . S
C674 C675 1.358 . S
C674 C679 1.371 . S
C675 H641 0.930 . S
C675 C674 1.358 . S
C675 C676 1.405 . S
C676 H642 0.932 . S
C676 C675 1.405 . S
C676 C677 1.383 . S
C677 C676 1.383 . S
C677 C678 1.393 . S
C678 H643 0.931 . S
C678 C677 1.393 . S
C678 C679 1.382 . S
C679 H644 0.929 . S
C679 C674 1.371 . S
C679 C678 1.382 . S
C680 N648 1.423 . S
C680 C681 1.362 . S
C680 C685 1.388 . S
C681 H645 0.929 . S
C681 C680 1.362 . S
C681 C682 1.376 . S
C682 H646 0.931 . S
C682 C681 1.376 . S
C682 C683 1.396 . S
C683 C665 1.472 . S
C683 C682 1.396 . S
C683 C684 1.348 . S
C684 H647 0.929 . S
C684 C683 1.348 . S
C684 C685 1.443 . S
C685 H649 0.932 . S
C685 C680 1.388 . S
C685 C684 1.443 . S
H686 C713 0.929 . S
N687 C712 1.433 . S
N687 C718 1.435 . S
N687 C724 1.423 . S
H688 C714 0.930 . S
H689 C717 0.931 . S
H690 C716 0.929 . S
H691 C719 0.930 . S
H692 C720 0.932 . S
H693 C723 0.929 . S
H694 C722 0.931 . S
H695 C725 0.929 . S
H696 C729 0.932 . S
H697 C726 0.931 . S
H698 C728 0.929 . S
H699 C731 0.929 . S
H700 C732 0.930 . S
H701 C734 0.929 . S
H702 C735 0.931 . S
H703 C737 0.930 . S
H704 C738 0.932 . S
H705 C740 0.931 . S
H706 C741 0.929 . S
H707 C743 0.929 . S
H708 C744 0.931 . S
H709 C746 0.929 . S
N710 C730 1.433 . S
N710 C736 1.435 . S
N710 C742 1.423 . S
H711 C747 0.932 . S
C712 N687 1.433 . S
C712 C713 1.363 . S
C712 C717 1.370 . S
C713 H686 0.929 . S
C713 C712 1.363 . S
C713 C714 1.385 . S
C714 H688 0.930 . S
C714 C713 1.385 . S
C714 C715 1.357 . S
C715 C714 1.357 . S
C715 C716 1.406 . S
C716 H690 0.929 . S
C716 C715 1.406 . S
C716 C717 1.391 . S
C717 H689 0.931 . S
C717 C712 1.370 . S
C717 C716 1.391 . S
C718 N687 1.435 . S
C718 C719 1.358 . S
C718 C723 1.371 . S
C719 H691 0.930 . S
C719 C718 1.358 . S
C719 C720 1.405 . S
C720 H692 0.932 . S
C720 C719 1.405 . S
C720 C721 1.383 . S
C721 C720 1.383 . S
C721 C722 1.393 . S
C722 H694 0.931 . S
C722 C721 1.393 . S
C722 C723 1.382 . S
C723 H693 0.929 . S
C723 C718 1.371 . S
C723 C722 1.382 . S
C724 N687 1.423 . S
C724 C725 1.362 . S
C724 C729 1.388 . S
C725 H695 0.929 . S
C725 C724 1.362 . S
C725 C726 1.376 . S
C726 H697 0.931 . S
C726 C725 1.376 . S
C726 C727 1.396 . S
C727 C726 1.396 . S
C727 C728 1.348 . S
C727 C745 1.472 . S
C728 H698 0.929 . S
C728 C727 1.348 . S
C728 C729 1.443 . S
C729 H696 0.932 . S
C729 C724 1.388 . S
C729 C728 1.443 . S
C730 N710 1.433 . S
C730 C731 1.363 . S
C730 C735 1.370 . S
C731 H699 0.929 . S
C731 C730 1.363 . S
C731 C732 1.385 . S
C732 H700 0.930 . S
C732 C731 1.385 . S
C732 C733 1.357 . S
C733 C732 1.357 . S
C733 C734 1.406 . S
C734 H701 0.929 . S
C734 C733 1.406 . S
C734 C735 1.391 . S
C735 H702 0.931 . S
C735 C730 1.370 . S
C735 C734 1.391 . S
C736 N710 1.435 . S
C736 C737 1.358 . S
C736 C741 1.371 . S
C737 H703 0.930 . S
C737 C736 1.358 . S
C737 C738 1.405 . S
C738 H704 0.932 . S
C738 C737 1.405 . S
C738 C739 1.383 . S
C739 C738 1.383 . S
C739 C740 1.393 . S
C740 H705 0.931 . S
C740 C739 1.393 . S
C740 C741 1.382 . S
C741 H706 0.929 . S
C741 C736 1.371 . S
C741 C740 1.382 . S
C742 N710 1.423 . S
C742 C743 1.362 . S
C742 C747 1.388 . S
C743 H707 0.929 . S
C743 C742 1.362 . S
C743 C744 1.376 . S
C744 H708 0.931 . S
C744 C743 1.376 . S
C744 C745 1.396 . S
C745 C727 1.472 . S
C745 C744 1.396 . S
C745 C746 1.348 . S
C746 H709 0.929 . S
C746 C745 1.348 . S
C746 C747 1.443 . S
C747 H711 0.932 . S
C747 C742 1.388 . S
C747 C746 1.443 . S
H748 C775 0.929 . S
N749 C774 1.433 . S
N749 C780 1.435 . S
N749 C786 1.423 . S
H750 C776 0.930 . S
H751 C779 0.931 . S
H752 C778 0.929 . S
H753 C781 0.930 . S
H754 C782 0.932 . S
H755 C785 0.929 . S
H756 C784 0.931 . S
H757 C787 0.929 . S
H758 C791 0.932 . S
H759 C788 0.931 . S
H760 C790 0.929 . S
H761 C793 0.929 . S
H762 C794 0.930 . S
H763 C796 0.929 . S
H764 C797 0.931 . S
H765 C799 0.930 . S
H766 C800 0.932 . S
H767 C802 0.931 . S
H768 C803 0.929 . S
H769 C805 0.929 . S
H770 C806 0.931 . S
H771 C808 0.929 . S
N772 C792 1.433 . S
N772 C798 1.435 . S
N772 C804 1.423 . S
H773 C809 0.932 . S
C774 N749 1.433 . S
C774 C775 1.363 . S
C774 C779 1.370 . S
C775 H748 0.929 . S
C775 C774 1.363 . S
C775 C776 1.385 . S
C776 H750 0.930 . S
C776 C775 1.385 . S
C776 C777 1.357 . S
C777 C776 1.357 . S
C777 C778 1.406 . S
C778 H752 0.929 . S
C778 C777 1.406 . S
C778 C779 1.391 . S
C779 H751 0.931 . S
C779 C774 1.370 . S
C779 C778 1.391 . S
C780 N749 1.435 . S
C780 C781 1.358 . S
C780 C785 1.371 . S
C781 H753 0.930 . S
C781 C780 1.358 . S
C781 C782 1.405 . S
C782 H754 0.932 . S
C782 C781 1.405 . S
C782 C783 1.383 . S
C783 C782 1.383 . S
C783 C784 1.393 . S
C784 H756 0.931 . S
C784 C783 1.393 . S
C784 C785 1.382 . S
C785 H755 0.929 . S
C785 C780 1.371 . S
C785 C784 1.382 . S
C786 N749 1.423 . S
C786 C787 1.362 . S
C786 C791 1.388 . S
C787 H757 0.929 . S
C787 C786 1.362 . S
C787 C788 1.376 . S
C788 H759 0.931 . S
C788 C787 1.376 . S
C788 C789 1.396 . S
C789 C788 1.396 . S
C789 C790 1.348 . S
C789 C807 1.472 . S
C790 H760 0.929 . S
C790 C789 1.348 . S
C790 C791 1.443 . S
C791 H758 0.932 . S
C791 C786 1.388 . S
C791 C790 1.443 . S
C792 N772 1.433 . S
C792 C793 1.363 . S
C792 C797 1.370 . S
C793 H761 0.929 . S
C793 C792 1.363 . S
C793 C794 1.385 . S
C794 H762 0.930 . S
C794 C793 1.385 . S
C794 C795 1.357 . S
C795 C794 1.357 . S
C795 C796 1.406 . S
C796 H763 0.929 . S
C796 C795 1.406 . S
C796 C797 1.391 . S
C797 H764 0.931 . S
C797 C792 1.370 . S
C797 C796 1.391 . S
C798 N772 1.435 . S
C798 C799 1.358 . S
C798 C803 1.371 . S
C799 H765 0.930 . S
C799 C798 1.358 . S
C799 C800 1.405 . S
C800 H766 0.932 . S
C800 C799 1.405 . S
C800 C801 1.383 . S
C801 C800 1.383 . S
C801 C802 1.393 . S
C802 H767 0.931 . S
C802 C801 1.393 . S
C802 C803 1.382 . S
C803 H768 0.929 . S
C803 C798 1.371 . S
C803 C802 1.382 . S
C804 N772 1.423 . S
C804 C805 1.362 . S
C804 C809 1.388 . S
C805 H769 0.929 . S
C805 C804 1.362 . S
C805 C806 1.376 . S
C806 H770 0.931 . S
C806 C805 1.376 . S
C806 C807 1.396 . S
C807 C789 1.472 . S
C807 C806 1.396 . S
C807 C808 1.348 . S
C808 H771 0.929 . S
C808 C807 1.348 . S
C808 C809 1.443 . S
C809 H773 0.932 . S
C809 C804 1.388 . S
C809 C808 1.443 . S
H810 C837 0.929 . S
N811 C836 1.433 . S
N811 C842 1.435 . S
N811 C848 1.423 . S
H812 C838 0.930 . S
H813 C841 0.931 . S
H814 C840 0.929 . S
H815 C843 0.930 . S
H816 C844 0.932 . S
H817 C847 0.929 . S
H818 C846 0.931 . S
H819 C849 0.929 . S
H820 C853 0.932 1_655 S
H821 C850 0.931 . S
H822 C852 0.929 . S
H823 C855 0.929 . S
H824 C856 0.930 . S
H825 C858 0.929 . S
H826 C859 0.931 . S
H827 C861 0.930 . S
H828 C862 0.932 . S
H829 C864 0.931 . S
H830 C865 0.929 . S
H831 C867 0.929 . S
H832 C868 0.931 . S
H833 C870 0.929 . S
N834 C854 1.433 . S
N834 C860 1.435 . S
N834 C866 1.423 . S
H835 C871 0.932 1_655 S
C836 N811 1.433 . S
C836 C837 1.363 . S
C836 C841 1.370 1_455 S
C837 H810 0.929 . S
C837 C836 1.363 . S
C837 C838 1.385 . S
C838 H812 0.930 . S
C838 C837 1.385 . S
C838 C839 1.357 1_455 S
C839 C838 1.357 1_655 S
C839 C840 1.406 . S
C840 H814 0.929 . S
C840 C839 1.406 . S
C840 C841 1.391 . S
C841 H813 0.931 . S
C841 C836 1.370 1_655 S
C841 C840 1.391 . S
C842 N811 1.435 . S
C842 C843 1.358 1_455 S
C842 C847 1.371 . S
C843 H815 0.930 . S
C843 C842 1.358 1_655 S
C843 C844 1.405 . S
C844 H816 0.932 . S
C844 C843 1.405 . S
C844 C845 1.383 1_655 S
C845 C844 1.383 1_455 S
C845 C846 1.393 . S
C846 H818 0.931 . S
C846 C845 1.393 . S
C846 C847 1.382 . S
C847 H817 0.929 . S
C847 C842 1.371 . S
C847 C846 1.382 . S
C848 N811 1.423 . S
C848 C849 1.362 . S
C848 C853 1.388 . S
C849 H819 0.929 . S
C849 C848 1.362 . S
C849 C850 1.376 . S
C850 H821 0.931 . S
C850 C849 1.376 . S
C850 C851 1.396 . S
C851 C850 1.396 . S
C851 C852 1.348 . S
C851 C869 1.472 . S
C852 H822 0.929 . S
C852 C851 1.348 . S
C852 C853 1.443 . S
C853 H820 0.932 1_455 S
C853 C848 1.388 . S
C853 C852 1.443 . S
C854 N834 1.433 . S
C854 C855 1.363 . S
C854 C859 1.370 1_455 S
C855 H823 0.929 . S
C855 C854 1.363 . S
C855 C856 1.385 . S
C856 H824 0.930 . S
C856 C855 1.385 . S
C856 C857 1.357 1_455 S
C857 C856 1.357 1_655 S
C857 C858 1.406 . S
C858 H825 0.929 . S
C858 C857 1.406 . S
C858 C859 1.391 . S
C859 H826 0.931 . S
C859 C854 1.370 1_655 S
C859 C858 1.391 . S
C860 N834 1.435 . S
C860 C861 1.358 1_455 S
C860 C865 1.371 . S
C861 H827 0.930 . S
C861 C860 1.358 1_655 S
C861 C862 1.405 . S
C862 H828 0.932 . S
C862 C861 1.405 . S
C862 C863 1.383 1_655 S
C863 C862 1.383 1_455 S
C863 C864 1.393 . S
C864 H829 0.931 . S
C864 C863 1.393 . S
C864 C865 1.382 . S
C865 H830 0.929 . S
C865 C860 1.371 . S
C865 C864 1.382 . S
C866 N834 1.423 . S
C866 C867 1.362 . S
C866 C871 1.388 . S
C867 H831 0.929 . S
C867 C866 1.362 . S
C867 C868 1.376 . S
C868 H832 0.931 . S
C868 C867 1.376 . S
C868 C869 1.396 . S
C869 C851 1.472 . S
C869 C868 1.396 . S
C869 C870 1.348 . S
C870 H833 0.929 . S
C870 C869 1.348 . S
C870 C871 1.443 . S
C871 H835 0.932 1_455 S
C871 C866 1.388 . S
C871 C870 1.443 . S
H872 C899 0.929 . S
N873 C898 1.433 . S
N873 C904 1.435 . S
N873 C910 1.423 . S
H874 C900 0.930 . S
H875 C903 0.931 . S
H876 C902 0.929 . S
H877 C905 0.930 . S
H878 C906 0.932 . S
H879 C909 0.929 . S
H880 C908 0.931 . S
H881 C911 0.929 . S
H882 C915 0.932 . S
H883 C912 0.931 . S
H884 C914 0.929 . S
H885 C917 0.929 . S
H886 C918 0.930 . S
H887 C920 0.929 . S
H888 C921 0.931 . S
H889 C923 0.930 . S
H890 C924 0.932 . S
H891 C926 0.931 . S
H892 C927 0.929 . S
H893 C929 0.929 . S
H894 C930 0.931 . S
H895 C932 0.929 . S
N896 C916 1.433 . S
N896 C922 1.435 . S
N896 C928 1.423 . S
H897 C933 0.932 . S
C898 N873 1.433 . S
C898 C899 1.363 . S
C898 C903 1.370 . S
C899 H872 0.929 . S
C899 C898 1.363 . S
C899 C900 1.385 . S
C900 H874 0.930 . S
C900 C899 1.385 . S
C900 C901 1.357 . S
C901 C900 1.357 . S
C901 C902 1.406 . S
C902 H876 0.929 . S
C902 C901 1.406 . S
C902 C903 1.391 . S
C903 H875 0.931 . S
C903 C898 1.370 . S
C903 C902 1.391 . S
C904 N873 1.435 . S
C904 C905 1.358 . S
C904 C909 1.371 . S
C905 H877 0.930 . S
C905 C904 1.358 . S
C905 C906 1.405 . S
C906 H878 0.932 . S
C906 C905 1.405 . S
C906 C907 1.383 . S
C907 C906 1.383 . S
C907 C908 1.393 . S
C908 H880 0.931 . S
C908 C907 1.393 . S
C908 C909 1.382 . S
C909 H879 0.929 . S
C909 C904 1.371 . S
C909 C908 1.382 . S
C910 N873 1.423 . S
C910 C911 1.362 . S
C910 C915 1.388 . S
C911 H881 0.929 . S
C911 C910 1.362 . S
C911 C912 1.376 . S
C912 H883 0.931 . S
C912 C911 1.376 . S
C912 C913 1.396 . S
C913 C912 1.396 . S
C913 C914 1.348 . S
C913 C931 1.472 . S
C914 H884 0.929 . S
C914 C913 1.348 . S
C914 C915 1.443 . S
C915 H882 0.932 . S
C915 C910 1.388 . S
C915 C914 1.443 . S
C916 N896 1.433 . S
C916 C917 1.363 . S
C916 C921 1.370 . S
C917 H885 0.929 . S
C917 C916 1.363 . S
C917 C918 1.385 . S
C918 H886 0.930 . S
C918 C917 1.385 . S
C918 C919 1.357 . S
C919 C918 1.357 . S
C919 C920 1.406 . S
C920 H887 0.929 . S
C920 C919 1.406 . S
C920 C921 1.391 . S
C921 H888 0.931 . S
C921 C916 1.370 . S
C921 C920 1.391 . S
C922 N896 1.435 . S
C922 C923 1.358 . S
C922 C927 1.371 . S
C923 H889 0.930 . S
C923 C922 1.358 . S
C923 C924 1.405 . S
C924 H890 0.932 . S
C924 C923 1.405 . S
C924 C925 1.383 . S
C925 C924 1.383 . S
C925 C926 1.393 . S
C926 H891 0.931 . S
C926 C925 1.393 . S
C926 C927 1.382 . S
C927 H892 0.929 . S
C927 C922 1.371 . S
C927 C926 1.382 . S
C928 N896 1.423 . S
C928 C929 1.362 . S
C928 C933 1.388 . S
C929 H893 0.929 . S
C929 C928 1.362 . S
C929 C930 1.376 . S
C930 H894 0.931 . S
C930 C929 1.376 . S
C930 C931 1.396 . S
C931 C913 1.472 . S
C931 C930 1.396 . S
C931 C932 1.348 . S
C932 H895 0.929 . S
C932 C931 1.348 . S
C932 C933 1.443 . S
C933 H897 0.932 . S
C933 C928 1.388 . S
C933 C932 1.443 . S
H934 C961 0.929 . S
N935 C960 1.433 . S
N935 C966 1.435 . S
N935 C972 1.423 . S
H936 C962 0.930 . S
H937 C965 0.931 . S
H938 C964 0.929 . S
H939 C967 0.930 . S
H940 C968 0.932 . S
H941 C971 0.929 . S
H942 C970 0.931 . S
H943 C973 0.929 . S
H944 C977 0.932 1_545 S
H945 C974 0.931 . S
H946 C976 0.929 . S
H947 C979 0.929 . S
H948 C980 0.930 . S
H949 C982 0.929 . S
H950 C983 0.931 . S
H951 C985 0.930 . S
H952 C986 0.932 . S
H953 C988 0.931 . S
H954 C989 0.929 . S
H955 C991 0.929 . S
H956 C992 0.931 . S
H957 C994 0.929 . S
N958 C978 1.433 . S
N958 C984 1.435 . S
N958 C990 1.423 . S
H959 C995 0.932 1_545 S
C960 N935 1.433 . S
C960 C961 1.363 . S
C960 C965 1.370 1_565 S
C961 H934 0.929 . S
C961 C960 1.363 . S
C961 C962 1.385 . S
C962 H936 0.930 . S
C962 C961 1.385 . S
C962 C963 1.357 1_565 S
C963 C962 1.357 1_545 S
C963 C964 1.406 . S
C964 H938 0.929 . S
C964 C963 1.406 . S
C964 C965 1.391 . S
C965 H937 0.931 . S
C965 C960 1.370 1_545 S
C965 C964 1.391 . S
C966 N935 1.435 . S
C966 C967 1.358 1_565 S
C966 C971 1.371 . S
C967 H939 0.930 . S
C967 C966 1.358 1_545 S
C967 C968 1.405 . S
C968 H940 0.932 . S
C968 C967 1.405 . S
C968 C969 1.383 1_545 S
C969 C968 1.383 1_565 S
C969 C970 1.393 . S
C970 H942 0.931 . S
C970 C969 1.393 . S
C970 C971 1.382 . S
C971 H941 0.929 . S
C971 C966 1.371 . S
C971 C970 1.382 . S
C972 N935 1.423 . S
C972 C973 1.362 . S
C972 C977 1.388 . S
C973 H943 0.929 . S
C973 C972 1.362 . S
C973 C974 1.376 . S
C974 H945 0.931 . S
C974 C973 1.376 . S
C974 C975 1.396 . S
C975 C974 1.396 . S
C975 C976 1.348 . S
C975 C993 1.472 . S
C976 H946 0.929 . S
C976 C975 1.348 . S
C976 C977 1.443 . S
C977 H944 0.932 1_565 S
C977 C972 1.388 . S
C977 C976 1.443 . S
C978 N958 1.433 . S
C978 C979 1.363 . S
C978 C983 1.370 1_565 S
C979 H947 0.929 . S
C979 C978 1.363 . S
C979 C980 1.385 . S
C980 H948 0.930 . S
C980 C979 1.385 . S
C980 C981 1.357 1_565 S
C981 C980 1.357 1_545 S
C981 C982 1.406 . S
C982 H949 0.929 . S
C982 C981 1.406 . S
C982 C983 1.391 . S
C983 H950 0.931 . S
C983 C978 1.370 1_545 S
C983 C982 1.391 . S
C984 N958 1.435 . S
C984 C985 1.358 1_565 S
C984 C989 1.371 . S
C985 H951 0.930 . S
C985 C984 1.358 1_545 S
C985 C986 1.405 . S
C986 H952 0.932 . S
C986 C985 1.405 . S
C986 C987 1.383 1_545 S
C987 C986 1.383 1_565 S
C987 C988 1.393 . S
C988 H953 0.931 . S
C988 C987 1.393 . S
C988 C989 1.382 . S
C989 H954 0.929 . S
C989 C984 1.371 . S
C989 C988 1.382 . S
C990 N958 1.423 . S
C990 C991 1.362 . S
C990 C995 1.388 . S
C991 H955 0.929 . S
C991 C990 1.362 . S
C991 C992 1.376 . S
C992 H956 0.931 . S
C992 C991 1.376 . S
C992 C993 1.396 . S
C993 C975 1.472 . S
C993 C992 1.396 . S
C993 C994 1.348 . S
C994 H957 0.929 . S
C994 C993 1.348 . S
C994 C995 1.443 . S
C995 H959 0.932 1_565 S
C995 C990 1.388 . S
C995 C994 1.443 . S
H996 C1023 0.929 . S
N997 C1022 1.433 . S
N997 C1028 1.435 . S
N997 C1034 1.423 . S
H998 C1024 0.930 . S
H999 C1027 0.930 . S
H1000 C1026 0.939 . S
H1001 C1029 0.930 . S
H1002 C1030 0.932 . S
H1003 C1033 0.929 . S
H1004 C1032 0.931 . S
H1005 C1035 0.929 . S
H1006 C1039 0.932 . S
H1007 C1036 0.931 . S
H1008 C1038 0.919 1_545 S
H1009 C1041 0.929 . S
H1010 C1042 0.930 . S
H1011 C1044 0.929 . S
H1012 C1045 0.990 . S
H1013 C1047 0.930 . S
H1014 C1048 0.932 . S
H1015 C1050 0.931 . S
H1016 C1051 0.929 . S
H1017 C1053 0.929 . S
H1018 C1054 0.931 . S
H1019 C1056 0.903 1_545 S
N1020 C1040 1.433 . S
N1020 C1046 1.435 . S
N1020 C1052 1.423 . S
H1021 C1057 0.932 . S
C1022 N997 1.433 . S
C1022 C1023 1.363 . S
C1022 C1027 1.366 1_565 S
C1023 H996 0.929 . S
C1023 C1022 1.363 . S
C1023 C1024 1.385 . S
C1024 H998 0.930 . S
C1024 C1023 1.385 . S
C1024 C1025 1.357 . S
C1025 C1024 1.357 . S
C1025 C1026 1.410 1_565 S
C1026 H1000 0.939 . S
C1026 C1025 1.410 1_545 S
C1026 C1027 1.389 . S
C1027 H999 0.930 . S
C1027 C1022 1.366 1_545 S
C1027 C1026 1.389 . S
C1028 N997 1.435 . S
C1028 C1029 1.358 1_565 S
C1028 C1033 1.371 . S
C1029 H1001 0.930 . S
C1029 C1028 1.358 1_545 S
C1029 C1030 1.405 . S
C1030 H1002 0.932 . S
C1030 C1029 1.405 . S
C1030 C1031 1.383 . S
C1031 C1030 1.383 . S
C1031 C1032 1.393 1_545 S
C1032 H1004 0.931 . S
C1032 C1031 1.393 1_565 S
C1032 C1033 1.382 . S
C1033 H1003 0.929 . S
C1033 C1028 1.371 . S
C1033 C1032 1.382 . S
C1034 N997 1.423 . S
C1034 C1035 1.362 . S
C1034 C1039 1.388 1_565 S
C1035 H1005 0.929 . S
C1035 C1034 1.362 . S
C1035 C1036 1.376 . S
C1036 H1007 0.931 . S
C1036 C1035 1.376 . S
C1036 C1037 1.396 . S
C1037 C1036 1.396 . S
C1037 C1038 1.385 . S
C1037 C1055 1.472 . S
C1038 H1008 0.919 1_565 S
C1038 C1037 1.385 . S
C1038 C1039 1.417 1_565 S
C1039 H1006 0.932 . S
C1039 C1034 1.388 1_545 S
C1039 C1038 1.417 1_545 S
C1040 N1020 1.433 . S
C1040 C1041 1.363 . S
C1040 C1045 1.326 1_565 S
C1041 H1009 0.929 . S
C1041 C1040 1.363 . S
C1041 C1042 1.385 . S
C1042 H1010 0.930 . S
C1042 C1041 1.385 . S
C1042 C1043 1.357 . S
C1043 C1042 1.357 . S
C1043 C1044 1.406 1_565 S
C1044 H1011 0.929 . S
C1044 C1043 1.406 1_545 S
C1044 C1045 1.380 . S
C1045 H1012 0.990 . S
C1045 C1040 1.326 1_545 S
C1045 C1044 1.380 . S
C1046 N1020 1.435 . S
C1046 C1047 1.358 1_565 S
C1046 C1051 1.371 . S
C1047 H1013 0.930 . S
C1047 C1046 1.358 1_545 S
C1047 C1048 1.405 . S
C1048 H1014 0.932 . S
C1048 C1047 1.405 . S
C1048 C1049 1.383 . S
C1049 C1048 1.383 . S
C1049 C1050 1.393 1_545 S
C1050 H1015 0.931 . S
C1050 C1049 1.393 1_565 S
C1050 C1051 1.382 . S
C1051 H1016 0.929 . S
C1051 C1046 1.371 . S
C1051 C1050 1.382 . S
C1052 N1020 1.423 . S
C1052 C1053 1.362 . S
C1052 C1057 1.388 1_565 S
C1053 H1017 0.929 . S
C1053 C1052 1.362 . S
C1053 C1054 1.376 . S
C1054 H1018 0.931 . S
C1054 C1053 1.376 . S
C1054 C1055 1.396 . S
C1055 C1037 1.472 . S
C1055 C1054 1.396 . S
C1055 C1056 1.359 . S
C1056 H1019 0.903 1_565 S
C1056 C1055 1.359 . S
C1056 C1057 1.458 1_565 S
C1057 H1021 0.932 . S
C1057 C1052 1.388 1_545 S
C1057 C1056 1.458 1_545 S
H1058 C1085 0.929 . S
N1059 C1084 1.433 . S
N1059 C1090 1.435 . S
N1059 C1096 1.423 . S
H1060 C1086 0.930 . S
H1061 C1089 0.931 . S
H1062 C1088 0.929 . S
H1063 C1091 0.930 . S
H1064 C1092 0.932 . S
H1065 C1095 0.929 . S
H1066 C1094 0.931 . S
H1067 C1097 0.929 . S
H1068 C1101 0.932 1_455 S
H1069 C1098 0.931 . S
H1070 C1100 0.929 . S
H1071 C1103 0.929 . S
H1072 C1104 0.930 . S
H1073 C1106 0.929 . S
H1074 C1107 0.931 . S
H1075 C1109 0.930 . S
H1076 C1110 0.932 . S
H1077 C1112 0.931 . S
H1078 C1113 0.929 . S
H1079 C1115 0.929 . S
H1080 C1116 0.931 . S
H1081 C1118 0.929 . S
N1082 C1102 1.433 . S
N1082 C1108 1.435 . S
N1082 C1114 1.423 . S
H1083 C1119 0.932 1_455 S
C1084 N1059 1.433 . S
C1084 C1085 1.363 . S
C1084 C1089 1.370 1_655 S
C1085 H1058 0.929 . S
C1085 C1084 1.363 . S
C1085 C1086 1.385 . S
C1086 H1060 0.930 . S
C1086 C1085 1.385 . S
C1086 C1087 1.357 1_655 S
C1087 C1086 1.357 1_455 S
C1087 C1088 1.406 . S
C1088 H1062 0.929 . S
C1088 C1087 1.406 . S
C1088 C1089 1.391 . S
C1089 H1061 0.931 . S
C1089 C1084 1.370 1_455 S
C1089 C1088 1.391 . S
C1090 N1059 1.435 . S
C1090 C1091 1.358 1_655 S
C1090 C1095 1.371 . S
C1091 H1063 0.930 . S
C1091 C1090 1.358 1_455 S
C1091 C1092 1.405 . S
C1092 H1064 0.932 . S
C1092 C1091 1.405 . S
C1092 C1093 1.383 1_455 S
C1093 C1092 1.383 1_655 S
C1093 C1094 1.393 . S
C1094 H1066 0.931 . S
C1094 C1093 1.393 . S
C1094 C1095 1.382 . S
C1095 H1065 0.929 . S
C1095 C1090 1.371 . S
C1095 C1094 1.382 . S
C1096 N1059 1.423 . S
C1096 C1097 1.362 . S
C1096 C1101 1.388 . S
C1097 H1067 0.929 . S
C1097 C1096 1.362 . S
C1097 C1098 1.376 . S
C1098 H1069 0.931 . S
C1098 C1097 1.376 . S
C1098 C1099 1.396 . S
C1099 C1098 1.396 . S
C1099 C1100 1.348 . S
C1099 C1117 1.472 . S
C1100 H1070 0.929 . S
C1100 C1099 1.348 . S
C1100 C1101 1.443 . S
C1101 H1068 0.932 1_655 S
C1101 C1096 1.388 . S
C1101 C1100 1.443 . S
C1102 N1082 1.433 . S
C1102 C1103 1.363 . S
C1102 C1107 1.370 1_655 S
C1103 H1071 0.929 . S
C1103 C1102 1.363 . S
C1103 C1104 1.385 . S
C1104 H1072 0.930 . S
C1104 C1103 1.385 . S
C1104 C1105 1.357 1_655 S
C1105 C1104 1.357 1_455 S
C1105 C1106 1.406 . S
C1106 H1073 0.929 . S
C1106 C1105 1.406 . S
C1106 C1107 1.391 . S
C1107 H1074 0.931 . S
C1107 C1102 1.370 1_455 S
C1107 C1106 1.391 . S
C1108 N1082 1.435 . S
C1108 C1109 1.358 1_655 S
C1108 C1113 1.371 . S
C1109 H1075 0.930 . S
C1109 C1108 1.358 1_455 S
C1109 C1110 1.405 . S
C1110 H1076 0.932 . S
C1110 C1109 1.405 . S
C1110 C1111 1.383 1_455 S
C1111 C1110 1.383 1_655 S
C1111 C1112 1.393 . S
C1112 H1077 0.931 . S
C1112 C1111 1.393 . S
C1112 C1113 1.382 . S
C1113 H1078 0.929 . S
C1113 C1108 1.371 . S
C1113 C1112 1.382 . S
C1114 N1082 1.423 . S
C1114 C1115 1.362 . S
C1114 C1119 1.388 . S
C1115 H1079 0.929 . S
C1115 C1114 1.362 . S
C1115 C1116 1.376 . S
C1116 H1080 0.931 . S
C1116 C1115 1.376 . S
C1116 C1117 1.396 . S
C1117 C1099 1.472 . S
C1117 C1116 1.396 . S
C1117 C1118 1.348 . S
C1118 H1081 0.929 . S
C1118 C1117 1.348 . S
C1118 C1119 1.443 . S
C1119 H1083 0.932 1_655 S
C1119 C1114 1.388 . S
C1119 C1118 1.443 . S
H1120 C1147 0.929 . S
N1121 C1146 1.433 . S
N1121 C1152 1.435 . S
N1121 C1158 1.423 . S
H1122 C1148 0.930 . S
H1123 C1151 0.931 . S
H1124 C1150 0.929 . S
H1125 C1153 0.930 . S
H1126 C1154 0.932 . S
H1127 C1157 0.929 . S
H1128 C1156 0.931 . S
H1129 C1159 0.929 . S
H1130 C1163 0.932 . S
H1131 C1160 0.931 . S
H1132 C1162 0.929 . S
H1133 C1165 0.929 . S
H1134 C1166 0.930 . S
H1135 C1168 0.929 . S
H1136 C1169 0.931 . S
H1137 C1171 0.930 . S
H1138 C1172 0.932 . S
H1139 C1174 0.931 . S
H1140 C1175 0.929 . S
H1141 C1177 0.929 . S
H1142 C1178 0.931 . S
H1143 C1180 0.929 . S
N1144 C1164 1.433 . S
N1144 C1170 1.435 . S
N1144 C1176 1.423 . S
H1145 C1181 0.932 . S
C1146 N1121 1.433 . S
C1146 C1147 1.363 . S
C1146 C1151 1.370 . S
C1147 H1120 0.929 . S
C1147 C1146 1.363 . S
C1147 C1148 1.385 . S
C1148 H1122 0.930 . S
C1148 C1147 1.385 . S
C1148 C1149 1.357 . S
C1149 C1148 1.357 . S
C1149 C1150 1.406 . S
C1150 H1124 0.929 . S
C1150 C1149 1.406 . S
C1150 C1151 1.391 . S
C1151 H1123 0.931 . S
C1151 C1146 1.370 . S
C1151 C1150 1.391 . S
C1152 N1121 1.435 . S
C1152 C1153 1.358 . S
C1152 C1157 1.371 . S
C1153 H1125 0.930 . S
C1153 C1152 1.358 . S
C1153 C1154 1.405 . S
C1154 H1126 0.932 . S
C1154 C1153 1.405 . S
C1154 C1155 1.383 . S
C1155 C1154 1.383 . S
C1155 C1156 1.393 . S
C1156 H1128 0.931 . S
C1156 C1155 1.393 . S
C1156 C1157 1.382 . S
C1157 H1127 0.929 . S
C1157 C1152 1.371 . S
C1157 C1156 1.382 . S
C1158 N1121 1.423 . S
C1158 C1159 1.362 . S
C1158 C1163 1.388 . S
C1159 H1129 0.929 . S
C1159 C1158 1.362 . S
C1159 C1160 1.376 . S
C1160 H1131 0.931 . S
C1160 C1159 1.376 . S
C1160 C1161 1.396 . S
C1161 C1160 1.396 . S
C1161 C1162 1.348 . S
C1161 C1179 1.472 . S
C1162 H1132 0.929 . S
C1162 C1161 1.348 . S
C1162 C1163 1.443 . S
C1163 H1130 0.932 . S
C1163 C1158 1.388 . S
C1163 C1162 1.443 . S
C1164 N1144 1.433 . S
C1164 C1165 1.363 . S
C1164 C1169 1.370 . S
C1165 H1133 0.929 . S
C1165 C1164 1.363 . S
C1165 C1166 1.385 . S
C1166 H1134 0.930 . S
C1166 C1165 1.385 . S
C1166 C1167 1.357 . S
C1167 C1166 1.357 . S
C1167 C1168 1.406 . S
C1168 H1135 0.929 . S
C1168 C1167 1.406 . S
C1168 C1169 1.391 . S
C1169 H1136 0.931 . S
C1169 C1164 1.370 . S
C1169 C1168 1.391 . S
C1170 N1144 1.435 . S
C1170 C1171 1.358 . S
C1170 C1175 1.371 . S
C1171 H1137 0.930 . S
C1171 C1170 1.358 . S
C1171 C1172 1.405 . S
C1172 H1138 0.932 . S
C1172 C1171 1.405 . S
C1172 C1173 1.383 . S
C1173 C1172 1.383 . S
C1173 C1174 1.393 . S
C1174 H1139 0.931 . S
C1174 C1173 1.393 . S
C1174 C1175 1.382 . S
C1175 H1140 0.929 . S
C1175 C1170 1.371 . S
C1175 C1174 1.382 . S
C1176 N1144 1.423 . S
C1176 C1177 1.362 . S
C1176 C1181 1.388 . S
C1177 H1141 0.929 . S
C1177 C1176 1.362 . S
C1177 C1178 1.376 . S
C1178 H1142 0.931 . S
C1178 C1177 1.376 . S
C1178 C1179 1.396 . S
C1179 C1161 1.472 . S
C1179 C1178 1.396 . S
C1179 C1180 1.348 . S
C1180 H1143 0.929 . S
C1180 C1179 1.348 . S
C1180 C1181 1.443 . S
C1181 H1145 0.932 . S
C1181 C1176 1.388 . S
C1181 C1180 1.443 . S
H1182 C1209 0.929 . S
N1183 C1208 1.433 . S
N1183 C1214 1.435 . S
N1183 C1220 1.423 . S
H1184 C1210 0.930 . S
H1185 C1213 0.931 . S
H1186 C1212 0.929 . S
H1187 C1215 0.930 . S
H1188 C1216 0.932 . S
H1189 C1219 0.929 . S
H1190 C1218 0.931 . S
H1191 C1221 0.929 . S
H1192 C1225 0.932 . S
H1193 C1222 0.931 . S
H1194 C1224 0.929 . S
H1195 C1227 0.929 . S
H1196 C1228 0.930 . S
H1197 C1230 0.929 . S
H1198 C1231 0.931 . S
H1199 C1233 0.930 . S
H1200 C1234 0.932 . S
H1201 C1236 0.931 . S
H1202 C1237 0.929 . S
H1203 C1239 0.929 . S
H1204 C1240 0.931 . S
H1205 C1242 0.929 . S
N1206 C1226 1.433 . S
N1206 C1232 1.435 . S
N1206 C1238 1.423 . S
H1207 C1243 0.932 . S
C1208 N1183 1.433 . S
C1208 C1209 1.363 . S
C1208 C1213 1.370 . S
C1209 H1182 0.929 . S
C1209 C1208 1.363 . S
C1209 C1210 1.385 . S
C1210 H1184 0.930 . S
C1210 C1209 1.385 . S
C1210 C1211 1.357 . S
C1211 C1210 1.357 . S
C1211 C1212 1.406 . S
C1212 H1186 0.929 . S
C1212 C1211 1.406 . S
C1212 C1213 1.391 . S
C1213 H1185 0.931 . S
C1213 C1208 1.370 . S
C1213 C1212 1.391 . S
C1214 N1183 1.435 . S
C1214 C1215 1.358 . S
C1214 C1219 1.371 . S
C1215 H1187 0.930 . S
C1215 C1214 1.358 . S
C1215 C1216 1.405 . S
C1216 H1188 0.932 . S
C1216 C1215 1.405 . S
C1216 C1217 1.383 . S
C1217 C1216 1.383 . S
C1217 C1218 1.393 . S
C1218 H1190 0.931 . S
C1218 C1217 1.393 . S
C1218 C1219 1.382 . S
C1219 H1189 0.929 . S
C1219 C1214 1.371 . S
C1219 C1218 1.382 . S
C1220 N1183 1.423 . S
C1220 C1221 1.362 . S
C1220 C1225 1.388 . S
C1221 H1191 0.929 . S
C1221 C1220 1.362 . S
C1221 C1222 1.376 . S
C1222 H1193 0.931 . S
C1222 C1221 1.376 . S
C1222 C1223 1.396 . S
C1223 C1222 1.396 . S
C1223 C1224 1.348 . S
C1223 C1241 1.472 . S
C1224 H1194 0.929 . S
C1224 C1223 1.348 . S
C1224 C1225 1.443 . S
C1225 H1192 0.932 . S
C1225 C1220 1.388 . S
C1225 C1224 1.443 . S
C1226 N1206 1.433 . S
C1226 C1227 1.363 . S
C1226 C1231 1.370 . S
C1227 H1195 0.929 . S
C1227 C1226 1.363 . S
C1227 C1228 1.385 . S
C1228 H1196 0.930 . S
C1228 C1227 1.385 . S
C1228 C1229 1.357 . S
C1229 C1228 1.357 . S
C1229 C1230 1.406 . S
C1230 H1197 0.929 . S
C1230 C1229 1.406 . S
C1230 C1231 1.391 . S
C1231 H1198 0.931 . S
C1231 C1226 1.370 . S
C1231 C1230 1.391 . S
C1232 N1206 1.435 . S
C1232 C1233 1.358 . S
C1232 C1237 1.371 . S
C1233 H1199 0.930 . S
C1233 C1232 1.358 . S
C1233 C1234 1.405 . S
C1234 H1200 0.932 . S
C1234 C1233 1.405 . S
C1234 C1235 1.383 . S
C1235 C1234 1.383 . S
C1235 C1236 1.393 . S
C1236 H1201 0.931 . S
C1236 C1235 1.393 . S
C1236 C1237 1.382 . S
C1237 H1202 0.929 . S
C1237 C1232 1.371 . S
C1237 C1236 1.382 . S
C1238 N1206 1.423 . S
C1238 C1239 1.362 . S
C1238 C1243 1.388 . S
C1239 H1203 0.929 . S
C1239 C1238 1.362 . S
C1239 C1240 1.376 . S
C1240 H1204 0.931 . S
C1240 C1239 1.376 . S
C1240 C1241 1.396 . S
C1241 C1223 1.472 . S
C1241 C1240 1.396 . S
C1241 C1242 1.348 . S
C1242 H1205 0.929 . S
C1242 C1241 1.348 . S
C1242 C1243 1.443 . S
C1243 H1207 0.932 . S
C1243 C1238 1.388 . S
C1243 C1242 1.443 . S
H1244 C1271 0.929 . S
N1245 C1270 1.433 . S
N1245 C1276 1.435 . S
N1245 C1282 1.423 . S
H1246 C1272 0.930 . S
H1247 C1275 0.931 . S
H1248 C1274 0.929 . S
H1249 C1277 0.930 . S
H1250 C1278 0.932 . S
H1251 C1281 0.929 . S
H1252 C1280 0.931 . S
H1253 C1283 0.929 . S
H1254 C1287 0.932 . S
H1255 C1284 0.931 . S
H1256 C1286 0.929 . S
H1257 C1289 0.929 . S
H1258 C1290 0.930 . S
H1259 C1292 0.929 . S
H1260 C1293 0.931 . S
H1261 C1295 0.930 . S
H1262 C1296 0.932 . S
H1263 C1298 0.931 . S
H1264 C1299 0.929 . S
H1265 C1301 0.929 . S
H1266 C1302 0.931 . S
H1267 C1304 0.929 . S
N1268 C1288 1.433 . S
N1268 C1294 1.435 . S
N1268 C1300 1.423 . S
H1269 C1305 0.932 . S
C1270 N1245 1.433 . S
C1270 C1271 1.363 . S
C1270 C1275 1.370 . S
C1271 H1244 0.929 . S
C1271 C1270 1.363 . S
C1271 C1272 1.385 . S
C1272 H1246 0.930 . S
C1272 C1271 1.385 . S
C1272 C1273 1.357 . S
C1273 C1272 1.357 . S
C1273 C1274 1.406 . S
C1274 H1248 0.929 . S
C1274 C1273 1.406 . S
C1274 C1275 1.391 . S
C1275 H1247 0.931 . S
C1275 C1270 1.370 . S
C1275 C1274 1.391 . S
C1276 N1245 1.435 . S
C1276 C1277 1.358 . S
C1276 C1281 1.371 . S
C1277 H1249 0.930 . S
C1277 C1276 1.358 . S
C1277 C1278 1.405 . S
C1278 H1250 0.932 . S
C1278 C1277 1.405 . S
C1278 C1279 1.383 . S
C1279 C1278 1.383 . S
C1279 C1280 1.393 . S
C1280 H1252 0.931 . S
C1280 C1279 1.393 . S
C1280 C1281 1.382 . S
C1281 H1251 0.929 . S
C1281 C1276 1.371 . S
C1281 C1280 1.382 . S
C1282 N1245 1.423 . S
C1282 C1283 1.362 . S
C1282 C1287 1.388 . S
C1283 H1253 0.929 . S
C1283 C1282 1.362 . S
C1283 C1284 1.376 . S
C1284 H1255 0.931 . S
C1284 C1283 1.376 . S
C1284 C1285 1.396 . S
C1285 C1284 1.396 . S
C1285 C1286 1.348 . S
C1285 C1303 1.472 . S
C1286 H1256 0.929 . S
C1286 C1285 1.348 . S
C1286 C1287 1.443 . S
C1287 H1254 0.932 . S
C1287 C1282 1.388 . S
C1287 C1286 1.443 . S
C1288 N1268 1.433 . S
C1288 C1289 1.363 . S
C1288 C1293 1.370 . S
C1289 H1257 0.929 . S
C1289 C1288 1.363 . S
C1289 C1290 1.385 . S
C1290 H1258 0.930 . S
C1290 C1289 1.385 . S
C1290 C1291 1.357 . S
C1291 C1290 1.357 . S
C1291 C1292 1.406 . S
C1292 H1259 0.929 . S
C1292 C1291 1.406 . S
C1292 C1293 1.391 . S
C1293 H1260 0.931 . S
C1293 C1288 1.370 . S
C1293 C1292 1.391 . S
C1294 N1268 1.435 . S
C1294 C1295 1.358 . S
C1294 C1299 1.371 . S
C1295 H1261 0.930 . S
C1295 C1294 1.358 . S
C1295 C1296 1.405 . S
C1296 H1262 0.932 . S
C1296 C1295 1.405 . S
C1296 C1297 1.383 . S
C1297 C1296 1.383 . S
C1297 C1298 1.393 . S
C1298 H1263 0.931 . S
C1298 C1297 1.393 . S
C1298 C1299 1.382 . S
C1299 H1264 0.929 . S
C1299 C1294 1.371 . S
C1299 C1298 1.382 . S
C1300 N1268 1.423 . S
C1300 C1301 1.362 . S
C1300 C1305 1.388 . S
C1301 H1265 0.929 . S
C1301 C1300 1.362 . S
C1301 C1302 1.376 . S
C1302 H1266 0.931 . S
C1302 C1301 1.376 . S
C1302 C1303 1.396 . S
C1303 C1285 1.472 . S
C1303 C1302 1.396 . S
C1303 C1304 1.348 . S
C1304 H1267 0.929 . S
C1304 C1303 1.348 . S
C1304 C1305 1.443 . S
C1305 H1269 0.932 . S
C1305 C1300 1.388 . S
C1305 C1304 1.443 . S
H1306 C1333 0.929 . S
N1307 C1332 1.433 . S
N1307 C1338 1.435 . S
N1307 C1344 1.423 . S
H1308 C1334 0.930 . S
H1309 C1337 0.931 . S
H1310 C1336 0.929 . S
H1311 C1339 0.930 . S
H1312 C1340 0.932 . S
H1313 C1343 0.929 . S
H1314 C1342 0.931 . S
H1315 C1345 0.929 . S
H1316 C1349 0.932 . S
H1317 C1346 0.931 . S
H1318 C1348 0.929 . S
H1319 C1351 0.929 . S
H1320 C1352 0.930 . S
H1321 C1354 0.929 . S
H1322 C1355 0.931 . S
H1323 C1357 0.930 . S
H1324 C1358 0.932 . S
H1325 C1360 0.931 . S
H1326 C1361 0.929 . S
H1327 C1363 0.929 . S
H1328 C1364 0.931 . S
H1329 C1366 0.929 . S
N1330 C1350 1.433 . S
N1330 C1356 1.435 . S
N1330 C1362 1.423 . S
H1331 C1367 0.932 . S
C1332 N1307 1.433 . S
C1332 C1333 1.363 . S
C1332 C1337 1.370 . S
C1333 H1306 0.929 . S
C1333 C1332 1.363 . S
C1333 C1334 1.385 . S
C1334 H1308 0.930 . S
C1334 C1333 1.385 . S
C1334 C1335 1.357 . S
C1335 C1334 1.357 . S
C1335 C1336 1.406 . S
C1336 H1310 0.929 . S
C1336 C1335 1.406 . S
C1336 C1337 1.391 . S
C1337 H1309 0.931 . S
C1337 C1332 1.370 . S
C1337 C1336 1.391 . S
C1338 N1307 1.435 . S
C1338 C1339 1.358 . S
C1338 C1343 1.371 . S
C1339 H1311 0.930 . S
C1339 C1338 1.358 . S
C1339 C1340 1.405 . S
C1340 H1312 0.932 . S
C1340 C1339 1.405 . S
C1340 C1341 1.383 . S
C1341 C1340 1.383 . S
C1341 C1342 1.393 . S
C1342 H1314 0.931 . S
C1342 C1341 1.393 . S
C1342 C1343 1.382 . S
C1343 H1313 0.929 . S
C1343 C1338 1.371 . S
C1343 C1342 1.382 . S
C1344 N1307 1.423 . S
C1344 C1345 1.362 . S
C1344 C1349 1.388 . S
C1345 H1315 0.929 . S
C1345 C1344 1.362 . S
C1345 C1346 1.376 . S
C1346 H1317 0.931 . S
C1346 C1345 1.376 . S
C1346 C1347 1.396 . S
C1347 C1346 1.396 . S
C1347 C1348 1.348 . S
C1347 C1365 1.472 . S
C1348 H1318 0.929 . S
C1348 C1347 1.348 . S
C1348 C1349 1.443 . S
C1349 H1316 0.932 . S
C1349 C1344 1.388 . S
C1349 C1348 1.443 . S
C1350 N1330 1.433 . S
C1350 C1351 1.363 . S
C1350 C1355 1.370 . S
C1351 H1319 0.929 . S
C1351 C1350 1.363 . S
C1351 C1352 1.385 . S
C1352 H1320 0.930 . S
C1352 C1351 1.385 . S
C1352 C1353 1.357 . S
C1353 C1352 1.357 . S
C1353 C1354 1.406 . S
C1354 H1321 0.929 . S
C1354 C1353 1.406 . S
C1354 C1355 1.391 . S
C1355 H1322 0.931 . S
C1355 C1350 1.370 . S
C1355 C1354 1.391 . S
C1356 N1330 1.435 . S
C1356 C1357 1.358 . S
C1356 C1361 1.371 . S
C1357 H1323 0.930 . S
C1357 C1356 1.358 . S
C1357 C1358 1.405 . S
C1358 H1324 0.932 . S
C1358 C1357 1.405 . S
C1358 C1359 1.383 . S
C1359 C1358 1.383 . S
C1359 C1360 1.393 . S
C1360 H1325 0.931 . S
C1360 C1359 1.393 . S
C1360 C1361 1.382 . S
C1361 H1326 0.929 . S
C1361 C1356 1.371 . S
C1361 C1360 1.382 . S
C1362 N1330 1.423 . S
C1362 C1363 1.362 . S
C1362 C1367 1.388 . S
C1363 H1327 0.929 . S
C1363 C1362 1.362 . S
C1363 C1364 1.376 . S
C1364 H1328 0.931 . S
C1364 C1363 1.376 . S
C1364 C1365 1.396 . S
C1365 C1347 1.472 . S
C1365 C1364 1.396 . S
C1365 C1366 1.348 . S
C1366 H1329 0.929 . S
C1366 C1365 1.348 . S
C1366 C1367 1.443 . S
C1367 H1331 0.932 . S
C1367 C1362 1.388 . S
C1367 C1366 1.443 . S
C1368 C1369 1.387 1_455 S
C1368 H1372 0.950 . S
C1368 C1377 1.390 . S
C1369 C1368 1.387 1_655 S
C1369 C1371 1.387 . S
H1370 C1377 0.950 . S
C1371 C1369 1.387 . S
C1371 C1373 1.390 . S
C1371 H1375 0.950 . S
H1372 C1368 0.950 . S
C1373 C1371 1.390 . S
C1373 C1374 1.387 . S
C1373 H1376 0.950 . S
C1374 C1373 1.387 . S
C1374 C1377 1.387 1_655 S
H1375 C1371 0.950 . S
H1376 C1373 0.950 . S
C1377 C1368 1.390 . S
C1377 H1370 0.950 . S
C1377 C1374 1.387 1_455 S
C1378 C1379 1.387 . S
C1378 H1382 0.950 . S
C1378 C1387 1.390 . S
C1379 C1378 1.387 . S
C1379 C1381 1.387 . S
H1380 C1387 0.950 . S
C1381 C1379 1.387 . S
C1381 C1383 1.390 . S
C1381 H1385 0.950 . S
H1382 C1378 0.950 . S
C1383 C1381 1.390 . S
C1383 C1384 1.387 . S
C1383 H1386 0.950 . S
C1384 C1383 1.387 . S
C1384 C1387 1.387 . S
H1385 C1381 0.950 . S
H1386 C1383 0.950 . S
C1387 C1378 1.390 . S
C1387 H1380 0.950 . S
C1387 C1384 1.387 . S
C1388 C1389 1.387 . S
C1388 H1392 0.950 . S
C1388 C1397 1.390 . S
C1389 C1388 1.387 . S
C1389 C1391 1.387 1_545 S
H1390 C1397 0.950 . S
C1391 C1389 1.387 1_565 S
C1391 C1393 1.390 . S
C1391 H1395 0.950 . S
H1392 C1388 0.950 . S
C1393 C1391 1.390 . S
C1393 C1394 1.387 1_565 S
C1393 H1396 0.950 . S
C1394 C1393 1.387 1_545 S
C1394 C1397 1.387 . S
H1395 C1391 0.950 . S
H1396 C1393 0.950 . S
C1397 C1388 1.390 . S
C1397 H1390 0.950 . S
C1397 C1394 1.387 . S
C1398 C1399 1.387 . S
C1398 H1402 0.950 . S
C1398 C1407 1.390 . S
C1399 C1398 1.387 . S
C1399 C1401 1.387 1_565 S
H1400 C1407 0.950 . S
C1401 C1399 1.387 1_545 S
C1401 C1403 1.390 . S
C1401 H1405 0.950 . S
H1402 C1398 0.950 . S
C1403 C1401 1.390 . S
C1403 C1404 1.387 1_545 S
C1403 H1406 0.950 . S
C1404 C1403 1.387 1_565 S
C1404 C1407 1.387 . S
H1405 C1401 0.950 . S
H1406 C1403 0.950 . S
C1407 C1398 1.390 . S
C1407 H1400 0.950 . S
C1407 C1404 1.387 . S
C1408 C1409 1.387 . S
C1408 H1412 0.950 . S
C1408 C1417 1.390 . S
C1409 C1408 1.387 . S
C1409 C1411 1.387 . S
H1410 C1417 0.947 1_655 S
C1411 C1409 1.387 . S
C1411 C1413 1.390 . S
C1411 H1415 0.950 . S
H1412 C1408 0.950 . S
C1413 C1411 1.390 . S
C1413 C1414 1.387 . S
C1413 H1416 0.950 . S
C1414 C1413 1.387 . S
C1414 C1417 1.387 . S
H1415 C1411 0.950 . S
H1416 C1413 0.950 . S
C1417 C1408 1.390 . S
C1417 H1410 0.947 1_455 S
C1417 C1414 1.387 . S
C1418 C1419 1.387 . S
C1418 H1422 0.950 . S
C1418 C1427 1.390 . S
C1419 C1418 1.387 . S
C1419 C1421 1.387 . S
H1420 C1427 0.950 . S
C1421 C1419 1.387 . S
C1421 C1423 1.390 . S
C1421 H1425 0.950 . S
H1422 C1418 0.950 . S
C1423 C1421 1.390 . S
C1423 C1424 1.387 . S
C1423 H1426 0.950 . S
C1424 C1423 1.387 . S
C1424 C1427 1.387 . S
H1425 C1421 0.950 . S
H1426 C1423 0.950 . S
C1427 C1418 1.390 . S
C1427 H1420 0.950 . S
C1427 C1424 1.387 . S
C1428 C1429 1.393 1_655 S
C1428 H1432 0.968 . S
C1428 C1437 1.392 . S
C1429 C1428 1.393 1_455 S
C1429 C1431 1.387 . S
H1430 C1437 0.948 . S
C1431 C1429 1.387 . S
C1431 C1433 1.390 . S
C1431 H1435 0.950 . S
H1432 C1428 0.968 . S
C1433 C1431 1.390 . S
C1433 C1434 1.387 . S
C1433 H1436 0.950 . S
C1434 C1433 1.387 . S
C1434 C1437 1.371 1_455 S
H1435 C1431 0.950 . S
H1436 C1433 0.950 . S
C1437 C1428 1.392 . S
C1437 H1430 0.948 . S
C1437 C1434 1.371 1_655 S
C1438 C1439 1.387 . S
C1438 H1442 0.950 . S
C1438 C1447 1.390 . S
C1439 C1438 1.387 . S
C1439 C1441 1.387 . S
H1440 C1447 0.950 . S
C1441 C1439 1.387 . S
C1441 C1443 1.390 . S
C1441 H1445 0.950 . S
H1442 C1438 0.950 . S
C1443 C1441 1.390 . S
C1443 C1444 1.387 . S
C1443 H1446 0.950 . S
C1444 C1443 1.387 . S
C1444 C1447 1.387 . S
H1445 C1441 0.950 . S
H1446 C1443 0.950 . S
C1447 C1438 1.390 . S
C1447 H1440 0.950 . S
C1447 C1444 1.387 . S
C1448 C1449 1.387 . S
C1448 H1452 0.950 . S
C1448 C1457 1.390 . S
C1449 C1448 1.387 . S
C1449 C1451 1.387 1_565 S
H1450 C1457 0.950 . S
C1451 C1449 1.387 1_545 S
C1451 C1453 1.390 . S
C1451 H1455 0.950 . S
H1452 C1448 0.950 . S
C1453 C1451 1.390 . S
C1453 C1454 1.387 1_545 S
C1453 H1456 0.950 . S
C1454 C1453 1.387 1_565 S
C1454 C1457 1.387 . S
H1455 C1451 0.950 . S
H1456 C1453 0.950 . S
C1457 C1448 1.390 . S
C1457 H1450 0.950 . S
C1457 C1454 1.387 . S
C1458 C1459 1.387 . S
C1458 H1462 0.950 . S
C1458 C1467 1.390 . S
C1459 C1458 1.387 . S
C1459 C1461 1.387 1_545 S
H1460 C1467 0.950 . S
C1461 C1459 1.387 1_565 S
C1461 C1463 1.390 . S
C1461 H1465 0.950 . S
H1462 C1458 0.950 . S
C1463 C1461 1.390 . S
C1463 C1464 1.387 1_565 S
C1463 H1466 0.950 . S
C1464 C1463 1.387 1_545 S
C1464 C1467 1.387 . S
H1465 C1461 0.950 . S
H1466 C1463 0.950 . S
C1467 C1458 1.390 . S
C1467 H1460 0.950 . S
C1467 C1464 1.387 . S
C1468 C1469 1.387 1_455 S
C1468 H1472 0.950 . S
C1468 C1477 1.390 . S
C1469 C1468 1.387 1_655 S
C1469 C1471 1.387 . S
H1470 C1477 0.950 . S
C1471 C1469 1.387 . S
C1471 C1473 1.390 . S
C1471 H1475 0.950 . S
H1472 C1468 0.950 . S
C1473 C1471 1.390 . S
C1473 C1474 1.387 . S
C1473 H1476 0.950 . S
C1474 C1473 1.387 . S
C1474 C1477 1.387 1_655 S
H1475 C1471 0.950 . S
H1476 C1473 0.950 . S
C1477 C1468 1.390 . S
C1477 H1470 0.950 . S
C1477 C1474 1.387 1_455 S
C1478 C1479 1.387 . S
C1478 H1482 0.950 . S
C1478 C1487 1.390 . S
C1479 C1478 1.387 . S
C1479 C1481 1.387 . S
H1480 C1487 0.950 . S
C1481 C1479 1.387 . S
C1481 C1483 1.390 . S
C1481 H1485 0.950 . S
H1482 C1478 0.950 . S
C1483 C1481 1.390 . S
C1483 C1484 1.387 . S
C1483 H1486 0.950 . S
C1484 C1483 1.387 . S
C1484 C1487 1.387 . S
H1485 C1481 0.950 . S
H1486 C1483 0.950 . S
C1487 C1478 1.390 . S
C1487 H1480 0.950 . S
C1487 C1484 1.387 . S
C1488 C1489 1.387 . S
C1488 H1492 0.950 . S
C1488 C1497 1.390 . S
C1489 C1488 1.387 . S
C1489 C1491 1.387 . S
H1490 C1497 0.950 . S
C1491 C1489 1.387 . S
C1491 C1493 1.390 . S
C1491 H1495 0.950 . S
H1492 C1488 0.950 . S
C1493 C1491 1.390 . S
C1493 C1494 1.387 . S
C1493 H1496 0.950 . S
C1494 C1493 1.387 . S
C1494 C1497 1.387 . S
H1495 C1491 0.950 . S
H1496 C1493 0.950 . S
C1497 C1488 1.390 . S
C1497 H1490 0.950 . S
C1497 C1494 1.387 . S
C1498 C1499 1.387 . S
C1498 H1502 0.950 . S
C1498 C1507 1.390 . S
C1499 C1498 1.387 . S
C1499 C1501 1.387 . S
H1500 C1507 0.950 . S
C1501 C1499 1.387 . S
C1501 C1503 1.390 . S
C1501 H1505 0.950 . S
H1502 C1498 0.950 . S
C1503 C1501 1.390 . S
C1503 C1504 1.387 . S
C1503 H1506 0.950 . S
C1504 C1503 1.387 . S
C1504 C1507 1.387 . S
H1505 C1501 0.950 . S
H1506 C1503 0.950 . S
C1507 C1498 1.390 . S
C1507 H1500 0.950 . S
C1507 C1504 1.387 . S
C1508 C1509 1.387 . S
C1508 H1512 0.950 . S
C1508 C1517 1.390 . S
C1509 C1508 1.387 . S
C1509 C1511 1.387 . S
H1510 C1517 0.950 . S
C1511 C1509 1.387 . S
C1511 C1513 1.390 . S
C1511 H1515 0.950 . S
H1512 C1508 0.950 . S
C1513 C1511 1.390 . S
C1513 C1514 1.387 . S
C1513 H1516 0.950 . S
C1514 C1513 1.387 . S
C1514 C1517 1.387 . S
H1515 C1511 0.950 . S
H1516 C1513 0.950 . S
C1517 C1508 1.390 . S
C1517 H1510 0.950 . S
C1517 C1514 1.387 . S
C1518 C1519 1.387 . S
C1518 H1522 0.950 . S
C1518 C1527 1.390 . S
C1519 C1518 1.387 . S
C1519 C1521 1.387 . S
H1520 C1527 0.950 . S
C1521 C1519 1.387 . S
C1521 C1523 1.390 . S
C1521 H1525 0.950 . S
H1522 C1518 0.950 . S
C1523 C1521 1.390 . S
C1523 C1524 1.387 . S
C1523 H1526 0.950 . S
C1524 C1523 1.387 . S
C1524 C1527 1.387 . S
H1525 C1521 0.950 . S
H1526 C1523 0.950 . S
C1527 C1518 1.390 . S
C1527 H1520 0.950 . S
C1527 C1524 1.387 . S
C1528 C1529 1.387 . S
C1528 H1532 0.950 . S
C1528 C1537 1.390 . S
C1529 C1528 1.387 . S
C1529 C1531 1.387 . S
H1530 C1537 0.950 . S
C1531 C1529 1.387 . S
C1531 C1533 1.390 . S
C1531 H1535 0.950 . S
H1532 C1528 0.950 . S
C1533 C1531 1.390 . S
C1533 C1534 1.387 . S
C1533 H1536 0.950 . S
C1534 C1533 1.387 . S
C1534 C1537 1.387 . S
H1535 C1531 0.950 . S
H1536 C1533 0.950 . S
C1537 C1528 1.390 . S
C1537 H1530 0.950 . S
C1537 C1534 1.387 . S
C1538 C1539 1.387 . S
C1538 H1542 0.950 . S
C1538 C1547 1.390 . S
C1539 C1538 1.387 . S
C1539 C1541 1.387 . S
H1540 C1547 0.950 . S
C1541 C1539 1.387 . S
C1541 C1543 1.390 . S
C1541 H1545 0.950 . S
H1542 C1538 0.950 . S
C1543 C1541 1.390 . S
C1543 C1544 1.387 . S
C1543 H1546 0.950 . S
C1544 C1543 1.387 . S
C1544 C1547 1.387 . S
H1545 C1541 0.950 . S
H1546 C1543 0.950 . S
C1547 C1538 1.390 . S
C1547 H1540 0.950 . S
C1547 C1544 1.387 . S
C1548 C1549 1.387 . S
C1548 H1552 0.950 . S
C1548 C1557 1.390 . S
C1549 C1548 1.387 . S
C1549 C1551 1.387 . S
H1550 C1557 0.950 . S
C1551 C1549 1.387 . S
C1551 C1553 1.390 . S
C1551 H1555 0.950 . S
H1552 C1548 0.950 . S
C1553 C1551 1.390 . S
C1553 C1554 1.387 . S
C1553 H1556 0.950 . S
C1554 C1553 1.387 . S
C1554 C1557 1.387 . S
H1555 C1551 0.950 . S
H1556 C1553 0.950 . S
C1557 C1548 1.390 . S
C1557 H1550 0.950 . S
C1557 C1554 1.387 . S
C1558 C1559 1.387 . S
C1558 H1562 0.950 . S
C1558 C1567 1.390 . S
C1559 C1558 1.387 . S
C1559 C1561 1.387 . S
H1560 C1567 0.950 . S
C1561 C1559 1.387 . S
C1561 C1563 1.390 . S
C1561 H1565 0.950 . S
H1562 C1558 0.950 . S
C1563 C1561 1.390 . S
C1563 C1564 1.387 . S
C1563 H1566 0.950 . S
C1564 C1563 1.387 . S
C1564 C1567 1.387 . S
H1565 C1561 0.950 . S
H1566 C1563 0.950 . S
C1567 C1558 1.390 . S
C1567 H1560 0.950 . S
C1567 C1564 1.387 . S
C1568 C1569 1.387 . S
C1568 H1572 0.950 . S
C1568 C1577 1.390 . S
C1569 C1568 1.387 . S
C1569 C1571 1.387 . S
H1570 C1577 0.950 . S
C1571 C1569 1.387 . S
C1571 C1573 1.390 . S
C1571 H1575 0.950 . S
H1572 C1568 0.950 . S
C1573 C1571 1.390 . S
C1573 C1574 1.387 . S
C1573 H1576 0.950 . S
C1574 C1573 1.387 . S
C1574 C1577 1.387 . S
H1575 C1571 0.950 . S
H1576 C1573 0.950 . S
C1577 C1568 1.390 . S
C1577 H1570 0.950 . S
C1577 C1574 1.387 . S
C1578 C1579 1.387 . S
C1578 H1582 0.950 . S
C1578 C1587 1.390 . S
C1579 C1578 1.387 . S
C1579 C1581 1.387 . S
H1580 C1587 0.950 . S
C1581 C1579 1.387 . S
C1581 C1583 1.390 . S
C1581 H1585 0.950 . S
H1582 C1578 0.950 . S
C1583 C1581 1.390 . S
C1583 C1584 1.387 . S
C1583 H1586 0.950 . S
C1584 C1583 1.387 . S
C1584 C1587 1.387 . S
H1585 C1581 0.950 . S
H1586 C1583 0.950 . S
C1587 C1578 1.390 . S
C1587 H1580 0.950 . S
C1587 C1584 1.387 . S
C1588 C1589 1.387 . S
C1588 H1592 0.950 . S
C1588 C1597 1.390 . S
C1589 C1588 1.387 . S
C1589 C1591 1.387 . S
H1590 C1597 0.950 . S
C1591 C1589 1.387 . S
C1591 C1593 1.390 . S
C1591 H1595 0.950 . S
H1592 C1588 0.950 . S
C1593 C1591 1.390 . S
C1593 C1594 1.387 . S
C1593 H1596 0.950 . S
C1594 C1593 1.387 . S
C1594 C1597 1.387 . S
H1595 C1591 0.950 . S
H1596 C1593 0.950 . S
C1597 C1588 1.390 . S
C1597 H1590 0.950 . S
C1597 C1594 1.387 . S
C1598 C1599 1.387 . S
C1598 H1602 0.950 . S
C1598 C1607 1.390 . S
C1599 C1598 1.387 . S
C1599 C1601 1.387 . S
H1600 C1607 0.950 . S
C1601 C1599 1.387 . S
C1601 C1603 1.390 . S
C1601 H1605 0.950 . S
H1602 C1598 0.950 . S
C1603 C1601 1.390 . S
C1603 C1604 1.387 . S
C1603 H1606 0.950 . S
C1604 C1603 1.387 . S
C1604 C1607 1.387 . S
H1605 C1601 0.950 . S
H1606 C1603 0.950 . S
C1607 C1598 1.390 . S
C1607 H1600 0.950 . S
C1607 C1604 1.387 . S
C1608 C1609 1.387 . S
C1608 H1612 0.950 . S
C1608 C1617 1.390 . S
C1609 C1608 1.387 . S
C1609 C1611 1.387 . S
H1610 C1617 0.950 . S
C1611 C1609 1.387 . S
C1611 C1613 1.390 . S
C1611 H1615 0.950 . S
H1612 C1608 0.950 . S
C1613 C1611 1.390 . S
C1613 C1614 1.387 . S
C1613 H1616 0.950 . S
C1614 C1613 1.387 . S
C1614 C1617 1.387 . S
H1615 C1611 0.950 . S
H1616 C1613 0.950 . S
C1617 C1608 1.390 . S
C1617 H1610 0.950 . S
C1617 C1614 1.387 . S
C1618 C1619 1.387 . S
C1618 H1622 0.950 . S
C1618 C1627 1.390 . S
C1619 C1618 1.387 . S
C1619 C1621 1.387 . S
H1620 C1627 0.950 . S
C1621 C1619 1.387 . S
C1621 C1623 1.390 . S
C1621 H1625 0.950 . S
H1622 C1618 0.950 . S
C1623 C1621 1.390 . S
C1623 C1624 1.387 . S
C1623 H1626 0.950 . S
C1624 C1623 1.387 . S
C1624 C1627 1.387 . S
H1625 C1621 0.950 . S
H1626 C1623 0.950 . S
C1627 C1618 1.390 . S
C1627 H1620 0.950 . S
C1627 C1624 1.387 . S
C1628 C1629 1.387 . S
C1628 H1632 0.950 . S
C1628 C1637 1.390 . S
C1629 C1628 1.387 . S
C1629 C1631 1.387 . S
H1630 C1637 0.950 . S
C1631 C1629 1.387 . S
C1631 C1633 1.390 . S
C1631 H1635 0.950 . S
H1632 C1628 0.950 . S
C1633 C1631 1.390 . S
C1633 C1634 1.387 . S
C1633 H1636 0.950 . S
C1634 C1633 1.387 . S
C1634 C1637 1.387 . S
H1635 C1631 0.950 . S
H1636 C1633 0.950 . S
C1637 C1628 1.390 . S
C1637 H1630 0.950 . S
C1637 C1634 1.387 . S
C1638 C1639 1.387 . S
C1638 H1642 0.950 . S
C1638 C1647 1.390 . S
C1639 C1638 1.387 . S
C1639 C1641 1.387 . S
H1640 C1647 0.950 . S
C1641 C1639 1.387 . S
C1641 C1643 1.390 . S
C1641 H1645 0.950 . S
H1642 C1638 0.950 . S
C1643 C1641 1.390 . S
C1643 C1644 1.387 . S
C1643 H1646 0.950 . S
C1644 C1643 1.387 . S
C1644 C1647 1.387 . S
H1645 C1641 0.950 . S
H1646 C1643 0.950 . S
C1647 C1638 1.390 . S
C1647 H1640 0.950 . S
C1647 C1644 1.387 . S
C1648 C1649 1.387 . S
C1648 H1652 0.950 . S
C1648 C1657 1.390 . S
C1649 C1648 1.387 . S
C1649 C1651 1.387 . S
H1650 C1657 0.950 . S
C1651 C1649 1.387 . S
C1651 C1653 1.390 . S
C1651 H1655 0.950 . S
H1652 C1648 0.950 . S
C1653 C1651 1.390 . S
C1653 C1654 1.387 . S
C1653 H1656 0.950 . S
C1654 C1653 1.387 . S
C1654 C1657 1.387 . S
H1655 C1651 0.950 . S
H1656 C1653 0.950 . S
C1657 C1648 1.390 . S
C1657 H1650 0.950 . S
C1657 C1654 1.387 . S
C1658 C1659 1.387 . S
C1658 H1662 0.950 . S
C1658 C1667 1.390 . S
C1659 C1658 1.387 . S
C1659 C1661 1.387 . S
H1660 C1667 0.950 . S
C1661 C1659 1.387 . S
C1661 C1663 1.390 . S
C1661 H1665 0.950 . S
H1662 C1658 0.950 . S
C1663 C1661 1.390 . S
C1663 C1664 1.387 . S
C1663 H1666 0.950 . S
C1664 C1663 1.387 . S
C1664 C1667 1.387 . S
H1665 C1661 0.950 . S
H1666 C1663 0.950 . S
C1667 C1658 1.390 . S
C1667 H1660 0.950 . S
C1667 C1664 1.387 . S
C1668 C1669 1.387 . S
C1668 H1672 0.950 . S
C1668 C1677 1.390 . S
C1669 C1668 1.387 . S
C1669 C1671 1.387 . S
H1670 C1677 0.950 . S
C1671 C1669 1.387 . S
C1671 C1673 1.390 . S
C1671 H1675 0.950 . S
H1672 C1668 0.950 . S
C1673 C1671 1.390 . S
C1673 C1674 1.387 . S
C1673 H1676 0.950 . S
C1674 C1673 1.387 . S
C1674 C1677 1.387 . S
H1675 C1671 0.950 . S
H1676 C1673 0.950 . S
C1677 C1668 1.390 . S
C1677 H1670 0.950 . S
C1677 C1674 1.387 . S
C1678 C1679 1.387 . S
C1678 H1682 0.950 . S
C1678 C1687 1.390 . S
C1679 C1678 1.387 . S
C1679 C1681 1.387 . S
H1680 C1687 0.950 . S
C1681 C1679 1.387 . S
C1681 C1683 1.390 . S
C1681 H1685 0.950 . S
H1682 C1678 0.950 . S
C1683 C1681 1.390 . S
C1683 C1684 1.387 . S
C1683 H1686 0.950 . S
C1684 C1683 1.387 . S
C1684 C1687 1.387 . S
H1685 C1681 0.950 . S
H1686 C1683 0.950 . S
C1687 C1678 1.390 . S
C1687 H1680 0.950 . S
C1687 C1684 1.387 . S
C1688 C1689 1.387 . S
C1688 H1692 0.950 . S
C1688 C1697 1.390 . S
C1689 C1688 1.387 . S
C1689 C1691 1.387 . S
H1690 C1697 0.950 . S
C1691 C1689 1.387 . S
C1691 C1693 1.390 . S
C1691 H1695 0.950 . S
H1692 C1688 0.950 . S
C1693 C1691 1.390 . S
C1693 C1694 1.387 . S
C1693 H1696 0.950 . S
C1694 C1693 1.387 . S
C1694 C1697 1.387 . S
H1695 C1691 0.950 . S
H1696 C1693 0.950 . S
C1697 C1688 1.390 . S
C1697 H1690 0.950 . S
C1697 C1694 1.387 . S
C1698 C1699 1.387 . S
C1698 H1702 0.950 . S
C1698 C1707 1.390 . S
C1699 C1698 1.387 . S
C1699 C1701 1.387 . S
H1700 C1707 0.950 . S
C1701 C1699 1.387 . S
C1701 C1703 1.390 . S
C1701 H1705 0.950 . S
H1702 C1698 0.950 . S
C1703 C1701 1.390 . S
C1703 C1704 1.387 . S
C1703 H1706 0.950 . S
C1704 C1703 1.387 . S
C1704 C1707 1.387 . S
H1705 C1701 0.950 . S
H1706 C1703 0.950 . S
C1707 C1698 1.390 . S
C1707 H1700 0.950 . S
C1707 C1704 1.387 . S
C1708 C1709 1.387 . S
C1708 H1712 0.950 . S
C1708 C1717 1.390 . S
C1709 C1708 1.387 . S
C1709 C1711 1.387 . S
H1710 C1717 0.950 . S
C1711 C1709 1.387 . S
C1711 C1713 1.390 . S
C1711 H1715 0.950 . S
H1712 C1708 0.950 . S
C1713 C1711 1.390 . S
C1713 C1714 1.387 . S
C1713 H1716 0.950 . S
C1714 C1713 1.387 . S
C1714 C1717 1.387 . S
H1715 C1711 0.950 . S
H1716 C1713 0.950 . S
C1717 C1708 1.390 . S
C1717 H1710 0.950 . S
C1717 C1714 1.387 . S
C1718 C1719 1.387 . S
C1718 H1722 0.950 . S
C1718 C1727 1.390 . S
C1719 C1718 1.387 . S
C1719 C1721 1.387 . S
H1720 C1727 0.950 . S
C1721 C1719 1.387 . S
C1721 C1723 1.390 . S
C1721 H1725 0.950 . S
H1722 C1718 0.950 . S
C1723 C1721 1.390 . S
C1723 C1724 1.387 . S
C1723 H1726 0.950 . S
C1724 C1723 1.387 . S
C1724 C1727 1.387 . S
H1725 C1721 0.950 . S
H1726 C1723 0.950 . S
C1727 C1718 1.390 . S
C1727 H1720 0.950 . S
C1727 C1724 1.387 . S
C1728 C1729 1.387 . S
C1728 H1732 0.950 . S
C1728 C1737 1.390 . S
C1729 C1728 1.387 . S
C1729 C1731 1.387 . S
H1730 C1737 0.950 . S
C1731 C1729 1.387 . S
C1731 C1733 1.390 . S
C1731 H1735 0.950 . S
H1732 C1728 0.950 . S
C1733 C1731 1.390 . S
C1733 C1734 1.387 . S
C1733 H1736 0.950 . S
C1734 C1733 1.387 . S
C1734 C1737 1.387 . S
H1735 C1731 0.950 . S
H1736 C1733 0.950 . S
C1737 C1728 1.390 . S
C1737 H1730 0.950 . S
C1737 C1734 1.387 . S
C1738 C1739 1.387 . S
C1738 H1742 0.950 1_554 S
C1738 C1747 1.390 . S
C1739 C1738 1.387 . S
C1739 C1741 1.387 . S
H1740 C1747 0.950 . S
C1741 C1739 1.387 . S
C1741 C1743 1.390 . S
C1741 H1745 0.950 . S
H1742 C1738 0.950 1_556 S
C1743 C1741 1.390 . S
C1743 C1744 1.387 . S
C1743 H1746 0.950 . S
C1744 C1743 1.387 . S
C1744 C1747 1.387 . S
H1745 C1741 0.950 . S
H1746 C1743 0.950 . S
C1747 C1738 1.390 . S
C1747 H1740 0.950 . S
C1747 C1744 1.387 . S
C1748 C1749 1.387 . S
C1748 H1752 0.950 . S
C1748 C1757 1.390 . S
C1749 C1748 1.387 . S
C1749 C1751 1.387 . S
H1750 C1757 0.950 . S
C1751 C1749 1.387 . S
C1751 C1753 1.390 . S
C1751 H1755 0.950 1_554 S
H1752 C1748 0.950 . S
C1753 C1751 1.390 . S
C1753 C1754 1.387 . S
C1753 H1756 0.950 . S
C1754 C1753 1.387 . S
C1754 C1757 1.387 . S
H1755 C1751 0.950 1_556 S
H1756 C1753 0.950 . S
C1757 C1748 1.390 . S
C1757 H1750 0.950 . S
C1757 C1754 1.387 . S
C1758 C1759 1.387 1_554 S
C1758 H1762 0.950 . S
C1758 C1767 1.390 . S
C1759 C1758 1.387 1_556 S
C1759 C1761 1.387 . S
H1760 C1767 0.950 . S
C1761 C1759 1.387 . S
C1761 C1763 1.390 . S
C1761 H1765 0.950 . S
H1762 C1758 0.950 . S
C1763 C1761 1.390 . S
C1763 C1764 1.387 . S
C1763 H1766 0.950 . S
C1764 C1763 1.387 . S
C1764 C1767 1.387 1_556 S
H1765 C1761 0.950 . S
H1766 C1763 0.950 . S
C1767 C1758 1.390 . S
C1767 H1760 0.950 . S
C1767 C1764 1.387 1_554 S
C1768 C1769 1.387 . S
C1768 H1772 0.950 . S
C1768 C1777 1.390 . S
C1769 C1768 1.387 . S
C1769 C1771 1.387 . S
H1770 C1777 0.950 . S
C1771 C1769 1.387 . S
C1771 C1773 1.390 . S
C1771 H1775 0.950 1_556 S
H1772 C1768 0.950 . S
C1773 C1771 1.390 . S
C1773 C1774 1.387 . S
C1773 H1776 0.950 . S
C1774 C1773 1.387 . S
C1774 C1777 1.387 . S
H1775 C1771 0.950 1_554 S
H1776 C1773 0.950 . S
C1777 C1768 1.390 . S
C1777 H1770 0.950 . S
C1777 C1774 1.387 . S
C1778 C1779 1.387 1_554 S
C1778 H1782 0.950 . S
C1778 C1787 1.389 1_554 S
C1779 C1778 1.387 1_556 S
C1779 C1781 1.387 . S
H1780 C1787 0.947 1_554 S
C1781 C1779 1.387 . S
C1781 C1783 1.390 . S
C1781 H1785 0.950 . S
H1782 C1778 0.950 . S
C1783 C1781 1.390 . S
C1783 C1784 1.387 . S
C1783 H1786 0.950 . S
C1784 C1783 1.387 . S
C1784 C1787 1.391 . S
H1785 C1781 0.950 . S
H1786 C1783 0.950 . S
C1787 C1778 1.389 1_556 S
C1787 H1780 0.947 1_556 S
C1787 C1784 1.391 . S
C1788 C1789 1.387 . S
C1788 H1792 0.950 . S
C1788 C1797 1.390 . S
C1789 C1788 1.387 . S
C1789 C1791 1.387 1_556 S
H1790 C1797 0.950 . S
C1791 C1789 1.387 1_554 S
C1791 C1793 1.390 . S
C1791 H1795 0.950 . S
H1792 C1788 0.950 . S
C1793 C1791 1.390 . S
C1793 C1794 1.387 1_554 S
C1793 H1796 0.950 . S
C1794 C1793 1.387 1_556 S
C1794 C1797 1.387 . S
H1795 C1791 0.950 . S
H1796 C1793 0.950 . S
C1797 C1788 1.390 . S
C1797 H1790 0.950 . S
C1797 C1794 1.387 . S
C1798 C1799 1.387 1_554 S
C1798 H1802 0.950 . S
C1798 C1807 1.390 . S
C1799 C1798 1.387 1_556 S
C1799 C1801 1.387 . S
H1800 C1807 0.950 . S
C1801 C1799 1.387 . S
C1801 C1803 1.390 . S
C1801 H1805 0.950 . S
H1802 C1798 0.950 . S
C1803 C1801 1.390 . S
C1803 C1804 1.387 . S
C1803 H1806 0.950 . S
C1804 C1803 1.387 . S
C1804 C1807 1.387 1_556 S
H1805 C1801 0.950 . S
H1806 C1803 0.950 . S
C1807 C1798 1.390 . S
C1807 H1800 0.950 . S
C1807 C1804 1.387 1_554 S
C1808 C1809 1.387 1_554 S
C1808 H1812 0.950 . S
C1808 C1817 1.390 . S
C1809 C1808 1.387 1_556 S
C1809 C1811 1.387 . S
H1810 C1817 0.950 . S
C1811 C1809 1.387 . S
C1811 C1813 1.390 . S
C1811 H1815 0.950 . S
H1812 C1808 0.950 . S
C1813 C1811 1.390 . S
C1813 C1814 1.387 . S
C1813 H1816 0.950 . S
C1814 C1813 1.387 . S
C1814 C1817 1.387 1_556 S
H1815 C1811 0.950 . S
H1816 C1813 0.950 . S
C1817 C1808 1.390 . S
C1817 H1810 0.950 . S
C1817 C1814 1.387 1_554 S
C1818 C1819 1.387 . S
C1818 H1822 0.950 . S
C1818 C1827 1.390 . S
C1819 C1818 1.387 . S
C1819 C1821 1.387 . S
H1820 C1827 0.950 . S
C1821 C1819 1.387 . S
C1821 C1823 1.390 . S
C1821 H1825 0.950 1_554 S
H1822 C1818 0.950 . S
C1823 C1821 1.390 . S
C1823 C1824 1.387 . S
C1823 H1826 0.950 . S
C1824 C1823 1.387 . S
C1824 C1827 1.387 . S
H1825 C1821 0.950 1_556 S
H1826 C1823 0.950 . S
C1827 C1818 1.390 . S
C1827 H1820 0.950 . S
C1827 C1824 1.387 . S
C1828 C1829 1.387 . S
C1828 H1832 0.950 . S
C1828 C1837 1.390 . S
C1829 C1828 1.387 . S
C1829 C1831 1.387 . S
H1830 C1837 0.950 . S
C1831 C1829 1.387 . S
C1831 C1833 1.390 . S
C1831 H1835 0.950 . S
H1832 C1828 0.950 . S
C1833 C1831 1.390 . S
C1833 C1834 1.387 . S
C1833 H1836 0.950 . S
C1834 C1833 1.387 . S
C1834 C1837 1.387 . S
H1835 C1831 0.950 . S
H1836 C1833 0.950 . S
C1837 C1828 1.390 . S
C1837 H1830 0.950 . S
C1837 C1834 1.387 . S
C1838 C1839 1.387 . S
C1838 H1842 0.950 . S
C1838 C1847 1.390 . S
C1839 C1838 1.387 . S
C1839 C1841 1.387 . S
H1840 C1847 0.950 . S
C1841 C1839 1.387 . S
C1841 C1843 1.390 . S
C1841 H1845 0.950 . S
H1842 C1838 0.950 . S
C1843 C1841 1.390 . S
C1843 C1844 1.387 . S
C1843 H1846 0.950 . S
C1844 C1843 1.387 . S
C1844 C1847 1.387 . S
H1845 C1841 0.950 . S
H1846 C1843 0.950 . S
C1847 C1838 1.390 . S
C1847 H1840 0.950 . S
C1847 C1844 1.387 . S
C1848 C1849 1.387 . S
C1848 H1852 0.950 . S
C1848 C1857 1.390 . S
C1849 C1848 1.387 . S
C1849 C1851 1.387 . S
H1850 C1857 0.950 . S
C1851 C1849 1.387 . S
C1851 C1853 1.390 . S
C1851 H1855 0.950 . S
H1852 C1848 0.950 . S
C1853 C1851 1.390 . S
C1853 C1854 1.387 . S
C1853 H1856 0.950 . S
C1854 C1853 1.387 . S
C1854 C1857 1.387 . S
H1855 C1851 0.950 . S
H1856 C1853 0.950 . S
C1857 C1848 1.390 . S
C1857 H1850 0.950 . S
C1857 C1854 1.387 . S
C1858 C1859 1.387 . S
C1858 H1862 0.950 . S
C1858 C1867 1.390 . S
C1859 C1858 1.387 . S
C1859 C1861 1.387 . S
H1860 C1867 0.950 . S
C1861 C1859 1.387 . S
C1861 C1863 1.390 . S
C1861 H1865 0.950 . S
H1862 C1858 0.950 . S
C1863 C1861 1.390 . S
C1863 C1864 1.387 . S
C1863 H1866 0.950 . S
C1864 C1863 1.387 . S
C1864 C1867 1.387 . S
H1865 C1861 0.950 . S
H1866 C1863 0.950 . S
C1867 C1858 1.390 . S
C1867 H1860 0.950 . S
C1867 C1864 1.387 . S
C1868 C1869 1.387 . S
C1868 H1872 0.950 . S
C1868 C1877 1.390 . S
C1869 C1868 1.387 . S
C1869 C1871 1.387 . S
H1870 C1877 0.950 . S
C1871 C1869 1.387 . S
C1871 C1873 1.390 . S
C1871 H1875 0.950 . S
H1872 C1868 0.950 . S
C1873 C1871 1.390 . S
C1873 C1874 1.387 . S
C1873 H1876 0.950 . S
C1874 C1873 1.387 . S
C1874 C1877 1.387 . S
H1875 C1871 0.950 . S
H1876 C1873 0.950 . S
C1877 C1868 1.390 . S
C1877 H1870 0.950 . S
C1877 C1874 1.387 . S
C1878 C1879 1.387 . S
C1878 H1882 0.950 . S
C1878 C1887 1.390 . S
C1879 C1878 1.387 . S
C1879 C1881 1.387 . S
H1880 C1887 0.950 . S
C1881 C1879 1.387 . S
C1881 C1883 1.390 . S
C1881 H1885 0.950 . S
H1882 C1878 0.950 . S
C1883 C1881 1.390 . S
C1883 C1884 1.387 . S
C1883 H1886 0.950 1_455 S
C1884 C1883 1.387 . S
C1884 C1887 1.387 . S
H1885 C1881 0.950 . S
H1886 C1883 0.950 1_655 S
C1887 C1878 1.390 . S
C1887 H1880 0.950 . S
C1887 C1884 1.387 . S
C1888 C1889 1.387 . S
C1888 H1892 0.950 . S
C1888 C1897 1.390 . S
C1889 C1888 1.387 . S
C1889 C1891 1.387 . S
H1890 C1897 0.950 . S
C1891 C1889 1.387 . S
C1891 C1893 1.390 . S
C1891 H1895 0.950 . S
H1892 C1888 0.950 . S
C1893 C1891 1.390 . S
C1893 C1894 1.387 . S
C1893 H1896 0.950 . S
C1894 C1893 1.387 . S
C1894 C1897 1.387 . S
H1895 C1891 0.950 . S
H1896 C1893 0.950 . S
C1897 C1888 1.390 . S
C1897 H1890 0.950 . S
C1897 C1894 1.387 . S
C1898 C1899 1.387 . S
C1898 H1902 0.950 1_565 S
C1898 C1907 1.390 1_565 S
C1899 C1898 1.387 . S
C1899 C1901 1.387 . S
H1900 C1907 0.950 . S
C1901 C1899 1.387 . S
C1901 C1903 1.390 . S
C1901 H1905 0.950 . S
H1902 C1898 0.950 1_545 S
C1903 C1901 1.390 . S
C1903 C1904 1.387 . S
C1903 H1906 0.950 . S
C1904 C1903 1.387 . S
C1904 C1907 1.387 1_565 S
H1905 C1901 0.950 . S
H1906 C1903 0.950 . S
C1907 C1898 1.390 1_545 S
C1907 H1900 0.950 . S
C1907 C1904 1.387 1_545 S
C1908 C1909 1.387 . S
C1908 H1912 0.950 . S
C1908 C1917 1.390 . S
C1909 C1908 1.387 . S
C1909 C1911 1.387 . S
H1910 C1917 0.950 . S
C1911 C1909 1.387 . S
C1911 C1913 1.390 . S
C1911 H1915 0.950 . S
H1912 C1908 0.950 . S
C1913 C1911 1.390 . S
C1913 C1914 1.387 . S
C1913 H1916 0.950 . S
C1914 C1913 1.387 . S
C1914 C1917 1.387 . S
H1915 C1911 0.950 . S
H1916 C1913 0.950 . S
C1917 C1908 1.390 . S
C1917 H1910 0.950 . S
C1917 C1914 1.387 . S
C1918 C1919 1.387 . S
C1918 H1922 0.950 . S
C1918 C1927 1.390 . S
C1919 C1918 1.387 . S
C1919 C1921 1.387 . S
H1920 C1927 0.950 . S
C1921 C1919 1.387 . S
C1921 C1923 1.390 . S
C1921 H1925 0.950 . S
H1922 C1918 0.950 . S
C1923 C1921 1.390 . S
C1923 C1924 1.387 . S
C1923 H1926 0.950 . S
C1924 C1923 1.387 . S
C1924 C1927 1.387 . S
H1925 C1921 0.950 . S
H1926 C1923 0.950 . S
C1927 C1918 1.390 . S
C1927 H1920 0.950 . S
C1927 C1924 1.387 . S
C1928 C1929 1.387 . S
C1928 H1932 0.950 . S
C1928 C1937 1.390 . S
C1929 C1928 1.387 . S
C1929 C1931 1.387 . S
H1930 C1937 0.950 . S
C1931 C1929 1.387 . S
C1931 C1933 1.390 . S
C1931 H1935 0.950 . S
H1932 C1928 0.950 . S
C1933 C1931 1.390 . S
C1933 C1934 1.387 . S
C1933 H1936 0.950 . S
C1934 C1933 1.387 . S
C1934 C1937 1.387 . S
H1935 C1931 0.950 . S
H1936 C1933 0.950 . S
C1937 C1928 1.390 . S
C1937 H1930 0.950 . S
C1937 C1934 1.387 . S
C1938 C1939 1.387 . S
C1938 H1942 0.950 . S
C1938 C1947 1.390 . S
C1939 C1938 1.387 . S
C1939 C1941 1.387 . S
H1940 C1947 0.950 . S
C1941 C1939 1.387 . S
C1941 C1943 1.390 . S
C1941 H1945 0.950 . S
H1942 C1938 0.950 . S
C1943 C1941 1.390 . S
C1943 C1944 1.387 . S
C1943 H1946 0.950 . S
C1944 C1943 1.387 . S
C1944 C1947 1.387 . S
H1945 C1941 0.950 . S
H1946 C1943 0.950 . S
C1947 C1938 1.390 . S
C1947 H1940 0.950 . S
C1947 C1944 1.387 . S
C1948 C1949 1.387 . S
C1948 H1952 0.950 . S
C1948 C1957 1.390 . S
C1949 C1948 1.387 . S
C1949 C1951 1.387 . S
H1950 C1957 0.950 . S
C1951 C1949 1.387 . S
C1951 C1953 1.390 . S
C1951 H1955 0.950 . S
H1952 C1948 0.950 . S
C1953 C1951 1.390 . S
C1953 C1954 1.387 . S
C1953 H1956 0.950 . S
C1954 C1953 1.387 . S
C1954 C1957 1.387 . S
H1955 C1951 0.950 . S
H1956 C1953 0.950 . S
C1957 C1948 1.390 . S
C1957 H1950 0.950 . S
C1957 C1954 1.387 . S
C1958 C1959 1.387 . S
C1958 H1962 0.950 . S
C1958 C1967 1.390 . S
C1959 C1958 1.387 . S
C1959 C1961 1.387 . S
H1960 C1967 0.950 . S
C1961 C1959 1.387 . S
C1961 C1963 1.390 . S
C1961 H1965 0.950 . S
H1962 C1958 0.950 . S
C1963 C1961 1.390 . S
C1963 C1964 1.387 . S
C1963 H1966 0.950 . S
C1964 C1963 1.387 . S
C1964 C1967 1.387 . S
H1965 C1961 0.950 . S
H1966 C1963 0.950 . S
C1967 C1958 1.390 . S
C1967 H1960 0.950 . S
C1967 C1964 1.387 . S
C1968 C1969 1.387 . S
C1968 H1972 0.950 . S
C1968 C1977 1.390 . S
C1969 C1968 1.387 . S
C1969 C1971 1.387 . S
H1970 C1977 0.950 . S
C1971 C1969 1.387 . S
C1971 C1973 1.390 . S
C1971 H1975 0.950 . S
H1972 C1968 0.950 . S
C1973 C1971 1.390 . S
C1973 C1974 1.387 . S
C1973 H1976 0.950 . S
C1974 C1973 1.387 . S
C1974 C1977 1.387 . S
H1975 C1971 0.950 . S
H1976 C1973 0.950 . S
C1977 C1968 1.390 . S
C1977 H1970 0.950 . S
C1977 C1974 1.387 . S
C1978 C1979 1.387 . S
C1978 H1982 0.950 . S
C1978 C1987 1.390 . S
C1979 C1978 1.387 . S
C1979 C1981 1.387 . S
H1980 C1987 0.950 . S
C1981 C1979 1.387 . S
C1981 C1983 1.390 . S
C1981 H1985 0.950 . S
H1982 C1978 0.950 . S
C1983 C1981 1.390 . S
C1983 C1984 1.387 . S
C1983 H1986 0.950 . S
C1984 C1983 1.387 . S
C1984 C1987 1.387 . S
H1985 C1981 0.950 . S
H1986 C1983 0.950 . S
C1987 C1978 1.390 . S
C1987 H1980 0.950 . S
C1987 C1984 1.387 . S
C1988 C1989 1.387 . S
C1988 H1992 0.950 . S
C1988 C1997 1.390 . S
C1989 C1988 1.387 . S
C1989 C1991 1.387 . S
H1990 C1997 0.950 . S
C1991 C1989 1.387 . S
C1991 C1993 1.390 . S
C1991 H1995 0.950 . S
H1992 C1988 0.950 . S
C1993 C1991 1.390 . S
C1993 C1994 1.387 . S
C1993 H1996 0.950 . S
C1994 C1993 1.387 . S
C1994 C1997 1.387 . S
H1995 C1991 0.950 . S
H1996 C1993 0.950 . S
C1997 C1988 1.390 . S
C1997 H1990 0.950 . S
C1997 C1994 1.387 . S
C1998 C1999 1.387 . S
C1998 H2002 0.950 . S
C1998 C2007 1.390 . S
C1999 C1998 1.387 . S
C1999 C2001 1.387 . S
H2000 C2007 0.950 . S
C2001 C1999 1.387 . S
C2001 C2003 1.390 . S
C2001 H2005 0.950 . S
H2002 C1998 0.950 . S
C2003 C2001 1.390 . S
C2003 C2004 1.387 . S
C2003 H2006 0.950 . S
C2004 C2003 1.387 . S
C2004 C2007 1.387 . S
H2005 C2001 0.950 . S
H2006 C2003 0.950 . S
C2007 C1998 1.390 . S
C2007 H2000 0.950 . S
C2007 C2004 1.387 . S
C2008 C2009 1.387 . S
C2008 H2012 0.950 . S
C2008 C2017 1.390 . S
C2009 C2008 1.387 . S
C2009 C2011 1.387 . S
H2010 C2017 0.950 . S
C2011 C2009 1.387 . S
C2011 C2013 1.390 . S
C2011 H2015 0.950 . S
H2012 C2008 0.950 . S
C2013 C2011 1.390 . S
C2013 C2014 1.387 . S
C2013 H2016 0.950 . S
C2014 C2013 1.387 . S
C2014 C2017 1.387 . S
H2015 C2011 0.950 . S
H2016 C2013 0.950 . S
C2017 C2008 1.390 . S
C2017 H2010 0.950 . S
C2017 C2014 1.387 . S
C2018 C2019 1.387 . S
C2018 H2022 0.950 . S
C2018 C2027 1.390 . S
C2019 C2018 1.387 . S
C2019 C2021 1.387 . S
H2020 C2027 0.950 . S
C2021 C2019 1.387 . S
C2021 C2023 1.390 . S
C2021 H2025 0.950 . S
H2022 C2018 0.950 . S
C2023 C2021 1.390 . S
C2023 C2024 1.387 . S
C2023 H2026 0.950 . S
C2024 C2023 1.387 . S
C2024 C2027 1.387 . S
H2025 C2021 0.950 . S
H2026 C2023 0.950 . S
C2027 C2018 1.390 . S
C2027 H2020 0.950 . S
C2027 C2024 1.387 . S
C2028 C2029 1.387 . S
C2028 H2032 0.950 . S
C2028 C2037 1.390 . S
C2029 C2028 1.387 . S
C2029 C2031 1.387 . S
H2030 C2037 0.950 . S
C2031 C2029 1.387 . S
C2031 C2033 1.390 . S
C2031 H2035 0.950 . S
H2032 C2028 0.950 . S
C2033 C2031 1.390 . S
C2033 C2034 1.387 . S
C2033 H2036 0.950 . S
C2034 C2033 1.387 . S
C2034 C2037 1.387 . S
H2035 C2031 0.950 . S
H2036 C2033 0.950 . S
C2037 C2028 1.390 . S
C2037 H2030 0.950 . S
C2037 C2034 1.387 . S
C2038 C2039 1.387 . S
C2038 H2042 0.950 . S
C2038 C2047 1.390 . S
C2039 C2038 1.387 . S
C2039 C2041 1.387 . S
H2040 C2047 0.950 . S
C2041 C2039 1.387 . S
C2041 C2043 1.390 . S
C2041 H2045 0.950 . S
H2042 C2038 0.950 . S
C2043 C2041 1.390 . S
C2043 C2044 1.387 . S
C2043 H2046 0.950 . S
C2044 C2043 1.387 . S
C2044 C2047 1.387 . S
H2045 C2041 0.950 . S
H2046 C2043 0.950 . S
C2047 C2038 1.390 . S
C2047 H2040 0.950 . S
C2047 C2044 1.387 . S
C2048 C2049 1.387 . S
C2048 H2052 0.950 . S
C2048 C2057 1.390 . S
C2049 C2048 1.387 . S
C2049 C2051 1.387 . S
H2050 C2057 0.950 . S
C2051 C2049 1.387 . S
C2051 C2053 1.390 . S
C2051 H2055 0.950 . S
H2052 C2048 0.950 . S
C2053 C2051 1.390 . S
C2053 C2054 1.387 . S
C2053 H2056 0.950 . S
C2054 C2053 1.387 . S
C2054 C2057 1.387 . S
H2055 C2051 0.950 . S
H2056 C2053 0.950 . S
C2057 C2048 1.390 . S
C2057 H2050 0.950 . S
C2057 C2054 1.387 . S
C2058 C2059 1.387 . S
C2058 H2062 0.950 . S
C2058 C2067 1.390 . S
C2059 C2058 1.387 . S
C2059 C2061 1.387 . S
H2060 C2067 0.950 . S
C2061 C2059 1.387 . S
C2061 C2063 1.390 . S
C2061 H2065 0.950 . S
H2062 C2058 0.950 . S
C2063 C2061 1.390 . S
C2063 C2064 1.387 . S
C2063 H2066 0.950 . S
C2064 C2063 1.387 . S
C2064 C2067 1.387 . S
H2065 C2061 0.950 . S
H2066 C2063 0.950 . S
C2067 C2058 1.390 . S
C2067 H2060 0.950 . S
C2067 C2064 1.387 . S
C2068 C2069 1.387 . S
C2068 H2072 0.950 . S
C2068 C2077 1.390 . S
C2069 C2068 1.387 . S
C2069 C2071 1.387 . S
H2070 C2077 0.950 . S
C2071 C2069 1.387 . S
C2071 C2073 1.390 . S
C2071 H2075 0.950 . S
H2072 C2068 0.950 . S
C2073 C2071 1.390 . S
C2073 C2074 1.387 . S
C2073 H2076 0.950 . S
C2074 C2073 1.387 . S
C2074 C2077 1.387 . S
H2075 C2071 0.950 . S
H2076 C2073 0.950 . S
C2077 C2068 1.390 . S
C2077 H2070 0.950 . S
C2077 C2074 1.387 . S
C2078 C2079 1.387 . S
C2078 H2082 0.950 . S
C2078 C2087 1.390 . S
C2079 C2078 1.387 . S
C2079 C2081 1.387 . S
H2080 C2087 0.952 . S
C2081 C2079 1.387 . S
C2081 C2083 1.390 . S
C2081 H2085 0.950 . S
H2082 C2078 0.950 . S
C2083 C2081 1.390 . S
C2083 C2084 1.387 . S
C2083 H2086 0.950 . S
C2084 C2083 1.387 . S
C2084 C2087 1.387 . S
H2085 C2081 0.950 . S
H2086 C2083 0.950 . S
C2087 C2078 1.390 . S
C2087 H2080 0.952 . S
C2087 C2084 1.387 . S
C1369 C4 1.601 . S
C1374 C857 1.579 . S
C1379 C26 1.598 . S
C1384 C901 1.547 . S
C1394 C981 1.512 . S
C1389 C32 1.536 . S
C1399 C40 1.528 . S
C1404 C1025 1.478 . S
C1409 C12 1.566 . S
C1414 C1105 1.518 . S
C1419 C18 1.570 . S
C1424 C1167 1.548 . S
C1429 C46 1.584 . S
C1434 C1087 1.564 . S
C1444 C1149 1.515 . S
C1439 C68 1.596 . S
C1454 C1043 1.548 . S
C1449 C74 1.553 . S
C1459 C82 1.514 . S
C1464 C963 1.465 . S
C1474 C839 1.523 . S
C1469 C54 1.582 . S
C1479 C60 1.566 . S
C1484 C919 1.569 . S
C1489 C88 1.634 . S
C1494 C1229 1.608 . S
C1499 C110 1.620 . S
C1504 C1273 1.570 . S
C1514 C1353 1.568 . S
C1509 C116 1.600 . S
C1519 C124 1.548 . S
C1524 C299 1.477 . S
C1529 C96 1.587 . S
C1534 C343 1.543 . S
C1539 C102 1.576 . S
C1544 C423 1.550 . S
C1549 C130 1.622 . S
C1554 C361 1.627 . S
C1559 C152 1.631 . S
C1564 C405 1.548 . S
C1574 C281 1.566 . S
C1569 C158 1.597 . S
C1584 C1335 1.488 . S
C1579 C166 1.563 . S
C1594 C1211 1.515 . S
C1589 C138 1.581 . S
C1604 C1291 1.601 . S
C1599 C144 1.596 . S
C1609 C172 1.627 . S
C1614 C485 1.601 . S
C1619 C194 1.624 . S
C1624 C547 1.541 . S
C1629 C200 1.599 . S
C1634 C591 1.604 . S
C1639 C208 1.556 . S
C1644 C653 1.506 . S
C1654 C715 1.545 . S
C1649 C180 1.591 . S
C1664 C795 1.567 . S
C1659 C186 1.591 . S
C1674 C733 1.647 . S
C1669 C214 1.639 . S
C1684 C777 1.539 . S
C1679 C236 1.623 . S
C1689 C242 1.592 . S
C1694 C671 1.598 . S
C1704 C609 1.493 . S
C1699 C250 1.541 . S
C1709 C222 1.587 . S
C1714 C467 1.520 . S
C1724 C529 1.556 . S
C1719 C228 1.582 . S
C1734 C305 1.415 . S
C1729 C5 1.211 . S
C1739 C25 1.507 . S
C1744 C349 1.394 . S
C1754 C429 1.412 . S
C1749 C33 1.221 . S
C1764 C491 1.316 . S
C1759 C39 1.414 . S
C1774 C553 1.359 . S
C1769 C11 1.491 . S
C1784 C597 1.394 . S
C1779 C19 1.169 1_556 S
C1789 C47 1.222 1_556 S
C1794 C615 1.468 . S
C1799 C67 1.500 . S
C1804 C473 1.361 . S
C1809 C75 1.217 1_556 S
C1814 C535 1.409 . S
C1819 C81 1.437 . S
C1824 C367 1.353 . S
C1834 C411 1.353 . S
C1829 C53 1.478 . S
C1839 C61 1.168 . S
C1844 C287 1.363 . S
C1854 C659 1.437 . S
C1849 C89 1.198 . S
C1859 C109 1.530 . S
C1864 C721 1.416 . S
C1869 C117 1.208 . S
C1874 C801 1.406 . S
C1884 C863 1.297 . S
C1879 C123 1.394 . S
C1889 C95 1.469 . S
C1894 C907 1.372 . S
C1899 C103 1.125 . S
C1904 C987 1.296 . S
C1909 C131 1.133 . S
C1914 C969 1.309 . S
C1919 C151 1.457 . S
C1924 C845 1.333 . S
C1934 C925 1.409 . S
C1929 C159 1.185 . S
C1939 C165 1.446 . S
C1944 C739 1.357 . S
C1949 C137 1.506 . S
C1954 C783 1.375 . S
C1964 C677 1.406 . S
C1959 C145 1.181 . S
C1974 C1031 1.364 . S
C1969 C173 1.152 . S
C1979 C193 1.424 . S
C1984 C1111 1.310 . S
C1989 C201 1.180 . S
C1994 C1173 1.375 . S
C2004 C1235 1.320 . S
C1999 C207 1.432 . S
C2014 C1279 1.411 . S
C2009 C179 1.516 . S
C2019 C187 1.185 . S
C2024 C1359 1.383 . S
C2029 C215 1.209 . S
C2034 C1341 1.418 . S
C2039 C235 1.524 . S
C2044 C1217 1.385 . S
C2054 C1297 1.426 . S
C2049 C243 1.197 . S
C2064 C1093 1.274 . S
C2059 C249 1.360 . S
C2074 C1155 1.348 . S
C2069 C221 1.473 . S
C2079 C229 1.133 . S
C2084 C1049 1.329 . S
