# Generated by pormake.
# Topology tbo, (3,4)-cn, num edge types: 1
# Building blocks:
#     Node 0, Type 0, BuildingBlock: WUSLED_clean_sbu_0, # of connection points: 3
#     Node 1, Type 0, BuildingBlock: WUSLED_clean_sbu_0, # of connection points: 3
#     Node 2, Type 0, BuildingBlock: WUSLED_clean_sbu_0, # of connection points: 3
#     Node 3, Type 0, BuildingBlock: WUSLED_clean_sbu_0, # of connection points: 3
#     Node 4, Type 0, BuildingBlock: WUSLED_clean_sbu_0, # of connection points: 3
#     Node 5, Type 0, BuildingBlock: WUSLED_clean_sbu_0, # of connection points: 3
#     Node 6, Type 0, BuildingBlock: WUSLED_clean_sbu_0, # of connection points: 3
#     Node 7, Type 0, BuildingBlock: WUSLED_clean_sbu_0, # of connection points: 3
#     Node 8, Type 0, BuildingBlock: WUSLED_clean_sbu_0, # of connection points: 3
#     Node 9, Type 0, BuildingBlock: WUSLED_clean_sbu_0, # of connection points: 3
#     Node 10, Type 0, BuildingBlock: WUSLED_clean_sbu_0, # of connection points: 3
#     Node 11, Type 0, BuildingBlock: WUSLED_clean_sbu_0, # of connection points: 3
#     Node 12, Type 0, BuildingBlock: WUSLED_clean_sbu_0, # of connection points: 3
#     Node 13, Type 0, BuildingBlock: WUSLED_clean_sbu_0, # of connection points: 3
#     Node 14, Type 0, BuildingBlock: WUSLED_clean_sbu_0, # of connection points: 3
#     Node 15, Type 0, BuildingBlock: WUSLED_clean_sbu_0, # of connection points: 3
#     Node 16, Type 0, BuildingBlock: WUSLED_clean_sbu_0, # of connection points: 3
#     Node 17, Type 0, BuildingBlock: WUSLED_clean_sbu_0, # of connection points: 3
#     Node 18, Type 0, BuildingBlock: WUSLED_clean_sbu_0, # of connection points: 3
#     Node 19, Type 0, BuildingBlock: WUSLED_clean_sbu_0, # of connection points: 3
#     Node 20, Type 0, BuildingBlock: WUSLED_clean_sbu_0, # of connection points: 3
#     Node 21, Type 0, BuildingBlock: WUSLED_clean_sbu_0, # of connection points: 3
#     Node 22, Type 0, BuildingBlock: WUSLED_clean_sbu_0, # of connection points: 3
#     Node 23, Type 0, BuildingBlock: WUSLED_clean_sbu_0, # of connection points: 3
#     Node 24, Type 0, BuildingBlock: WUSLED_clean_sbu_0, # of connection points: 3
#     Node 25, Type 0, BuildingBlock: WUSLED_clean_sbu_0, # of connection points: 3
#     Node 26, Type 0, BuildingBlock: WUSLED_clean_sbu_0, # of connection points: 3
#     Node 27, Type 0, BuildingBlock: WUSLED_clean_sbu_0, # of connection points: 3
#     Node 28, Type 0, BuildingBlock: WUSLED_clean_sbu_0, # of connection points: 3
#     Node 29, Type 0, BuildingBlock: WUSLED_clean_sbu_0, # of connection points: 3
#     Node 30, Type 0, BuildingBlock: WUSLED_clean_sbu_0, # of connection points: 3
#     Node 31, Type 0, BuildingBlock: WUSLED_clean_sbu_0, # of connection points: 3
#     Node 32, Type 1, BuildingBlock: MIFKUJ_clean_linker_1, # of connection points: 4
#     Node 33, Type 1, BuildingBlock: MIFKUJ_clean_linker_1, # of connection points: 4
#     Node 34, Type 1, BuildingBlock: MIFKUJ_clean_linker_1, # of connection points: 4
#     Node 35, Type 1, BuildingBlock: MIFKUJ_clean_linker_1, # of connection points: 4
#     Node 36, Type 1, BuildingBlock: MIFKUJ_clean_linker_1, # of connection points: 4
#     Node 37, Type 1, BuildingBlock: MIFKUJ_clean_linker_1, # of connection points: 4
#     Node 38, Type 1, BuildingBlock: MIFKUJ_clean_linker_1, # of connection points: 4
#     Node 39, Type 1, BuildingBlock: MIFKUJ_clean_linker_1, # of connection points: 4
#     Node 40, Type 1, BuildingBlock: MIFKUJ_clean_linker_1, # of connection points: 4
#     Node 41, Type 1, BuildingBlock: MIFKUJ_clean_linker_1, # of connection points: 4
#     Node 42, Type 1, BuildingBlock: MIFKUJ_clean_linker_1, # of connection points: 4
#     Node 43, Type 1, BuildingBlock: MIFKUJ_clean_linker_1, # of connection points: 4
#     Node 44, Type 1, BuildingBlock: MIFKUJ_clean_linker_1, # of connection points: 4
#     Node 45, Type 1, BuildingBlock: MIFKUJ_clean_linker_1, # of connection points: 4
#     Node 46, Type 1, BuildingBlock: MIFKUJ_clean_linker_1, # of connection points: 4
#     Node 47, Type 1, BuildingBlock: MIFKUJ_clean_linker_1, # of connection points: 4
#     Node 48, Type 1, BuildingBlock: MIFKUJ_clean_linker_1, # of connection points: 4
#     Node 49, Type 1, BuildingBlock: MIFKUJ_clean_linker_1, # of connection points: 4
#     Node 50, Type 1, BuildingBlock: MIFKUJ_clean_linker_1, # of connection points: 4
#     Node 51, Type 1, BuildingBlock: MIFKUJ_clean_linker_1, # of connection points: 4
#     Node 52, Type 1, BuildingBlock: MIFKUJ_clean_linker_1, # of connection points: 4
#     Node 53, Type 1, BuildingBlock: MIFKUJ_clean_linker_1, # of connection points: 4
#     Node 54, Type 1, BuildingBlock: MIFKUJ_clean_linker_1, # of connection points: 4
#     Node 55, Type 1, BuildingBlock: MIFKUJ_clean_linker_1, # of connection points: 4
#     Edge 56, Type (0, 1), BuildingBlock: ZUJKAS_clean_linker_0, # of connection points: 2
#     Edge 57, Type (0, 1), BuildingBlock: ZUJKAS_clean_linker_0, # of connection points: 2
#     Edge 58, Type (0, 1), BuildingBlock: ZUJKAS_clean_linker_0, # of connection points: 2
#     Edge 59, Type (0, 1), BuildingBlock: ZUJKAS_clean_linker_0, # of connection points: 2
#     Edge 60, Type (0, 1), BuildingBlock: ZUJKAS_clean_linker_0, # of connection points: 2
#     Edge 61, Type (0, 1), BuildingBlock: ZUJKAS_clean_linker_0, # of connection points: 2
#     Edge 62, Type (0, 1), BuildingBlock: ZUJKAS_clean_linker_0, # of connection points: 2
#     Edge 63, Type (0, 1), BuildingBlock: ZUJKAS_clean_linker_0, # of connection points: 2
#     Edge 64, Type (0, 1), BuildingBlock: ZUJKAS_clean_linker_0, # of connection points: 2
#     Edge 65, Type (0, 1), BuildingBlock: ZUJKAS_clean_linker_0, # of connection points: 2
#     Edge 66, Type (0, 1), BuildingBlock: ZUJKAS_clean_linker_0, # of connection points: 2
#     Edge 67, Type (0, 1), BuildingBlock: ZUJKAS_clean_linker_0, # of connection points: 2
#     Edge 68, Type (0, 1), BuildingBlock: ZUJKAS_clean_linker_0, # of connection points: 2
#     Edge 69, Type (0, 1), BuildingBlock: ZUJKAS_clean_linker_0, # of connection points: 2
#     Edge 70, Type (0, 1), BuildingBlock: ZUJKAS_clean_linker_0, # of connection points: 2
#     Edge 71, Type (0, 1), BuildingBlock: ZUJKAS_clean_linker_0, # of connection points: 2
#     Edge 72, Type (0, 1), BuildingBlock: ZUJKAS_clean_linker_0, # of connection points: 2
#     Edge 73, Type (0, 1), BuildingBlock: ZUJKAS_clean_linker_0, # of connection points: 2
#     Edge 74, Type (0, 1), BuildingBlock: ZUJKAS_clean_linker_0, # of connection points: 2
#     Edge 75, Type (0, 1), BuildingBlock: ZUJKAS_clean_linker_0, # of connection points: 2
#     Edge 76, Type (0, 1), BuildingBlock: ZUJKAS_clean_linker_0, # of connection points: 2
#     Edge 77, Type (0, 1), BuildingBlock: ZUJKAS_clean_linker_0, # of connection points: 2
#     Edge 78, Type (0, 1), BuildingBlock: ZUJKAS_clean_linker_0, # of connection points: 2
#     Edge 79, Type (0, 1), BuildingBlock: ZUJKAS_clean_linker_0, # of connection points: 2
#     Edge 80, Type (0, 1), BuildingBlock: ZUJKAS_clean_linker_0, # of connection points: 2
#     Edge 81, Type (0, 1), BuildingBlock: ZUJKAS_clean_linker_0, # of connection points: 2
#     Edge 82, Type (0, 1), BuildingBlock: ZUJKAS_clean_linker_0, # of connection points: 2
#     Edge 83, Type (0, 1), BuildingBlock: ZUJKAS_clean_linker_0, # of connection points: 2
#     Edge 84, Type (0, 1), BuildingBlock: ZUJKAS_clean_linker_0, # of connection points: 2
#     Edge 85, Type (0, 1), BuildingBlock: ZUJKAS_clean_linker_0, # of connection points: 2
#     Edge 86, Type (0, 1), BuildingBlock: ZUJKAS_clean_linker_0, # of connection points: 2
#     Edge 87, Type (0, 1), BuildingBlock: ZUJKAS_clean_linker_0, # of connection points: 2
#     Edge 88, Type (0, 1), BuildingBlock: ZUJKAS_clean_linker_0, # of connection points: 2
#     Edge 89, Type (0, 1), BuildingBlock: ZUJKAS_clean_linker_0, # of connection points: 2
#     Edge 90, Type (0, 1), BuildingBlock: ZUJKAS_clean_linker_0, # of connection points: 2
#     Edge 91, Type (0, 1), BuildingBlock: ZUJKAS_clean_linker_0, # of connection points: 2
#     Edge 92, Type (0, 1), BuildingBlock: ZUJKAS_clean_linker_0, # of connection points: 2
#     Edge 93, Type (0, 1), BuildingBlock: ZUJKAS_clean_linker_0, # of connection points: 2
#     Edge 94, Type (0, 1), BuildingBlock: ZUJKAS_clean_linker_0, # of connection points: 2
#     Edge 95, Type (0, 1), BuildingBlock: ZUJKAS_clean_linker_0, # of connection points: 2
#     Edge 96, Type (0, 1), BuildingBlock: ZUJKAS_clean_linker_0, # of connection points: 2
#     Edge 97, Type (0, 1), BuildingBlock: ZUJKAS_clean_linker_0, # of connection points: 2
#     Edge 98, Type (0, 1), BuildingBlock: ZUJKAS_clean_linker_0, # of connection points: 2
#     Edge 99, Type (0, 1), BuildingBlock: ZUJKAS_clean_linker_0, # of connection points: 2
#     Edge 100, Type (0, 1), BuildingBlock: ZUJKAS_clean_linker_0, # of connection points: 2
#     Edge 101, Type (0, 1), BuildingBlock: ZUJKAS_clean_linker_0, # of connection points: 2
#     Edge 102, Type (0, 1), BuildingBlock: ZUJKAS_clean_linker_0, # of connection points: 2
#     Edge 103, Type (0, 1), BuildingBlock: ZUJKAS_clean_linker_0, # of connection points: 2
#     Edge 104, Type (0, 1), BuildingBlock: ZUJKAS_clean_linker_0, # of connection points: 2
#     Edge 105, Type (0, 1), BuildingBlock: ZUJKAS_clean_linker_0, # of connection points: 2
#     Edge 106, Type (0, 1), BuildingBlock: ZUJKAS_clean_linker_0, # of connection points: 2
#     Edge 107, Type (0, 1), BuildingBlock: ZUJKAS_clean_linker_0, # of connection points: 2
#     Edge 108, Type (0, 1), BuildingBlock: ZUJKAS_clean_linker_0, # of connection points: 2
#     Edge 109, Type (0, 1), BuildingBlock: ZUJKAS_clean_linker_0, # of connection points: 2
#     Edge 110, Type (0, 1), BuildingBlock: ZUJKAS_clean_linker_0, # of connection points: 2
#     Edge 111, Type (0, 1), BuildingBlock: ZUJKAS_clean_linker_0, # of connection points: 2
#     Edge 112, Type (0, 1), BuildingBlock: ZUJKAS_clean_linker_0, # of connection points: 2
#     Edge 113, Type (0, 1), BuildingBlock: ZUJKAS_clean_linker_0, # of connection points: 2
#     Edge 114, Type (0, 1), BuildingBlock: ZUJKAS_clean_linker_0, # of connection points: 2
#     Edge 115, Type (0, 1), BuildingBlock: ZUJKAS_clean_linker_0, # of connection points: 2
#     Edge 116, Type (0, 1), BuildingBlock: ZUJKAS_clean_linker_0, # of connection points: 2
#     Edge 117, Type (0, 1), BuildingBlock: ZUJKAS_clean_linker_0, # of connection points: 2
#     Edge 118, Type (0, 1), BuildingBlock: ZUJKAS_clean_linker_0, # of connection points: 2
#     Edge 119, Type (0, 1), BuildingBlock: ZUJKAS_clean_linker_0, # of connection points: 2
#     Edge 120, Type (0, 1), BuildingBlock: ZUJKAS_clean_linker_0, # of connection points: 2
#     Edge 121, Type (0, 1), BuildingBlock: ZUJKAS_clean_linker_0, # of connection points: 2
#     Edge 122, Type (0, 1), BuildingBlock: ZUJKAS_clean_linker_0, # of connection points: 2
#     Edge 123, Type (0, 1), BuildingBlock: ZUJKAS_clean_linker_0, # of connection points: 2
#     Edge 124, Type (0, 1), BuildingBlock: ZUJKAS_clean_linker_0, # of connection points: 2
#     Edge 125, Type (0, 1), BuildingBlock: ZUJKAS_clean_linker_0, # of connection points: 2
#     Edge 126, Type (0, 1), BuildingBlock: ZUJKAS_clean_linker_0, # of connection points: 2
#     Edge 127, Type (0, 1), BuildingBlock: ZUJKAS_clean_linker_0, # of connection points: 2
#     Edge 128, Type (0, 1), BuildingBlock: ZUJKAS_clean_linker_0, # of connection points: 2
#     Edge 129, Type (0, 1), BuildingBlock: ZUJKAS_clean_linker_0, # of connection points: 2
#     Edge 130, Type (0, 1), BuildingBlock: ZUJKAS_clean_linker_0, # of connection points: 2
#     Edge 131, Type (0, 1), BuildingBlock: ZUJKAS_clean_linker_0, # of connection points: 2
#     Edge 132, Type (0, 1), BuildingBlock: ZUJKAS_clean_linker_0, # of connection points: 2
#     Edge 133, Type (0, 1), BuildingBlock: ZUJKAS_clean_linker_0, # of connection points: 2
#     Edge 134, Type (0, 1), BuildingBlock: ZUJKAS_clean_linker_0, # of connection points: 2
#     Edge 135, Type (0, 1), BuildingBlock: ZUJKAS_clean_linker_0, # of connection points: 2
#     Edge 136, Type (0, 1), BuildingBlock: ZUJKAS_clean_linker_0, # of connection points: 2
#     Edge 137, Type (0, 1), BuildingBlock: ZUJKAS_clean_linker_0, # of connection points: 2
#     Edge 138, Type (0, 1), BuildingBlock: ZUJKAS_clean_linker_0, # of connection points: 2
#     Edge 139, Type (0, 1), BuildingBlock: ZUJKAS_clean_linker_0, # of connection points: 2
#     Edge 140, Type (0, 1), BuildingBlock: ZUJKAS_clean_linker_0, # of connection points: 2
#     Edge 141, Type (0, 1), BuildingBlock: ZUJKAS_clean_linker_0, # of connection points: 2
#     Edge 142, Type (0, 1), BuildingBlock: ZUJKAS_clean_linker_0, # of connection points: 2
#     Edge 143, Type (0, 1), BuildingBlock: ZUJKAS_clean_linker_0, # of connection points: 2
#     Edge 144, Type (0, 1), BuildingBlock: ZUJKAS_clean_linker_0, # of connection points: 2
#     Edge 145, Type (0, 1), BuildingBlock: ZUJKAS_clean_linker_0, # of connection points: 2
#     Edge 146, Type (0, 1), BuildingBlock: ZUJKAS_clean_linker_0, # of connection points: 2
#     Edge 147, Type (0, 1), BuildingBlock: ZUJKAS_clean_linker_0, # of connection points: 2
#     Edge 148, Type (0, 1), BuildingBlock: ZUJKAS_clean_linker_0, # of connection points: 2
#     Edge 149, Type (0, 1), BuildingBlock: ZUJKAS_clean_linker_0, # of connection points: 2
#     Edge 150, Type (0, 1), BuildingBlock: ZUJKAS_clean_linker_0, # of connection points: 2
#     Edge 151, Type (0, 1), BuildingBlock: ZUJKAS_clean_linker_0, # of connection points: 2
# Relax obj value: 0.000
# Max RMSD: 0.012
# Mean RMSD: 0.007
data_MOF--net-tbo--node1-WUSLED_clean_sbu_0--node2-MIFKUJ_clean_linker_1--edge1-ZUJKAS_clean_linker_0
_symmetry_space_group_name_H-M    P1
_symmetry_Int_Tables_number       1
_symmetry_cell_setting            triclinic
loop_
_symmetry_equiv_pos_as_xyz
'x, y, z'
_cell_length_a     130.04199
_cell_length_b     130.43015
_cell_length_c     130.24006
_cell_angle_alpha  89.675336
_cell_angle_beta   90.299926
_cell_angle_gamma 90.696377
loop_
_atom_site_label
_atom_site_type_symbol
_atom_site_fract_x
_atom_site_fract_y
_atom_site_fract_z
_atom_type_partial_charge
C0 C 0.18365 0.15633 0.19821 0.0
C1 C 0.18794 0.14956 0.19111 0.0
C2 C 0.19415 0.13867 0.20509 0.0
C3 C 0.19312 0.1408 0.19452 0.0
C4 C 0.19001 0.14563 0.21214 0.0
C5 C 0.1848 0.15433 0.20873 0.0
U6 U 0.17814 0.17888 0.17983 0.0
O7 O 0.16336 0.18482 0.17429 0.0
O8 O 0.17357 0.19466 0.18353 0.0
C9 C 0.16448 0.19356 0.17918 0.0
C10 C 0.17776 0.16539 0.19489 0.0
C11 C 0.15561 0.19695 0.18527 0.0
C12 C 0.14002 0.1934 0.19502 0.0
C13 C 0.14868 0.18992 0.18977 0.0
C14 C 0.14526 0.21096 0.19161 0.0
C15 C 0.13814 0.20398 0.19592 0.0
C16 C 0.15387 0.20748 0.18633 0.0
C17 C 0.19523 0.18333 0.15614 0.0
C18 C 0.1956 0.19882 0.14564 0.0
C19 C 0.20442 0.18364 0.13994 0.0
C20 C 0.20122 0.17842 0.14879 0.0
C21 C 0.2017 0.19393 0.13826 0.0
C22 C 0.19237 0.19356 0.15449 0.0
C23 C 0.19224 0.17768 0.16551 0.0
O24 O 0.18262 0.17425 0.19552 0.0
O25 O 0.17228 0.16441 0.18643 0.0
O26 O 0.1834 0.17269 0.16508 0.0
O27 O 0.19368 0.18253 0.17423 0.0
H28 H 0.18718 0.15096 0.18293 0.0
H29 H 0.19613 0.13559 0.18886 0.0
H30 H 0.19082 0.14438 0.22033 0.0
H31 H 0.1816 0.15949 0.21433 0.0
H32 H 0.13467 0.18779 0.19815 0.0
H33 H 0.14986 0.18175 0.1891 0.0
H34 H 0.14421 0.21915 0.19231 0.0
H35 H 0.15915 0.21303 0.18296 0.0
H36 H 0.19327 0.2067 0.14454 0.0
H37 H 0.20921 0.17968 0.13451 0.0
H38 H 0.20353 0.17053 0.14994 0.0
H39 H 0.18769 0.19747 0.16006 0.0
C40 C 0.82181 0.18372 0.15834 0.0
C41 C 0.82465 0.19405 0.15692 0.0
C42 C 0.81488 0.19464 0.14089 0.0
C43 C 0.8212 0.19947 0.14829 0.0
C44 C 0.81216 0.18426 0.14234 0.0
C45 C 0.81558 0.17887 0.15099 0.0
U46 U 0.84021 0.1798 0.18093 0.0
O47 O 0.83713 0.17468 0.19673 0.0
O48 O 0.84713 0.16562 0.18686 0.0
C49 C 0.84225 0.16613 0.19564 0.0
C50 C 0.82531 0.17789 0.16737 0.0
C51 C 0.83674 0.15673 0.19881 0.0
C52 C 0.8221 0.14505 0.19751 0.0
C53 C 0.82733 0.15392 0.19426 0.0
C54 C 0.83571 0.14167 0.2098 0.0
C55 C 0.82622 0.13883 0.20534 0.0
C56 C 0.84091 0.15055 0.20656 0.0
C57 C 0.86215 0.19903 0.18565 0.0
C58 C 0.87747 0.19578 0.19588 0.0
C59 C 0.87286 0.21322 0.19156 0.0
C60 C 0.86421 0.20958 0.18622 0.0
C61 C 0.87966 0.20636 0.19638 0.0
C62 C 0.86877 0.19215 0.1906 0.0
C63 C 0.8531 0.1954 0.1798 0.0
O64 O 0.83426 0.17344 0.16641 0.0
O65 O 0.82417 0.18241 0.17628 0.0
O66 O 0.84427 0.19582 0.18462 0.0
O67 O 0.85427 0.18685 0.17464 0.0
H68 H 0.8295 0.19792 0.16251 0.0
H69 H 0.82336 0.20748 0.14749 0.0
H70 H 0.80747 0.18024 0.13673 0.0
H71 H 0.81338 0.17088 0.15192 0.0
H72 H 0.81487 0.14302 0.19384 0.0
H73 H 0.82402 0.15861 0.18822 0.0
H74 H 0.83904 0.13714 0.21594 0.0
H75 H 0.84816 0.15262 0.21017 0.0
H76 H 0.88257 0.19026 0.1994 0.0
H77 H 0.87417 0.22142 0.19194 0.0
H78 H 0.85914 0.21501 0.18252 0.0
H79 H 0.86729 0.18396 0.19029 0.0
C80 C 0.82449 0.83749 0.15632 0.0
C81 C 0.82718 0.82717 0.15511 0.0
C82 C 0.81822 0.82662 0.13859 0.0
C83 C 0.82404 0.82178 0.14633 0.0
C84 C 0.81569 0.837 0.13982 0.0
C85 C 0.81878 0.84236 0.1486 0.0
U86 U 0.84147 0.84229 0.18013 0.0
O87 O 0.84712 0.85686 0.18661 0.0
O88 O 0.83695 0.84685 0.19572 0.0
C89 C 0.84171 0.85578 0.19506 0.0
C90 C 0.82738 0.84327 0.16563 0.0
C91 C 0.83571 0.86473 0.19824 0.0
C92 C 0.82485 0.87934 0.19437 0.0
C93 C 0.83027 0.87073 0.19111 0.0
C94 C 0.8301 0.87594 0.21192 0.0
C95 C 0.82471 0.88206 0.20482 0.0
C96 C 0.83554 0.86738 0.20865 0.0
C97 C 0.86411 0.82439 0.18603 0.0
C98 C 0.87848 0.82799 0.19757 0.0
C99 C 0.87547 0.8107 0.19146 0.0
C100 C 0.86694 0.81406 0.18585 0.0
C101 C 0.88138 0.81762 0.19735 0.0
C102 C 0.86989 0.83134 0.19199 0.0
C103 C 0.85525 0.82773 0.17977 0.0
O104 O 0.82596 0.83848 0.17442 0.0
O105 O 0.83615 0.84837 0.16522 0.0
O106 O 0.85635 0.83652 0.17488 0.0
O107 O 0.84617 0.82655 0.18402 0.0
H108 H 0.83164 0.82329 0.16096 0.0
H109 H 0.82623 0.81383 0.14558 0.0
H110 H 0.81112 0.84094 0.13409 0.0
H111 H 0.81662 0.85031 0.14941 0.0
H112 H 0.82069 0.88382 0.18872 0.0
H113 H 0.83024 0.86878 0.18304 0.0
H114 H 0.83028 0.87787 0.21999 0.0
H115 H 0.83971 0.86287 0.21426 0.0
H116 H 0.88279 0.83349 0.20212 0.0
H117 H 0.87755 0.8027 0.19101 0.0
H118 H 0.86259 0.80859 0.18128 0.0
H119 H 0.8678 0.83935 0.19228 0.0
C120 C 0.15696 0.82228 0.18569 0.0
C121 C 0.1514 0.82911 0.19176 0.0
C122 C 0.13942 0.81537 0.19658 0.0
C123 C 0.14269 0.82569 0.19714 0.0
C124 C 0.14518 0.80854 0.19064 0.0
C125 C 0.15384 0.81197 0.18525 0.0
U126 U 0.17965 0.84063 0.18018 0.0
O127 O 0.19517 0.83724 0.17464 0.0
O128 O 0.18499 0.84694 0.16538 0.0
C129 C 0.19376 0.84207 0.16587 0.0
C130 C 0.16588 0.82573 0.17959 0.0
C131 C 0.19666 0.83645 0.15655 0.0
C132 C 0.1974 0.8208 0.14652 0.0
C133 C 0.19425 0.82601 0.15533 0.0
C134 C 0.20521 0.83647 0.14001 0.0
C135 C 0.20294 0.82597 0.13876 0.0
C136 C 0.20211 0.84164 0.14882 0.0
C137 C 0.18551 0.86328 0.19816 0.0
C138 C 0.19345 0.87988 0.19439 0.0
C139 C 0.19405 0.87301 0.21169 0.0
C140 C 0.1886 0.86429 0.20844 0.0
C141 C 0.19647 0.88095 0.20473 0.0
C142 C 0.18806 0.87111 0.19112 0.0
C143 C 0.17944 0.85413 0.19506 0.0
O144 O 0.16483 0.83449 0.17465 0.0
O145 O 0.17493 0.82478 0.18401 0.0
O146 O 0.18417 0.84531 0.19583 0.0
O147 O 0.17386 0.85497 0.18665 0.0
H148 H 0.1537 0.8371 0.19223 0.0
H149 H 0.13841 0.83118 0.20155 0.0
H150 H 0.14302 0.80051 0.19018 0.0
H151 H 0.15807 0.80657 0.18065 0.0
H152 H 0.19543 0.81275 0.14575 0.0
H153 H 0.18999 0.82187 0.16119 0.0
H154 H 0.20957 0.84066 0.13426 0.0
H155 H 0.20405 0.8497 0.14963 0.0
H156 H 0.1953 0.88581 0.18882 0.0
H157 H 0.19616 0.87364 0.21972 0.0
H158 H 0.18669 0.85837 0.214 0.0
H159 H 0.18584 0.87051 0.18312 0.0
C160 C 0.15713 0.82274 0.83846 0.0
C161 C 0.15561 0.82585 0.82824 0.0
C162 C 0.13947 0.81616 0.82755 0.0
C163 C 0.14687 0.82254 0.8228 0.0
C164 C 0.14102 0.81316 0.83783 0.0
C165 C 0.14978 0.81641 0.84322 0.0
U166 U 0.17977 0.84113 0.84271 0.0
O167 O 0.18599 0.84761 0.85706 0.0
O168 O 0.19572 0.83808 0.84736 0.0
C169 C 0.19478 0.84284 0.85617 0.0
C170 C 0.16628 0.82609 0.84429 0.0
C171 C 0.19814 0.8371 0.86531 0.0
C172 C 0.1983 0.82156 0.87571 0.0
C173 C 0.19497 0.8269 0.86697 0.0
C174 C 0.20786 0.83661 0.88127 0.0
C175 C 0.20478 0.82637 0.88296 0.0
C176 C 0.20458 0.84192 0.87252 0.0
C177 C 0.1838 0.86381 0.82429 0.0
C178 C 0.19973 0.87349 0.822 0.0
C179 C 0.1836 0.88056 0.81608 0.0
C180 C 0.1784 0.8718 0.81958 0.0
C181 C 0.19435 0.8815 0.81716 0.0
C182 C 0.19449 0.86474 0.82557 0.0
C183 C 0.17812 0.85459 0.82775 0.0
O184 O 0.17511 0.82521 0.83953 0.0
O185 O 0.1654 0.83482 0.84916 0.0
O186 O 0.17329 0.85544 0.83654 0.0
O187 O 0.18289 0.84582 0.82679 0.0
H188 H 0.16117 0.83082 0.82446 0.0
H189 H 0.14584 0.82509 0.81494 0.0
H190 H 0.13552 0.80816 0.84166 0.0
H191 H 0.15082 0.81395 0.85112 0.0
H192 H 0.1957 0.81372 0.87685 0.0
H193 H 0.18993 0.82308 0.86152 0.0
H194 H 0.21294 0.84049 0.88665 0.0
H195 H 0.20709 0.84979 0.87136 0.0
H196 H 0.20801 0.87389 0.82288 0.0
H197 H 0.17917 0.88665 0.81258 0.0
H198 H 0.17013 0.87125 0.8186 0.0
H199 H 0.19882 0.85868 0.82924 0.0
C200 C 0.15456 0.18175 0.82478 0.0
C201 C 0.1535 0.19204 0.82766 0.0
C202 C 0.13705 0.1929 0.81858 0.0
C203 C 0.14484 0.19758 0.82455 0.0
C204 C 0.13815 0.18256 0.81581 0.0
C205 C 0.14681 0.17706 0.81887 0.0
U206 U 0.1781 0.17663 0.84196 0.0
O207 O 0.18384 0.16193 0.84799 0.0
O208 O 0.19351 0.17136 0.83779 0.0
C209 C 0.19239 0.16257 0.84267 0.0
C210 C 0.16365 0.17577 0.82778 0.0
C211 C 0.1952 0.15331 0.83692 0.0
C212 C 0.19602 0.14351 0.82109 0.0
C213 C 0.19288 0.15223 0.82644 0.0
C214 C 0.20363 0.13677 0.8367 0.0
C215 C 0.20147 0.13569 0.82616 0.0
C216 C 0.20054 0.14549 0.84201 0.0
C217 C 0.18441 0.19495 0.86436 0.0
C218 C 0.19403 0.19145 0.88007 0.0
C219 C 0.19115 0.20899 0.8747 0.0
C220 C 0.18578 0.20548 0.86605 0.0
C221 C 0.19523 0.20204 0.88191 0.0
C222 C 0.18868 0.18794 0.87137 0.0
C223 C 0.1782 0.19154 0.85545 0.0
O224 O 0.17264 0.18027 0.82636 0.0
O225 O 0.163 0.17089 0.83662 0.0
O226 O 0.17288 0.18297 0.85661 0.0
O227 O 0.18263 0.19234 0.84643 0.0
H228 H 0.15937 0.19579 0.83228 0.0
H229 H 0.14418 0.20549 0.82691 0.0
H230 H 0.13238 0.17875 0.81111 0.0
H231 H 0.1475 0.16912 0.81657 0.0
H232 H 0.19413 0.14287 0.81301 0.0
H233 H 0.18871 0.15815 0.82237 0.0
H234 H 0.20791 0.13096 0.84082 0.0
H235 H 0.20242 0.14618 0.85009 0.0
H236 H 0.19698 0.18587 0.88548 0.0
H237 H 0.19209 0.21718 0.87573 0.0
H238 H 0.1826 0.21101 0.86072 0.0
H239 H 0.18775 0.17976 0.87022 0.0
C240 C 0.82162 0.15751 0.83823 0.0
C241 C 0.82851 0.1519 0.83227 0.0
C242 C 0.8148 0.13981 0.82762 0.0
C243 C 0.82514 0.14312 0.82703 0.0
C244 C 0.80792 0.14559 0.83349 0.0
C245 C 0.81131 0.15433 0.83874 0.0
U246 U 0.83984 0.18042 0.84302 0.0
O247 O 0.83616 0.19613 0.84777 0.0
O248 O 0.84593 0.18652 0.85757 0.0
C249 C 0.84092 0.19518 0.85664 0.0
C250 C 0.82498 0.16662 0.84404 0.0
C251 C 0.83507 0.1984 0.86571 0.0
C252 C 0.82357 0.19467 0.87996 0.0
C253 C 0.82888 0.19144 0.87124 0.0
C254 C 0.83044 0.21186 0.87759 0.0
C255 C 0.8243 0.20493 0.88325 0.0
C256 C 0.83577 0.20862 0.86892 0.0
C257 C 0.86264 0.18553 0.82502 0.0
C258 C 0.87692 0.1972 0.82867 0.0
C259 C 0.87462 0.19037 0.81154 0.0
C260 C 0.86591 0.18491 0.81482 0.0
C261 C 0.88027 0.19655 0.81843 0.0
C262 C 0.86815 0.19176 0.83193 0.0
C263 C 0.85351 0.17957 0.82828 0.0
O264 O 0.83372 0.16583 0.8491 0.0
O265 O 0.82401 0.17546 0.83926 0.0
O266 O 0.84466 0.18421 0.82724 0.0
O267 O 0.85438 0.17454 0.83701 0.0
H268 H 0.83651 0.15426 0.83175 0.0
H269 H 0.83068 0.13882 0.82267 0.0
H270 H 0.79988 0.14341 0.83397 0.0
H271 H 0.80586 0.1586 0.84325 0.0
H272 H 0.81882 0.18916 0.88408 0.0
H273 H 0.82819 0.18352 0.86884 0.0
H274 H 0.83128 0.21977 0.87996 0.0
H275 H 0.84052 0.21409 0.86475 0.0
H276 H 0.88102 0.20197 0.83414 0.0
H277 H 0.87705 0.1896 0.80364 0.0
H278 H 0.86175 0.18014 0.80938 0.0
H279 H 0.8657 0.1924 0.83983 0.0
C280 C 0.83619 0.86431 0.82336 0.0
C281 C 0.83191 0.87101 0.83055 0.0
C282 C 0.82556 0.88198 0.81669 0.0
C283 C 0.82666 0.87977 0.82724 0.0
C284 C 0.82969 0.8751 0.80955 0.0
C285 C 0.83496 0.8664 0.81286 0.0
U286 U 0.84176 0.84112 0.84097 0.0
O287 O 0.84681 0.82565 0.83668 0.0
O288 O 0.85657 0.83528 0.84659 0.0
C289 C 0.85579 0.82679 0.84122 0.0
C290 C 0.84219 0.85528 0.82654 0.0
C291 C 0.86487 0.82387 0.83512 0.0
C292 C 0.88173 0.82764 0.82783 0.0
C293 C 0.873 0.83081 0.83315 0.0
C294 C 0.87427 0.81064 0.82613 0.0
C295 C 0.88249 0.8175 0.8243 0.0
C296 C 0.86558 0.81378 0.83151 0.0
C297 C 0.82409 0.83502 0.8639 0.0
C298 C 0.82799 0.82336 0.87801 0.0
C299 C 0.81069 0.82974 0.87582 0.0
C300 C 0.81386 0.83533 0.86719 0.0
C301 C 0.81772 0.82371 0.88138 0.0
C302 C 0.83114 0.82894 0.86932 0.0
C303 C 0.82721 0.8412 0.8549 0.0
O304 O 0.84737 0.85603 0.83521 0.0
O305 O 0.83759 0.84633 0.82539 0.0
O306 O 0.82614 0.83672 0.84594 0.0
O307 O 0.83588 0.84642 0.8558 0.0
H308 H 0.83272 0.86955 0.8387 0.0
H309 H 0.82366 0.88492 0.83296 0.0
H310 H 0.82882 0.87641 0.80138 0.0
H311 H 0.83815 0.8613 0.80719 0.0
H312 H 0.88788 0.83314 0.82644 0.0
H313 H 0.87268 0.83865 0.83579 0.0
H314 H 0.87465 0.80275 0.82363 0.0
H315 H 0.85945 0.80828 0.83298 0.0
H316 H 0.83356 0.81871 0.88204 0.0
H317 H 0.80277 0.8303 0.87826 0.0
H318 H 0.80831 0.83999 0.86311 0.0
H319 H 0.83907 0.82855 0.86687 0.0
C320 C 0.1822 0.65506 0.69773 0.0
C321 C 0.19268 0.6539 0.69552 0.0
C322 C 0.19285 0.63759 0.70484 0.0
C323 C 0.19796 0.64525 0.69906 0.0
C324 C 0.1823 0.63876 0.70686 0.0
C325 C 0.17705 0.64741 0.70336 0.0
U326 U 0.17787 0.67818 0.67981 0.0
O327 O 0.16335 0.68413 0.67349 0.0
O328 O 0.17296 0.69379 0.6835 0.0
C329 C 0.16417 0.69279 0.67854 0.0
C330 C 0.17649 0.6642 0.69437 0.0
C331 C 0.15493 0.69601 0.68411 0.0
C332 C 0.14457 0.6967 0.6996 0.0
C333 C 0.15325 0.69319 0.6944 0.0
C334 C 0.13908 0.70569 0.68424 0.0
C335 C 0.13741 0.70307 0.69461 0.0
C336 C 0.14775 0.70221 0.67907 0.0
C337 C 0.19645 0.68345 0.65744 0.0
C338 C 0.19314 0.69454 0.64273 0.0
C339 C 0.21035 0.68835 0.64594 0.0
C340 C 0.20683 0.68309 0.65465 0.0
C341 C 0.20354 0.69407 0.6398 0.0
C342 C 0.18963 0.68929 0.65148 0.0
C343 C 0.19293 0.67751 0.66646 0.0
O344 O 0.18122 0.67308 0.69559 0.0
O345 O 0.17167 0.66342 0.68551 0.0
O346 O 0.1842 0.67242 0.66536 0.0
O347 O 0.19376 0.68215 0.67536 0.0
H348 H 0.19679 0.65971 0.69115 0.0
H349 H 0.20608 0.64466 0.69742 0.0
H350 H 0.17805 0.63295 0.7111 0.0
H351 H 0.16895 0.64814 0.70508 0.0
H352 H 0.14359 0.69459 0.70759 0.0
H353 H 0.1587 0.68839 0.69842 0.0
H354 H 0.13365 0.7104 0.68008 0.0
H355 H 0.14889 0.70442 0.67112 0.0
H356 H 0.18766 0.69878 0.63815 0.0
H357 H 0.21843 0.68797 0.64406 0.0
H358 H 0.21222 0.67868 0.65919 0.0
H359 H 0.18158 0.68969 0.65352 0.0
C360 C 0.82217 0.68356 0.65852 0.0
C361 C 0.82502 0.69388 0.65703 0.0
C362 C 0.81534 0.69435 0.64095 0.0
C363 C 0.82162 0.69923 0.64834 0.0
C364 C 0.81264 0.68396 0.64244 0.0
C365 C 0.81601 0.67864 0.65115 0.0
U366 U 0.84034 0.67977 0.68132 0.0
O367 O 0.83696 0.67495 0.69719 0.0
O368 O 0.84704 0.66566 0.68761 0.0
C369 C 0.84203 0.66635 0.69631 0.0
C370 C 0.82554 0.67783 0.66766 0.0
C371 C 0.83643 0.65704 0.69961 0.0
C372 C 0.82466 0.64284 0.69615 0.0
C373 C 0.82988 0.65171 0.69285 0.0
C374 C 0.83238 0.64466 0.71302 0.0
C375 C 0.82587 0.63919 0.70628 0.0
C376 C 0.83761 0.65349 0.70971 0.0
C377 C 0.8625 0.69877 0.68591 0.0
C378 C 0.87768 0.69543 0.69634 0.0
C379 C 0.87347 0.71287 0.69157 0.0
C380 C 0.86479 0.70928 0.68626 0.0
C381 C 0.88009 0.70599 0.69661 0.0
C382 C 0.86895 0.69186 0.69107 0.0
C383 C 0.85345 0.69518 0.68005 0.0
O384 O 0.83445 0.67325 0.66685 0.0
O385 O 0.82438 0.6825 0.67649 0.0
O386 O 0.84459 0.69579 0.6848 0.0
O387 O 0.85454 0.68653 0.67504 0.0
H388 H 0.82982 0.6978 0.66263 0.0
H389 H 0.82377 0.70724 0.6475 0.0
H390 H 0.80799 0.6799 0.63683 0.0
H391 H 0.8138 0.67066 0.65214 0.0
H392 H 0.8198 0.63877 0.69072 0.0
H393 H 0.82884 0.65437 0.68502 0.0
H394 H 0.83335 0.6422 0.72092 0.0
H395 H 0.84257 0.65757 0.71505 0.0
H396 H 0.88264 0.6899 0.70003 0.0
H397 H 0.87495 0.72105 0.69178 0.0
H398 H 0.85986 0.71474 0.68239 0.0
H399 H 0.86729 0.6837 0.69095 0.0
C400 C 0.82463 0.33725 0.65597 0.0
C401 C 0.82711 0.32686 0.65497 0.0
C402 C 0.81814 0.32614 0.63847 0.0
C403 C 0.82385 0.32134 0.64631 0.0
C404 C 0.81578 0.33658 0.6395 0.0
C405 C 0.81898 0.34206 0.64816 0.0
U406 U 0.84231 0.34265 0.67914 0.0
O407 O 0.84826 0.35746 0.68487 0.0
O408 O 0.83843 0.34779 0.69469 0.0
C409 C 0.84315 0.35669 0.69352 0.0
C410 C 0.82776 0.34323 0.66507 0.0
C411 C 0.83739 0.36587 0.69659 0.0
C412 C 0.82138 0.37492 0.69939 0.0
C413 C 0.82661 0.36625 0.69598 0.0
C414 C 0.83763 0.38302 0.70384 0.0
C415 C 0.82682 0.38339 0.70346 0.0
C416 C 0.84284 0.37435 0.70048 0.0
C417 C 0.86532 0.32511 0.68462 0.0
C418 C 0.87523 0.32455 0.70051 0.0
C419 C 0.88158 0.31612 0.68532 0.0
C420 C 0.8729 0.3193 0.67983 0.0
C421 C 0.88285 0.31867 0.69574 0.0
C422 C 0.86656 0.32777 0.69499 0.0
C423 C 0.85618 0.32817 0.67865 0.0
O424 O 0.82664 0.33863 0.67402 0.0
O425 O 0.83649 0.34835 0.66428 0.0
O426 O 0.85705 0.33681 0.67348 0.0
O427 O 0.84726 0.32709 0.68327 0.0
H428 H 0.83153 0.32301 0.66089 0.0
H429 H 0.8259 0.31334 0.64571 0.0
H430 H 0.81129 0.34049 0.63368 0.0
H431 H 0.81699 0.35008 0.6488 0.0
H432 H 0.81305 0.37488 0.69905 0.0
H433 H 0.82222 0.35981 0.69297 0.0
H434 H 0.84211 0.38945 0.70672 0.0
H435 H 0.85116 0.37424 0.70097 0.0
H436 H 0.87602 0.32674 0.70849 0.0
H437 H 0.88721 0.3115 0.68144 0.0
H438 H 0.87207 0.31716 0.67184 0.0
H439 H 0.86082 0.33231 0.69881 0.0
C440 C 0.15733 0.32262 0.68557 0.0
C441 C 0.15074 0.32957 0.69034 0.0
C442 C 0.13983 0.31544 0.69639 0.0
C443 C 0.14206 0.32602 0.69567 0.0
C444 C 0.1466 0.30853 0.69176 0.0
C445 C 0.15523 0.31209 0.6864 0.0
U446 U 0.17994 0.34114 0.68035 0.0
O447 O 0.19562 0.33789 0.67516 0.0
O448 O 0.18554 0.34746 0.66565 0.0
C449 C 0.19435 0.34266 0.66633 0.0
C450 C 0.1663 0.32614 0.67955 0.0
C451 C 0.19748 0.33701 0.65712 0.0
C452 C 0.19843 0.32131 0.64718 0.0
C453 C 0.19506 0.32657 0.65587 0.0
C454 C 0.20648 0.33693 0.64082 0.0
C455 C 0.20425 0.32641 0.63957 0.0
C456 C 0.20314 0.34215 0.6495 0.0
C457 C 0.1851 0.3637 0.69855 0.0
C458 C 0.197 0.37782 0.69503 0.0
C459 C 0.18971 0.37575 0.71201 0.0
C460 C 0.18425 0.36708 0.70869 0.0
C461 C 0.19614 0.38125 0.70522 0.0
C462 C 0.19155 0.36909 0.69173 0.0
C463 C 0.1792 0.35457 0.69527 0.0
O464 O 0.16528 0.33486 0.67454 0.0
O465 O 0.1753 0.32524 0.68407 0.0
O466 O 0.18402 0.34581 0.69608 0.0
O467 O 0.17397 0.35548 0.68666 0.0
H468 H 0.15222 0.33775 0.68984 0.0
H469 H 0.13698 0.33158 0.69903 0.0
H470 H 0.14527 0.30033 0.69232 0.0
H471 H 0.16026 0.3066 0.68283 0.0
H472 H 0.19665 0.31321 0.64653 0.0
H473 H 0.19066 0.32247 0.66165 0.0
H474 H 0.21076 0.34116 0.63504 0.0
H475 H 0.20502 0.35022 0.6503 0.0
H476 H 0.20196 0.38181 0.68964 0.0
H477 H 0.18876 0.37825 0.71986 0.0
H478 H 0.1793 0.36302 0.71406 0.0
H479 H 0.19236 0.36655 0.68387 0.0
C480 C 0.15764 0.32147 0.3382 0.0
C481 C 0.15152 0.32853 0.33286 0.0
C482 C 0.13982 0.31476 0.32757 0.0
C483 C 0.14267 0.32522 0.32763 0.0
C484 C 0.1461 0.30772 0.33282 0.0
C485 C 0.15491 0.31105 0.33809 0.0
U486 U 0.18016 0.34006 0.34241 0.0
O487 O 0.18677 0.34621 0.3567 0.0
O488 O 0.19627 0.33695 0.34652 0.0
C489 C 0.19557 0.34154 0.35544 0.0
C490 C 0.16692 0.32479 0.34386 0.0
C491 C 0.19921 0.33561 0.36435 0.0
C492 C 0.1968 0.3221 0.37706 0.0
C493 C 0.19329 0.32754 0.36846 0.0
C494 C 0.21223 0.3327 0.37743 0.0
C495 C 0.20632 0.32463 0.38166 0.0
C496 C 0.2087 0.33814 0.36886 0.0
C497 C 0.18359 0.36322 0.32455 0.0
C498 C 0.19945 0.37308 0.32248 0.0
C499 C 0.18331 0.37999 0.31638 0.0
C500 C 0.17816 0.37116 0.3198 0.0
C501 C 0.19404 0.38104 0.31759 0.0
C502 C 0.19427 0.36427 0.32596 0.0
C503 C 0.17801 0.3539 0.32788 0.0
O504 O 0.17559 0.32417 0.33878 0.0
O505 O 0.16612 0.33333 0.34909 0.0
O506 O 0.17341 0.35448 0.33681 0.0
O507 O 0.1828 0.34519 0.32654 0.0
H508 H 0.15354 0.33661 0.3328 0.0
H509 H 0.13798 0.33087 0.32378 0.0
H510 H 0.14427 0.2996 0.33279 0.0
H511 H 0.15959 0.30548 0.34209 0.0
H512 H 0.19212 0.31586 0.38006 0.0
H513 H 0.18595 0.32546 0.36504 0.0
H514 H 0.21952 0.33495 0.38085 0.0
H515 H 0.21335 0.34438 0.36579 0.0
H516 H 0.20771 0.37356 0.32346 0.0
H517 H 0.17886 0.38604 0.31284 0.0
H518 H 0.16991 0.37052 0.31871 0.0
H519 H 0.19861 0.35823 0.32967 0.0
C520 C 0.15446 0.68173 0.32502 0.0
C521 C 0.15358 0.69215 0.32751 0.0
C522 C 0.13697 0.69286 0.31872 0.0
C523 C 0.14493 0.69767 0.32435 0.0
C524 C 0.13788 0.68239 0.31635 0.0
C525 C 0.14654 0.67691 0.31946 0.0
U526 U 0.17803 0.67659 0.34219 0.0
O527 O 0.18375 0.66187 0.3482 0.0
O528 O 0.19342 0.67129 0.338 0.0
C529 C 0.19229 0.66249 0.34287 0.0
C530 C 0.16356 0.67576 0.32804 0.0
C531 C 0.19505 0.65323 0.33709 0.0
C532 C 0.19588 0.6435 0.32123 0.0
C533 C 0.19278 0.65221 0.32659 0.0
C534 C 0.20334 0.63662 0.33684 0.0
C535 C 0.20124 0.63561 0.32629 0.0
C536 C 0.2003 0.64534 0.34217 0.0
C537 C 0.18445 0.69486 0.3646 0.0
C538 C 0.19405 0.69133 0.38031 0.0
C539 C 0.19139 0.70887 0.37485 0.0
C540 C 0.18596 0.70538 0.36623 0.0
C541 C 0.19541 0.70191 0.38208 0.0
C542 C 0.18864 0.68783 0.37164 0.0
C543 C 0.17819 0.69148 0.35571 0.0
O544 O 0.17255 0.68024 0.32661 0.0
O545 O 0.1629 0.67089 0.33688 0.0
O546 O 0.17286 0.68293 0.35687 0.0
O547 O 0.1826 0.69229 0.34667 0.0
H548 H 0.15959 0.696 0.33186 0.0
H549 H 0.14443 0.70568 0.3264 0.0
H550 H 0.13198 0.67847 0.31192 0.0
H551 H 0.14708 0.66888 0.31746 0.0
H552 H 0.19403 0.64291 0.31313 0.0
H553 H 0.18868 0.65818 0.32252 0.0
H554 H 0.20756 0.63077 0.34096 0.0
H555 H 0.20214 0.64599 0.35027 0.0
H556 H 0.19694 0.68573 0.38574 0.0
H557 H 0.19245 0.71706 0.37583 0.0
H558 H 0.18284 0.71093 0.36087 0.0
H559 H 0.18761 0.67966 0.37053 0.0
C560 C 0.82187 0.65705 0.339 0.0
C561 C 0.8286 0.65187 0.33248 0.0
C562 C 0.81503 0.6395 0.32817 0.0
C563 C 0.82521 0.64316 0.32713 0.0
C564 C 0.80831 0.64485 0.3346 0.0
C565 C 0.81171 0.65352 0.33996 0.0
U566 U 0.84024 0.67975 0.34393 0.0
O567 O 0.83692 0.69539 0.34905 0.0
O568 O 0.84664 0.68545 0.35856 0.0
C569 C 0.84174 0.69418 0.35787 0.0
C570 C 0.82531 0.66604 0.34495 0.0
C571 C 0.83611 0.69731 0.36712 0.0
C572 C 0.8202 0.69957 0.37657 0.0
C573 C 0.82539 0.69612 0.36787 0.0
C574 C 0.83642 0.70519 0.38399 0.0
C575 C 0.82565 0.70423 0.38472 0.0
C576 C 0.84157 0.70179 0.37528 0.0
C577 C 0.86271 0.68497 0.32554 0.0
C578 C 0.87669 0.69708 0.32885 0.0
C579 C 0.8748 0.68943 0.31203 0.0
C580 C 0.86615 0.68395 0.31543 0.0
C581 C 0.8802 0.69606 0.3187 0.0
C582 C 0.868 0.69161 0.33224 0.0
C583 C 0.85362 0.67903 0.32891 0.0
O584 O 0.83412 0.66511 0.34985 0.0
O585 O 0.82431 0.67497 0.34036 0.0
O586 O 0.84479 0.68377 0.32813 0.0
O587 O 0.85463 0.67388 0.33755 0.0
H588 H 0.83648 0.6545 0.33161 0.0
H589 H 0.83063 0.63919 0.32233 0.0
H590 H 0.80037 0.64239 0.33545 0.0
H591 H 0.80639 0.65746 0.34491 0.0
H592 H 0.81191 0.69879 0.37681 0.0
H593 H 0.821 0.69264 0.36168 0.0
H594 H 0.8409 0.70854 0.39018 0.0
H595 H 0.84985 0.70272 0.37488 0.0
H596 H 0.88061 0.7022 0.33415 0.0
H597 H 0.87736 0.68835 0.30422 0.0
H598 H 0.86217 0.67885 0.31016 0.0
H599 H 0.86541 0.69255 0.34006 0.0
C600 C 0.83598 0.36474 0.32408 0.0
C601 C 0.83379 0.37265 0.331 0.0
C602 C 0.82502 0.38223 0.31748 0.0
C603 C 0.8284 0.38132 0.32772 0.0
C604 C 0.82706 0.37422 0.31063 0.0
C605 C 0.83251 0.36559 0.31389 0.0
U606 U 0.84188 0.3415 0.34146 0.0
O607 O 0.84736 0.32619 0.33736 0.0
O608 O 0.85676 0.33604 0.3474 0.0
C609 C 0.8562 0.32746 0.34218 0.0
C610 C 0.8422 0.35577 0.32714 0.0
C611 C 0.86551 0.3247 0.33644 0.0
C612 C 0.87531 0.32373 0.3206 0.0
C613 C 0.86651 0.32678 0.32589 0.0
C614 C 0.88229 0.3167 0.33638 0.0
C615 C 0.88331 0.31862 0.32579 0.0
C616 C 0.87348 0.31969 0.34163 0.0
C617 C 0.82389 0.33515 0.36409 0.0
C618 C 0.82764 0.32334 0.37811 0.0
C619 C 0.81043 0.32995 0.37597 0.0
C620 C 0.81367 0.33557 0.36738 0.0
C621 C 0.81738 0.32379 0.38147 0.0
C622 C 0.83086 0.32895 0.36946 0.0
C623 C 0.82707 0.34135 0.35513 0.0
O624 O 0.84739 0.35649 0.33581 0.0
O625 O 0.83785 0.34672 0.32582 0.0
O626 O 0.82626 0.33682 0.34617 0.0
O627 O 0.83564 0.34672 0.35617 0.0
H628 H 0.83632 0.37221 0.33893 0.0
H629 H 0.82685 0.3873 0.33322 0.0
H630 H 0.82466 0.37472 0.30267 0.0
H631 H 0.83415 0.35964 0.30839 0.0
H632 H 0.8759 0.32543 0.31248 0.0
H633 H 0.86046 0.3307 0.32174 0.0
H634 H 0.88822 0.31267 0.34059 0.0
H635 H 0.87285 0.318 0.34976 0.0
H636 H 0.83316 0.31859 0.3821 0.0
H637 H 0.80252 0.3306 0.37841 0.0
H638 H 0.80818 0.34033 0.36334 0.0
H639 H 0.83879 0.32848 0.36701 0.0
C640 C 0.68256 0.15492 0.69716 0.0
C641 C 0.69306 0.15409 0.69488 0.0
C642 C 0.69362 0.13743 0.70351 0.0
C643 C 0.69855 0.14544 0.69806 0.0
C644 C 0.68308 0.13829 0.70567 0.0
C645 C 0.67762 0.14694 0.70253 0.0
U646 U 0.67737 0.17832 0.67986 0.0
O647 O 0.66259 0.18404 0.67393 0.0
O648 O 0.67213 0.19371 0.68399 0.0
C649 C 0.66329 0.1926 0.67916 0.0
C650 C 0.6766 0.164 0.69412 0.0
C651 C 0.65405 0.19548 0.68495 0.0
C652 C 0.64415 0.19606 0.70074 0.0
C653 C 0.65284 0.19285 0.69535 0.0
C654 C 0.63773 0.20435 0.68535 0.0
C655 C 0.63651 0.20188 0.69581 0.0
C656 C 0.64641 0.20119 0.67999 0.0
C657 C 0.6954 0.18469 0.65721 0.0
C658 C 0.69223 0.19205 0.64026 0.0
C659 C 0.70904 0.1939 0.64816 0.0
C660 C 0.70556 0.18842 0.65676 0.0
C661 C 0.70245 0.19569 0.63975 0.0
C662 C 0.68873 0.18663 0.64891 0.0
C663 C 0.69215 0.17843 0.66618 0.0
O664 O 0.68115 0.17296 0.69545 0.0
O665 O 0.67163 0.16331 0.68534 0.0
O666 O 0.6836 0.17302 0.66518 0.0
O667 O 0.69308 0.18281 0.6752 0.0
H668 H 0.69701 0.16014 0.69068 0.0
H669 H 0.70663 0.14498 0.69618 0.0
H670 H 0.67907 0.13234 0.70995 0.0
H671 H 0.66952 0.14744 0.70438 0.0
H672 H 0.6434 0.19393 0.70875 0.0
H673 H 0.65862 0.1884 0.69931 0.0
H674 H 0.63207 0.20893 0.68134 0.0
H675 H 0.64723 0.20331 0.67198 0.0
H676 H 0.68693 0.1934 0.63397 0.0
H677 H 0.71698 0.19649 0.64797 0.0
H678 H 0.71087 0.18697 0.66302 0.0
H679 H 0.68084 0.18389 0.64903 0.0
C680 C 0.32154 0.18475 0.65906 0.0
C681 C 0.3286 0.18973 0.65254 0.0
C682 C 0.31457 0.19549 0.6415 0.0
C683 C 0.32515 0.19501 0.64382 0.0
C684 C 0.30755 0.19061 0.64818 0.0
C685 C 0.31101 0.18527 0.65684 0.0
U686 U 0.34034 0.18039 0.68128 0.0
O687 O 0.33725 0.17599 0.69734 0.0
O688 O 0.34661 0.16611 0.68761 0.0
C689 C 0.3419 0.16715 0.69644 0.0
C690 C 0.32497 0.17901 0.6682 0.0
C691 C 0.33603 0.15812 0.70004 0.0
C692 C 0.32415 0.14393 0.69692 0.0
C693 C 0.32943 0.15268 0.69341 0.0
C694 C 0.33185 0.14612 0.71376 0.0
C695 C 0.32535 0.1405 0.70713 0.0
C696 C 0.33715 0.15483 0.71023 0.0
C697 C 0.36352 0.19835 0.68472 0.0
C698 C 0.37409 0.19889 0.70016 0.0
C699 C 0.37979 0.20769 0.68474 0.0
C700 C 0.37088 0.2044 0.67962 0.0
C701 C 0.38149 0.20501 0.69508 0.0
C702 C 0.3652 0.19555 0.69501 0.0
C703 C 0.35416 0.19508 0.6792 0.0
O704 O 0.33356 0.17388 0.66723 0.0
O705 O 0.32438 0.18394 0.67694 0.0
O706 O 0.34548 0.19623 0.68416 0.0
O707 O 0.35473 0.18624 0.67445 0.0
H708 H 0.33677 0.18947 0.65415 0.0
H709 H 0.33079 0.19858 0.63882 0.0
H710 H 0.29935 0.19097 0.64676 0.0
H711 H 0.30545 0.18155 0.66183 0.0
H712 H 0.3193 0.13974 0.69157 0.0
H713 H 0.32845 0.15513 0.68551 0.0
H714 H 0.33281 0.14383 0.72171 0.0
H715 H 0.34216 0.15898 0.71547 0.0
H716 H 0.37523 0.1966 0.70809 0.0
H717 H 0.38527 0.21249 0.68064 0.0
H718 H 0.36971 0.20663 0.67167 0.0
H719 H 0.35963 0.19081 0.69905 0.0
C720 C 0.32328 0.83638 0.657 0.0
C721 C 0.3303 0.83059 0.65136 0.0
C722 C 0.31675 0.82575 0.63919 0.0
C723 C 0.32707 0.82534 0.64253 0.0
C724 C 0.30974 0.83142 0.64501 0.0
C725 C 0.31299 0.83669 0.6538 0.0
U726 U 0.34112 0.84166 0.68012 0.0
O727 O 0.3469 0.85637 0.68616 0.0
O728 O 0.33708 0.84649 0.69577 0.0
C729 C 0.34175 0.85543 0.69479 0.0
C730 C 0.3265 0.84228 0.66612 0.0
C731 C 0.3358 0.86441 0.69797 0.0
C732 C 0.32485 0.87897 0.6941 0.0
C733 C 0.33022 0.87031 0.69086 0.0
C734 C 0.33043 0.87581 0.71159 0.0
C735 C 0.3249 0.88183 0.70452 0.0
C736 C 0.33582 0.86721 0.70834 0.0
C737 C 0.36403 0.8239 0.68555 0.0
C738 C 0.37901 0.82765 0.69624 0.0
C739 C 0.37539 0.8102 0.69096 0.0
C740 C 0.36665 0.81351 0.68566 0.0
C741 C 0.38176 0.81723 0.69625 0.0
C742 C 0.37022 0.83095 0.69096 0.0
C743 C 0.35495 0.82715 0.67957 0.0
O744 O 0.32543 0.83756 0.675 0.0
O745 O 0.33521 0.84745 0.66536 0.0
O746 O 0.35585 0.83586 0.67449 0.0
O747 O 0.34603 0.82602 0.68414 0.0
H748 H 0.33829 0.83023 0.65372 0.0
H749 H 0.33269 0.82112 0.6382 0.0
H750 H 0.30171 0.83177 0.64282 0.0
H751 H 0.30744 0.84105 0.65809 0.0
H752 H 0.32059 0.88336 0.68847 0.0
H753 H 0.33004 0.86825 0.68282 0.0
H754 H 0.33075 0.87785 0.71964 0.0
H755 H 0.34009 0.86277 0.71394 0.0
H756 H 0.38376 0.83329 0.70015 0.0
H757 H 0.37713 0.8021 0.69095 0.0
H758 H 0.36194 0.80794 0.68159 0.0
H759 H 0.36832 0.83902 0.691 0.0
C760 C 0.6564 0.82326 0.6844 0.0
C761 C 0.65383 0.82777 0.69379 0.0
C762 C 0.63862 0.81669 0.69508 0.0
C763 C 0.64503 0.82449 0.6991 0.0
C764 C 0.64127 0.81222 0.68566 0.0
C765 C 0.65007 0.81548 0.68038 0.0
U766 U 0.67922 0.84156 0.67971 0.0
O767 O 0.69506 0.8382 0.67512 0.0
O768 O 0.68532 0.84759 0.6651 0.0
C769 C 0.6941 0.84282 0.66617 0.0
C770 C 0.66558 0.82656 0.67866 0.0
C771 C 0.69751 0.837 0.65717 0.0
C772 C 0.69829 0.82126 0.64729 0.0
C773 C 0.69474 0.82666 0.65581 0.0
C774 C 0.70725 0.83653 0.64131 0.0
C775 C 0.70465 0.82612 0.63995 0.0
C776 C 0.70373 0.8419 0.64984 0.0
C777 C 0.68362 0.86472 0.69734 0.0
C778 C 0.69942 0.87485 0.69845 0.0
C779 C 0.68376 0.88118 0.70599 0.0
C780 C 0.67849 0.87236 0.70274 0.0
C781 C 0.6943 0.88252 0.70393 0.0
C782 C 0.69412 0.86604 0.69514 0.0
C783 C 0.67788 0.85544 0.69417 0.0
O784 O 0.66472 0.83521 0.67351 0.0
O785 O 0.6744 0.82579 0.68357 0.0
O786 O 0.68266 0.84669 0.69542 0.0
O787 O 0.67296 0.8561 0.68536 0.0
H788 H 0.65862 0.83382 0.69699 0.0
H789 H 0.64316 0.82816 0.70628 0.0
H790 H 0.63661 0.80611 0.68241 0.0
H791 H 0.65194 0.8119 0.67315 0.0
H792 H 0.6962 0.81323 0.64654 0.0
H793 H 0.68991 0.82274 0.66138 0.0
H794 H 0.71195 0.84059 0.63574 0.0
H795 H 0.70589 0.8499 0.65073 0.0
H796 H 0.70751 0.8757 0.69663 0.0
H797 H 0.6796 0.88686 0.7103 0.0
H798 H 0.67039 0.87147 0.70452 0.0
H799 H 0.69821 0.86026 0.69091 0.0
C800 C 0.65757 0.82256 0.33862 0.0
C801 C 0.65615 0.82571 0.3284 0.0
C802 C 0.64001 0.81604 0.32752 0.0
C803 C 0.64746 0.82244 0.32287 0.0
C804 C 0.64147 0.81297 0.33779 0.0
C805 C 0.65019 0.81619 0.34328 0.0
U806 U 0.68043 0.84068 0.3429 0.0
O807 O 0.68642 0.84741 0.35724 0.0
O808 O 0.69621 0.83748 0.348 0.0
C809 C 0.69515 0.84247 0.35667 0.0
C810 C 0.66665 0.8259 0.34456 0.0
C811 C 0.6982 0.83686 0.36601 0.0
C812 C 0.698 0.82147 0.37662 0.0
C813 C 0.69483 0.82675 0.36779 0.0
C814 C 0.70776 0.83643 0.38206 0.0
C815 C 0.70452 0.82625 0.38385 0.0
C816 C 0.70464 0.84168 0.37321 0.0
C817 C 0.68544 0.86265 0.32396 0.0
C818 C 0.69737 0.87676 0.32726 0.0
C819 C 0.69025 0.87436 0.3102 0.0
C820 C 0.68471 0.86579 0.31368 0.0
C821 C 0.69662 0.87997 0.31695 0.0
C822 C 0.69186 0.86814 0.33073 0.0
C823 C 0.67945 0.85367 0.32747 0.0
O824 O 0.67557 0.82475 0.34003 0.0
O825 O 0.6658 0.83479 0.34916 0.0
O826 O 0.67437 0.85483 0.33607 0.0
O827 O 0.68417 0.84483 0.32693 0.0
H828 H 0.66174 0.8307 0.3247 0.0
H829 H 0.64649 0.82504 0.31502 0.0
H830 H 0.63595 0.80795 0.34155 0.0
H831 H 0.65116 0.8137 0.35117 0.0
H832 H 0.69527 0.81368 0.37783 0.0
H833 H 0.68979 0.82293 0.36233 0.0
H834 H 0.71287 0.8403 0.38742 0.0
H835 H 0.70731 0.84948 0.37196 0.0
H836 H 0.7023 0.88085 0.33262 0.0
H837 H 0.68941 0.8767 0.30225 0.0
H838 H 0.67979 0.86163 0.30836 0.0
H839 H 0.69258 0.86577 0.33868 0.0
C840 C 0.65552 0.1831 0.3239 0.0
C841 C 0.64881 0.18736 0.33109 0.0
C842 C 0.63789 0.19386 0.31725 0.0
C843 C 0.64006 0.19266 0.3278 0.0
C844 C 0.64478 0.18974 0.31011 0.0
C845 C 0.65347 0.18441 0.3134 0.0
U846 U 0.67829 0.17735 0.34198 0.0
O847 O 0.68424 0.16254 0.34735 0.0
O848 O 0.69406 0.17276 0.33808 0.0
C849 C 0.69297 0.16368 0.34239 0.0
C850 C 0.66459 0.17714 0.32708 0.0
C851 C 0.69634 0.15485 0.33624 0.0
C852 C 0.69277 0.13915 0.32675 0.0
C853 C 0.68929 0.14776 0.33204 0.0
C854 C 0.71038 0.14475 0.32954 0.0
C855 C 0.70338 0.13747 0.32552 0.0
C856 C 0.70689 0.15331 0.33485 0.0
C857 C 0.68314 0.19427 0.36575 0.0
C858 C 0.69919 0.19698 0.37512 0.0
C859 C 0.68302 0.20152 0.38291 0.0
C860 C 0.67776 0.19817 0.37413 0.0
C861 C 0.69382 0.20109 0.38349 0.0
C862 C 0.6939 0.19358 0.36635 0.0
C863 C 0.67736 0.19131 0.35641 0.0
O864 O 0.67351 0.18192 0.32637 0.0
O865 O 0.66366 0.17164 0.33553 0.0
O866 O 0.67231 0.18253 0.35687 0.0
O867 O 0.68207 0.19281 0.3476 0.0
H868 H 0.65025 0.18649 0.33925 0.0
H869 H 0.6349 0.19564 0.33353 0.0
H870 H 0.64349 0.19067 0.30194 0.0
H871 H 0.65858 0.18124 0.30773 0.0
H872 H 0.68716 0.13368 0.32385 0.0
H873 H 0.68109 0.14878 0.33297 0.0
H874 H 0.71858 0.14385 0.32858 0.0
H875 H 0.71247 0.1587 0.33799 0.0
H876 H 0.7075 0.1966 0.37524 0.0
H877 H 0.67859 0.20443 0.38926 0.0
H878 H 0.66945 0.19872 0.37385 0.0
H879 H 0.69823 0.19057 0.35998 0.0
C880 C 0.32175 0.15697 0.33884 0.0
C881 C 0.32859 0.15137 0.33281 0.0
C882 C 0.31478 0.13944 0.32806 0.0
C883 C 0.32514 0.14267 0.32748 0.0
C884 C 0.30795 0.14522 0.33399 0.0
C885 C 0.31141 0.15388 0.33933 0.0
U886 U 0.34042 0.1794 0.34403 0.0
O887 O 0.33724 0.19512 0.34901 0.0
O888 O 0.34661 0.18506 0.35876 0.0
C889 C 0.34187 0.19387 0.35793 0.0
C890 C 0.32523 0.16595 0.3448 0.0
C891 C 0.33615 0.19714 0.36708 0.0
C892 C 0.32016 0.19991 0.37625 0.0
C893 C 0.32538 0.19641 0.36758 0.0
C894 C 0.33643 0.20469 0.38411 0.0
C895 C 0.32562 0.20417 0.3846 0.0
C896 C 0.34162 0.20124 0.37544 0.0
C897 C 0.36349 0.18405 0.32623 0.0
C898 C 0.37364 0.19981 0.32517 0.0
C899 C 0.37973 0.18437 0.31708 0.0
C900 C 0.371 0.17904 0.32051 0.0
C901 C 0.38114 0.19485 0.31928 0.0
C902 C 0.36491 0.19445 0.32863 0.0
C903 C 0.3542 0.17831 0.32941 0.0
O904 O 0.3339 0.1649 0.34991 0.0
O905 O 0.3245 0.17487 0.34011 0.0
O906 O 0.34544 0.18315 0.32835 0.0
O907 O 0.35492 0.17321 0.33811 0.0
H908 H 0.33661 0.15366 0.33231 0.0
H909 H 0.33064 0.13837 0.32308 0.0
H910 H 0.29989 0.1431 0.33446 0.0
H911 H 0.30601 0.15814 0.34389 0.0
H912 H 0.31184 0.19947 0.3763 0.0
H913 H 0.32099 0.19323 0.36124 0.0
H914 H 0.34091 0.20771 0.39046 0.0
H915 H 0.34993 0.20181 0.37523 0.0
H916 H 0.37441 0.20789 0.32693 0.0
H917 H 0.38542 0.18024 0.31275 0.0
H918 H 0.37007 0.171 0.31863 0.0
H919 H 0.35921 0.19845 0.33307 0.0
C920 C 0.33564 0.86458 0.324 0.0
C921 C 0.33322 0.87224 0.33112 0.0
C922 C 0.32461 0.88214 0.31772 0.0
C923 C 0.32779 0.88094 0.328 0.0
C924 C 0.32689 0.87437 0.31067 0.0
C925 C 0.33237 0.86572 0.31378 0.0
U926 U 0.34215 0.84151 0.34141 0.0
O927 O 0.34708 0.82601 0.33703 0.0
O928 O 0.35718 0.83577 0.34648 0.0
C929 C 0.35623 0.82722 0.34122 0.0
C930 C 0.34184 0.85557 0.32688 0.0
C931 C 0.36511 0.82428 0.33483 0.0
C932 C 0.38177 0.82804 0.32709 0.0
C933 C 0.37313 0.83124 0.33254 0.0
C934 C 0.37439 0.81096 0.32587 0.0
C935 C 0.38254 0.81783 0.32376 0.0
C936 C 0.3658 0.81414 0.33138 0.0
C937 C 0.32549 0.83591 0.36534 0.0
C938 C 0.32232 0.81976 0.37434 0.0
C939 C 0.31877 0.83584 0.38273 0.0
C940 C 0.32211 0.84119 0.37401 0.0
C941 C 0.31869 0.82505 0.38298 0.0
C942 C 0.3257 0.82514 0.36561 0.0
C943 C 0.32832 0.84182 0.35604 0.0
O944 O 0.34752 0.85635 0.33524 0.0
O945 O 0.33723 0.84659 0.32599 0.0
O946 O 0.32681 0.83727 0.34717 0.0
O947 O 0.33703 0.84703 0.3565 0.0
H948 H 0.33558 0.87155 0.33908 0.0
H949 H 0.32606 0.88673 0.33364 0.0
H950 H 0.32467 0.8751 0.30268 0.0
H951 H 0.33418 0.85994 0.30814 0.0
H952 H 0.38785 0.83355 0.32549 0.0
H953 H 0.37282 0.83913 0.33506 0.0
H954 H 0.37478 0.80302 0.32351 0.0
H955 H 0.35975 0.80862 0.33309 0.0
H956 H 0.3223 0.81146 0.3742 0.0
H957 H 0.31624 0.84018 0.38929 0.0
H958 H 0.32192 0.84949 0.37399 0.0
H959 H 0.32831 0.82087 0.35902 0.0
C960 C 0.68352 0.65626 0.19838 0.0
C961 C 0.69117 0.65196 0.19223 0.0
C962 C 0.69458 0.63904 0.20542 0.0
C963 C 0.69664 0.64341 0.19571 0.0
C964 C 0.68693 0.64344 0.21154 0.0
C965 C 0.68147 0.65196 0.20804 0.0
U966 U 0.67813 0.67852 0.17971 0.0
O967 O 0.66328 0.68394 0.17368 0.0
O968 O 0.67301 0.69417 0.183 0.0
C969 C 0.66407 0.69278 0.17842 0.0
C970 C 0.67753 0.66513 0.19487 0.0
C971 C 0.65494 0.69589 0.18426 0.0
C972 C 0.64523 0.6968 0.20015 0.0
C973 C 0.65389 0.69356 0.19475 0.0
C974 C 0.63851 0.70456 0.18461 0.0
C975 C 0.63743 0.70235 0.19514 0.0
C976 C 0.64718 0.70137 0.17924 0.0
C977 C 0.69589 0.68323 0.15653 0.0
C978 C 0.69715 0.69889 0.14633 0.0
C979 C 0.70499 0.68331 0.14027 0.0
C980 C 0.70151 0.6781 0.14902 0.0
C981 C 0.70295 0.69381 0.13884 0.0
C982 C 0.69364 0.69364 0.15508 0.0
C983 C 0.69271 0.67759 0.16586 0.0
O984 O 0.68218 0.67411 0.19556 0.0
O985 O 0.67245 0.66393 0.1862 0.0
O986 O 0.68402 0.67237 0.16518 0.0
O987 O 0.69376 0.68252 0.17458 0.0
H988 H 0.69288 0.65521 0.18475 0.0
H989 H 0.70254 0.64028 0.19085 0.0
H990 H 0.68502 0.6402 0.21897 0.0
H991 H 0.67557 0.65516 0.21288 0.0
H992 H 0.64459 0.69488 0.20822 0.0
H993 H 0.65977 0.68927 0.19876 0.0
H994 H 0.63273 0.70892 0.18053 0.0
H995 H 0.64786 0.70324 0.17115 0.0
H996 H 0.6955 0.70697 0.14554 0.0
H997 H 0.70925 0.67909 0.1346 0.0
H998 H 0.70327 0.67005 0.14997 0.0
H999 H 0.68928 0.69774 0.16078 0.0
C1000 C 0.32162 0.68626 0.15922 0.0
C1001 C 0.32885 0.69036 0.15228 0.0
C1002 C 0.31504 0.69731 0.14172 0.0
C1003 C 0.32558 0.69578 0.14359 0.0
C1004 C 0.30786 0.69339 0.14881 0.0
C1005 C 0.31112 0.68789 0.15746 0.0
U1006 U 0.33986 0.68074 0.1817 0.0
O1007 O 0.33659 0.67535 0.19737 0.0
O1008 O 0.34605 0.66602 0.18718 0.0
C1009 C 0.34116 0.66652 0.19597 0.0
C1010 C 0.32484 0.6801 0.16819 0.0
C1011 C 0.33532 0.65722 0.19898 0.0
C1012 C 0.31924 0.64831 0.20286 0.0
C1013 C 0.32453 0.65717 0.19968 0.0
C1014 C 0.33539 0.63936 0.20444 0.0
C1015 C 0.32461 0.63931 0.20529 0.0
C1016 C 0.34068 0.64824 0.20135 0.0
C1017 C 0.36286 0.69868 0.18682 0.0
C1018 C 0.37902 0.69468 0.19537 0.0
C1019 C 0.37317 0.71223 0.19464 0.0
C1020 C 0.36441 0.70905 0.18921 0.0
C1021 C 0.38061 0.70509 0.19772 0.0
C1022 C 0.37019 0.69149 0.19002 0.0
C1023 C 0.35362 0.6956 0.18092 0.0
O1024 O 0.33343 0.67499 0.16718 0.0
O1025 O 0.32399 0.68454 0.17717 0.0
O1026 O 0.34484 0.6964 0.18579 0.0
O1027 O 0.35427 0.68715 0.17551 0.0
H1028 H 0.33701 0.68929 0.15353 0.0
H1029 H 0.3313 0.69881 0.13833 0.0
H1030 H 0.29969 0.69436 0.14754 0.0
H1031 H 0.30543 0.6848 0.16271 0.0
H1032 H 0.31093 0.64847 0.20333 0.0
H1033 H 0.32019 0.66397 0.19781 0.0
H1034 H 0.33975 0.63259 0.20636 0.0
H1035 H 0.34899 0.64811 0.20089 0.0
H1036 H 0.38456 0.68899 0.19774 0.0
H1037 H 0.37424 0.72032 0.19624 0.0
H1038 H 0.35885 0.71472 0.18681 0.0
H1039 H 0.36914 0.68341 0.18835 0.0
C1040 C 0.32427 0.33735 0.15578 0.0
C1041 C 0.32725 0.32714 0.15437 0.0
C1042 C 0.31805 0.32654 0.13799 0.0
C1043 C 0.32414 0.32177 0.14557 0.0
C1044 C 0.31521 0.33682 0.13942 0.0
C1045 C 0.31829 0.34214 0.14822 0.0
U1046 U 0.34125 0.34208 0.1796 0.0
O1047 O 0.34686 0.35662 0.18615 0.0
O1048 O 0.33673 0.34654 0.19522 0.0
C1049 C 0.34147 0.35548 0.1946 0.0
C1050 C 0.32714 0.34309 0.16511 0.0
C1051 C 0.33548 0.36441 0.19788 0.0
C1052 C 0.3248 0.37919 0.19416 0.0
C1053 C 0.33018 0.37059 0.1908 0.0
C1054 C 0.32981 0.37541 0.2117 0.0
C1055 C 0.32457 0.38172 0.20466 0.0
C1056 C 0.33521 0.36687 0.20834 0.0
C1057 C 0.36395 0.32426 0.18542 0.0
C1058 C 0.37827 0.32789 0.19702 0.0
C1059 C 0.37536 0.31061 0.19086 0.0
C1060 C 0.36683 0.31394 0.18524 0.0
C1061 C 0.38123 0.31754 0.19679 0.0
C1062 C 0.36968 0.33122 0.19142 0.0
C1063 C 0.35509 0.32757 0.17917 0.0
O1064 O 0.32575 0.33823 0.17388 0.0
O1065 O 0.33589 0.34821 0.16472 0.0
O1066 O 0.35614 0.33638 0.17431 0.0
O1067 O 0.346 0.32634 0.18341 0.0
H1068 H 0.33193 0.32331 0.1601 0.0
H1069 H 0.32656 0.31392 0.14466 0.0
H1070 H 0.31043 0.34069 0.13382 0.0
H1071 H 0.3159 0.35001 0.14918 0.0
H1072 H 0.32076 0.38381 0.18855 0.0
H1073 H 0.33023 0.36879 0.18269 0.0
H1074 H 0.32992 0.37719 0.21981 0.0
H1075 H 0.33927 0.36221 0.21392 0.0
H1076 H 0.38254 0.33341 0.20159 0.0
H1077 H 0.37748 0.30262 0.1904 0.0
H1078 H 0.36252 0.30846 0.18064 0.0
H1079 H 0.36755 0.33921 0.19172 0.0
C1080 C 0.65595 0.32365 0.18455 0.0
C1081 C 0.65568 0.32419 0.19532 0.0
C1082 C 0.63837 0.3167 0.19539 0.0
C1083 C 0.64698 0.32073 0.20068 0.0
C1084 C 0.63866 0.31636 0.18459 0.0
C1085 C 0.64736 0.31977 0.17925 0.0
U1086 U 0.67931 0.34137 0.17962 0.0
O1087 O 0.69486 0.33763 0.17444 0.0
O1088 O 0.68512 0.34755 0.16494 0.0
C1089 C 0.69378 0.34249 0.16564 0.0
C1090 C 0.66511 0.3269 0.17866 0.0
C1091 C 0.69684 0.33683 0.15641 0.0
C1092 C 0.69763 0.32114 0.14643 0.0
C1093 C 0.69421 0.32645 0.15507 0.0
C1094 C 0.70614 0.3366 0.14028 0.0
C1095 C 0.70373 0.32613 0.13897 0.0
C1096 C 0.70274 0.34187 0.14892 0.0
C1097 C 0.68531 0.3639 0.19771 0.0
C1098 C 0.69337 0.38049 0.19417 0.0
C1099 C 0.69392 0.37338 0.21137 0.0
C1100 C 0.6884 0.36475 0.208 0.0
C1101 C 0.69638 0.3814 0.20452 0.0
C1102 C 0.68793 0.37181 0.19078 0.0
C1103 C 0.6791 0.35488 0.19449 0.0
O1104 O 0.66438 0.33569 0.17375 0.0
O1105 O 0.67408 0.32566 0.18319 0.0
O1106 O 0.68359 0.34594 0.19536 0.0
O1107 O 0.67373 0.35584 0.18596 0.0
H1108 H 0.66221 0.3272 0.19958 0.0
H1109 H 0.64709 0.32103 0.20899 0.0
H1110 H 0.63212 0.31351 0.18023 0.0
H1111 H 0.64739 0.31934 0.17094 0.0
H1112 H 0.6957 0.31308 0.14573 0.0
H1113 H 0.68963 0.32242 0.16077 0.0
H1114 H 0.71063 0.34075 0.13461 0.0
H1115 H 0.7048 0.3499 0.14978 0.0
H1116 H 0.69526 0.38648 0.18867 0.0
H1117 H 0.69603 0.3739 0.21941 0.0
H1118 H 0.68644 0.35877 0.21349 0.0
H1119 H 0.68571 0.37134 0.18277 0.0
C1120 C 0.65708 0.3226 0.83897 0.0
C1121 C 0.65555 0.32571 0.82875 0.0
C1122 C 0.63944 0.316 0.82805 0.0
C1123 C 0.64682 0.3224 0.82332 0.0
C1124 C 0.641 0.31297 0.83832 0.0
C1125 C 0.64975 0.31624 0.84372 0.0
U1126 U 0.68004 0.34069 0.84291 0.0
O1127 O 0.68619 0.34752 0.85713 0.0
O1128 O 0.69584 0.33743 0.84792 0.0
C1129 C 0.69489 0.34254 0.85654 0.0
C1130 C 0.66621 0.32597 0.84481 0.0
C1131 C 0.69797 0.33698 0.86588 0.0
C1132 C 0.69622 0.32247 0.87755 0.0
C1133 C 0.69309 0.32774 0.8687 0.0
C1134 C 0.70905 0.33568 0.88087 0.0
C1135 C 0.70425 0.32638 0.88374 0.0
C1136 C 0.70593 0.34093 0.87202 0.0
C1137 C 0.68498 0.3625 0.82378 0.0
C1138 C 0.69682 0.37672 0.82694 0.0
C1139 C 0.6898 0.37404 0.80988 0.0
C1140 C 0.68429 0.36549 0.81346 0.0
C1141 C 0.6961 0.37979 0.81659 0.0
C1142 C 0.69134 0.36811 0.8305 0.0
C1143 C 0.67899 0.35356 0.82739 0.0
O1144 O 0.67509 0.32475 0.84021 0.0
O1145 O 0.66544 0.33491 0.84933 0.0
O1146 O 0.67396 0.3548 0.83602 0.0
O1147 O 0.68368 0.3447 0.82688 0.0
H1148 H 0.66111 0.3307 0.82498 0.0
H1149 H 0.64578 0.32496 0.81546 0.0
H1150 H 0.63552 0.30796 0.84215 0.0
H1151 H 0.65081 0.31378 0.85161 0.0
H1152 H 0.69229 0.31539 0.8796 0.0
H1153 H 0.68689 0.3246 0.86405 0.0
H1154 H 0.71534 0.33884 0.88538 0.0
H1155 H 0.70979 0.34804 0.86993 0.0
H1156 H 0.70169 0.38091 0.83227 0.0
H1157 H 0.68899 0.37627 0.80189 0.0
H1158 H 0.67942 0.36124 0.80816 0.0
H1159 H 0.69203 0.36586 0.83849 0.0
C1160 C 0.6558 0.683 0.82427 0.0
C1161 C 0.64902 0.68728 0.83138 0.0
C1162 C 0.63839 0.69399 0.81742 0.0
C1163 C 0.64039 0.6927 0.82799 0.0
C1164 C 0.64535 0.68987 0.81036 0.0
C1165 C 0.65394 0.68442 0.81375 0.0
U1166 U 0.67854 0.67678 0.84229 0.0
O1167 O 0.68381 0.66178 0.84797 0.0
O1168 O 0.694 0.67136 0.83846 0.0
C1169 C 0.69257 0.66244 0.84302 0.0
C1170 C 0.66467 0.67679 0.82754 0.0
C1171 C 0.69546 0.65331 0.83712 0.0
C1172 C 0.69632 0.64372 0.82117 0.0
C1173 C 0.69321 0.65239 0.82661 0.0
C1174 C 0.70377 0.63672 0.83675 0.0
C1175 C 0.70165 0.63578 0.82618 0.0
C1176 C 0.70071 0.64539 0.84214 0.0
C1177 C 0.68453 0.69392 0.86568 0.0
C1178 C 0.70062 0.69903 0.87398 0.0
C1179 C 0.68485 0.69856 0.88377 0.0
C1180 C 0.67944 0.69532 0.87503 0.0
C1181 C 0.69549 0.70055 0.88333 0.0
C1182 C 0.69521 0.69572 0.86525 0.0
C1183 C 0.67847 0.69107 0.85643 0.0
O1184 O 0.67377 0.68118 0.82662 0.0
O1185 O 0.66362 0.67154 0.83613 0.0
O1186 O 0.67296 0.68257 0.85711 0.0
O1187 O 0.68303 0.69221 0.8475 0.0
H1188 H 0.65031 0.68632 0.83956 0.0
H1189 H 0.63516 0.69567 0.83366 0.0
H1190 H 0.6442 0.69087 0.80217 0.0
H1191 H 0.6591 0.68124 0.80813 0.0
H1192 H 0.69447 0.64319 0.81308 0.0
H1193 H 0.6891 0.65839 0.82259 0.0
H1194 H 0.70797 0.63083 0.84082 0.0
H1195 H 0.70253 0.64596 0.85025 0.0
H1196 H 0.70883 0.70039 0.87342 0.0
H1197 H 0.68064 0.69976 0.8908 0.0
H1198 H 0.6712 0.69405 0.87554 0.0
H1199 H 0.69939 0.69468 0.85817 0.0
C1200 C 0.32253 0.65658 0.83933 0.0
C1201 C 0.32697 0.65414 0.82987 0.0
C1202 C 0.31608 0.63881 0.82866 0.0
C1203 C 0.32375 0.64534 0.82456 0.0
C1204 C 0.31172 0.64131 0.83818 0.0
C1205 C 0.31492 0.65011 0.84345 0.0
U1206 U 0.34016 0.67999 0.84351 0.0
O1207 O 0.33618 0.69569 0.84803 0.0
O1208 O 0.34627 0.68648 0.85789 0.0
C1209 C 0.34106 0.69501 0.85686 0.0
C1210 C 0.32567 0.66585 0.84499 0.0
C1211 C 0.33523 0.69824 0.86593 0.0
C1212 C 0.3235 0.6946 0.88002 0.0
C1213 C 0.32886 0.69135 0.87133 0.0
C1214 C 0.33071 0.71169 0.87786 0.0
C1215 C 0.32437 0.70482 0.88339 0.0
C1216 C 0.33608 0.70842 0.86923 0.0
C1217 C 0.36269 0.68529 0.82514 0.0
C1218 C 0.37829 0.69524 0.82852 0.0
C1219 C 0.37312 0.6917 0.811 0.0
C1220 C 0.36448 0.68631 0.81458 0.0
C1221 C 0.38021 0.69615 0.81792 0.0
C1222 C 0.3696 0.68989 0.8321 0.0
C1223 C 0.3537 0.67922 0.82865 0.0
O1224 O 0.3345 0.66532 0.8499 0.0
O1225 O 0.32444 0.67459 0.84008 0.0
O1226 O 0.34472 0.68364 0.82761 0.0
O1227 O 0.35475 0.67431 0.83743 0.0
H1228 H 0.33289 0.65905 0.82659 0.0
H1229 H 0.32735 0.64359 0.81731 0.0
H1230 H 0.30569 0.63656 0.8415 0.0
H1231 H 0.31139 0.65189 0.85074 0.0
H1232 H 0.3186 0.68915 0.88403 0.0
H1233 H 0.32804 0.68346 0.86886 0.0
H1234 H 0.33166 0.71957 0.88031 0.0
H1235 H 0.34097 0.71385 0.86515 0.0
H1236 H 0.3836 0.69848 0.83409 0.0
H1237 H 0.37421 0.6924 0.80279 0.0
H1238 H 0.35922 0.68287 0.80908 0.0
H1239 H 0.36835 0.68925 0.84029 0.0
C1240 C 0.33637 0.36417 0.82322 0.0
C1241 C 0.33215 0.371 0.83031 0.0
C1242 C 0.32576 0.38177 0.81632 0.0
C1243 C 0.32692 0.37972 0.8269 0.0
C1244 C 0.32984 0.37477 0.80927 0.0
C1245 C 0.3351 0.3661 0.81269 0.0
U1246 U 0.34195 0.34158 0.84152 0.0
O1247 O 0.34664 0.32585 0.83781 0.0
O1248 O 0.35676 0.33574 0.84709 0.0
C1249 C 0.3557 0.32699 0.84221 0.0
C1250 C 0.34231 0.35515 0.82653 0.0
C1251 C 0.36459 0.32375 0.8361 0.0
C1252 C 0.37863 0.32746 0.82431 0.0
C1253 C 0.37002 0.33069 0.8298 0.0
C1254 C 0.37635 0.3103 0.8312 0.0
C1255 C 0.38192 0.31723 0.82497 0.0
C1256 C 0.36779 0.31354 0.83671 0.0
C1257 C 0.32474 0.33688 0.86507 0.0
C1258 C 0.32594 0.32202 0.87636 0.0
C1259 C 0.31424 0.3357 0.88041 0.0
C1260 C 0.31733 0.34101 0.87157 0.0
C1261 C 0.31849 0.32613 0.88293 0.0
C1262 C 0.32906 0.32736 0.86751 0.0
C1263 C 0.32773 0.34261 0.85575 0.0
O1264 O 0.34773 0.35613 0.83503 0.0
O1265 O 0.33752 0.34624 0.82583 0.0
O1266 O 0.32639 0.33776 0.84702 0.0
O1267 O 0.33653 0.34765 0.85626 0.0
H1268 H 0.333 0.36966 0.83849 0.0
H1269 H 0.32397 0.38497 0.83255 0.0
H1270 H 0.32894 0.37596 0.80108 0.0
H1271 H 0.33824 0.3609 0.80709 0.0
H1272 H 0.38267 0.33296 0.8195 0.0
H1273 H 0.36763 0.3386 0.82917 0.0
H1274 H 0.37873 0.30241 0.832 0.0
H1275 H 0.36371 0.30808 0.84154 0.0
H1276 H 0.32945 0.31472 0.87812 0.0
H1277 H 0.30837 0.33904 0.88519 0.0
H1278 H 0.31389 0.34833 0.86979 0.0
H1279 H 0.33481 0.32406 0.86258 0.0
H1280 H 0.23686 0.25492 0.99512 0.0
H1281 H 0.22941 0.24762 0.97951 0.0
H1282 H 0.25973 0.23903 0.9695 0.0
H1283 H 0.26707 0.24595 0.98536 0.0
H1284 H 0.24669 0.24637 0.01052 0.0
H1285 H 0.25507 0.27247 0.9856 0.0
H1286 H 0.26228 0.27994 0.96992 0.0
H1287 H 0.29253 0.26998 0.9792 0.0
H1288 H 0.28526 0.26261 0.99492 0.0
H1289 H 0.28521 0.26322 0.02632 0.0
H1290 H 0.29232 0.271 0.04189 0.0
H1291 H 0.26178 0.27984 0.05095 0.0
H1292 H 0.25478 0.27238 0.03519 0.0
H1293 H 0.27551 0.27161 0.0105 0.0
H1294 H 0.26706 0.24598 0.03577 0.0
H1295 H 0.25977 0.23888 0.05158 0.0
H1296 H 0.22942 0.24768 0.04142 0.0
H1297 H 0.23682 0.25509 0.0258 0.0
C1298 C 0.25255 0.2511 0.99141 0.0
C1299 C 0.2419 0.25143 0.98958 0.0
C1300 C 0.23766 0.24733 0.98058 0.0
C1301 C 0.24396 0.24277 0.97318 0.0
C1302 C 0.25463 0.2424 0.97505 0.0
C1303 C 0.25886 0.24647 0.98408 0.0
C1304 C 0.25697 0.25538 1.00108 0.0
C1305 C 0.2529 0.252 0.01051 0.0
C1306 C 0.26527 0.26253 1.00108 0.0
C1307 C 0.2696 0.26689 0.99142 0.0
C1308 C 0.26324 0.27181 0.98421 0.0
C1309 C 0.26738 0.27606 0.97523 0.0
C1310 C 0.278 0.27556 0.97327 0.0
C1311 C 0.28435 0.27063 0.98051 0.0
C1312 C 0.2802 0.26638 0.98949 0.0
C1313 C 0.26944 0.26712 0.0296 0.0
C1314 C 0.28005 0.26685 0.03166 0.0
C1315 C 0.28409 0.27123 0.04062 0.0
C1316 C 0.27763 0.27603 0.04772 0.0
C1317 C 0.267 0.2763 0.04562 0.0
C1318 C 0.26296 0.27193 0.03665 0.0
C1319 C 0.2652 0.26263 0.01994 0.0
C1320 C 0.26931 0.26597 0.01051 0.0
C1321 C 0.25692 0.25546 0.01994 0.0
C1322 C 0.25252 0.25118 0.02962 0.0
C1323 C 0.25885 0.24649 0.037 0.0
C1324 C 0.25465 0.24233 0.046 0.0
C1325 C 0.24399 0.2427 0.0478 0.0
C1326 C 0.23767 0.24739 0.04037 0.0
C1327 C 0.24188 0.25155 0.03138 0.0
H1328 H 0.76367 0.23635 0.99635 0.0
H1329 H 0.7708 0.22918 0.98065 0.0
H1330 H 0.78153 0.25938 0.97159 0.0
H1331 H 0.7743 0.26649 0.98726 0.0
H1332 H 0.7727 0.24602 0.01216 0.0
H1333 H 0.74705 0.25431 0.98694 0.0
H1334 H 0.74021 0.26141 0.97093 0.0
H1335 H 0.75033 0.29168 0.98018 0.0
H1336 H 0.75745 0.28447 0.99602 0.0
H1337 H 0.75735 0.28455 0.0273 0.0
H1338 H 0.75012 0.29187 0.04289 0.0
H1339 H 0.73956 0.26173 0.05231 0.0
H1340 H 0.74655 0.25452 0.03656 0.0
H1341 H 0.74816 0.27485 0.01159 0.0
H1342 H 0.77409 0.26652 0.03665 0.0
H1343 H 0.78077 0.25944 0.05276 0.0
H1344 H 0.76991 0.22931 0.04387 0.0
H1345 H 0.76303 0.23649 0.02789 0.0
C1346 C 0.76835 0.25198 0.99295 0.0
C1347 C 0.76757 0.24142 0.99098 0.0
C1348 C 0.77169 0.23733 0.98201 0.0
C1349 C 0.77673 0.2437 0.97482 0.0
C1350 C 0.77755 0.25427 0.97685 0.0
C1351 C 0.77343 0.25835 0.98583 0.0
C1352 C 0.764 0.25628 1.00253 0.0
C1353 C 0.76722 0.25224 0.01203 0.0
C1354 C 0.75704 0.26455 1.00238 0.0
C1355 C 0.75287 0.26883 0.99264 0.0
C1356 C 0.7479 0.26246 0.98547 0.0
C1357 C 0.74389 0.26655 0.97636 0.0
C1358 C 0.74473 0.27712 0.97426 0.0
C1359 C 0.74968 0.28349 0.98148 0.0
C1360 C 0.75368 0.27939 0.99059 0.0
C1361 C 0.75259 0.26897 0.03079 0.0
C1362 C 0.75346 0.27952 0.03272 0.0
C1363 C 0.74939 0.28368 0.04168 0.0
C1364 C 0.74428 0.27739 0.04888 0.0
C1365 C 0.74336 0.26682 0.0469 0.0
C1366 C 0.74745 0.26266 0.03794 0.0
C1367 C 0.75688 0.26461 0.02121 0.0
C1368 C 0.75364 0.26864 0.01172 0.0
C1369 C 0.76383 0.25633 0.02136 0.0
C1370 C 0.76796 0.25205 0.03111 0.0
C1371 C 0.77308 0.2584 0.03821 0.0
C1372 C 0.77697 0.25433 0.04737 0.0
C1373 C 0.77585 0.24381 0.04961 0.0
C1374 C 0.77078 0.23746 0.04245 0.0
C1375 C 0.76691 0.24154 0.03328 0.0
H1376 H 0.76444 0.7839 0.02623 0.0
H1377 H 0.77163 0.79141 0.04188 0.0
H1378 H 0.78196 0.7615 0.0516 0.0
H1379 H 0.77465 0.75403 0.03597 0.0
H1380 H 0.77366 0.77417 0.01082 0.0
H1381 H 0.74758 0.76557 0.03574 0.0
H1382 H 0.74052 0.75822 0.05157 0.0
H1383 H 0.75045 0.7282 0.04225 0.0
H1384 H 0.75775 0.73564 0.0266 0.0
H1385 H 0.75687 0.73546 0.99566 0.0
H1386 H 0.7494 0.72816 0.98001 0.0
H1387 H 0.74071 0.75846 0.96993 0.0
H1388 H 0.74809 0.76571 0.98563 0.0
H1389 H 0.74857 0.74525 0.01095 0.0
H1390 H 0.77442 0.7536 0.98599 0.0
H1391 H 0.78153 0.76075 0.97011 0.0
H1392 H 0.77247 0.79104 0.9795 0.0
H1393 H 0.76505 0.78379 0.99518 0.0
C1394 C 0.76891 0.76838 0.02994 0.0
C1395 C 0.76825 0.77896 0.03174 0.0
C1396 C 0.77241 0.78325 0.04068 0.0
C1397 C 0.7774 0.77707 0.04803 0.0
C1398 C 0.77804 0.76647 0.04621 0.0
C1399 C 0.77387 0.76218 0.03725 0.0
C1400 C 0.76465 0.76392 0.02029 0.0
C1401 C 0.76807 0.76794 0.01084 0.0
C1402 C 0.75756 0.75558 0.02033 0.0
C1403 C 0.75331 0.75118 0.03001 0.0
C1404 C 0.74834 0.75742 0.03716 0.0
C1405 C 0.74421 0.75319 0.04617 0.0
C1406 C 0.74492 0.74261 0.04821 0.0
C1407 C 0.74988 0.73639 0.04101 0.0
C1408 C 0.75399 0.74062 0.03201 0.0
C1409 C 0.75317 0.75116 0.99181 0.0
C1410 C 0.75334 0.74054 0.99009 0.0
C1411 C 0.74905 0.73637 0.98114 0.0
C1412 C 0.74448 0.74273 0.9737 0.0
C1413 C 0.74431 0.75336 0.97543 0.0
C1414 C 0.74854 0.75752 0.98441 0.0
C1415 C 0.75755 0.75552 1.00146 0.0
C1416 C 0.75417 0.75148 0.01092 0.0
C1417 C 0.7647 0.76382 1.00143 0.0
C1418 C 0.76908 0.76813 0.99175 0.0
C1419 C 0.77386 0.76177 0.98458 0.0
C1420 C 0.77802 0.76589 0.97554 0.0
C1421 C 0.77756 0.77649 0.9735 0.0
C1422 C 0.77283 0.78284 0.98073 0.0
C1423 C 0.76865 0.77871 0.98976 0.0
H1424 H 0.26328 0.73672 0.9961 0.0
H1425 H 0.27034 0.7295 0.98039 0.0
H1426 H 0.28134 0.75961 0.97136 0.0
H1427 H 0.27416 0.76678 0.98702 0.0
H1428 H 0.27261 0.74644 0.01188 0.0
H1429 H 0.24661 0.75477 0.98679 0.0
H1430 H 0.2395 0.76202 0.97097 0.0
H1431 H 0.2506 0.79206 0.97992 0.0
H1432 H 0.25758 0.78476 0.99578 0.0
H1433 H 0.25691 0.78486 0.027 0.0
H1434 H 0.24968 0.79216 0.04257 0.0
H1435 H 0.23913 0.76201 0.05199 0.0
H1436 H 0.24646 0.75475 0.03642 0.0
H1437 H 0.2479 0.77511 0.01139 0.0
H1438 H 0.27308 0.76705 0.03692 0.0
H1439 H 0.28005 0.75993 0.05288 0.0
H1440 H 0.27122 0.7295 0.04305 0.0
H1441 H 0.26408 0.73665 0.02718 0.0
C1442 C 0.2681 0.75231 0.99271 0.0
C1443 C 0.26722 0.74176 0.99073 0.0
C1444 C 0.2713 0.73764 0.98176 0.0
C1445 C 0.27641 0.74397 0.97458 0.0
C1446 C 0.27731 0.75453 0.97661 0.0
C1447 C 0.27322 0.75865 0.98559 0.0
C1448 C 0.26381 0.75663 1.0023 0.0
C1449 C 0.26708 0.75261 0.01179 0.0
C1450 C 0.25683 0.76488 1.00217 0.0
C1451 C 0.25269 0.76921 0.99244 0.0
C1452 C 0.24759 0.7629 0.9853 0.0
C1453 C 0.24354 0.76706 0.97624 0.0
C1454 C 0.24447 0.77763 0.97416 0.0
C1455 C 0.24961 0.78392 0.98134 0.0
C1456 C 0.25364 0.77975 0.99039 0.0
C1457 C 0.25231 0.76924 0.03056 0.0
C1458 C 0.25303 0.77982 0.03241 0.0
C1459 C 0.24885 0.78399 0.04131 0.0
C1460 C 0.2438 0.77768 0.04855 0.0
C1461 C 0.24309 0.76708 0.04667 0.0
C1462 C 0.24727 0.76291 0.03775 0.0
C1463 C 0.25666 0.7649 0.021 0.0
C1464 C 0.25341 0.76893 0.01151 0.0
C1465 C 0.26369 0.75668 0.02114 0.0
C1466 C 0.26791 0.75241 0.03089 0.0
C1467 C 0.2725 0.75886 0.03825 0.0
C1468 C 0.27651 0.75479 0.04737 0.0
C1469 C 0.27618 0.74416 0.04922 0.0
C1470 C 0.27168 0.7377 0.04179 0.0
C1471 C 0.26758 0.74179 0.03273 0.0
H1472 H 0.02539 0.25657 0.2365 0.0
H1473 H 0.04083 0.24915 0.22918 0.0
H1474 H 0.05094 0.24022 0.25957 0.0
H1475 H 0.03523 0.24725 0.26679 0.0
H1476 H 0.00985 0.2482 0.24649 0.0
H1477 H 0.03604 0.27331 0.25455 0.0
H1478 H 0.05217 0.27982 0.26187 0.0
H1479 H 0.04155 0.27147 0.29222 0.0
H1480 H 0.02571 0.26451 0.2848 0.0
H1481 H 0.99508 0.26487 0.2847 0.0
H1482 H 0.97957 0.27228 0.29195 0.0
H1483 H 0.97015 0.28219 0.26165 0.0
H1484 H 0.98567 0.2747 0.25444 0.0
H1485 H 0.0108 0.27348 0.27478 0.0
H1486 H 0.98482 0.24832 0.26695 0.0
H1487 H 0.96863 0.24174 0.25987 0.0
H1488 H 0.97877 0.25006 0.22935 0.0
H1489 H 0.99472 0.25707 0.23654 0.0
C1490 C 0.02916 0.25259 0.25222 0.0
C1491 C 0.0309 0.25298 0.24159 0.0
C1492 C 0.03981 0.24881 0.23742 0.0
C1493 C 0.0472 0.24413 0.24377 0.0
C1494 C 0.04539 0.24367 0.25442 0.0
C1495 C 0.03645 0.2478 0.25858 0.0
C1496 C 0.01964 0.25706 0.25657 0.0
C1497 C 0.01007 0.25384 0.25259 0.0
C1498 C 0.0199 0.26422 0.26471 0.0
C1499 C 0.02971 0.26828 0.2691 0.0
C1500 C 0.03726 0.27275 0.26276 0.0
C1501 C 0.04643 0.27659 0.26698 0.0
C1502 C 0.0482 0.27615 0.27765 0.0
C1503 C 0.04056 0.27177 0.28397 0.0
C1504 C 0.03144 0.26787 0.27974 0.0
C1505 C 0.99152 0.26914 0.26901 0.0
C1506 C 0.98968 0.26866 0.27962 0.0
C1507 C 0.98082 0.27294 0.28376 0.0
C1508 C 0.97359 0.27785 0.27739 0.0
C1509 C 0.97546 0.27834 0.26676 0.0
C1510 C 0.98435 0.27407 0.26263 0.0
C1511 C 1.00103 0.26464 0.26469 0.0
C1512 C 0.0106 0.26785 0.26868 0.0
C1513 C 1.00077 0.25746 0.25657 0.0
C1514 C 0.99094 0.25333 0.2523 0.0
C1515 C 0.9835 0.24885 0.25874 0.0
C1516 C 0.97428 0.24497 0.25466 0.0
C1517 C 0.97236 0.24538 0.24402 0.0
C1518 C 0.97989 0.24977 0.23758 0.0
C1519 C 0.98908 0.2537 0.24168 0.0
H1520 H 0.7631 0.02605 0.23671 0.0
H1521 H 0.77022 0.04205 0.22972 0.0
H1522 H 0.78057 0.0507 0.26008 0.0
H1523 H 0.77338 0.03473 0.26702 0.0
H1524 H 0.77241 0.0104 0.24624 0.0
H1525 H 0.74656 0.03487 0.25486 0.0
H1526 H 0.73961 0.05048 0.26228 0.0
H1527 H 0.74882 0.04011 0.2925 0.0
H1528 H 0.75613 0.02474 0.28497 0.0
H1529 H 0.75703 0.9938 0.28453 0.0
H1530 H 0.75013 0.97775 0.2916 0.0
H1531 H 0.73963 0.96896 0.26133 0.0
H1532 H 0.74663 0.98498 0.25431 0.0
H1533 H 0.74755 0.00938 0.27498 0.0
H1534 H 0.77377 0.98535 0.26661 0.0
H1535 H 0.78109 0.96979 0.25945 0.0
H1536 H 0.771 0.97905 0.22916 0.0
H1537 H 0.76373 0.99462 0.23637 0.0
C1538 C 0.76761 0.02923 0.2524 0.0
C1539 C 0.76691 0.0314 0.24186 0.0
C1540 C 0.77101 0.04054 0.23786 0.0
C1541 C 0.77596 0.04768 0.24434 0.0
C1542 C 0.77666 0.04546 0.2549 0.0
C1543 C 0.77257 0.03632 0.25888 0.0
C1544 C 0.76338 0.01944 0.25657 0.0
C1545 C 0.76685 0.01017 0.25242 0.0
C1546 C 0.75633 0.01916 0.26484 0.0
C1547 C 0.752 0.02866 0.26933 0.0
C1548 C 0.74719 0.03602 0.26307 0.0
C1549 C 0.74311 0.0449 0.26735 0.0
C1550 C 0.74366 0.0466 0.27801 0.0
C1551 C 0.74839 0.03916 0.28425 0.0
C1552 C 0.7525 0.0303 0.27996 0.0
C1553 C 0.75243 0.99056 0.26888 0.0
C1554 C 0.75323 0.98841 0.27943 0.0
C1555 C 0.74926 0.97924 0.28346 0.0
C1556 C 0.74434 0.97204 0.27703 0.0
C1557 C 0.74352 0.97424 0.26647 0.0
C1558 C 0.7475 0.98341 0.26245 0.0
C1559 C 0.75658 1.00036 0.26466 0.0
C1560 C 0.75309 0.00962 0.26879 0.0
C1561 C 0.76364 1.00063 0.2564 0.0
C1562 C 0.76808 0.99113 0.25205 0.0
C1563 C 0.77304 0.98399 0.25844 0.0
C1564 C 0.77722 0.97508 0.25433 0.0
C1565 C 0.77661 0.97313 0.24372 0.0
C1566 C 0.77172 0.98034 0.23734 0.0
C1567 C 0.76752 0.98925 0.24146 0.0
H1568 H 0.02469 0.73642 0.26615 0.0
H1569 H 0.04027 0.7288 0.27325 0.0
H1570 H 0.05078 0.75875 0.2831 0.0
H1571 H 0.0352 0.76633 0.2759 0.0
H1572 H 0.00952 0.74644 0.27515 0.0
H1573 H 0.03425 0.75409 0.24901 0.0
H1574 H 0.05027 0.76074 0.24168 0.0
H1575 H 0.04229 0.7913 0.25122 0.0
H1576 H 0.02641 0.78453 0.25881 0.0
H1577 H 0.99455 0.78498 0.25869 0.0
H1578 H 0.97885 0.79216 0.25132 0.0
H1579 H 0.96935 0.76192 0.24142 0.0
H1580 H 0.98501 0.7548 0.24887 0.0
H1581 H 0.0102 0.77511 0.24996 0.0
H1582 H 0.98478 0.76703 0.27555 0.0
H1583 H 0.9687 0.7599 0.28233 0.0
H1584 H 0.97809 0.72958 0.27339 0.0
H1585 H 0.99395 0.73681 0.26627 0.0
C1586 C 0.02878 0.75196 0.2704 0.0
C1587 C 0.03034 0.74135 0.26985 0.0
C1588 C 0.03925 0.73699 0.27396 0.0
C1589 C 0.0468 0.74315 0.27877 0.0
C1590 C 0.04522 0.75379 0.27932 0.0
C1591 C 0.03629 0.75814 0.27521 0.0
C1592 C 0.0192 0.75651 0.26615 0.0
C1593 C 0.00967 0.75263 0.26954 0.0
C1594 C 0.01939 0.76475 0.259 0.0
C1595 C 0.02917 0.76879 0.25457 0.0
C1596 C 0.036 0.76221 0.24962 0.0
C1597 C 0.04512 0.76604 0.24534 0.0
C1598 C 0.04759 0.77656 0.24586 0.0
C1599 C 0.04071 0.78314 0.2508 0.0
C1600 C 0.03158 0.7793 0.25507 0.0
C1601 C 0.99093 0.76933 0.25445 0.0
C1602 C 0.98909 0.7799 0.25492 0.0
C1603 C 0.98011 0.784 0.25067 0.0
C1604 C 0.9728 0.77763 0.24578 0.0
C1605 C 0.97471 0.76704 0.24527 0.0
C1606 C 0.98368 0.76295 0.24952 0.0
C1607 C 1.00052 0.76501 0.25894 0.0
C1608 C 0.01005 0.76894 0.2556 0.0
C1609 C 1.00033 0.75677 0.26608 0.0
C1610 C 0.99054 0.75248 0.27028 0.0
C1611 C 0.98332 0.75886 0.27494 0.0
C1612 C 0.97417 0.75475 0.27892 0.0
C1613 C 0.97207 0.74416 0.2784 0.0
C1614 C 0.97936 0.73779 0.27379 0.0
C1615 C 0.98849 0.7419 0.26979 0.0
H1616 H 0.23565 0.02534 0.257 0.0
H1617 H 0.22817 0.04087 0.24975 0.0
H1618 H 0.25855 0.05195 0.2417 0.0
H1619 H 0.26594 0.03618 0.24859 0.0
H1620 H 0.24592 0.01044 0.24847 0.0
H1621 H 0.25314 0.03494 0.27496 0.0
H1622 H 0.25977 0.05088 0.28242 0.0
H1623 H 0.29053 0.04281 0.2733 0.0
H1624 H 0.28379 0.02702 0.26559 0.0
H1625 H 0.28431 0.99583 0.26588 0.0
H1626 H 0.29164 0.98024 0.27322 0.0
H1627 H 0.26121 0.96962 0.28158 0.0
H1628 H 0.25391 0.98529 0.27431 0.0
H1629 H 0.2741 0.01089 0.27425 0.0
H1630 H 0.26638 0.98548 0.24851 0.0
H1631 H 0.25914 0.96963 0.24138 0.0
H1632 H 0.22868 0.97934 0.24971 0.0
H1633 H 0.23595 0.9951 0.25694 0.0
C1634 C 0.25138 0.0296 0.25345 0.0
C1635 C 0.2407 0.0311 0.25364 0.0
C1636 C 0.23644 0.04004 0.24957 0.0
C1637 C 0.24275 0.04772 0.24518 0.0
C1638 C 0.25344 0.04618 0.24494 0.0
C1639 C 0.2577 0.0372 0.24898 0.0
C1640 C 0.25583 0.02 0.25774 0.0
C1641 C 0.25199 0.01053 0.25421 0.0
C1642 C 0.26393 0.02012 0.26506 0.0
C1643 C 0.26795 0.02983 0.26961 0.0
C1644 C 0.2613 0.03665 0.27448 0.0
C1645 C 0.26512 0.04572 0.27883 0.0
C1646 C 0.27569 0.04814 0.27846 0.0
C1647 C 0.28233 0.04126 0.27361 0.0
C1648 C 0.27851 0.03219 0.26927 0.0
C1649 C 0.26854 0.99171 0.26942 0.0
C1650 C 0.27921 0.99016 0.26932 0.0
C1651 C 0.2834 0.98125 0.27354 0.0
C1652 C 0.27701 0.97367 0.27797 0.0
C1653 C 0.26633 0.97523 0.27809 0.0
C1654 C 0.26215 0.98419 0.27393 0.0
C1655 C 0.26416 1.0013 0.26501 0.0
C1656 C 0.26804 0.01078 0.2685 0.0
C1657 C 0.25604 1.00117 0.2577 0.0
C1658 C 0.25173 0.99147 0.25337 0.0
C1659 C 0.25815 0.98415 0.24892 0.0
C1660 C 0.254 0.97509 0.24483 0.0
C1661 C 0.24333 0.97322 0.24497 0.0
C1662 C 0.23692 0.9806 0.24937 0.0
C1663 C 0.24107 0.98961 0.25352 0.0
H1664 H 0.02675 0.76275 0.78495 0.0
H1665 H 0.04271 0.76958 0.79232 0.0
H1666 H 0.05175 0.78085 0.76238 0.0
H1667 H 0.03583 0.77384 0.75505 0.0
H1668 H 0.01125 0.7727 0.77537 0.0
H1669 H 0.03533 0.74627 0.76674 0.0
H1670 H 0.05102 0.73926 0.7594 0.0
H1671 H 0.04172 0.75008 0.72938 0.0
H1672 H 0.02618 0.75729 0.73682 0.0
H1673 H 0.99506 0.75683 0.73685 0.0
H1674 H 0.97907 0.74993 0.72965 0.0
H1675 H 0.9691 0.74119 0.76012 0.0
H1676 H 0.98534 0.74764 0.76719 0.0
H1677 H 0.01032 0.74802 0.74654 0.0
H1678 H 0.98584 0.77384 0.75496 0.0
H1679 H 0.97026 0.78111 0.76227 0.0
H1680 H 0.98023 0.77182 0.79257 0.0
H1681 H 0.99573 0.76447 0.78522 0.0
C1682 C 0.03012 0.76771 0.76944 0.0
C1683 C 0.03218 0.76668 0.77998 0.0
C1684 C 0.04129 0.77064 0.78419 0.0
C1685 C 0.04852 0.77579 0.77795 0.0
C1686 C 0.04644 0.77679 0.76738 0.0
C1687 C 0.03732 0.77281 0.76318 0.0
C1688 C 0.02031 0.76368 0.76508 0.0
C1689 C 0.01102 0.76719 0.76916 0.0
C1690 C 0.02007 0.75672 0.75678 0.0
C1691 C 0.02961 0.75241 0.75235 0.0
C1692 C 0.03672 0.74721 0.75859 0.0
C1693 C 0.04564 0.74312 0.75437 0.0
C1694 C 0.04765 0.74412 0.7438 0.0
C1695 C 0.04049 0.74929 0.73757 0.0
C1696 C 0.03156 0.75335 0.74179 0.0
C1697 C 0.99138 0.75287 0.75257 0.0
C1698 C 0.98946 0.75338 0.74197 0.0
C1699 C 0.98025 0.74952 0.73788 0.0
C1700 C 0.97274 0.74506 0.7443 0.0
C1701 C 0.97473 0.74448 0.75492 0.0
C1702 C 0.98398 0.74829 0.759 0.0
C1703 C 1.0012 0.757 0.75687 0.0
C1704 C 0.01051 0.75353 0.75276 0.0
C1705 C 1.00146 0.76404 0.76513 0.0
C1706 C 0.99194 0.76848 0.76951 0.0
C1707 C 0.98462 0.77326 0.76316 0.0
C1708 C 0.97572 0.77743 0.76735 0.0
C1709 C 0.97399 0.77704 0.77801 0.0
C1710 C 0.98137 0.77235 0.78435 0.0
C1711 C 0.99023 0.76812 0.78015 0.0
H1712 H 0.26396 0.02637 0.73673 0.0
H1713 H 0.27132 0.0424 0.73001 0.0
H1714 H 0.28123 0.05067 0.76061 0.0
H1715 H 0.27407 0.03454 0.76724 0.0
H1716 H 0.27335 0.0105 0.74634 0.0
H1717 H 0.24693 0.03465 0.75452 0.0
H1718 H 0.2395 0.05008 0.76187 0.0
H1719 H 0.24935 0.04035 0.79209 0.0
H1720 H 0.25668 0.0249 0.7847 0.0
H1721 H 0.25648 0.99409 0.78437 0.0
H1722 H 0.24902 0.97826 0.79133 0.0
H1723 H 0.24101 0.96857 0.76059 0.0
H1724 H 0.24803 0.98463 0.75375 0.0
H1725 H 0.24787 0.00935 0.77454 0.0
H1726 H 0.27436 0.98539 0.7667 0.0
H1727 H 0.28183 0.96984 0.75969 0.0
H1728 H 0.27238 0.97913 0.7292 0.0
H1729 H 0.26497 0.9947 0.73627 0.0
C1730 C 0.26839 0.02929 0.7525 0.0
C1731 C 0.26772 0.03164 0.74199 0.0
C1732 C 0.27187 0.04084 0.73817 0.0
C1733 C 0.27685 0.04782 0.74478 0.0
C1734 C 0.27753 0.04542 0.7553 0.0
C1735 C 0.27336 0.03624 0.75912 0.0
C1736 C 0.26409 0.01947 0.75651 0.0
C1737 C 0.26767 0.01023 0.7524 0.0
C1738 C 0.25688 0.01916 0.76462 0.0
C1739 C 0.25245 0.02864 0.76904 0.0
C1740 C 0.24757 0.03589 0.76272 0.0
C1741 C 0.24333 0.04473 0.76694 0.0
C1742 C 0.24382 0.04649 0.77759 0.0
C1743 C 0.2487 0.03919 0.78389 0.0
C1744 C 0.25293 0.03036 0.77966 0.0
C1745 C 0.25291 0.99053 0.76853 0.0
C1746 C 0.25309 0.98856 0.77913 0.0
C1747 C 0.24891 0.97945 0.78309 0.0
C1748 C 0.24444 0.9721 0.77652 0.0
C1749 C 0.24429 0.97409 0.76589 0.0
C1750 C 0.24842 0.98323 0.76195 0.0
C1751 C 0.25716 1.00035 0.7644 0.0
C1752 C 0.25356 0.0096 0.76847 0.0
C1753 C 0.2644 1.00067 0.7563 0.0
C1754 C 0.26899 0.99119 0.75203 0.0
C1755 C 0.27382 0.98405 0.75851 0.0
C1756 C 0.27808 0.97514 0.75449 0.0
C1757 C 0.27769 0.97319 0.74387 0.0
C1758 C 0.27294 0.98042 0.73739 0.0
C1759 C 0.26866 0.98932 0.74143 0.0
H1760 H 0.99443 0.26454 0.73828 0.0
H1761 H 0.97881 0.27183 0.7309 0.0
H1762 H 0.96979 0.28208 0.761 0.0
H1763 H 0.9854 0.27469 0.76834 0.0
H1764 H 0.01025 0.27348 0.74798 0.0
H1765 H 0.98495 0.24764 0.75639 0.0
H1766 H 0.96908 0.2405 0.76359 0.0
H1767 H 0.97849 0.25074 0.79375 0.0
H1768 H 0.9944 0.25777 0.78649 0.0
H1769 H 0.02595 0.25661 0.78635 0.0
H1770 H 0.04152 0.24881 0.79333 0.0
H1771 H 0.05024 0.23973 0.76275 0.0
H1772 H 0.03447 0.24719 0.7559 0.0
H1773 H 0.00987 0.24839 0.77673 0.0
H1774 H 0.03583 0.27342 0.7682 0.0
H1775 H 0.05184 0.28001 0.76082 0.0
H1776 H 0.04093 0.27175 0.73054 0.0
H1777 H 0.02516 0.26474 0.73803 0.0
C1778 C 0.99107 0.26898 0.75388 0.0
C1779 C 0.98909 0.26837 0.74329 0.0
C1780 C 0.98016 0.27258 0.73908 0.0
C1781 C 0.97302 0.27757 0.74535 0.0
C1782 C 0.97502 0.27817 0.75596 0.0
C1783 C 0.98397 0.27395 0.76017 0.0
C1784 C 1.00069 0.26463 0.75826 0.0
C1785 C 0.01018 0.26788 0.75418 0.0
C1786 C 1.00059 0.25753 0.76654 0.0
C1787 C 0.99084 0.25333 0.77088 0.0
C1788 C 0.98355 0.24843 0.76454 0.0
C1789 C 0.97446 0.24437 0.76867 0.0
C1790 C 0.97247 0.24505 0.77926 0.0
C1791 C 0.97981 0.24995 0.78559 0.0
C1792 C 0.9889 0.25401 0.78145 0.0
C1793 C 0.02906 0.25259 0.77058 0.0
C1794 C 0.03121 0.25291 0.78115 0.0
C1795 C 0.04017 0.24853 0.78512 0.0
C1796 C 0.04719 0.24366 0.77861 0.0
C1797 C 0.04498 0.24331 0.76802 0.0
C1798 C 0.03601 0.24768 0.76406 0.0
C1799 C 0.01946 0.25719 0.76641 0.0
C1800 C 0.00997 0.254 0.77055 0.0
C1801 C 0.01957 0.26433 0.75816 0.0
C1802 C 0.02932 0.26844 0.7537 0.0
C1803 C 0.03694 0.2729 0.75999 0.0
C1804 C 0.04606 0.27679 0.75573 0.0
C1805 C 0.04772 0.27641 0.74507 0.0
C1806 C 0.04001 0.27203 0.73879 0.0
C1807 C 0.03093 0.2681 0.74305 0.0
H1808 H 0.73604 0.02576 0.7577 0.0
H1809 H 0.72859 0.04137 0.75055 0.0
H1810 H 0.75877 0.0515 0.74077 0.0
H1811 H 0.76617 0.0359 0.74803 0.0
H1812 H 0.74596 0.01054 0.74871 0.0
H1813 H 0.7538 0.03505 0.77491 0.0
H1814 H 0.76061 0.05093 0.78232 0.0
H1815 H 0.7912 0.04272 0.77282 0.0
H1816 H 0.78428 0.02698 0.76516 0.0
H1817 H 0.78468 0.99574 0.76519 0.0
H1818 H 0.79209 0.98012 0.77235 0.0
H1819 H 0.76174 0.96953 0.78109 0.0
H1820 H 0.75444 0.98538 0.77432 0.0
H1821 H 0.77472 0.01088 0.77387 0.0
H1822 H 0.76644 0.98595 0.74775 0.0
H1823 H 0.75913 0.97021 0.74045 0.0
H1824 H 0.72894 0.97912 0.75057 0.0
H1825 H 0.73629 0.99484 0.75778 0.0
C1826 C 0.75168 0.02967 0.75349 0.0
C1827 C 0.74105 0.03134 0.75401 0.0
C1828 C 0.7368 0.04027 0.74988 0.0
C1829 C 0.74307 0.04772 0.74506 0.0
C1830 C 0.75372 0.04602 0.74455 0.0
C1831 C 0.75797 0.03708 0.74869 0.0
C1832 C 0.75613 0.02006 0.75776 0.0
C1833 C 0.75216 0.01061 0.75432 0.0
C1834 C 0.76438 0.02016 0.7649 0.0
C1835 C 0.76851 0.02986 0.76937 0.0
C1836 C 0.76196 0.03672 0.77432 0.0
C1837 C 0.76588 0.04576 0.77865 0.0
C1838 C 0.77646 0.04811 0.77817 0.0
C1839 C 0.783 0.04121 0.77322 0.0
C1840 C 0.77907 0.03217 0.7689 0.0
C1841 C 0.76898 0.99172 0.76909 0.0
C1842 C 0.77962 0.99007 0.76868 0.0
C1843 C 0.78384 0.98108 0.77271 0.0
C1844 C 0.77752 0.9735 0.77726 0.0
C1845 C 0.76686 0.97521 0.77773 0.0
C1846 C 0.76266 0.98424 0.77374 0.0
C1847 C 0.76456 1.00133 0.76481 0.0
C1848 C 0.76853 0.0108 0.76825 0.0
C1849 C 0.75628 1.00125 0.75769 0.0
C1850 C 0.75193 0.99156 0.75339 0.0
C1851 C 0.75826 0.98447 0.74847 0.0
C1852 C 0.75407 0.97546 0.74431 0.0
C1853 C 0.74344 0.97339 0.7449 0.0
C1854 C 0.73713 0.98052 0.74983 0.0
C1855 C 0.74133 0.98951 0.754 0.0
H1856 H 0.2852 0.76273 0.49537 0.0
H1857 H 0.29238 0.77026 0.4797 0.0
H1858 H 0.26187 0.77894 0.46995 0.0
H1859 H 0.25481 0.77178 0.48582 0.0
H1860 H 0.27544 0.77133 0.51084 0.0
H1861 H 0.26692 0.74556 0.48576 0.0
H1862 H 0.2595 0.73861 0.46995 0.0
H1863 H 0.22923 0.74725 0.48007 0.0
H1864 H 0.23675 0.75456 0.49564 0.0
H1865 H 0.23691 0.75497 0.52648 0.0
H1866 H 0.22964 0.74753 0.54217 0.0
H1867 H 0.26 0.73826 0.55181 0.0
H1868 H 0.26717 0.74546 0.53598 0.0
H1869 H 0.24667 0.74602 0.51101 0.0
H1870 H 0.25481 0.77226 0.53545 0.0
H1871 H 0.26182 0.77973 0.55121 0.0
H1872 H 0.2923 0.77044 0.54239 0.0
H1873 H 0.28518 0.76271 0.52678 0.0
C1874 C 0.26945 0.76658 0.49176 0.0
C1875 C 0.28006 0.76628 0.48987 0.0
C1876 C 0.28415 0.77051 0.48085 0.0
C1877 C 0.27771 0.77519 0.47351 0.0
C1878 C 0.26708 0.7755 0.47545 0.0
C1879 C 0.263 0.77129 0.48449 0.0
C1880 C 0.26517 0.76221 0.50146 0.0
C1881 C 0.26925 0.76567 0.51087 0.0
C1882 C 0.25689 0.75504 0.5015 0.0
C1883 C 0.25242 0.75072 0.49187 0.0
C1884 C 0.2587 0.74607 0.48452 0.0
C1885 C 0.25442 0.74199 0.47552 0.0
C1886 C 0.24375 0.74238 0.47369 0.0
C1887 C 0.23749 0.74696 0.48111 0.0
C1888 C 0.24177 0.75106 0.49009 0.0
C1889 C 0.25261 0.75085 0.53007 0.0
C1890 C 0.242 0.75133 0.53198 0.0
C1891 C 0.23787 0.74714 0.54099 0.0
C1892 C 0.24423 0.74231 0.54827 0.0
C1893 C 0.25486 0.74184 0.54634 0.0
C1894 C 0.25899 0.74605 0.53733 0.0
C1895 C 0.25693 0.75514 0.52036 0.0
C1896 C 0.25287 0.75166 0.51096 0.0
C1897 C 0.26519 0.76232 0.52032 0.0
C1898 C 0.26944 0.76681 0.52996 0.0
C1899 C 0.26299 0.77172 0.53696 0.0
C1900 C 0.26703 0.77609 0.54593 0.0
C1901 C 0.27763 0.77569 0.54809 0.0
C1902 C 0.28408 0.77077 0.54105 0.0
C1903 C 0.28003 0.76642 0.53208 0.0
H1904 H 0.76442 0.73659 0.49696 0.0
H1905 H 0.77191 0.72953 0.48141 0.0
H1906 H 0.78059 0.76011 0.47152 0.0
H1907 H 0.77355 0.76705 0.48733 0.0
H1908 H 0.7728 0.74633 0.51246 0.0
H1909 H 0.74666 0.75469 0.48762 0.0
H1910 H 0.73934 0.76193 0.47188 0.0
H1911 H 0.75035 0.79201 0.4808 0.0
H1912 H 0.75751 0.78473 0.49657 0.0
H1913 H 0.75758 0.78468 0.52795 0.0
H1914 H 0.75048 0.79193 0.54364 0.0
H1915 H 0.73985 0.76178 0.55294 0.0
H1916 H 0.74672 0.75463 0.5371 0.0
H1917 H 0.74815 0.77505 0.51226 0.0
H1918 H 0.77429 0.76659 0.5371 0.0
H1919 H 0.78103 0.75938 0.55313 0.0
H1920 H 0.77013 0.72933 0.54405 0.0
H1921 H 0.76318 0.73663 0.52816 0.0
C1922 C 0.76831 0.75237 0.4933 0.0
C1923 C 0.76797 0.74177 0.49146 0.0
C1924 C 0.77217 0.73775 0.48249 0.0
C1925 C 0.77684 0.74424 0.47515 0.0
C1926 C 0.77717 0.75486 0.47703 0.0
C1927 C 0.77302 0.75886 0.48603 0.0
C1928 C 0.76399 0.75659 0.50295 0.0
C1929 C 0.76729 0.75251 0.5124 0.0
C1930 C 0.75697 0.76483 0.50291 0.0
C1931 C 0.75269 0.76916 0.49325 0.0
C1932 C 0.74755 0.76283 0.48614 0.0
C1933 C 0.74339 0.76699 0.47713 0.0
C1934 C 0.74424 0.77757 0.47506 0.0
C1935 C 0.74941 0.78387 0.48221 0.0
C1936 C 0.75355 0.77971 0.49121 0.0
C1937 C 0.75277 0.76909 0.53138 0.0
C1938 C 0.7537 0.77963 0.53337 0.0
C1939 C 0.74971 0.78375 0.54238 0.0
C1940 C 0.74463 0.77743 0.54958 0.0
C1941 C 0.74364 0.76688 0.54753 0.0
C1942 C 0.74766 0.76276 0.53852 0.0
C1943 C 0.75697 0.76478 0.52174 0.0
C1944 C 0.75365 0.76885 0.5123 0.0
C1945 C 0.76394 0.75652 0.52178 0.0
C1946 C 0.76813 0.75217 0.53148 0.0
C1947 C 0.77328 0.75846 0.53861 0.0
C1948 C 0.77721 0.75432 0.54772 0.0
C1949 C 0.7761 0.74378 0.54988 0.0
C1950 C 0.771 0.73749 0.54269 0.0
C1951 C 0.76709 0.74164 0.53357 0.0
H1952 H 0.76494 0.28325 0.52606 0.0
H1953 H 0.77214 0.2907 0.54173 0.0
H1954 H 0.78183 0.26064 0.55167 0.0
H1955 H 0.77452 0.25323 0.536 0.0
H1956 H 0.77392 0.27334 0.51074 0.0
H1957 H 0.74811 0.26535 0.53585 0.0
H1958 H 0.74073 0.25822 0.55162 0.0
H1959 H 0.74935 0.22784 0.54214 0.0
H1960 H 0.75679 0.23502 0.52643 0.0
H1961 H 0.75664 0.2349 0.49556 0.0
H1962 H 0.74881 0.22768 0.48007 0.0
H1963 H 0.74063 0.25815 0.46996 0.0
H1964 H 0.74805 0.26525 0.48568 0.0
H1965 H 0.74835 0.24484 0.51091 0.0
H1966 H 0.77433 0.25289 0.48584 0.0
H1967 H 0.7813 0.26004 0.4699 0.0
H1968 H 0.77246 0.29035 0.47942 0.0
H1969 H 0.76519 0.28311 0.49517 0.0
C1970 C 0.7691 0.26766 0.52986 0.0
C1971 C 0.76862 0.27826 0.53161 0.0
C1972 C 0.77279 0.28252 0.54057 0.0
C1973 C 0.77759 0.27628 0.54799 0.0
C1974 C 0.77806 0.26566 0.54622 0.0
C1975 C 0.77389 0.2614 0.53724 0.0
C1976 C 0.76477 0.26323 0.52023 0.0
C1977 C 0.76823 0.26719 0.51077 0.0
C1978 C 0.75753 0.25502 0.52028 0.0
C1979 C 0.75313 0.25075 0.52998 0.0
C1980 C 0.74854 0.25717 0.53722 0.0
C1981 C 0.74431 0.25308 0.54624 0.0
C1982 C 0.74445 0.24245 0.54815 0.0
C1983 C 0.749 0.23604 0.54086 0.0
C1984 C 0.75329 0.24014 0.53188 0.0
C1985 C 0.75304 0.25064 0.49177 0.0
C1986 C 0.75314 0.24003 0.49001 0.0
C1987 C 0.74874 0.23592 0.48109 0.0
C1988 C 0.7441 0.24232 0.47371 0.0
C1989 C 0.74402 0.25296 0.4755 0.0
C1990 C 0.74839 0.25706 0.48445 0.0
C1991 C 0.75751 0.25494 0.50142 0.0
C1992 C 0.75407 0.25096 0.51088 0.0
C1993 C 0.76478 0.26313 0.50137 0.0
C1994 C 0.76912 0.26744 0.49168 0.0
C1995 C 0.7738 0.26106 0.48445 0.0
C1996 C 0.77788 0.26518 0.47537 0.0
C1997 C 0.77743 0.27578 0.47334 0.0
C1998 C 0.77281 0.28214 0.48064 0.0
C1999 C 0.76873 0.27802 0.48971 0.0
H2000 H 0.26462 0.23711 0.49661 0.0
H2001 H 0.2721 0.23013 0.48101 0.0
H2002 H 0.28074 0.26077 0.47127 0.0
H2003 H 0.27369 0.26762 0.48712 0.0
H2004 H 0.27305 0.24696 0.51217 0.0
H2005 H 0.24704 0.25495 0.48709 0.0
H2006 H 0.24006 0.26211 0.47115 0.0
H2007 H 0.25019 0.29235 0.48047 0.0
H2008 H 0.25709 0.28515 0.49641 0.0
H2009 H 0.25718 0.28504 0.52755 0.0
H2010 H 0.25009 0.29225 0.54325 0.0
H2011 H 0.23989 0.262 0.55271 0.0
H2012 H 0.24675 0.25489 0.53684 0.0
H2013 H 0.24792 0.27526 0.51192 0.0
H2014 H 0.27347 0.26718 0.53733 0.0
H2015 H 0.28011 0.25995 0.55335 0.0
H2016 H 0.27131 0.2296 0.54314 0.0
H2017 H 0.26422 0.23693 0.52738 0.0
C2018 C 0.26848 0.25291 0.49302 0.0
C2019 C 0.26816 0.24232 0.49113 0.0
C2020 C 0.27236 0.23835 0.48214 0.0
C2021 C 0.277 0.24488 0.47482 0.0
C2022 C 0.27733 0.25549 0.47676 0.0
C2023 C 0.27318 0.25944 0.48578 0.0
C2024 C 0.26409 0.25708 0.50266 0.0
C2025 C 0.26744 0.25305 0.51211 0.0
C2026 C 0.25694 0.26519 0.5026 0.0
C2027 C 0.25267 0.2695 0.49291 0.0
C2028 C 0.24782 0.26311 0.48566 0.0
C2029 C 0.24385 0.26722 0.47655 0.0
C2030 C 0.24458 0.27781 0.47452 0.0
C2031 C 0.24937 0.28419 0.48184 0.0
C2032 C 0.25335 0.28008 0.49094 0.0
C2033 C 0.25258 0.26941 0.53105 0.0
C2034 C 0.25339 0.27997 0.533 0.0
C2035 C 0.2494 0.28406 0.54202 0.0
C2036 C 0.24446 0.2777 0.54928 0.0
C2037 C 0.24358 0.26713 0.54726 0.0
C2038 C 0.24758 0.26304 0.53823 0.0
C2039 C 0.25687 0.26512 0.52143 0.0
C2040 C 0.25351 0.26915 0.51198 0.0
C2041 C 0.26399 0.25698 0.5215 0.0
C2042 C 0.2682 0.25262 0.5312 0.0
C2043 C 0.27285 0.25898 0.5386 0.0
C2044 C 0.27676 0.25482 0.54772 0.0
C2045 C 0.27623 0.24418 0.54958 0.0
C2046 C 0.27169 0.23783 0.54207 0.0
C2047 C 0.26772 0.24201 0.533 0.0
H2048 H 0.75633 0.52473 0.78496 0.0
H2049 H 0.74906 0.54024 0.79228 0.0
H2050 H 0.73913 0.54981 0.76203 0.0
H2051 H 0.7465 0.53432 0.75476 0.0
H2052 H 0.74757 0.50911 0.77498 0.0
H2053 H 0.77369 0.53416 0.76742 0.0
H2054 H 0.78092 0.55025 0.76077 0.0
H2055 H 0.77089 0.54202 0.73019 0.0
H2056 H 0.76344 0.52604 0.73695 0.0
H2057 H 0.76443 0.49445 0.7365 0.0
H2058 H 0.7721 0.47906 0.72934 0.0
H2059 H 0.78091 0.46931 0.75988 0.0
H2060 H 0.77364 0.48492 0.76692 0.0
H2061 H 0.77273 0.51012 0.74649 0.0
H2062 H 0.74678 0.48467 0.75441 0.0
H2063 H 0.73973 0.46868 0.76144 0.0
H2064 H 0.75019 0.47753 0.79172 0.0
H2065 H 0.7571 0.49356 0.78463 0.0
C2066 C 0.75206 0.52838 0.76929 0.0
C2067 C 0.75257 0.53016 0.77991 0.0
C2068 C 0.74837 0.53903 0.78409 0.0
C2069 C 0.7435 0.5463 0.77776 0.0
C2070 C 0.74296 0.54447 0.76712 0.0
C2071 C 0.74717 0.5356 0.76295 0.0
C2072 C 0.75645 0.51887 0.76491 0.0
C2073 C 0.75317 0.50933 0.76884 0.0
C2074 C 0.76359 0.51914 0.75673 0.0
C2075 C 0.76793 0.52894 0.7527 0.0
C2076 C 0.77296 0.53587 0.7593 0.0
C2077 C 0.77717 0.54502 0.75547 0.0
C2078 C 0.77649 0.54742 0.74495 0.0
C2079 C 0.77144 0.54046 0.73835 0.0
C2080 C 0.76725 0.53129 0.74219 0.0
C2081 C 0.76834 0.49083 0.75227 0.0
C2082 C 0.76804 0.48901 0.74165 0.0
C2083 C 0.77235 0.48014 0.73757 0.0
C2084 C 0.77711 0.47289 0.74402 0.0
C2085 C 0.77742 0.47475 0.75466 0.0
C2086 C 0.77314 0.48364 0.75872 0.0
C2087 C 0.76384 0.50034 0.75656 0.0
C2088 C 0.7671 0.50988 0.75261 0.0
C2089 C 0.75671 0.50007 0.76475 0.0
C2090 C 0.75254 0.49028 0.76898 0.0
C2091 C 0.74762 0.48313 0.76255 0.0
C2092 C 0.74362 0.47397 0.76658 0.0
C2093 C 0.7444 0.47179 0.77716 0.0
C2094 C 0.74932 0.479 0.78357 0.0
C2095 C 0.75331 0.48816 0.77953 0.0
H2096 H 0.28456 0.52698 0.76491 0.0
H2097 H 0.29158 0.54281 0.77227 0.0
H2098 H 0.26118 0.55096 0.78242 0.0
H2099 H 0.25422 0.53516 0.77499 0.0
H2100 H 0.27506 0.51096 0.77382 0.0
H2101 H 0.26621 0.53601 0.74802 0.0
H2102 H 0.25867 0.55175 0.74119 0.0
H2103 H 0.22861 0.54122 0.7509 0.0
H2104 H 0.23624 0.52566 0.75799 0.0
H2105 H 0.23658 0.49482 0.75764 0.0
H2106 H 0.22935 0.47905 0.75042 0.0
H2107 H 0.25972 0.46998 0.74102 0.0
H2108 H 0.26685 0.48597 0.74792 0.0
H2109 H 0.24617 0.51053 0.74881 0.0
H2110 H 0.25481 0.48543 0.7744 0.0
H2111 H 0.26215 0.46963 0.78122 0.0
H2112 H 0.29247 0.48024 0.77237 0.0
H2113 H 0.28501 0.49582 0.76516 0.0
C2114 C 0.26885 0.52991 0.76929 0.0
C2115 C 0.27941 0.53218 0.76873 0.0
C2116 C 0.28342 0.54122 0.77297 0.0
C2117 C 0.27694 0.54819 0.77793 0.0
C2118 C 0.26636 0.54587 0.77851 0.0
C2119 C 0.26237 0.53682 0.77427 0.0
C2120 C 0.26466 0.52021 0.7649 0.0
C2121 C 0.26884 0.51086 0.76823 0.0
C2122 C 0.25635 0.52008 0.75781 0.0
C2123 C 0.25181 0.52968 0.75363 0.0
C2124 C 0.25801 0.53714 0.74877 0.0
C2125 C 0.25367 0.5461 0.74478 0.0
C2126 C 0.24303 0.54778 0.74551 0.0
C2127 C 0.23685 0.54026 0.75033 0.0
C2128 C 0.24119 0.53131 0.75431 0.0
C2129 C 0.25228 0.49156 0.75342 0.0
C2130 C 0.24168 0.48946 0.75399 0.0
C2131 C 0.23757 0.48038 0.74994 0.0
C2132 C 0.24395 0.4732 0.74518 0.0
C2133 C 0.25456 0.47537 0.74455 0.0
C2134 C 0.25867 0.48446 0.74859 0.0
C2135 C 0.25658 0.50127 0.75772 0.0
C2136 C 0.25241 0.51062 0.75438 0.0
C2137 C 0.26488 0.50138 0.76483 0.0
C2138 C 0.26933 0.49178 0.76912 0.0
C2139 C 0.26302 0.48431 0.77381 0.0
C2140 C 0.26726 0.47531 0.77782 0.0
C2141 C 0.27792 0.47361 0.77734 0.0
C2142 C 0.28422 0.48118 0.77274 0.0
C2143 C 0.27997 0.49015 0.76869 0.0
H2144 H 0.26433 0.52531 0.23698 0.0
H2145 H 0.27162 0.54122 0.22996 0.0
H2146 H 0.28014 0.55083 0.26056 0.0
H2147 H 0.27294 0.53486 0.26754 0.0
H2148 H 0.27301 0.51005 0.24692 0.0
H2149 H 0.24652 0.53428 0.25484 0.0
H2150 H 0.23905 0.54975 0.26207 0.0
H2151 H 0.2488 0.54019 0.29238 0.0
H2152 H 0.25618 0.52472 0.2851 0.0
H2153 H 0.25597 0.49388 0.28496 0.0
H2154 H 0.24833 0.47817 0.29197 0.0
H2155 H 0.24035 0.46837 0.26126 0.0
H2156 H 0.24754 0.48433 0.25436 0.0
H2157 H 0.24743 0.50913 0.27502 0.0
H2158 H 0.2738 0.48488 0.26722 0.0
H2159 H 0.28121 0.46933 0.26011 0.0
H2160 H 0.27182 0.47887 0.22968 0.0
H2161 H 0.26449 0.49443 0.23684 0.0
C2162 C 0.26798 0.52891 0.2528 0.0
C2163 C 0.26778 0.53083 0.24218 0.0
C2164 C 0.27196 0.53992 0.23818 0.0
C2165 C 0.27643 0.54729 0.24471 0.0
C2166 C 0.27661 0.54537 0.25535 0.0
C2167 C 0.27249 0.53624 0.25934 0.0
C2168 C 0.26372 0.51912 0.25698 0.0
C2169 C 0.26731 0.50984 0.25297 0.0
C2170 C 0.25647 0.51886 0.26507 0.0
C2171 C 0.252 0.52836 0.26941 0.0
C2172 C 0.24712 0.53556 0.26303 0.0
C2173 C 0.24286 0.54442 0.26718 0.0
C2174 C 0.24331 0.54625 0.27782 0.0
C2175 C 0.24817 0.53899 0.28418 0.0
C2176 C 0.25243 0.53014 0.28002 0.0
C2177 C 0.25242 0.49027 0.26912 0.0
C2178 C 0.25255 0.48835 0.27974 0.0
C2179 C 0.24827 0.47931 0.28373 0.0
C2180 C 0.24374 0.47196 0.27719 0.0
C2181 C 0.24366 0.47389 0.26655 0.0
C2182 C 0.24789 0.48297 0.26257 0.0
C2183 C 0.25673 0.50005 0.26496 0.0
C2184 C 0.25314 0.50933 0.26897 0.0
C2185 C 0.26399 0.50031 0.25688 0.0
C2186 C 0.26849 0.4908 0.25259 0.0
C2187 C 0.27326 0.48359 0.25903 0.0
C2188 C 0.27748 0.47468 0.25494 0.0
C2189 C 0.2771 0.47282 0.24431 0.0
C2190 C 0.27238 0.4801 0.23788 0.0
C2191 C 0.26814 0.489 0.24197 0.0
H2192 H 0.73599 0.52579 0.25777 0.0
H2193 H 0.72845 0.54139 0.25069 0.0
H2194 H 0.75854 0.55162 0.24074 0.0
H2195 H 0.76603 0.53604 0.24795 0.0
H2196 H 0.746 0.5106 0.24868 0.0
H2197 H 0.75366 0.53498 0.2751 0.0
H2198 H 0.76033 0.5509 0.28257 0.0
H2199 H 0.79092 0.54324 0.2726 0.0
H2200 H 0.78414 0.52743 0.26492 0.0
H2201 H 0.7848 0.4961 0.26528 0.0
H2202 H 0.79233 0.48051 0.27241 0.0
H2203 H 0.76212 0.46978 0.28138 0.0
H2204 H 0.75463 0.48545 0.27433 0.0
H2205 H 0.77473 0.51113 0.27386 0.0
H2206 H 0.76657 0.48573 0.24827 0.0
H2207 H 0.75926 0.46987 0.24123 0.0
H2208 H 0.72892 0.47942 0.25019 0.0
H2209 H 0.73627 0.49519 0.25732 0.0
C2210 C 0.75159 0.52976 0.25348 0.0
C2211 C 0.74096 0.53139 0.25406 0.0
C2212 C 0.73665 0.54031 0.24996 0.0
C2213 C 0.74287 0.54779 0.24512 0.0
C2214 C 0.75353 0.54612 0.24455 0.0
C2215 C 0.75783 0.5372 0.24866 0.0
C2216 C 0.7561 0.52018 0.25773 0.0
C2217 C 0.75219 0.5107 0.25429 0.0
C2218 C 0.76434 0.52033 0.26488 0.0
C2219 C 0.76838 0.53005 0.26935 0.0
C2220 C 0.76179 0.53677 0.27443 0.0
C2221 C 0.76563 0.54583 0.27878 0.0
C2222 C 0.77616 0.54835 0.27819 0.0
C2223 C 0.78275 0.5416 0.27309 0.0
C2224 C 0.7789 0.53252 0.26877 0.0
C2225 C 0.76912 0.49193 0.26914 0.0
C2226 C 0.77979 0.49042 0.26881 0.0
C2227 C 0.78409 0.4815 0.27291 0.0
C2228 C 0.77783 0.47388 0.27745 0.0
C2229 C 0.76715 0.47542 0.27781 0.0
C2230 C 0.76285 0.48438 0.27377 0.0
C2231 C 0.76462 0.5015 0.26483 0.0
C2232 C 0.76854 0.511 0.26824 0.0
C2233 C 0.75634 0.50135 0.25769 0.0
C2234 C 0.75199 0.49164 0.25344 0.0
C2235 C 0.75836 0.48436 0.24884 0.0
C2236 C 0.75417 0.47529 0.2448 0.0
C2237 C 0.74351 0.47338 0.24515 0.0
C2238 C 0.73715 0.48071 0.24969 0.0
C2239 C 0.74135 0.48972 0.25379 0.0
H2240 H 0.52594 0.25775 0.73722 0.0
H2241 H 0.54143 0.25035 0.72993 0.0
H2242 H 0.55053 0.23973 0.76009 0.0
H2243 H 0.53504 0.24722 0.76734 0.0
H2244 H 0.51012 0.24885 0.74678 0.0
H2245 H 0.53546 0.27451 0.75553 0.0
H2246 H 0.55133 0.28159 0.7629 0.0
H2247 H 0.54211 0.27062 0.79289 0.0
H2248 H 0.52622 0.26366 0.78548 0.0
H2249 H 0.49499 0.26453 0.78546 0.0
H2250 H 0.47946 0.27186 0.79275 0.0
H2251 H 0.46987 0.28162 0.76245 0.0
H2252 H 0.48561 0.27462 0.75527 0.0
H2253 H 0.51071 0.27323 0.77586 0.0
H2254 H 0.48536 0.24751 0.76705 0.0
H2255 H 0.46952 0.24039 0.75961 0.0
H2256 H 0.4788 0.25151 0.72969 0.0
H2257 H 0.49465 0.25848 0.73716 0.0
C2258 C 0.52935 0.25313 0.75285 0.0
C2259 C 0.53128 0.25383 0.74227 0.0
C2260 C 0.54013 0.24955 0.7381 0.0
C2261 C 0.54725 0.24442 0.74441 0.0
C2262 C 0.54531 0.24375 0.75502 0.0
C2263 C 0.53644 0.24803 0.75918 0.0
C2264 C 0.51977 0.25747 0.75718 0.0
C2265 C 0.51026 0.2543 0.75304 0.0
C2266 C 0.51992 0.26438 0.76553 0.0
C2267 C 0.52968 0.26849 0.76994 0.0
C2268 C 0.53691 0.27355 0.76368 0.0
C2269 C 0.54599 0.27759 0.7679 0.0
C2270 C 0.54801 0.27668 0.77849 0.0
C2271 C 0.54075 0.27159 0.78473 0.0
C2272 C 0.53167 0.26757 0.7805 0.0
C2273 C 0.49145 0.26892 0.7698 0.0
C2274 C 0.48955 0.26827 0.78039 0.0
C2275 C 0.48061 0.27239 0.78453 0.0
C2276 C 0.47336 0.2773 0.77819 0.0
C2277 C 0.47531 0.27798 0.76758 0.0
C2278 C 0.48427 0.27387 0.76345 0.0
C2279 C 0.50105 0.26461 0.76546 0.0
C2280 C 0.51057 0.26778 0.76959 0.0
C2281 C 0.50091 0.2577 0.7571 0.0
C2282 C 0.49116 0.25359 0.75267 0.0
C2283 C 0.48393 0.24848 0.7589 0.0
C2284 C 0.47487 0.24443 0.75463 0.0
C2285 C 0.47288 0.24536 0.74404 0.0
C2286 C 0.48014 0.25051 0.73784 0.0
C2287 C 0.48919 0.25454 0.74211 0.0
H2288 H 0.52477 0.73672 0.76619 0.0
H2289 H 0.54029 0.72899 0.77324 0.0
H2290 H 0.5516 0.75901 0.78201 0.0
H2291 H 0.53583 0.76664 0.77532 0.0
H2292 H 0.5099 0.74681 0.775 0.0
H2293 H 0.53467 0.75465 0.74877 0.0
H2294 H 0.55048 0.76156 0.74123 0.0
H2295 H 0.5423 0.79192 0.75119 0.0
H2296 H 0.52647 0.78496 0.75867 0.0
H2297 H 0.49483 0.78528 0.75832 0.0
H2298 H 0.47932 0.79245 0.75055 0.0
H2299 H 0.46955 0.76205 0.74137 0.0
H2300 H 0.48524 0.75499 0.74884 0.0
H2301 H 0.51042 0.77542 0.74977 0.0
H2302 H 0.48493 0.76731 0.77521 0.0
H2303 H 0.46889 0.76012 0.78197 0.0
H2304 H 0.47866 0.72976 0.77355 0.0
H2305 H 0.49446 0.73706 0.76639 0.0
C2306 C 0.52913 0.75229 0.77012 0.0
C2307 C 0.53057 0.74164 0.76966 0.0
C2308 C 0.53952 0.73724 0.77362 0.0
C2309 C 0.54726 0.74337 0.77816 0.0
C2310 C 0.54578 0.75403 0.77866 0.0
C2311 C 0.5368 0.75843 0.77472 0.0
C2312 C 0.51953 0.75688 0.76595 0.0
C2313 C 0.51001 0.75298 0.76938 0.0
C2314 C 0.51967 0.76512 0.75881 0.0
C2315 C 0.52941 0.76927 0.75438 0.0
C2316 C 0.53633 0.76278 0.74943 0.0
C2317 C 0.54539 0.76675 0.74513 0.0
C2318 C 0.54769 0.77731 0.74561 0.0
C2319 C 0.54072 0.78378 0.75056 0.0
C2320 C 0.53168 0.77981 0.75488 0.0
C2321 C 0.49118 0.76958 0.75426 0.0
C2322 C 0.48935 0.78016 0.75462 0.0
C2323 C 0.48043 0.78424 0.75025 0.0
C2324 C 0.47315 0.77783 0.74535 0.0
C2325 C 0.47502 0.76723 0.74499 0.0
C2326 C 0.48395 0.76316 0.74936 0.0
C2327 C 0.50079 0.7653 0.75877 0.0
C2328 C 0.5103 0.76927 0.75541 0.0
C2329 C 0.50064 0.75708 0.76594 0.0
C2330 C 0.49087 0.75275 0.77016 0.0
C2331 C 0.48356 0.75912 0.7747 0.0
C2332 C 0.47443 0.75497 0.77868 0.0
C2333 C 0.47244 0.74435 0.7783 0.0
C2334 C 0.47983 0.73799 0.77383 0.0
C2335 C 0.48894 0.74214 0.76982 0.0
H2336 H 0.52646 0.75737 0.23672 0.0
H2337 H 0.54202 0.75013 0.22939 0.0
H2338 H 0.55146 0.73993 0.25959 0.0
H2339 H 0.53592 0.74727 0.26687 0.0
H2340 H 0.51081 0.74834 0.24662 0.0
H2341 H 0.53616 0.7744 0.25474 0.0
H2342 H 0.55204 0.78159 0.262 0.0
H2343 H 0.54288 0.77096 0.29213 0.0
H2344 H 0.52698 0.76391 0.28483 0.0
H2345 H 0.49605 0.76522 0.28501 0.0
H2346 H 0.48047 0.7725 0.29226 0.0
H2347 H 0.47037 0.78124 0.26183 0.0
H2348 H 0.48603 0.77405 0.25462 0.0
H2349 H 0.51147 0.77346 0.27505 0.0
H2350 H 0.48568 0.74814 0.26712 0.0
H2351 H 0.4697 0.74106 0.25993 0.0
H2352 H 0.47975 0.74963 0.22948 0.0
H2353 H 0.49563 0.75684 0.23671 0.0
C2354 C 0.53004 0.75296 0.25236 0.0
C2355 C 0.53188 0.75357 0.24176 0.0
C2356 C 0.54077 0.74939 0.23757 0.0
C2357 C 0.54802 0.74443 0.24389 0.0
C2358 C 0.54615 0.74382 0.25451 0.0
C2359 C 0.53724 0.74801 0.25869 0.0
C2360 C 0.52047 0.75728 0.25672 0.0
C2361 C 0.51094 0.75395 0.25274 0.0
C2362 C 0.52064 0.76437 0.26491 0.0
C2363 C 0.53041 0.76855 0.26923 0.0
C2364 C 0.53762 0.77354 0.26289 0.0
C2365 C 0.54671 0.77764 0.26705 0.0
C2366 C 0.54874 0.77687 0.27765 0.0
C2367 C 0.5415 0.77184 0.28396 0.0
C2368 C 0.53242 0.76776 0.2798 0.0
C2369 C 0.4922 0.76897 0.26925 0.0
C2370 C 0.4905 0.76874 0.27989 0.0
C2371 C 0.4816 0.77293 0.28403 0.0
C2372 C 0.47416 0.77745 0.27762 0.0
C2373 C 0.47587 0.77769 0.26697 0.0
C2374 C 0.48483 0.77357 0.26283 0.0
C2375 C 0.50177 0.76456 0.26492 0.0
C2376 C 0.5113 0.76786 0.26892 0.0
C2377 C 0.50159 0.75741 0.25676 0.0
C2378 C 0.49183 0.75314 0.25247 0.0
C2379 C 0.48439 0.74861 0.25891 0.0
C2380 C 0.47527 0.74456 0.2548 0.0
C2381 C 0.47347 0.74479 0.24414 0.0
C2382 C 0.48096 0.74924 0.23771 0.0
C2383 C 0.49003 0.75338 0.24183 0.0
H2384 H 0.52418 0.23653 0.26625 0.0
H2385 H 0.53966 0.2288 0.27338 0.0
H2386 H 0.55105 0.25883 0.28196 0.0
H2387 H 0.53532 0.26647 0.2752 0.0
H2388 H 0.50931 0.24668 0.2749 0.0
H2389 H 0.53432 0.25422 0.24904 0.0
H2390 H 0.55034 0.26089 0.24178 0.0
H2391 H 0.54174 0.29158 0.25031 0.0
H2392 H 0.52595 0.28478 0.25798 0.0
H2393 H 0.49435 0.28518 0.25841 0.0
H2394 H 0.47865 0.29236 0.25104 0.0
H2395 H 0.46913 0.2621 0.24118 0.0
H2396 H 0.4848 0.25499 0.24862 0.0
H2397 H 0.50998 0.27524 0.24961 0.0
H2398 H 0.4848 0.26723 0.27561 0.0
H2399 H 0.46872 0.26011 0.28247 0.0
H2400 H 0.47764 0.2299 0.27272 0.0
H2401 H 0.49356 0.2371 0.26565 0.0
C2402 C 0.52859 0.2521 0.27008 0.0
C2403 C 0.52999 0.24145 0.2697 0.0
C2404 C 0.53891 0.23705 0.2737 0.0
C2405 C 0.54667 0.24318 0.27821 0.0
C2406 C 0.54522 0.25385 0.27864 0.0
C2407 C 0.53626 0.25825 0.27466 0.0
C2408 C 0.51901 0.2567 0.26585 0.0
C2409 C 0.50947 0.25285 0.26927 0.0
C2410 C 0.5192 0.26491 0.25866 0.0
C2411 C 0.52897 0.26897 0.2542 0.0
C2412 C 0.53594 0.26237 0.24947 0.0
C2413 C 0.54506 0.26622 0.24521 0.0
C2414 C 0.54737 0.27679 0.24545 0.0
C2415 C 0.54032 0.28339 0.25012 0.0
C2416 C 0.53122 0.27952 0.25443 0.0
C2417 C 0.49072 0.26952 0.25419 0.0
C2418 C 0.48888 0.2801 0.25466 0.0
C2419 C 0.47991 0.28419 0.2504 0.0
C2420 C 0.47258 0.27781 0.24553 0.0
C2421 C 0.47449 0.26723 0.24503 0.0
C2422 C 0.48347 0.26314 0.24927 0.0
C2423 C 0.50032 0.2652 0.25865 0.0
C2424 C 0.50985 0.26911 0.25527 0.0
C2425 C 0.50013 0.25699 0.26582 0.0
C2426 C 0.49035 0.25272 0.27002 0.0
C2427 C 0.48325 0.25908 0.27487 0.0
C2428 C 0.4741 0.25499 0.27887 0.0
C2429 C 0.47187 0.24443 0.27813 0.0
C2430 C 0.47904 0.23808 0.2733 0.0
C2431 C 0.48818 0.24217 0.26933 0.0
H2432 H 0.20263 0.18685 0.11851 0.0
H2433 H 0.20959 0.19569 0.1034 0.0
H2434 H 0.21582 0.22256 0.12164 0.0
H2435 H 0.2091 0.21369 0.13686 0.0
H2436 H 0.20357 0.21416 0.09388 0.0
H2437 H 0.24378 0.21642 0.1084 0.0
H2438 H 0.23415 0.20815 0.11415 0.0
H2439 H 0.2343 0.22165 0.11681 0.0
C2440 C 0.20554 0.19462 0.11934 0.0
C2441 C 0.20538 0.19953 0.12894 0.0
C2442 C 0.20945 0.19968 0.11067 0.0
C2443 C 0.21336 0.20973 0.11142 0.0
C2444 C 0.21299 0.21475 0.12092 0.0
H2445 H 0.22854 0.25025 0.05979 0.0
H2446 H 0.22094 0.24245 0.07516 0.0
C2447 C 0.20905 0.2097 0.12959 0.0
C2448 C 0.21787 0.21488 0.10225 0.0
H2449 H 0.24029 0.22488 0.09267 0.0
C2450 C 0.21159 0.21653 0.09361 0.0
C2451 C 0.22837 0.21784 0.10188 0.0
C2452 C 0.23559 0.21586 0.11076 0.0
C2453 C 0.21551 0.22112 0.08463 0.0
C2454 C 0.22597 0.22426 0.08432 0.0
C2455 C 0.23226 0.22254 0.09294 0.0
C2456 C 0.2306 0.22907 0.07503 0.0
C2457 C 0.20849 0.22235 0.07546 0.0
C2458 C 0.23873 0.22427 0.06998 0.0
C2459 C 0.24309 0.2287 0.06119 0.0
C2460 C 0.23946 0.23808 0.05728 0.0
C2461 C 0.2314 0.24294 0.06246 0.0
C2462 C 0.22705 0.23849 0.07126 0.0
H2463 H 0.20151 0.21739 0.07607 0.0
H2464 H 0.20598 0.23044 0.07495 0.0
H2465 H 0.21255 0.22048 0.06824 0.0
H2466 H 0.24161 0.217 0.07277 0.0
H2467 H 0.24919 0.22467 0.05735 0.0
H2468 H 0.79583 0.1935 0.13183 0.0
H2469 H 0.78983 0.20249 0.11647 0.0
H2470 H 0.8191 0.21818 0.11408 0.0
H2471 H 0.82535 0.20889 0.12919 0.0
H2472 H 0.78782 0.22316 0.11284 0.0
H2473 H 0.81548 0.20641 0.08546 0.0
H2474 H 0.81357 0.20128 0.09821 0.0
H2475 H 0.82136 0.2126 0.09631 0.0
C2476 C 0.80106 0.19875 0.12797 0.0
C2477 C 0.81112 0.20038 0.13171 0.0
C2478 C 0.79758 0.20395 0.11923 0.0
C2479 C 0.80406 0.21088 0.11403 0.0
C2480 C 0.81403 0.21271 0.11785 0.0
H2481 H 0.79442 0.24795 0.05883 0.0
H2482 H 0.80126 0.24057 0.07476 0.0
C2483 C 0.81755 0.20748 0.12657 0.0
C2484 C 0.8003 0.21626 0.10469 0.0
H2485 H 0.8047 0.21947 0.07902 0.0
C2486 C 0.7915 0.22234 0.10545 0.0
C2487 C 0.80514 0.21521 0.09504 0.0
C2488 C 0.81436 0.20845 0.09364 0.0
C2489 C 0.78742 0.22742 0.09684 0.0
C2490 C 0.79219 0.22628 0.08718 0.0
C2491 C 0.80107 0.22033 0.08644 0.0
C2492 C 0.78791 0.23096 0.0777 0.0
C2493 C 0.7781 0.23406 0.09815 0.0
C2494 C 0.77818 0.22794 0.07404 0.0
C2495 C 0.77424 0.23215 0.06496 0.0
C2496 C 0.77998 0.23945 0.05935 0.0
C2497 C 0.78975 0.24245 0.06304 0.0
C2498 C 0.79369 0.2382 0.07211 0.0
H2499 H 0.77701 0.23626 0.1063 0.0
H2500 H 0.77873 0.24114 0.09341 0.0
H2501 H 0.77115 0.22973 0.09562 0.0
H2502 H 0.77366 0.22225 0.07816 0.0
H2503 H 0.76667 0.22974 0.06238 0.0
H2504 H 0.81798 0.83322 0.11857 0.0
H2505 H 0.81132 0.8241 0.10351 0.0
H2506 H 0.80394 0.79787 0.12249 0.0
H2507 H 0.81038 0.80702 0.13764 0.0
H2508 H 0.81745 0.80492 0.09521 0.0
H2509 H 0.7766 0.80418 0.10758 0.0
H2510 H 0.78614 0.81253 0.11337 0.0
H2511 H 0.78565 0.79917 0.11674 0.0
C2512 C 0.81487 0.82553 0.11956 0.0
C2513 C 0.81465 0.82088 0.12934 0.0
C2514 C 0.81113 0.82031 0.11093 0.0
C2515 C 0.807 0.81037 0.1119 0.0
C2516 C 0.80695 0.80561 0.12159 0.0
H2517 H 0.77728 0.76935 0.0677 0.0
H2518 H 0.78492 0.77698 0.08313 0.0
C2519 C 0.81073 0.81081 0.13023 0.0
C2520 C 0.80276 0.80501 0.10274 0.0
H2521 H 0.78051 0.79534 0.09235 0.0
C2522 C 0.80937 0.80282 0.09458 0.0
C2523 C 0.79223 0.80225 0.10194 0.0
C2524 C 0.78469 0.80471 0.11032 0.0
C2525 C 0.80576 0.79788 0.08567 0.0
C2526 C 0.7952 0.79525 0.0848 0.0
C2527 C 0.7886 0.79735 0.09301 0.0
C2528 C 0.79078 0.79052 0.07536 0.0
C2529 C 0.81334 0.79537 0.07735 0.0
C2530 C 0.79143 0.79564 0.06587 0.0
C2531 C 0.78713 0.79126 0.05702 0.0
C2532 C 0.78201 0.7817 0.05747 0.0
C2533 C 0.7813 0.77664 0.06702 0.0
C2534 C 0.78561 0.78102 0.07587 0.0
H2535 H 0.82134 0.79511 0.08037 0.0
H2536 H 0.81145 0.78788 0.07373 0.0
H2537 H 0.81307 0.8014 0.07131 0.0
H2538 H 0.79519 0.80307 0.0653 0.0
H2539 H 0.78792 0.79535 0.0498 0.0
H2540 H 0.21144 0.80685 0.1377 0.0
H2541 H 0.21813 0.79825 0.1225 0.0
H2542 H 0.2092 0.82395 0.10365 0.0
H2543 H 0.20251 0.8326 0.11878 0.0
H2544 H 0.2087 0.79236 0.1042 0.0
H2545 H 0.23957 0.82115 0.09686 0.0
H2546 H 0.23251 0.82064 0.10875 0.0
H2547 H 0.22697 0.82656 0.09754 0.0
C2548 C 0.21082 0.81064 0.13031 0.0
C2549 C 0.20652 0.82046 0.12948 0.0
C2550 C 0.21468 0.80572 0.12163 0.0
C2551 C 0.21436 0.81054 0.11197 0.0
C2552 C 0.20978 0.8202 0.11107 0.0
H2553 H 0.2333 0.79568 0.05026 0.0
H2554 H 0.2261 0.80323 0.06574 0.0
C2555 C 0.20595 0.82513 0.11972 0.0
C2556 C 0.21881 0.80549 0.10283 0.0
H2557 H 0.23663 0.80873 0.08387 0.0
C2558 C 0.21485 0.79591 0.09979 0.0
C2559 C 0.22685 0.81011 0.09709 0.0
C2560 C 0.2318 0.82014 0.10026 0.0
C2561 C 0.21854 0.79095 0.091 0.0
C2562 C 0.22649 0.79564 0.0852 0.0
C2563 C 0.2305 0.80517 0.0883 0.0
C2564 C 0.23071 0.79086 0.07582 0.0
C2565 C 0.21371 0.78086 0.08786 0.0
C2566 C 0.23578 0.78143 0.07635 0.0
C2567 C 0.23998 0.77711 0.06751 0.0
C2568 C 0.23923 0.78218 0.05796 0.0
C2569 C 0.23414 0.79163 0.05749 0.0
C2570 C 0.22997 0.79594 0.06633 0.0
H2571 H 0.20617 0.77951 0.09163 0.0
H2572 H 0.2126 0.78055 0.0794 0.0
H2573 H 0.21889 0.77453 0.09012 0.0
H2574 H 0.23664 0.77747 0.08364 0.0
H2575 H 0.24399 0.76991 0.0682 0.0
H2576 H 0.20593 0.83332 0.90272 0.0
H2577 H 0.2124 0.82424 0.91789 0.0
H2578 H 0.21804 0.79756 0.89946 0.0
H2579 H 0.21174 0.80665 0.8842 0.0
H2580 H 0.20515 0.80489 0.92643 0.0
H2581 H 0.24599 0.80381 0.91402 0.0
H2582 H 0.23679 0.81244 0.90834 0.0
H2583 H 0.23663 0.79912 0.90493 0.0
C2584 C 0.20861 0.82555 0.90188 0.0
C2585 C 0.20838 0.82073 0.89224 0.0
C2586 C 0.21225 0.82035 0.91056 0.0
C2587 C 0.2158 0.81028 0.90976 0.0
C2588 C 0.21544 0.80538 0.9002 0.0
H2589 H 0.24449 0.76966 0.9547 0.0
H2590 H 0.23701 0.77707 0.93909 0.0
C2591 C 0.21176 0.81055 0.89151 0.0
C2592 C 0.21987 0.80493 0.91896 0.0
H2593 H 0.24185 0.79531 0.92952 0.0
C2594 C 0.21317 0.80278 0.92712 0.0
C2595 C 0.23032 0.80216 0.9198 0.0
C2596 C 0.2379 0.80455 0.91136 0.0
C2597 C 0.21664 0.79788 0.9361 0.0
C2598 C 0.22714 0.79528 0.93703 0.0
C2599 C 0.23381 0.79732 0.9288 0.0
C2600 C 0.23143 0.79067 0.94656 0.0
C2601 C 0.20898 0.79539 0.94445 0.0
C2602 C 0.23086 0.79591 0.95592 0.0
C2603 C 0.23505 0.79166 0.96486 0.0
C2604 C 0.23998 0.78212 0.96462 0.0
C2605 C 0.24061 0.77694 0.9552 0.0
C2606 C 0.2364 0.78119 0.94626 0.0
H2607 H 0.20099 0.79506 0.94139 0.0
H2608 H 0.21072 0.78795 0.94822 0.0
H2609 H 0.20933 0.80148 0.95036 0.0
H2610 H 0.22726 0.80333 0.9563 0.0
H2611 H 0.23434 0.79582 0.97199 0.0
H2612 H 0.2124 0.19432 0.89155 0.0
H2613 H 0.22079 0.20054 0.90724 0.0
H2614 H 0.19871 0.22484 0.90918 0.0
H2615 H 0.19004 0.21845 0.89381 0.0
H2616 H 0.22993 0.21918 0.91129 0.0
H2617 H 0.19727 0.21263 0.93776 0.0
H2618 H 0.19758 0.20723 0.92504 0.0
H2619 H 0.1939 0.22035 0.92684 0.0
C2620 C 0.20923 0.2009 0.89539 0.0
C2621 C 0.2005 0.20585 0.89139 0.0
C2622 C 0.21409 0.20449 0.90433 0.0
C2623 C 0.21029 0.21306 0.9095 0.0
C2624 C 0.20167 0.21809 0.90546 0.0
H2625 H 0.22823 0.25042 0.96138 0.0
H2626 H 0.22045 0.24293 0.94598 0.0
C2627 C 0.1968 0.21449 0.89657 0.0
C2628 C 0.21545 0.21692 0.91897 0.0
H2629 H 0.21113 0.223 0.94407 0.0
C2630 C 0.22585 0.21992 0.91849 0.0
C2631 C 0.21013 0.21788 0.92837 0.0
C2632 C 0.19914 0.21426 0.92959 0.0
C2633 C 0.23097 0.22415 0.92704 0.0
C2634 C 0.22558 0.22529 0.93637 0.0
C2635 C 0.21523 0.22217 0.9369 0.0
C2636 C 0.23049 0.22984 0.94564 0.0
C2637 C 0.24203 0.22761 0.92597 0.0
C2638 C 0.23867 0.22493 0.95063 0.0
C2639 C 0.24309 0.22914 0.9595 0.0
C2640 C 0.2394 0.23835 0.9636 0.0
C2641 C 0.23119 0.24325 0.95855 0.0
C2642 C 0.22676 0.23901 0.9497 0.0
H2643 H 0.24436 0.22827 0.9178 0.0
H2644 H 0.24331 0.23514 0.92974 0.0
H2645 H 0.24709 0.22195 0.92979 0.0
H2646 H 0.24154 0.21774 0.94774 0.0
H2647 H 0.24926 0.22505 0.96327 0.0
H2648 H 0.81376 0.22277 0.88594 0.0
H2649 H 0.80544 0.22881 0.90156 0.0
H2650 H 0.81388 0.20095 0.91727 0.0
H2651 H 0.82241 0.19493 0.90174 0.0
H2652 H 0.78924 0.21939 0.91321 0.0
H2653 H 0.82523 0.22399 0.93602 0.0
H2654 H 0.82523 0.2227 0.92223 0.0
H2655 H 0.82331 0.21162 0.93027 0.0
C2656 C 0.81391 0.21795 0.89274 0.0
C2657 C 0.81882 0.20839 0.8926 0.0
C2658 C 0.80909 0.22139 0.90164 0.0
C2659 C 0.80916 0.21539 0.91062 0.0
C2660 C 0.81387 0.20576 0.91047 0.0
H2661 H 0.7871 0.22564 0.97269 0.0
H2662 H 0.79443 0.21851 0.95705 0.0
C2663 C 0.81865 0.20229 0.90155 0.0
C2664 C 0.80431 0.21924 0.92012 0.0
H2665 H 0.8096 0.22668 0.94472 0.0
C2666 C 0.79368 0.221 0.9201 0.0
C2667 C 0.81012 0.22132 0.9291 0.0
C2668 C 0.82162 0.2199 0.92944 0.0
C2669 C 0.78868 0.22467 0.92887 0.0
C2670 C 0.79451 0.22684 0.93783 0.0
C2671 C 0.80513 0.22502 0.93785 0.0
C2672 C 0.78977 0.23108 0.94724 0.0
C2673 C 0.77717 0.22598 0.92852 0.0
C2674 C 0.78478 0.24057 0.94696 0.0
C2675 C 0.78051 0.24463 0.95587 0.0
C2676 C 0.7812 0.23933 0.96529 0.0
C2677 C 0.78627 0.22986 0.96555 0.0
C2678 C 0.79054 0.2258 0.95663 0.0
H2679 H 0.77356 0.22134 0.92232 0.0
H2680 H 0.77361 0.22376 0.93595 0.0
H2681 H 0.77543 0.23416 0.92698 0.0
H2682 H 0.78428 0.24489 0.93985 0.0
H2683 H 0.77659 0.2519 0.95536 0.0
H2684 H 0.82789 0.82173 0.89978 0.0
H2685 H 0.82193 0.81288 0.91534 0.0
H2686 H 0.79381 0.80419 0.89983 0.0
H2687 H 0.7998 0.81279 0.8842 0.0
H2688 H 0.80428 0.8171 0.9266 0.0
H2689 H 0.80337 0.77706 0.91251 0.0
H2690 H 0.81018 0.78725 0.90591 0.0
H2691 H 0.79648 0.78588 0.90447 0.0
C2692 C 0.82051 0.81779 0.89962 0.0
C2693 C 0.81433 0.81796 0.89072 0.0
C2694 C 0.81709 0.81279 0.90854 0.0
C2695 C 0.80748 0.80777 0.90872 0.0
C2696 C 0.80133 0.80786 0.89983 0.0
H2697 H 0.76972 0.79165 0.96116 0.0
H2698 H 0.77732 0.7992 0.9457 0.0
C2699 C 0.80472 0.81288 0.89093 0.0
C2700 C 0.80366 0.80286 0.91833 0.0
H2701 H 0.79505 0.78012 0.92846 0.0
C2702 C 0.80231 0.809 0.92703 0.0
C2703 C 0.80121 0.79227 0.91892 0.0
C2704 C 0.80297 0.78519 0.90999 0.0
C2705 C 0.79835 0.8049 0.93621 0.0
C2706 C 0.79551 0.79439 0.93667 0.0
C2707 C 0.79711 0.78819 0.92806 0.0
C2708 C 0.79085 0.78972 0.94602 0.0
C2709 C 0.79731 0.81183 0.94537 0.0
C2710 C 0.7958 0.7817 0.95121 0.0
C2711 C 0.79148 0.77737 0.96008 0.0
C2712 C 0.78208 0.78093 0.96392 0.0
C2713 C 0.77706 0.78885 0.95857 0.0
C2714 C 0.78139 0.79318 0.94971 0.0
H2715 H 0.80224 0.81881 0.94465 0.0
H2716 H 0.7892 0.81432 0.94597 0.0
H2717 H 0.79938 0.80776 0.95259 0.0
H2718 H 0.80309 0.77888 0.94848 0.0
H2719 H 0.79562 0.77136 0.96404 0.0
H2720 H 0.12875 0.19629 0.21328 0.0
H2721 H 0.1131 0.20238 0.22152 0.0
H2722 H 0.11077 0.22652 0.19891 0.0
H2723 H 0.12608 0.22023 0.19037 0.0
H2724 H 0.10902 0.22091 0.23025 0.0
H2725 H 0.0822 0.21405 0.19776 0.0
H2726 H 0.09498 0.20881 0.19815 0.0
H2727 H 0.09305 0.22191 0.19423 0.0
C2728 C 0.12483 0.2028 0.20996 0.0
C2729 C 0.12869 0.20773 0.20111 0.0
C2730 C 0.11591 0.20632 0.21473 0.0
C2731 C 0.11064 0.2148 0.21074 0.0
C2732 C 0.11456 0.21982 0.20201 0.0
H2733 H 0.05897 0.25188 0.22803 0.0
H2734 H 0.0743 0.24445 0.2204 0.0
C2735 C 0.12343 0.21629 0.19722 0.0
C2736 C 0.10119 0.21858 0.21582 0.0
H2737 H 0.076 0.22443 0.21138 0.0
C2738 C 0.10177 0.22159 0.22615 0.0
C2739 C 0.09172 0.21944 0.21049 0.0
C2740 C 0.0904 0.21579 0.19958 0.0
C2741 C 0.09324 0.22573 0.23118 0.0
C2742 C 0.08385 0.2268 0.22577 0.0
C2743 C 0.08323 0.22366 0.21549 0.0
C2744 C 0.07461 0.23129 0.23057 0.0
C2745 C 0.0944 0.2292 0.24216 0.0
C2746 C 0.06964 0.22631 0.23877 0.0
C2747 C 0.06079 0.23049 0.2431 0.0
C2748 C 0.05672 0.23973 0.23929 0.0
C2749 C 0.06177 0.24469 0.23107 0.0
C2750 C 0.07058 0.24049 0.22673 0.0
H2751 H 0.1026 0.22985 0.24453 0.0
H2752 H 0.09069 0.23673 0.24328 0.0
H2753 H 0.09055 0.22354 0.2473 0.0
H2754 H 0.07251 0.21911 0.24173 0.0
H2755 H 0.05703 0.22636 0.24929 0.0
H2756 H 0.80555 0.13642 0.20882 0.0
H2757 H 0.7965 0.12117 0.21534 0.0
H2758 H 0.82512 0.10486 0.21656 0.0
H2759 H 0.83422 0.12003 0.21001 0.0
H2760 H 0.79503 0.10133 0.20745 0.0
H2761 H 0.81393 0.10141 0.24573 0.0
H2762 H 0.81455 0.11227 0.23709 0.0
H2763 H 0.82278 0.10147 0.23519 0.0
C2764 C 0.80991 0.12956 0.21039 0.0
C2765 C 0.82063 0.12947 0.20896 0.0
C2766 C 0.80473 0.12087 0.21416 0.0
C2767 C 0.81017 0.11195 0.21661 0.0
C2768 C 0.82082 0.11175 0.21496 0.0
H2769 H 0.78681 0.05019 0.22651 0.0
H2770 H 0.79453 0.06597 0.21967 0.0
C2771 C 0.826 0.12043 0.21121 0.0
C2772 C 0.8047 0.10282 0.22084 0.0
H2773 H 0.80389 0.08665 0.24155 0.0
C2774 C 0.79693 0.09814 0.21492 0.0
C2775 C 0.80709 0.09876 0.23065 0.0
C2776 C 0.81497 0.10378 0.23759 0.0
C2777 C 0.79165 0.08935 0.21845 0.0
C2778 C 0.79432 0.08507 0.2281 0.0
C2779 C 0.80192 0.08989 0.23411 0.0
C2780 C 0.78937 0.07555 0.23209 0.0
C2781 C 0.78318 0.0848 0.21188 0.0
C2782 C 0.78405 0.07565 0.24144 0.0
C2783 C 0.77963 0.06663 0.24538 0.0
C2784 C 0.78049 0.05732 0.24007 0.0
C2785 C 0.78584 0.05726 0.2307 0.0
C2786 C 0.79026 0.06628 0.22678 0.0
H2787 H 0.78024 0.09044 0.20619 0.0
H2788 H 0.78622 0.07817 0.2076 0.0
H2789 H 0.77667 0.08203 0.21668 0.0
H2790 H 0.7833 0.08272 0.24568 0.0
H2791 H 0.77548 0.06698 0.25255 0.0
H2792 H 0.88348 0.79993 0.20859 0.0
H2793 H 0.89889 0.79364 0.21731 0.0
H2794 H 0.91567 0.82072 0.2077 0.0
H2795 H 0.90028 0.82707 0.19897 0.0
H2796 H 0.91752 0.78909 0.20891 0.0
H2797 H 0.92254 0.81956 0.23811 0.0
H2798 H 0.91082 0.81797 0.23077 0.0
H2799 H 0.9218 0.82433 0.22518 0.0
C2800 C 0.89045 0.80456 0.20834 0.0
C2801 C 0.89063 0.81402 0.20309 0.0
C2802 C 0.89924 0.80097 0.21337 0.0
C2803 C 0.90842 0.80676 0.21329 0.0
C2804 C 0.90863 0.81622 0.20809 0.0
H2805 H 0.97074 0.79563 0.23497 0.0
H2806 H 0.95513 0.80263 0.22721 0.0
C2807 C 0.89982 0.81984 0.20309 0.0
C2808 C 0.91786 0.80265 0.21826 0.0
H2809 H 0.93625 0.8078 0.23644 0.0
C2810 C 0.92157 0.79316 0.21497 0.0
C2811 C 0.92318 0.80797 0.22615 0.0
C2812 C 0.91934 0.81798 0.23034 0.0
C2813 C 0.93053 0.78892 0.21922 0.0
C2814 C 0.93585 0.79424 0.2271 0.0
C2815 C 0.93216 0.80374 0.23039 0.0
C2816 C 0.94526 0.79005 0.23203 0.0
C2817 C 0.93435 0.77889 0.21508 0.0
C2818 C 0.94488 0.78073 0.23747 0.0
C2819 C 0.95378 0.77673 0.24196 0.0
C2820 C 0.96327 0.78199 0.24116 0.0
C2821 C 0.96357 0.79142 0.23584 0.0
C2822 C 0.95466 0.79541 0.23135 0.0
H2823 H 0.93097 0.77713 0.20742 0.0
H2824 H 0.94286 0.77899 0.21442 0.0
H2825 H 0.93213 0.77259 0.22042 0.0
H2826 H 0.93767 0.77657 0.23829 0.0
H2827 H 0.95321 0.76956 0.24617 0.0
H2828 H 0.19208 0.90089 0.19995 0.0
H2829 H 0.20063 0.91645 0.20637 0.0
H2830 H 0.2215 0.89797 0.22418 0.0
H2831 H 0.21307 0.88237 0.21772 0.0
H2832 H 0.20287 0.92181 0.22802 0.0
H2833 H 0.24037 0.9186 0.20803 0.0
H2834 H 0.22891 0.91186 0.20377 0.0
H2835 H 0.23593 0.90732 0.21476 0.0
C2836 C 0.19858 0.90013 0.20512 0.0
C2837 C 0.20191 0.89039 0.20831 0.0
C2838 C 0.20342 0.90903 0.20882 0.0
C2839 C 0.21175 0.90836 0.21567 0.0
C2840 C 0.21516 0.89866 0.2188 0.0
H2841 H 0.25031 0.95356 0.24703 0.0
H2842 H 0.24262 0.93783 0.24 0.0
C2843 C 0.21028 0.88976 0.21517 0.0
C2844 C 0.21659 0.91781 0.21987 0.0
H2845 H 0.23892 0.93187 0.22021 0.0
C2846 C 0.21074 0.92405 0.22629 0.0
C2847 C 0.22687 0.92064 0.21767 0.0
C2848 C 0.2334 0.91432 0.21062 0.0
C2849 C 0.21494 0.93299 0.23068 0.0
C2850 C 0.2252 0.93592 0.22837 0.0
C2851 C 0.23106 0.92964 0.22197 0.0
C2852 C 0.22996 0.9455 0.23247 0.0
C2853 C 0.20842 0.93905 0.23796 0.0
C2854 C 0.22552 0.95506 0.23041 0.0
C2855 C 0.22987 0.96404 0.23445 0.0
C2856 C 0.23885 0.96367 0.24051 0.0
C2857 C 0.24343 0.95411 0.24234 0.0
C2858 C 0.23902 0.94512 0.23836 0.0
H2859 H 0.20208 0.93429 0.24124 0.0
H2860 H 0.21311 0.94221 0.24438 0.0
H2861 H 0.2049 0.94555 0.23374 0.0
H2862 H 0.2187 0.95559 0.22565 0.0
H2863 H 0.22627 0.97129 0.23272 0.0
H2864 H 0.13837 0.80898 0.80785 0.0
H2865 H 0.1231 0.80275 0.79858 0.0
H2866 H 0.10442 0.80883 0.82506 0.0
H2867 H 0.1196 0.81522 0.83431 0.0
H2868 H 0.10973 0.78618 0.80487 0.0
H2869 H 0.08902 0.82299 0.80101 0.0
H2870 H 0.1026 0.82239 0.80389 0.0
H2871 H 0.09331 0.81999 0.81381 0.0
C2872 C 0.13099 0.80911 0.81164 0.0
C2873 C 0.13019 0.81261 0.82181 0.0
C2874 C 0.12229 0.8055 0.80636 0.0
C2875 C 0.11262 0.80544 0.8111 0.0
C2876 C 0.11179 0.80895 0.82121 0.0
H2877 H 0.05079 0.78575 0.79631 0.0
H2878 H 0.06658 0.79268 0.80395 0.0
C2879 C 0.12048 0.81251 0.82652 0.0
C2880 C 0.10345 0.80134 0.80561 0.0
H2881 H 0.07963 0.80785 0.79677 0.0
C2882 C 0.10317 0.79092 0.80301 0.0
C2883 C 0.09492 0.80755 0.80324 0.0
C2884 C 0.09496 0.81887 0.80554 0.0
C2885 C 0.09445 0.78645 0.79836 0.0
C2886 C 0.08587 0.79265 0.79606 0.0
C2887 C 0.08621 0.80311 0.79855 0.0
C2888 C 0.07634 0.78838 0.79132 0.0
C2889 C 0.09437 0.77508 0.79628 0.0
C2890 C 0.07655 0.78374 0.78162 0.0
C2891 C 0.06754 0.77965 0.77727 0.0
C2892 C 0.05812 0.7802 0.78251 0.0
C2893 C 0.05793 0.78501 0.79215 0.0
C2894 C 0.06694 0.78906 0.79649 0.0
H2895 H 0.10035 0.77105 0.80085 0.0
H2896 H 0.08675 0.77159 0.79806 0.0
H2897 H 0.09598 0.77379 0.78803 0.0
H2898 H 0.08368 0.7833 0.7774 0.0
H2899 H 0.06799 0.77595 0.76987 0.0
H2900 H 0.21018 0.13499 0.80704 0.0
H2901 H 0.21669 0.11997 0.79805 0.0
H2902 H 0.20779 0.10069 0.82357 0.0
H2903 H 0.20106 0.11561 0.8325 0.0
H2904 H 0.23229 0.10666 0.80496 0.0
H2905 H 0.19551 0.08556 0.79869 0.0
H2906 H 0.19603 0.09899 0.80199 0.0
H2907 H 0.19775 0.08936 0.81175 0.0
C2908 C 0.20945 0.12753 0.81067 0.0
C2909 C 0.20507 0.12651 0.82049 0.0
C2910 C 0.21324 0.11896 0.80555 0.0
C2911 C 0.21263 0.10918 0.81008 0.0
C2912 C 0.2082 0.10812 0.81985 0.0
H2913 H 0.233 0.04804 0.79553 0.0
H2914 H 0.22571 0.06342 0.80312 0.0
C2915 C 0.20445 0.11669 0.82499 0.0
C2916 C 0.217 0.10015 0.80482 0.0
H2917 H 0.21085 0.07643 0.79542 0.0
C2918 C 0.22759 0.10008 0.8028 0.0
C2919 C 0.21087 0.09156 0.80203 0.0
C2920 C 0.19939 0.09136 0.80363 0.0
C2921 C 0.23228 0.09155 0.79832 0.0
C2922 C 0.22616 0.08292 0.79559 0.0
C2923 C 0.21554 0.08304 0.79752 0.0
C2924 C 0.23064 0.07362 0.7909 0.0
C2925 C 0.24378 0.09172 0.79686 0.0
C2926 C 0.23576 0.07419 0.78143 0.0
C2927 C 0.24002 0.06541 0.77711 0.0
C2928 C 0.23921 0.05585 0.78213 0.0
C2929 C 0.23394 0.05529 0.79153 0.0
C2930 C 0.22969 0.06407 0.79585 0.0
H2931 H 0.24761 0.09763 0.80171 0.0
H2932 H 0.24713 0.08414 0.79872 0.0
H2933 H 0.24552 0.09355 0.78871 0.0
H2934 H 0.23642 0.08143 0.77737 0.0
H2935 H 0.24407 0.06616 0.7699 0.0
H2936 H 0.88309 0.20718 0.80043 0.0
H2937 H 0.89881 0.21572 0.79435 0.0
H2938 H 0.91436 0.20739 0.82244 0.0
H2939 H 0.89874 0.19865 0.8285 0.0
H2940 H 0.91055 0.23199 0.80369 0.0
H2941 H 0.93314 0.19636 0.79951 0.0
H2942 H 0.91931 0.19622 0.80073 0.0
H2943 H 0.92731 0.19813 0.81185 0.0
C2944 C 0.88988 0.2071 0.80529 0.0
C2945 C 0.88967 0.20216 0.81493 0.0
C2946 C 0.89883 0.21204 0.80183 0.0
C2947 C 0.90779 0.21207 0.80788 0.0
C2948 C 0.90757 0.20733 0.81758 0.0
H2949 H 0.97019 0.23452 0.79743 0.0
H2950 H 0.95444 0.2271 0.80464 0.0
C2951 C 0.8986 0.20243 0.82108 0.0
C2952 C 0.91735 0.21703 0.804 0.0
H2953 H 0.94196 0.21205 0.79664 0.0
C2954 C 0.91742 0.22764 0.80213 0.0
C2955 C 0.9263 0.21134 0.80199 0.0
C2956 C 0.92655 0.19987 0.80353 0.0
C2957 C 0.92625 0.23274 0.79843 0.0
C2958 C 0.93519 0.22703 0.79633 0.0
C2959 C 0.93512 0.21642 0.79825 0.0
C2960 C 0.94466 0.23187 0.79205 0.0
C2961 C 0.926 0.24422 0.79701 0.0
C2962 C 0.94444 0.23696 0.78252 0.0
C2963 C 0.95342 0.2413 0.77841 0.0
C2964 C 0.96286 0.24057 0.7837 0.0
C2965 C 0.96305 0.2354 0.79322 0.0
C2966 C 0.95406 0.23108 0.79732 0.0
H2967 H 0.91983 0.24773 0.80165 0.0
H2968 H 0.93347 0.24782 0.79919 0.0
H2969 H 0.92445 0.24603 0.78882 0.0
H2970 H 0.93732 0.23749 0.7782 0.0
H2971 H 0.95295 0.24529 0.77111 0.0
H2972 H 0.83083 0.89455 0.80055 0.0
H2973 H 0.82201 0.90984 0.79439 0.0
H2974 H 0.79965 0.90643 0.81851 0.0
H2975 H 0.80829 0.89095 0.82463 0.0
H2976 H 0.80087 0.9113 0.78788 0.0
H2977 H 0.81 0.93661 0.82101 0.0
H2978 H 0.81697 0.92499 0.81853 0.0
H2979 H 0.80437 0.92431 0.82407 0.0
C2980 C 0.82398 0.89697 0.80451 0.0
C2981 C 0.82027 0.89146 0.81309 0.0
C2982 C 0.81899 0.90576 0.80101 0.0
C2983 C 0.81024 0.90933 0.80604 0.0
C2984 C 0.8065 0.9039 0.81461 0.0
H2985 H 0.77219 0.96309 0.7949 0.0
H2986 H 0.77957 0.94727 0.80172 0.0
C2987 C 0.81147 0.89506 0.81811 0.0
C2988 C 0.80492 0.9186 0.80213 0.0
H2989 H 0.79923 0.94337 0.80806 0.0
C2990 C 0.80051 0.91832 0.79228 0.0
C2991 C 0.8044 0.92772 0.80792 0.0
C2992 C 0.80924 0.92852 0.81845 0.0
C2993 C 0.79555 0.92689 0.78807 0.0
C2994 C 0.79521 0.9361 0.79376 0.0
C2995 C 0.79951 0.93633 0.80368 0.0
C2996 C 0.79062 0.94562 0.7895 0.0
C2997 C 0.79055 0.92594 0.77763 0.0
C2998 C 0.79443 0.95004 0.7804 0.0
C2999 C 0.79015 0.95902 0.77642 0.0
C3000 C 0.78203 0.96388 0.7815 0.0
C3001 C 0.77831 0.95949 0.79068 0.0
C3002 C 0.78258 0.95048 0.79464 0.0
H3003 H 0.78878 0.91781 0.77572 0.0
H3004 H 0.78333 0.93038 0.77719 0.0
H3005 H 0.79591 0.92898 0.77171 0.0
H3006 H 0.80077 0.94657 0.7764 0.0
H3007 H 0.79317 0.96211 0.76929 0.0
H3008 H 0.21141 0.12954 0.19733 0.0
H3009 H 0.21975 0.11389 0.20342 0.0
H3010 H 0.19733 0.11093 0.22757 0.0
H3011 H 0.18871 0.12626 0.22129 0.0
H3012 H 0.22864 0.10966 0.22209 0.0
H3013 H 0.19621 0.08263 0.21506 0.0
H3014 H 0.19652 0.09546 0.20978 0.0
H3015 H 0.19268 0.09329 0.22288 0.0
C3016 C 0.20815 0.12548 0.20384 0.0
C3017 C 0.19935 0.12918 0.20879 0.0
C3018 C 0.21298 0.11657 0.20736 0.0
C3019 C 0.20908 0.11113 0.21586 0.0
C3020 C 0.20037 0.11486 0.22087 0.0
H3021 H 0.22677 0.0589 0.2528 0.0
H3022 H 0.21899 0.07425 0.24541 0.0
C3023 C 0.19552 0.12373 0.21735 0.0
C3024 C 0.21423 0.10171 0.21966 0.0
H3025 H 0.20997 0.07642 0.22546 0.0
C3026 C 0.22459 0.10237 0.22274 0.0
C3027 C 0.20895 0.09218 0.22049 0.0
C3028 C 0.19801 0.0908 0.21678 0.0
C3029 C 0.2297 0.09385 0.22691 0.0
C3030 C 0.22435 0.08439 0.22793 0.0
C3031 C 0.21404 0.0837 0.22473 0.0
C3032 C 0.22925 0.07515 0.23241 0.0
C3033 C 0.2407 0.0951 0.23047 0.0
C3034 C 0.23756 0.07049 0.22751 0.0
C3035 C 0.24198 0.06165 0.23167 0.0
C3036 C 0.23817 0.05725 0.24081 0.0
C3037 C 0.22983 0.06197 0.24569 0.0
C3038 C 0.2254 0.07079 0.24151 0.0
H3039 H 0.24297 0.1033 0.23126 0.0
H3040 H 0.24191 0.09118 0.23796 0.0
H3041 H 0.24587 0.09157 0.22477 0.0
H3042 H 0.24052 0.07362 0.22038 0.0
H3043 H 0.24826 0.05815 0.22761 0.0
H3044 H 0.21078 0.8918 0.82584 0.0
H3045 H 0.21974 0.90706 0.8192 0.0
H3046 H 0.19938 0.90755 0.79299 0.0
H3047 H 0.19056 0.89216 0.79936 0.0
H3048 H 0.22936 0.90973 0.79867 0.0
H3049 H 0.19763 0.93681 0.80626 0.0
H3050 H 0.19857 0.92451 0.81262 0.0
H3051 H 0.19406 0.92526 0.79959 0.0
C3052 C 0.20826 0.89507 0.8186 0.0
C3053 C 0.19989 0.89076 0.81317 0.0
C3054 C 0.21336 0.90383 0.81486 0.0
C3055 C 0.21013 0.90848 0.80568 0.0
C3056 C 0.20188 0.90416 0.80018 0.0
H3057 H 0.22669 0.96234 0.77033 0.0
H3058 H 0.21895 0.94668 0.77737 0.0
C3059 C 0.19682 0.89538 0.80387 0.0
C3060 C 0.21541 0.91783 0.80178 0.0
H3061 H 0.21172 0.94321 0.79664 0.0
C3062 C 0.22555 0.91708 0.79827 0.0
C3063 C 0.21038 0.92736 0.80125 0.0
C3064 C 0.19958 0.92862 0.8052 0.0
C3065 C 0.23073 0.92559 0.79399 0.0
C3066 C 0.22568 0.93514 0.79343 0.0
C3067 C 0.21557 0.93589 0.79705 0.0
C3068 C 0.23068 0.94445 0.78899 0.0
C3069 C 0.24142 0.92418 0.7898 0.0
C3070 C 0.23983 0.94844 0.7932 0.0
C3071 C 0.24436 0.95734 0.7891 0.0
C3072 C 0.23976 0.96249 0.78076 0.0
C3073 C 0.23055 0.95849 0.77662 0.0
C3074 C 0.22606 0.94958 0.78069 0.0
H3075 H 0.24301 0.91599 0.78824 0.0
H3076 H 0.24254 0.92866 0.78261 0.0
H3077 H 0.24713 0.92693 0.79555 0.0
H3078 H 0.24342 0.94475 0.79974 0.0
H3079 H 0.25149 0.96014 0.79244 0.0
H3080 H 0.13636 0.21263 0.81119 0.0
H3081 H 0.1213 0.222 0.80505 0.0
H3082 H 0.10197 0.19574 0.8117 0.0
H3083 H 0.11693 0.1864 0.81806 0.0
H3084 H 0.10801 0.21657 0.78884 0.0
H3085 H 0.08682 0.21936 0.82555 0.0
H3086 H 0.10027 0.21615 0.825 0.0
H3087 H 0.09058 0.20656 0.82237 0.0
C3088 C 0.12888 0.2089 0.81149 0.0
C3089 C 0.12786 0.19876 0.81514 0.0
C3090 C 0.12029 0.21425 0.80792 0.0
C3091 C 0.11049 0.20962 0.80802 0.0
C3092 C 0.10943 0.19953 0.8117 0.0
H3093 H 0.05597 0.22549 0.77308 0.0
H3094 H 0.07152 0.21769 0.78007 0.0
C3095 C 0.11801 0.19416 0.81523 0.0
C3096 C 0.10142 0.21518 0.80392 0.0
H3097 H 0.0776 0.22379 0.81035 0.0
C3098 C 0.10138 0.2182 0.79355 0.0
C3099 C 0.09282 0.21741 0.8101 0.0
C3100 C 0.09262 0.2148 0.8214 0.0
C3101 C 0.09288 0.22315 0.78914 0.0
C3102 C 0.08412 0.22503 0.79523 0.0
C3103 C 0.08427 0.22225 0.80566 0.0
C3104 C 0.07473 0.22984 0.79091 0.0
C3105 C 0.09338 0.22642 0.77802 0.0
C3106 C 0.07122 0.23918 0.7948 0.0
C3107 C 0.06233 0.24368 0.7908 0.0
C3108 C 0.0567 0.23891 0.78285 0.0
C3109 C 0.0602 0.2295 0.77904 0.0
C3110 C 0.0691 0.22501 0.78304 0.0
H3111 H 0.10144 0.22688 0.77524 0.0
H3112 H 0.08917 0.22071 0.77326 0.0
H3113 H 0.08973 0.234 0.77685 0.0
H3114 H 0.07543 0.24303 0.80089 0.0
H3115 H 0.05995 0.25098 0.79385 0.0
H3116 H 0.82025 0.13292 0.80849 0.0
H3117 H 0.81402 0.11749 0.79967 0.0
H3118 H 0.79491 0.1099 0.82562 0.0
H3119 H 0.8012 0.12515 0.83457 0.0
H3120 H 0.81487 0.09647 0.80625 0.0
H3121 H 0.77473 0.10958 0.80098 0.0
H3122 H 0.7852 0.11825 0.80411 0.0
H3123 H 0.77947 0.11035 0.81394 0.0
C3124 C 0.81479 0.12793 0.81237 0.0
C3125 C 0.81118 0.13035 0.82223 0.0
C3126 C 0.81119 0.11914 0.80728 0.0
C3127 C 0.80387 0.11265 0.81192 0.0
C3128 C 0.80039 0.11493 0.82181 0.0
H3129 H 0.77127 0.05656 0.79663 0.0
H3130 H 0.7782 0.07219 0.80447 0.0
C3131 C 0.80399 0.12368 0.82691 0.0
C3132 C 0.79994 0.1034 0.8065 0.0
H3133 H 0.77798 0.09215 0.79716 0.0
C3134 C 0.80682 0.09554 0.80419 0.0
C3135 C 0.78944 0.10221 0.80383 0.0
C3136 C 0.78178 0.11057 0.80575 0.0
C3137 C 0.80342 0.08639 0.79955 0.0
C3138 C 0.79289 0.08516 0.79696 0.0
C3139 C 0.78604 0.09308 0.79917 0.0
C3140 C 0.78876 0.07566 0.79212 0.0
C3141 C 0.81108 0.07799 0.79776 0.0
C3142 C 0.79229 0.07247 0.78249 0.0
C3143 C 0.78832 0.06354 0.77797 0.0
C3144 C 0.78067 0.05766 0.78294 0.0
C3145 C 0.77707 0.06095 0.79253 0.0
C3146 C 0.78106 0.06986 0.79705 0.0
H3147 H 0.81813 0.07905 0.8025 0.0
H3148 H 0.80766 0.07034 0.79952 0.0
H3149 H 0.81338 0.07808 0.78957 0.0
H3150 H 0.79805 0.07695 0.77842 0.0
H3151 H 0.79114 0.06133 0.7705 0.0
H3152 H 0.9026 0.82153 0.82939 0.0
H3153 H 0.91808 0.81519 0.82101 0.0
H3154 H 0.89925 0.79896 0.79898 0.0
H3155 H 0.88373 0.80538 0.80722 0.0
H3156 H 0.92304 0.79386 0.81815 0.0
H3157 H 0.92045 0.81521 0.78119 0.0
H3158 H 0.91358 0.81903 0.79254 0.0
H3159 H 0.90898 0.80841 0.78503 0.0
C3160 C 0.90175 0.81674 0.82267 0.0
C3161 C 0.89192 0.81398 0.81896 0.0
C3162 C 0.9106 0.81308 0.81793 0.0
C3163 C 0.90982 0.80669 0.80932 0.0
C3164 C 0.90004 0.80399 0.80553 0.0
H3165 H 0.95415 0.77563 0.77085 0.0
H3166 H 0.93866 0.78279 0.7785 0.0
C3167 C 0.89117 0.80759 0.81031 0.0
C3168 C 0.91923 0.8025 0.80456 0.0
H3169 H 0.93332 0.80259 0.78249 0.0
C3170 C 0.92533 0.79579 0.81037 0.0
C3171 C 0.92214 0.80499 0.79439 0.0
C3172 C 0.91601 0.81236 0.78792 0.0
C3173 C 0.93418 0.79137 0.80623 0.0
C3174 C 0.93717 0.79393 0.79608 0.0
C3175 C 0.93105 0.80063 0.79027 0.0
C3176 C 0.94663 0.78974 0.79137 0.0
C3177 C 0.94008 0.78378 0.81269 0.0
C3178 C 0.95631 0.79142 0.79594 0.0
C3179 C 0.96517 0.78731 0.7916 0.0
C3180 C 0.96457 0.78155 0.78251 0.0
C3181 C 0.9549 0.78008 0.77781 0.0
C3182 C 0.94603 0.78414 0.7822 0.0
H3183 H 0.93525 0.78045 0.81891 0.0
H3184 H 0.94304 0.77743 0.80793 0.0
H3185 H 0.94674 0.78776 0.81634 0.0
H3186 H 0.95703 0.79595 0.80285 0.0
H3187 H 0.97252 0.78876 0.79531 0.0
H3188 H 0.82396 0.90107 0.1957 0.0
H3189 H 0.81544 0.91643 0.20204 0.0
H3190 H 0.80426 0.89933 0.2282 0.0
H3191 H 0.81273 0.88397 0.22194 0.0
H3192 H 0.79488 0.92023 0.20638 0.0
H3193 H 0.81882 0.92369 0.2416 0.0
H3194 H 0.82216 0.91539 0.23113 0.0
H3195 H 0.81254 0.91144 0.24025 0.0
C3196 C 0.81961 0.90055 0.20276 0.0
C3197 C 0.81911 0.8913 0.20836 0.0
C3198 C 0.81478 0.90935 0.20639 0.0
C3199 C 0.80938 0.9091 0.2157 0.0
C3200 C 0.80861 0.8998 0.22115 0.0
H3201 H 0.77611 0.95361 0.25171 0.0
H3202 H 0.78383 0.93817 0.24464 0.0
C3203 C 0.81345 0.89101 0.21754 0.0
C3204 C 0.80455 0.91853 0.21973 0.0
H3205 H 0.80445 0.93467 0.24032 0.0
C3206 C 0.797 0.92342 0.21377 0.0
C3207 C 0.80733 0.9227 0.22939 0.0
C3208 C 0.81572 0.9181 0.23593 0.0
C3209 C 0.79201 0.93223 0.21731 0.0
C3210 C 0.79475 0.93635 0.22699 0.0
C3211 C 0.80232 0.93148 0.23292 0.0
C3212 C 0.78991 0.94573 0.23111 0.0
C3213 C 0.78367 0.93689 0.21075 0.0
C3214 C 0.79085 0.95516 0.22592 0.0
C3215 C 0.78648 0.96402 0.22996 0.0
C3216 C 0.78114 0.96366 0.23933 0.0
C3217 C 0.78026 0.9542 0.24454 0.0
C3218 C 0.78462 0.94535 0.24048 0.0
H3219 H 0.78065 0.93139 0.20496 0.0
H3220 H 0.77718 0.93951 0.21554 0.0
H3221 H 0.78687 0.94364 0.20658 0.0
H3222 H 0.7951 0.9557 0.2188 0.0
H3223 H 0.78748 0.97119 0.22584 0.0
H3224 H 0.12471 0.80177 0.1897 0.0
H3225 H 0.1094 0.79556 0.19869 0.0
H3226 H 0.11719 0.81454 0.22464 0.0
H3227 H 0.13266 0.82069 0.21579 0.0
H3228 H 0.10846 0.78531 0.21804 0.0
H3229 H 0.08698 0.82191 0.21815 0.0
H3230 H 0.09779 0.81979 0.20981 0.0
H3231 H 0.09988 0.82258 0.22316 0.0
C3232 C 0.12324 0.80459 0.19735 0.0
C3233 C 0.12996 0.81173 0.20201 0.0
C3234 C 0.11443 0.80106 0.20245 0.0
C3235 C 0.11209 0.80467 0.21228 0.0
C3236 C 0.11875 0.8118 0.21698 0.0
H3237 H 0.06091 0.79112 0.25358 0.0
H3238 H 0.07671 0.79784 0.24574 0.0
C3239 C 0.12759 0.81531 0.21189 0.0
C3240 C 0.10279 0.80074 0.21767 0.0
H3241 H 0.07951 0.80791 0.22712 0.0
C3242 C 0.10212 0.79024 0.22002 0.0
C3243 C 0.09456 0.80721 0.22029 0.0
C3244 C 0.09474 0.81849 0.21767 0.0
C3245 C 0.09346 0.78603 0.22498 0.0
C3246 C 0.08515 0.79246 0.22745 0.0
C3247 C 0.08588 0.80299 0.22521 0.0
C3248 C 0.07556 0.78836 0.23219 0.0
C3249 C 0.09338 0.77476 0.22767 0.0
C3250 C 0.06957 0.78091 0.22712 0.0
C3251 C 0.06053 0.77707 0.23156 0.0
C3252 C 0.05723 0.78067 0.24115 0.0
C3253 C 0.06318 0.78824 0.24615 0.0
C3254 C 0.07223 0.79206 0.24171 0.0
H3255 H 0.10129 0.77163 0.22797 0.0
H3256 H 0.08964 0.77334 0.2352 0.0
H3257 H 0.089 0.77048 0.22171 0.0
H3258 H 0.07183 0.77813 0.21965 0.0
H3259 H 0.05604 0.77141 0.2274 0.0
H3260 H 0.88828 0.19925 0.21435 0.0
H3261 H 0.90381 0.20564 0.22304 0.0
H3262 H 0.90772 0.22873 0.19953 0.0
H3263 H 0.89241 0.22225 0.19063 0.0
H3264 H 0.92452 0.20783 0.21416 0.0
H3265 H 0.9083 0.24466 0.2274 0.0
H3266 H 0.90031 0.23387 0.22367 0.0
H3267 H 0.90632 0.24179 0.21405 0.0
C3268 C 0.89248 0.20563 0.21097 0.0
C3269 C 0.88904 0.21026 0.20179 0.0
C3270 C 0.90132 0.20931 0.21598 0.0
C3271 C 0.90681 0.21773 0.21199 0.0
C3272 C 0.90347 0.22233 0.20283 0.0
H3273 H 0.96073 0.25335 0.22834 0.0
H3274 H 0.94499 0.24621 0.2208 0.0
C3275 C 0.89468 0.21863 0.19778 0.0
C3276 C 0.91619 0.22161 0.21726 0.0
H3277 H 0.92626 0.24256 0.22947 0.0
C3278 C 0.92491 0.21539 0.21758 0.0
C3279 C 0.91664 0.23148 0.22167 0.0
C3280 C 0.90738 0.23834 0.22178 0.0
C3281 C 0.9342 0.21891 0.22195 0.0
C3282 C 0.93468 0.22882 0.22633 0.0
C3283 C 0.92589 0.23498 0.22611 0.0
C3284 C 0.94427 0.23305 0.23097 0.0
C3285 C 0.94349 0.21211 0.22151 0.0
C3286 C 0.94904 0.2281 0.23929 0.0
C3287 C 0.95813 0.23209 0.24354 0.0
C3288 C 0.96258 0.24119 0.23963 0.0
C3289 C 0.95765 0.24623 0.23142 0.0
C3290 C 0.94859 0.24221 0.22715 0.0
H3291 H 0.94261 0.20609 0.21556 0.0
H3292 H 0.95058 0.21665 0.21988 0.0
H3293 H 0.9445 0.20821 0.22904 0.0
H3294 H 0.94573 0.22115 0.24251 0.0
H3295 H 0.96174 0.22796 0.2498 0.0
H3296 H 0.21742 0.68712 0.62575 0.0
H3297 H 0.22388 0.69591 0.61045 0.0
H3298 H 0.2043 0.72157 0.61664 0.0
H3299 H 0.19809 0.713 0.63223 0.0
H3300 H 0.21345 0.7024 0.5933 0.0
H3301 H 0.2321 0.73559 0.61274 0.0
H3302 H 0.22787 0.72428 0.61964 0.0
H3303 H 0.21874 0.7338 0.61573 0.0
C3304 C 0.21459 0.69471 0.62397 0.0
C3305 C 0.20729 0.69938 0.63032 0.0
C3306 C 0.21824 0.69969 0.61516 0.0
C3307 C 0.21471 0.70948 0.61247 0.0
C3308 C 0.2073 0.71411 0.61867 0.0
H3309 H 0.22928 0.75004 0.56076 0.0
H3310 H 0.22175 0.74209 0.57611 0.0
C3311 C 0.20366 0.70914 0.62752 0.0
C3312 C 0.21868 0.71468 0.60307 0.0
H3313 H 0.23167 0.73601 0.59456 0.0
C3314 C 0.21745 0.70974 0.59358 0.0
C3315 C 0.22388 0.72428 0.60343 0.0
C3316 C 0.22583 0.72978 0.61343 0.0
C3317 C 0.22121 0.71415 0.58445 0.0
C3318 C 0.22649 0.72369 0.58483 0.0
C3319 C 0.22762 0.7287 0.59429 0.0
C3320 C 0.23108 0.72849 0.57551 0.0
C3321 C 0.21937 0.70862 0.57445 0.0
C3322 C 0.23892 0.72355 0.57015 0.0
C3323 C 0.24321 0.72805 0.56136 0.0
C3324 C 0.23978 0.73762 0.55776 0.0
C3325 C 0.23201 0.7426 0.56323 0.0
C3326 C 0.22774 0.73811 0.57204 0.0
H3327 H 0.21299 0.70291 0.57507 0.0
H3328 H 0.21755 0.7141 0.56817 0.0
H3329 H 0.22644 0.70447 0.57232 0.0
H3330 H 0.24174 0.71621 0.57278 0.0
H3331 H 0.24912 0.72395 0.5573 0.0
H3332 H 0.79632 0.69311 0.63186 0.0
H3333 H 0.79028 0.70208 0.6165 0.0
H3334 H 0.81951 0.71786 0.6141 0.0
H3335 H 0.82579 0.70858 0.62921 0.0
H3336 H 0.78821 0.72275 0.61295 0.0
H3337 H 0.81586 0.70618 0.58544 0.0
H3338 H 0.81399 0.701 0.59818 0.0
H3339 H 0.82175 0.71235 0.5963 0.0
C3340 C 0.80153 0.69837 0.62799 0.0
C3341 C 0.81158 0.70004 0.63174 0.0
C3342 C 0.79803 0.70356 0.61925 0.0
C3343 C 0.80449 0.71052 0.61405 0.0
C3344 C 0.81446 0.71237 0.61787 0.0
H3345 H 0.79469 0.74786 0.55907 0.0
H3346 H 0.80158 0.74037 0.57494 0.0
C3347 C 0.81799 0.70715 0.62659 0.0
C3348 C 0.80069 0.71592 0.60474 0.0
H3349 H 0.80504 0.71926 0.57907 0.0
C3350 C 0.79188 0.72198 0.60554 0.0
C3351 C 0.80551 0.71493 0.59508 0.0
C3352 C 0.81475 0.7082 0.59363 0.0
C3353 C 0.78778 0.72709 0.59696 0.0
C3354 C 0.79253 0.726 0.58729 0.0
C3355 C 0.80142 0.72008 0.58651 0.0
C3356 C 0.78824 0.73073 0.57785 0.0
C3357 C 0.77844 0.73369 0.59833 0.0
C3358 C 0.7785 0.72773 0.57418 0.0
C3359 C 0.77454 0.732 0.56515 0.0
C3360 C 0.78026 0.73935 0.55957 0.0
C3361 C 0.79004 0.74232 0.56326 0.0
C3362 C 0.794 0.73801 0.57229 0.0
H3363 H 0.77736 0.73585 0.60649 0.0
H3364 H 0.77905 0.7408 0.59362 0.0
H3365 H 0.77149 0.72937 0.59578 0.0
H3366 H 0.77399 0.722 0.57827 0.0
H3367 H 0.76696 0.7296 0.56256 0.0
H3368 H 0.8182 0.3324 0.61835 0.0
H3369 H 0.81156 0.32315 0.60337 0.0
H3370 H 0.80352 0.29737 0.6227 0.0
H3371 H 0.80994 0.30666 0.63777 0.0
H3372 H 0.8175 0.30372 0.59551 0.0
H3373 H 0.77647 0.30387 0.60729 0.0
H3374 H 0.78607 0.31218 0.61306 0.0
H3375 H 0.78533 0.29888 0.61665 0.0
C3376 C 0.81495 0.32479 0.61944 0.0
C3377 C 0.81453 0.32031 0.62928 0.0
C3378 C 0.81122 0.31949 0.61086 0.0
C3379 C 0.80691 0.30963 0.61194 0.0
C3380 C 0.80666 0.30503 0.62171 0.0
H3381 H 0.77706 0.26867 0.5677 0.0
H3382 H 0.78463 0.27625 0.58319 0.0
C3383 C 0.81044 0.31032 0.6303 0.0
C3384 C 0.80271 0.30419 0.60281 0.0
H3385 H 0.78044 0.29481 0.59221 0.0
C3386 C 0.8094 0.30176 0.59478 0.0
C3387 C 0.79214 0.30161 0.60189 0.0
C3388 C 0.78454 0.30432 0.61013 0.0
C3389 C 0.80583 0.29678 0.58588 0.0
C3390 C 0.79522 0.29435 0.58488 0.0
C3391 C 0.78855 0.29667 0.59297 0.0
C3392 C 0.79085 0.28963 0.57542 0.0
C3393 C 0.81347 0.29402 0.57771 0.0
C3394 C 0.79174 0.29467 0.5659 0.0
C3395 C 0.78749 0.29032 0.55702 0.0
C3396 C 0.78217 0.28087 0.55746 0.0
C3397 C 0.78123 0.27588 0.56704 0.0
C3398 C 0.78549 0.28023 0.57592 0.0
H3399 H 0.82142 0.29362 0.58086 0.0
H3400 H 0.81148 0.28654 0.57415 0.0
H3401 H 0.81342 0.29999 0.57161 0.0
H3402 H 0.79565 0.30203 0.56535 0.0
H3403 H 0.78845 0.29435 0.54979 0.0
H3404 H 0.223 0.32854 0.6302 0.0
H3405 H 0.2292 0.31971 0.615 0.0
H3406 H 0.20081 0.30238 0.61328 0.0
H3407 H 0.19435 0.31148 0.62826 0.0
H3408 H 0.23234 0.29916 0.61192 0.0
H3409 H 0.20328 0.31375 0.58426 0.0
H3410 H 0.20511 0.31923 0.59684 0.0
H3411 H 0.19795 0.30745 0.59534 0.0
C3412 C 0.21799 0.32297 0.62652 0.0
C3413 C 0.20811 0.32082 0.63043 0.0
C3414 C 0.22159 0.31786 0.61786 0.0
C3415 C 0.21542 0.3105 0.61289 0.0
C3416 C 0.20563 0.30818 0.61686 0.0
H3417 H 0.22608 0.27309 0.55859 0.0
H3418 H 0.21909 0.28048 0.5743 0.0
C3419 C 0.202 0.31331 0.62551 0.0
C3420 C 0.21934 0.30517 0.60366 0.0
H3421 H 0.2147 0.30122 0.57812 0.0
C3422 C 0.22849 0.29962 0.60453 0.0
C3423 C 0.21429 0.30575 0.59402 0.0
C3424 C 0.20467 0.31194 0.59249 0.0
C3425 C 0.23271 0.2946 0.59604 0.0
C3426 C 0.22773 0.29528 0.58638 0.0
C3427 C 0.21851 0.30071 0.58554 0.0
C3428 C 0.2321 0.29062 0.577 0.0
C3429 C 0.24241 0.28852 0.59751 0.0
C3430 C 0.24169 0.29393 0.57326 0.0
C3431 C 0.24572 0.2897 0.56432 0.0
C3432 C 0.24022 0.28209 0.55889 0.0
C3433 C 0.23059 0.27882 0.56265 0.0
C3434 C 0.22655 0.28308 0.57159 0.0
H3435 H 0.24369 0.28647 0.60571 0.0
H3436 H 0.24214 0.28137 0.59293 0.0
H3437 H 0.2491 0.2932 0.5949 0.0
H3438 H 0.24603 0.29986 0.57721 0.0
H3439 H 0.25319 0.29234 0.56169 0.0
H3440 H 0.22587 0.31814 0.38578 0.0
H3441 H 0.23213 0.30949 0.40127 0.0
H3442 H 0.20156 0.30975 0.41393 0.0
H3443 H 0.19524 0.31844 0.39848 0.0
H3444 H 0.23168 0.31658 0.42119 0.0
H3445 H 0.20994 0.27986 0.41785 0.0
H3446 H 0.21125 0.28879 0.40728 0.0
H3447 H 0.20204 0.29106 0.41724 0.0
C3448 C 0.22047 0.31637 0.39186 0.0
C3449 C 0.21004 0.31898 0.39089 0.0
C3450 C 0.22405 0.31138 0.40069 0.0
C3451 C 0.21729 0.30886 0.4087 0.0
C3452 C 0.20687 0.31141 0.40775 0.0
H3453 H 0.23388 0.29562 0.47201 0.0
H3454 H 0.22735 0.30306 0.45601 0.0
C3455 C 0.20327 0.31639 0.39891 0.0
C3456 C 0.22125 0.30397 0.41822 0.0
H3457 H 0.21874 0.28282 0.43364 0.0
C3458 C 0.22887 0.30918 0.4239 0.0
C3459 C 0.21767 0.29427 0.42168 0.0
C3460 C 0.20984 0.28811 0.41566 0.0
C3461 C 0.23289 0.30503 0.43302 0.0
C3462 C 0.22907 0.29548 0.43665 0.0
C3463 C 0.22158 0.29018 0.43089 0.0
C3464 C 0.23283 0.29085 0.44637 0.0
C3465 C 0.2413 0.31083 0.43862 0.0
C3466 C 0.23785 0.28139 0.44629 0.0
C3467 C 0.24161 0.27712 0.45542 0.0
C3468 C 0.24037 0.28221 0.46483 0.0
C3469 C 0.23515 0.2916 0.46488 0.0
C3470 C 0.2314 0.29586 0.45575 0.0
H3471 H 0.24513 0.3166 0.43357 0.0
H3472 H 0.23792 0.31495 0.4452 0.0
H3473 H 0.2472 0.30552 0.44166 0.0
H3474 H 0.23901 0.27739 0.43913 0.0
H3475 H 0.24567 0.26993 0.45508 0.0
H3476 H 0.19046 0.71842 0.39394 0.0
H3477 H 0.19931 0.72481 0.40923 0.0
H3478 H 0.22099 0.70015 0.40736 0.0
H3479 H 0.21244 0.69394 0.39176 0.0
H3480 H 0.20227 0.71544 0.42774 0.0
H3481 H 0.24001 0.72485 0.41009 0.0
H3482 H 0.22866 0.72209 0.40252 0.0
H3483 H 0.23583 0.71182 0.40826 0.0
C3484 C 0.19722 0.71444 0.39665 0.0
C3485 C 0.20078 0.7057 0.39152 0.0
C3486 C 0.20222 0.71806 0.40546 0.0
C3487 C 0.21092 0.71307 0.40937 0.0
C3488 C 0.21443 0.70427 0.40437 0.0
H3489 H 0.24898 0.72466 0.46373 0.0
H3490 H 0.24114 0.71737 0.44822 0.0
C3491 C 0.20944 0.70065 0.39552 0.0
C3492 C 0.2161 0.71698 0.41881 0.0
H3493 H 0.23895 0.72632 0.42819 0.0
C3494 C 0.21029 0.71783 0.42782 0.0
C3495 C 0.22658 0.72008 0.41894 0.0
C3496 C 0.23313 0.71977 0.40942 0.0
C3497 C 0.21465 0.72166 0.43694 0.0
C3498 C 0.22509 0.72485 0.43704 0.0
C3499 C 0.23095 0.72387 0.42809 0.0
C3500 C 0.22998 0.7294 0.44632 0.0
C3501 C 0.20809 0.72214 0.44644 0.0
C3502 C 0.22644 0.73868 0.45029 0.0
C3503 C 0.23095 0.74292 0.4591 0.0
C3504 C 0.23913 0.73798 0.46413 0.0
C3505 C 0.24277 0.72875 0.46002 0.0
C3506 C 0.23827 0.72453 0.45118 0.0
H3507 H 0.20117 0.71709 0.44583 0.0
H3508 H 0.21254 0.71988 0.45338 0.0
H3509 H 0.20545 0.73012 0.4475 0.0
H3510 H 0.2202 0.74269 0.44654 0.0
H3511 H 0.22808 0.75014 0.4619 0.0
H3512 H 0.809 0.69575 0.39475 0.0
H3513 H 0.79994 0.70253 0.40962 0.0
H3514 H 0.82104 0.72826 0.41061 0.0
H3515 H 0.82983 0.72182 0.3955 0.0
H3516 H 0.8069 0.7062 0.42901 0.0
H3517 H 0.79372 0.74255 0.41148 0.0
H3518 H 0.79882 0.73223 0.40395 0.0
H3519 H 0.80737 0.74098 0.41053 0.0
C3520 C 0.81162 0.70294 0.39802 0.0
C3521 C 0.82014 0.70825 0.39386 0.0
C3522 C 0.80647 0.70677 0.40658 0.0
C3523 C 0.80969 0.716 0.41114 0.0
C3524 C 0.81826 0.72125 0.4071 0.0
H3525 H 0.79463 0.75033 0.46547 0.0
H3526 H 0.80216 0.74327 0.44991 0.0
C3527 C 0.82338 0.71746 0.39853 0.0
C3528 C 0.8043 0.72002 0.4203 0.0
H3529 H 0.79241 0.74119 0.42972 0.0
C3530 C 0.80365 0.71381 0.42914 0.0
C3531 C 0.80002 0.72995 0.42046 0.0
C3532 C 0.79992 0.73677 0.41106 0.0
C3533 C 0.79911 0.71738 0.43819 0.0
C3534 C 0.79505 0.72739 0.4384 0.0
C3535 C 0.79558 0.73355 0.42955 0.0
C3536 C 0.79035 0.73166 0.44778 0.0
C3537 C 0.79893 0.71054 0.44757 0.0
C3538 C 0.78113 0.72755 0.45167 0.0
C3539 C 0.77672 0.73164 0.46051 0.0
C3540 C 0.78145 0.73994 0.46565 0.0
C3541 C 0.79067 0.74406 0.46166 0.0
C3542 C 0.79504 0.73999 0.4528 0.0
H3543 H 0.80412 0.70388 0.44677 0.0
H3544 H 0.80123 0.71491 0.45452 0.0
H3545 H 0.79099 0.70756 0.44876 0.0
H3546 H 0.77729 0.72123 0.44781 0.0
H3547 H 0.76953 0.72839 0.46323 0.0
H3548 H 0.79932 0.31308 0.38418 0.0
H3549 H 0.79314 0.30454 0.39978 0.0
H3550 H 0.8214 0.31262 0.41535 0.0
H3551 H 0.82755 0.32141 0.39984 0.0
H3552 H 0.80158 0.28831 0.41137 0.0
H3553 H 0.79896 0.32404 0.4342 0.0
H3554 H 0.80037 0.32415 0.42041 0.0
H3555 H 0.81131 0.32183 0.42854 0.0
C3556 C 0.8042 0.3131 0.39093 0.0
C3557 C 0.8139 0.31802 0.39077 0.0
C3558 C 0.80068 0.30815 0.39983 0.0
C3559 C 0.80674 0.30807 0.40878 0.0
C3560 C 0.81653 0.31273 0.40858 0.0
H3561 H 0.79539 0.27074 0.46369 0.0
H3562 H 0.8026 0.27822 0.44798 0.0
C3563 C 0.82008 0.31766 0.39967 0.0
C3564 C 0.80271 0.30322 0.41832 0.0
H3565 H 0.79558 0.30843 0.44295 0.0
C3566 C 0.80029 0.2927 0.41829 0.0
C3567 C 0.8009 0.30898 0.42729 0.0
C3568 C 0.80293 0.32039 0.42765 0.0
C3569 C 0.79616 0.28777 0.42701 0.0
C3570 C 0.79453 0.2935 0.43604 0.0
C3571 C 0.7969 0.30404 0.43604 0.0
C3572 C 0.79012 0.2888 0.44549 0.0
C3573 C 0.79337 0.27653 0.4264 0.0
C3574 C 0.7808 0.29236 0.44942 0.0
C3575 C 0.77666 0.28809 0.45839 0.0
C3576 C 0.78178 0.2802 0.46369 0.0
C3577 C 0.79115 0.27667 0.45973 0.0
C3578 C 0.79529 0.28095 0.45075 0.0
H3579 H 0.79275 0.27388 0.41832 0.0
H3580 H 0.79942 0.27199 0.43028 0.0
H3581 H 0.78596 0.27491 0.43032 0.0
H3582 H 0.77669 0.29841 0.4455 0.0
H3583 H 0.76938 0.29092 0.46113 0.0
H3584 H 0.12509 0.69307 0.70869 0.0
H3585 H 0.10995 0.6997 0.71746 0.0
H3586 H 0.11388 0.7287 0.70185 0.0
H3587 H 0.12908 0.72224 0.69321 0.0
H3588 H 0.10815 0.71747 0.73033 0.0
H3589 H 0.08382 0.7202 0.69529 0.0
H3590 H 0.09542 0.71273 0.69579 0.0
H3591 H 0.09618 0.72642 0.69428 0.0
C3592 C 0.1228 0.70089 0.70718 0.0
C3593 C 0.12829 0.70708 0.70015 0.0
C3594 C 0.11411 0.70465 0.71217 0.0
C3595 C 0.11069 0.71464 0.71018 0.0
C3596 C 0.11625 0.7209 0.70333 0.0
H3597 H 0.06034 0.75279 0.72934 0.0
H3598 H 0.07567 0.74544 0.72162 0.0
C3599 C 0.12493 0.71717 0.69837 0.0
C3600 C 0.10134 0.71858 0.71528 0.0
H3601 H 0.07734 0.72784 0.71038 0.0
C3602 C 0.10138 0.71968 0.72599 0.0
C3603 C 0.09253 0.72146 0.70959 0.0
C3604 C 0.0919 0.72007 0.69811 0.0
C3605 C 0.09294 0.72387 0.73115 0.0
C3606 C 0.08415 0.72683 0.72545 0.0
C3607 C 0.08409 0.72561 0.71474 0.0
C3608 C 0.07495 0.73132 0.73039 0.0
C3609 C 0.09365 0.72537 0.74261 0.0
C3610 C 0.06937 0.7258 0.73784 0.0
C3611 C 0.06059 0.72998 0.74227 0.0
C3612 C 0.05713 0.73974 0.73926 0.0
C3613 C 0.06272 0.74522 0.73176 0.0
C3614 C 0.07151 0.74105 0.72737 0.0
H3615 H 0.10176 0.72533 0.74536 0.0
H3616 H 0.09011 0.73271 0.7449 0.0
H3617 H 0.08947 0.71902 0.74654 0.0
H3618 H 0.07171 0.71817 0.74012 0.0
H3619 H 0.05638 0.72548 0.74789 0.0
H3620 H 0.83323 0.624 0.71885 0.0
H3621 H 0.82414 0.60869 0.72505 0.0
H3622 H 0.79717 0.61741 0.70788 0.0
H3623 H 0.80612 0.63288 0.70179 0.0
H3624 H 0.80504 0.60812 0.73633 0.0
H3625 H 0.8025 0.58723 0.69927 0.0
H3626 H 0.81146 0.59771 0.70136 0.0
H3627 H 0.7981 0.60024 0.69913 0.0
C3628 C 0.82534 0.62272 0.71644 0.0
C3629 C 0.82041 0.62971 0.70982 0.0
C3630 C 0.82018 0.61393 0.71995 0.0
C3631 C 0.81003 0.61187 0.71685 0.0
C3632 C 0.80507 0.61877 0.71023 0.0
H3633 H 0.76837 0.5607 0.73076 0.0
H3634 H 0.77613 0.57657 0.72406 0.0
C3635 C 0.81021 0.6276 0.70674 0.0
C3636 C 0.80457 0.60262 0.72079 0.0
H3637 H 0.79424 0.57957 0.71353 0.0
C3638 C 0.80267 0.60187 0.73136 0.0
C3639 C 0.80144 0.59453 0.71426 0.0
C3640 C 0.80352 0.59487 0.70287 0.0
C3641 C 0.79768 0.59323 0.73559 0.0
C3642 C 0.79474 0.58503 0.7291 0.0
C3643 C 0.79652 0.58585 0.71849 0.0
C3644 C 0.79003 0.57543 0.73319 0.0
C3645 C 0.79547 0.59306 0.74695 0.0
C3646 C 0.79532 0.56944 0.74043 0.0
C3647 C 0.79091 0.56039 0.74427 0.0
C3648 C 0.78114 0.55707 0.74086 0.0
C3649 C 0.77592 0.56301 0.73349 0.0
C3650 C 0.78033 0.57209 0.72968 0.0
H3651 H 0.79538 0.60093 0.75019 0.0
H3652 H 0.78796 0.58926 0.74857 0.0
H3653 H 0.80158 0.58873 0.75099 0.0
H3654 H 0.80293 0.57172 0.74304 0.0
H3655 H 0.79522 0.5559 0.74978 0.0
H3656 H 0.90289 0.31833 0.68936 0.0
H3657 H 0.91782 0.31164 0.69861 0.0
H3658 H 0.89867 0.30442 0.72464 0.0
H3659 H 0.88363 0.31089 0.71536 0.0
H3660 H 0.92627 0.31776 0.71791 0.0
H3661 H 0.913 0.27708 0.71836 0.0
H3662 H 0.9074 0.28659 0.70999 0.0
H3663 H 0.90406 0.28617 0.72335 0.0
C3664 C 0.90182 0.31525 0.69703 0.0
C3665 C 0.89203 0.31507 0.70158 0.0
C3666 C 0.91039 0.31149 0.70233 0.0
C3667 C 0.90934 0.3074 0.71226 0.0
C3668 C 0.89962 0.3074 0.71692 0.0
H3669 H 0.95343 0.2775 0.75316 0.0
H3670 H 0.93802 0.28521 0.74565 0.0
C3671 C 0.89105 0.31119 0.71164 0.0
C3672 C 0.91843 0.30314 0.71769 0.0
H3673 H 0.92844 0.28091 0.72724 0.0
C3674 C 0.92675 0.3097 0.71996 0.0
C3675 C 0.91902 0.29263 0.72038 0.0
C3676 C 0.91044 0.28516 0.71784 0.0
C3677 C 0.93564 0.30606 0.7249 0.0
C3678 C 0.93631 0.29552 0.72745 0.0
C3679 C 0.92792 0.28898 0.72529 0.0
C3680 C 0.94573 0.29107 0.73212 0.0
C3681 C 0.94416 0.31358 0.7275 0.0
C3682 C 0.95518 0.2917 0.72697 0.0
C3683 C 0.96401 0.28737 0.73128 0.0
C3684 C 0.96359 0.28222 0.7408 0.0
C3685 C 0.95408 0.28153 0.7459 0.0
C3686 C 0.94525 0.28588 0.74158 0.0
H3687 H 0.94129 0.32157 0.72785 0.0
H3688 H 0.94782 0.31165 0.73497 0.0
H3689 H 0.95012 0.31332 0.72145 0.0
H3690 H 0.95572 0.29547 0.71956 0.0
H3691 H 0.9712 0.28814 0.72717 0.0
H3692 H 0.20633 0.38407 0.72347 0.0
H3693 H 0.21481 0.3997 0.72972 0.0
H3694 H 0.20751 0.4151 0.70128 0.0
H3695 H 0.19879 0.39956 0.69505 0.0
H3696 H 0.23144 0.41125 0.72122 0.0
H3697 H 0.19564 0.43395 0.72361 0.0
H3698 H 0.1955 0.42017 0.72236 0.0
H3699 H 0.19798 0.42817 0.71136 0.0
C3700 C 0.20646 0.3908 0.71856 0.0
C3701 C 0.2018 0.39059 0.70879 0.0
C3702 C 0.21138 0.3997 0.72212 0.0
C3703 C 0.21167 0.4086 0.71602 0.0
C3704 C 0.20724 0.40836 0.70617 0.0
H3705 H 0.24894 0.46369 0.72714 0.0
H3706 H 0.24146 0.44795 0.72 0.0
C3707 C 0.20235 0.39944 0.70258 0.0
C3708 C 0.21652 0.41814 0.72005 0.0
H3709 H 0.21128 0.44271 0.72712 0.0
C3710 C 0.22705 0.41814 0.72249 0.0
C3711 C 0.21074 0.42707 0.72182 0.0
C3712 C 0.19932 0.42737 0.71975 0.0
C3713 C 0.23197 0.42687 0.72659 0.0
C3714 C 0.22623 0.43586 0.7282 0.0
C3715 C 0.21568 0.43583 0.72582 0.0
C3716 C 0.23094 0.44531 0.73258 0.0
C3717 C 0.24323 0.42633 0.72939 0.0
C3718 C 0.2274 0.44916 0.74195 0.0
C3719 C 0.23167 0.45814 0.74606 0.0
C3720 C 0.23953 0.46353 0.74086 0.0
C3721 C 0.24303 0.45966 0.73145 0.0
C3722 C 0.23876 0.45066 0.72734 0.0
H3723 H 0.2459 0.41829 0.72995 0.0
H3724 H 0.24782 0.43031 0.72338 0.0
H3725 H 0.24478 0.4302 0.73682 0.0
H3726 H 0.22137 0.44516 0.74612 0.0
H3727 H 0.22887 0.46081 0.75338 0.0
H3728 H 0.13204 0.32149 0.3091 0.0
H3729 H 0.1163 0.31573 0.3004 0.0
H3730 H 0.11064 0.29388 0.32475 0.0
H3731 H 0.12604 0.29991 0.33374 0.0
H3732 H 0.11106 0.29695 0.29298 0.0
H3733 H 0.08329 0.30804 0.32292 0.0
H3734 H 0.09651 0.31242 0.32302 0.0
H3735 H 0.09317 0.29985 0.32783 0.0
C3736 C 0.12736 0.31558 0.3127 0.0
C3737 C 0.13031 0.31121 0.32216 0.0
C3738 C 0.1184 0.31224 0.30767 0.0
C3739 C 0.11219 0.3045 0.31201 0.0
C3740 C 0.11518 0.30003 0.32137 0.0
H3741 H 0.05946 0.26825 0.29365 0.0
H3742 H 0.075 0.27548 0.30156 0.0
C3743 C 0.12409 0.30339 0.32642 0.0
C3744 C 0.10272 0.30088 0.30663 0.0
H3745 H 0.07693 0.29683 0.30983 0.0
C3746 C 0.10358 0.29702 0.29663 0.0
C3747 C 0.09295 0.30102 0.31138 0.0
C3748 C 0.09139 0.30565 0.32183 0.0
C3749 C 0.09498 0.29299 0.29138 0.0
C3750 C 0.0853 0.29288 0.29625 0.0
C3751 C 0.0844 0.29687 0.30617 0.0
C3752 C 0.07601 0.28848 0.29124 0.0
C3753 C 0.09633 0.28865 0.28077 0.0
C3754 C 0.07142 0.29345 0.28284 0.0
C3755 C 0.06245 0.28942 0.27837 0.0
C3756 C 0.05791 0.28032 0.28221 0.0
C3757 C 0.06263 0.27534 0.29058 0.0
C3758 C 0.07155 0.27942 0.29509 0.0
H3759 H 0.10456 0.28786 0.27872 0.0
H3760 H 0.09248 0.28102 0.28019 0.0
H3761 H 0.09266 0.29381 0.27506 0.0
H3762 H 0.07469 0.30053 0.27986 0.0
H3763 H 0.05896 0.29355 0.27205 0.0
H3764 H 0.21005 0.63494 0.30721 0.0
H3765 H 0.2165 0.6199 0.29819 0.0
H3766 H 0.20729 0.60057 0.32356 0.0
H3767 H 0.20063 0.6155 0.33252 0.0
H3768 H 0.23194 0.60645 0.30513 0.0
H3769 H 0.19505 0.58565 0.29854 0.0
H3770 H 0.19565 0.59906 0.30191 0.0
H3771 H 0.19723 0.58937 0.31164 0.0
C3772 C 0.20924 0.62746 0.3108 0.0
C3773 C 0.20479 0.62643 0.32059 0.0
C3774 C 0.21299 0.61889 0.30566 0.0
C3775 C 0.21227 0.60909 0.31015 0.0
C3776 C 0.20778 0.60802 0.31988 0.0
H3777 H 0.23238 0.54787 0.29568 0.0
H3778 H 0.22511 0.5633 0.3032 0.0
C3779 C 0.20407 0.61659 0.32504 0.0
C3780 C 0.21661 0.60005 0.30486 0.0
H3781 H 0.21035 0.57641 0.29536 0.0
C3782 C 0.22722 0.59991 0.30291 0.0
C3783 C 0.21044 0.59152 0.30201 0.0
C3784 C 0.19894 0.5914 0.30353 0.0
C3785 C 0.23186 0.59135 0.29844 0.0
C3786 C 0.2257 0.58278 0.29565 0.0
C3787 C 0.21507 0.58297 0.29751 0.0
C3788 C 0.23015 0.57345 0.29098 0.0
C3789 C 0.24338 0.59145 0.29704 0.0
C3790 C 0.23531 0.57398 0.28154 0.0
C3791 C 0.23956 0.56518 0.27726 0.0
C3792 C 0.23869 0.55563 0.2823 0.0
C3793 C 0.23337 0.55511 0.29168 0.0
C3794 C 0.22913 0.56392 0.29595 0.0
H3795 H 0.24722 0.59734 0.3019 0.0
H3796 H 0.24666 0.58385 0.29894 0.0
H3797 H 0.24518 0.59324 0.28891 0.0
H3798 H 0.23603 0.58121 0.27747 0.0
H3799 H 0.24365 0.56589 0.27007 0.0
H3800 H 0.88298 0.70586 0.30025 0.0
H3801 H 0.89856 0.71441 0.29389 0.0
H3802 H 0.91397 0.70794 0.32255 0.0
H3803 H 0.89848 0.69917 0.32889 0.0
H3804 H 0.90987 0.73133 0.30211 0.0
H3805 H 0.93315 0.69592 0.30054 0.0
H3806 H 0.91932 0.69561 0.30172 0.0
H3807 H 0.92726 0.69841 0.31271 0.0
C3808 C 0.8897 0.7062 0.30518 0.0
C3809 C 0.8895 0.70175 0.31505 0.0
C3810 C 0.89858 0.71115 0.30156 0.0
C3811 C 0.90747 0.71169 0.30769 0.0
C3812 C 0.90724 0.70748 0.31763 0.0
H3813 H 0.96233 0.7493 0.29627 0.0
H3814 H 0.94656 0.74179 0.30341 0.0
C3815 C 0.89835 0.70255 0.32128 0.0
C3816 C 0.91699 0.71658 0.30361 0.0
H3817 H 0.94174 0.71156 0.29677 0.0
C3818 C 0.91685 0.72702 0.30096 0.0
C3819 C 0.92604 0.71091 0.30199 0.0
C3820 C 0.92649 0.69957 0.3043 0.0
C3821 C 0.92557 0.73198 0.29681 0.0
C3822 C 0.93468 0.72634 0.29537 0.0
C3823 C 0.93478 0.71588 0.29795 0.0
C3824 C 0.94412 0.73109 0.29097 0.0
C3825 C 0.92489 0.74314 0.2938 0.0
C3826 C 0.94808 0.72748 0.28168 0.0
C3827 C 0.95707 0.73177 0.27756 0.0
C3828 C 0.96236 0.73973 0.28269 0.0
C3829 C 0.95837 0.74332 0.29202 0.0
C3830 C 0.94936 0.73902 0.29612 0.0
H3831 H 0.91679 0.74568 0.29316 0.0
H3832 H 0.9288 0.74788 0.29973 0.0
H3833 H 0.92879 0.74459 0.28636 0.0
H3834 H 0.94416 0.72137 0.27757 0.0
H3835 H 0.95984 0.72891 0.27031 0.0
H3836 H 0.82987 0.40226 0.32172 0.0
H3837 H 0.82135 0.4177 0.31531 0.0
H3838 H 0.79967 0.39893 0.29846 0.0
H3839 H 0.80806 0.38345 0.30494 0.0
H3840 H 0.81852 0.42313 0.29384 0.0
H3841 H 0.78151 0.41929 0.31477 0.0
H3842 H 0.79298 0.41262 0.31872 0.0
H3843 H 0.78558 0.4081 0.30795 0.0
C3844 C 0.8232 0.40141 0.31677 0.0
C3845 C 0.81962 0.39161 0.31387 0.0
C3846 C 0.81838 0.41024 0.31307 0.0
C3847 C 0.80982 0.40946 0.30649 0.0
C3848 C 0.80619 0.39971 0.30363 0.0
H3849 H 0.77081 0.45405 0.27566 0.0
H3850 H 0.77863 0.43847 0.28262 0.0
C3851 C 0.81104 0.39087 0.30727 0.0
C3852 C 0.80496 0.41886 0.30232 0.0
H3853 H 0.78273 0.43256 0.30237 0.0
C3854 C 0.81071 0.42523 0.29573 0.0
C3855 C 0.79475 0.42153 0.30474 0.0
C3856 C 0.78834 0.41509 0.31199 0.0
C3857 C 0.80648 0.43412 0.29136 0.0
C3858 C 0.79629 0.43687 0.29387 0.0
C3859 C 0.79054 0.43047 0.30045 0.0
C3860 C 0.7915 0.44637 0.28978 0.0
C3861 C 0.81288 0.44032 0.2839 0.0
C3862 C 0.79601 0.45602 0.29163 0.0
C3863 C 0.79158 0.46493 0.28764 0.0
C3864 C 0.78245 0.4644 0.28182 0.0
C3865 C 0.77781 0.45474 0.28017 0.0
C3866 C 0.78229 0.44582 0.28411 0.0
H3867 H 0.81913 0.43569 0.28054 0.0
H3868 H 0.80808 0.44341 0.27755 0.0
H3869 H 0.81652 0.44687 0.288 0.0
H3870 H 0.80295 0.45668 0.29622 0.0
H3871 H 0.79524 0.47226 0.28923 0.0
H3872 H 0.20781 0.62641 0.69526 0.0
H3873 H 0.2167 0.61126 0.70184 0.0
H3874 H 0.19946 0.61287 0.72995 0.0
H3875 H 0.19068 0.62808 0.72355 0.0
H3876 H 0.22872 0.6089 0.72021 0.0
H3877 H 0.19437 0.58321 0.72001 0.0
H3878 H 0.19482 0.59522 0.71304 0.0
H3879 H 0.19264 0.59509 0.72666 0.0
C3880 C 0.20596 0.62361 0.70288 0.0
C3881 C 0.19844 0.62845 0.70883 0.0
C3882 C 0.21102 0.61491 0.7066 0.0
C3883 C 0.20862 0.61083 0.71631 0.0
C3884 C 0.20127 0.61574 0.72234 0.0
H3885 H 0.22795 0.55955 0.75392 0.0
H3886 H 0.22001 0.57489 0.74664 0.0
C3887 C 0.19624 0.62444 0.71865 0.0
C3888 C 0.21384 0.60151 0.72021 0.0
H3889 H 0.20931 0.57692 0.72835 0.0
C3890 C 0.2245 0.60188 0.72193 0.0
C3891 C 0.20831 0.59236 0.72246 0.0
C3892 C 0.19692 0.59137 0.72037 0.0
C3893 C 0.22975 0.59344 0.7261 0.0
C3894 C 0.2242 0.58432 0.72843 0.0
C3895 C 0.21355 0.58392 0.72661 0.0
C3896 C 0.22925 0.57511 0.73287 0.0
C3897 C 0.24112 0.59448 0.72826 0.0
C3898 C 0.23703 0.57007 0.72752 0.0
C3899 C 0.24157 0.56127 0.73165 0.0
C3900 C 0.23836 0.55727 0.74119 0.0
C3901 C 0.23053 0.56234 0.74651 0.0
C3902 C 0.22602 0.57114 0.74238 0.0
H3903 H 0.24364 0.60264 0.72857 0.0
H3904 H 0.24318 0.5907 0.73564 0.0
H3905 H 0.24545 0.59072 0.72204 0.0
H3906 H 0.23949 0.57284 0.72006 0.0
H3907 H 0.24745 0.55747 0.72726 0.0
H3908 H 0.19034 0.39171 0.29977 0.0
H3909 H 0.19919 0.40712 0.29347 0.0
H3910 H 0.21922 0.40676 0.31993 0.0
H3911 H 0.21024 0.39149 0.32649 0.0
H3912 H 0.20182 0.42663 0.30476 0.0
H3913 H 0.23868 0.40827 0.29416 0.0
H3914 H 0.22684 0.40103 0.2957 0.0
H3915 H 0.23375 0.40552 0.30678 0.0
C3916 C 0.19656 0.39495 0.30433 0.0
C3917 C 0.19955 0.39034 0.31367 0.0
C3918 C 0.20165 0.40372 0.30067 0.0
C3919 C 0.2099 0.408 0.30619 0.0
C3920 C 0.21295 0.40346 0.31549 0.0
H3921 H 0.25059 0.46001 0.29319 0.0
H3922 H 0.24228 0.44477 0.30059 0.0
C3923 C 0.20782 0.39472 0.3192 0.0
C3924 C 0.21516 0.41737 0.30229 0.0
H3925 H 0.23773 0.42621 0.29209 0.0
C3926 C 0.20967 0.42656 0.30198 0.0
C3927 C 0.22541 0.41724 0.29876 0.0
C3928 C 0.23154 0.40749 0.29877 0.0
C3929 C 0.2142 0.43567 0.29827 0.0
C3930 C 0.22439 0.43551 0.29451 0.0
C3931 C 0.22991 0.42632 0.29494 0.0
C3932 C 0.22942 0.44475 0.28999 0.0
C3933 C 0.20807 0.44542 0.29861 0.0
C3934 C 0.22504 0.44972 0.28147 0.0
C3935 C 0.2297 0.45851 0.2773 0.0
C3936 C 0.23892 0.46245 0.28148 0.0
C3937 C 0.24341 0.45731 0.28989 0.0
C3938 C 0.23871 0.44854 0.29408 0.0
H3939 H 0.20184 0.44491 0.30441 0.0
H3940 H 0.21307 0.45213 0.30043 0.0
H3941 H 0.20444 0.44674 0.291 0.0
H3942 H 0.218 0.44681 0.27803 0.0
H3943 H 0.22596 0.4623 0.2709 0.0
H3944 H 0.11676 0.68665 0.3189 0.0
H3945 H 0.10181 0.69591 0.31237 0.0
H3946 H 0.12135 0.7216 0.30426 0.0
H3947 H 0.1364 0.7123 0.31057 0.0
H3948 H 0.09411 0.71534 0.31833 0.0
H3949 H 0.10576 0.71502 0.27733 0.0
H3950 H 0.11152 0.70676 0.28687 0.0
H3951 H 0.11521 0.72006 0.28613 0.0
C3952 C 0.1179 0.69424 0.31566 0.0
C3953 C 0.12781 0.6987 0.31519 0.0
C3954 C 0.10934 0.69954 0.31199 0.0
C3955 C 0.11048 0.70938 0.30769 0.0
C3956 C 0.12031 0.71395 0.30739 0.0
H3957 H 0.06666 0.75057 0.27825 0.0
H3958 H 0.08207 0.74284 0.28572 0.0
C3959 C 0.12889 0.70866 0.3111 0.0
C3960 C 0.10137 0.71482 0.30354 0.0
H3961 H 0.0908 0.72421 0.28138 0.0
C3962 C 0.09337 0.71728 0.31025 0.0
C3963 C 0.10045 0.71737 0.293 0.0
C3964 C 0.10864 0.71461 0.28537 0.0
C3965 C 0.08451 0.7223 0.30673 0.0
C3966 C 0.08351 0.72472 0.29616 0.0
C3967 C 0.09156 0.72236 0.28947 0.0
C3968 C 0.07409 0.72952 0.29185 0.0
C3969 C 0.07637 0.72511 0.3144 0.0
C3970 C 0.06449 0.72457 0.29272 0.0
C3971 C 0.05565 0.729 0.28852 0.0
C3972 C 0.05623 0.73846 0.28328 0.0
C3973 C 0.06589 0.74336 0.28236 0.0
C3974 C 0.07473 0.73892 0.28657 0.0
H3975 H 0.07954 0.72547 0.32233 0.0
H3976 H 0.0729 0.73262 0.31247 0.0
H3977 H 0.07018 0.71918 0.31431 0.0
H3978 H 0.06382 0.71722 0.29657 0.0
H3979 H 0.04835 0.72504 0.28947 0.0
H3980 H 0.80226 0.62421 0.33535 0.0
H3981 H 0.79603 0.60901 0.32625 0.0
H3982 H 0.81344 0.61807 0.29957 0.0
H3983 H 0.81959 0.63344 0.30853 0.0
H3984 H 0.7848 0.60845 0.30724 0.0
H3985 H 0.82195 0.58793 0.30492 0.0
H3986 H 0.81991 0.59835 0.31374 0.0
H3987 H 0.82208 0.60097 0.30037 0.0
C3988 C 0.80472 0.62304 0.32752 0.0
C3989 C 0.81143 0.63009 0.32268 0.0
C3990 C 0.80119 0.6143 0.32235 0.0
C3991 C 0.80435 0.61235 0.31228 0.0
C3992 C 0.81105 0.61933 0.30741 0.0
H3993 H 0.7904 0.56195 0.27036 0.0
H3994 H 0.79711 0.57765 0.27832 0.0
C3995 C 0.81457 0.62811 0.31256 0.0
C3996 C 0.80039 0.60314 0.30682 0.0
H3997 H 0.80767 0.58036 0.29646 0.0
C3998 C 0.78979 0.6023 0.30488 0.0
C3999 C 0.80694 0.59517 0.3037 0.0
C4000 C 0.81835 0.59556 0.30584 0.0
C4001 C 0.78555 0.59372 0.29986 0.0
C4002 C 0.79206 0.58564 0.29691 0.0
C4003 C 0.80269 0.58654 0.29874 0.0
C4004 C 0.78797 0.57611 0.29209 0.0
C4005 C 0.77415 0.59349 0.2976 0.0
C4006 C 0.78071 0.56993 0.29724 0.0
C4007 C 0.77686 0.56097 0.29271 0.0
C4008 C 0.78027 0.55791 0.28298 0.0
C4009 C 0.78766 0.56403 0.2779 0.0
C4010 C 0.79148 0.57303 0.28242 0.0
H4011 H 0.77088 0.60132 0.29755 0.0
H4012 H 0.7725 0.58984 0.29008 0.0
H4013 H 0.77016 0.58897 0.30367 0.0
H4014 H 0.77809 0.57199 0.30482 0.0
H4015 H 0.77133 0.55633 0.29692 0.0
H4016 H 0.88427 0.30959 0.30683 0.0
H4017 H 0.8995 0.30299 0.29817 0.0
H4018 H 0.91857 0.31316 0.3234 0.0
H4019 H 0.90342 0.31976 0.33209 0.0
H4020 H 0.91769 0.31259 0.2918 0.0
H4021 H 0.92571 0.28289 0.32133 0.0
H4022 H 0.9137 0.28967 0.32075 0.0
H4023 H 0.9249 0.29562 0.32641 0.0
C4024 C 0.89172 0.31051 0.31049 0.0
C4025 C 0.89261 0.31512 0.32021 0.0
C4026 C 0.90041 0.30669 0.30555 0.0
C4027 C 0.91015 0.30739 0.31023 0.0
C4028 C 0.9111 0.31229 0.31976 0.0
H4029 H 0.97197 0.28871 0.29527 0.0
H4030 H 0.9565 0.29596 0.30279 0.0
C4031 C 0.90243 0.31607 0.32472 0.0
C4032 C 0.9193 0.30296 0.30518 0.0
H4033 H 0.93852 0.28562 0.30866 0.0
C4034 C 0.92221 0.30665 0.29545 0.0
C4035 C 0.9252 0.29519 0.30994 0.0
C4036 C 0.92218 0.29053 0.32014 0.0
C4037 C 0.93101 0.30297 0.29049 0.0
C4038 C 0.93695 0.29529 0.29531 0.0
C4039 C 0.93399 0.29155 0.30499 0.0
C4040 C 0.94634 0.29106 0.29051 0.0
C4041 C 0.934 0.30754 0.28025 0.0
C4042 C 0.94577 0.28581 0.28114 0.0
C4043 C 0.95461 0.2816 0.27684 0.0
C4044 C 0.96419 0.28248 0.28186 0.0
C4045 C 0.96471 0.28775 0.29125 0.0
C4046 C 0.95588 0.29196 0.29554 0.0
H4047 H 0.93021 0.315 0.27882 0.0
H4048 H 0.94246 0.3087 0.27977 0.0
H4049 H 0.93162 0.3022 0.27404 0.0
H4050 H 0.93846 0.28482 0.27723 0.0
H4051 H 0.95389 0.27745 0.26968 0.0
H4052 H 0.80952 0.39259 0.69555 0.0
H4053 H 0.80069 0.40769 0.70208 0.0
H4054 H 0.82277 0.41004 0.72677 0.0
H4055 H 0.83151 0.39488 0.72047 0.0
H4056 H 0.79209 0.41093 0.72229 0.0
H4057 H 0.82331 0.43885 0.71303 0.0
H4058 H 0.82254 0.42625 0.70737 0.0
H4059 H 0.82732 0.4278 0.72024 0.0
C4060 C 0.81246 0.39625 0.70242 0.0
C4061 C 0.8213 0.39253 0.70742 0.0
C4062 C 0.80742 0.40492 0.70611 0.0
C4063 C 0.81117 0.41008 0.71481 0.0
C4064 C 0.81988 0.40631 0.71991 0.0
H4065 H 0.79512 0.46369 0.74983 0.0
H4066 H 0.80282 0.44829 0.74274 0.0
C4067 C 0.82489 0.39764 0.71626 0.0
C4068 C 0.80594 0.41935 0.71867 0.0
H4069 H 0.80965 0.4449 0.72326 0.0
C4070 C 0.79588 0.41838 0.72244 0.0
C4071 C 0.81092 0.42905 0.71888 0.0
C4072 C 0.82159 0.43062 0.71459 0.0
C4073 C 0.79078 0.42679 0.7267 0.0
C4074 C 0.79579 0.43649 0.72697 0.0
C4075 C 0.80581 0.43747 0.72308 0.0
C4076 C 0.79087 0.44571 0.73139 0.0
C4077 C 0.7802 0.42513 0.73116 0.0
C4078 C 0.78161 0.44946 0.72734 0.0
C4079 C 0.77711 0.45822 0.73146 0.0
C4080 C 0.78183 0.46349 0.73967 0.0
C4081 C 0.79116 0.45975 0.74364 0.0
C4082 C 0.79563 0.45098 0.73953 0.0
H4083 H 0.77864 0.41691 0.73286 0.0
H4084 H 0.77925 0.42959 0.73832 0.0
H4085 H 0.77435 0.42774 0.72552 0.0
H4086 H 0.77789 0.44566 0.72092 0.0
H4087 H 0.7699 0.46081 0.72825 0.0
H4088 H 0.13118 0.32275 0.71411 0.0
H4089 H 0.11572 0.31638 0.72285 0.0
H4090 H 0.11179 0.29306 0.69981 0.0
H4091 H 0.12704 0.29949 0.69087 0.0
H4092 H 0.09502 0.31408 0.71435 0.0
H4093 H 0.11141 0.27715 0.72766 0.0
H4094 H 0.11935 0.28789 0.72363 0.0
H4095 H 0.11305 0.27995 0.71423 0.0
C4096 C 0.12699 0.31632 0.71084 0.0
C4097 C 0.13043 0.31161 0.7018 0.0
C4098 C 0.11819 0.31266 0.71588 0.0
C4099 C 0.1127 0.30416 0.71206 0.0
C4100 C 0.11603 0.2995 0.703 0.0
H4101 H 0.05894 0.26852 0.72923 0.0
H4102 H 0.0745 0.27567 0.72141 0.0
C4103 C 0.12479 0.30318 0.69793 0.0
C4104 C 0.10338 0.30025 0.7174 0.0
H4105 H 0.09347 0.27922 0.72976 0.0
C4106 C 0.09468 0.30649 0.71779 0.0
C4107 C 0.10297 0.29034 0.72184 0.0
C4108 C 0.11221 0.28345 0.72192 0.0
C4109 C 0.08546 0.30296 0.72226 0.0
C4110 C 0.08503 0.29302 0.72668 0.0
C4111 C 0.09379 0.28683 0.72637 0.0
C4112 C 0.07552 0.28878 0.73147 0.0
C4113 C 0.07619 0.3098 0.7219 0.0
C4114 C 0.07095 0.2937 0.73983 0.0
C4115 C 0.06196 0.28969 0.74425 0.0
C4116 C 0.05739 0.28062 0.74048 0.0
C4117 C 0.06211 0.27562 0.73222 0.0
C4118 C 0.07107 0.27965 0.72779 0.0
H4119 H 0.07696 0.31585 0.7159 0.0
H4120 H 0.06905 0.30529 0.72038 0.0
H4121 H 0.07537 0.31365 0.72942 0.0
H4122 H 0.07436 0.30063 0.74297 0.0
H4123 H 0.05853 0.2938 0.75054 0.0
H4124 H 0.89319 0.72152 0.69063 0.0
H4125 H 0.90858 0.72786 0.69951 0.0
H4126 H 0.904 0.70538 0.72347 0.0
H4127 H 0.88841 0.69913 0.71481 0.0
H4128 H 0.90978 0.73523 0.72105 0.0
H4129 H 0.9344 0.70161 0.71308 0.0
H4130 H 0.92304 0.70441 0.70559 0.0
H4131 H 0.92181 0.699 0.71822 0.0
C4132 C 0.89536 0.71798 0.69785 0.0
C4133 C 0.88952 0.7098 0.70199 0.0
C4134 C 0.9042 0.72158 0.70287 0.0
C4135 C 0.90746 0.71702 0.71208 0.0
C4136 C 0.90168 0.70889 0.71629 0.0
H4137 H 0.96208 0.7276 0.74986 0.0
H4138 H 0.94591 0.72103 0.74265 0.0
C4139 C 0.89279 0.70532 0.7113 0.0
C4140 C 0.91684 0.7209 0.71734 0.0
H4141 H 0.94162 0.71475 0.72327 0.0
C4142 C 0.91675 0.73077 0.72155 0.0
C4143 C 0.92587 0.71501 0.71803 0.0
C4144 C 0.92639 0.70444 0.71345 0.0
C4145 C 0.92546 0.73492 0.7265 0.0
C4146 C 0.9346 0.72913 0.72698 0.0
C4147 C 0.93463 0.71919 0.72287 0.0
C4148 C 0.94426 0.7333 0.73154 0.0
C4149 C 0.92473 0.74538 0.7313 0.0
C4150 C 0.94877 0.74234 0.72763 0.0
C4151 C 0.95794 0.74619 0.73182 0.0
C4152 C 0.96289 0.74101 0.73993 0.0
C4153 C 0.9584 0.73189 0.74375 0.0
C4154 C 0.9492 0.72807 0.73958 0.0
H4155 H 0.91663 0.74733 0.73305 0.0
H4156 H 0.92931 0.74584 0.7385 0.0
H4157 H 0.92774 0.75124 0.72585 0.0
H4158 H 0.94523 0.74638 0.72128 0.0
H4159 H 0.9611 0.75327 0.72874 0.0
H4160 H 0.69899 0.1907 0.61962 0.0
H4161 H 0.70596 0.19916 0.6043 0.0
H4162 H 0.72152 0.22143 0.62338 0.0
H4163 H 0.71466 0.21294 0.63874 0.0
H4164 H 0.7039 0.21861 0.59682 0.0
H4165 H 0.7449 0.21135 0.60593 0.0
H4166 H 0.73452 0.20514 0.61278 0.0
H4167 H 0.73829 0.21808 0.61584 0.0
C4168 C 0.70384 0.19744 0.62055 0.0
C4169 C 0.70633 0.2011 0.63041 0.0
C4170 C 0.70785 0.20225 0.61179 0.0
C4171 C 0.71443 0.21082 0.61268 0.0
C4172 C 0.7167 0.21467 0.6225 0.0
H4173 H 0.74598 0.24975 0.56782 0.0
H4174 H 0.73835 0.24242 0.58343 0.0
C4175 C 0.71275 0.20982 0.63127 0.0
C4176 C 0.71886 0.21574 0.60333 0.0
H4177 H 0.74155 0.22226 0.59169 0.0
C4178 C 0.71213 0.21938 0.59569 0.0
C4179 C 0.72961 0.21674 0.60184 0.0
C4180 C 0.73726 0.21254 0.60948 0.0
C4181 C 0.71585 0.22408 0.58668 0.0
C4182 C 0.72659 0.22508 0.58521 0.0
C4183 C 0.73332 0.22151 0.59286 0.0
C4184 C 0.73101 0.22963 0.5757 0.0
C4185 C 0.70827 0.22807 0.57887 0.0
C4186 C 0.72948 0.22482 0.56619 0.0
C4187 C 0.73383 0.22899 0.55726 0.0
C4188 C 0.7398 0.23805 0.55766 0.0
C4189 C 0.74132 0.24284 0.56722 0.0
C4190 C 0.73701 0.23863 0.57616 0.0
H4191 H 0.70048 0.22896 0.5822 0.0
H4192 H 0.71088 0.23558 0.5757 0.0
H4193 H 0.70765 0.22257 0.57242 0.0
H4194 H 0.725 0.21779 0.56568 0.0
H4195 H 0.73243 0.22515 0.55003 0.0
H4196 H 0.32194 0.21354 0.63314 0.0
H4197 H 0.31576 0.22243 0.61773 0.0
H4198 H 0.29256 0.19896 0.61336 0.0
H4199 H 0.29882 0.18986 0.62855 0.0
H4200 H 0.31365 0.21381 0.59682 0.0
H4201 H 0.27677 0.22689 0.61334 0.0
H4202 H 0.28756 0.22308 0.62122 0.0
H4203 H 0.27958 0.21353 0.61516 0.0
C4204 C 0.31558 0.2102 0.62886 0.0
C4205 C 0.31086 0.20098 0.63215 0.0
C4206 C 0.31203 0.21533 0.62009 0.0
C4207 C 0.30363 0.21141 0.61451 0.0
C4208 C 0.29895 0.2022 0.61769 0.0
H4209 H 0.26811 0.22846 0.56114 0.0
H4210 H 0.27523 0.22077 0.57673 0.0
C4211 C 0.30252 0.19703 0.6264 0.0
C4212 C 0.29984 0.21683 0.60524 0.0
H4213 H 0.27897 0.22921 0.59544 0.0
C4214 C 0.3061 0.21726 0.59651 0.0
C4215 C 0.28998 0.22127 0.60489 0.0
C4216 C 0.28308 0.22127 0.61416 0.0
C4217 C 0.30264 0.22175 0.58731 0.0
C4218 C 0.29274 0.22615 0.58693 0.0
C4219 C 0.28654 0.22583 0.59573 0.0
C4220 C 0.28854 0.23088 0.57741 0.0
C4221 C 0.30948 0.22141 0.57799 0.0
C4222 C 0.29358 0.2392 0.57266 0.0
C4223 C 0.2896 0.24353 0.56365 0.0
C4224 C 0.28042 0.2397 0.55926 0.0
C4225 C 0.27529 0.23148 0.56418 0.0
C4226 C 0.27931 0.22713 0.57315 0.0
H4227 H 0.31546 0.21544 0.57877 0.0
H4228 H 0.30493 0.21987 0.57092 0.0
H4229 H 0.31345 0.22893 0.57705 0.0
H4230 H 0.30059 0.24237 0.57594 0.0
H4231 H 0.2938 0.24979 0.56006 0.0
H4232 H 0.32242 0.8068 0.63212 0.0
H4233 H 0.31662 0.79815 0.61645 0.0
H4234 H 0.29711 0.82371 0.6092 0.0
H4235 H 0.30315 0.83257 0.62458 0.0
H4236 H 0.29706 0.79205 0.6108 0.0
H4237 H 0.31241 0.82006 0.58247 0.0
H4238 H 0.3163 0.82011 0.59579 0.0
H4239 H 0.30435 0.82582 0.59192 0.0
C4240 C 0.31702 0.81066 0.62712 0.0
C4241 C 0.31329 0.82042 0.62963 0.0
C4242 C 0.31365 0.80567 0.61819 0.0
C4243 C 0.30654 0.81034 0.61155 0.0
C4244 C 0.30276 0.82003 0.61407 0.0
H4245 H 0.27259 0.79414 0.55658 0.0
H4246 H 0.27971 0.80205 0.57209 0.0
C4247 C 0.30612 0.82503 0.62297 0.0
C4248 C 0.30283 0.80498 0.60215 0.0
H4249 H 0.30042 0.80762 0.57612 0.0
C4250 C 0.29787 0.79541 0.6032 0.0
C4251 C 0.3039 0.80936 0.59223 0.0
C4252 C 0.30962 0.81935 0.5905 0.0
C4253 C 0.29369 0.79025 0.59466 0.0
C4254 C 0.2946 0.79472 0.58478 0.0
C4255 C 0.29967 0.80423 0.58371 0.0
C4256 C 0.29022 0.78974 0.57546 0.0
C4257 C 0.28806 0.7802 0.59633 0.0
C4258 C 0.29382 0.78022 0.57214 0.0
C4259 C 0.28973 0.77564 0.56329 0.0
C4260 C 0.28197 0.78051 0.55756 0.0
C4261 C 0.27844 0.79009 0.56089 0.0
C4262 C 0.28255 0.79467 0.56972 0.0
H4263 H 0.28595 0.77901 0.60451 0.0
H4264 H 0.28095 0.77981 0.59158 0.0
H4265 H 0.29308 0.77381 0.59401 0.0
H4266 H 0.29985 0.77635 0.57636 0.0
H4267 H 0.29258 0.76824 0.561 0.0
H4268 H 0.69453 0.81176 0.62812 0.0
H4269 H 0.70114 0.8025 0.61329 0.0
H4270 H 0.73017 0.81856 0.61627 0.0
H4271 H 0.7238 0.82751 0.63131 0.0
H4272 H 0.70803 0.81023 0.5949 0.0
H4273 H 0.73933 0.78908 0.61436 0.0
H4274 H 0.7293 0.79541 0.62135 0.0
H4275 H 0.74008 0.80266 0.61643 0.0
C4276 C 0.70238 0.8132 0.62573 0.0
C4277 C 0.70863 0.82038 0.63095 0.0
C4278 C 0.70613 0.80795 0.6172 0.0
C4279 C 0.71621 0.80971 0.61375 0.0
C4280 C 0.72244 0.81691 0.61891 0.0
H4281 H 0.75339 0.79188 0.56219 0.0
H4282 H 0.74611 0.79944 0.57765 0.0
C4283 C 0.71872 0.82213 0.62744 0.0
C4284 C 0.72011 0.80434 0.60454 0.0
H4285 H 0.73965 0.78934 0.59603 0.0
C4286 C 0.71488 0.80558 0.59516 0.0
C4287 C 0.72906 0.79827 0.60489 0.0
C4288 C 0.73472 0.79618 0.61482 0.0
C4289 C 0.71854 0.80118 0.58607 0.0
C4290 C 0.72759 0.79527 0.5864 0.0
C4291 C 0.73274 0.79391 0.5958 0.0
C4292 C 0.73195 0.79059 0.57703 0.0
C4293 C 0.71285 0.80313 0.57614 0.0
C4294 C 0.72646 0.78301 0.57162 0.0
C4295 C 0.73059 0.77869 0.56275 0.0
C4296 C 0.7403 0.78186 0.55913 0.0
C4297 C 0.74583 0.78937 0.56467 0.0
C4298 C 0.74171 0.79365 0.57355 0.0
H4299 H 0.70746 0.80964 0.57678 0.0
H4300 H 0.71832 0.8048 0.56981 0.0
H4301 H 0.70832 0.79619 0.57405 0.0
H4302 H 0.71898 0.78041 0.57426 0.0
H4303 H 0.72609 0.77298 0.55865 0.0
H4304 H 0.70579 0.83333 0.40356 0.0
H4305 H 0.7122 0.82427 0.41878 0.0
H4306 H 0.71745 0.7974 0.40051 0.0
H4307 H 0.71121 0.80645 0.38521 0.0
H4308 H 0.70479 0.80498 0.42748 0.0
H4309 H 0.74556 0.80354 0.41489 0.0
H4310 H 0.7364 0.81223 0.40922 0.0
H4311 H 0.73611 0.7989 0.40586 0.0
C4312 C 0.70837 0.82552 0.40277 0.0
C4313 C 0.70805 0.82063 0.39317 0.0
C4314 C 0.71197 0.82034 0.41147 0.0
C4315 C 0.71541 0.81022 0.41073 0.0
C4316 C 0.71495 0.80525 0.40121 0.0
H4317 H 0.74413 0.76958 0.4556 0.0
H4318 H 0.73657 0.77699 0.44004 0.0
C4319 C 0.7113 0.81041 0.3925 0.0
C4320 C 0.71947 0.80489 0.41995 0.0
H4321 H 0.74142 0.79513 0.43044 0.0
C4322 C 0.71279 0.80282 0.42814 0.0
C4323 C 0.72991 0.80204 0.42074 0.0
C4324 C 0.73746 0.80434 0.41226 0.0
C4325 C 0.71626 0.79791 0.43712 0.0
C4326 C 0.72675 0.79523 0.43801 0.0
C4327 C 0.73339 0.7972 0.42975 0.0
C4328 C 0.73104 0.7906 0.44753 0.0
C4329 C 0.70861 0.79549 0.4455 0.0
C4330 C 0.73053 0.79584 0.45689 0.0
C4331 C 0.73475 0.79158 0.46582 0.0
C4332 C 0.73968 0.78204 0.46555 0.0
C4333 C 0.74025 0.77686 0.45613 0.0
C4334 C 0.736 0.78111 0.4472 0.0
H4335 H 0.70061 0.79519 0.44246 0.0
H4336 H 0.71032 0.78806 0.44929 0.0
H4337 H 0.70902 0.8016 0.45138 0.0
H4338 H 0.72694 0.80327 0.45729 0.0
H4339 H 0.73408 0.79575 0.47295 0.0
H4340 H 0.68946 0.21813 0.39484 0.0
H4341 H 0.69842 0.22456 0.41007 0.0
H4342 H 0.71994 0.19977 0.40824 0.0
H4343 H 0.71089 0.19313 0.39309 0.0
H4344 H 0.70202 0.2138 0.42905 0.0
H4345 H 0.73838 0.22595 0.40998 0.0
H4346 H 0.72662 0.22353 0.40291 0.0
H4347 H 0.73413 0.21301 0.40758 0.0
C4348 C 0.69604 0.21397 0.3977 0.0
C4349 C 0.69942 0.20508 0.39271 0.0
C4350 C 0.70119 0.2177 0.40638 0.0
C4351 C 0.70991 0.21271 0.41022 0.0
C4352 C 0.71334 0.20385 0.4053 0.0
H4353 H 0.75089 0.22645 0.46181 0.0
H4354 H 0.74253 0.21893 0.44671 0.0
C4355 C 0.70815 0.20007 0.39662 0.0
C4356 C 0.71523 0.21669 0.41953 0.0
H4357 H 0.73777 0.22748 0.42803 0.0
C4358 C 0.70984 0.2168 0.42884 0.0
C4359 C 0.72544 0.22054 0.41924 0.0
C4360 C 0.7315 0.22085 0.40939 0.0
C4361 C 0.71439 0.22059 0.43788 0.0
C4362 C 0.72455 0.22463 0.43756 0.0
C4363 C 0.72999 0.22441 0.42827 0.0
C4364 C 0.72961 0.22922 0.44675 0.0
C4365 C 0.70834 0.22004 0.44773 0.0
C4366 C 0.72522 0.23762 0.45173 0.0
C4367 C 0.72992 0.24187 0.46043 0.0
C4368 C 0.7392 0.2379 0.4643 0.0
C4369 C 0.74367 0.22961 0.45917 0.0
C4370 C 0.73894 0.22534 0.45048 0.0
H4371 H 0.70213 0.21413 0.44734 0.0
H4372 H 0.7134 0.21828 0.45439 0.0
H4373 H 0.70469 0.22755 0.44908 0.0
H4374 H 0.71815 0.2409 0.44888 0.0
H4375 H 0.7262 0.24819 0.46421 0.0
H4376 H 0.33024 0.22135 0.39584 0.0
H4377 H 0.32152 0.22771 0.41104 0.0
H4378 H 0.29943 0.20287 0.40901 0.0
H4379 H 0.3084 0.19616 0.39407 0.0
H4380 H 0.30192 0.23433 0.41326 0.0
H4381 H 0.30847 0.20074 0.43872 0.0
H4382 H 0.31513 0.20248 0.42671 0.0
H4383 H 0.30212 0.19764 0.42685 0.0
C4384 C 0.32363 0.21712 0.39871 0.0
C4385 C 0.32011 0.20816 0.39375 0.0
C4386 C 0.31859 0.22083 0.40736 0.0
C4387 C 0.30991 0.21568 0.41128 0.0
C4388 C 0.30624 0.20685 0.40627 0.0
H4389 H 0.26961 0.22914 0.46281 0.0
H4390 H 0.2773 0.22208 0.4473 0.0
C4391 C 0.31131 0.2031 0.39763 0.0
C4392 C 0.30464 0.21972 0.4205 0.0
H4393 H 0.29757 0.21366 0.44507 0.0
C4394 C 0.30099 0.22981 0.42022 0.0
C4395 C 0.30341 0.21382 0.42959 0.0
C4396 C 0.30756 0.2031 0.43056 0.0
C4397 C 0.29612 0.23415 0.42874 0.0
C4398 C 0.29495 0.22827 0.43782 0.0
C4399 C 0.29847 0.21814 0.43808 0.0
C4400 C 0.29029 0.23258 0.44722 0.0
C4401 C 0.29215 0.24494 0.42791 0.0
C4402 C 0.29512 0.24074 0.45239 0.0
C4403 C 0.29081 0.24474 0.46132 0.0
C4404 C 0.28156 0.24064 0.46528 0.0
C4405 C 0.27678 0.23241 0.46007 0.0
C4406 C 0.28113 0.2284 0.45117 0.0
H4407 H 0.2914 0.24749 0.41979 0.0
H4408 H 0.28455 0.24559 0.43169 0.0
H4409 H 0.29761 0.25024 0.43184 0.0
H4410 H 0.3023 0.24395 0.44959 0.0
H4411 H 0.29482 0.25092 0.46521 0.0
H4412 H 0.32602 0.8074 0.39194 0.0
H4413 H 0.31907 0.79812 0.40682 0.0
H4414 H 0.29544 0.82079 0.40983 0.0
H4415 H 0.30204 0.82985 0.39477 0.0
H4416 H 0.31683 0.80455 0.42675 0.0
H4417 H 0.27873 0.79438 0.41025 0.0
H4418 H 0.28926 0.79906 0.40247 0.0
H4419 H 0.28154 0.80787 0.4096 0.0
C4420 C 0.31926 0.81033 0.39567 0.0
C4421 C 0.31459 0.81938 0.3921 0.0
C4422 C 0.31534 0.80505 0.40422 0.0
C4423 C 0.30663 0.80866 0.40935 0.0
C4424 C 0.30203 0.81773 0.40589 0.0
H4425 H 0.27217 0.79311 0.46394 0.0
H4426 H 0.27941 0.80077 0.44835 0.0
C4427 C 0.30592 0.82299 0.39734 0.0
C4428 C 0.3025 0.80312 0.4185 0.0
H4429 H 0.28065 0.79216 0.42836 0.0
C4430 C 0.30895 0.80175 0.42707 0.0
C4431 C 0.29222 0.79945 0.41891 0.0
C4432 C 0.28506 0.80017 0.40978 0.0
C4433 C 0.3053 0.79712 0.43615 0.0
C4434 C 0.29496 0.79364 0.43662 0.0
C4435 C 0.28856 0.79488 0.428 0.0
C4436 C 0.29057 0.78886 0.44604 0.0
C4437 C 0.31244 0.79625 0.44527 0.0
C4438 C 0.29435 0.77954 0.44984 0.0
C4439 C 0.29017 0.77509 0.45872 0.0
C4440 C 0.28209 0.77985 0.46397 0.0
C4441 C 0.27828 0.78915 0.46005 0.0
C4442 C 0.28245 0.79358 0.45117 0.0
H4443 H 0.31934 0.80131 0.44445 0.0
H4444 H 0.30842 0.79825 0.45247 0.0
H4445 H 0.31509 0.78822 0.44598 0.0
H4446 H 0.30047 0.77565 0.44589 0.0
H4447 H 0.29318 0.76784 0.4614 0.0
H4448 H 0.61642 0.20228 0.68934 0.0
H4449 H 0.6016 0.20921 0.69837 0.0
H4450 H 0.62098 0.21652 0.72434 0.0
H4451 H 0.6359 0.20983 0.71526 0.0
H4452 H 0.59314 0.20346 0.7177 0.0
H4453 H 0.60698 0.24395 0.71739 0.0
H4454 H 0.61245 0.23426 0.70929 0.0
H4455 H 0.61583 0.23482 0.72266 0.0
C4456 C 0.61755 0.20543 0.69694 0.0
C4457 C 0.62738 0.20557 0.70154 0.0
C4458 C 0.60906 0.20932 0.70212 0.0
C4459 C 0.61021 0.21352 0.71196 0.0
C4460 C 0.61994 0.21347 0.71668 0.0
H4461 H 0.5669 0.24419 0.75226 0.0
H4462 H 0.58211 0.23624 0.74487 0.0
C4463 C 0.62845 0.20954 0.71152 0.0
C4464 C 0.6012 0.21796 0.71724 0.0
H4465 H 0.59159 0.2404 0.72635 0.0
C4466 C 0.59279 0.21153 0.71959 0.0
C4467 C 0.60078 0.22849 0.71974 0.0
C4468 C 0.60944 0.23583 0.71708 0.0
C4469 C 0.584 0.21534 0.72443 0.0
C4470 C 0.58351 0.22591 0.72679 0.0
C4471 C 0.59197 0.23231 0.72454 0.0
C4472 C 0.5742 0.23053 0.73138 0.0
C4473 C 0.57538 0.20797 0.72713 0.0
C4474 C 0.56471 0.23006 0.72621 0.0
C4475 C 0.55598 0.23453 0.73044 0.0
C4476 C 0.55657 0.23965 0.73991 0.0
C4477 C 0.56612 0.24018 0.74503 0.0
C4478 C 0.57485 0.2357 0.74079 0.0
H4479 H 0.57811 0.19994 0.72758 0.0
H4480 H 0.57183 0.20998 0.73457 0.0
H4481 H 0.56935 0.20833 0.72108 0.0
H4482 H 0.56405 0.22629 0.71884 0.0
H4483 H 0.54875 0.23389 0.72632 0.0
H4484 H 0.30568 0.13391 0.70264 0.0
H4485 H 0.29691 0.11835 0.70884 0.0
H4486 H 0.32392 0.11021 0.72624 0.0
H4487 H 0.33282 0.12559 0.71995 0.0
H4488 H 0.30343 0.09727 0.70687 0.0
H4489 H 0.30019 0.10943 0.74751 0.0
H4490 H 0.30274 0.11837 0.73717 0.0
H4491 H 0.31288 0.11054 0.74219 0.0
C4492 C 0.30979 0.12877 0.70772 0.0
C4493 C 0.31994 0.13105 0.71084 0.0
C4494 C 0.30475 0.11992 0.71129 0.0
C4495 C 0.30972 0.11323 0.71811 0.0
C4496 C 0.31987 0.11539 0.72115 0.0
H4497 H 0.29548 0.05648 0.7497 0.0
H4498 H 0.30309 0.07236 0.74293 0.0
C4499 C 0.32493 0.12421 0.71756 0.0
C4500 C 0.30438 0.10387 0.72195 0.0
H4501 H 0.29593 0.09209 0.74386 0.0
C4502 C 0.30171 0.09614 0.71494 0.0
C4503 C 0.30218 0.10245 0.73249 0.0
C4504 C 0.30456 0.11066 0.74029 0.0
C4505 C 0.29716 0.08688 0.71823 0.0
C4506 C 0.29502 0.08541 0.72879 0.0
C4507 C 0.29759 0.09321 0.73578 0.0
C4508 C 0.29032 0.07578 0.73281 0.0
C4509 C 0.29498 0.07862 0.71042 0.0
C4510 C 0.28055 0.07249 0.72947 0.0
C4511 C 0.27618 0.06341 0.73333 0.0
C4512 C 0.28145 0.0575 0.74069 0.0
C4513 C 0.29118 0.0609 0.74412 0.0
C4514 C 0.29556 0.06995 0.74022 0.0
H4515 H 0.29946 0.07986 0.70327 0.0
H4516 H 0.29681 0.07092 0.71358 0.0
H4517 H 0.28669 0.07868 0.70836 0.0
H4518 H 0.27626 0.07699 0.72395 0.0
H4519 H 0.2686 0.06109 0.73067 0.0
H4520 H 0.39546 0.80285 0.68977 0.0
H4521 H 0.41078 0.79668 0.69866 0.0
H4522 H 0.40534 0.81766 0.72345 0.0
H4523 H 0.38974 0.82361 0.71479 0.0
H4524 H 0.42828 0.80723 0.70447 0.0
H4525 H 0.40884 0.79061 0.73871 0.0
H4526 H 0.40189 0.7943 0.72727 0.0
H4527 H 0.40608 0.80386 0.73631 0.0
C4528 C 0.39741 0.80606 0.69719 0.0
C4529 C 0.39127 0.81367 0.7016 0.0
C4530 C 0.40623 0.80257 0.70222 0.0
C4531 C 0.40913 0.80658 0.7118 0.0
C4532 C 0.40315 0.8143 0.71616 0.0
H4533 H 0.4608 0.79304 0.75271 0.0
H4534 H 0.44554 0.8004 0.74455 0.0
C4535 C 0.39429 0.81779 0.71114 0.0
C4536 C 0.41853 0.80276 0.71708 0.0
H4537 H 0.42705 0.79075 0.73887 0.0
C4538 C 0.428 0.80362 0.71199 0.0
C4539 C 0.41818 0.79807 0.72691 0.0
C4540 C 0.4082 0.79655 0.7326 0.0
C4541 C 0.43712 0.79997 0.71646 0.0
C4542 C 0.43676 0.79517 0.72623 0.0
C4543 C 0.42732 0.79443 0.73139 0.0
C4544 C 0.44605 0.79072 0.73114 0.0
C4545 C 0.4471 0.80143 0.71075 0.0
C4546 C 0.45134 0.78273 0.72639 0.0
C4547 C 0.46009 0.77854 0.731 0.0
C4548 C 0.46373 0.78221 0.74051 0.0
C4549 C 0.45832 0.79013 0.74532 0.0
C4550 C 0.44955 0.79431 0.7407 0.0
H4551 H 0.44656 0.80761 0.70487 0.0
H4552 H 0.45352 0.80332 0.7161 0.0
H4553 H 0.44899 0.79421 0.70674 0.0
H4554 H 0.44868 0.7797 0.71911 0.0
H4555 H 0.46409 0.77251 0.72703 0.0
H4556 H 0.71347 0.88376 0.71277 0.0
H4557 H 0.72226 0.89904 0.71954 0.0
H4558 H 0.69665 0.91762 0.71011 0.0
H4559 H 0.68782 0.90241 0.70336 0.0
H4560 H 0.72834 0.91728 0.71014 0.0
H4561 H 0.69956 0.92463 0.7404 0.0
H4562 H 0.69992 0.91272 0.73343 0.0
H4563 H 0.6941 0.92385 0.72774 0.0
C4564 C 0.70975 0.89112 0.71206 0.0
C4565 C 0.6999 0.89185 0.70761 0.0
C4566 C 0.71476 0.89983 0.71597 0.0
C4567 C 0.71002 0.90944 0.71552 0.0
C4568 C 0.70033 0.91025 0.7108 0.0
H4569 H 0.72536 0.97135 0.73416 0.0
H4570 H 0.71771 0.95572 0.72698 0.0
C4571 C 0.6953 0.90154 0.70693 0.0
C4572 C 0.71519 0.91863 0.71999 0.0
H4573 H 0.71211 0.93771 0.73754 0.0
C4574 C 0.72483 0.92172 0.71618 0.0
C4575 C 0.71061 0.9244 0.72789 0.0
C4576 C 0.70053 0.92119 0.73269 0.0
C4577 C 0.72989 0.93057 0.71986 0.0
C4578 C 0.72524 0.9364 0.72766 0.0
C4579 C 0.71565 0.93326 0.73153 0.0
C4580 C 0.7301 0.94587 0.73185 0.0
C4581 C 0.74004 0.93375 0.71519 0.0
C4582 C 0.73958 0.94551 0.73704 0.0
C4583 C 0.74395 0.95444 0.74122 0.0
C4584 C 0.7389 0.96389 0.74033 0.0
C4585 C 0.7294 0.96419 0.73511 0.0
C4586 C 0.72504 0.95527 0.73095 0.0
H4587 H 0.74134 0.92993 0.70771 0.0
H4588 H 0.74043 0.94218 0.714 0.0
H4589 H 0.74637 0.93158 0.72048 0.0
H4590 H 0.74352 0.9383 0.73802 0.0
H4591 H 0.75119 0.95389 0.74532 0.0
H4592 H 0.62009 0.81507 0.33414 0.0
H4593 H 0.60496 0.80875 0.32475 0.0
H4594 H 0.62379 0.80297 0.29831 0.0
H4595 H 0.63901 0.80911 0.30771 0.0
H4596 H 0.59685 0.81605 0.30525 0.0
H4597 H 0.60868 0.77521 0.30419 0.0
H4598 H 0.61435 0.78436 0.31298 0.0
H4599 H 0.618 0.78448 0.29971 0.0
C4600 C 0.62103 0.81238 0.32635 0.0
C4601 C 0.63077 0.81253 0.3217 0.0
C4602 C 0.61237 0.80884 0.32098 0.0
C4603 C 0.61329 0.80529 0.31089 0.0
C4604 C 0.62295 0.80556 0.30614 0.0
H4605 H 0.56827 0.7767 0.26975 0.0
H4606 H 0.58395 0.78417 0.27722 0.0
C4607 C 0.63162 0.80915 0.31149 0.0
C4608 C 0.6041 0.8013 0.30536 0.0
H4609 H 0.59332 0.77944 0.29555 0.0
C4610 C 0.59606 0.80805 0.30311 0.0
C4611 C 0.60315 0.79088 0.30254 0.0
C4612 C 0.61145 0.78326 0.30502 0.0
C4613 C 0.58708 0.80465 0.29808 0.0
C4614 C 0.58602 0.79417 0.29545 0.0
C4615 C 0.59414 0.78746 0.29757 0.0
C4616 C 0.57645 0.78994 0.29077 0.0
C4617 C 0.57888 0.81235 0.2955 0.0
C4618 C 0.56705 0.79062 0.29595 0.0
C4619 C 0.55807 0.78644 0.29166 0.0
C4620 C 0.55831 0.78139 0.28215 0.0
C4621 C 0.56777 0.78067 0.27701 0.0
C4622 C 0.57675 0.78487 0.2813 0.0
H4623 H 0.58208 0.82028 0.29517 0.0
H4624 H 0.57514 0.81058 0.28802 0.0
H4625 H 0.5729 0.81211 0.30155 0.0
H4626 H 0.56666 0.7943 0.30337 0.0
H4627 H 0.55092 0.78723 0.29579 0.0
H4628 H 0.72003 0.12578 0.33069 0.0
H4629 H 0.72641 0.11059 0.32204 0.0
H4630 H 0.70145 0.11227 0.3002 0.0
H4631 H 0.69526 0.12776 0.30853 0.0
H4632 H 0.71708 0.09202 0.31917 0.0
H4633 H 0.72601 0.10984 0.28139 0.0
H4634 H 0.72332 0.11734 0.29264 0.0
H4635 H 0.71297 0.11151 0.28546 0.0
C4636 C 0.71598 0.12305 0.32394 0.0
C4637 C 0.70717 0.1281 0.32027 0.0
C4638 C 0.7196 0.11429 0.31905 0.0
C4639 C 0.71452 0.11036 0.31036 0.0
C4640 C 0.70564 0.11527 0.30675 0.0
H4641 H 0.72576 0.05639 0.27276 0.0
H4642 H 0.71852 0.07174 0.28051 0.0
C4643 C 0.70203 0.12407 0.31162 0.0
C4644 C 0.71842 0.10099 0.30529 0.0
H4645 H 0.72751 0.09177 0.28258 0.0
C4646 C 0.71938 0.09198 0.31117 0.0
C4647 C 0.7214 0.10091 0.29484 0.0
C4648 C 0.72097 0.11043 0.28822 0.0
C4649 C 0.72319 0.08292 0.3069 0.0
C4650 C 0.72624 0.08288 0.29649 0.0
C4651 C 0.72516 0.09183 0.29056 0.0
C4652 C 0.73074 0.07366 0.29168 0.0
C4653 C 0.72379 0.07343 0.31354 0.0
C4654 C 0.74011 0.06975 0.29527 0.0
C4655 C 0.74432 0.06103 0.2908 0.0
C4656 C 0.73926 0.05603 0.28262 0.0
C4657 C 0.72993 0.06008 0.27896 0.0
C4658 C 0.72574 0.06883 0.28342 0.0
H4659 H 0.71882 0.07398 0.32042 0.0
H4660 H 0.72147 0.0665 0.30914 0.0
H4661 H 0.73183 0.07242 0.31619 0.0
H4662 H 0.74421 0.07349 0.30149 0.0
H4663 H 0.75161 0.05828 0.29369 0.0
H4664 H 0.39029 0.19307 0.30047 0.0
H4665 H 0.40555 0.2021 0.29409 0.0
H4666 H 0.40776 0.21902 0.32237 0.0
H4667 H 0.39273 0.20971 0.32901 0.0
H4668 H 0.40887 0.22269 0.29084 0.0
H4669 H 0.43666 0.20787 0.31967 0.0
H4670 H 0.42397 0.20235 0.31799 0.0
H4671 H 0.42569 0.21405 0.32507 0.0
C4672 C 0.3941 0.1986 0.30542 0.0
C4673 C 0.39032 0.20057 0.31531 0.0
C4674 C 0.40278 0.20382 0.30171 0.0
C4675 C 0.40791 0.21112 0.30781 0.0
C4676 C 0.40406 0.21326 0.31761 0.0
H4677 H 0.46269 0.24893 0.29645 0.0
H4678 H 0.44688 0.24144 0.30358 0.0
C4679 C 0.39538 0.20802 0.32134 0.0
C4680 C 0.41718 0.21656 0.30378 0.0
H4681 H 0.44285 0.22059 0.30815 0.0
C4682 C 0.4163 0.22222 0.29462 0.0
C4683 C 0.42688 0.21597 0.30874 0.0
C4684 C 0.42842 0.20966 0.31836 0.0
C4685 C 0.42482 0.22733 0.2903 0.0
C4686 C 0.43453 0.22665 0.29519 0.0
C4687 C 0.4354 0.22111 0.30442 0.0
C4688 C 0.44395 0.2314 0.29071 0.0
C4689 C 0.42334 0.23353 0.2806 0.0
C4690 C 0.44758 0.22818 0.28114 0.0
C4691 C 0.45659 0.23246 0.27703 0.0
C4692 C 0.46217 0.24003 0.28243 0.0
C4693 C 0.4585 0.24322 0.29202 0.0
C4694 C 0.44951 0.23891 0.29615 0.0
H4695 H 0.41514 0.23553 0.27937 0.0
H4696 H 0.42801 0.24071 0.28079 0.0
H4697 H 0.42585 0.22895 0.27393 0.0
H4698 H 0.44351 0.22227 0.27689 0.0
H4699 H 0.45914 0.22988 0.26959 0.0
H4700 H 0.30793 0.88353 0.30484 0.0
H4701 H 0.2996 0.8991 0.29849 0.0
H4702 H 0.32057 0.9176 0.31647 0.0
H4703 H 0.32904 0.90209 0.32274 0.0
H4704 H 0.29033 0.91567 0.31033 0.0
H4705 H 0.32334 0.92868 0.28641 0.0
H4706 H 0.32197 0.91564 0.29099 0.0
H4707 H 0.32631 0.92555 0.29955 0.0
C4708 C 0.3108 0.89091 0.30741 0.0
C4709 C 0.31919 0.89156 0.31426 0.0
C4710 C 0.30599 0.8998 0.30382 0.0
C4711 C 0.30955 0.9095 0.30692 0.0
C4712 C 0.31779 0.91019 0.31389 0.0
H4713 H 0.2942 0.97205 0.29009 0.0
H4714 H 0.30171 0.95648 0.29734 0.0
C4715 C 0.32256 0.90131 0.31754 0.0
C4716 C 0.30469 0.91892 0.30278 0.0
H4717 H 0.30933 0.93994 0.28766 0.0
C4718 C 0.29446 0.92098 0.30535 0.0
C4719 C 0.31011 0.92583 0.29631 0.0
C4720 C 0.32102 0.92382 0.29306 0.0
C4721 C 0.28955 0.92987 0.30177 0.0
C4722 C 0.29495 0.93676 0.29524 0.0
C4723 C 0.30519 0.93467 0.29267 0.0
C4724 C 0.29017 0.94621 0.29099 0.0
C4725 C 0.27872 0.93192 0.30526 0.0
C4726 C 0.28122 0.94564 0.28491 0.0
C4727 C 0.2769 0.95454 0.28077 0.0
C4728 C 0.28151 0.96419 0.2825 0.0
C4729 C 0.29051 0.96473 0.28852 0.0
C4730 C 0.29479 0.95584 0.29271 0.0
H4731 H 0.27683 0.92764 0.31241 0.0
H4732 H 0.27757 0.94023 0.30662 0.0
H4733 H 0.27323 0.92939 0.29921 0.0
H4734 H 0.27766 0.93828 0.28324 0.0
H4735 H 0.27006 0.95384 0.27603 0.0
H4736 H 0.71289 0.13682 0.71217 0.0
H4737 H 0.72209 0.12177 0.71855 0.0
H4738 H 0.69659 0.10233 0.70956 0.0
H4739 H 0.68744 0.11728 0.70297 0.0
H4740 H 0.71546 0.10795 0.73402 0.0
H4741 H 0.72148 0.0879 0.69712 0.0
H4742 H 0.71808 0.10127 0.69776 0.0
H4743 H 0.70839 0.09145 0.6994 0.0
C4744 C 0.7093 0.12932 0.7114 0.0
C4745 C 0.69942 0.12827 0.70704 0.0
C4746 C 0.71455 0.12074 0.71511 0.0
C4747 C 0.71008 0.11091 0.71443 0.0
C4748 C 0.70026 0.10982 0.71002 0.0
H4749 H 0.725 0.04943 0.73426 0.0
H4750 H 0.71734 0.06495 0.72709 0.0
C4751 C 0.69499 0.11839 0.70636 0.0
C4752 C 0.71548 0.10184 0.71871 0.0
H4753 H 0.72493 0.07839 0.71237 0.0
C4754 C 0.71761 0.10152 0.72928 0.0
C4755 C 0.71825 0.09345 0.71252 0.0
C4756 C 0.71653 0.09353 0.70105 0.0
C4757 C 0.72218 0.09291 0.73388 0.0
C4758 C 0.72488 0.08447 0.7277 0.0
C4759 C 0.72284 0.08485 0.71711 0.0
C4760 C 0.72963 0.07509 0.73211 0.0
C4761 C 0.72376 0.0928 0.74537 0.0
C4762 C 0.73915 0.0756 0.73722 0.0
C4763 C 0.74352 0.06674 0.74142 0.0
C4764 C 0.73848 0.05717 0.74053 0.0
C4765 C 0.72901 0.05668 0.73526 0.0
C4766 C 0.72465 0.06554 0.73108 0.0
H4767 H 0.71894 0.09858 0.74924 0.0
H4768 H 0.72193 0.08512 0.74865 0.0
H4769 H 0.73193 0.09463 0.74713 0.0
H4770 H 0.74323 0.08285 0.73795 0.0
H4771 H 0.75079 0.06742 0.74547 0.0
H4772 H 0.7072 0.88234 0.29896 0.0
H4773 H 0.71603 0.89776 0.29257 0.0
H4774 H 0.70764 0.91392 0.32003 0.0
H4775 H 0.69885 0.89852 0.32649 0.0
H4776 H 0.70778 0.91651 0.2884 0.0
H4777 H 0.73819 0.92035 0.31821 0.0
H4778 H 0.73055 0.9088 0.31669 0.0
H4779 H 0.72541 0.91963 0.32334 0.0
C4780 C 0.70725 0.88918 0.30365 0.0
C4781 C 0.70234 0.8892 0.31324 0.0
C4782 C 0.71233 0.89797 0.3 0.0
C4783 C 0.71263 0.90695 0.30588 0.0
C4784 C 0.70774 0.90701 0.31547 0.0
H4785 H 0.73385 0.96935 0.29508 0.0
H4786 H 0.72639 0.95346 0.30199 0.0
C4787 C 0.7027 0.8982 0.31914 0.0
C4788 C 0.71763 0.91639 0.30175 0.0
H4789 H 0.7362 0.93447 0.30673 0.0
C4790 C 0.71404 0.92039 0.29238 0.0
C4791 C 0.72579 0.92147 0.30695 0.0
C4792 C 0.73029 0.9173 0.3168 0.0
C4793 C 0.71826 0.92943 0.28816 0.0
C4794 C 0.72637 0.93453 0.29339 0.0
C4795 C 0.72997 0.93054 0.30275 0.0
C4796 C 0.73116 0.94407 0.28929 0.0
C4797 C 0.71384 0.93358 0.27826 0.0
C4798 C 0.73647 0.94401 0.27993 0.0
C4799 C 0.7408 0.95306 0.27599 0.0
C4800 C 0.73994 0.96235 0.28134 0.0
C4801 C 0.73475 0.96233 0.2908 0.0
C4802 C 0.73044 0.95326 0.29475 0.0
H4803 H 0.70617 0.93016 0.27651 0.0
H4804 H 0.7131 0.94205 0.27859 0.0
H4805 H 0.71907 0.93174 0.27185 0.0
H4806 H 0.73728 0.93694 0.2757 0.0
H4807 H 0.7449 0.95276 0.26878 0.0
H4808 H 0.62527 0.18883 0.30106 0.0
H4809 H 0.61004 0.1978 0.29493 0.0
H4810 H 0.61341 0.21968 0.31944 0.0
H4811 H 0.62895 0.21102 0.32538 0.0
H4812 H 0.5919 0.20121 0.30456 0.0
H4813 H 0.61065 0.2384 0.29468 0.0
H4814 H 0.6179 0.22699 0.29739 0.0
H4815 H 0.61269 0.23436 0.30772 0.0
C4816 C 0.6229 0.19565 0.30507 0.0
C4817 C 0.62844 0.19924 0.31367 0.0
C4818 C 0.61412 0.20073 0.30159 0.0
C4819 C 0.61066 0.20952 0.30661 0.0
C4820 C 0.61605 0.21304 0.3153 0.0
H4821 H 0.55726 0.2483 0.29582 0.0
H4822 H 0.57269 0.24026 0.30289 0.0
C4823 C 0.62487 0.20799 0.31877 0.0
C4824 C 0.60128 0.21482 0.30283 0.0
H4825 H 0.59245 0.23768 0.29356 0.0
C4826 C 0.59203 0.20918 0.30214 0.0
C4827 C 0.60144 0.22523 0.29968 0.0
C4828 C 0.61121 0.23159 0.29981 0.0
C4829 C 0.58296 0.21366 0.29844 0.0
C4830 C 0.58314 0.22403 0.29523 0.0
C4831 C 0.59233 0.22973 0.29603 0.0
C4832 C 0.5739 0.22904 0.29081 0.0
C4833 C 0.5732 0.20728 0.29813 0.0
C4834 C 0.56957 0.22553 0.28157 0.0
C4835 C 0.56081 0.23016 0.27745 0.0
C4836 C 0.55618 0.23843 0.28248 0.0
C4837 C 0.56066 0.24203 0.29167 0.0
C4838 C 0.56945 0.23741 0.29577 0.0
H4839 H 0.57372 0.2004 0.30317 0.0
H4840 H 0.56649 0.21186 0.30051 0.0
H4841 H 0.57181 0.20463 0.29015 0.0
H4842 H 0.57301 0.21923 0.2775 0.0
H4843 H 0.55772 0.22731 0.27026 0.0
H4844 H 0.30105 0.12484 0.33491 0.0
H4845 H 0.29475 0.10961 0.3259 0.0
H4846 H 0.31388 0.1173 0.29999 0.0
H4847 H 0.32011 0.13269 0.30886 0.0
H4848 H 0.28452 0.10875 0.30647 0.0
H4849 H 0.3211 0.08713 0.30653 0.0
H4850 H 0.319 0.0979 0.31488 0.0
H4851 H 0.32188 0.09999 0.30155 0.0
C4852 C 0.30388 0.12336 0.32726 0.0
C4853 C 0.31109 0.13003 0.32262 0.0
C4854 C 0.3003 0.11461 0.32215 0.0
C4855 C 0.30393 0.11226 0.31233 0.0
C4856 C 0.31112 0.11887 0.30764 0.0
H4857 H 0.29042 0.06138 0.2709 0.0
H4858 H 0.29715 0.07708 0.27882 0.0
C4859 C 0.31469 0.12766 0.31274 0.0
C4860 C 0.29996 0.10301 0.30692 0.0
H4861 H 0.30707 0.07977 0.29748 0.0
C4862 C 0.28944 0.10241 0.30451 0.0
C4863 C 0.30641 0.09477 0.30433 0.0
C4864 C 0.31771 0.09489 0.30701 0.0
C4865 C 0.2852 0.09381 0.29951 0.0
C4866 C 0.29161 0.08549 0.29706 0.0
C4867 C 0.30216 0.08615 0.29937 0.0
C4868 C 0.28749 0.07596 0.29226 0.0
C4869 C 0.27391 0.09381 0.29675 0.0
C4870 C 0.27993 0.07003 0.29725 0.0
C4871 C 0.27608 0.06104 0.29276 0.0
C4872 C 0.27978 0.05774 0.28321 0.0
C4873 C 0.28745 0.06364 0.2783 0.0
C4874 C 0.29128 0.07265 0.28279 0.0
H4875 H 0.27083 0.10171 0.29644 0.0
H4876 H 0.27252 0.09009 0.28921 0.0
H4877 H 0.26955 0.08946 0.30267 0.0
H4878 H 0.27707 0.07229 0.30469 0.0
H4879 H 0.27032 0.05659 0.29686 0.0
H4880 H 0.40266 0.82212 0.32853 0.0
H4881 H 0.4181 0.8157 0.32012 0.0
H4882 H 0.39915 0.79886 0.29866 0.0
H4883 H 0.38366 0.80534 0.30693 0.0
H4884 H 0.42314 0.79429 0.31766 0.0
H4885 H 0.42008 0.81493 0.28033 0.0
H4886 H 0.41333 0.81896 0.29167 0.0
H4887 H 0.40869 0.80815 0.28445 0.0
C4888 C 0.40177 0.81717 0.32192 0.0
C4889 C 0.39192 0.81427 0.31838 0.0
C4890 C 0.4106 0.81347 0.31717 0.0
C4891 C 0.40977 0.80689 0.30871 0.0
C4892 C 0.39997 0.80404 0.30509 0.0
H4893 H 0.45432 0.77569 0.27052 0.0
H4894 H 0.43874 0.78276 0.27809 0.0
C4895 C 0.39113 0.80768 0.30988 0.0
C4896 C 0.41917 0.80267 0.30395 0.0
H4897 H 0.43314 0.80253 0.28181 0.0
C4898 C 0.42536 0.79611 0.30983 0.0
C4899 C 0.42199 0.805 0.29373 0.0
C4900 C 0.41574 0.81221 0.28716 0.0
C4901 C 0.43424 0.79171 0.30572 0.0
C4902 C 0.43716 0.79414 0.29552 0.0
C4903 C 0.43092 0.80067 0.28963 0.0
C4904 C 0.44666 0.79 0.29084 0.0
C4905 C 0.44025 0.78429 0.31227 0.0
C4906 C 0.45632 0.79187 0.29537 0.0
C4907 C 0.46523 0.78781 0.29107 0.0
C4908 C 0.46468 0.78191 0.28207 0.0
C4909 C 0.45502 0.78026 0.27741 0.0
C4910 C 0.4461 0.78427 0.28175 0.0
H4911 H 0.43547 0.78099 0.31855 0.0
H4912 H 0.44328 0.77791 0.3076 0.0
H4913 H 0.44686 0.7884 0.31585 0.0
H4914 H 0.457 0.79651 0.30221 0.0
H4915 H 0.47256 0.7894 0.29474 0.0
H4916 H 0.31329 0.884 0.72185 0.0
H4917 H 0.30486 0.89945 0.72801 0.0
H4918 H 0.31564 0.91616 0.70142 0.0
H4919 H 0.32408 0.90073 0.6952 0.0
H4920 H 0.31372 0.91793 0.73304 0.0
H4921 H 0.28534 0.92332 0.70158 0.0
H4922 H 0.29231 0.91155 0.70333 0.0
H4923 H 0.29838 0.92244 0.69727 0.0
C4924 C 0.31386 0.89096 0.7173 0.0
C4925 C 0.31936 0.89111 0.70802 0.0
C4926 C 0.309 0.89978 0.72082 0.0
C4927 C 0.30948 0.90894 0.71512 0.0
C4928 C 0.31494 0.90912 0.70584 0.0
H4929 H 0.28878 0.97116 0.72612 0.0
H4930 H 0.29642 0.9556 0.71922 0.0
C4931 C 0.31977 0.90029 0.70229 0.0
C4932 C 0.30467 0.91839 0.71916 0.0
H4933 H 0.28705 0.93689 0.7136 0.0
C4934 C 0.30785 0.92204 0.72881 0.0
C4935 C 0.29703 0.92379 0.71362 0.0
C4936 C 0.29298 0.92004 0.70342 0.0
C4937 C 0.30372 0.93099 0.73301 0.0
C4938 C 0.29607 0.93637 0.72749 0.0
C4939 C 0.29291 0.93276 0.71782 0.0
C4940 C 0.29125 0.94576 0.73163 0.0
C4941 C 0.30775 0.93472 0.74323 0.0
C4942 C 0.28566 0.94538 0.74082 0.0
C4943 C 0.28125 0.95425 0.74477 0.0
C4944 C 0.28227 0.9637 0.73958 0.0
C4945 C 0.28775 0.96401 0.73028 0.0
C4946 C 0.29216 0.95513 0.72634 0.0
H4947 H 0.31532 0.93135 0.74515 0.0
H4948 H 0.30854 0.94321 0.74327 0.0
H4949 H 0.30225 0.93245 0.74934 0.0
H4950 H 0.28466 0.93819 0.74492 0.0
H4951 H 0.27692 0.95368 0.75184 0.0
H4952 H 0.61965 0.81207 0.687 0.0
H4953 H 0.60438 0.80577 0.69603 0.0
H4954 H 0.62097 0.80697 0.72475 0.0
H4955 H 0.63631 0.81326 0.71577 0.0
H4956 H 0.60208 0.78808 0.7075 0.0
H4957 H 0.59464 0.8223 0.73136 0.0
H4958 H 0.60327 0.82263 0.72055 0.0
H4959 H 0.60741 0.81735 0.73265 0.0
C4960 C 0.62007 0.81098 0.69524 0.0
C4961 C 0.62922 0.81318 0.70065 0.0
C4962 C 0.61131 0.80741 0.70039 0.0
C4963 C 0.61148 0.80601 0.71108 0.0
C4964 C 0.62058 0.8082 0.71653 0.0
H4965 H 0.56705 0.76916 0.74581 0.0
H4966 H 0.58258 0.77602 0.73758 0.0
C4967 C 0.62935 0.8118 0.71138 0.0
C4968 C 0.60221 0.80192 0.71643 0.0
H4969 H 0.58459 0.80739 0.73494 0.0
C4970 C 0.59825 0.7923 0.7135 0.0
C4971 C 0.59716 0.80749 0.72418 0.0
C4972 C 0.60076 0.81805 0.72733 0.0
C4973 C 0.58943 0.78807 0.71814 0.0
C4974 C 0.58452 0.79352 0.72606 0.0
C4975 C 0.58842 0.80318 0.72893 0.0
C4976 C 0.57518 0.78944 0.73127 0.0
C4977 C 0.58532 0.77789 0.71437 0.0
C4978 C 0.56591 0.79482 0.73067 0.0
C4979 C 0.55702 0.79092 0.73536 0.0
C4980 C 0.55722 0.78157 0.7408 0.0
C4981 C 0.56657 0.77628 0.74153 0.0
C4982 C 0.57546 0.78019 0.73683 0.0
H4983 H 0.58837 0.77597 0.70668 0.0
H4984 H 0.58766 0.77175 0.71981 0.0
H4985 H 0.57678 0.77789 0.71395 0.0
H4986 H 0.56552 0.80197 0.72643 0.0
H4987 H 0.54995 0.79515 0.73455 0.0
H4988 H 0.38299 0.21279 0.71454 0.0
H4989 H 0.3984 0.2195 0.72321 0.0
H4990 H 0.41661 0.21218 0.69672 0.0
H4991 H 0.40125 0.20551 0.68799 0.0
H4992 H 0.41677 0.21026 0.72834 0.0
H4993 H 0.4235 0.24234 0.70096 0.0
H4994 H 0.41162 0.23505 0.70123 0.0
H4995 H 0.42274 0.23003 0.69491 0.0
C4996 C 0.39029 0.21255 0.71059 0.0
C4997 C 0.39088 0.2087 0.70054 0.0
C4998 C 0.39908 0.21642 0.71554 0.0
C4999 C 0.40862 0.21653 0.71053 0.0
C5000 C 0.40928 0.21242 0.70062 0.0
H5001 H 0.47081 0.23526 0.72575 0.0
H5002 H 0.4551 0.22821 0.71802 0.0
C5003 C 0.4005 0.2086 0.69565 0.0
C5004 C 0.41788 0.2209 0.71568 0.0
H5005 H 0.43684 0.23907 0.71306 0.0
C5006 C 0.42113 0.2166 0.72504 0.0
C5007 C 0.42353 0.22919 0.71137 0.0
C5008 C 0.42013 0.2345 0.70162 0.0
C5009 C 0.43003 0.22022 0.73008 0.0
C5010 C 0.43575 0.22841 0.72569 0.0
C5011 C 0.43246 0.23275 0.71638 0.0
C5012 C 0.44525 0.23254 0.73056 0.0
C5013 C 0.43339 0.21508 0.73993 0.0
C5014 C 0.44489 0.2374 0.74013 0.0
C5015 C 0.45386 0.24152 0.74454 0.0
C5016 C 0.46334 0.2409 0.73943 0.0
C5017 C 0.46363 0.23601 0.72983 0.0
C5018 C 0.45467 0.23192 0.72543 0.0
H5019 H 0.42952 0.20752 0.74106 0.0
H5020 H 0.44185 0.21397 0.74002 0.0
H5021 H 0.43142 0.22004 0.74651 0.0
H5022 H 0.43766 0.23814 0.74413 0.0
H5023 H 0.45332 0.24537 0.75186 0.0
H5024 H 0.72174 0.69173 0.12967 0.0
H5025 H 0.72826 0.70053 0.11439 0.0
H5026 H 0.70009 0.71746 0.11191 0.0
H5027 H 0.6934 0.70856 0.12713 0.0
H5028 H 0.71941 0.70064 0.09445 0.0
H5029 H 0.72269 0.73995 0.1105 0.0
H5030 H 0.72138 0.72868 0.11853 0.0
H5031 H 0.71036 0.73375 0.11196 0.0
C5032 C 0.71688 0.69727 0.12586 0.0
C5033 C 0.70701 0.6994 0.12965 0.0
C5034 C 0.72066 0.70234 0.11715 0.0
C5035 C 0.71472 0.70973 0.11207 0.0
C5036 C 0.70489 0.71192 0.11582 0.0
H5037 H 0.72651 0.74703 0.05731 0.0
H5038 H 0.71899 0.73912 0.07269 0.0
C5039 C 0.70108 0.70683 0.12454 0.0
C5040 C 0.71875 0.71487 0.10268 0.0
H5041 H 0.72623 0.73811 0.09281 0.0
C5042 C 0.72092 0.70883 0.09409 0.0
C5043 C 0.72064 0.72557 0.10221 0.0
C5044 C 0.71874 0.73239 0.1113 0.0
C5045 C 0.72489 0.71319 0.08503 0.0
C5046 C 0.72696 0.72386 0.08461 0.0
C5047 C 0.72467 0.72993 0.09315 0.0
C5048 C 0.73165 0.72883 0.07542 0.0
C5049 C 0.72665 0.70633 0.07592 0.0
C5050 C 0.74136 0.72583 0.07195 0.0
C5051 C 0.74569 0.73034 0.06319 0.0
C5052 C 0.74044 0.73803 0.05773 0.0
C5053 C 0.73081 0.74119 0.06137 0.0
C5054 C 0.72648 0.73665 0.07013 0.0
H5055 H 0.72204 0.69912 0.07646 0.0
H5056 H 0.72468 0.7103 0.06862 0.0
H5057 H 0.73489 0.70424 0.07567 0.0
H5058 H 0.74563 0.72 0.07605 0.0
H5059 H 0.7532 0.72787 0.06074 0.0
H5060 H 0.30031 0.71206 0.14005 0.0
H5061 H 0.29407 0.72044 0.12433 0.0
H5062 H 0.31553 0.70318 0.10643 0.0
H5063 H 0.32179 0.69473 0.12208 0.0
H5064 H 0.30745 0.7317 0.10808 0.0
H5065 H 0.28513 0.69769 0.09438 0.0
H5066 H 0.28843 0.69949 0.10775 0.0
H5067 H 0.29809 0.69563 0.09883 0.0
C5068 C 0.30369 0.71004 0.13276 0.0
C5069 C 0.31153 0.70272 0.13229 0.0
C5070 C 0.30015 0.71487 0.12381 0.0
C5071 C 0.30431 0.71236 0.11425 0.0
C5072 C 0.31221 0.70517 0.11375 0.0
H5073 H 0.28845 0.7274 0.05126 0.0
H5074 H 0.29556 0.7201 0.06709 0.0
C5075 C 0.31581 0.7004 0.1227 0.0
C5076 C 0.30027 0.71715 0.10475 0.0
H5077 H 0.28576 0.71211 0.08343 0.0
C5078 C 0.30269 0.72746 0.10268 0.0
C5079 C 0.29412 0.71154 0.09774 0.0
C5080 C 0.2912 0.70048 0.09975 0.0
C5081 C 0.29923 0.73229 0.09365 0.0
C5082 C 0.29296 0.72671 0.08666 0.0
C5083 C 0.29055 0.71639 0.08878 0.0
C5084 C 0.28884 0.73138 0.07708 0.0
C5085 C 0.30257 0.74322 0.09156 0.0
C5086 C 0.28262 0.74011 0.07742 0.0
C5087 C 0.2786 0.74432 0.06837 0.0
C5088 C 0.28057 0.73979 0.05882 0.0
C5089 C 0.28672 0.73101 0.05851 0.0
C5090 C 0.29081 0.72685 0.06754 0.0
H5091 H 0.30963 0.74531 0.09596 0.0
H5092 H 0.30406 0.74451 0.08327 0.0
H5093 H 0.29638 0.74846 0.09396 0.0
H5094 H 0.28075 0.74357 0.0847 0.0
H5095 H 0.27376 0.751 0.06887 0.0
H5096 H 0.31723 0.33344 0.11808 0.0
H5097 H 0.31056 0.32438 0.103 0.0
H5098 H 0.30443 0.29762 0.12166 0.0
H5099 H 0.31086 0.30671 0.13684 0.0
H5100 H 0.31698 0.30584 0.09405 0.0
H5101 H 0.27657 0.30328 0.10756 0.0
H5102 H 0.286 0.31175 0.11334 0.0
H5103 H 0.28598 0.2983 0.11635 0.0
C5104 C 0.3144 0.32565 0.119 0.0
C5105 C 0.31451 0.32084 0.1287 0.0
C5106 C 0.31065 0.32046 0.11035 0.0
C5107 C 0.30686 0.31037 0.11122 0.0
C5108 C 0.30716 0.30545 0.12083 0.0
H5109 H 0.29298 0.26888 0.06034 0.0
H5110 H 0.30024 0.27704 0.07567 0.0
C5111 C 0.31094 0.31063 0.12949 0.0
C5112 C 0.30255 0.30506 0.10206 0.0
H5113 H 0.28042 0.29466 0.09214 0.0
C5114 C 0.30899 0.30337 0.09363 0.0
C5115 C 0.2921 0.30197 0.10148 0.0
C5116 C 0.28471 0.30398 0.11012 0.0
C5117 C 0.30527 0.2986 0.08467 0.0
C5118 C 0.29487 0.29533 0.08417 0.0
C5119 C 0.28841 0.29709 0.09257 0.0
C5120 C 0.29045 0.29031 0.07489 0.0
C5121 C 0.31246 0.29731 0.07572 0.0
C5122 C 0.28236 0.29493 0.06947 0.0
C5123 C 0.2782 0.2903 0.06069 0.0
C5124 C 0.28198 0.28089 0.05717 0.0
C5125 C 0.29 0.27621 0.06271 0.0
C5126 C 0.29416 0.28086 0.07149 0.0
H5127 H 0.31938 0.30235 0.07639 0.0
H5128 H 0.31507 0.28924 0.07549 0.0
H5129 H 0.30851 0.29903 0.06835 0.0
H5130 H 0.27936 0.30222 0.07196 0.0
H5131 H 0.27212 0.2942 0.05656 0.0
H5132 H 0.69379 0.31152 0.1273 0.0
H5133 H 0.70047 0.30229 0.11248 0.0
H5134 H 0.72919 0.31897 0.1151 0.0
H5135 H 0.72275 0.32791 0.13011 0.0
H5136 H 0.70716 0.31002 0.09393 0.0
H5137 H 0.73887 0.28959 0.11352 0.0
H5138 H 0.72872 0.29577 0.12047 0.0
H5139 H 0.73935 0.30319 0.11548 0.0
C5140 C 0.70158 0.31311 0.12483 0.0
C5141 C 0.70773 0.32046 0.12994 0.0
C5142 C 0.70537 0.30787 0.11631 0.0
C5143 C 0.71539 0.30981 0.11277 0.0
C5144 C 0.72151 0.31718 0.1178 0.0
H5145 H 0.75287 0.292 0.06142 0.0
H5146 H 0.74546 0.2996 0.0768 0.0
C5147 C 0.71775 0.3224 0.12632 0.0
C5148 C 0.71936 0.30441 0.1036 0.0
H5149 H 0.73913 0.28966 0.0952 0.0
C5150 C 0.71409 0.30549 0.09422 0.0
C5151 C 0.72841 0.29849 0.10399 0.0
C5152 C 0.73411 0.29659 0.11392 0.0
C5153 C 0.71781 0.30107 0.08516 0.0
C5154 C 0.72695 0.29531 0.08553 0.0
C5155 C 0.73214 0.29412 0.09493 0.0
C5156 C 0.73138 0.29062 0.0762 0.0
C5157 C 0.71208 0.30287 0.07522 0.0
C5158 C 0.72598 0.28295 0.07082 0.0
C5159 C 0.73018 0.27862 0.06199 0.0
C5160 C 0.73988 0.28185 0.05838 0.0
C5161 C 0.74532 0.28944 0.06389 0.0
C5162 C 0.74113 0.29375 0.07272 0.0
H5163 H 0.70662 0.30932 0.07581 0.0
H5164 H 0.71752 0.30452 0.06886 0.0
H5165 H 0.70761 0.29585 0.07322 0.0
H5166 H 0.71852 0.2803 0.07345 0.0
H5167 H 0.72575 0.27284 0.05791 0.0
H5168 H 0.70703 0.3057 0.8861 0.0
H5169 H 0.71307 0.29654 0.90141 0.0
H5170 H 0.71567 0.32516 0.91768 0.0
H5171 H 0.70938 0.33434 0.90252 0.0
H5172 H 0.73183 0.29912 0.91162 0.0
H5173 H 0.69916 0.30693 0.93752 0.0
H5174 H 0.6984 0.30879 0.92379 0.0
H5175 H 0.70465 0.31825 0.93173 0.0
C5176 C 0.70873 0.31003 0.89299 0.0
C5177 C 0.70769 0.32075 0.8931 0.0
C5178 C 0.71224 0.30479 0.90171 0.0
C5179 C 0.71469 0.31015 0.91072 0.0
C5180 C 0.71366 0.32084 0.91086 0.0
H5181 H 0.75321 0.2919 0.96178 0.0
H5182 H 0.74581 0.29946 0.94623 0.0
C5183 C 0.71017 0.32609 0.90215 0.0
C5184 C 0.71871 0.30463 0.91986 0.0
H5185 H 0.71424 0.3001 0.94531 0.0
C5186 C 0.72796 0.29927 0.91898 0.0
C5187 C 0.71357 0.30473 0.92941 0.0
C5188 C 0.70335 0.3099 0.93068 0.0
C5189 C 0.73236 0.29425 0.92746 0.0
C5190 C 0.72745 0.29472 0.93711 0.0
C5191 C 0.71805 0.29983 0.93793 0.0
C5192 C 0.73198 0.29005 0.94649 0.0
C5193 C 0.74218 0.28841 0.926 0.0
C5194 C 0.72657 0.28242 0.95193 0.0
C5195 C 0.73074 0.27816 0.96089 0.0
C5196 C 0.74037 0.28151 0.96462 0.0
C5197 C 0.74575 0.2892 0.95916 0.0
C5198 C 0.74158 0.29344 0.95021 0.0
H5199 H 0.74339 0.28642 0.91781 0.0
H5200 H 0.74879 0.29324 0.92854 0.0
H5201 H 0.74216 0.28123 0.93063 0.0
H5202 H 0.71912 0.27975 0.94923 0.0
H5203 H 0.72632 0.27236 0.96498 0.0
H5204 H 0.70993 0.71599 0.88417 0.0
H5205 H 0.71879 0.72279 0.89937 0.0
H5206 H 0.70253 0.70099 0.91848 0.0
H5207 H 0.69373 0.69405 0.90331 0.0
H5208 H 0.70903 0.73125 0.91727 0.0
H5209 H 0.73324 0.69766 0.9268 0.0
H5210 H 0.72745 0.69947 0.9143 0.0
H5211 H 0.7198 0.6949 0.92485 0.0
C5212 C 0.70835 0.71254 0.89159 0.0
C5213 C 0.70114 0.70445 0.89252 0.0
C5214 C 0.71337 0.71648 0.90027 0.0
C5215 C 0.7114 0.71233 0.91004 0.0
C5216 C 0.70427 0.70422 0.911 0.0
H5217 H 0.73242 0.72544 0.97204 0.0
H5218 H 0.72449 0.71827 0.95653 0.0
C5219 C 0.69919 0.70032 0.90233 0.0
C5220 C 0.7165 0.71674 0.91927 0.0
H5221 H 0.73304 0.71113 0.93892 0.0
C5222 C 0.71432 0.72688 0.92198 0.0
C5223 C 0.72336 0.711 0.92542 0.0
C5224 C 0.7262 0.70018 0.92269 0.0
C5225 C 0.71865 0.73138 0.93081 0.0
C5226 C 0.72556 0.72566 0.93696 0.0
C5227 C 0.72776 0.71552 0.93421 0.0
C5228 C 0.73051 0.73001 0.94633 0.0
C5229 C 0.71554 0.74211 0.93363 0.0
C5230 C 0.73668 0.73892 0.94576 0.0
C5231 C 0.7412 0.74304 0.95462 0.0
C5232 C 0.73977 0.73828 0.96423 0.0
C5233 C 0.73375 0.72925 0.96475 0.0
C5234 C 0.72918 0.72517 0.9559 0.0
H5235 H 0.70816 0.74426 0.9299 0.0
H5236 H 0.71472 0.74291 0.94206 0.0
H5237 H 0.72154 0.74762 0.93098 0.0
H5238 H 0.73806 0.74265 0.93844 0.0
H5239 H 0.74594 0.7499 0.95392 0.0
H5240 H 0.31412 0.72284 0.88605 0.0
H5241 H 0.30569 0.72893 0.90159 0.0
H5242 H 0.31337 0.7008 0.91722 0.0
H5243 H 0.32201 0.69473 0.90178 0.0
H5244 H 0.28915 0.71973 0.91297 0.0
H5245 H 0.32492 0.72353 0.93626 0.0
H5246 H 0.32508 0.72234 0.92245 0.0
H5247 H 0.32284 0.71124 0.93039 0.0
C5248 C 0.31408 0.71797 0.89281 0.0
C5249 C 0.31882 0.70832 0.89269 0.0
C5250 C 0.30921 0.72144 0.90167 0.0
C5251 C 0.30903 0.71538 0.9106 0.0
C5252 C 0.31355 0.70566 0.91045 0.0
H5253 H 0.28656 0.72578 0.97247 0.0
H5254 H 0.2939 0.71859 0.95688 0.0
C5255 C 0.3184 0.70216 0.90159 0.0
C5256 C 0.30412 0.71927 0.92006 0.0
H5257 H 0.30924 0.72649 0.94475 0.0
C5258 C 0.29354 0.72122 0.91992 0.0
C5259 C 0.30986 0.72119 0.92912 0.0
C5260 C 0.32132 0.71956 0.9296 0.0
C5261 C 0.28849 0.72493 0.92864 0.0
C5262 C 0.29425 0.72695 0.93769 0.0
C5263 C 0.30483 0.72494 0.93783 0.0
C5264 C 0.28948 0.73124 0.94706 0.0
C5265 C 0.27702 0.72645 0.92816 0.0
C5266 C 0.28461 0.74079 0.94676 0.0
C5267 C 0.28032 0.74488 0.95565 0.0
C5268 C 0.28087 0.73956 0.96507 0.0
C5269 C 0.28583 0.73002 0.96534 0.0
C5270 C 0.2901 0.72593 0.95644 0.0
H5271 H 0.2734 0.72187 0.92191 0.0
H5272 H 0.27332 0.72429 0.93554 0.0
H5273 H 0.27543 0.73465 0.92659 0.0
H5274 H 0.28422 0.74513 0.93966 0.0
H5275 H 0.2765 0.7522 0.95512 0.0
H5276 H 0.31457 0.33399 0.90197 0.0
H5277 H 0.30817 0.3249 0.91715 0.0
H5278 H 0.30817 0.29646 0.90045 0.0
H5279 H 0.31452 0.30551 0.88518 0.0
H5280 H 0.28995 0.31386 0.91913 0.0
H5281 H 0.32353 0.28906 0.92695 0.0
H5282 H 0.32419 0.30001 0.91843 0.0
H5283 H 0.31848 0.28817 0.91411 0.0
C5284 C 0.3132 0.3258 0.9015 0.0
C5285 C 0.31505 0.32049 0.89233 0.0
C5286 C 0.30958 0.32061 0.91021 0.0
C5287 C 0.30779 0.30998 0.90999 0.0
C5288 C 0.30969 0.30463 0.90088 0.0
H5289 H 0.27 0.27549 0.9537 0.0
H5290 H 0.27713 0.28368 0.93832 0.0
C5291 C 0.31332 0.30982 0.89215 0.0
C5292 C 0.30356 0.30462 0.91918 0.0
H5293 H 0.30854 0.2858 0.93683 0.0
C5294 C 0.29402 0.30773 0.92301 0.0
C5295 C 0.30892 0.29669 0.92429 0.0
C5296 C 0.31939 0.29332 0.92081 0.0
C5297 C 0.28965 0.30307 0.93174 0.0
C5298 C 0.2949 0.29498 0.93671 0.0
C5299 C 0.30448 0.29194 0.93295 0.0
C5300 C 0.29066 0.28978 0.94598 0.0
C5301 C 0.27956 0.307 0.93569 0.0
C5302 C 0.29601 0.29027 0.95536 0.0
C5303 C 0.29194 0.28562 0.96418 0.0
C5304 C 0.28245 0.28031 0.9638 0.0
C5305 C 0.27721 0.27967 0.95433 0.0
C5306 C 0.28129 0.28434 0.94552 0.0
H5307 H 0.2778 0.31473 0.93256 0.0
H5308 H 0.27327 0.30168 0.93333 0.0
H5309 H 0.27963 0.30739 0.94421 0.0
H5310 H 0.30325 0.29442 0.95589 0.0
H5311 H 0.29613 0.28637 0.97134 0.0
H5312 H 0.63681 0.7109 0.21433 0.0
H5313 H 0.62177 0.71736 0.2234 0.0
H5314 H 0.60236 0.70878 0.19784 0.0
H5315 H 0.61729 0.70211 0.18883 0.0
H5316 H 0.60844 0.733 0.21665 0.0
H5317 H 0.58722 0.69631 0.22265 0.0
H5318 H 0.60069 0.69684 0.21933 0.0
H5319 H 0.59102 0.69865 0.2096 0.0
C5320 C 0.62931 0.71024 0.2107 0.0
C5321 C 0.62826 0.70596 0.20085 0.0
C5322 C 0.62074 0.71399 0.21587 0.0
C5323 C 0.61092 0.71345 0.21136 0.0
C5324 C 0.60983 0.70914 0.20155 0.0
H5325 H 0.54965 0.73378 0.22588 0.0
H5326 H 0.5651 0.72653 0.21832 0.0
C5327 C 0.6184 0.70542 0.19636 0.0
C5328 C 0.60188 0.71777 0.21668 0.0
H5329 H 0.57808 0.71161 0.22601 0.0
C5330 C 0.60183 0.72832 0.21878 0.0
C5331 C 0.59326 0.71165 0.21942 0.0
C5332 C 0.59304 0.70022 0.21773 0.0
C5333 C 0.59327 0.73296 0.22329 0.0
C5334 C 0.5846 0.72686 0.22596 0.0
C5335 C 0.58471 0.71629 0.22395 0.0
C5336 C 0.57526 0.73131 0.23064 0.0
C5337 C 0.59346 0.74442 0.22484 0.0
C5338 C 0.5758 0.73632 0.24015 0.0
C5339 C 0.56698 0.74057 0.24446 0.0
C5340 C 0.55742 0.73984 0.23937 0.0
C5341 C 0.5569 0.73466 0.22992 0.0
C5342 C 0.56572 0.73043 0.22563 0.0
H5343 H 0.59943 0.74827 0.22005 0.0
H5344 H 0.58587 0.74779 0.22296 0.0
H5345 H 0.59524 0.74609 0.23301 0.0
H5346 H 0.58303 0.73693 0.24426 0.0
H5347 H 0.56769 0.74454 0.25171 0.0
H5348 H 0.32757 0.61949 0.19933 0.0
H5349 H 0.31877 0.60402 0.20563 0.0
H5350 H 0.30051 0.62246 0.22583 0.0
H5351 H 0.30918 0.63796 0.21944 0.0
H5352 H 0.31835 0.59624 0.22486 0.0
H5353 H 0.27857 0.60497 0.21237 0.0
H5354 H 0.28959 0.61215 0.20781 0.0
H5355 H 0.28423 0.61481 0.22021 0.0
C5356 C 0.32165 0.62025 0.20509 0.0
C5357 C 0.31904 0.62995 0.20886 0.0
C5358 C 0.31661 0.61141 0.20866 0.0
C5359 C 0.30886 0.61208 0.21609 0.0
C5360 C 0.30626 0.62176 0.2199 0.0
H5361 H 0.27456 0.56688 0.25187 0.0
H5362 H 0.28249 0.58259 0.24493 0.0
C5363 C 0.31124 0.63061 0.21626 0.0
C5364 C 0.30385 0.60261 0.22016 0.0
H5365 H 0.28054 0.59077 0.22377 0.0
C5366 C 0.31009 0.59503 0.22455 0.0
C5367 C 0.29306 0.60102 0.21978 0.0
C5368 C 0.28597 0.60862 0.2147 0.0
C5369 C 0.30583 0.58598 0.2287 0.0
C5370 C 0.29506 0.58444 0.22839 0.0
C5371 C 0.2888 0.59201 0.22403 0.0
C5372 C 0.29017 0.57496 0.23248 0.0
C5373 C 0.31287 0.57819 0.23354 0.0
C5374 C 0.29178 0.56551 0.22769 0.0
C5375 C 0.28727 0.55655 0.23162 0.0
C5376 C 0.28106 0.55687 0.24043 0.0
C5377 C 0.2794 0.56638 0.24515 0.0
C5378 C 0.28387 0.57535 0.24117 0.0
H5379 H 0.32067 0.58142 0.23506 0.0
H5380 H 0.30961 0.57526 0.24088 0.0
H5381 H 0.31365 0.57158 0.22828 0.0
H5382 H 0.29655 0.56508 0.22091 0.0
H5383 H 0.28876 0.54934 0.22786 0.0
H5384 H 0.38336 0.29985 0.20802 0.0
H5385 H 0.39876 0.29363 0.2168 0.0
H5386 H 0.41546 0.32077 0.20726 0.0
H5387 H 0.40008 0.32707 0.19848 0.0
H5388 H 0.41742 0.28915 0.20848 0.0
H5389 H 0.42222 0.31965 0.23768 0.0
H5390 H 0.41054 0.31802 0.23029 0.0
H5391 H 0.42153 0.32441 0.22474 0.0
C5392 C 0.3903 0.30451 0.20779 0.0
C5393 C 0.39047 0.31398 0.20255 0.0
C5394 C 0.39909 0.30096 0.21286 0.0
C5395 C 0.40824 0.30678 0.21282 0.0
C5396 C 0.40844 0.31625 0.20762 0.0
H5397 H 0.47054 0.29581 0.23469 0.0
H5398 H 0.45493 0.30278 0.22689 0.0
C5399 C 0.39963 0.31984 0.20258 0.0
C5400 C 0.41768 0.30271 0.21783 0.0
H5401 H 0.43598 0.30793 0.23607 0.0
C5402 C 0.42144 0.29323 0.21455 0.0
C5403 C 0.42296 0.30806 0.22573 0.0
C5404 C 0.41907 0.31805 0.2299 0.0
C5405 C 0.43039 0.28902 0.21885 0.0
C5406 C 0.43567 0.29436 0.22674 0.0
C5407 C 0.43194 0.30386 0.23001 0.0
C5408 C 0.44507 0.2902 0.23171 0.0
C5409 C 0.43426 0.279 0.21473 0.0
C5410 C 0.44468 0.28089 0.23717 0.0
C5411 C 0.45357 0.27691 0.24169 0.0
C5412 C 0.46306 0.28217 0.2409 0.0
C5413 C 0.46337 0.29159 0.23556 0.0
C5414 C 0.45446 0.29557 0.23105 0.0
H5415 H 0.43091 0.27722 0.20707 0.0
H5416 H 0.44277 0.27913 0.2141 0.0
H5417 H 0.43204 0.2727 0.22007 0.0
H5418 H 0.43747 0.27673 0.23798 0.0
H5419 H 0.45299 0.26975 0.24591 0.0
H5420 H 0.69203 0.40141 0.20001 0.0
H5421 H 0.70062 0.41686 0.2066 0.0
H5422 H 0.72147 0.39814 0.22416 0.0
H5423 H 0.71299 0.38263 0.21753 0.0
H5424 H 0.70299 0.42191 0.22842 0.0
H5425 H 0.74029 0.41895 0.20802 0.0
H5426 H 0.72877 0.41235 0.20373 0.0
H5427 H 0.73582 0.40759 0.2146 0.0
C5428 C 0.69853 0.40057 0.20516 0.0
C5429 C 0.70184 0.39078 0.20823 0.0
C5430 C 0.70339 0.40941 0.20896 0.0
C5431 C 0.71173 0.40864 0.21579 0.0
C5432 C 0.71512 0.3989 0.2188 0.0
H5433 H 0.7506 0.45374 0.247 0.0
H5434 H 0.74286 0.43801 0.24 0.0
C5435 C 0.71022 0.39005 0.21507 0.0
C5436 C 0.71661 0.41804 0.22007 0.0
H5437 H 0.73891 0.43216 0.22026 0.0
C5438 C 0.71083 0.42419 0.22662 0.0
C5439 C 0.72686 0.42091 0.21777 0.0
C5440 C 0.73332 0.41467 0.21059 0.0
C5441 C 0.71506 0.4331 0.23105 0.0
C5442 C 0.72527 0.43609 0.22863 0.0
C5443 C 0.73108 0.42988 0.2221 0.0
C5444 C 0.73004 0.44566 0.23272 0.0
C5445 C 0.70861 0.43907 0.23847 0.0
C5446 C 0.72553 0.45521 0.2308 0.0
C5447 C 0.72991 0.46419 0.23482 0.0
C5448 C 0.73898 0.46383 0.24073 0.0
C5449 C 0.74364 0.45428 0.24243 0.0
C5450 C 0.73921 0.44529 0.23846 0.0
H5451 H 0.70235 0.43425 0.2418 0.0
H5452 H 0.71338 0.44222 0.24484 0.0
H5453 H 0.70499 0.44557 0.23434 0.0
H5454 H 0.71863 0.45574 0.22615 0.0
H5455 H 0.72625 0.47143 0.23319 0.0
H5456 H 0.61957 0.31497 0.83485 0.0
H5457 H 0.60439 0.30857 0.8256 0.0
H5458 H 0.62301 0.30279 0.79902 0.0
H5459 H 0.63829 0.309 0.80827 0.0
H5460 H 0.59607 0.31579 0.80621 0.0
H5461 H 0.60805 0.27501 0.80501 0.0
H5462 H 0.61379 0.28418 0.81373 0.0
H5463 H 0.61729 0.2843 0.80041 0.0
C5464 C 0.62046 0.31226 0.82706 0.0
C5465 C 0.63015 0.31243 0.82232 0.0
C5466 C 0.61176 0.30867 0.82177 0.0
C5467 C 0.61261 0.3051 0.81168 0.0
C5468 C 0.62223 0.30539 0.80685 0.0
H5469 H 0.56754 0.27659 0.77059 0.0
H5470 H 0.58321 0.28403 0.77812 0.0
C5471 C 0.63093 0.30903 0.81212 0.0
C5472 C 0.60339 0.30108 0.80623 0.0
H5473 H 0.59263 0.27919 0.79642 0.0
C5474 C 0.5953 0.30779 0.80406 0.0
C5475 C 0.60245 0.29066 0.80339 0.0
C5476 C 0.6108 0.28307 0.8058 0.0
C5477 C 0.5863 0.30437 0.79908 0.0
C5478 C 0.58528 0.29389 0.79641 0.0
C5479 C 0.59343 0.28721 0.79847 0.0
C5480 C 0.57571 0.28965 0.79173 0.0
C5481 C 0.57805 0.31204 0.79657 0.0
C5482 C 0.56631 0.29025 0.79693 0.0
C5483 C 0.55734 0.2861 0.79261 0.0
C5484 C 0.55758 0.28115 0.78305 0.0
C5485 C 0.56704 0.28048 0.7779 0.0
C5486 C 0.57601 0.28467 0.78221 0.0
H5487 H 0.5812 0.31999 0.79629 0.0
H5488 H 0.5743 0.3103 0.78909 0.0
H5489 H 0.57209 0.31172 0.80263 0.0
H5490 H 0.56593 0.29387 0.80438 0.0
H5491 H 0.55019 0.28684 0.79675 0.0
H5492 H 0.71041 0.63511 0.80708 0.0
H5493 H 0.7168 0.62007 0.79803 0.0
H5494 H 0.70758 0.60073 0.82339 0.0
H5495 H 0.70096 0.61566 0.83237 0.0
H5496 H 0.73221 0.60663 0.80488 0.0
H5497 H 0.69533 0.58577 0.79847 0.0
H5498 H 0.69592 0.59917 0.80186 0.0
H5499 H 0.69755 0.58946 0.81157 0.0
C5500 C 0.70958 0.62763 0.81066 0.0
C5501 C 0.70515 0.6266 0.82045 0.0
C5502 C 0.7133 0.61905 0.8055 0.0
C5503 C 0.71257 0.60925 0.80998 0.0
C5504 C 0.70808 0.60818 0.81971 0.0
H5505 H 0.7327 0.548 0.7957 0.0
H5506 H 0.72546 0.56345 0.80319 0.0
C5507 C 0.7044 0.61675 0.82488 0.0
C5508 C 0.71689 0.60021 0.8047 0.0
H5509 H 0.71064 0.5765 0.79534 0.0
C5510 C 0.72749 0.60007 0.80271 0.0
C5511 C 0.71072 0.59165 0.8019 0.0
C5512 C 0.69923 0.59151 0.80346 0.0
C5513 C 0.73214 0.5915 0.79826 0.0
C5514 C 0.72598 0.5829 0.79555 0.0
C5515 C 0.71536 0.58308 0.79744 0.0
C5516 C 0.73043 0.57356 0.79091 0.0
C5517 C 0.74365 0.59161 0.79683 0.0
C5518 C 0.73554 0.57406 0.78145 0.0
C5519 C 0.73978 0.56524 0.77718 0.0
C5520 C 0.73893 0.5557 0.78225 0.0
C5521 C 0.73367 0.55522 0.79166 0.0
C5522 C 0.72945 0.56404 0.79592 0.0
H5523 H 0.74749 0.59753 0.80165 0.0
H5524 H 0.74695 0.58402 0.79875 0.0
H5525 H 0.74542 0.59337 0.78868 0.0
H5526 H 0.73624 0.58127 0.77734 0.0
H5527 H 0.74383 0.56592 0.76995 0.0
H5528 H 0.3895 0.71366 0.82544 0.0
H5529 H 0.40497 0.72241 0.81901 0.0
H5530 H 0.40765 0.69979 0.79522 0.0
H5531 H 0.39238 0.69085 0.80169 0.0
H5532 H 0.42538 0.71389 0.8163 0.0
H5533 H 0.40822 0.72783 0.77974 0.0
H5534 H 0.40051 0.72367 0.79052 0.0
H5535 H 0.40635 0.71439 0.78232 0.0
C5536 C 0.39341 0.71049 0.81889 0.0
C5537 C 0.38961 0.70157 0.81406 0.0
C5538 C 0.40222 0.71554 0.8152 0.0
C5539 C 0.40736 0.71183 0.80655 0.0
C5540 C 0.40368 0.7029 0.80177 0.0
H5541 H 0.46052 0.72873 0.77044 0.0
H5542 H 0.44493 0.72108 0.77772 0.0
C5543 C 0.39491 0.69782 0.80548 0.0
C5544 C 0.41669 0.71717 0.8026 0.0
H5545 H 0.4263 0.72969 0.78157 0.0
C5546 C 0.42558 0.71742 0.80875 0.0
C5547 C 0.41692 0.72174 0.79273 0.0
C5548 C 0.40748 0.722 0.78595 0.0
C5549 C 0.43481 0.72184 0.80516 0.0
C5550 C 0.43507 0.72636 0.79524 0.0
C5551 C 0.42611 0.72622 0.78916 0.0
C5552 C 0.44459 0.73107 0.79092 0.0
C5553 C 0.44428 0.72133 0.81188 0.0
C5554 C 0.44954 0.73933 0.79584 0.0
C5555 C 0.45855 0.74366 0.79175 0.0
C5556 C 0.46274 0.73988 0.78259 0.0
C5557 C 0.45764 0.73172 0.77759 0.0
C5558 C 0.44866 0.72738 0.78171 0.0
H5559 H 0.44351 0.71531 0.81791 0.0
H5560 H 0.45123 0.71974 0.80726 0.0
H5561 H 0.44544 0.7288 0.81577 0.0
H5562 H 0.44643 0.74245 0.80284 0.0
H5563 H 0.46229 0.74987 0.79585 0.0
H5564 H 0.30863 0.39098 0.82428 0.0
H5565 H 0.30003 0.40642 0.81801 0.0
H5566 H 0.3222 0.40934 0.79367 0.0
H5567 H 0.33098 0.39409 0.79997 0.0
H5568 H 0.30862 0.42678 0.81506 0.0
H5569 H 0.29397 0.40991 0.7787 0.0
H5570 H 0.29832 0.40216 0.78937 0.0
H5571 H 0.30749 0.40825 0.78098 0.0
C5572 C 0.31174 0.39494 0.81764 0.0
C5573 C 0.32048 0.39121 0.8126 0.0
C5574 C 0.30677 0.40374 0.81404 0.0
C5575 C 0.31038 0.40894 0.80528 0.0
C5576 C 0.31916 0.40533 0.80031 0.0
H5577 H 0.29352 0.46217 0.76937 0.0
H5578 H 0.30121 0.4467 0.77658 0.0
C5579 C 0.32415 0.39657 0.80392 0.0
C5580 C 0.30509 0.41823 0.80139 0.0
H5581 H 0.29244 0.42792 0.7805 0.0
C5582 C 0.30501 0.42703 0.80754 0.0
C5583 C 0.30041 0.41852 0.79156 0.0
C5584 C 0.29995 0.40919 0.78478 0.0
C5585 C 0.30063 0.43621 0.80401 0.0
C5586 C 0.29601 0.43654 0.79414 0.0
C5587 C 0.296 0.42768 0.78805 0.0
C5588 C 0.29132 0.44602 0.78989 0.0
C5589 C 0.30131 0.44557 0.81075 0.0
C5590 C 0.28312 0.45075 0.79489 0.0
C5591 C 0.27877 0.45968 0.79084 0.0
C5592 C 0.28247 0.46403 0.78163 0.0
C5593 C 0.29059 0.45916 0.77656 0.0
C5594 C 0.29495 0.45026 0.78064 0.0
H5595 H 0.3074 0.44482 0.81672 0.0
H5596 H 0.30292 0.45259 0.80613 0.0
H5597 H 0.29386 0.44658 0.81471 0.0
H5598 H 0.28004 0.44752 0.80192 0.0
H5599 H 0.27258 0.46324 0.795 0.0
H5600 H 0.70011 0.62203 0.19449 0.0
H5601 H 0.70868 0.60663 0.2009 0.0
H5602 H 0.71041 0.61978 0.23116 0.0
H5603 H 0.70194 0.63522 0.22482 0.0
H5604 H 0.72794 0.60408 0.21064 0.0
H5605 H 0.6958 0.59208 0.23607 0.0
H5606 H 0.69437 0.6017 0.22615 0.0
H5607 H 0.70041 0.60494 0.23817 0.0
C5608 C 0.70241 0.6217 0.20248 0.0
C5609 C 0.70024 0.62984 0.20915 0.0
C5610 C 0.70727 0.61287 0.20615 0.0
C5611 C 0.71002 0.61197 0.21655 0.0
C5612 C 0.70814 0.62019 0.22316 0.0
H5613 H 0.75053 0.56751 0.24554 0.0
H5614 H 0.74282 0.58296 0.23824 0.0
C5615 C 0.70328 0.62902 0.21951 0.0
C5616 C 0.71479 0.60243 0.22051 0.0
H5617 H 0.71131 0.58281 0.2377 0.0
C5618 C 0.7243 0.59941 0.21654 0.0
C5619 C 0.70997 0.59627 0.22812 0.0
C5620 C 0.69953 0.59883 0.23233 0.0
C5621 C 0.72921 0.59051 0.2201 0.0
C5622 C 0.72453 0.58453 0.22793 0.0
C5623 C 0.71494 0.58745 0.23177 0.0
C5624 C 0.72937 0.57513 0.23216 0.0
C5625 C 0.73927 0.58749 0.21535 0.0
C5626 C 0.72431 0.56561 0.23133 0.0
C5627 C 0.7287 0.55675 0.23547 0.0
C5628 C 0.73824 0.55723 0.24062 0.0
C5629 C 0.74327 0.56681 0.24148 0.0
C5630 C 0.73887 0.57567 0.23731 0.0
H5631 H 0.74053 0.59137 0.20783 0.0
H5632 H 0.74568 0.58975 0.22056 0.0
H5633 H 0.73958 0.57907 0.21422 0.0
H5634 H 0.71696 0.56501 0.2274 0.0
H5635 H 0.72466 0.5495 0.23454 0.0
H5636 H 0.69817 0.39846 0.82593 0.0
H5637 H 0.70687 0.41387 0.81931 0.0
H5638 H 0.71556 0.3974 0.79214 0.0
H5639 H 0.70684 0.382 0.79868 0.0
H5640 H 0.72712 0.41743 0.81384 0.0
H5641 H 0.70134 0.42237 0.78013 0.0
H5642 H 0.6983 0.41373 0.79059 0.0
H5643 H 0.70723 0.41001 0.78083 0.0
C5644 C 0.702 0.3981 0.81858 0.0
C5645 C 0.70174 0.38903 0.81279 0.0
C5646 C 0.70693 0.40692 0.81479 0.0
C5647 C 0.71169 0.40684 0.80514 0.0
C5648 C 0.7117 0.39772 0.79948 0.0
H5649 H 0.74479 0.4525 0.76887 0.0
H5650 H 0.73717 0.43671 0.77586 0.0
C5651 C 0.70673 0.38892 0.80323 0.0
C5652 C 0.71666 0.4163 0.80102 0.0
H5653 H 0.71613 0.43316 0.78086 0.0
C5654 C 0.72469 0.4209 0.80665 0.0
C5655 C 0.71347 0.42082 0.79163 0.0
C5656 C 0.70455 0.41655 0.78548 0.0
C5657 C 0.72975 0.42979 0.80307 0.0
C5658 C 0.72658 0.43427 0.79368 0.0
C5659 C 0.71857 0.42968 0.78804 0.0
C5660 C 0.7314 0.44382 0.78961 0.0
C5661 C 0.73854 0.43423 0.80928 0.0
C5662 C 0.73058 0.45306 0.79498 0.0
C5663 C 0.73485 0.46212 0.79097 0.0
C5664 C 0.74 0.46211 0.78149 0.0
C5665 C 0.74078 0.45281 0.77613 0.0
C5666 C 0.73648 0.44377 0.78014 0.0
H5667 H 0.74162 0.42859 0.81489 0.0
H5668 H 0.74489 0.43687 0.8042 0.0
H5669 H 0.73579 0.44095 0.81362 0.0
H5670 H 0.72649 0.45331 0.80219 0.0
H5671 H 0.73393 0.46916 0.79522 0.0
H5672 H 0.62598 0.6891 0.80103 0.0
H5673 H 0.61081 0.69808 0.79479 0.0
H5674 H 0.61387 0.7198 0.81949 0.0
H5675 H 0.62936 0.71112 0.82553 0.0
H5676 H 0.59256 0.70134 0.80432 0.0
H5677 H 0.61123 0.73868 0.79483 0.0
H5678 H 0.6185 0.72727 0.79751 0.0
H5679 H 0.61319 0.73456 0.80785 0.0
C5680 C 0.62356 0.69589 0.80505 0.0
C5681 C 0.629 0.69942 0.81374 0.0
C5682 C 0.61481 0.70097 0.80151 0.0
C5683 C 0.61127 0.70972 0.80656 0.0
C5684 C 0.61657 0.7132 0.81532 0.0
H5685 H 0.55782 0.74841 0.79581 0.0
H5686 H 0.57326 0.74036 0.80285 0.0
C5687 C 0.62536 0.70814 0.81885 0.0
C5688 C 0.6019 0.715 0.80274 0.0
H5689 H 0.59304 0.7379 0.79359 0.0
C5690 C 0.59268 0.70933 0.80195 0.0
C5691 C 0.60204 0.72544 0.79967 0.0
C5692 C 0.61178 0.73184 0.79991 0.0
C5693 C 0.58361 0.7138 0.79824 0.0
C5694 C 0.58376 0.72421 0.79511 0.0
C5695 C 0.59293 0.72993 0.79601 0.0
C5696 C 0.57452 0.72922 0.7907 0.0
C5697 C 0.57388 0.70739 0.79783 0.0
C5698 C 0.57021 0.72576 0.78143 0.0
C5699 C 0.56144 0.73039 0.77733 0.0
C5700 C 0.55678 0.73862 0.78241 0.0
C5701 C 0.56124 0.74217 0.79162 0.0
C5702 C 0.57004 0.73754 0.7957 0.0
H5703 H 0.57439 0.70048 0.80282 0.0
H5704 H 0.56713 0.71193 0.80021 0.0
H5705 H 0.57254 0.7048 0.78983 0.0
H5706 H 0.57367 0.71949 0.77732 0.0
H5707 H 0.55837 0.72758 0.77012 0.0
H5708 H 0.31246 0.63671 0.80799 0.0
H5709 H 0.30597 0.62154 0.79892 0.0
H5710 H 0.30516 0.60466 0.82746 0.0
H5711 H 0.31169 0.61975 0.83658 0.0
H5712 H 0.31394 0.60177 0.79738 0.0
H5713 H 0.27583 0.60104 0.81634 0.0
H5714 H 0.28443 0.61199 0.81694 0.0
H5715 H 0.2865 0.60106 0.82514 0.0
C5716 C 0.31099 0.62975 0.81233 0.0
C5717 C 0.31252 0.62949 0.82303 0.0
C5718 C 0.30724 0.62109 0.80713 0.0
C5719 C 0.3049 0.61202 0.81254 0.0
C5720 C 0.30667 0.61165 0.82317 0.0
H5721 H 0.29492 0.5506 0.78882 0.0
H5722 H 0.3018 0.56624 0.79668 0.0
C5723 C 0.3104 0.62029 0.82837 0.0
C5724 C 0.30064 0.60294 0.80706 0.0
H5725 H 0.27996 0.58655 0.80625 0.0
C5726 C 0.30649 0.59846 0.79929 0.0
C5727 C 0.29086 0.59871 0.80946 0.0
C5728 C 0.28398 0.60349 0.81735 0.0
C5729 C 0.30293 0.58973 0.79401 0.0
C5730 C 0.29332 0.58528 0.79667 0.0
C5731 C 0.28737 0.5899 0.80428 0.0
C5732 C 0.28927 0.57584 0.79166 0.0
C5733 C 0.30943 0.58542 0.78553 0.0
C5734 C 0.27983 0.57597 0.78638 0.0
C5735 C 0.27587 0.56704 0.78187 0.0
C5736 C 0.28123 0.55775 0.7826 0.0
C5737 C 0.29067 0.55765 0.78794 0.0
C5738 C 0.29463 0.56659 0.79244 0.0
H5739 H 0.31509 0.59118 0.78261 0.0
H5740 H 0.31376 0.57877 0.78854 0.0
H5741 H 0.30456 0.58275 0.77902 0.0
H5742 H 0.27555 0.58302 0.7857 0.0
H5743 H 0.26864 0.56743 0.77773 0.0
H5744 H 0.40042 0.32731 0.82279 0.0
H5745 H 0.41586 0.3213 0.81408 0.0
H5746 H 0.40002 0.29323 0.80604 0.0
H5747 H 0.3845 0.29926 0.81451 0.0
H5748 H 0.42704 0.30357 0.8187 0.0
H5749 H 0.41244 0.30282 0.7786 0.0
H5750 H 0.40607 0.30968 0.78871 0.0
H5751 H 0.40442 0.29603 0.78761 0.0
C5752 C 0.40017 0.31993 0.81902 0.0
C5753 C 0.3912 0.31378 0.81934 0.0
C5754 C 0.40902 0.31648 0.81411 0.0
C5755 C 0.40907 0.30687 0.80931 0.0
C5756 C 0.40012 0.30074 0.80954 0.0
H5757 H 0.4611 0.26928 0.79341 0.0
H5758 H 0.44575 0.27677 0.80093 0.0
C5759 C 0.39128 0.30416 0.81449 0.0
C5760 C 0.41859 0.30305 0.80445 0.0
H5761 H 0.42843 0.29462 0.78176 0.0
C5762 C 0.42736 0.30166 0.81061 0.0
C5763 C 0.41904 0.30067 0.79387 0.0
C5764 C 0.41003 0.30246 0.78677 0.0
C5765 C 0.43648 0.29773 0.80654 0.0
C5766 C 0.43681 0.29499 0.79605 0.0
C5767 C 0.42813 0.29662 0.78982 0.0
C5768 C 0.4461 0.29041 0.79141 0.0
C5769 C 0.44573 0.29663 0.81349 0.0
C5770 C 0.45127 0.29546 0.78338 0.0
C5771 C 0.46008 0.29121 0.77907 0.0
C5772 C 0.46387 0.28177 0.78265 0.0
C5773 C 0.45854 0.27665 0.79059 0.0
C5774 C 0.44975 0.28092 0.7949 0.0
H5775 H 0.44509 0.30144 0.82047 0.0
H5776 H 0.44634 0.28851 0.816 0.0
H5777 H 0.45292 0.29878 0.80941 0.0
H5778 H 0.44858 0.30278 0.78055 0.0
H5779 H 0.46403 0.29543 0.77305 0.0
H5780 H 0.32414 0.40089 0.19588 0.0
H5781 H 0.31575 0.41625 0.20239 0.0
H5782 H 0.30409 0.39883 0.22814 0.0
H5783 H 0.31244 0.38348 0.22169 0.0
H5784 H 0.29521 0.42022 0.20658 0.0
H5785 H 0.31878 0.42278 0.24212 0.0
H5786 H 0.32214 0.41462 0.23154 0.0
H5787 H 0.31237 0.41064 0.24049 0.0
C5788 C 0.31972 0.40031 0.20288 0.0
C5789 C 0.31905 0.39096 0.20831 0.0
C5790 C 0.31496 0.4091 0.20662 0.0
C5791 C 0.30946 0.40875 0.21587 0.0
C5792 C 0.30852 0.39937 0.22114 0.0
H5793 H 0.27633 0.45323 0.25212 0.0
H5794 H 0.28397 0.43778 0.245 0.0
C5795 C 0.31329 0.39058 0.21743 0.0
C5796 C 0.30471 0.41818 0.22 0.0
H5797 H 0.30459 0.43399 0.24085 0.0
C5798 C 0.29729 0.42326 0.21405 0.0
C5799 C 0.30743 0.42215 0.22976 0.0
C5800 C 0.31568 0.41733 0.23632 0.0
C5801 C 0.29238 0.43207 0.21767 0.0
C5802 C 0.29508 0.43602 0.22744 0.0
C5803 C 0.3025 0.43094 0.23338 0.0
C5804 C 0.29033 0.44542 0.23164 0.0
C5805 C 0.28418 0.43695 0.21109 0.0
C5806 C 0.29147 0.45489 0.22657 0.0
C5807 C 0.28715 0.46375 0.23065 0.0
C5808 C 0.28165 0.46336 0.23993 0.0
C5809 C 0.2806 0.45385 0.24502 0.0
C5810 C 0.28492 0.44499 0.24093 0.0
H5811 H 0.28113 0.43157 0.2052 0.0
H5812 H 0.27768 0.4396 0.21586 0.0
H5813 H 0.28751 0.44371 0.20705 0.0
H5814 H 0.29582 0.45546 0.21952 0.0
H5815 H 0.28828 0.47096 0.22662 0.0
H5816 H 0.62644 0.29979 0.19099 0.0
H5817 H 0.61115 0.29355 0.19996 0.0
H5818 H 0.61444 0.31796 0.22197 0.0
H5819 H 0.62948 0.32456 0.21275 0.0
H5820 H 0.609 0.28662 0.21957 0.0
H5821 H 0.58464 0.32079 0.21344 0.0
H5822 H 0.59649 0.31894 0.20659 0.0
H5823 H 0.59674 0.32356 0.21958 0.0
C5824 C 0.62384 0.30395 0.19763 0.0
C5825 C 0.62917 0.31276 0.20106 0.0
C5826 C 0.61513 0.30031 0.20282 0.0
C5827 C 0.61153 0.30537 0.21155 0.0
C5828 C 0.61693 0.31405 0.21512 0.0
H5829 H 0.56004 0.29223 0.25258 0.0
H5830 H 0.57571 0.29913 0.24466 0.0
C5831 C 0.62562 0.31773 0.20991 0.0
C5832 C 0.60224 0.30141 0.21697 0.0
H5833 H 0.57798 0.30779 0.22443 0.0
C5834 C 0.60221 0.29125 0.22061 0.0
C5835 C 0.59338 0.30746 0.21835 0.0
C5836 C 0.59273 0.31826 0.21421 0.0
C5837 C 0.59361 0.28699 0.22562 0.0
C5838 C 0.58475 0.29301 0.22694 0.0
C5839 C 0.5848 0.3032 0.22342 0.0
C5840 C 0.57525 0.28879 0.23174 0.0
C5841 C 0.59411 0.27611 0.22958 0.0
C5842 C 0.56973 0.28078 0.22703 0.0
C5843 C 0.56071 0.27688 0.23148 0.0
C5844 C 0.55702 0.28093 0.24074 0.0
C5845 C 0.56257 0.289 0.2454 0.0
C5846 C 0.57157 0.29292 0.24092 0.0
H5847 H 0.60216 0.27342 0.23022 0.0
H5848 H 0.5904 0.2754 0.23721 0.0
H5849 H 0.58993 0.27098 0.22418 0.0
H5850 H 0.57232 0.27762 0.21984 0.0
H5851 H 0.55655 0.27081 0.22756 0.0
H5852 H 0.40043 0.69945 0.19405 0.0
H5853 H 0.41612 0.70573 0.20257 0.0
H5854 H 0.39794 0.72496 0.22204 0.0
H5855 H 0.38221 0.71867 0.21361 0.0
H5856 H 0.4221 0.72775 0.20386 0.0
H5857 H 0.41767 0.70859 0.24189 0.0
H5858 H 0.41121 0.70399 0.23046 0.0
H5859 H 0.40662 0.71516 0.23688 0.0
C5860 C 0.39977 0.70491 0.20024 0.0
C5861 C 0.39009 0.70856 0.20317 0.0
C5862 C 0.40873 0.70852 0.20506 0.0
C5863 C 0.40816 0.71573 0.21297 0.0
C5864 C 0.39852 0.71931 0.21601 0.0
H5865 H 0.45375 0.74707 0.25096 0.0
H5866 H 0.43791 0.74007 0.24334 0.0
C5867 C 0.38956 0.71577 0.21114 0.0
C5868 C 0.41769 0.71987 0.21774 0.0
H5869 H 0.43149 0.72038 0.24011 0.0
C5870 C 0.42419 0.72612 0.21177 0.0
C5871 C 0.42032 0.71779 0.22808 0.0
C5872 C 0.41365 0.71096 0.23473 0.0
C5873 C 0.43322 0.73047 0.21591 0.0
C5874 C 0.43595 0.72827 0.22622 0.0
C5875 C 0.42941 0.72204 0.2322 0.0
C5876 C 0.44558 0.73235 0.23093 0.0
C5877 C 0.43958 0.7376 0.20926 0.0
C5878 C 0.45517 0.73017 0.2266 0.0
C5879 C 0.46421 0.7342 0.2309 0.0
C5880 C 0.46386 0.74036 0.23971 0.0
C5881 C 0.45427 0.74231 0.2442 0.0
C5882 C 0.44522 0.73834 0.23984 0.0
H5883 H 0.43497 0.74083 0.20283 0.0
H5884 H 0.44288 0.74404 0.2138 0.0
H5885 H 0.44602 0.73327 0.20588 0.0
H5886 H 0.45568 0.72532 0.21991 0.0
H5887 H 0.4715 0.7324 0.22739 0.0
loop_
_geom_bond_atom_site_label_1
_geom_bond_atom_site_label_2
_geom_bond_distance
_geom_bond_site_symmetry_2
_ccdc_geom_bond_type
C0 C1 1.264 . S
C0 C5 1.479 . S
C0 C10 1.465 . S
C1 C0 1.264 . S
C1 C3 1.339 . S
C1 H28 0.931 . S
C2 C3 1.395 . S
C2 C4 1.320 . S
C3 C1 1.339 . S
C3 C2 1.395 . S
C3 H29 0.929 . S
C4 C2 1.320 . S
C4 C5 1.405 . S
C4 H30 0.930 . S
C5 C0 1.479 . S
C5 C4 1.405 . S
C5 H31 0.931 . S
U6 O7 2.454 . S
U6 O8 2.458 . S
U6 C9 2.984 . S
U6 C10 2.847 . S
U6 C23 2.882 . S
U6 O24 2.441 . S
U6 O25 2.420 . S
U6 O26 2.455 . S
U6 O27 2.449 . S
O7 U6 2.454 . S
O7 C9 1.353 . S
O8 U6 2.458 . S
O8 C9 1.286 . S
C9 U6 2.984 . S
C9 O7 1.353 . S
C9 O8 1.286 . S
C9 C11 1.363 . S
C10 C0 1.465 . S
C10 U6 2.847 . S
C10 O24 1.249 . S
C10 O25 1.202 . S
C11 C9 1.363 . S
C11 C13 1.408 . S
C11 C16 1.342 . S
C12 C13 1.310 . S
C12 C15 1.461 . S
C12 H32 0.932 . S
C13 C11 1.408 . S
C13 C12 1.310 . S
C13 H33 0.930 . S
C14 C15 1.474 . S
C14 C16 1.285 . S
C14 H34 0.929 . S
C15 C12 1.461 . S
C15 C14 1.474 . S
C16 C11 1.342 . S
C16 C14 1.285 . S
C16 H35 0.930 . S
C17 C20 1.424 . S
C17 C22 1.245 . S
C17 C23 1.428 . S
C18 C21 1.260 . S
C18 C22 1.477 . S
C18 H36 0.932 . S
C19 C20 1.384 . S
C19 C21 1.479 . S
C19 H37 0.929 . S
C20 C17 1.424 . S
C20 C19 1.384 . S
C20 H38 0.928 . S
C21 C18 1.260 . S
C21 C19 1.479 . S
C22 C17 1.245 . S
C22 C18 1.477 . S
C22 H39 0.932 . S
C23 U6 2.882 . S
C23 C17 1.428 . S
C23 O26 1.301 . S
C23 O27 1.282 . S
O24 U6 2.441 . S
O24 C10 1.249 . S
O25 U6 2.420 . S
O25 C10 1.202 . S
O26 U6 2.455 . S
O26 C23 1.301 . S
O27 U6 2.449 . S
O27 C23 1.282 . S
H28 C1 0.931 . S
H29 C3 0.929 . S
H30 C4 0.930 . S
H31 C5 0.931 . S
H32 C12 0.932 . S
H33 C13 0.930 . S
H34 C14 0.929 . S
H35 C16 0.930 . S
H36 C18 0.932 . S
H37 C19 0.929 . S
H38 C20 0.928 . S
H39 C22 0.932 . S
C40 C41 1.264 . S
C40 C45 1.479 . S
C40 C50 1.465 . S
C41 C40 1.264 . S
C41 C43 1.339 . S
C41 H68 0.931 . S
C42 C43 1.395 . S
C42 C44 1.320 . S
C43 C41 1.339 . S
C43 C42 1.395 . S
C43 H69 0.929 . S
C44 C42 1.320 . S
C44 C45 1.405 . S
C44 H70 0.930 . S
C45 C40 1.479 . S
C45 C44 1.405 . S
C45 H71 0.931 . S
U46 O47 2.454 . S
U46 O48 2.458 . S
U46 C49 2.984 . S
U46 C50 2.847 . S
U46 C63 2.882 . S
U46 O64 2.441 . S
U46 O65 2.420 . S
U46 O66 2.455 . S
U46 O67 2.449 . S
O47 U46 2.454 . S
O47 C49 1.353 . S
O48 U46 2.458 . S
O48 C49 1.286 . S
C49 U46 2.984 . S
C49 O47 1.353 . S
C49 O48 1.286 . S
C49 C51 1.363 . S
C50 C40 1.465 . S
C50 U46 2.847 . S
C50 O64 1.249 . S
C50 O65 1.202 . S
C51 C49 1.363 . S
C51 C53 1.408 . S
C51 C56 1.342 . S
C52 C53 1.310 . S
C52 C55 1.461 . S
C52 H72 0.932 . S
C53 C51 1.408 . S
C53 C52 1.310 . S
C53 H73 0.930 . S
C54 C55 1.474 . S
C54 C56 1.285 . S
C54 H74 0.929 . S
C55 C52 1.461 . S
C55 C54 1.474 . S
C56 C51 1.342 . S
C56 C54 1.285 . S
C56 H75 0.930 . S
C57 C60 1.424 . S
C57 C62 1.245 . S
C57 C63 1.428 . S
C58 C61 1.260 . S
C58 C62 1.477 . S
C58 H76 0.932 . S
C59 C60 1.384 . S
C59 C61 1.479 . S
C59 H77 0.929 . S
C60 C57 1.424 . S
C60 C59 1.384 . S
C60 H78 0.928 . S
C61 C58 1.260 . S
C61 C59 1.479 . S
C62 C57 1.245 . S
C62 C58 1.477 . S
C62 H79 0.932 . S
C63 U46 2.882 . S
C63 C57 1.428 . S
C63 O66 1.301 . S
C63 O67 1.282 . S
O64 U46 2.441 . S
O64 C50 1.249 . S
O65 U46 2.420 . S
O65 C50 1.202 . S
O66 U46 2.455 . S
O66 C63 1.301 . S
O67 U46 2.449 . S
O67 C63 1.282 . S
H68 C41 0.931 . S
H69 C43 0.929 . S
H70 C44 0.930 . S
H71 C45 0.931 . S
H72 C52 0.932 . S
H73 C53 0.930 . S
H74 C54 0.929 . S
H75 C56 0.930 . S
H76 C58 0.932 . S
H77 C59 0.929 . S
H78 C60 0.928 . S
H79 C62 0.932 . S
C80 C81 1.264 . S
C80 C85 1.479 . S
C80 C90 1.465 . S
C81 C80 1.264 . S
C81 C83 1.339 . S
C81 H108 0.931 . S
C82 C83 1.395 . S
C82 C84 1.320 . S
C83 C81 1.339 . S
C83 C82 1.395 . S
C83 H109 0.929 . S
C84 C82 1.320 . S
C84 C85 1.405 . S
C84 H110 0.930 . S
C85 C80 1.479 . S
C85 C84 1.405 . S
C85 H111 0.931 . S
U86 O87 2.454 . S
U86 O88 2.458 . S
U86 C89 2.984 . S
U86 C90 2.847 . S
U86 C103 2.882 . S
U86 O104 2.441 . S
U86 O105 2.420 . S
U86 O106 2.455 . S
U86 O107 2.449 . S
O87 U86 2.454 . S
O87 C89 1.353 . S
O88 U86 2.458 . S
O88 C89 1.286 . S
C89 U86 2.984 . S
C89 O87 1.353 . S
C89 O88 1.286 . S
C89 C91 1.363 . S
C90 C80 1.465 . S
C90 U86 2.847 . S
C90 O104 1.249 . S
C90 O105 1.202 . S
C91 C89 1.363 . S
C91 C93 1.408 . S
C91 C96 1.342 . S
C92 C93 1.310 . S
C92 C95 1.461 . S
C92 H112 0.932 . S
C93 C91 1.408 . S
C93 C92 1.310 . S
C93 H113 0.930 . S
C94 C95 1.474 . S
C94 C96 1.285 . S
C94 H114 0.929 . S
C95 C92 1.461 . S
C95 C94 1.474 . S
C96 C91 1.342 . S
C96 C94 1.285 . S
C96 H115 0.930 . S
C97 C100 1.424 . S
C97 C102 1.245 . S
C97 C103 1.428 . S
C98 C101 1.260 . S
C98 C102 1.477 . S
C98 H116 0.932 . S
C99 C100 1.384 . S
C99 C101 1.479 . S
C99 H117 0.929 . S
C100 C97 1.424 . S
C100 C99 1.384 . S
C100 H118 0.928 . S
C101 C98 1.260 . S
C101 C99 1.479 . S
C102 C97 1.245 . S
C102 C98 1.477 . S
C102 H119 0.932 . S
C103 U86 2.882 . S
C103 C97 1.428 . S
C103 O106 1.301 . S
C103 O107 1.282 . S
O104 U86 2.441 . S
O104 C90 1.249 . S
O105 U86 2.420 . S
O105 C90 1.202 . S
O106 U86 2.455 . S
O106 C103 1.301 . S
O107 U86 2.449 . S
O107 C103 1.282 . S
H108 C81 0.931 . S
H109 C83 0.929 . S
H110 C84 0.930 . S
H111 C85 0.931 . S
H112 C92 0.932 . S
H113 C93 0.930 . S
H114 C94 0.929 . S
H115 C96 0.930 . S
H116 C98 0.932 . S
H117 C99 0.929 . S
H118 C100 0.928 . S
H119 C102 0.932 . S
C120 C121 1.264 . S
C120 C125 1.479 . S
C120 C130 1.465 . S
C121 C120 1.264 . S
C121 C123 1.339 . S
C121 H148 0.931 . S
C122 C123 1.395 . S
C122 C124 1.320 . S
C123 C121 1.339 . S
C123 C122 1.395 . S
C123 H149 0.929 . S
C124 C122 1.320 . S
C124 C125 1.405 . S
C124 H150 0.930 . S
C125 C120 1.479 . S
C125 C124 1.405 . S
C125 H151 0.931 . S
U126 O127 2.454 . S
U126 O128 2.458 . S
U126 C129 2.984 . S
U126 C130 2.847 . S
U126 C143 2.882 . S
U126 O144 2.441 . S
U126 O145 2.420 . S
U126 O146 2.455 . S
U126 O147 2.449 . S
O127 U126 2.454 . S
O127 C129 1.353 . S
O128 U126 2.458 . S
O128 C129 1.286 . S
C129 U126 2.984 . S
C129 O127 1.353 . S
C129 O128 1.286 . S
C129 C131 1.363 . S
C130 C120 1.465 . S
C130 U126 2.847 . S
C130 O144 1.249 . S
C130 O145 1.202 . S
C131 C129 1.363 . S
C131 C133 1.408 . S
C131 C136 1.342 . S
C132 C133 1.310 . S
C132 C135 1.461 . S
C132 H152 0.932 . S
C133 C131 1.408 . S
C133 C132 1.310 . S
C133 H153 0.930 . S
C134 C135 1.474 . S
C134 C136 1.285 . S
C134 H154 0.929 . S
C135 C132 1.461 . S
C135 C134 1.474 . S
C136 C131 1.342 . S
C136 C134 1.285 . S
C136 H155 0.930 . S
C137 C140 1.424 . S
C137 C142 1.245 . S
C137 C143 1.428 . S
C138 C141 1.260 . S
C138 C142 1.477 . S
C138 H156 0.932 . S
C139 C140 1.384 . S
C139 C141 1.479 . S
C139 H157 0.929 . S
C140 C137 1.424 . S
C140 C139 1.384 . S
C140 H158 0.928 . S
C141 C138 1.260 . S
C141 C139 1.479 . S
C142 C137 1.245 . S
C142 C138 1.477 . S
C142 H159 0.932 . S
C143 U126 2.882 . S
C143 C137 1.428 . S
C143 O146 1.301 . S
C143 O147 1.282 . S
O144 U126 2.441 . S
O144 C130 1.249 . S
O145 U126 2.420 . S
O145 C130 1.202 . S
O146 U126 2.455 . S
O146 C143 1.301 . S
O147 U126 2.449 . S
O147 C143 1.282 . S
H148 C121 0.931 . S
H149 C123 0.929 . S
H150 C124 0.930 . S
H151 C125 0.931 . S
H152 C132 0.932 . S
H153 C133 0.930 . S
H154 C134 0.929 . S
H155 C136 0.930 . S
H156 C138 0.932 . S
H157 C139 0.929 . S
H158 C140 0.928 . S
H159 C142 0.932 . S
C160 C161 1.264 . S
C160 C165 1.479 . S
C160 C170 1.465 . S
C161 C160 1.264 . S
C161 C163 1.339 . S
C161 H188 0.931 . S
C162 C163 1.395 . S
C162 C164 1.320 . S
C163 C161 1.339 . S
C163 C162 1.395 . S
C163 H189 0.929 . S
C164 C162 1.320 . S
C164 C165 1.405 . S
C164 H190 0.930 . S
C165 C160 1.479 . S
C165 C164 1.405 . S
C165 H191 0.931 . S
U166 O167 2.454 . S
U166 O168 2.458 . S
U166 C169 2.984 . S
U166 C170 2.847 . S
U166 C183 2.882 . S
U166 O184 2.441 . S
U166 O185 2.420 . S
U166 O186 2.455 . S
U166 O187 2.449 . S
O167 U166 2.454 . S
O167 C169 1.353 . S
O168 U166 2.458 . S
O168 C169 1.286 . S
C169 U166 2.984 . S
C169 O167 1.353 . S
C169 O168 1.286 . S
C169 C171 1.363 . S
C170 C160 1.465 . S
C170 U166 2.847 . S
C170 O184 1.249 . S
C170 O185 1.202 . S
C171 C169 1.363 . S
C171 C173 1.408 . S
C171 C176 1.342 . S
C172 C173 1.310 . S
C172 C175 1.461 . S
C172 H192 0.932 . S
C173 C171 1.408 . S
C173 C172 1.310 . S
C173 H193 0.930 . S
C174 C175 1.474 . S
C174 C176 1.285 . S
C174 H194 0.929 . S
C175 C172 1.461 . S
C175 C174 1.474 . S
C176 C171 1.342 . S
C176 C174 1.285 . S
C176 H195 0.930 . S
C177 C180 1.424 . S
C177 C182 1.245 . S
C177 C183 1.428 . S
C178 C181 1.260 . S
C178 C182 1.477 . S
C178 H196 0.932 . S
C179 C180 1.384 . S
C179 C181 1.479 . S
C179 H197 0.929 . S
C180 C177 1.424 . S
C180 C179 1.384 . S
C180 H198 0.928 . S
C181 C178 1.260 . S
C181 C179 1.479 . S
C182 C177 1.245 . S
C182 C178 1.477 . S
C182 H199 0.932 . S
C183 U166 2.882 . S
C183 C177 1.428 . S
C183 O186 1.301 . S
C183 O187 1.282 . S
O184 U166 2.441 . S
O184 C170 1.249 . S
O185 U166 2.420 . S
O185 C170 1.202 . S
O186 U166 2.455 . S
O186 C183 1.301 . S
O187 U166 2.449 . S
O187 C183 1.282 . S
H188 C161 0.931 . S
H189 C163 0.929 . S
H190 C164 0.930 . S
H191 C165 0.931 . S
H192 C172 0.932 . S
H193 C173 0.930 . S
H194 C174 0.929 . S
H195 C176 0.930 . S
H196 C178 0.932 . S
H197 C179 0.929 . S
H198 C180 0.928 . S
H199 C182 0.932 . S
C200 C201 1.264 . S
C200 C205 1.479 . S
C200 C210 1.465 . S
C201 C200 1.264 . S
C201 C203 1.339 . S
C201 H228 0.931 . S
C202 C203 1.395 . S
C202 C204 1.320 . S
C203 C201 1.339 . S
C203 C202 1.395 . S
C203 H229 0.929 . S
C204 C202 1.320 . S
C204 C205 1.405 . S
C204 H230 0.930 . S
C205 C200 1.479 . S
C205 C204 1.405 . S
C205 H231 0.931 . S
U206 O207 2.454 . S
U206 O208 2.458 . S
U206 C209 2.984 . S
U206 C210 2.847 . S
U206 C223 2.882 . S
U206 O224 2.441 . S
U206 O225 2.420 . S
U206 O226 2.455 . S
U206 O227 2.449 . S
O207 U206 2.454 . S
O207 C209 1.353 . S
O208 U206 2.458 . S
O208 C209 1.286 . S
C209 U206 2.984 . S
C209 O207 1.353 . S
C209 O208 1.286 . S
C209 C211 1.363 . S
C210 C200 1.465 . S
C210 U206 2.847 . S
C210 O224 1.249 . S
C210 O225 1.202 . S
C211 C209 1.363 . S
C211 C213 1.408 . S
C211 C216 1.342 . S
C212 C213 1.310 . S
C212 C215 1.461 . S
C212 H232 0.932 . S
C213 C211 1.408 . S
C213 C212 1.310 . S
C213 H233 0.930 . S
C214 C215 1.474 . S
C214 C216 1.285 . S
C214 H234 0.929 . S
C215 C212 1.461 . S
C215 C214 1.474 . S
C216 C211 1.342 . S
C216 C214 1.285 . S
C216 H235 0.930 . S
C217 C220 1.424 . S
C217 C222 1.245 . S
C217 C223 1.428 . S
C218 C221 1.260 . S
C218 C222 1.477 . S
C218 H236 0.932 . S
C219 C220 1.384 . S
C219 C221 1.479 . S
C219 H237 0.929 . S
C220 C217 1.424 . S
C220 C219 1.384 . S
C220 H238 0.928 . S
C221 C218 1.260 . S
C221 C219 1.479 . S
C222 C217 1.245 . S
C222 C218 1.477 . S
C222 H239 0.932 . S
C223 U206 2.882 . S
C223 C217 1.428 . S
C223 O226 1.301 . S
C223 O227 1.282 . S
O224 U206 2.441 . S
O224 C210 1.249 . S
O225 U206 2.420 . S
O225 C210 1.202 . S
O226 U206 2.455 . S
O226 C223 1.301 . S
O227 U206 2.449 . S
O227 C223 1.282 . S
H228 C201 0.931 . S
H229 C203 0.929 . S
H230 C204 0.930 . S
H231 C205 0.931 . S
H232 C212 0.932 . S
H233 C213 0.930 . S
H234 C214 0.929 . S
H235 C216 0.930 . S
H236 C218 0.932 . S
H237 C219 0.929 . S
H238 C220 0.928 . S
H239 C222 0.932 . S
C240 C241 1.264 . S
C240 C245 1.479 . S
C240 C250 1.465 . S
C241 C240 1.264 . S
C241 C243 1.339 . S
C241 H268 0.931 . S
C242 C243 1.395 . S
C242 C244 1.320 . S
C243 C241 1.339 . S
C243 C242 1.395 . S
C243 H269 0.929 . S
C244 C242 1.320 . S
C244 C245 1.405 . S
C244 H270 0.930 . S
C245 C240 1.479 . S
C245 C244 1.405 . S
C245 H271 0.931 . S
U246 O247 2.454 . S
U246 O248 2.458 . S
U246 C249 2.984 . S
U246 C250 2.847 . S
U246 C263 2.882 . S
U246 O264 2.441 . S
U246 O265 2.420 . S
U246 O266 2.455 . S
U246 O267 2.449 . S
O247 U246 2.454 . S
O247 C249 1.353 . S
O248 U246 2.458 . S
O248 C249 1.286 . S
C249 U246 2.984 . S
C249 O247 1.353 . S
C249 O248 1.286 . S
C249 C251 1.363 . S
C250 C240 1.465 . S
C250 U246 2.847 . S
C250 O264 1.249 . S
C250 O265 1.202 . S
C251 C249 1.363 . S
C251 C253 1.408 . S
C251 C256 1.342 . S
C252 C253 1.310 . S
C252 C255 1.461 . S
C252 H272 0.932 . S
C253 C251 1.408 . S
C253 C252 1.310 . S
C253 H273 0.930 . S
C254 C255 1.474 . S
C254 C256 1.285 . S
C254 H274 0.929 . S
C255 C252 1.461 . S
C255 C254 1.474 . S
C256 C251 1.342 . S
C256 C254 1.285 . S
C256 H275 0.930 . S
C257 C260 1.424 . S
C257 C262 1.245 . S
C257 C263 1.428 . S
C258 C261 1.260 . S
C258 C262 1.477 . S
C258 H276 0.932 . S
C259 C260 1.384 . S
C259 C261 1.479 . S
C259 H277 0.929 . S
C260 C257 1.424 . S
C260 C259 1.384 . S
C260 H278 0.928 . S
C261 C258 1.260 . S
C261 C259 1.479 . S
C262 C257 1.245 . S
C262 C258 1.477 . S
C262 H279 0.932 . S
C263 U246 2.882 . S
C263 C257 1.428 . S
C263 O266 1.301 . S
C263 O267 1.282 . S
O264 U246 2.441 . S
O264 C250 1.249 . S
O265 U246 2.420 . S
O265 C250 1.202 . S
O266 U246 2.455 . S
O266 C263 1.301 . S
O267 U246 2.449 . S
O267 C263 1.282 . S
H268 C241 0.931 . S
H269 C243 0.929 . S
H270 C244 0.930 . S
H271 C245 0.931 . S
H272 C252 0.932 . S
H273 C253 0.930 . S
H274 C254 0.929 . S
H275 C256 0.930 . S
H276 C258 0.932 . S
H277 C259 0.929 . S
H278 C260 0.928 . S
H279 C262 0.932 . S
C280 C281 1.264 . S
C280 C285 1.479 . S
C280 C290 1.465 . S
C281 C280 1.264 . S
C281 C283 1.339 . S
C281 H308 0.931 . S
C282 C283 1.395 . S
C282 C284 1.320 . S
C283 C281 1.339 . S
C283 C282 1.395 . S
C283 H309 0.929 . S
C284 C282 1.320 . S
C284 C285 1.405 . S
C284 H310 0.930 . S
C285 C280 1.479 . S
C285 C284 1.405 . S
C285 H311 0.931 . S
U286 O287 2.454 . S
U286 O288 2.458 . S
U286 C289 2.984 . S
U286 C290 2.847 . S
U286 C303 2.882 . S
U286 O304 2.441 . S
U286 O305 2.420 . S
U286 O306 2.455 . S
U286 O307 2.449 . S
O287 U286 2.454 . S
O287 C289 1.353 . S
O288 U286 2.458 . S
O288 C289 1.286 . S
C289 U286 2.984 . S
C289 O287 1.353 . S
C289 O288 1.286 . S
C289 C291 1.363 . S
C290 C280 1.465 . S
C290 U286 2.847 . S
C290 O304 1.249 . S
C290 O305 1.202 . S
C291 C289 1.363 . S
C291 C293 1.408 . S
C291 C296 1.342 . S
C292 C293 1.310 . S
C292 C295 1.461 . S
C292 H312 0.932 . S
C293 C291 1.408 . S
C293 C292 1.310 . S
C293 H313 0.930 . S
C294 C295 1.474 . S
C294 C296 1.285 . S
C294 H314 0.929 . S
C295 C292 1.461 . S
C295 C294 1.474 . S
C296 C291 1.342 . S
C296 C294 1.285 . S
C296 H315 0.930 . S
C297 C300 1.424 . S
C297 C302 1.245 . S
C297 C303 1.428 . S
C298 C301 1.260 . S
C298 C302 1.477 . S
C298 H316 0.932 . S
C299 C300 1.384 . S
C299 C301 1.479 . S
C299 H317 0.929 . S
C300 C297 1.424 . S
C300 C299 1.384 . S
C300 H318 0.928 . S
C301 C298 1.260 . S
C301 C299 1.479 . S
C302 C297 1.245 . S
C302 C298 1.477 . S
C302 H319 0.932 . S
C303 U286 2.882 . S
C303 C297 1.428 . S
C303 O306 1.301 . S
C303 O307 1.282 . S
O304 U286 2.441 . S
O304 C290 1.249 . S
O305 U286 2.420 . S
O305 C290 1.202 . S
O306 U286 2.455 . S
O306 C303 1.301 . S
O307 U286 2.449 . S
O307 C303 1.282 . S
H308 C281 0.931 . S
H309 C283 0.929 . S
H310 C284 0.930 . S
H311 C285 0.931 . S
H312 C292 0.932 . S
H313 C293 0.930 . S
H314 C294 0.929 . S
H315 C296 0.930 . S
H316 C298 0.932 . S
H317 C299 0.929 . S
H318 C300 0.928 . S
H319 C302 0.932 . S
C320 C321 1.264 . S
C320 C325 1.479 . S
C320 C330 1.465 . S
C321 C320 1.264 . S
C321 C323 1.339 . S
C321 H348 0.931 . S
C322 C323 1.395 . S
C322 C324 1.320 . S
C323 C321 1.339 . S
C323 C322 1.395 . S
C323 H349 0.929 . S
C324 C322 1.320 . S
C324 C325 1.405 . S
C324 H350 0.930 . S
C325 C320 1.479 . S
C325 C324 1.405 . S
C325 H351 0.931 . S
U326 O327 2.454 . S
U326 O328 2.458 . S
U326 C329 2.984 . S
U326 C330 2.847 . S
U326 C343 2.882 . S
U326 O344 2.441 . S
U326 O345 2.420 . S
U326 O346 2.455 . S
U326 O347 2.449 . S
O327 U326 2.454 . S
O327 C329 1.353 . S
O328 U326 2.458 . S
O328 C329 1.286 . S
C329 U326 2.984 . S
C329 O327 1.353 . S
C329 O328 1.286 . S
C329 C331 1.363 . S
C330 C320 1.465 . S
C330 U326 2.847 . S
C330 O344 1.249 . S
C330 O345 1.202 . S
C331 C329 1.363 . S
C331 C333 1.408 . S
C331 C336 1.342 . S
C332 C333 1.310 . S
C332 C335 1.461 . S
C332 H352 0.932 . S
C333 C331 1.408 . S
C333 C332 1.310 . S
C333 H353 0.930 . S
C334 C335 1.474 . S
C334 C336 1.285 . S
C334 H354 0.929 . S
C335 C332 1.461 . S
C335 C334 1.474 . S
C336 C331 1.342 . S
C336 C334 1.285 . S
C336 H355 0.930 . S
C337 C340 1.424 . S
C337 C342 1.245 . S
C337 C343 1.428 . S
C338 C341 1.260 . S
C338 C342 1.477 . S
C338 H356 0.932 . S
C339 C340 1.384 . S
C339 C341 1.479 . S
C339 H357 0.929 . S
C340 C337 1.424 . S
C340 C339 1.384 . S
C340 H358 0.928 . S
C341 C338 1.260 . S
C341 C339 1.479 . S
C342 C337 1.245 . S
C342 C338 1.477 . S
C342 H359 0.932 . S
C343 U326 2.882 . S
C343 C337 1.428 . S
C343 O346 1.301 . S
C343 O347 1.282 . S
O344 U326 2.441 . S
O344 C330 1.249 . S
O345 U326 2.420 . S
O345 C330 1.202 . S
O346 U326 2.455 . S
O346 C343 1.301 . S
O347 U326 2.449 . S
O347 C343 1.282 . S
H348 C321 0.931 . S
H349 C323 0.929 . S
H350 C324 0.930 . S
H351 C325 0.931 . S
H352 C332 0.932 . S
H353 C333 0.930 . S
H354 C334 0.929 . S
H355 C336 0.930 . S
H356 C338 0.932 . S
H357 C339 0.929 . S
H358 C340 0.928 . S
H359 C342 0.932 . S
C360 C361 1.264 . S
C360 C365 1.479 . S
C360 C370 1.465 . S
C361 C360 1.264 . S
C361 C363 1.339 . S
C361 H388 0.931 . S
C362 C363 1.395 . S
C362 C364 1.320 . S
C363 C361 1.339 . S
C363 C362 1.395 . S
C363 H389 0.929 . S
C364 C362 1.320 . S
C364 C365 1.405 . S
C364 H390 0.930 . S
C365 C360 1.479 . S
C365 C364 1.405 . S
C365 H391 0.931 . S
U366 O367 2.454 . S
U366 O368 2.458 . S
U366 C369 2.984 . S
U366 C370 2.847 . S
U366 C383 2.882 . S
U366 O384 2.441 . S
U366 O385 2.420 . S
U366 O386 2.455 . S
U366 O387 2.449 . S
O367 U366 2.454 . S
O367 C369 1.353 . S
O368 U366 2.458 . S
O368 C369 1.286 . S
C369 U366 2.984 . S
C369 O367 1.353 . S
C369 O368 1.286 . S
C369 C371 1.363 . S
C370 C360 1.465 . S
C370 U366 2.847 . S
C370 O384 1.249 . S
C370 O385 1.202 . S
C371 C369 1.363 . S
C371 C373 1.408 . S
C371 C376 1.342 . S
C372 C373 1.310 . S
C372 C375 1.461 . S
C372 H392 0.932 . S
C373 C371 1.408 . S
C373 C372 1.310 . S
C373 H393 0.930 . S
C374 C375 1.474 . S
C374 C376 1.285 . S
C374 H394 0.929 . S
C375 C372 1.461 . S
C375 C374 1.474 . S
C376 C371 1.342 . S
C376 C374 1.285 . S
C376 H395 0.930 . S
C377 C380 1.424 . S
C377 C382 1.245 . S
C377 C383 1.428 . S
C378 C381 1.260 . S
C378 C382 1.477 . S
C378 H396 0.932 . S
C379 C380 1.384 . S
C379 C381 1.479 . S
C379 H397 0.929 . S
C380 C377 1.424 . S
C380 C379 1.384 . S
C380 H398 0.928 . S
C381 C378 1.260 . S
C381 C379 1.479 . S
C382 C377 1.245 . S
C382 C378 1.477 . S
C382 H399 0.932 . S
C383 U366 2.882 . S
C383 C377 1.428 . S
C383 O386 1.301 . S
C383 O387 1.282 . S
O384 U366 2.441 . S
O384 C370 1.249 . S
O385 U366 2.420 . S
O385 C370 1.202 . S
O386 U366 2.455 . S
O386 C383 1.301 . S
O387 U366 2.449 . S
O387 C383 1.282 . S
H388 C361 0.931 . S
H389 C363 0.929 . S
H390 C364 0.930 . S
H391 C365 0.931 . S
H392 C372 0.932 . S
H393 C373 0.930 . S
H394 C374 0.929 . S
H395 C376 0.930 . S
H396 C378 0.932 . S
H397 C379 0.929 . S
H398 C380 0.928 . S
H399 C382 0.932 . S
C400 C401 1.264 . S
C400 C405 1.479 . S
C400 C410 1.465 . S
C401 C400 1.264 . S
C401 C403 1.339 . S
C401 H428 0.931 . S
C402 C403 1.395 . S
C402 C404 1.320 . S
C403 C401 1.339 . S
C403 C402 1.395 . S
C403 H429 0.929 . S
C404 C402 1.320 . S
C404 C405 1.405 . S
C404 H430 0.930 . S
C405 C400 1.479 . S
C405 C404 1.405 . S
C405 H431 0.931 . S
U406 O407 2.454 . S
U406 O408 2.458 . S
U406 C409 2.984 . S
U406 C410 2.847 . S
U406 C423 2.882 . S
U406 O424 2.441 . S
U406 O425 2.420 . S
U406 O426 2.455 . S
U406 O427 2.449 . S
O407 U406 2.454 . S
O407 C409 1.353 . S
O408 U406 2.458 . S
O408 C409 1.286 . S
C409 U406 2.984 . S
C409 O407 1.353 . S
C409 O408 1.286 . S
C409 C411 1.363 . S
C410 C400 1.465 . S
C410 U406 2.847 . S
C410 O424 1.249 . S
C410 O425 1.202 . S
C411 C409 1.363 . S
C411 C413 1.408 . S
C411 C416 1.342 . S
C412 C413 1.310 . S
C412 C415 1.461 . S
C412 H432 0.932 . S
C413 C411 1.408 . S
C413 C412 1.310 . S
C413 H433 0.930 . S
C414 C415 1.474 . S
C414 C416 1.285 . S
C414 H434 0.929 . S
C415 C412 1.461 . S
C415 C414 1.474 . S
C416 C411 1.342 . S
C416 C414 1.285 . S
C416 H435 0.930 . S
C417 C420 1.424 . S
C417 C422 1.245 . S
C417 C423 1.428 . S
C418 C421 1.260 . S
C418 C422 1.477 . S
C418 H436 0.932 . S
C419 C420 1.384 . S
C419 C421 1.479 . S
C419 H437 0.929 . S
C420 C417 1.424 . S
C420 C419 1.384 . S
C420 H438 0.928 . S
C421 C418 1.260 . S
C421 C419 1.479 . S
C422 C417 1.245 . S
C422 C418 1.477 . S
C422 H439 0.932 . S
C423 U406 2.882 . S
C423 C417 1.428 . S
C423 O426 1.301 . S
C423 O427 1.282 . S
O424 U406 2.441 . S
O424 C410 1.249 . S
O425 U406 2.420 . S
O425 C410 1.202 . S
O426 U406 2.455 . S
O426 C423 1.301 . S
O427 U406 2.449 . S
O427 C423 1.282 . S
H428 C401 0.931 . S
H429 C403 0.929 . S
H430 C404 0.930 . S
H431 C405 0.931 . S
H432 C412 0.932 . S
H433 C413 0.930 . S
H434 C414 0.929 . S
H435 C416 0.930 . S
H436 C418 0.932 . S
H437 C419 0.929 . S
H438 C420 0.928 . S
H439 C422 0.932 . S
C440 C441 1.264 . S
C440 C445 1.479 . S
C440 C450 1.465 . S
C441 C440 1.264 . S
C441 C443 1.339 . S
C441 H468 0.931 . S
C442 C443 1.395 . S
C442 C444 1.320 . S
C443 C441 1.339 . S
C443 C442 1.395 . S
C443 H469 0.929 . S
C444 C442 1.320 . S
C444 C445 1.405 . S
C444 H470 0.930 . S
C445 C440 1.479 . S
C445 C444 1.405 . S
C445 H471 0.931 . S
U446 O447 2.454 . S
U446 O448 2.458 . S
U446 C449 2.984 . S
U446 C450 2.847 . S
U446 C463 2.882 . S
U446 O464 2.441 . S
U446 O465 2.420 . S
U446 O466 2.455 . S
U446 O467 2.449 . S
O447 U446 2.454 . S
O447 C449 1.353 . S
O448 U446 2.458 . S
O448 C449 1.286 . S
C449 U446 2.984 . S
C449 O447 1.353 . S
C449 O448 1.286 . S
C449 C451 1.363 . S
C450 C440 1.465 . S
C450 U446 2.847 . S
C450 O464 1.249 . S
C450 O465 1.202 . S
C451 C449 1.363 . S
C451 C453 1.408 . S
C451 C456 1.342 . S
C452 C453 1.310 . S
C452 C455 1.461 . S
C452 H472 0.932 . S
C453 C451 1.408 . S
C453 C452 1.310 . S
C453 H473 0.930 . S
C454 C455 1.474 . S
C454 C456 1.285 . S
C454 H474 0.929 . S
C455 C452 1.461 . S
C455 C454 1.474 . S
C456 C451 1.342 . S
C456 C454 1.285 . S
C456 H475 0.930 . S
C457 C460 1.424 . S
C457 C462 1.245 . S
C457 C463 1.428 . S
C458 C461 1.260 . S
C458 C462 1.477 . S
C458 H476 0.932 . S
C459 C460 1.384 . S
C459 C461 1.479 . S
C459 H477 0.929 . S
C460 C457 1.424 . S
C460 C459 1.384 . S
C460 H478 0.928 . S
C461 C458 1.260 . S
C461 C459 1.479 . S
C462 C457 1.245 . S
C462 C458 1.477 . S
C462 H479 0.932 . S
C463 U446 2.882 . S
C463 C457 1.428 . S
C463 O466 1.301 . S
C463 O467 1.282 . S
O464 U446 2.441 . S
O464 C450 1.249 . S
O465 U446 2.420 . S
O465 C450 1.202 . S
O466 U446 2.455 . S
O466 C463 1.301 . S
O467 U446 2.449 . S
O467 C463 1.282 . S
H468 C441 0.931 . S
H469 C443 0.929 . S
H470 C444 0.930 . S
H471 C445 0.931 . S
H472 C452 0.932 . S
H473 C453 0.930 . S
H474 C454 0.929 . S
H475 C456 0.930 . S
H476 C458 0.932 . S
H477 C459 0.929 . S
H478 C460 0.928 . S
H479 C462 0.932 . S
C480 C481 1.264 . S
C480 C485 1.479 . S
C480 C490 1.465 . S
C481 C480 1.264 . S
C481 C483 1.339 . S
C481 H508 0.931 . S
C482 C483 1.395 . S
C482 C484 1.320 . S
C483 C481 1.339 . S
C483 C482 1.395 . S
C483 H509 0.929 . S
C484 C482 1.320 . S
C484 C485 1.405 . S
C484 H510 0.930 . S
C485 C480 1.479 . S
C485 C484 1.405 . S
C485 H511 0.931 . S
U486 O487 2.454 . S
U486 O488 2.458 . S
U486 C489 2.984 . S
U486 C490 2.847 . S
U486 C503 2.882 . S
U486 O504 2.441 . S
U486 O505 2.420 . S
U486 O506 2.455 . S
U486 O507 2.449 . S
O487 U486 2.454 . S
O487 C489 1.353 . S
O488 U486 2.458 . S
O488 C489 1.286 . S
C489 U486 2.984 . S
C489 O487 1.353 . S
C489 O488 1.286 . S
C489 C491 1.363 . S
C490 C480 1.465 . S
C490 U486 2.847 . S
C490 O504 1.249 . S
C490 O505 1.202 . S
C491 C489 1.363 . S
C491 C493 1.408 . S
C491 C496 1.342 . S
C492 C493 1.310 . S
C492 C495 1.461 . S
C492 H512 0.932 . S
C493 C491 1.408 . S
C493 C492 1.310 . S
C493 H513 0.930 . S
C494 C495 1.474 . S
C494 C496 1.285 . S
C494 H514 0.929 . S
C495 C492 1.461 . S
C495 C494 1.474 . S
C496 C491 1.342 . S
C496 C494 1.285 . S
C496 H515 0.930 . S
C497 C500 1.424 . S
C497 C502 1.245 . S
C497 C503 1.428 . S
C498 C501 1.260 . S
C498 C502 1.477 . S
C498 H516 0.932 . S
C499 C500 1.384 . S
C499 C501 1.479 . S
C499 H517 0.929 . S
C500 C497 1.424 . S
C500 C499 1.384 . S
C500 H518 0.928 . S
C501 C498 1.260 . S
C501 C499 1.479 . S
C502 C497 1.245 . S
C502 C498 1.477 . S
C502 H519 0.932 . S
C503 U486 2.882 . S
C503 C497 1.428 . S
C503 O506 1.301 . S
C503 O507 1.282 . S
O504 U486 2.441 . S
O504 C490 1.249 . S
O505 U486 2.420 . S
O505 C490 1.202 . S
O506 U486 2.455 . S
O506 C503 1.301 . S
O507 U486 2.449 . S
O507 C503 1.282 . S
H508 C481 0.931 . S
H509 C483 0.929 . S
H510 C484 0.930 . S
H511 C485 0.931 . S
H512 C492 0.932 . S
H513 C493 0.930 . S
H514 C494 0.929 . S
H515 C496 0.930 . S
H516 C498 0.932 . S
H517 C499 0.929 . S
H518 C500 0.928 . S
H519 C502 0.932 . S
C520 C521 1.264 . S
C520 C525 1.479 . S
C520 C530 1.465 . S
C521 C520 1.264 . S
C521 C523 1.339 . S
C521 H548 0.931 . S
C522 C523 1.395 . S
C522 C524 1.320 . S
C523 C521 1.339 . S
C523 C522 1.395 . S
C523 H549 0.929 . S
C524 C522 1.320 . S
C524 C525 1.405 . S
C524 H550 0.930 . S
C525 C520 1.479 . S
C525 C524 1.405 . S
C525 H551 0.931 . S
U526 O527 2.454 . S
U526 O528 2.458 . S
U526 C529 2.984 . S
U526 C530 2.847 . S
U526 C543 2.882 . S
U526 O544 2.441 . S
U526 O545 2.420 . S
U526 O546 2.455 . S
U526 O547 2.449 . S
O527 U526 2.454 . S
O527 C529 1.353 . S
O528 U526 2.458 . S
O528 C529 1.286 . S
C529 U526 2.984 . S
C529 O527 1.353 . S
C529 O528 1.286 . S
C529 C531 1.363 . S
C530 C520 1.465 . S
C530 U526 2.847 . S
C530 O544 1.249 . S
C530 O545 1.202 . S
C531 C529 1.363 . S
C531 C533 1.408 . S
C531 C536 1.342 . S
C532 C533 1.310 . S
C532 C535 1.461 . S
C532 H552 0.932 . S
C533 C531 1.408 . S
C533 C532 1.310 . S
C533 H553 0.930 . S
C534 C535 1.474 . S
C534 C536 1.285 . S
C534 H554 0.929 . S
C535 C532 1.461 . S
C535 C534 1.474 . S
C536 C531 1.342 . S
C536 C534 1.285 . S
C536 H555 0.930 . S
C537 C540 1.424 . S
C537 C542 1.245 . S
C537 C543 1.428 . S
C538 C541 1.260 . S
C538 C542 1.477 . S
C538 H556 0.932 . S
C539 C540 1.384 . S
C539 C541 1.479 . S
C539 H557 0.929 . S
C540 C537 1.424 . S
C540 C539 1.384 . S
C540 H558 0.928 . S
C541 C538 1.260 . S
C541 C539 1.479 . S
C542 C537 1.245 . S
C542 C538 1.477 . S
C542 H559 0.932 . S
C543 U526 2.882 . S
C543 C537 1.428 . S
C543 O546 1.301 . S
C543 O547 1.282 . S
O544 U526 2.441 . S
O544 C530 1.249 . S
O545 U526 2.420 . S
O545 C530 1.202 . S
O546 U526 2.455 . S
O546 C543 1.301 . S
O547 U526 2.449 . S
O547 C543 1.282 . S
H548 C521 0.931 . S
H549 C523 0.929 . S
H550 C524 0.930 . S
H551 C525 0.931 . S
H552 C532 0.932 . S
H553 C533 0.930 . S
H554 C534 0.929 . S
H555 C536 0.930 . S
H556 C538 0.932 . S
H557 C539 0.929 . S
H558 C540 0.928 . S
H559 C542 0.932 . S
C560 C561 1.264 . S
C560 C565 1.479 . S
C560 C570 1.465 . S
C561 C560 1.264 . S
C561 C563 1.339 . S
C561 H588 0.931 . S
C562 C563 1.395 . S
C562 C564 1.320 . S
C563 C561 1.339 . S
C563 C562 1.395 . S
C563 H589 0.929 . S
C564 C562 1.320 . S
C564 C565 1.405 . S
C564 H590 0.930 . S
C565 C560 1.479 . S
C565 C564 1.405 . S
C565 H591 0.931 . S
U566 O567 2.454 . S
U566 O568 2.458 . S
U566 C569 2.984 . S
U566 C570 2.847 . S
U566 C583 2.882 . S
U566 O584 2.441 . S
U566 O585 2.420 . S
U566 O586 2.455 . S
U566 O587 2.449 . S
O567 U566 2.454 . S
O567 C569 1.353 . S
O568 U566 2.458 . S
O568 C569 1.286 . S
C569 U566 2.984 . S
C569 O567 1.353 . S
C569 O568 1.286 . S
C569 C571 1.363 . S
C570 C560 1.465 . S
C570 U566 2.847 . S
C570 O584 1.249 . S
C570 O585 1.202 . S
C571 C569 1.363 . S
C571 C573 1.408 . S
C571 C576 1.342 . S
C572 C573 1.310 . S
C572 C575 1.461 . S
C572 H592 0.932 . S
C573 C571 1.408 . S
C573 C572 1.310 . S
C573 H593 0.930 . S
C574 C575 1.474 . S
C574 C576 1.285 . S
C574 H594 0.929 . S
C575 C572 1.461 . S
C575 C574 1.474 . S
C576 C571 1.342 . S
C576 C574 1.285 . S
C576 H595 0.930 . S
C577 C580 1.424 . S
C577 C582 1.245 . S
C577 C583 1.428 . S
C578 C581 1.260 . S
C578 C582 1.477 . S
C578 H596 0.932 . S
C579 C580 1.384 . S
C579 C581 1.479 . S
C579 H597 0.929 . S
C580 C577 1.424 . S
C580 C579 1.384 . S
C580 H598 0.928 . S
C581 C578 1.260 . S
C581 C579 1.479 . S
C582 C577 1.245 . S
C582 C578 1.477 . S
C582 H599 0.932 . S
C583 U566 2.882 . S
C583 C577 1.428 . S
C583 O586 1.301 . S
C583 O587 1.282 . S
O584 U566 2.441 . S
O584 C570 1.249 . S
O585 U566 2.420 . S
O585 C570 1.202 . S
O586 U566 2.455 . S
O586 C583 1.301 . S
O587 U566 2.449 . S
O587 C583 1.282 . S
H588 C561 0.931 . S
H589 C563 0.929 . S
H590 C564 0.930 . S
H591 C565 0.931 . S
H592 C572 0.932 . S
H593 C573 0.930 . S
H594 C574 0.929 . S
H595 C576 0.930 . S
H596 C578 0.932 . S
H597 C579 0.929 . S
H598 C580 0.928 . S
H599 C582 0.932 . S
C600 C601 1.264 . S
C600 C605 1.479 . S
C600 C610 1.465 . S
C601 C600 1.264 . S
C601 C603 1.339 . S
C601 H628 0.931 . S
C602 C603 1.395 . S
C602 C604 1.320 . S
C603 C601 1.339 . S
C603 C602 1.395 . S
C603 H629 0.929 . S
C604 C602 1.320 . S
C604 C605 1.405 . S
C604 H630 0.930 . S
C605 C600 1.479 . S
C605 C604 1.405 . S
C605 H631 0.931 . S
U606 O607 2.454 . S
U606 O608 2.458 . S
U606 C609 2.984 . S
U606 C610 2.847 . S
U606 C623 2.882 . S
U606 O624 2.441 . S
U606 O625 2.420 . S
U606 O626 2.455 . S
U606 O627 2.449 . S
O607 U606 2.454 . S
O607 C609 1.353 . S
O608 U606 2.458 . S
O608 C609 1.286 . S
C609 U606 2.984 . S
C609 O607 1.353 . S
C609 O608 1.286 . S
C609 C611 1.363 . S
C610 C600 1.465 . S
C610 U606 2.847 . S
C610 O624 1.249 . S
C610 O625 1.202 . S
C611 C609 1.363 . S
C611 C613 1.408 . S
C611 C616 1.342 . S
C612 C613 1.310 . S
C612 C615 1.461 . S
C612 H632 0.932 . S
C613 C611 1.408 . S
C613 C612 1.310 . S
C613 H633 0.930 . S
C614 C615 1.474 . S
C614 C616 1.285 . S
C614 H634 0.929 . S
C615 C612 1.461 . S
C615 C614 1.474 . S
C616 C611 1.342 . S
C616 C614 1.285 . S
C616 H635 0.930 . S
C617 C620 1.424 . S
C617 C622 1.245 . S
C617 C623 1.428 . S
C618 C621 1.260 . S
C618 C622 1.477 . S
C618 H636 0.932 . S
C619 C620 1.384 . S
C619 C621 1.479 . S
C619 H637 0.929 . S
C620 C617 1.424 . S
C620 C619 1.384 . S
C620 H638 0.928 . S
C621 C618 1.260 . S
C621 C619 1.479 . S
C622 C617 1.245 . S
C622 C618 1.477 . S
C622 H639 0.932 . S
C623 U606 2.882 . S
C623 C617 1.428 . S
C623 O626 1.301 . S
C623 O627 1.282 . S
O624 U606 2.441 . S
O624 C610 1.249 . S
O625 U606 2.420 . S
O625 C610 1.202 . S
O626 U606 2.455 . S
O626 C623 1.301 . S
O627 U606 2.449 . S
O627 C623 1.282 . S
H628 C601 0.931 . S
H629 C603 0.929 . S
H630 C604 0.930 . S
H631 C605 0.931 . S
H632 C612 0.932 . S
H633 C613 0.930 . S
H634 C614 0.929 . S
H635 C616 0.930 . S
H636 C618 0.932 . S
H637 C619 0.929 . S
H638 C620 0.928 . S
H639 C622 0.932 . S
C640 C641 1.264 . S
C640 C645 1.479 . S
C640 C650 1.465 . S
C641 C640 1.264 . S
C641 C643 1.339 . S
C641 H668 0.931 . S
C642 C643 1.395 . S
C642 C644 1.320 . S
C643 C641 1.339 . S
C643 C642 1.395 . S
C643 H669 0.929 . S
C644 C642 1.320 . S
C644 C645 1.405 . S
C644 H670 0.930 . S
C645 C640 1.479 . S
C645 C644 1.405 . S
C645 H671 0.931 . S
U646 O647 2.454 . S
U646 O648 2.458 . S
U646 C649 2.984 . S
U646 C650 2.847 . S
U646 C663 2.882 . S
U646 O664 2.441 . S
U646 O665 2.420 . S
U646 O666 2.455 . S
U646 O667 2.449 . S
O647 U646 2.454 . S
O647 C649 1.353 . S
O648 U646 2.458 . S
O648 C649 1.286 . S
C649 U646 2.984 . S
C649 O647 1.353 . S
C649 O648 1.286 . S
C649 C651 1.363 . S
C650 C640 1.465 . S
C650 U646 2.847 . S
C650 O664 1.249 . S
C650 O665 1.202 . S
C651 C649 1.363 . S
C651 C653 1.408 . S
C651 C656 1.342 . S
C652 C653 1.310 . S
C652 C655 1.461 . S
C652 H672 0.932 . S
C653 C651 1.408 . S
C653 C652 1.310 . S
C653 H673 0.930 . S
C654 C655 1.474 . S
C654 C656 1.285 . S
C654 H674 0.929 . S
C655 C652 1.461 . S
C655 C654 1.474 . S
C656 C651 1.342 . S
C656 C654 1.285 . S
C656 H675 0.930 . S
C657 C660 1.424 . S
C657 C662 1.245 . S
C657 C663 1.428 . S
C658 C661 1.260 . S
C658 C662 1.477 . S
C658 H676 0.932 . S
C659 C660 1.384 . S
C659 C661 1.479 . S
C659 H677 0.929 . S
C660 C657 1.424 . S
C660 C659 1.384 . S
C660 H678 0.928 . S
C661 C658 1.260 . S
C661 C659 1.479 . S
C662 C657 1.245 . S
C662 C658 1.477 . S
C662 H679 0.932 . S
C663 U646 2.882 . S
C663 C657 1.428 . S
C663 O666 1.301 . S
C663 O667 1.282 . S
O664 U646 2.441 . S
O664 C650 1.249 . S
O665 U646 2.420 . S
O665 C650 1.202 . S
O666 U646 2.455 . S
O666 C663 1.301 . S
O667 U646 2.449 . S
O667 C663 1.282 . S
H668 C641 0.931 . S
H669 C643 0.929 . S
H670 C644 0.930 . S
H671 C645 0.931 . S
H672 C652 0.932 . S
H673 C653 0.930 . S
H674 C654 0.929 . S
H675 C656 0.930 . S
H676 C658 0.932 . S
H677 C659 0.929 . S
H678 C660 0.928 . S
H679 C662 0.932 . S
C680 C681 1.264 . S
C680 C685 1.479 . S
C680 C690 1.465 . S
C681 C680 1.264 . S
C681 C683 1.339 . S
C681 H708 0.931 . S
C682 C683 1.395 . S
C682 C684 1.320 . S
C683 C681 1.339 . S
C683 C682 1.395 . S
C683 H709 0.929 . S
C684 C682 1.320 . S
C684 C685 1.405 . S
C684 H710 0.930 . S
C685 C680 1.479 . S
C685 C684 1.405 . S
C685 H711 0.931 . S
U686 O687 2.454 . S
U686 O688 2.458 . S
U686 C689 2.984 . S
U686 C690 2.847 . S
U686 C703 2.882 . S
U686 O704 2.441 . S
U686 O705 2.420 . S
U686 O706 2.455 . S
U686 O707 2.449 . S
O687 U686 2.454 . S
O687 C689 1.353 . S
O688 U686 2.458 . S
O688 C689 1.286 . S
C689 U686 2.984 . S
C689 O687 1.353 . S
C689 O688 1.286 . S
C689 C691 1.363 . S
C690 C680 1.465 . S
C690 U686 2.847 . S
C690 O704 1.249 . S
C690 O705 1.202 . S
C691 C689 1.363 . S
C691 C693 1.408 . S
C691 C696 1.342 . S
C692 C693 1.310 . S
C692 C695 1.461 . S
C692 H712 0.932 . S
C693 C691 1.408 . S
C693 C692 1.310 . S
C693 H713 0.930 . S
C694 C695 1.474 . S
C694 C696 1.285 . S
C694 H714 0.929 . S
C695 C692 1.461 . S
C695 C694 1.474 . S
C696 C691 1.342 . S
C696 C694 1.285 . S
C696 H715 0.930 . S
C697 C700 1.424 . S
C697 C702 1.245 . S
C697 C703 1.428 . S
C698 C701 1.260 . S
C698 C702 1.477 . S
C698 H716 0.932 . S
C699 C700 1.384 . S
C699 C701 1.479 . S
C699 H717 0.929 . S
C700 C697 1.424 . S
C700 C699 1.384 . S
C700 H718 0.928 . S
C701 C698 1.260 . S
C701 C699 1.479 . S
C702 C697 1.245 . S
C702 C698 1.477 . S
C702 H719 0.932 . S
C703 U686 2.882 . S
C703 C697 1.428 . S
C703 O706 1.301 . S
C703 O707 1.282 . S
O704 U686 2.441 . S
O704 C690 1.249 . S
O705 U686 2.420 . S
O705 C690 1.202 . S
O706 U686 2.455 . S
O706 C703 1.301 . S
O707 U686 2.449 . S
O707 C703 1.282 . S
H708 C681 0.931 . S
H709 C683 0.929 . S
H710 C684 0.930 . S
H711 C685 0.931 . S
H712 C692 0.932 . S
H713 C693 0.930 . S
H714 C694 0.929 . S
H715 C696 0.930 . S
H716 C698 0.932 . S
H717 C699 0.929 . S
H718 C700 0.928 . S
H719 C702 0.932 . S
C720 C721 1.264 . S
C720 C725 1.479 . S
C720 C730 1.465 . S
C721 C720 1.264 . S
C721 C723 1.339 . S
C721 H748 0.931 . S
C722 C723 1.395 . S
C722 C724 1.320 . S
C723 C721 1.339 . S
C723 C722 1.395 . S
C723 H749 0.929 . S
C724 C722 1.320 . S
C724 C725 1.405 . S
C724 H750 0.930 . S
C725 C720 1.479 . S
C725 C724 1.405 . S
C725 H751 0.931 . S
U726 O727 2.454 . S
U726 O728 2.458 . S
U726 C729 2.984 . S
U726 C730 2.847 . S
U726 C743 2.882 . S
U726 O744 2.441 . S
U726 O745 2.420 . S
U726 O746 2.455 . S
U726 O747 2.449 . S
O727 U726 2.454 . S
O727 C729 1.353 . S
O728 U726 2.458 . S
O728 C729 1.286 . S
C729 U726 2.984 . S
C729 O727 1.353 . S
C729 O728 1.286 . S
C729 C731 1.363 . S
C730 C720 1.465 . S
C730 U726 2.847 . S
C730 O744 1.249 . S
C730 O745 1.202 . S
C731 C729 1.363 . S
C731 C733 1.408 . S
C731 C736 1.342 . S
C732 C733 1.310 . S
C732 C735 1.461 . S
C732 H752 0.932 . S
C733 C731 1.408 . S
C733 C732 1.310 . S
C733 H753 0.930 . S
C734 C735 1.474 . S
C734 C736 1.285 . S
C734 H754 0.929 . S
C735 C732 1.461 . S
C735 C734 1.474 . S
C736 C731 1.342 . S
C736 C734 1.285 . S
C736 H755 0.930 . S
C737 C740 1.424 . S
C737 C742 1.245 . S
C737 C743 1.428 . S
C738 C741 1.260 . S
C738 C742 1.477 . S
C738 H756 0.932 . S
C739 C740 1.384 . S
C739 C741 1.479 . S
C739 H757 0.929 . S
C740 C737 1.424 . S
C740 C739 1.384 . S
C740 H758 0.928 . S
C741 C738 1.260 . S
C741 C739 1.479 . S
C742 C737 1.245 . S
C742 C738 1.477 . S
C742 H759 0.932 . S
C743 U726 2.882 . S
C743 C737 1.428 . S
C743 O746 1.301 . S
C743 O747 1.282 . S
O744 U726 2.441 . S
O744 C730 1.249 . S
O745 U726 2.420 . S
O745 C730 1.202 . S
O746 U726 2.455 . S
O746 C743 1.301 . S
O747 U726 2.449 . S
O747 C743 1.282 . S
H748 C721 0.931 . S
H749 C723 0.929 . S
H750 C724 0.930 . S
H751 C725 0.931 . S
H752 C732 0.932 . S
H753 C733 0.930 . S
H754 C734 0.929 . S
H755 C736 0.930 . S
H756 C738 0.932 . S
H757 C739 0.929 . S
H758 C740 0.928 . S
H759 C742 0.932 . S
C760 C761 1.264 . S
C760 C765 1.479 . S
C760 C770 1.465 . S
C761 C760 1.264 . S
C761 C763 1.339 . S
C761 H788 0.931 . S
C762 C763 1.395 . S
C762 C764 1.320 . S
C763 C761 1.339 . S
C763 C762 1.395 . S
C763 H789 0.929 . S
C764 C762 1.320 . S
C764 C765 1.405 . S
C764 H790 0.930 . S
C765 C760 1.479 . S
C765 C764 1.405 . S
C765 H791 0.931 . S
U766 O767 2.454 . S
U766 O768 2.458 . S
U766 C769 2.984 . S
U766 C770 2.847 . S
U766 C783 2.882 . S
U766 O784 2.441 . S
U766 O785 2.420 . S
U766 O786 2.455 . S
U766 O787 2.449 . S
O767 U766 2.454 . S
O767 C769 1.353 . S
O768 U766 2.458 . S
O768 C769 1.286 . S
C769 U766 2.984 . S
C769 O767 1.353 . S
C769 O768 1.286 . S
C769 C771 1.363 . S
C770 C760 1.465 . S
C770 U766 2.847 . S
C770 O784 1.249 . S
C770 O785 1.202 . S
C771 C769 1.363 . S
C771 C773 1.408 . S
C771 C776 1.342 . S
C772 C773 1.310 . S
C772 C775 1.461 . S
C772 H792 0.932 . S
C773 C771 1.408 . S
C773 C772 1.310 . S
C773 H793 0.930 . S
C774 C775 1.474 . S
C774 C776 1.285 . S
C774 H794 0.929 . S
C775 C772 1.461 . S
C775 C774 1.474 . S
C776 C771 1.342 . S
C776 C774 1.285 . S
C776 H795 0.930 . S
C777 C780 1.424 . S
C777 C782 1.245 . S
C777 C783 1.428 . S
C778 C781 1.260 . S
C778 C782 1.477 . S
C778 H796 0.932 . S
C779 C780 1.384 . S
C779 C781 1.479 . S
C779 H797 0.929 . S
C780 C777 1.424 . S
C780 C779 1.384 . S
C780 H798 0.928 . S
C781 C778 1.260 . S
C781 C779 1.479 . S
C782 C777 1.245 . S
C782 C778 1.477 . S
C782 H799 0.932 . S
C783 U766 2.882 . S
C783 C777 1.428 . S
C783 O786 1.301 . S
C783 O787 1.282 . S
O784 U766 2.441 . S
O784 C770 1.249 . S
O785 U766 2.420 . S
O785 C770 1.202 . S
O786 U766 2.455 . S
O786 C783 1.301 . S
O787 U766 2.449 . S
O787 C783 1.282 . S
H788 C761 0.931 . S
H789 C763 0.929 . S
H790 C764 0.930 . S
H791 C765 0.931 . S
H792 C772 0.932 . S
H793 C773 0.930 . S
H794 C774 0.929 . S
H795 C776 0.930 . S
H796 C778 0.932 . S
H797 C779 0.929 . S
H798 C780 0.928 . S
H799 C782 0.932 . S
C800 C801 1.264 . S
C800 C805 1.479 . S
C800 C810 1.465 . S
C801 C800 1.264 . S
C801 C803 1.339 . S
C801 H828 0.931 . S
C802 C803 1.395 . S
C802 C804 1.320 . S
C803 C801 1.339 . S
C803 C802 1.395 . S
C803 H829 0.929 . S
C804 C802 1.320 . S
C804 C805 1.405 . S
C804 H830 0.930 . S
C805 C800 1.479 . S
C805 C804 1.405 . S
C805 H831 0.931 . S
U806 O807 2.454 . S
U806 O808 2.458 . S
U806 C809 2.984 . S
U806 C810 2.847 . S
U806 C823 2.882 . S
U806 O824 2.441 . S
U806 O825 2.420 . S
U806 O826 2.455 . S
U806 O827 2.449 . S
O807 U806 2.454 . S
O807 C809 1.353 . S
O808 U806 2.458 . S
O808 C809 1.286 . S
C809 U806 2.984 . S
C809 O807 1.353 . S
C809 O808 1.286 . S
C809 C811 1.363 . S
C810 C800 1.465 . S
C810 U806 2.847 . S
C810 O824 1.249 . S
C810 O825 1.202 . S
C811 C809 1.363 . S
C811 C813 1.408 . S
C811 C816 1.342 . S
C812 C813 1.310 . S
C812 C815 1.461 . S
C812 H832 0.932 . S
C813 C811 1.408 . S
C813 C812 1.310 . S
C813 H833 0.930 . S
C814 C815 1.474 . S
C814 C816 1.285 . S
C814 H834 0.929 . S
C815 C812 1.461 . S
C815 C814 1.474 . S
C816 C811 1.342 . S
C816 C814 1.285 . S
C816 H835 0.930 . S
C817 C820 1.424 . S
C817 C822 1.245 . S
C817 C823 1.428 . S
C818 C821 1.260 . S
C818 C822 1.477 . S
C818 H836 0.932 . S
C819 C820 1.384 . S
C819 C821 1.479 . S
C819 H837 0.929 . S
C820 C817 1.424 . S
C820 C819 1.384 . S
C820 H838 0.928 . S
C821 C818 1.260 . S
C821 C819 1.479 . S
C822 C817 1.245 . S
C822 C818 1.477 . S
C822 H839 0.932 . S
C823 U806 2.882 . S
C823 C817 1.428 . S
C823 O826 1.301 . S
C823 O827 1.282 . S
O824 U806 2.441 . S
O824 C810 1.249 . S
O825 U806 2.420 . S
O825 C810 1.202 . S
O826 U806 2.455 . S
O826 C823 1.301 . S
O827 U806 2.449 . S
O827 C823 1.282 . S
H828 C801 0.931 . S
H829 C803 0.929 . S
H830 C804 0.930 . S
H831 C805 0.931 . S
H832 C812 0.932 . S
H833 C813 0.930 . S
H834 C814 0.929 . S
H835 C816 0.930 . S
H836 C818 0.932 . S
H837 C819 0.929 . S
H838 C820 0.928 . S
H839 C822 0.932 . S
C840 C841 1.264 . S
C840 C845 1.479 . S
C840 C850 1.465 . S
C841 C840 1.264 . S
C841 C843 1.339 . S
C841 H868 0.931 . S
C842 C843 1.395 . S
C842 C844 1.320 . S
C843 C841 1.339 . S
C843 C842 1.395 . S
C843 H869 0.929 . S
C844 C842 1.320 . S
C844 C845 1.405 . S
C844 H870 0.930 . S
C845 C840 1.479 . S
C845 C844 1.405 . S
C845 H871 0.931 . S
U846 O847 2.454 . S
U846 O848 2.458 . S
U846 C849 2.984 . S
U846 C850 2.847 . S
U846 C863 2.882 . S
U846 O864 2.441 . S
U846 O865 2.420 . S
U846 O866 2.455 . S
U846 O867 2.449 . S
O847 U846 2.454 . S
O847 C849 1.353 . S
O848 U846 2.458 . S
O848 C849 1.286 . S
C849 U846 2.984 . S
C849 O847 1.353 . S
C849 O848 1.286 . S
C849 C851 1.363 . S
C850 C840 1.465 . S
C850 U846 2.847 . S
C850 O864 1.249 . S
C850 O865 1.202 . S
C851 C849 1.363 . S
C851 C853 1.408 . S
C851 C856 1.342 . S
C852 C853 1.310 . S
C852 C855 1.461 . S
C852 H872 0.932 . S
C853 C851 1.408 . S
C853 C852 1.310 . S
C853 H873 0.930 . S
C854 C855 1.474 . S
C854 C856 1.285 . S
C854 H874 0.929 . S
C855 C852 1.461 . S
C855 C854 1.474 . S
C856 C851 1.342 . S
C856 C854 1.285 . S
C856 H875 0.930 . S
C857 C860 1.424 . S
C857 C862 1.245 . S
C857 C863 1.428 . S
C858 C861 1.260 . S
C858 C862 1.477 . S
C858 H876 0.932 . S
C859 C860 1.384 . S
C859 C861 1.479 . S
C859 H877 0.929 . S
C860 C857 1.424 . S
C860 C859 1.384 . S
C860 H878 0.928 . S
C861 C858 1.260 . S
C861 C859 1.479 . S
C862 C857 1.245 . S
C862 C858 1.477 . S
C862 H879 0.932 . S
C863 U846 2.882 . S
C863 C857 1.428 . S
C863 O866 1.301 . S
C863 O867 1.282 . S
O864 U846 2.441 . S
O864 C850 1.249 . S
O865 U846 2.420 . S
O865 C850 1.202 . S
O866 U846 2.455 . S
O866 C863 1.301 . S
O867 U846 2.449 . S
O867 C863 1.282 . S
H868 C841 0.931 . S
H869 C843 0.929 . S
H870 C844 0.930 . S
H871 C845 0.931 . S
H872 C852 0.932 . S
H873 C853 0.930 . S
H874 C854 0.929 . S
H875 C856 0.930 . S
H876 C858 0.932 . S
H877 C859 0.929 . S
H878 C860 0.928 . S
H879 C862 0.932 . S
C880 C881 1.264 . S
C880 C885 1.479 . S
C880 C890 1.465 . S
C881 C880 1.264 . S
C881 C883 1.339 . S
C881 H908 0.931 . S
C882 C883 1.395 . S
C882 C884 1.320 . S
C883 C881 1.339 . S
C883 C882 1.395 . S
C883 H909 0.929 . S
C884 C882 1.320 . S
C884 C885 1.405 . S
C884 H910 0.930 . S
C885 C880 1.479 . S
C885 C884 1.405 . S
C885 H911 0.931 . S
U886 O887 2.454 . S
U886 O888 2.458 . S
U886 C889 2.984 . S
U886 C890 2.847 . S
U886 C903 2.882 . S
U886 O904 2.441 . S
U886 O905 2.420 . S
U886 O906 2.455 . S
U886 O907 2.449 . S
O887 U886 2.454 . S
O887 C889 1.353 . S
O888 U886 2.458 . S
O888 C889 1.286 . S
C889 U886 2.984 . S
C889 O887 1.353 . S
C889 O888 1.286 . S
C889 C891 1.363 . S
C890 C880 1.465 . S
C890 U886 2.847 . S
C890 O904 1.249 . S
C890 O905 1.202 . S
C891 C889 1.363 . S
C891 C893 1.408 . S
C891 C896 1.342 . S
C892 C893 1.310 . S
C892 C895 1.461 . S
C892 H912 0.932 . S
C893 C891 1.408 . S
C893 C892 1.310 . S
C893 H913 0.930 . S
C894 C895 1.474 . S
C894 C896 1.285 . S
C894 H914 0.929 . S
C895 C892 1.461 . S
C895 C894 1.474 . S
C896 C891 1.342 . S
C896 C894 1.285 . S
C896 H915 0.930 . S
C897 C900 1.424 . S
C897 C902 1.245 . S
C897 C903 1.428 . S
C898 C901 1.260 . S
C898 C902 1.477 . S
C898 H916 0.932 . S
C899 C900 1.384 . S
C899 C901 1.479 . S
C899 H917 0.929 . S
C900 C897 1.424 . S
C900 C899 1.384 . S
C900 H918 0.928 . S
C901 C898 1.260 . S
C901 C899 1.479 . S
C902 C897 1.245 . S
C902 C898 1.477 . S
C902 H919 0.932 . S
C903 U886 2.882 . S
C903 C897 1.428 . S
C903 O906 1.301 . S
C903 O907 1.282 . S
O904 U886 2.441 . S
O904 C890 1.249 . S
O905 U886 2.420 . S
O905 C890 1.202 . S
O906 U886 2.455 . S
O906 C903 1.301 . S
O907 U886 2.449 . S
O907 C903 1.282 . S
H908 C881 0.931 . S
H909 C883 0.929 . S
H910 C884 0.930 . S
H911 C885 0.931 . S
H912 C892 0.932 . S
H913 C893 0.930 . S
H914 C894 0.929 . S
H915 C896 0.930 . S
H916 C898 0.932 . S
H917 C899 0.929 . S
H918 C900 0.928 . S
H919 C902 0.932 . S
C920 C921 1.264 . S
C920 C925 1.479 . S
C920 C930 1.465 . S
C921 C920 1.264 . S
C921 C923 1.339 . S
C921 H948 0.931 . S
C922 C923 1.395 . S
C922 C924 1.320 . S
C923 C921 1.339 . S
C923 C922 1.395 . S
C923 H949 0.929 . S
C924 C922 1.320 . S
C924 C925 1.405 . S
C924 H950 0.930 . S
C925 C920 1.479 . S
C925 C924 1.405 . S
C925 H951 0.931 . S
U926 O927 2.454 . S
U926 O928 2.458 . S
U926 C929 2.984 . S
U926 C930 2.847 . S
U926 C943 2.882 . S
U926 O944 2.441 . S
U926 O945 2.420 . S
U926 O946 2.455 . S
U926 O947 2.449 . S
O927 U926 2.454 . S
O927 C929 1.353 . S
O928 U926 2.458 . S
O928 C929 1.286 . S
C929 U926 2.984 . S
C929 O927 1.353 . S
C929 O928 1.286 . S
C929 C931 1.363 . S
C930 C920 1.465 . S
C930 U926 2.847 . S
C930 O944 1.249 . S
C930 O945 1.202 . S
C931 C929 1.363 . S
C931 C933 1.408 . S
C931 C936 1.342 . S
C932 C933 1.310 . S
C932 C935 1.461 . S
C932 H952 0.932 . S
C933 C931 1.408 . S
C933 C932 1.310 . S
C933 H953 0.930 . S
C934 C935 1.474 . S
C934 C936 1.285 . S
C934 H954 0.929 . S
C935 C932 1.461 . S
C935 C934 1.474 . S
C936 C931 1.342 . S
C936 C934 1.285 . S
C936 H955 0.930 . S
C937 C940 1.424 . S
C937 C942 1.245 . S
C937 C943 1.428 . S
C938 C941 1.260 . S
C938 C942 1.477 . S
C938 H956 0.932 . S
C939 C940 1.384 . S
C939 C941 1.479 . S
C939 H957 0.929 . S
C940 C937 1.424 . S
C940 C939 1.384 . S
C940 H958 0.928 . S
C941 C938 1.260 . S
C941 C939 1.479 . S
C942 C937 1.245 . S
C942 C938 1.477 . S
C942 H959 0.932 . S
C943 U926 2.882 . S
C943 C937 1.428 . S
C943 O946 1.301 . S
C943 O947 1.282 . S
O944 U926 2.441 . S
O944 C930 1.249 . S
O945 U926 2.420 . S
O945 C930 1.202 . S
O946 U926 2.455 . S
O946 C943 1.301 . S
O947 U926 2.449 . S
O947 C943 1.282 . S
H948 C921 0.931 . S
H949 C923 0.929 . S
H950 C924 0.930 . S
H951 C925 0.931 . S
H952 C932 0.932 . S
H953 C933 0.930 . S
H954 C934 0.929 . S
H955 C936 0.930 . S
H956 C938 0.932 . S
H957 C939 0.929 . S
H958 C940 0.928 . S
H959 C942 0.932 . S
C960 C961 1.264 . S
C960 C965 1.479 . S
C960 C970 1.465 . S
C961 C960 1.264 . S
C961 C963 1.339 . S
C961 H988 0.931 . S
C962 C963 1.395 . S
C962 C964 1.320 . S
C963 C961 1.339 . S
C963 C962 1.395 . S
C963 H989 0.929 . S
C964 C962 1.320 . S
C964 C965 1.405 . S
C964 H990 0.930 . S
C965 C960 1.479 . S
C965 C964 1.405 . S
C965 H991 0.931 . S
U966 O967 2.454 . S
U966 O968 2.458 . S
U966 C969 2.984 . S
U966 C970 2.847 . S
U966 C983 2.882 . S
U966 O984 2.441 . S
U966 O985 2.420 . S
U966 O986 2.455 . S
U966 O987 2.449 . S
O967 U966 2.454 . S
O967 C969 1.353 . S
O968 U966 2.458 . S
O968 C969 1.286 . S
C969 U966 2.984 . S
C969 O967 1.353 . S
C969 O968 1.286 . S
C969 C971 1.363 . S
C970 C960 1.465 . S
C970 U966 2.847 . S
C970 O984 1.249 . S
C970 O985 1.202 . S
C971 C969 1.363 . S
C971 C973 1.408 . S
C971 C976 1.342 . S
C972 C973 1.310 . S
C972 C975 1.461 . S
C972 H992 0.932 . S
C973 C971 1.408 . S
C973 C972 1.310 . S
C973 H993 0.930 . S
C974 C975 1.474 . S
C974 C976 1.285 . S
C974 H994 0.929 . S
C975 C972 1.461 . S
C975 C974 1.474 . S
C976 C971 1.342 . S
C976 C974 1.285 . S
C976 H995 0.930 . S
C977 C980 1.424 . S
C977 C982 1.245 . S
C977 C983 1.428 . S
C978 C981 1.260 . S
C978 C982 1.477 . S
C978 H996 0.932 . S
C979 C980 1.384 . S
C979 C981 1.479 . S
C979 H997 0.929 . S
C980 C977 1.424 . S
C980 C979 1.384 . S
C980 H998 0.928 . S
C981 C978 1.260 . S
C981 C979 1.479 . S
C982 C977 1.245 . S
C982 C978 1.477 . S
C982 H999 0.932 . S
C983 U966 2.882 . S
C983 C977 1.428 . S
C983 O986 1.301 . S
C983 O987 1.282 . S
O984 U966 2.441 . S
O984 C970 1.249 . S
O985 U966 2.420 . S
O985 C970 1.202 . S
O986 U966 2.455 . S
O986 C983 1.301 . S
O987 U966 2.449 . S
O987 C983 1.282 . S
H988 C961 0.931 . S
H989 C963 0.929 . S
H990 C964 0.930 . S
H991 C965 0.931 . S
H992 C972 0.932 . S
H993 C973 0.930 . S
H994 C974 0.929 . S
H995 C976 0.930 . S
H996 C978 0.932 . S
H997 C979 0.929 . S
H998 C980 0.928 . S
H999 C982 0.932 . S
C1000 C1001 1.264 . S
C1000 C1005 1.479 . S
C1000 C1010 1.465 . S
C1001 C1000 1.264 . S
C1001 C1003 1.339 . S
C1001 H1028 0.931 . S
C1002 C1003 1.395 . S
C1002 C1004 1.320 . S
C1003 C1001 1.339 . S
C1003 C1002 1.395 . S
C1003 H1029 0.929 . S
C1004 C1002 1.320 . S
C1004 C1005 1.405 . S
C1004 H1030 0.930 . S
C1005 C1000 1.479 . S
C1005 C1004 1.405 . S
C1005 H1031 0.931 . S
U1006 O1007 2.454 . S
U1006 O1008 2.458 . S
U1006 C1009 2.984 . S
U1006 C1010 2.847 . S
U1006 C1023 2.882 . S
U1006 O1024 2.441 . S
U1006 O1025 2.420 . S
U1006 O1026 2.455 . S
U1006 O1027 2.449 . S
O1007 U1006 2.454 . S
O1007 C1009 1.353 . S
O1008 U1006 2.458 . S
O1008 C1009 1.286 . S
C1009 U1006 2.984 . S
C1009 O1007 1.353 . S
C1009 O1008 1.286 . S
C1009 C1011 1.363 . S
C1010 C1000 1.465 . S
C1010 U1006 2.847 . S
C1010 O1024 1.249 . S
C1010 O1025 1.202 . S
C1011 C1009 1.363 . S
C1011 C1013 1.408 . S
C1011 C1016 1.342 . S
C1012 C1013 1.310 . S
C1012 C1015 1.461 . S
C1012 H1032 0.932 . S
C1013 C1011 1.408 . S
C1013 C1012 1.310 . S
C1013 H1033 0.930 . S
C1014 C1015 1.474 . S
C1014 C1016 1.285 . S
C1014 H1034 0.929 . S
C1015 C1012 1.461 . S
C1015 C1014 1.474 . S
C1016 C1011 1.342 . S
C1016 C1014 1.285 . S
C1016 H1035 0.930 . S
C1017 C1020 1.424 . S
C1017 C1022 1.245 . S
C1017 C1023 1.428 . S
C1018 C1021 1.260 . S
C1018 C1022 1.477 . S
C1018 H1036 0.932 . S
C1019 C1020 1.384 . S
C1019 C1021 1.479 . S
C1019 H1037 0.929 . S
C1020 C1017 1.424 . S
C1020 C1019 1.384 . S
C1020 H1038 0.928 . S
C1021 C1018 1.260 . S
C1021 C1019 1.479 . S
C1022 C1017 1.245 . S
C1022 C1018 1.477 . S
C1022 H1039 0.932 . S
C1023 U1006 2.882 . S
C1023 C1017 1.428 . S
C1023 O1026 1.301 . S
C1023 O1027 1.282 . S
O1024 U1006 2.441 . S
O1024 C1010 1.249 . S
O1025 U1006 2.420 . S
O1025 C1010 1.202 . S
O1026 U1006 2.455 . S
O1026 C1023 1.301 . S
O1027 U1006 2.449 . S
O1027 C1023 1.282 . S
H1028 C1001 0.931 . S
H1029 C1003 0.929 . S
H1030 C1004 0.930 . S
H1031 C1005 0.931 . S
H1032 C1012 0.932 . S
H1033 C1013 0.930 . S
H1034 C1014 0.929 . S
H1035 C1016 0.930 . S
H1036 C1018 0.932 . S
H1037 C1019 0.929 . S
H1038 C1020 0.928 . S
H1039 C1022 0.932 . S
C1040 C1041 1.264 . S
C1040 C1045 1.479 . S
C1040 C1050 1.465 . S
C1041 C1040 1.264 . S
C1041 C1043 1.339 . S
C1041 H1068 0.931 . S
C1042 C1043 1.395 . S
C1042 C1044 1.320 . S
C1043 C1041 1.339 . S
C1043 C1042 1.395 . S
C1043 H1069 0.929 . S
C1044 C1042 1.320 . S
C1044 C1045 1.405 . S
C1044 H1070 0.930 . S
C1045 C1040 1.479 . S
C1045 C1044 1.405 . S
C1045 H1071 0.931 . S
U1046 O1047 2.454 . S
U1046 O1048 2.458 . S
U1046 C1049 2.984 . S
U1046 C1050 2.847 . S
U1046 C1063 2.882 . S
U1046 O1064 2.441 . S
U1046 O1065 2.420 . S
U1046 O1066 2.455 . S
U1046 O1067 2.449 . S
O1047 U1046 2.454 . S
O1047 C1049 1.353 . S
O1048 U1046 2.458 . S
O1048 C1049 1.286 . S
C1049 U1046 2.984 . S
C1049 O1047 1.353 . S
C1049 O1048 1.286 . S
C1049 C1051 1.363 . S
C1050 C1040 1.465 . S
C1050 U1046 2.847 . S
C1050 O1064 1.249 . S
C1050 O1065 1.202 . S
C1051 C1049 1.363 . S
C1051 C1053 1.408 . S
C1051 C1056 1.342 . S
C1052 C1053 1.310 . S
C1052 C1055 1.461 . S
C1052 H1072 0.932 . S
C1053 C1051 1.408 . S
C1053 C1052 1.310 . S
C1053 H1073 0.930 . S
C1054 C1055 1.474 . S
C1054 C1056 1.285 . S
C1054 H1074 0.929 . S
C1055 C1052 1.461 . S
C1055 C1054 1.474 . S
C1056 C1051 1.342 . S
C1056 C1054 1.285 . S
C1056 H1075 0.930 . S
C1057 C1060 1.424 . S
C1057 C1062 1.245 . S
C1057 C1063 1.428 . S
C1058 C1061 1.260 . S
C1058 C1062 1.477 . S
C1058 H1076 0.932 . S
C1059 C1060 1.384 . S
C1059 C1061 1.479 . S
C1059 H1077 0.929 . S
C1060 C1057 1.424 . S
C1060 C1059 1.384 . S
C1060 H1078 0.928 . S
C1061 C1058 1.260 . S
C1061 C1059 1.479 . S
C1062 C1057 1.245 . S
C1062 C1058 1.477 . S
C1062 H1079 0.932 . S
C1063 U1046 2.882 . S
C1063 C1057 1.428 . S
C1063 O1066 1.301 . S
C1063 O1067 1.282 . S
O1064 U1046 2.441 . S
O1064 C1050 1.249 . S
O1065 U1046 2.420 . S
O1065 C1050 1.202 . S
O1066 U1046 2.455 . S
O1066 C1063 1.301 . S
O1067 U1046 2.449 . S
O1067 C1063 1.282 . S
H1068 C1041 0.931 . S
H1069 C1043 0.929 . S
H1070 C1044 0.930 . S
H1071 C1045 0.931 . S
H1072 C1052 0.932 . S
H1073 C1053 0.930 . S
H1074 C1054 0.929 . S
H1075 C1056 0.930 . S
H1076 C1058 0.932 . S
H1077 C1059 0.929 . S
H1078 C1060 0.928 . S
H1079 C1062 0.932 . S
C1080 C1081 1.264 . S
C1080 C1085 1.479 . S
C1080 C1090 1.465 . S
C1081 C1080 1.264 . S
C1081 C1083 1.339 . S
C1081 H1108 0.931 . S
C1082 C1083 1.395 . S
C1082 C1084 1.320 . S
C1083 C1081 1.339 . S
C1083 C1082 1.395 . S
C1083 H1109 0.929 . S
C1084 C1082 1.320 . S
C1084 C1085 1.405 . S
C1084 H1110 0.930 . S
C1085 C1080 1.479 . S
C1085 C1084 1.405 . S
C1085 H1111 0.931 . S
U1086 O1087 2.454 . S
U1086 O1088 2.458 . S
U1086 C1089 2.984 . S
U1086 C1090 2.847 . S
U1086 C1103 2.882 . S
U1086 O1104 2.441 . S
U1086 O1105 2.420 . S
U1086 O1106 2.455 . S
U1086 O1107 2.449 . S
O1087 U1086 2.454 . S
O1087 C1089 1.353 . S
O1088 U1086 2.458 . S
O1088 C1089 1.286 . S
C1089 U1086 2.984 . S
C1089 O1087 1.353 . S
C1089 O1088 1.286 . S
C1089 C1091 1.363 . S
C1090 C1080 1.465 . S
C1090 U1086 2.847 . S
C1090 O1104 1.249 . S
C1090 O1105 1.202 . S
C1091 C1089 1.363 . S
C1091 C1093 1.408 . S
C1091 C1096 1.342 . S
C1092 C1093 1.310 . S
C1092 C1095 1.461 . S
C1092 H1112 0.932 . S
C1093 C1091 1.408 . S
C1093 C1092 1.310 . S
C1093 H1113 0.930 . S
C1094 C1095 1.474 . S
C1094 C1096 1.285 . S
C1094 H1114 0.929 . S
C1095 C1092 1.461 . S
C1095 C1094 1.474 . S
C1096 C1091 1.342 . S
C1096 C1094 1.285 . S
C1096 H1115 0.930 . S
C1097 C1100 1.424 . S
C1097 C1102 1.245 . S
C1097 C1103 1.428 . S
C1098 C1101 1.260 . S
C1098 C1102 1.477 . S
C1098 H1116 0.932 . S
C1099 C1100 1.384 . S
C1099 C1101 1.479 . S
C1099 H1117 0.929 . S
C1100 C1097 1.424 . S
C1100 C1099 1.384 . S
C1100 H1118 0.928 . S
C1101 C1098 1.260 . S
C1101 C1099 1.479 . S
C1102 C1097 1.245 . S
C1102 C1098 1.477 . S
C1102 H1119 0.932 . S
C1103 U1086 2.882 . S
C1103 C1097 1.428 . S
C1103 O1106 1.301 . S
C1103 O1107 1.282 . S
O1104 U1086 2.441 . S
O1104 C1090 1.249 . S
O1105 U1086 2.420 . S
O1105 C1090 1.202 . S
O1106 U1086 2.455 . S
O1106 C1103 1.301 . S
O1107 U1086 2.449 . S
O1107 C1103 1.282 . S
H1108 C1081 0.931 . S
H1109 C1083 0.929 . S
H1110 C1084 0.930 . S
H1111 C1085 0.931 . S
H1112 C1092 0.932 . S
H1113 C1093 0.930 . S
H1114 C1094 0.929 . S
H1115 C1096 0.930 . S
H1116 C1098 0.932 . S
H1117 C1099 0.929 . S
H1118 C1100 0.928 . S
H1119 C1102 0.932 . S
C1120 C1121 1.264 . S
C1120 C1125 1.479 . S
C1120 C1130 1.465 . S
C1121 C1120 1.264 . S
C1121 C1123 1.339 . S
C1121 H1148 0.931 . S
C1122 C1123 1.395 . S
C1122 C1124 1.320 . S
C1123 C1121 1.339 . S
C1123 C1122 1.395 . S
C1123 H1149 0.929 . S
C1124 C1122 1.320 . S
C1124 C1125 1.405 . S
C1124 H1150 0.930 . S
C1125 C1120 1.479 . S
C1125 C1124 1.405 . S
C1125 H1151 0.931 . S
U1126 O1127 2.454 . S
U1126 O1128 2.458 . S
U1126 C1129 2.984 . S
U1126 C1130 2.847 . S
U1126 C1143 2.882 . S
U1126 O1144 2.441 . S
U1126 O1145 2.420 . S
U1126 O1146 2.455 . S
U1126 O1147 2.449 . S
O1127 U1126 2.454 . S
O1127 C1129 1.353 . S
O1128 U1126 2.458 . S
O1128 C1129 1.286 . S
C1129 U1126 2.984 . S
C1129 O1127 1.353 . S
C1129 O1128 1.286 . S
C1129 C1131 1.363 . S
C1130 C1120 1.465 . S
C1130 U1126 2.847 . S
C1130 O1144 1.249 . S
C1130 O1145 1.202 . S
C1131 C1129 1.363 . S
C1131 C1133 1.408 . S
C1131 C1136 1.342 . S
C1132 C1133 1.310 . S
C1132 C1135 1.461 . S
C1132 H1152 0.932 . S
C1133 C1131 1.408 . S
C1133 C1132 1.310 . S
C1133 H1153 0.930 . S
C1134 C1135 1.474 . S
C1134 C1136 1.285 . S
C1134 H1154 0.929 . S
C1135 C1132 1.461 . S
C1135 C1134 1.474 . S
C1136 C1131 1.342 . S
C1136 C1134 1.285 . S
C1136 H1155 0.930 . S
C1137 C1140 1.424 . S
C1137 C1142 1.245 . S
C1137 C1143 1.428 . S
C1138 C1141 1.260 . S
C1138 C1142 1.477 . S
C1138 H1156 0.932 . S
C1139 C1140 1.384 . S
C1139 C1141 1.479 . S
C1139 H1157 0.929 . S
C1140 C1137 1.424 . S
C1140 C1139 1.384 . S
C1140 H1158 0.928 . S
C1141 C1138 1.260 . S
C1141 C1139 1.479 . S
C1142 C1137 1.245 . S
C1142 C1138 1.477 . S
C1142 H1159 0.932 . S
C1143 U1126 2.882 . S
C1143 C1137 1.428 . S
C1143 O1146 1.301 . S
C1143 O1147 1.282 . S
O1144 U1126 2.441 . S
O1144 C1130 1.249 . S
O1145 U1126 2.420 . S
O1145 C1130 1.202 . S
O1146 U1126 2.455 . S
O1146 C1143 1.301 . S
O1147 U1126 2.449 . S
O1147 C1143 1.282 . S
H1148 C1121 0.931 . S
H1149 C1123 0.929 . S
H1150 C1124 0.930 . S
H1151 C1125 0.931 . S
H1152 C1132 0.932 . S
H1153 C1133 0.930 . S
H1154 C1134 0.929 . S
H1155 C1136 0.930 . S
H1156 C1138 0.932 . S
H1157 C1139 0.929 . S
H1158 C1140 0.928 . S
H1159 C1142 0.932 . S
C1160 C1161 1.264 . S
C1160 C1165 1.479 . S
C1160 C1170 1.465 . S
C1161 C1160 1.264 . S
C1161 C1163 1.339 . S
C1161 H1188 0.931 . S
C1162 C1163 1.395 . S
C1162 C1164 1.320 . S
C1163 C1161 1.339 . S
C1163 C1162 1.395 . S
C1163 H1189 0.929 . S
C1164 C1162 1.320 . S
C1164 C1165 1.405 . S
C1164 H1190 0.930 . S
C1165 C1160 1.479 . S
C1165 C1164 1.405 . S
C1165 H1191 0.931 . S
U1166 O1167 2.454 . S
U1166 O1168 2.458 . S
U1166 C1169 2.984 . S
U1166 C1170 2.847 . S
U1166 C1183 2.882 . S
U1166 O1184 2.441 . S
U1166 O1185 2.420 . S
U1166 O1186 2.455 . S
U1166 O1187 2.449 . S
O1167 U1166 2.454 . S
O1167 C1169 1.353 . S
O1168 U1166 2.458 . S
O1168 C1169 1.286 . S
C1169 U1166 2.984 . S
C1169 O1167 1.353 . S
C1169 O1168 1.286 . S
C1169 C1171 1.363 . S
C1170 C1160 1.465 . S
C1170 U1166 2.847 . S
C1170 O1184 1.249 . S
C1170 O1185 1.202 . S
C1171 C1169 1.363 . S
C1171 C1173 1.408 . S
C1171 C1176 1.342 . S
C1172 C1173 1.310 . S
C1172 C1175 1.461 . S
C1172 H1192 0.932 . S
C1173 C1171 1.408 . S
C1173 C1172 1.310 . S
C1173 H1193 0.930 . S
C1174 C1175 1.474 . S
C1174 C1176 1.285 . S
C1174 H1194 0.929 . S
C1175 C1172 1.461 . S
C1175 C1174 1.474 . S
C1176 C1171 1.342 . S
C1176 C1174 1.285 . S
C1176 H1195 0.930 . S
C1177 C1180 1.424 . S
C1177 C1182 1.245 . S
C1177 C1183 1.428 . S
C1178 C1181 1.260 . S
C1178 C1182 1.477 . S
C1178 H1196 0.932 . S
C1179 C1180 1.384 . S
C1179 C1181 1.479 . S
C1179 H1197 0.929 . S
C1180 C1177 1.424 . S
C1180 C1179 1.384 . S
C1180 H1198 0.928 . S
C1181 C1178 1.260 . S
C1181 C1179 1.479 . S
C1182 C1177 1.245 . S
C1182 C1178 1.477 . S
C1182 H1199 0.932 . S
C1183 U1166 2.882 . S
C1183 C1177 1.428 . S
C1183 O1186 1.301 . S
C1183 O1187 1.282 . S
O1184 U1166 2.441 . S
O1184 C1170 1.249 . S
O1185 U1166 2.420 . S
O1185 C1170 1.202 . S
O1186 U1166 2.455 . S
O1186 C1183 1.301 . S
O1187 U1166 2.449 . S
O1187 C1183 1.282 . S
H1188 C1161 0.931 . S
H1189 C1163 0.929 . S
H1190 C1164 0.930 . S
H1191 C1165 0.931 . S
H1192 C1172 0.932 . S
H1193 C1173 0.930 . S
H1194 C1174 0.929 . S
H1195 C1176 0.930 . S
H1196 C1178 0.932 . S
H1197 C1179 0.929 . S
H1198 C1180 0.928 . S
H1199 C1182 0.932 . S
C1200 C1201 1.264 . S
C1200 C1205 1.479 . S
C1200 C1210 1.465 . S
C1201 C1200 1.264 . S
C1201 C1203 1.339 . S
C1201 H1228 0.931 . S
C1202 C1203 1.395 . S
C1202 C1204 1.320 . S
C1203 C1201 1.339 . S
C1203 C1202 1.395 . S
C1203 H1229 0.929 . S
C1204 C1202 1.320 . S
C1204 C1205 1.405 . S
C1204 H1230 0.930 . S
C1205 C1200 1.479 . S
C1205 C1204 1.405 . S
C1205 H1231 0.931 . S
U1206 O1207 2.454 . S
U1206 O1208 2.458 . S
U1206 C1209 2.984 . S
U1206 C1210 2.847 . S
U1206 C1223 2.882 . S
U1206 O1224 2.441 . S
U1206 O1225 2.420 . S
U1206 O1226 2.455 . S
U1206 O1227 2.449 . S
O1207 U1206 2.454 . S
O1207 C1209 1.353 . S
O1208 U1206 2.458 . S
O1208 C1209 1.286 . S
C1209 U1206 2.984 . S
C1209 O1207 1.353 . S
C1209 O1208 1.286 . S
C1209 C1211 1.363 . S
C1210 C1200 1.465 . S
C1210 U1206 2.847 . S
C1210 O1224 1.249 . S
C1210 O1225 1.202 . S
C1211 C1209 1.363 . S
C1211 C1213 1.408 . S
C1211 C1216 1.342 . S
C1212 C1213 1.310 . S
C1212 C1215 1.461 . S
C1212 H1232 0.932 . S
C1213 C1211 1.408 . S
C1213 C1212 1.310 . S
C1213 H1233 0.930 . S
C1214 C1215 1.474 . S
C1214 C1216 1.285 . S
C1214 H1234 0.929 . S
C1215 C1212 1.461 . S
C1215 C1214 1.474 . S
C1216 C1211 1.342 . S
C1216 C1214 1.285 . S
C1216 H1235 0.930 . S
C1217 C1220 1.424 . S
C1217 C1222 1.245 . S
C1217 C1223 1.428 . S
C1218 C1221 1.260 . S
C1218 C1222 1.477 . S
C1218 H1236 0.932 . S
C1219 C1220 1.384 . S
C1219 C1221 1.479 . S
C1219 H1237 0.929 . S
C1220 C1217 1.424 . S
C1220 C1219 1.384 . S
C1220 H1238 0.928 . S
C1221 C1218 1.260 . S
C1221 C1219 1.479 . S
C1222 C1217 1.245 . S
C1222 C1218 1.477 . S
C1222 H1239 0.932 . S
C1223 U1206 2.882 . S
C1223 C1217 1.428 . S
C1223 O1226 1.301 . S
C1223 O1227 1.282 . S
O1224 U1206 2.441 . S
O1224 C1210 1.249 . S
O1225 U1206 2.420 . S
O1225 C1210 1.202 . S
O1226 U1206 2.455 . S
O1226 C1223 1.301 . S
O1227 U1206 2.449 . S
O1227 C1223 1.282 . S
H1228 C1201 0.931 . S
H1229 C1203 0.929 . S
H1230 C1204 0.930 . S
H1231 C1205 0.931 . S
H1232 C1212 0.932 . S
H1233 C1213 0.930 . S
H1234 C1214 0.929 . S
H1235 C1216 0.930 . S
H1236 C1218 0.932 . S
H1237 C1219 0.929 . S
H1238 C1220 0.928 . S
H1239 C1222 0.932 . S
C1240 C1241 1.264 . S
C1240 C1245 1.479 . S
C1240 C1250 1.465 . S
C1241 C1240 1.264 . S
C1241 C1243 1.339 . S
C1241 H1268 0.931 . S
C1242 C1243 1.395 . S
C1242 C1244 1.320 . S
C1243 C1241 1.339 . S
C1243 C1242 1.395 . S
C1243 H1269 0.929 . S
C1244 C1242 1.320 . S
C1244 C1245 1.405 . S
C1244 H1270 0.930 . S
C1245 C1240 1.479 . S
C1245 C1244 1.405 . S
C1245 H1271 0.931 . S
U1246 O1247 2.454 . S
U1246 O1248 2.458 . S
U1246 C1249 2.984 . S
U1246 C1250 2.847 . S
U1246 C1263 2.882 . S
U1246 O1264 2.441 . S
U1246 O1265 2.420 . S
U1246 O1266 2.455 . S
U1246 O1267 2.449 . S
O1247 U1246 2.454 . S
O1247 C1249 1.353 . S
O1248 U1246 2.458 . S
O1248 C1249 1.286 . S
C1249 U1246 2.984 . S
C1249 O1247 1.353 . S
C1249 O1248 1.286 . S
C1249 C1251 1.363 . S
C1250 C1240 1.465 . S
C1250 U1246 2.847 . S
C1250 O1264 1.249 . S
C1250 O1265 1.202 . S
C1251 C1249 1.363 . S
C1251 C1253 1.408 . S
C1251 C1256 1.342 . S
C1252 C1253 1.310 . S
C1252 C1255 1.461 . S
C1252 H1272 0.932 . S
C1253 C1251 1.408 . S
C1253 C1252 1.310 . S
C1253 H1273 0.930 . S
C1254 C1255 1.474 . S
C1254 C1256 1.285 . S
C1254 H1274 0.929 . S
C1255 C1252 1.461 . S
C1255 C1254 1.474 . S
C1256 C1251 1.342 . S
C1256 C1254 1.285 . S
C1256 H1275 0.930 . S
C1257 C1260 1.424 . S
C1257 C1262 1.245 . S
C1257 C1263 1.428 . S
C1258 C1261 1.260 . S
C1258 C1262 1.477 . S
C1258 H1276 0.932 . S
C1259 C1260 1.384 . S
C1259 C1261 1.479 . S
C1259 H1277 0.929 . S
C1260 C1257 1.424 . S
C1260 C1259 1.384 . S
C1260 H1278 0.928 . S
C1261 C1258 1.260 . S
C1261 C1259 1.479 . S
C1262 C1257 1.245 . S
C1262 C1258 1.477 . S
C1262 H1279 0.932 . S
C1263 U1246 2.882 . S
C1263 C1257 1.428 . S
C1263 O1266 1.301 . S
C1263 O1267 1.282 . S
O1264 U1246 2.441 . S
O1264 C1250 1.249 . S
O1265 U1246 2.420 . S
O1265 C1250 1.202 . S
O1266 U1246 2.455 . S
O1266 C1263 1.301 . S
O1267 U1246 2.449 . S
O1267 C1263 1.282 . S
H1268 C1241 0.931 . S
H1269 C1243 0.929 . S
H1270 C1244 0.930 . S
H1271 C1245 0.931 . S
H1272 C1252 0.932 . S
H1273 C1253 0.930 . S
H1274 C1254 0.929 . S
H1275 C1256 0.930 . S
H1276 C1258 0.932 . S
H1277 C1259 0.929 . S
H1278 C1260 0.928 . S
H1279 C1262 0.932 . S
H1280 C1299 0.949 . S
H1281 C1300 0.950 . S
H1282 C1302 0.950 . S
H1283 C1303 0.950 . S
H1284 C1305 0.950 . S
H1285 C1308 0.950 . S
H1286 C1309 0.950 . S
H1287 C1311 0.951 . S
H1288 C1312 0.949 . S
H1289 C1314 0.949 . S
H1290 C1315 0.950 . S
H1291 C1317 0.950 . S
H1292 C1318 0.950 . S
H1293 C1320 0.950 . S
H1294 C1323 0.950 . S
H1295 C1324 0.950 . S
H1296 C1326 0.951 . S
H1297 C1327 0.949 . S
C1298 C1299 1.376 . S
C1298 C1303 1.386 . S
C1298 C1304 1.483 . S
C1299 H1280 0.949 . S
C1299 C1298 1.376 . S
C1299 C1300 1.397 . S
C1300 H1281 0.950 . S
C1300 C1299 1.397 . S
C1300 C1301 1.391 . S
C1301 C1300 1.391 . S
C1301 C1302 1.405 . S
C1302 H1282 0.950 . S
C1302 C1301 1.405 . S
C1302 C1303 1.367 . S
C1303 H1283 0.950 . S
C1303 C1298 1.386 . S
C1303 C1302 1.367 . S
C1304 C1298 1.483 . S
C1304 C1305 1.382 1_556 S
C1304 C1306 1.403 . S
C1305 H1284 0.950 . S
C1305 C1304 1.382 1_554 S
C1305 C1321 1.411 . S
C1306 C1304 1.403 . S
C1306 C1307 1.489 . S
C1306 C1320 1.411 1_556 S
C1307 C1306 1.489 . S
C1307 C1308 1.383 . S
C1307 C1312 1.382 . S
C1308 H1285 0.950 . S
C1308 C1307 1.383 . S
C1308 C1309 1.395 . S
C1309 H1286 0.950 . S
C1309 C1308 1.395 . S
C1309 C1310 1.288 . S
C1310 C1309 1.288 . S
C1310 C1311 1.392 . S
C1311 H1287 0.951 . S
C1311 C1310 1.392 . S
C1311 C1312 1.392 . S
C1312 H1288 0.949 . S
C1312 C1307 1.382 . S
C1312 C1311 1.392 . S
C1313 C1314 1.376 . S
C1313 C1318 1.386 . S
C1313 C1319 1.483 . S
C1314 H1289 0.949 . S
C1314 C1313 1.376 . S
C1314 C1315 1.397 . S
C1315 H1290 0.950 . S
C1315 C1314 1.397 . S
C1315 C1316 1.391 . S
C1316 C1315 1.391 . S
C1316 C1317 1.405 . S
C1317 H1291 0.950 . S
C1317 C1316 1.405 . S
C1317 C1318 1.367 . S
C1318 H1292 0.950 . S
C1318 C1313 1.386 . S
C1318 C1317 1.367 . S
C1319 C1313 1.483 . S
C1319 C1320 1.382 . S
C1319 C1321 1.403 . S
C1320 H1293 0.950 . S
C1320 C1306 1.411 1_554 S
C1320 C1319 1.382 . S
C1321 C1305 1.411 . S
C1321 C1319 1.403 . S
C1321 C1322 1.489 . S
C1322 C1321 1.489 . S
C1322 C1323 1.383 . S
C1322 C1327 1.382 . S
C1323 H1294 0.950 . S
C1323 C1322 1.383 . S
C1323 C1324 1.395 . S
C1324 H1295 0.950 . S
C1324 C1323 1.395 . S
C1324 C1325 1.288 . S
C1325 C1324 1.288 . S
C1325 C1326 1.392 . S
C1326 H1296 0.951 . S
C1326 C1325 1.392 . S
C1326 C1327 1.392 . S
C1327 H1297 0.949 . S
C1327 C1322 1.382 . S
C1327 C1326 1.392 . S
H1328 C1347 0.949 . S
H1329 C1348 0.950 . S
H1330 C1350 0.950 . S
H1331 C1351 0.950 . S
H1332 C1353 0.950 . S
H1333 C1356 0.950 . S
H1334 C1357 0.950 . S
H1335 C1359 0.951 . S
H1336 C1360 0.949 . S
H1337 C1362 0.949 . S
H1338 C1363 0.950 . S
H1339 C1365 0.950 . S
H1340 C1366 0.950 . S
H1341 C1368 0.950 . S
H1342 C1371 0.950 . S
H1343 C1372 0.950 . S
H1344 C1374 0.951 . S
H1345 C1375 0.949 . S
C1346 C1347 1.376 . S
C1346 C1351 1.386 . S
C1346 C1352 1.483 . S
C1347 H1328 0.949 . S
C1347 C1346 1.376 . S
C1347 C1348 1.397 . S
C1348 H1329 0.950 . S
C1348 C1347 1.397 . S
C1348 C1349 1.391 . S
C1349 C1348 1.391 . S
C1349 C1350 1.405 . S
C1350 H1330 0.950 . S
C1350 C1349 1.405 . S
C1350 C1351 1.367 . S
C1351 H1331 0.950 . S
C1351 C1346 1.386 . S
C1351 C1350 1.367 . S
C1352 C1346 1.483 . S
C1352 C1353 1.382 1_556 S
C1352 C1354 1.403 . S
C1353 H1332 0.950 . S
C1353 C1352 1.382 1_554 S
C1353 C1369 1.411 . S
C1354 C1352 1.403 . S
C1354 C1355 1.489 . S
C1354 C1368 1.411 1_556 S
C1355 C1354 1.489 . S
C1355 C1356 1.383 . S
C1355 C1360 1.382 . S
C1356 H1333 0.950 . S
C1356 C1355 1.383 . S
C1356 C1357 1.395 . S
C1357 H1334 0.950 . S
C1357 C1356 1.395 . S
C1357 C1358 1.288 . S
C1358 C1357 1.288 . S
C1358 C1359 1.392 . S
C1359 H1335 0.951 . S
C1359 C1358 1.392 . S
C1359 C1360 1.392 . S
C1360 H1336 0.949 . S
C1360 C1355 1.382 . S
C1360 C1359 1.392 . S
C1361 C1362 1.376 . S
C1361 C1366 1.386 . S
C1361 C1367 1.483 . S
C1362 H1337 0.949 . S
C1362 C1361 1.376 . S
C1362 C1363 1.397 . S
C1363 H1338 0.950 . S
C1363 C1362 1.397 . S
C1363 C1364 1.391 . S
C1364 C1363 1.391 . S
C1364 C1365 1.405 . S
C1365 H1339 0.950 . S
C1365 C1364 1.405 . S
C1365 C1366 1.367 . S
C1366 H1340 0.950 . S
C1366 C1361 1.386 . S
C1366 C1365 1.367 . S
C1367 C1361 1.483 . S
C1367 C1368 1.382 . S
C1367 C1369 1.403 . S
C1368 H1341 0.950 . S
C1368 C1354 1.411 1_554 S
C1368 C1367 1.382 . S
C1369 C1353 1.411 . S
C1369 C1367 1.403 . S
C1369 C1370 1.489 . S
C1370 C1369 1.489 . S
C1370 C1371 1.383 . S
C1370 C1375 1.382 . S
C1371 H1342 0.950 . S
C1371 C1370 1.383 . S
C1371 C1372 1.395 . S
C1372 H1343 0.950 . S
C1372 C1371 1.395 . S
C1372 C1373 1.288 . S
C1373 C1372 1.288 . S
C1373 C1374 1.392 . S
C1374 H1344 0.951 . S
C1374 C1373 1.392 . S
C1374 C1375 1.392 . S
C1375 H1345 0.949 . S
C1375 C1370 1.382 . S
C1375 C1374 1.392 . S
H1376 C1395 0.949 . S
H1377 C1396 0.950 . S
H1378 C1398 0.950 . S
H1379 C1399 0.950 . S
H1380 C1401 0.950 . S
H1381 C1404 0.950 . S
H1382 C1405 0.950 . S
H1383 C1407 0.951 . S
H1384 C1408 0.949 . S
H1385 C1410 0.949 . S
H1386 C1411 0.950 . S
H1387 C1413 0.950 . S
H1388 C1414 0.950 . S
H1389 C1416 0.950 . S
H1390 C1419 0.950 . S
H1391 C1420 0.950 . S
H1392 C1422 0.951 . S
H1393 C1423 0.949 . S
C1394 C1395 1.376 . S
C1394 C1399 1.386 . S
C1394 C1400 1.483 . S
C1395 H1376 0.949 . S
C1395 C1394 1.376 . S
C1395 C1396 1.397 . S
C1396 H1377 0.950 . S
C1396 C1395 1.397 . S
C1396 C1397 1.391 . S
C1397 C1396 1.391 . S
C1397 C1398 1.405 . S
C1398 H1378 0.950 . S
C1398 C1397 1.405 . S
C1398 C1399 1.367 . S
C1399 H1379 0.950 . S
C1399 C1394 1.386 . S
C1399 C1398 1.367 . S
C1400 C1394 1.483 . S
C1400 C1401 1.382 . S
C1400 C1402 1.403 . S
C1401 H1380 0.950 . S
C1401 C1400 1.382 . S
C1401 C1417 1.411 1_554 S
C1402 C1400 1.403 . S
C1402 C1403 1.489 . S
C1402 C1416 1.411 . S
C1403 C1402 1.489 . S
C1403 C1404 1.383 . S
C1403 C1408 1.382 . S
C1404 H1381 0.950 . S
C1404 C1403 1.383 . S
C1404 C1405 1.395 . S
C1405 H1382 0.950 . S
C1405 C1404 1.395 . S
C1405 C1406 1.288 . S
C1406 C1405 1.288 . S
C1406 C1407 1.392 . S
C1407 H1383 0.951 . S
C1407 C1406 1.392 . S
C1407 C1408 1.392 . S
C1408 H1384 0.949 . S
C1408 C1403 1.382 . S
C1408 C1407 1.392 . S
C1409 C1410 1.376 . S
C1409 C1414 1.386 . S
C1409 C1415 1.483 . S
C1410 H1385 0.949 . S
C1410 C1409 1.376 . S
C1410 C1411 1.397 . S
C1411 H1386 0.950 . S
C1411 C1410 1.397 . S
C1411 C1412 1.391 . S
C1412 C1411 1.391 . S
C1412 C1413 1.405 . S
C1413 H1387 0.950 . S
C1413 C1412 1.405 . S
C1413 C1414 1.367 . S
C1414 H1388 0.950 . S
C1414 C1409 1.386 . S
C1414 C1413 1.367 . S
C1415 C1409 1.483 . S
C1415 C1416 1.382 1_556 S
C1415 C1417 1.403 . S
C1416 H1389 0.950 . S
C1416 C1402 1.411 . S
C1416 C1415 1.382 1_554 S
C1417 C1401 1.411 1_556 S
C1417 C1415 1.403 . S
C1417 C1418 1.489 . S
C1418 C1417 1.489 . S
C1418 C1419 1.383 . S
C1418 C1423 1.382 . S
C1419 H1390 0.950 . S
C1419 C1418 1.383 . S
C1419 C1420 1.395 . S
C1420 H1391 0.950 . S
C1420 C1419 1.395 . S
C1420 C1421 1.288 . S
C1421 C1420 1.288 . S
C1421 C1422 1.392 . S
C1422 H1392 0.951 . S
C1422 C1421 1.392 . S
C1422 C1423 1.392 . S
C1423 H1393 0.949 . S
C1423 C1418 1.382 . S
C1423 C1422 1.392 . S
H1424 C1443 0.949 . S
H1425 C1444 0.950 . S
H1426 C1446 0.950 . S
H1427 C1447 0.950 . S
H1428 C1449 0.950 . S
H1429 C1452 0.950 . S
H1430 C1453 0.950 . S
H1431 C1455 0.951 . S
H1432 C1456 0.949 . S
H1433 C1458 0.949 . S
H1434 C1459 0.950 . S
H1435 C1461 0.950 . S
H1436 C1462 0.950 . S
H1437 C1464 0.950 . S
H1438 C1467 0.950 . S
H1439 C1468 0.950 . S
H1440 C1470 0.951 . S
H1441 C1471 0.949 . S
C1442 C1443 1.376 . S
C1442 C1447 1.386 . S
C1442 C1448 1.483 . S
C1443 H1424 0.949 . S
C1443 C1442 1.376 . S
C1443 C1444 1.397 . S
C1444 H1425 0.950 . S
C1444 C1443 1.397 . S
C1444 C1445 1.391 . S
C1445 C1444 1.391 . S
C1445 C1446 1.405 . S
C1446 H1426 0.950 . S
C1446 C1445 1.405 . S
C1446 C1447 1.367 . S
C1447 H1427 0.950 . S
C1447 C1442 1.386 . S
C1447 C1446 1.367 . S
C1448 C1442 1.483 . S
C1448 C1449 1.382 1_556 S
C1448 C1450 1.403 . S
C1449 H1428 0.950 . S
C1449 C1448 1.382 1_554 S
C1449 C1465 1.411 . S
C1450 C1448 1.403 . S
C1450 C1451 1.489 . S
C1450 C1464 1.411 1_556 S
C1451 C1450 1.489 . S
C1451 C1452 1.383 . S
C1451 C1456 1.382 . S
C1452 H1429 0.950 . S
C1452 C1451 1.383 . S
C1452 C1453 1.395 . S
C1453 H1430 0.950 . S
C1453 C1452 1.395 . S
C1453 C1454 1.288 . S
C1454 C1453 1.288 . S
C1454 C1455 1.392 . S
C1455 H1431 0.951 . S
C1455 C1454 1.392 . S
C1455 C1456 1.392 . S
C1456 H1432 0.949 . S
C1456 C1451 1.382 . S
C1456 C1455 1.392 . S
C1457 C1458 1.376 . S
C1457 C1462 1.386 . S
C1457 C1463 1.483 . S
C1458 H1433 0.949 . S
C1458 C1457 1.376 . S
C1458 C1459 1.397 . S
C1459 H1434 0.950 . S
C1459 C1458 1.397 . S
C1459 C1460 1.391 . S
C1460 C1459 1.391 . S
C1460 C1461 1.405 . S
C1461 H1435 0.950 . S
C1461 C1460 1.405 . S
C1461 C1462 1.367 . S
C1462 H1436 0.950 . S
C1462 C1457 1.386 . S
C1462 C1461 1.367 . S
C1463 C1457 1.483 . S
C1463 C1464 1.382 . S
C1463 C1465 1.403 . S
C1464 H1437 0.950 . S
C1464 C1450 1.411 1_554 S
C1464 C1463 1.382 . S
C1465 C1449 1.411 . S
C1465 C1463 1.403 . S
C1465 C1466 1.489 . S
C1466 C1465 1.489 . S
C1466 C1467 1.383 . S
C1466 C1471 1.382 . S
C1467 H1438 0.950 . S
C1467 C1466 1.383 . S
C1467 C1468 1.395 . S
C1468 H1439 0.950 . S
C1468 C1467 1.395 . S
C1468 C1469 1.288 . S
C1469 C1468 1.288 . S
C1469 C1470 1.392 . S
C1470 H1440 0.951 . S
C1470 C1469 1.392 . S
C1470 C1471 1.392 . S
C1471 H1441 0.949 . S
C1471 C1466 1.382 . S
C1471 C1470 1.392 . S
H1472 C1491 0.949 . S
H1473 C1492 0.950 . S
H1474 C1494 0.950 . S
H1475 C1495 0.950 . S
H1476 C1497 0.950 . S
H1477 C1500 0.950 . S
H1478 C1501 0.950 . S
H1479 C1503 0.951 . S
H1480 C1504 0.949 . S
H1481 C1506 0.949 . S
H1482 C1507 0.950 . S
H1483 C1509 0.950 . S
H1484 C1510 0.950 . S
H1485 C1512 0.950 . S
H1486 C1515 0.950 . S
H1487 C1516 0.950 . S
H1488 C1518 0.951 . S
H1489 C1519 0.949 . S
C1490 C1491 1.376 . S
C1490 C1495 1.386 . S
C1490 C1496 1.483 . S
C1491 H1472 0.949 . S
C1491 C1490 1.376 . S
C1491 C1492 1.397 . S
C1492 H1473 0.950 . S
C1492 C1491 1.397 . S
C1492 C1493 1.391 . S
C1493 C1492 1.391 . S
C1493 C1494 1.405 . S
C1494 H1474 0.950 . S
C1494 C1493 1.405 . S
C1494 C1495 1.367 . S
C1495 H1475 0.950 . S
C1495 C1490 1.386 . S
C1495 C1494 1.367 . S
C1496 C1490 1.483 . S
C1496 C1497 1.382 . S
C1496 C1498 1.403 . S
C1497 H1476 0.950 . S
C1497 C1496 1.382 . S
C1497 C1513 1.411 1_455 S
C1498 C1496 1.403 . S
C1498 C1499 1.489 . S
C1498 C1512 1.411 . S
C1499 C1498 1.489 . S
C1499 C1500 1.383 . S
C1499 C1504 1.382 . S
C1500 H1477 0.950 . S
C1500 C1499 1.383 . S
C1500 C1501 1.395 . S
C1501 H1478 0.950 . S
C1501 C1500 1.395 . S
C1501 C1502 1.288 . S
C1502 C1501 1.288 . S
C1502 C1503 1.392 . S
C1503 H1479 0.951 . S
C1503 C1502 1.392 . S
C1503 C1504 1.392 . S
C1504 H1480 0.949 . S
C1504 C1499 1.382 . S
C1504 C1503 1.392 . S
C1505 C1506 1.376 . S
C1505 C1510 1.386 . S
C1505 C1511 1.483 . S
C1506 H1481 0.949 . S
C1506 C1505 1.376 . S
C1506 C1507 1.397 . S
C1507 H1482 0.950 . S
C1507 C1506 1.397 . S
C1507 C1508 1.391 . S
C1508 C1507 1.391 . S
C1508 C1509 1.405 . S
C1509 H1483 0.950 . S
C1509 C1508 1.405 . S
C1509 C1510 1.367 . S
C1510 H1484 0.950 . S
C1510 C1505 1.386 . S
C1510 C1509 1.367 . S
C1511 C1505 1.483 . S
C1511 C1512 1.382 1_655 S
C1511 C1513 1.403 . S
C1512 H1485 0.950 . S
C1512 C1498 1.411 . S
C1512 C1511 1.382 1_455 S
C1513 C1497 1.411 1_655 S
C1513 C1511 1.403 . S
C1513 C1514 1.489 . S
C1514 C1513 1.489 . S
C1514 C1515 1.383 . S
C1514 C1519 1.382 . S
C1515 H1486 0.950 . S
C1515 C1514 1.383 . S
C1515 C1516 1.395 . S
C1516 H1487 0.950 . S
C1516 C1515 1.395 . S
C1516 C1517 1.288 . S
C1517 C1516 1.288 . S
C1517 C1518 1.392 . S
C1518 H1488 0.951 . S
C1518 C1517 1.392 . S
C1518 C1519 1.392 . S
C1519 H1489 0.949 . S
C1519 C1514 1.382 . S
C1519 C1518 1.392 . S
H1520 C1539 0.949 . S
H1521 C1540 0.950 . S
H1522 C1542 0.950 . S
H1523 C1543 0.950 . S
H1524 C1545 0.950 . S
H1525 C1548 0.950 . S
H1526 C1549 0.950 . S
H1527 C1551 0.951 . S
H1528 C1552 0.949 . S
H1529 C1554 0.949 . S
H1530 C1555 0.950 . S
H1531 C1557 0.950 . S
H1532 C1558 0.950 . S
H1533 C1560 0.950 1_565 S
H1534 C1563 0.950 . S
H1535 C1564 0.950 . S
H1536 C1566 0.951 . S
H1537 C1567 0.949 . S
C1538 C1539 1.376 . S
C1538 C1543 1.386 . S
C1538 C1544 1.483 . S
C1539 H1520 0.949 . S
C1539 C1538 1.376 . S
C1539 C1540 1.397 . S
C1540 H1521 0.950 . S
C1540 C1539 1.397 . S
C1540 C1541 1.391 . S
C1541 C1540 1.391 . S
C1541 C1542 1.405 . S
C1542 H1522 0.950 . S
C1542 C1541 1.405 . S
C1542 C1543 1.367 . S
C1543 H1523 0.950 . S
C1543 C1538 1.386 . S
C1543 C1542 1.367 . S
C1544 C1538 1.483 . S
C1544 C1545 1.382 . S
C1544 C1546 1.403 . S
C1545 H1524 0.950 . S
C1545 C1544 1.382 . S
C1545 C1561 1.411 1_545 S
C1546 C1544 1.403 . S
C1546 C1547 1.489 . S
C1546 C1560 1.436 . S
C1547 C1546 1.489 . S
C1547 C1548 1.383 . S
C1547 C1552 1.382 . S
C1548 H1525 0.950 . S
C1548 C1547 1.383 . S
C1548 C1549 1.395 . S
C1549 H1526 0.950 . S
C1549 C1548 1.395 . S
C1549 C1550 1.288 . S
C1550 C1549 1.288 . S
C1550 C1551 1.392 . S
C1551 H1527 0.951 . S
C1551 C1550 1.392 . S
C1551 C1552 1.392 . S
C1552 H1528 0.949 . S
C1552 C1547 1.382 . S
C1552 C1551 1.392 . S
C1553 C1554 1.376 . S
C1553 C1558 1.386 . S
C1553 C1559 1.483 . S
C1554 H1529 0.949 . S
C1554 C1553 1.376 . S
C1554 C1555 1.397 . S
C1555 H1530 0.950 . S
C1555 C1554 1.397 . S
C1555 C1556 1.391 . S
C1556 C1555 1.391 . S
C1556 C1557 1.405 . S
C1557 H1531 0.950 . S
C1557 C1556 1.405 . S
C1557 C1558 1.367 . S
C1558 H1532 0.950 . S
C1558 C1553 1.386 . S
C1558 C1557 1.367 . S
C1559 C1553 1.483 . S
C1559 C1560 1.358 1_565 S
C1559 C1561 1.403 . S
C1560 H1533 0.950 1_545 S
C1560 C1546 1.436 . S
C1560 C1559 1.358 1_545 S
C1561 C1545 1.411 1_565 S
C1561 C1559 1.403 . S
C1561 C1562 1.489 . S
C1562 C1561 1.489 . S
C1562 C1563 1.383 . S
C1562 C1567 1.382 . S
C1563 H1534 0.950 . S
C1563 C1562 1.383 . S
C1563 C1564 1.395 . S
C1564 H1535 0.950 . S
C1564 C1563 1.395 . S
C1564 C1565 1.288 . S
C1565 C1564 1.288 . S
C1565 C1566 1.392 . S
C1566 H1536 0.951 . S
C1566 C1565 1.392 . S
C1566 C1567 1.392 . S
C1567 H1537 0.949 . S
C1567 C1562 1.382 . S
C1567 C1566 1.392 . S
H1568 C1587 0.949 . S
H1569 C1588 0.950 . S
H1570 C1590 0.950 . S
H1571 C1591 0.950 . S
H1572 C1593 0.950 . S
H1573 C1596 0.950 . S
H1574 C1597 0.950 . S
H1575 C1599 0.951 . S
H1576 C1600 0.949 . S
H1577 C1602 0.949 . S
H1578 C1603 0.950 . S
H1579 C1605 0.950 . S
H1580 C1606 0.950 . S
H1581 C1608 0.950 . S
H1582 C1611 0.950 . S
H1583 C1612 0.950 . S
H1584 C1614 0.951 . S
H1585 C1615 0.949 . S
C1586 C1587 1.376 . S
C1586 C1591 1.386 . S
C1586 C1592 1.483 . S
C1587 H1568 0.949 . S
C1587 C1586 1.376 . S
C1587 C1588 1.397 . S
C1588 H1569 0.950 . S
C1588 C1587 1.397 . S
C1588 C1589 1.391 . S
C1589 C1588 1.391 . S
C1589 C1590 1.405 . S
C1590 H1570 0.950 . S
C1590 C1589 1.405 . S
C1590 C1591 1.367 . S
C1591 H1571 0.950 . S
C1591 C1586 1.386 . S
C1591 C1590 1.367 . S
C1592 C1586 1.483 . S
C1592 C1593 1.382 . S
C1592 C1594 1.403 . S
C1593 H1572 0.950 . S
C1593 C1592 1.382 . S
C1593 C1609 1.411 1_455 S
C1594 C1592 1.403 . S
C1594 C1595 1.489 . S
C1594 C1608 1.471 . S
C1595 C1594 1.489 . S
C1595 C1596 1.383 . S
C1595 C1600 1.382 . S
C1596 H1573 0.950 . S
C1596 C1595 1.383 . S
C1596 C1597 1.395 . S
C1597 H1574 0.950 . S
C1597 C1596 1.395 . S
C1597 C1598 1.288 . S
C1598 C1597 1.288 . S
C1598 C1599 1.392 . S
C1599 H1575 0.951 . S
C1599 C1598 1.392 . S
C1599 C1600 1.392 . S
C1600 H1576 0.949 . S
C1600 C1595 1.382 . S
C1600 C1599 1.392 . S
C1601 C1602 1.376 . S
C1601 C1606 1.386 . S
C1601 C1607 1.483 . S
C1602 H1577 0.949 . S
C1602 C1601 1.376 . S
C1602 C1603 1.397 . S
C1603 H1578 0.950 . S
C1603 C1602 1.397 . S
C1603 C1604 1.391 . S
C1604 C1603 1.391 . S
C1604 C1605 1.405 . S
C1605 H1579 0.950 . S
C1605 C1604 1.405 . S
C1605 C1606 1.367 . S
C1606 H1580 0.950 . S
C1606 C1601 1.386 . S
C1606 C1605 1.367 . S
C1607 C1601 1.483 . S
C1607 C1608 1.324 1_655 S
C1607 C1609 1.403 . S
C1608 H1581 0.950 . S
C1608 C1594 1.471 . S
C1608 C1607 1.324 1_455 S
C1609 C1593 1.411 1_655 S
C1609 C1607 1.403 . S
C1609 C1610 1.489 . S
C1610 C1609 1.489 . S
C1610 C1611 1.383 . S
C1610 C1615 1.382 . S
C1611 H1582 0.950 . S
C1611 C1610 1.383 . S
C1611 C1612 1.395 . S
C1612 H1583 0.950 . S
C1612 C1611 1.395 . S
C1612 C1613 1.288 . S
C1613 C1612 1.288 . S
C1613 C1614 1.392 . S
C1614 H1584 0.951 . S
C1614 C1613 1.392 . S
C1614 C1615 1.392 . S
C1615 H1585 0.949 . S
C1615 C1610 1.382 . S
C1615 C1614 1.392 . S
H1616 C1635 0.949 . S
H1617 C1636 0.950 . S
H1618 C1638 0.950 . S
H1619 C1639 0.950 . S
H1620 C1641 0.950 . S
H1621 C1644 0.950 . S
H1622 C1645 0.950 . S
H1623 C1647 0.951 . S
H1624 C1648 0.949 . S
H1625 C1650 0.949 . S
H1626 C1651 0.950 . S
H1627 C1653 0.950 . S
H1628 C1654 0.950 . S
H1629 C1656 0.950 . S
H1630 C1659 0.950 . S
H1631 C1660 0.950 . S
H1632 C1662 0.951 . S
H1633 C1663 0.949 . S
C1634 C1635 1.376 . S
C1634 C1639 1.386 . S
C1634 C1640 1.483 . S
C1635 H1616 0.949 . S
C1635 C1634 1.376 . S
C1635 C1636 1.397 . S
C1636 H1617 0.950 . S
C1636 C1635 1.397 . S
C1636 C1637 1.391 . S
C1637 C1636 1.391 . S
C1637 C1638 1.405 . S
C1638 H1618 0.950 . S
C1638 C1637 1.405 . S
C1638 C1639 1.367 . S
C1639 H1619 0.950 . S
C1639 C1634 1.386 . S
C1639 C1638 1.367 . S
C1640 C1634 1.483 . S
C1640 C1641 1.382 . S
C1640 C1642 1.403 . S
C1641 H1620 0.950 . S
C1641 C1640 1.382 . S
C1641 C1657 1.411 1_545 S
C1642 C1640 1.403 . S
C1642 C1643 1.489 . S
C1642 C1656 1.411 . S
C1643 C1642 1.489 . S
C1643 C1644 1.383 . S
C1643 C1648 1.382 . S
C1644 H1621 0.950 . S
C1644 C1643 1.383 . S
C1644 C1645 1.395 . S
C1645 H1622 0.950 . S
C1645 C1644 1.395 . S
C1645 C1646 1.288 . S
C1646 C1645 1.288 . S
C1646 C1647 1.392 . S
C1647 H1623 0.951 . S
C1647 C1646 1.392 . S
C1647 C1648 1.392 . S
C1648 H1624 0.949 . S
C1648 C1643 1.382 . S
C1648 C1647 1.392 . S
C1649 C1650 1.376 . S
C1649 C1654 1.386 . S
C1649 C1655 1.483 . S
C1650 H1625 0.949 . S
C1650 C1649 1.376 . S
C1650 C1651 1.397 . S
C1651 H1626 0.950 . S
C1651 C1650 1.397 . S
C1651 C1652 1.391 . S
C1652 C1651 1.391 . S
C1652 C1653 1.405 . S
C1653 H1627 0.950 . S
C1653 C1652 1.405 . S
C1653 C1654 1.367 . S
C1654 H1628 0.950 . S
C1654 C1649 1.386 . S
C1654 C1653 1.367 . S
C1655 C1649 1.483 . S
C1655 C1656 1.382 1_565 S
C1655 C1657 1.403 . S
C1656 H1629 0.950 . S
C1656 C1642 1.411 . S
C1656 C1655 1.382 1_545 S
C1657 C1641 1.411 1_565 S
C1657 C1655 1.403 . S
C1657 C1658 1.489 . S
C1658 C1657 1.489 . S
C1658 C1659 1.383 . S
C1658 C1663 1.382 . S
C1659 H1630 0.950 . S
C1659 C1658 1.383 . S
C1659 C1660 1.395 . S
C1660 H1631 0.950 . S
C1660 C1659 1.395 . S
C1660 C1661 1.288 . S
C1661 C1660 1.288 . S
C1661 C1662 1.392 . S
C1662 H1632 0.951 . S
C1662 C1661 1.392 . S
C1662 C1663 1.392 . S
C1663 H1633 0.949 . S
C1663 C1658 1.382 . S
C1663 C1662 1.392 . S
H1664 C1683 0.949 . S
H1665 C1684 0.950 . S
H1666 C1686 0.950 . S
H1667 C1687 0.950 . S
H1668 C1689 0.950 . S
H1669 C1692 0.950 . S
H1670 C1693 0.950 . S
H1671 C1695 0.951 . S
H1672 C1696 0.949 . S
H1673 C1698 0.949 . S
H1674 C1699 0.950 . S
H1675 C1701 0.950 . S
H1676 C1702 0.950 . S
H1677 C1704 0.950 . S
H1678 C1707 0.950 . S
H1679 C1708 0.950 . S
H1680 C1710 0.951 . S
H1681 C1711 0.949 . S
C1682 C1683 1.376 . S
C1682 C1687 1.386 . S
C1682 C1688 1.483 . S
C1683 H1664 0.949 . S
C1683 C1682 1.376 . S
C1683 C1684 1.397 . S
C1684 H1665 0.950 . S
C1684 C1683 1.397 . S
C1684 C1685 1.391 . S
C1685 C1684 1.391 . S
C1685 C1686 1.405 . S
C1686 H1666 0.950 . S
C1686 C1685 1.405 . S
C1686 C1687 1.367 . S
C1687 H1667 0.950 . S
C1687 C1682 1.386 . S
C1687 C1686 1.367 . S
C1688 C1682 1.483 . S
C1688 C1689 1.382 . S
C1688 C1690 1.403 . S
C1689 H1668 0.950 . S
C1689 C1688 1.382 . S
C1689 C1705 1.411 1_455 S
C1690 C1688 1.403 . S
C1690 C1691 1.489 . S
C1690 C1704 1.411 . S
C1691 C1690 1.489 . S
C1691 C1692 1.383 . S
C1691 C1696 1.382 . S
C1692 H1669 0.950 . S
C1692 C1691 1.383 . S
C1692 C1693 1.395 . S
C1693 H1670 0.950 . S
C1693 C1692 1.395 . S
C1693 C1694 1.288 . S
C1694 C1693 1.288 . S
C1694 C1695 1.392 . S
C1695 H1671 0.951 . S
C1695 C1694 1.392 . S
C1695 C1696 1.392 . S
C1696 H1672 0.949 . S
C1696 C1691 1.382 . S
C1696 C1695 1.392 . S
C1697 C1698 1.376 . S
C1697 C1702 1.386 . S
C1697 C1703 1.483 . S
C1698 H1673 0.949 . S
C1698 C1697 1.376 . S
C1698 C1699 1.397 . S
C1699 H1674 0.950 . S
C1699 C1698 1.397 . S
C1699 C1700 1.391 . S
C1700 C1699 1.391 . S
C1700 C1701 1.405 . S
C1701 H1675 0.950 . S
C1701 C1700 1.405 . S
C1701 C1702 1.367 . S
C1702 H1676 0.950 . S
C1702 C1697 1.386 . S
C1702 C1701 1.367 . S
C1703 C1697 1.483 . S
C1703 C1704 1.382 1_655 S
C1703 C1705 1.403 . S
C1704 H1677 0.950 . S
C1704 C1690 1.411 . S
C1704 C1703 1.382 1_455 S
C1705 C1689 1.411 1_655 S
C1705 C1703 1.403 . S
C1705 C1706 1.489 . S
C1706 C1705 1.489 . S
C1706 C1707 1.383 . S
C1706 C1711 1.382 . S
C1707 H1678 0.950 . S
C1707 C1706 1.383 . S
C1707 C1708 1.395 . S
C1708 H1679 0.950 . S
C1708 C1707 1.395 . S
C1708 C1709 1.288 . S
C1709 C1708 1.288 . S
C1709 C1710 1.392 . S
C1710 H1680 0.951 . S
C1710 C1709 1.392 . S
C1710 C1711 1.392 . S
C1711 H1681 0.949 . S
C1711 C1706 1.382 . S
C1711 C1710 1.392 . S
H1712 C1731 0.949 . S
H1713 C1732 0.950 . S
H1714 C1734 0.950 . S
H1715 C1735 0.950 . S
H1716 C1737 0.950 . S
H1717 C1740 0.950 . S
H1718 C1741 0.950 . S
H1719 C1743 0.951 . S
H1720 C1744 0.949 . S
H1721 C1746 0.949 . S
H1722 C1747 0.950 . S
H1723 C1749 0.950 . S
H1724 C1750 0.950 . S
H1725 C1752 0.950 1_565 S
H1726 C1755 0.950 . S
H1727 C1756 0.950 . S
H1728 C1758 0.951 . S
H1729 C1759 0.949 . S
C1730 C1731 1.376 . S
C1730 C1735 1.386 . S
C1730 C1736 1.483 . S
C1731 H1712 0.949 . S
C1731 C1730 1.376 . S
C1731 C1732 1.397 . S
C1732 H1713 0.950 . S
C1732 C1731 1.397 . S
C1732 C1733 1.391 . S
C1733 C1732 1.391 . S
C1733 C1734 1.405 . S
C1734 H1714 0.950 . S
C1734 C1733 1.405 . S
C1734 C1735 1.367 . S
C1735 H1715 0.950 . S
C1735 C1730 1.386 . S
C1735 C1734 1.367 . S
C1736 C1730 1.483 . S
C1736 C1737 1.382 . S
C1736 C1738 1.403 . S
C1737 H1716 0.950 . S
C1737 C1736 1.382 . S
C1737 C1753 1.411 1_545 S
C1738 C1736 1.403 . S
C1738 C1739 1.489 . S
C1738 C1752 1.435 . S
C1739 C1738 1.489 . S
C1739 C1740 1.383 . S
C1739 C1744 1.382 . S
C1740 H1717 0.950 . S
C1740 C1739 1.383 . S
C1740 C1741 1.395 . S
C1741 H1718 0.950 . S
C1741 C1740 1.395 . S
C1741 C1742 1.288 . S
C1742 C1741 1.288 . S
C1742 C1743 1.392 . S
C1743 H1719 0.951 . S
C1743 C1742 1.392 . S
C1743 C1744 1.392 . S
C1744 H1720 0.949 . S
C1744 C1739 1.382 . S
C1744 C1743 1.392 . S
C1745 C1746 1.376 . S
C1745 C1750 1.386 . S
C1745 C1751 1.483 . S
C1746 H1721 0.949 . S
C1746 C1745 1.376 . S
C1746 C1747 1.397 . S
C1747 H1722 0.950 . S
C1747 C1746 1.397 . S
C1747 C1748 1.391 . S
C1748 C1747 1.391 . S
C1748 C1749 1.405 . S
C1749 H1723 0.950 . S
C1749 C1748 1.405 . S
C1749 C1750 1.367 . S
C1750 H1724 0.950 . S
C1750 C1745 1.386 . S
C1750 C1749 1.367 . S
C1751 C1745 1.483 . S
C1751 C1752 1.358 1_565 S
C1751 C1753 1.403 . S
C1752 H1725 0.950 1_545 S
C1752 C1738 1.435 . S
C1752 C1751 1.358 1_545 S
C1753 C1737 1.411 1_565 S
C1753 C1751 1.403 . S
C1753 C1754 1.489 . S
C1754 C1753 1.489 . S
C1754 C1755 1.383 . S
C1754 C1759 1.382 . S
C1755 H1726 0.950 . S
C1755 C1754 1.383 . S
C1755 C1756 1.395 . S
C1756 H1727 0.950 . S
C1756 C1755 1.395 . S
C1756 C1757 1.288 . S
C1757 C1756 1.288 . S
C1757 C1758 1.392 . S
C1758 H1728 0.951 . S
C1758 C1757 1.392 . S
C1758 C1759 1.392 . S
C1759 H1729 0.949 . S
C1759 C1754 1.382 . S
C1759 C1758 1.392 . S
H1760 C1779 0.949 . S
H1761 C1780 0.950 . S
H1762 C1782 0.950 . S
H1763 C1783 0.950 . S
H1764 C1785 0.950 . S
H1765 C1788 0.950 . S
H1766 C1789 0.950 . S
H1767 C1791 0.951 . S
H1768 C1792 0.949 . S
H1769 C1794 0.949 . S
H1770 C1795 0.950 . S
H1771 C1797 0.950 . S
H1772 C1798 0.950 . S
H1773 C1800 0.950 . S
H1774 C1803 0.950 . S
H1775 C1804 0.950 . S
H1776 C1806 0.951 . S
H1777 C1807 0.949 . S
C1778 C1779 1.376 . S
C1778 C1783 1.386 . S
C1778 C1784 1.483 . S
C1779 H1760 0.949 . S
C1779 C1778 1.376 . S
C1779 C1780 1.397 . S
C1780 H1761 0.950 . S
C1780 C1779 1.397 . S
C1780 C1781 1.391 . S
C1781 C1780 1.391 . S
C1781 C1782 1.405 . S
C1782 H1762 0.950 . S
C1782 C1781 1.405 . S
C1782 C1783 1.367 . S
C1783 H1763 0.950 . S
C1783 C1778 1.386 . S
C1783 C1782 1.367 . S
C1784 C1778 1.483 . S
C1784 C1785 1.330 1_655 S
C1784 C1786 1.403 . S
C1785 H1764 0.950 . S
C1785 C1784 1.330 1_455 S
C1785 C1801 1.465 . S
C1786 C1784 1.403 . S
C1786 C1787 1.489 . S
C1786 C1800 1.411 1_655 S
C1787 C1786 1.489 . S
C1787 C1788 1.383 . S
C1787 C1792 1.382 . S
C1788 H1765 0.950 . S
C1788 C1787 1.383 . S
C1788 C1789 1.395 . S
C1789 H1766 0.950 . S
C1789 C1788 1.395 . S
C1789 C1790 1.288 . S
C1790 C1789 1.288 . S
C1790 C1791 1.392 . S
C1791 H1767 0.951 . S
C1791 C1790 1.392 . S
C1791 C1792 1.392 . S
C1792 H1768 0.949 . S
C1792 C1787 1.382 . S
C1792 C1791 1.392 . S
C1793 C1794 1.376 . S
C1793 C1798 1.386 . S
C1793 C1799 1.483 . S
C1794 H1769 0.949 . S
C1794 C1793 1.376 . S
C1794 C1795 1.397 . S
C1795 H1770 0.950 . S
C1795 C1794 1.397 . S
C1795 C1796 1.391 . S
C1796 C1795 1.391 . S
C1796 C1797 1.405 . S
C1797 H1771 0.950 . S
C1797 C1796 1.405 . S
C1797 C1798 1.367 . S
C1798 H1772 0.950 . S
C1798 C1793 1.386 . S
C1798 C1797 1.367 . S
C1799 C1793 1.483 . S
C1799 C1800 1.382 . S
C1799 C1801 1.403 . S
C1800 H1773 0.950 . S
C1800 C1786 1.411 1_455 S
C1800 C1799 1.382 . S
C1801 C1785 1.465 . S
C1801 C1799 1.403 . S
C1801 C1802 1.489 . S
C1802 C1801 1.489 . S
C1802 C1803 1.383 . S
C1802 C1807 1.382 . S
C1803 H1774 0.950 . S
C1803 C1802 1.383 . S
C1803 C1804 1.395 . S
C1804 H1775 0.950 . S
C1804 C1803 1.395 . S
C1804 C1805 1.288 . S
C1805 C1804 1.288 . S
C1805 C1806 1.392 . S
C1806 H1776 0.951 . S
C1806 C1805 1.392 . S
C1806 C1807 1.392 . S
C1807 H1777 0.949 . S
C1807 C1802 1.382 . S
C1807 C1806 1.392 . S
H1808 C1827 0.949 . S
H1809 C1828 0.950 . S
H1810 C1830 0.950 . S
H1811 C1831 0.950 . S
H1812 C1833 0.950 . S
H1813 C1836 0.950 . S
H1814 C1837 0.950 . S
H1815 C1839 0.951 . S
H1816 C1840 0.949 . S
H1817 C1842 0.949 . S
H1818 C1843 0.950 . S
H1819 C1845 0.950 . S
H1820 C1846 0.950 . S
H1821 C1848 0.950 . S
H1822 C1851 0.950 . S
H1823 C1852 0.950 . S
H1824 C1854 0.951 . S
H1825 C1855 0.949 . S
C1826 C1827 1.376 . S
C1826 C1831 1.386 . S
C1826 C1832 1.483 . S
C1827 H1808 0.949 . S
C1827 C1826 1.376 . S
C1827 C1828 1.397 . S
C1828 H1809 0.950 . S
C1828 C1827 1.397 . S
C1828 C1829 1.391 . S
C1829 C1828 1.391 . S
C1829 C1830 1.405 . S
C1830 H1810 0.950 . S
C1830 C1829 1.405 . S
C1830 C1831 1.367 . S
C1831 H1811 0.950 . S
C1831 C1826 1.386 . S
C1831 C1830 1.367 . S
C1832 C1826 1.483 . S
C1832 C1833 1.382 . S
C1832 C1834 1.403 . S
C1833 H1812 0.950 . S
C1833 C1832 1.382 . S
C1833 C1849 1.411 1_545 S
C1834 C1832 1.403 . S
C1834 C1835 1.489 . S
C1834 C1848 1.411 . S
C1835 C1834 1.489 . S
C1835 C1836 1.383 . S
C1835 C1840 1.382 . S
C1836 H1813 0.950 . S
C1836 C1835 1.383 . S
C1836 C1837 1.395 . S
C1837 H1814 0.950 . S
C1837 C1836 1.395 . S
C1837 C1838 1.288 . S
C1838 C1837 1.288 . S
C1838 C1839 1.392 . S
C1839 H1815 0.951 . S
C1839 C1838 1.392 . S
C1839 C1840 1.392 . S
C1840 H1816 0.949 . S
C1840 C1835 1.382 . S
C1840 C1839 1.392 . S
C1841 C1842 1.376 . S
C1841 C1846 1.386 . S
C1841 C1847 1.483 . S
C1842 H1817 0.949 . S
C1842 C1841 1.376 . S
C1842 C1843 1.397 . S
C1843 H1818 0.950 . S
C1843 C1842 1.397 . S
C1843 C1844 1.391 . S
C1844 C1843 1.391 . S
C1844 C1845 1.405 . S
C1845 H1819 0.950 . S
C1845 C1844 1.405 . S
C1845 C1846 1.367 . S
C1846 H1820 0.950 . S
C1846 C1841 1.386 . S
C1846 C1845 1.367 . S
C1847 C1841 1.483 . S
C1847 C1848 1.382 1_565 S
C1847 C1849 1.403 . S
C1848 H1821 0.950 . S
C1848 C1834 1.411 . S
C1848 C1847 1.382 1_545 S
C1849 C1833 1.411 1_565 S
C1849 C1847 1.403 . S
C1849 C1850 1.489 . S
C1850 C1849 1.489 . S
C1850 C1851 1.383 . S
C1850 C1855 1.382 . S
C1851 H1822 0.950 . S
C1851 C1850 1.383 . S
C1851 C1852 1.395 . S
C1852 H1823 0.950 . S
C1852 C1851 1.395 . S
C1852 C1853 1.288 . S
C1853 C1852 1.288 . S
C1853 C1854 1.392 . S
C1854 H1824 0.951 . S
C1854 C1853 1.392 . S
C1854 C1855 1.392 . S
C1855 H1825 0.949 . S
C1855 C1850 1.382 . S
C1855 C1854 1.392 . S
H1856 C1875 0.949 . S
H1857 C1876 0.950 . S
H1858 C1878 0.950 . S
H1859 C1879 0.950 . S
H1860 C1881 0.950 . S
H1861 C1884 0.950 . S
H1862 C1885 0.950 . S
H1863 C1887 0.951 . S
H1864 C1888 0.949 . S
H1865 C1890 0.949 . S
H1866 C1891 0.950 . S
H1867 C1893 0.950 . S
H1868 C1894 0.950 . S
H1869 C1896 0.950 . S
H1870 C1899 0.950 . S
H1871 C1900 0.950 . S
H1872 C1902 0.951 . S
H1873 C1903 0.949 . S
C1874 C1875 1.376 . S
C1874 C1879 1.386 . S
C1874 C1880 1.483 . S
C1875 H1856 0.949 . S
C1875 C1874 1.376 . S
C1875 C1876 1.397 . S
C1876 H1857 0.950 . S
C1876 C1875 1.397 . S
C1876 C1877 1.391 . S
C1877 C1876 1.391 . S
C1877 C1878 1.405 . S
C1878 H1858 0.950 . S
C1878 C1877 1.405 . S
C1878 C1879 1.367 . S
C1879 H1859 0.950 . S
C1879 C1874 1.386 . S
C1879 C1878 1.367 . S
C1880 C1874 1.483 . S
C1880 C1881 1.382 . S
C1880 C1882 1.403 . S
C1881 H1860 0.950 . S
C1881 C1880 1.382 . S
C1881 C1897 1.411 . S
C1882 C1880 1.403 . S
C1882 C1883 1.489 . S
C1882 C1896 1.411 . S
C1883 C1882 1.489 . S
C1883 C1884 1.383 . S
C1883 C1888 1.382 . S
C1884 H1861 0.950 . S
C1884 C1883 1.383 . S
C1884 C1885 1.395 . S
C1885 H1862 0.950 . S
C1885 C1884 1.395 . S
C1885 C1886 1.288 . S
C1886 C1885 1.288 . S
C1886 C1887 1.392 . S
C1887 H1863 0.951 . S
C1887 C1886 1.392 . S
C1887 C1888 1.392 . S
C1888 H1864 0.949 . S
C1888 C1883 1.382 . S
C1888 C1887 1.392 . S
C1889 C1890 1.376 . S
C1889 C1894 1.386 . S
C1889 C1895 1.483 . S
C1890 H1865 0.949 . S
C1890 C1889 1.376 . S
C1890 C1891 1.397 . S
C1891 H1866 0.950 . S
C1891 C1890 1.397 . S
C1891 C1892 1.391 . S
C1892 C1891 1.391 . S
C1892 C1893 1.405 . S
C1893 H1867 0.950 . S
C1893 C1892 1.405 . S
C1893 C1894 1.367 . S
C1894 H1868 0.950 . S
C1894 C1889 1.386 . S
C1894 C1893 1.367 . S
C1895 C1889 1.483 . S
C1895 C1896 1.382 . S
C1895 C1897 1.403 . S
C1896 H1869 0.950 . S
C1896 C1882 1.411 . S
C1896 C1895 1.382 . S
C1897 C1881 1.411 . S
C1897 C1895 1.403 . S
C1897 C1898 1.489 . S
C1898 C1897 1.489 . S
C1898 C1899 1.383 . S
C1898 C1903 1.382 . S
C1899 H1870 0.950 . S
C1899 C1898 1.383 . S
C1899 C1900 1.395 . S
C1900 H1871 0.950 . S
C1900 C1899 1.395 . S
C1900 C1901 1.288 . S
C1901 C1900 1.288 . S
C1901 C1902 1.392 . S
C1902 H1872 0.951 . S
C1902 C1901 1.392 . S
C1902 C1903 1.392 . S
C1903 H1873 0.949 . S
C1903 C1898 1.382 . S
C1903 C1902 1.392 . S
H1904 C1923 0.949 . S
H1905 C1924 0.950 . S
H1906 C1926 0.950 . S
H1907 C1927 0.950 . S
H1908 C1929 0.950 . S
H1909 C1932 0.950 . S
H1910 C1933 0.950 . S
H1911 C1935 0.951 . S
H1912 C1936 0.949 . S
H1913 C1938 0.949 . S
H1914 C1939 0.950 . S
H1915 C1941 0.950 . S
H1916 C1942 0.950 . S
H1917 C1944 0.950 . S
H1918 C1947 0.950 . S
H1919 C1948 0.950 . S
H1920 C1950 0.951 . S
H1921 C1951 0.949 . S
C1922 C1923 1.376 . S
C1922 C1927 1.386 . S
C1922 C1928 1.483 . S
C1923 H1904 0.949 . S
C1923 C1922 1.376 . S
C1923 C1924 1.397 . S
C1924 H1905 0.950 . S
C1924 C1923 1.397 . S
C1924 C1925 1.391 . S
C1925 C1924 1.391 . S
C1925 C1926 1.405 . S
C1926 H1906 0.950 . S
C1926 C1925 1.405 . S
C1926 C1927 1.367 . S
C1927 H1907 0.950 . S
C1927 C1922 1.386 . S
C1927 C1926 1.367 . S
C1928 C1922 1.483 . S
C1928 C1929 1.382 . S
C1928 C1930 1.403 . S
C1929 H1908 0.950 . S
C1929 C1928 1.382 . S
C1929 C1945 1.411 . S
C1930 C1928 1.403 . S
C1930 C1931 1.489 . S
C1930 C1944 1.411 . S
C1931 C1930 1.489 . S
C1931 C1932 1.383 . S
C1931 C1936 1.382 . S
C1932 H1909 0.950 . S
C1932 C1931 1.383 . S
C1932 C1933 1.395 . S
C1933 H1910 0.950 . S
C1933 C1932 1.395 . S
C1933 C1934 1.288 . S
C1934 C1933 1.288 . S
C1934 C1935 1.392 . S
C1935 H1911 0.951 . S
C1935 C1934 1.392 . S
C1935 C1936 1.392 . S
C1936 H1912 0.949 . S
C1936 C1931 1.382 . S
C1936 C1935 1.392 . S
C1937 C1938 1.376 . S
C1937 C1942 1.386 . S
C1937 C1943 1.483 . S
C1938 H1913 0.949 . S
C1938 C1937 1.376 . S
C1938 C1939 1.397 . S
C1939 H1914 0.950 . S
C1939 C1938 1.397 . S
C1939 C1940 1.391 . S
C1940 C1939 1.391 . S
C1940 C1941 1.405 . S
C1941 H1915 0.950 . S
C1941 C1940 1.405 . S
C1941 C1942 1.367 . S
C1942 H1916 0.950 . S
C1942 C1937 1.386 . S
C1942 C1941 1.367 . S
C1943 C1937 1.483 . S
C1943 C1944 1.382 . S
C1943 C1945 1.403 . S
C1944 H1917 0.950 . S
C1944 C1930 1.411 . S
C1944 C1943 1.382 . S
C1945 C1929 1.411 . S
C1945 C1943 1.403 . S
C1945 C1946 1.489 . S
C1946 C1945 1.489 . S
C1946 C1947 1.383 . S
C1946 C1951 1.382 . S
C1947 H1918 0.950 . S
C1947 C1946 1.383 . S
C1947 C1948 1.395 . S
C1948 H1919 0.950 . S
C1948 C1947 1.395 . S
C1948 C1949 1.288 . S
C1949 C1948 1.288 . S
C1949 C1950 1.392 . S
C1950 H1920 0.951 . S
C1950 C1949 1.392 . S
C1950 C1951 1.392 . S
C1951 H1921 0.949 . S
C1951 C1946 1.382 . S
C1951 C1950 1.392 . S
H1952 C1971 0.949 . S
H1953 C1972 0.950 . S
H1954 C1974 0.950 . S
H1955 C1975 0.950 . S
H1956 C1977 0.950 . S
H1957 C1980 0.950 . S
H1958 C1981 0.950 . S
H1959 C1983 0.951 . S
H1960 C1984 0.949 . S
H1961 C1986 0.949 . S
H1962 C1987 0.950 . S
H1963 C1989 0.950 . S
H1964 C1990 0.950 . S
H1965 C1992 0.950 . S
H1966 C1995 0.950 . S
H1967 C1996 0.950 . S
H1968 C1998 0.951 . S
H1969 C1999 0.949 . S
C1970 C1971 1.376 . S
C1970 C1975 1.386 . S
C1970 C1976 1.483 . S
C1971 H1952 0.949 . S
C1971 C1970 1.376 . S
C1971 C1972 1.397 . S
C1972 H1953 0.950 . S
C1972 C1971 1.397 . S
C1972 C1973 1.391 . S
C1973 C1972 1.391 . S
C1973 C1974 1.405 . S
C1974 H1954 0.950 . S
C1974 C1973 1.405 . S
C1974 C1975 1.367 . S
C1975 H1955 0.950 . S
C1975 C1970 1.386 . S
C1975 C1974 1.367 . S
C1976 C1970 1.483 . S
C1976 C1977 1.382 . S
C1976 C1978 1.403 . S
C1977 H1956 0.950 . S
C1977 C1976 1.382 . S
C1977 C1993 1.411 . S
C1978 C1976 1.403 . S
C1978 C1979 1.489 . S
C1978 C1992 1.411 . S
C1979 C1978 1.489 . S
C1979 C1980 1.383 . S
C1979 C1984 1.382 . S
C1980 H1957 0.950 . S
C1980 C1979 1.383 . S
C1980 C1981 1.395 . S
C1981 H1958 0.950 . S
C1981 C1980 1.395 . S
C1981 C1982 1.288 . S
C1982 C1981 1.288 . S
C1982 C1983 1.392 . S
C1983 H1959 0.951 . S
C1983 C1982 1.392 . S
C1983 C1984 1.392 . S
C1984 H1960 0.949 . S
C1984 C1979 1.382 . S
C1984 C1983 1.392 . S
C1985 C1986 1.376 . S
C1985 C1990 1.386 . S
C1985 C1991 1.483 . S
C1986 H1961 0.949 . S
C1986 C1985 1.376 . S
C1986 C1987 1.397 . S
C1987 H1962 0.950 . S
C1987 C1986 1.397 . S
C1987 C1988 1.391 . S
C1988 C1987 1.391 . S
C1988 C1989 1.405 . S
C1989 H1963 0.950 . S
C1989 C1988 1.405 . S
C1989 C1990 1.367 . S
C1990 H1964 0.950 . S
C1990 C1985 1.386 . S
C1990 C1989 1.367 . S
C1991 C1985 1.483 . S
C1991 C1992 1.382 . S
C1991 C1993 1.403 . S
C1992 H1965 0.950 . S
C1992 C1978 1.411 . S
C1992 C1991 1.382 . S
C1993 C1977 1.411 . S
C1993 C1991 1.403 . S
C1993 C1994 1.489 . S
C1994 C1993 1.489 . S
C1994 C1995 1.383 . S
C1994 C1999 1.382 . S
C1995 H1966 0.950 . S
C1995 C1994 1.383 . S
C1995 C1996 1.395 . S
C1996 H1967 0.950 . S
C1996 C1995 1.395 . S
C1996 C1997 1.288 . S
C1997 C1996 1.288 . S
C1997 C1998 1.392 . S
C1998 H1968 0.951 . S
C1998 C1997 1.392 . S
C1998 C1999 1.392 . S
C1999 H1969 0.949 . S
C1999 C1994 1.382 . S
C1999 C1998 1.392 . S
H2000 C2019 0.949 . S
H2001 C2020 0.950 . S
H2002 C2022 0.950 . S
H2003 C2023 0.950 . S
H2004 C2025 0.950 . S
H2005 C2028 0.950 . S
H2006 C2029 0.950 . S
H2007 C2031 0.951 . S
H2008 C2032 0.949 . S
H2009 C2034 0.949 . S
H2010 C2035 0.950 . S
H2011 C2037 0.950 . S
H2012 C2038 0.950 . S
H2013 C2040 0.950 . S
H2014 C2043 0.950 . S
H2015 C2044 0.950 . S
H2016 C2046 0.951 . S
H2017 C2047 0.949 . S
C2018 C2019 1.376 . S
C2018 C2023 1.386 . S
C2018 C2024 1.483 . S
C2019 H2000 0.949 . S
C2019 C2018 1.376 . S
C2019 C2020 1.397 . S
C2020 H2001 0.950 . S
C2020 C2019 1.397 . S
C2020 C2021 1.391 . S
C2021 C2020 1.391 . S
C2021 C2022 1.405 . S
C2022 H2002 0.950 . S
C2022 C2021 1.405 . S
C2022 C2023 1.367 . S
C2023 H2003 0.950 . S
C2023 C2018 1.386 . S
C2023 C2022 1.367 . S
C2024 C2018 1.483 . S
C2024 C2025 1.382 . S
C2024 C2026 1.403 . S
C2025 H2004 0.950 . S
C2025 C2024 1.382 . S
C2025 C2041 1.411 . S
C2026 C2024 1.403 . S
C2026 C2027 1.489 . S
C2026 C2040 1.411 . S
C2027 C2026 1.489 . S
C2027 C2028 1.383 . S
C2027 C2032 1.382 . S
C2028 H2005 0.950 . S
C2028 C2027 1.383 . S
C2028 C2029 1.395 . S
C2029 H2006 0.950 . S
C2029 C2028 1.395 . S
C2029 C2030 1.288 . S
C2030 C2029 1.288 . S
C2030 C2031 1.392 . S
C2031 H2007 0.951 . S
C2031 C2030 1.392 . S
C2031 C2032 1.392 . S
C2032 H2008 0.949 . S
C2032 C2027 1.382 . S
C2032 C2031 1.392 . S
C2033 C2034 1.376 . S
C2033 C2038 1.386 . S
C2033 C2039 1.483 . S
C2034 H2009 0.949 . S
C2034 C2033 1.376 . S
C2034 C2035 1.397 . S
C2035 H2010 0.950 . S
C2035 C2034 1.397 . S
C2035 C2036 1.391 . S
C2036 C2035 1.391 . S
C2036 C2037 1.405 . S
C2037 H2011 0.950 . S
C2037 C2036 1.405 . S
C2037 C2038 1.367 . S
C2038 H2012 0.950 . S
C2038 C2033 1.386 . S
C2038 C2037 1.367 . S
C2039 C2033 1.483 . S
C2039 C2040 1.382 . S
C2039 C2041 1.403 . S
C2040 H2013 0.950 . S
C2040 C2026 1.411 . S
C2040 C2039 1.382 . S
C2041 C2025 1.411 . S
C2041 C2039 1.403 . S
C2041 C2042 1.489 . S
C2042 C2041 1.489 . S
C2042 C2043 1.383 . S
C2042 C2047 1.382 . S
C2043 H2014 0.950 . S
C2043 C2042 1.383 . S
C2043 C2044 1.395 . S
C2044 H2015 0.950 . S
C2044 C2043 1.395 . S
C2044 C2045 1.288 . S
C2045 C2044 1.288 . S
C2045 C2046 1.392 . S
C2046 H2016 0.951 . S
C2046 C2045 1.392 . S
C2046 C2047 1.392 . S
C2047 H2017 0.949 . S
C2047 C2042 1.382 . S
C2047 C2046 1.392 . S
H2048 C2067 0.949 . S
H2049 C2068 0.950 . S
H2050 C2070 0.950 . S
H2051 C2071 0.950 . S
H2052 C2073 0.950 . S
H2053 C2076 0.950 . S
H2054 C2077 0.950 . S
H2055 C2079 0.951 . S
H2056 C2080 0.949 . S
H2057 C2082 0.949 . S
H2058 C2083 0.950 . S
H2059 C2085 0.950 . S
H2060 C2086 0.950 . S
H2061 C2088 0.950 . S
H2062 C2091 0.950 . S
H2063 C2092 0.950 . S
H2064 C2094 0.951 . S
H2065 C2095 0.949 . S
C2066 C2067 1.376 . S
C2066 C2071 1.386 . S
C2066 C2072 1.483 . S
C2067 H2048 0.949 . S
C2067 C2066 1.376 . S
C2067 C2068 1.397 . S
C2068 H2049 0.950 . S
C2068 C2067 1.397 . S
C2068 C2069 1.391 . S
C2069 C2068 1.391 . S
C2069 C2070 1.405 . S
C2070 H2050 0.950 . S
C2070 C2069 1.405 . S
C2070 C2071 1.367 . S
C2071 H2051 0.950 . S
C2071 C2066 1.386 . S
C2071 C2070 1.367 . S
C2072 C2066 1.483 . S
C2072 C2073 1.382 . S
C2072 C2074 1.403 . S
C2073 H2052 0.950 . S
C2073 C2072 1.382 . S
C2073 C2089 1.411 . S
C2074 C2072 1.403 . S
C2074 C2075 1.489 . S
C2074 C2088 1.411 . S
C2075 C2074 1.489 . S
C2075 C2076 1.383 . S
C2075 C2080 1.382 . S
C2076 H2053 0.950 . S
C2076 C2075 1.383 . S
C2076 C2077 1.395 . S
C2077 H2054 0.950 . S
C2077 C2076 1.395 . S
C2077 C2078 1.288 . S
C2078 C2077 1.288 . S
C2078 C2079 1.392 . S
C2079 H2055 0.951 . S
C2079 C2078 1.392 . S
C2079 C2080 1.392 . S
C2080 H2056 0.949 . S
C2080 C2075 1.382 . S
C2080 C2079 1.392 . S
C2081 C2082 1.376 . S
C2081 C2086 1.386 . S
C2081 C2087 1.483 . S
C2082 H2057 0.949 . S
C2082 C2081 1.376 . S
C2082 C2083 1.397 . S
C2083 H2058 0.950 . S
C2083 C2082 1.397 . S
C2083 C2084 1.391 . S
C2084 C2083 1.391 . S
C2084 C2085 1.405 . S
C2085 H2059 0.950 . S
C2085 C2084 1.405 . S
C2085 C2086 1.367 . S
C2086 H2060 0.950 . S
C2086 C2081 1.386 . S
C2086 C2085 1.367 . S
C2087 C2081 1.483 . S
C2087 C2088 1.382 . S
C2087 C2089 1.403 . S
C2088 H2061 0.950 . S
C2088 C2074 1.411 . S
C2088 C2087 1.382 . S
C2089 C2073 1.411 . S
C2089 C2087 1.403 . S
C2089 C2090 1.489 . S
C2090 C2089 1.489 . S
C2090 C2091 1.383 . S
C2090 C2095 1.382 . S
C2091 H2062 0.950 . S
C2091 C2090 1.383 . S
C2091 C2092 1.395 . S
C2092 H2063 0.950 . S
C2092 C2091 1.395 . S
C2092 C2093 1.288 . S
C2093 C2092 1.288 . S
C2093 C2094 1.392 . S
C2094 H2064 0.951 . S
C2094 C2093 1.392 . S
C2094 C2095 1.392 . S
C2095 H2065 0.949 . S
C2095 C2090 1.382 . S
C2095 C2094 1.392 . S
H2096 C2115 0.949 . S
H2097 C2116 0.950 . S
H2098 C2118 0.950 . S
H2099 C2119 0.950 . S
H2100 C2121 0.950 . S
H2101 C2124 0.950 . S
H2102 C2125 0.950 . S
H2103 C2127 0.951 . S
H2104 C2128 0.949 . S
H2105 C2130 0.949 . S
H2106 C2131 0.950 . S
H2107 C2133 0.950 . S
H2108 C2134 0.950 . S
H2109 C2136 0.950 . S
H2110 C2139 0.950 . S
H2111 C2140 0.950 . S
H2112 C2142 0.951 . S
H2113 C2143 0.949 . S
C2114 C2115 1.376 . S
C2114 C2119 1.386 . S
C2114 C2120 1.483 . S
C2115 H2096 0.949 . S
C2115 C2114 1.376 . S
C2115 C2116 1.397 . S
C2116 H2097 0.950 . S
C2116 C2115 1.397 . S
C2116 C2117 1.391 . S
C2117 C2116 1.391 . S
C2117 C2118 1.405 . S
C2118 H2098 0.950 . S
C2118 C2117 1.405 . S
C2118 C2119 1.367 . S
C2119 H2099 0.950 . S
C2119 C2114 1.386 . S
C2119 C2118 1.367 . S
C2120 C2114 1.483 . S
C2120 C2121 1.382 . S
C2120 C2122 1.403 . S
C2121 H2100 0.950 . S
C2121 C2120 1.382 . S
C2121 C2137 1.411 . S
C2122 C2120 1.403 . S
C2122 C2123 1.489 . S
C2122 C2136 1.411 . S
C2123 C2122 1.489 . S
C2123 C2124 1.383 . S
C2123 C2128 1.382 . S
C2124 H2101 0.950 . S
C2124 C2123 1.383 . S
C2124 C2125 1.395 . S
C2125 H2102 0.950 . S
C2125 C2124 1.395 . S
C2125 C2126 1.288 . S
C2126 C2125 1.288 . S
C2126 C2127 1.392 . S
C2127 H2103 0.951 . S
C2127 C2126 1.392 . S
C2127 C2128 1.392 . S
C2128 H2104 0.949 . S
C2128 C2123 1.382 . S
C2128 C2127 1.392 . S
C2129 C2130 1.376 . S
C2129 C2134 1.386 . S
C2129 C2135 1.483 . S
C2130 H2105 0.949 . S
C2130 C2129 1.376 . S
C2130 C2131 1.397 . S
C2131 H2106 0.950 . S
C2131 C2130 1.397 . S
C2131 C2132 1.391 . S
C2132 C2131 1.391 . S
C2132 C2133 1.405 . S
C2133 H2107 0.950 . S
C2133 C2132 1.405 . S
C2133 C2134 1.367 . S
C2134 H2108 0.950 . S
C2134 C2129 1.386 . S
C2134 C2133 1.367 . S
C2135 C2129 1.483 . S
C2135 C2136 1.382 . S
C2135 C2137 1.403 . S
C2136 H2109 0.950 . S
C2136 C2122 1.411 . S
C2136 C2135 1.382 . S
C2137 C2121 1.411 . S
C2137 C2135 1.403 . S
C2137 C2138 1.489 . S
C2138 C2137 1.489 . S
C2138 C2139 1.383 . S
C2138 C2143 1.382 . S
C2139 H2110 0.950 . S
C2139 C2138 1.383 . S
C2139 C2140 1.395 . S
C2140 H2111 0.950 . S
C2140 C2139 1.395 . S
C2140 C2141 1.288 . S
C2141 C2140 1.288 . S
C2141 C2142 1.392 . S
C2142 H2112 0.951 . S
C2142 C2141 1.392 . S
C2142 C2143 1.392 . S
C2143 H2113 0.949 . S
C2143 C2138 1.382 . S
C2143 C2142 1.392 . S
H2144 C2163 0.949 . S
H2145 C2164 0.950 . S
H2146 C2166 0.950 . S
H2147 C2167 0.950 . S
H2148 C2169 0.950 . S
H2149 C2172 0.950 . S
H2150 C2173 0.950 . S
H2151 C2175 0.951 . S
H2152 C2176 0.949 . S
H2153 C2178 0.949 . S
H2154 C2179 0.950 . S
H2155 C2181 0.950 . S
H2156 C2182 0.950 . S
H2157 C2184 0.950 . S
H2158 C2187 0.950 . S
H2159 C2188 0.950 . S
H2160 C2190 0.951 . S
H2161 C2191 0.949 . S
C2162 C2163 1.376 . S
C2162 C2167 1.386 . S
C2162 C2168 1.483 . S
C2163 H2144 0.949 . S
C2163 C2162 1.376 . S
C2163 C2164 1.397 . S
C2164 H2145 0.950 . S
C2164 C2163 1.397 . S
C2164 C2165 1.391 . S
C2165 C2164 1.391 . S
C2165 C2166 1.405 . S
C2166 H2146 0.950 . S
C2166 C2165 1.405 . S
C2166 C2167 1.367 . S
C2167 H2147 0.950 . S
C2167 C2162 1.386 . S
C2167 C2166 1.367 . S
C2168 C2162 1.483 . S
C2168 C2169 1.382 . S
C2168 C2170 1.403 . S
C2169 H2148 0.950 . S
C2169 C2168 1.382 . S
C2169 C2185 1.411 . S
C2170 C2168 1.403 . S
C2170 C2171 1.489 . S
C2170 C2184 1.411 . S
C2171 C2170 1.489 . S
C2171 C2172 1.383 . S
C2171 C2176 1.382 . S
C2172 H2149 0.950 . S
C2172 C2171 1.383 . S
C2172 C2173 1.395 . S
C2173 H2150 0.950 . S
C2173 C2172 1.395 . S
C2173 C2174 1.288 . S
C2174 C2173 1.288 . S
C2174 C2175 1.392 . S
C2175 H2151 0.951 . S
C2175 C2174 1.392 . S
C2175 C2176 1.392 . S
C2176 H2152 0.949 . S
C2176 C2171 1.382 . S
C2176 C2175 1.392 . S
C2177 C2178 1.376 . S
C2177 C2182 1.386 . S
C2177 C2183 1.483 . S
C2178 H2153 0.949 . S
C2178 C2177 1.376 . S
C2178 C2179 1.397 . S
C2179 H2154 0.950 . S
C2179 C2178 1.397 . S
C2179 C2180 1.391 . S
C2180 C2179 1.391 . S
C2180 C2181 1.405 . S
C2181 H2155 0.950 . S
C2181 C2180 1.405 . S
C2181 C2182 1.367 . S
C2182 H2156 0.950 . S
C2182 C2177 1.386 . S
C2182 C2181 1.367 . S
C2183 C2177 1.483 . S
C2183 C2184 1.382 . S
C2183 C2185 1.403 . S
C2184 H2157 0.950 . S
C2184 C2170 1.411 . S
C2184 C2183 1.382 . S
C2185 C2169 1.411 . S
C2185 C2183 1.403 . S
C2185 C2186 1.489 . S
C2186 C2185 1.489 . S
C2186 C2187 1.383 . S
C2186 C2191 1.382 . S
C2187 H2158 0.950 . S
C2187 C2186 1.383 . S
C2187 C2188 1.395 . S
C2188 H2159 0.950 . S
C2188 C2187 1.395 . S
C2188 C2189 1.288 . S
C2189 C2188 1.288 . S
C2189 C2190 1.392 . S
C2190 H2160 0.951 . S
C2190 C2189 1.392 . S
C2190 C2191 1.392 . S
C2191 H2161 0.949 . S
C2191 C2186 1.382 . S
C2191 C2190 1.392 . S
H2192 C2211 0.949 . S
H2193 C2212 0.950 . S
H2194 C2214 0.950 . S
H2195 C2215 0.950 . S
H2196 C2217 0.950 . S
H2197 C2220 0.950 . S
H2198 C2221 0.950 . S
H2199 C2223 0.951 . S
H2200 C2224 0.949 . S
H2201 C2226 0.949 . S
H2202 C2227 0.950 . S
H2203 C2229 0.950 . S
H2204 C2230 0.950 . S
H2205 C2232 0.950 . S
H2206 C2235 0.950 . S
H2207 C2236 0.950 . S
H2208 C2238 0.951 . S
H2209 C2239 0.949 . S
C2210 C2211 1.376 . S
C2210 C2215 1.386 . S
C2210 C2216 1.483 . S
C2211 H2192 0.949 . S
C2211 C2210 1.376 . S
C2211 C2212 1.397 . S
C2212 H2193 0.950 . S
C2212 C2211 1.397 . S
C2212 C2213 1.391 . S
C2213 C2212 1.391 . S
C2213 C2214 1.405 . S
C2214 H2194 0.950 . S
C2214 C2213 1.405 . S
C2214 C2215 1.367 . S
C2215 H2195 0.950 . S
C2215 C2210 1.386 . S
C2215 C2214 1.367 . S
C2216 C2210 1.483 . S
C2216 C2217 1.382 . S
C2216 C2218 1.403 . S
C2217 H2196 0.950 . S
C2217 C2216 1.382 . S
C2217 C2233 1.411 . S
C2218 C2216 1.403 . S
C2218 C2219 1.489 . S
C2218 C2232 1.411 . S
C2219 C2218 1.489 . S
C2219 C2220 1.383 . S
C2219 C2224 1.382 . S
C2220 H2197 0.950 . S
C2220 C2219 1.383 . S
C2220 C2221 1.395 . S
C2221 H2198 0.950 . S
C2221 C2220 1.395 . S
C2221 C2222 1.288 . S
C2222 C2221 1.288 . S
C2222 C2223 1.392 . S
C2223 H2199 0.951 . S
C2223 C2222 1.392 . S
C2223 C2224 1.392 . S
C2224 H2200 0.949 . S
C2224 C2219 1.382 . S
C2224 C2223 1.392 . S
C2225 C2226 1.376 . S
C2225 C2230 1.386 . S
C2225 C2231 1.483 . S
C2226 H2201 0.949 . S
C2226 C2225 1.376 . S
C2226 C2227 1.397 . S
C2227 H2202 0.950 . S
C2227 C2226 1.397 . S
C2227 C2228 1.391 . S
C2228 C2227 1.391 . S
C2228 C2229 1.405 . S
C2229 H2203 0.950 . S
C2229 C2228 1.405 . S
C2229 C2230 1.367 . S
C2230 H2204 0.950 . S
C2230 C2225 1.386 . S
C2230 C2229 1.367 . S
C2231 C2225 1.483 . S
C2231 C2232 1.382 . S
C2231 C2233 1.403 . S
C2232 H2205 0.950 . S
C2232 C2218 1.411 . S
C2232 C2231 1.382 . S
C2233 C2217 1.411 . S
C2233 C2231 1.403 . S
C2233 C2234 1.489 . S
C2234 C2233 1.489 . S
C2234 C2235 1.383 . S
C2234 C2239 1.382 . S
C2235 H2206 0.950 . S
C2235 C2234 1.383 . S
C2235 C2236 1.395 . S
C2236 H2207 0.950 . S
C2236 C2235 1.395 . S
C2236 C2237 1.288 . S
C2237 C2236 1.288 . S
C2237 C2238 1.392 . S
C2238 H2208 0.951 . S
C2238 C2237 1.392 . S
C2238 C2239 1.392 . S
C2239 H2209 0.949 . S
C2239 C2234 1.382 . S
C2239 C2238 1.392 . S
H2240 C2259 0.949 . S
H2241 C2260 0.950 . S
H2242 C2262 0.950 . S
H2243 C2263 0.950 . S
H2244 C2265 0.950 . S
H2245 C2268 0.950 . S
H2246 C2269 0.950 . S
H2247 C2271 0.951 . S
H2248 C2272 0.949 . S
H2249 C2274 0.949 . S
H2250 C2275 0.950 . S
H2251 C2277 0.950 . S
H2252 C2278 0.950 . S
H2253 C2280 0.950 . S
H2254 C2283 0.950 . S
H2255 C2284 0.950 . S
H2256 C2286 0.951 . S
H2257 C2287 0.949 . S
C2258 C2259 1.376 . S
C2258 C2263 1.386 . S
C2258 C2264 1.483 . S
C2259 H2240 0.949 . S
C2259 C2258 1.376 . S
C2259 C2260 1.397 . S
C2260 H2241 0.950 . S
C2260 C2259 1.397 . S
C2260 C2261 1.391 . S
C2261 C2260 1.391 . S
C2261 C2262 1.405 . S
C2262 H2242 0.950 . S
C2262 C2261 1.405 . S
C2262 C2263 1.367 . S
C2263 H2243 0.950 . S
C2263 C2258 1.386 . S
C2263 C2262 1.367 . S
C2264 C2258 1.483 . S
C2264 C2265 1.382 . S
C2264 C2266 1.403 . S
C2265 H2244 0.950 . S
C2265 C2264 1.382 . S
C2265 C2281 1.411 . S
C2266 C2264 1.403 . S
C2266 C2267 1.489 . S
C2266 C2280 1.411 . S
C2267 C2266 1.489 . S
C2267 C2268 1.383 . S
C2267 C2272 1.382 . S
C2268 H2245 0.950 . S
C2268 C2267 1.383 . S
C2268 C2269 1.395 . S
C2269 H2246 0.950 . S
C2269 C2268 1.395 . S
C2269 C2270 1.288 . S
C2270 C2269 1.288 . S
C2270 C2271 1.392 . S
C2271 H2247 0.951 . S
C2271 C2270 1.392 . S
C2271 C2272 1.392 . S
C2272 H2248 0.949 . S
C2272 C2267 1.382 . S
C2272 C2271 1.392 . S
C2273 C2274 1.376 . S
C2273 C2278 1.386 . S
C2273 C2279 1.483 . S
C2274 H2249 0.949 . S
C2274 C2273 1.376 . S
C2274 C2275 1.397 . S
C2275 H2250 0.950 . S
C2275 C2274 1.397 . S
C2275 C2276 1.391 . S
C2276 C2275 1.391 . S
C2276 C2277 1.405 . S
C2277 H2251 0.950 . S
C2277 C2276 1.405 . S
C2277 C2278 1.367 . S
C2278 H2252 0.950 . S
C2278 C2273 1.386 . S
C2278 C2277 1.367 . S
C2279 C2273 1.483 . S
C2279 C2280 1.382 . S
C2279 C2281 1.403 . S
C2280 H2253 0.950 . S
C2280 C2266 1.411 . S
C2280 C2279 1.382 . S
C2281 C2265 1.411 . S
C2281 C2279 1.403 . S
C2281 C2282 1.489 . S
C2282 C2281 1.489 . S
C2282 C2283 1.383 . S
C2282 C2287 1.382 . S
C2283 H2254 0.950 . S
C2283 C2282 1.383 . S
C2283 C2284 1.395 . S
C2284 H2255 0.950 . S
C2284 C2283 1.395 . S
C2284 C2285 1.288 . S
C2285 C2284 1.288 . S
C2285 C2286 1.392 . S
C2286 H2256 0.951 . S
C2286 C2285 1.392 . S
C2286 C2287 1.392 . S
C2287 H2257 0.949 . S
C2287 C2282 1.382 . S
C2287 C2286 1.392 . S
H2288 C2307 0.949 . S
H2289 C2308 0.950 . S
H2290 C2310 0.950 . S
H2291 C2311 0.950 . S
H2292 C2313 0.950 . S
H2293 C2316 0.950 . S
H2294 C2317 0.950 . S
H2295 C2319 0.951 . S
H2296 C2320 0.949 . S
H2297 C2322 0.949 . S
H2298 C2323 0.950 . S
H2299 C2325 0.950 . S
H2300 C2326 0.950 . S
H2301 C2328 0.950 . S
H2302 C2331 0.950 . S
H2303 C2332 0.950 . S
H2304 C2334 0.951 . S
H2305 C2335 0.949 . S
C2306 C2307 1.376 . S
C2306 C2311 1.386 . S
C2306 C2312 1.483 . S
C2307 H2288 0.949 . S
C2307 C2306 1.376 . S
C2307 C2308 1.397 . S
C2308 H2289 0.950 . S
C2308 C2307 1.397 . S
C2308 C2309 1.391 . S
C2309 C2308 1.391 . S
C2309 C2310 1.405 . S
C2310 H2290 0.950 . S
C2310 C2309 1.405 . S
C2310 C2311 1.367 . S
C2311 H2291 0.950 . S
C2311 C2306 1.386 . S
C2311 C2310 1.367 . S
C2312 C2306 1.483 . S
C2312 C2313 1.382 . S
C2312 C2314 1.403 . S
C2313 H2292 0.950 . S
C2313 C2312 1.382 . S
C2313 C2329 1.411 . S
C2314 C2312 1.403 . S
C2314 C2315 1.489 . S
C2314 C2328 1.411 . S
C2315 C2314 1.489 . S
C2315 C2316 1.383 . S
C2315 C2320 1.382 . S
C2316 H2293 0.950 . S
C2316 C2315 1.383 . S
C2316 C2317 1.395 . S
C2317 H2294 0.950 . S
C2317 C2316 1.395 . S
C2317 C2318 1.288 . S
C2318 C2317 1.288 . S
C2318 C2319 1.392 . S
C2319 H2295 0.951 . S
C2319 C2318 1.392 . S
C2319 C2320 1.392 . S
C2320 H2296 0.949 . S
C2320 C2315 1.382 . S
C2320 C2319 1.392 . S
C2321 C2322 1.376 . S
C2321 C2326 1.386 . S
C2321 C2327 1.483 . S
C2322 H2297 0.949 . S
C2322 C2321 1.376 . S
C2322 C2323 1.397 . S
C2323 H2298 0.950 . S
C2323 C2322 1.397 . S
C2323 C2324 1.391 . S
C2324 C2323 1.391 . S
C2324 C2325 1.405 . S
C2325 H2299 0.950 . S
C2325 C2324 1.405 . S
C2325 C2326 1.367 . S
C2326 H2300 0.950 . S
C2326 C2321 1.386 . S
C2326 C2325 1.367 . S
C2327 C2321 1.483 . S
C2327 C2328 1.382 . S
C2327 C2329 1.403 . S
C2328 H2301 0.950 . S
C2328 C2314 1.411 . S
C2328 C2327 1.382 . S
C2329 C2313 1.411 . S
C2329 C2327 1.403 . S
C2329 C2330 1.489 . S
C2330 C2329 1.489 . S
C2330 C2331 1.383 . S
C2330 C2335 1.382 . S
C2331 H2302 0.950 . S
C2331 C2330 1.383 . S
C2331 C2332 1.395 . S
C2332 H2303 0.950 . S
C2332 C2331 1.395 . S
C2332 C2333 1.288 . S
C2333 C2332 1.288 . S
C2333 C2334 1.392 . S
C2334 H2304 0.951 . S
C2334 C2333 1.392 . S
C2334 C2335 1.392 . S
C2335 H2305 0.949 . S
C2335 C2330 1.382 . S
C2335 C2334 1.392 . S
H2336 C2355 0.949 . S
H2337 C2356 0.950 . S
H2338 C2358 0.950 . S
H2339 C2359 0.950 . S
H2340 C2361 0.950 . S
H2341 C2364 0.950 . S
H2342 C2365 0.950 . S
H2343 C2367 0.951 . S
H2344 C2368 0.949 . S
H2345 C2370 0.949 . S
H2346 C2371 0.950 . S
H2347 C2373 0.950 . S
H2348 C2374 0.950 . S
H2349 C2376 0.950 . S
H2350 C2379 0.950 . S
H2351 C2380 0.950 . S
H2352 C2382 0.951 . S
H2353 C2383 0.949 . S
C2354 C2355 1.376 . S
C2354 C2359 1.386 . S
C2354 C2360 1.483 . S
C2355 H2336 0.949 . S
C2355 C2354 1.376 . S
C2355 C2356 1.397 . S
C2356 H2337 0.950 . S
C2356 C2355 1.397 . S
C2356 C2357 1.391 . S
C2357 C2356 1.391 . S
C2357 C2358 1.405 . S
C2358 H2338 0.950 . S
C2358 C2357 1.405 . S
C2358 C2359 1.367 . S
C2359 H2339 0.950 . S
C2359 C2354 1.386 . S
C2359 C2358 1.367 . S
C2360 C2354 1.483 . S
C2360 C2361 1.382 . S
C2360 C2362 1.403 . S
C2361 H2340 0.950 . S
C2361 C2360 1.382 . S
C2361 C2377 1.411 . S
C2362 C2360 1.403 . S
C2362 C2363 1.489 . S
C2362 C2376 1.411 . S
C2363 C2362 1.489 . S
C2363 C2364 1.383 . S
C2363 C2368 1.382 . S
C2364 H2341 0.950 . S
C2364 C2363 1.383 . S
C2364 C2365 1.395 . S
C2365 H2342 0.950 . S
C2365 C2364 1.395 . S
C2365 C2366 1.288 . S
C2366 C2365 1.288 . S
C2366 C2367 1.392 . S
C2367 H2343 0.951 . S
C2367 C2366 1.392 . S
C2367 C2368 1.392 . S
C2368 H2344 0.949 . S
C2368 C2363 1.382 . S
C2368 C2367 1.392 . S
C2369 C2370 1.376 . S
C2369 C2374 1.386 . S
C2369 C2375 1.483 . S
C2370 H2345 0.949 . S
C2370 C2369 1.376 . S
C2370 C2371 1.397 . S
C2371 H2346 0.950 . S
C2371 C2370 1.397 . S
C2371 C2372 1.391 . S
C2372 C2371 1.391 . S
C2372 C2373 1.405 . S
C2373 H2347 0.950 . S
C2373 C2372 1.405 . S
C2373 C2374 1.367 . S
C2374 H2348 0.950 . S
C2374 C2369 1.386 . S
C2374 C2373 1.367 . S
C2375 C2369 1.483 . S
C2375 C2376 1.382 . S
C2375 C2377 1.403 . S
C2376 H2349 0.950 . S
C2376 C2362 1.411 . S
C2376 C2375 1.382 . S
C2377 C2361 1.411 . S
C2377 C2375 1.403 . S
C2377 C2378 1.489 . S
C2378 C2377 1.489 . S
C2378 C2379 1.383 . S
C2378 C2383 1.382 . S
C2379 H2350 0.950 . S
C2379 C2378 1.383 . S
C2379 C2380 1.395 . S
C2380 H2351 0.950 . S
C2380 C2379 1.395 . S
C2380 C2381 1.288 . S
C2381 C2380 1.288 . S
C2381 C2382 1.392 . S
C2382 H2352 0.951 . S
C2382 C2381 1.392 . S
C2382 C2383 1.392 . S
C2383 H2353 0.949 . S
C2383 C2378 1.382 . S
C2383 C2382 1.392 . S
H2384 C2403 0.949 . S
H2385 C2404 0.950 . S
H2386 C2406 0.950 . S
H2387 C2407 0.950 . S
H2388 C2409 0.950 . S
H2389 C2412 0.950 . S
H2390 C2413 0.950 . S
H2391 C2415 0.951 . S
H2392 C2416 0.949 . S
H2393 C2418 0.949 . S
H2394 C2419 0.950 . S
H2395 C2421 0.950 . S
H2396 C2422 0.950 . S
H2397 C2424 0.950 . S
H2398 C2427 0.950 . S
H2399 C2428 0.950 . S
H2400 C2430 0.951 . S
H2401 C2431 0.949 . S
C2402 C2403 1.376 . S
C2402 C2407 1.386 . S
C2402 C2408 1.483 . S
C2403 H2384 0.949 . S
C2403 C2402 1.376 . S
C2403 C2404 1.397 . S
C2404 H2385 0.950 . S
C2404 C2403 1.397 . S
C2404 C2405 1.391 . S
C2405 C2404 1.391 . S
C2405 C2406 1.405 . S
C2406 H2386 0.950 . S
C2406 C2405 1.405 . S
C2406 C2407 1.367 . S
C2407 H2387 0.950 . S
C2407 C2402 1.386 . S
C2407 C2406 1.367 . S
C2408 C2402 1.483 . S
C2408 C2409 1.382 . S
C2408 C2410 1.403 . S
C2409 H2388 0.950 . S
C2409 C2408 1.382 . S
C2409 C2425 1.411 . S
C2410 C2408 1.403 . S
C2410 C2411 1.489 . S
C2410 C2424 1.411 . S
C2411 C2410 1.489 . S
C2411 C2412 1.383 . S
C2411 C2416 1.382 . S
C2412 H2389 0.950 . S
C2412 C2411 1.383 . S
C2412 C2413 1.395 . S
C2413 H2390 0.950 . S
C2413 C2412 1.395 . S
C2413 C2414 1.288 . S
C2414 C2413 1.288 . S
C2414 C2415 1.392 . S
C2415 H2391 0.951 . S
C2415 C2414 1.392 . S
C2415 C2416 1.392 . S
C2416 H2392 0.949 . S
C2416 C2411 1.382 . S
C2416 C2415 1.392 . S
C2417 C2418 1.376 . S
C2417 C2422 1.386 . S
C2417 C2423 1.483 . S
C2418 H2393 0.949 . S
C2418 C2417 1.376 . S
C2418 C2419 1.397 . S
C2419 H2394 0.950 . S
C2419 C2418 1.397 . S
C2419 C2420 1.391 . S
C2420 C2419 1.391 . S
C2420 C2421 1.405 . S
C2421 H2395 0.950 . S
C2421 C2420 1.405 . S
C2421 C2422 1.367 . S
C2422 H2396 0.950 . S
C2422 C2417 1.386 . S
C2422 C2421 1.367 . S
C2423 C2417 1.483 . S
C2423 C2424 1.382 . S
C2423 C2425 1.403 . S
C2424 H2397 0.950 . S
C2424 C2410 1.411 . S
C2424 C2423 1.382 . S
C2425 C2409 1.411 . S
C2425 C2423 1.403 . S
C2425 C2426 1.489 . S
C2426 C2425 1.489 . S
C2426 C2427 1.383 . S
C2426 C2431 1.382 . S
C2427 H2398 0.950 . S
C2427 C2426 1.383 . S
C2427 C2428 1.395 . S
C2428 H2399 0.950 . S
C2428 C2427 1.395 . S
C2428 C2429 1.288 . S
C2429 C2428 1.288 . S
C2429 C2430 1.392 . S
C2430 H2400 0.951 . S
C2430 C2429 1.392 . S
C2430 C2431 1.392 . S
C2431 H2401 0.949 . S
C2431 C2426 1.382 . S
C2431 C2430 1.392 . S
H2432 C2440 0.929 . S
H2433 C2442 0.930 . S
H2434 C2444 0.930 . S
H2435 C2447 0.929 . S
H2436 C2450 0.930 . S
H2437 C2452 0.960 . S
H2438 C2452 0.960 . S
H2439 C2452 0.960 . S
C2440 H2432 0.929 . S
C2440 C2441 1.377 . S
C2440 C2442 1.384 . S
C2441 C2440 1.377 . S
C2441 C2447 1.390 . S
C2442 H2433 0.930 . S
C2442 C2440 1.384 . S
C2442 C2443 1.372 . S
C2443 C2442 1.372 . S
C2443 C2444 1.400 . S
C2443 C2448 1.490 . S
C2444 H2434 0.930 . S
C2444 C2443 1.400 . S
C2444 C2447 1.386 . S
H2445 C2461 0.930 . S
H2446 C2462 0.931 . S
C2447 H2435 0.929 . S
C2447 C2441 1.390 . S
C2447 C2444 1.386 . S
C2448 C2443 1.490 . S
C2448 C2450 1.395 . S
C2448 C2451 1.403 . S
H2449 C2455 0.930 . S
C2450 H2436 0.930 . S
C2450 C2448 1.395 . S
C2450 C2453 1.403 . S
C2451 C2448 1.403 . S
C2451 C2452 1.524 . S
C2451 C2455 1.400 . S
C2452 H2437 0.960 . S
C2452 H2438 0.960 . S
C2452 H2439 0.960 . S
C2452 C2451 1.524 . S
C2453 C2450 1.403 . S
C2453 C2454 1.392 . S
C2453 C2457 1.495 . S
C2454 C2453 1.392 . S
C2454 C2455 1.385 . S
C2454 C2456 1.478 . S
C2455 H2449 0.930 . S
C2455 C2451 1.400 . S
C2455 C2454 1.385 . S
C2456 C2454 1.478 . S
C2456 C2458 1.381 . S
C2456 C2462 1.383 . S
C2457 C2453 1.495 . S
C2457 H2463 0.959 . S
C2457 H2464 0.961 . S
C2457 H2465 0.960 . S
C2458 C2456 1.381 . S
C2458 C2459 1.394 . S
C2458 H2466 0.930 . S
C2459 C2458 1.394 . S
C2459 C2460 1.383 . S
C2459 H2467 0.929 . S
C2460 C2459 1.383 . S
C2460 C2461 1.377 . S
C2461 H2445 0.930 . S
C2461 C2460 1.377 . S
C2461 C2462 1.379 . S
C2462 H2446 0.931 . S
C2462 C2456 1.383 . S
C2462 C2461 1.379 . S
H2463 C2457 0.959 . S
H2464 C2457 0.961 . S
H2465 C2457 0.960 . S
H2466 C2458 0.930 . S
H2467 C2459 0.929 . S
H2468 C2476 0.929 . S
H2469 C2478 0.930 . S
H2470 C2480 0.930 . S
H2471 C2483 0.929 . S
H2472 C2486 0.930 . S
H2473 C2488 0.960 . S
H2474 C2488 0.960 . S
H2475 C2488 0.960 . S
C2476 H2468 0.929 . S
C2476 C2477 1.377 . S
C2476 C2478 1.384 . S
C2477 C2476 1.377 . S
C2477 C2483 1.390 . S
C2478 H2469 0.930 . S
C2478 C2476 1.384 . S
C2478 C2479 1.372 . S
C2479 C2478 1.372 . S
C2479 C2480 1.400 . S
C2479 C2484 1.490 . S
C2480 H2470 0.930 . S
C2480 C2479 1.400 . S
C2480 C2483 1.386 . S
H2481 C2497 0.930 . S
H2482 C2498 0.931 . S
C2483 H2471 0.929 . S
C2483 C2477 1.390 . S
C2483 C2480 1.386 . S
C2484 C2479 1.490 . S
C2484 C2486 1.395 . S
C2484 C2487 1.403 . S
H2485 C2491 0.930 . S
C2486 H2472 0.930 . S
C2486 C2484 1.395 . S
C2486 C2489 1.403 . S
C2487 C2484 1.403 . S
C2487 C2488 1.524 . S
C2487 C2491 1.400 . S
C2488 H2473 0.960 . S
C2488 H2474 0.960 . S
C2488 H2475 0.960 . S
C2488 C2487 1.524 . S
C2489 C2486 1.403 . S
C2489 C2490 1.392 . S
C2489 C2493 1.495 . S
C2490 C2489 1.392 . S
C2490 C2491 1.385 . S
C2490 C2492 1.478 . S
C2491 H2485 0.930 . S
C2491 C2487 1.400 . S
C2491 C2490 1.385 . S
C2492 C2490 1.478 . S
C2492 C2494 1.381 . S
C2492 C2498 1.383 . S
C2493 C2489 1.495 . S
C2493 H2499 0.959 . S
C2493 H2500 0.961 . S
C2493 H2501 0.960 . S
C2494 C2492 1.381 . S
C2494 C2495 1.394 . S
C2494 H2502 0.930 . S
C2495 C2494 1.394 . S
C2495 C2496 1.383 . S
C2495 H2503 0.929 . S
C2496 C2495 1.383 . S
C2496 C2497 1.377 . S
C2497 H2481 0.930 . S
C2497 C2496 1.377 . S
C2497 C2498 1.379 . S
C2498 H2482 0.931 . S
C2498 C2492 1.383 . S
C2498 C2497 1.379 . S
H2499 C2493 0.959 . S
H2500 C2493 0.961 . S
H2501 C2493 0.960 . S
H2502 C2494 0.930 . S
H2503 C2495 0.929 . S
H2504 C2512 0.929 . S
H2505 C2514 0.930 . S
H2506 C2516 0.930 . S
H2507 C2519 0.929 . S
H2508 C2522 0.930 . S
H2509 C2524 0.960 . S
H2510 C2524 0.960 . S
H2511 C2524 0.960 . S
C2512 H2504 0.929 . S
C2512 C2513 1.377 . S
C2512 C2514 1.384 . S
C2513 C2512 1.377 . S
C2513 C2519 1.390 . S
C2514 H2505 0.930 . S
C2514 C2512 1.384 . S
C2514 C2515 1.372 . S
C2515 C2514 1.372 . S
C2515 C2516 1.400 . S
C2515 C2520 1.490 . S
C2516 H2506 0.930 . S
C2516 C2515 1.400 . S
C2516 C2519 1.386 . S
H2517 C2533 0.930 . S
H2518 C2534 0.931 . S
C2519 H2507 0.929 . S
C2519 C2513 1.390 . S
C2519 C2516 1.386 . S
C2520 C2515 1.490 . S
C2520 C2522 1.395 . S
C2520 C2523 1.403 . S
H2521 C2527 0.930 . S
C2522 H2508 0.930 . S
C2522 C2520 1.395 . S
C2522 C2525 1.403 . S
C2523 C2520 1.403 . S
C2523 C2524 1.524 . S
C2523 C2527 1.400 . S
C2524 H2509 0.960 . S
C2524 H2510 0.960 . S
C2524 H2511 0.960 . S
C2524 C2523 1.524 . S
C2525 C2522 1.403 . S
C2525 C2526 1.392 . S
C2525 C2529 1.495 . S
C2526 C2525 1.392 . S
C2526 C2527 1.385 . S
C2526 C2528 1.478 . S
C2527 H2521 0.930 . S
C2527 C2523 1.400 . S
C2527 C2526 1.385 . S
C2528 C2526 1.478 . S
C2528 C2530 1.381 . S
C2528 C2534 1.383 . S
C2529 C2525 1.495 . S
C2529 H2535 0.959 . S
C2529 H2536 0.961 . S
C2529 H2537 0.960 . S
C2530 C2528 1.381 . S
C2530 C2531 1.394 . S
C2530 H2538 0.930 . S
C2531 C2530 1.394 . S
C2531 C2532 1.383 . S
C2531 H2539 0.929 . S
C2532 C2531 1.383 . S
C2532 C2533 1.377 . S
C2533 H2517 0.930 . S
C2533 C2532 1.377 . S
C2533 C2534 1.379 . S
C2534 H2518 0.931 . S
C2534 C2528 1.383 . S
C2534 C2533 1.379 . S
H2535 C2529 0.959 . S
H2536 C2529 0.961 . S
H2537 C2529 0.960 . S
H2538 C2530 0.930 . S
H2539 C2531 0.929 . S
H2540 C2548 0.929 . S
H2541 C2550 0.930 . S
H2542 C2552 0.930 . S
H2543 C2555 0.929 . S
H2544 C2558 0.930 . S
H2545 C2560 0.960 . S
H2546 C2560 0.960 . S
H2547 C2560 0.960 . S
C2548 H2540 0.929 . S
C2548 C2549 1.377 . S
C2548 C2550 1.384 . S
C2549 C2548 1.377 . S
C2549 C2555 1.390 . S
C2550 H2541 0.930 . S
C2550 C2548 1.384 . S
C2550 C2551 1.372 . S
C2551 C2550 1.372 . S
C2551 C2552 1.400 . S
C2551 C2556 1.490 . S
C2552 H2542 0.930 . S
C2552 C2551 1.400 . S
C2552 C2555 1.386 . S
H2553 C2569 0.930 . S
H2554 C2570 0.931 . S
C2555 H2543 0.929 . S
C2555 C2549 1.390 . S
C2555 C2552 1.386 . S
C2556 C2551 1.490 . S
C2556 C2558 1.395 . S
C2556 C2559 1.403 . S
H2557 C2563 0.930 . S
C2558 H2544 0.930 . S
C2558 C2556 1.395 . S
C2558 C2561 1.403 . S
C2559 C2556 1.403 . S
C2559 C2560 1.524 . S
C2559 C2563 1.400 . S
C2560 H2545 0.960 . S
C2560 H2546 0.960 . S
C2560 H2547 0.960 . S
C2560 C2559 1.524 . S
C2561 C2558 1.403 . S
C2561 C2562 1.392 . S
C2561 C2565 1.495 . S
C2562 C2561 1.392 . S
C2562 C2563 1.385 . S
C2562 C2564 1.478 . S
C2563 H2557 0.930 . S
C2563 C2559 1.400 . S
C2563 C2562 1.385 . S
C2564 C2562 1.478 . S
C2564 C2566 1.381 . S
C2564 C2570 1.383 . S
C2565 C2561 1.495 . S
C2565 H2571 0.959 . S
C2565 H2572 0.961 . S
C2565 H2573 0.960 . S
C2566 C2564 1.381 . S
C2566 C2567 1.394 . S
C2566 H2574 0.930 . S
C2567 C2566 1.394 . S
C2567 C2568 1.383 . S
C2567 H2575 0.929 . S
C2568 C2567 1.383 . S
C2568 C2569 1.377 . S
C2569 H2553 0.930 . S
C2569 C2568 1.377 . S
C2569 C2570 1.379 . S
C2570 H2554 0.931 . S
C2570 C2564 1.383 . S
C2570 C2569 1.379 . S
H2571 C2565 0.959 . S
H2572 C2565 0.961 . S
H2573 C2565 0.960 . S
H2574 C2566 0.930 . S
H2575 C2567 0.929 . S
H2576 C2584 0.929 . S
H2577 C2586 0.930 . S
H2578 C2588 0.930 . S
H2579 C2591 0.929 . S
H2580 C2594 0.930 . S
H2581 C2596 0.960 . S
H2582 C2596 0.960 . S
H2583 C2596 0.960 . S
C2584 H2576 0.929 . S
C2584 C2585 1.377 . S
C2584 C2586 1.384 . S
C2585 C2584 1.377 . S
C2585 C2591 1.390 . S
C2586 H2577 0.930 . S
C2586 C2584 1.384 . S
C2586 C2587 1.372 . S
C2587 C2586 1.372 . S
C2587 C2588 1.400 . S
C2587 C2592 1.490 . S
C2588 H2578 0.930 . S
C2588 C2587 1.400 . S
C2588 C2591 1.386 . S
H2589 C2605 0.930 . S
H2590 C2606 0.931 . S
C2591 H2579 0.929 . S
C2591 C2585 1.390 . S
C2591 C2588 1.386 . S
C2592 C2587 1.490 . S
C2592 C2594 1.395 . S
C2592 C2595 1.403 . S
H2593 C2599 0.930 . S
C2594 H2580 0.930 . S
C2594 C2592 1.395 . S
C2594 C2597 1.403 . S
C2595 C2592 1.403 . S
C2595 C2596 1.524 . S
C2595 C2599 1.400 . S
C2596 H2581 0.960 . S
C2596 H2582 0.960 . S
C2596 H2583 0.960 . S
C2596 C2595 1.524 . S
C2597 C2594 1.403 . S
C2597 C2598 1.392 . S
C2597 C2601 1.495 . S
C2598 C2597 1.392 . S
C2598 C2599 1.385 . S
C2598 C2600 1.478 . S
C2599 H2593 0.930 . S
C2599 C2595 1.400 . S
C2599 C2598 1.385 . S
C2600 C2598 1.478 . S
C2600 C2602 1.381 . S
C2600 C2606 1.383 . S
C2601 C2597 1.495 . S
C2601 H2607 0.959 . S
C2601 H2608 0.961 . S
C2601 H2609 0.960 . S
C2602 C2600 1.381 . S
C2602 C2603 1.394 . S
C2602 H2610 0.930 . S
C2603 C2602 1.394 . S
C2603 C2604 1.383 . S
C2603 H2611 0.929 . S
C2604 C2603 1.383 . S
C2604 C2605 1.377 . S
C2605 H2589 0.930 . S
C2605 C2604 1.377 . S
C2605 C2606 1.379 . S
C2606 H2590 0.931 . S
C2606 C2600 1.383 . S
C2606 C2605 1.379 . S
H2607 C2601 0.959 . S
H2608 C2601 0.961 . S
H2609 C2601 0.960 . S
H2610 C2602 0.930 . S
H2611 C2603 0.929 . S
H2612 C2620 0.929 . S
H2613 C2622 0.930 . S
H2614 C2624 0.930 . S
H2615 C2627 0.929 . S
H2616 C2630 0.930 . S
H2617 C2632 0.960 . S
H2618 C2632 0.960 . S
H2619 C2632 0.960 . S
C2620 H2612 0.929 . S
C2620 C2621 1.377 . S
C2620 C2622 1.384 . S
C2621 C2620 1.377 . S
C2621 C2627 1.390 . S
C2622 H2613 0.930 . S
C2622 C2620 1.384 . S
C2622 C2623 1.372 . S
C2623 C2622 1.372 . S
C2623 C2624 1.400 . S
C2623 C2628 1.490 . S
C2624 H2614 0.930 . S
C2624 C2623 1.400 . S
C2624 C2627 1.386 . S
H2625 C2641 0.930 . S
H2626 C2642 0.931 . S
C2627 H2615 0.929 . S
C2627 C2621 1.390 . S
C2627 C2624 1.386 . S
C2628 C2623 1.490 . S
C2628 C2630 1.395 . S
C2628 C2631 1.403 . S
H2629 C2635 0.930 . S
C2630 H2616 0.930 . S
C2630 C2628 1.395 . S
C2630 C2633 1.403 . S
C2631 C2628 1.403 . S
C2631 C2632 1.524 . S
C2631 C2635 1.400 . S
C2632 H2617 0.960 . S
C2632 H2618 0.960 . S
C2632 H2619 0.960 . S
C2632 C2631 1.524 . S
C2633 C2630 1.403 . S
C2633 C2634 1.392 . S
C2633 C2637 1.495 . S
C2634 C2633 1.392 . S
C2634 C2635 1.385 . S
C2634 C2636 1.478 . S
C2635 H2629 0.930 . S
C2635 C2631 1.400 . S
C2635 C2634 1.385 . S
C2636 C2634 1.478 . S
C2636 C2638 1.381 . S
C2636 C2642 1.383 . S
C2637 C2633 1.495 . S
C2637 H2643 0.959 . S
C2637 H2644 0.961 . S
C2637 H2645 0.960 . S
C2638 C2636 1.381 . S
C2638 C2639 1.394 . S
C2638 H2646 0.930 . S
C2639 C2638 1.394 . S
C2639 C2640 1.383 . S
C2639 H2647 0.929 . S
C2640 C2639 1.383 . S
C2640 C2641 1.377 . S
C2641 H2625 0.930 . S
C2641 C2640 1.377 . S
C2641 C2642 1.379 . S
C2642 H2626 0.931 . S
C2642 C2636 1.383 . S
C2642 C2641 1.379 . S
H2643 C2637 0.959 . S
H2644 C2637 0.961 . S
H2645 C2637 0.960 . S
H2646 C2638 0.930 . S
H2647 C2639 0.929 . S
H2648 C2656 0.929 . S
H2649 C2658 0.930 . S
H2650 C2660 0.930 . S
H2651 C2663 0.929 . S
H2652 C2666 0.930 . S
H2653 C2668 0.960 . S
H2654 C2668 0.960 . S
H2655 C2668 0.960 . S
C2656 H2648 0.929 . S
C2656 C2657 1.377 . S
C2656 C2658 1.384 . S
C2657 C2656 1.377 . S
C2657 C2663 1.390 . S
C2658 H2649 0.930 . S
C2658 C2656 1.384 . S
C2658 C2659 1.372 . S
C2659 C2658 1.372 . S
C2659 C2660 1.400 . S
C2659 C2664 1.490 . S
C2660 H2650 0.930 . S
C2660 C2659 1.400 . S
C2660 C2663 1.386 . S
H2661 C2677 0.930 . S
H2662 C2678 0.931 . S
C2663 H2651 0.929 . S
C2663 C2657 1.390 . S
C2663 C2660 1.386 . S
C2664 C2659 1.490 . S
C2664 C2666 1.395 . S
C2664 C2667 1.403 . S
H2665 C2671 0.930 . S
C2666 H2652 0.930 . S
C2666 C2664 1.395 . S
C2666 C2669 1.403 . S
C2667 C2664 1.403 . S
C2667 C2668 1.524 . S
C2667 C2671 1.400 . S
C2668 H2653 0.960 . S
C2668 H2654 0.960 . S
C2668 H2655 0.960 . S
C2668 C2667 1.524 . S
C2669 C2666 1.403 . S
C2669 C2670 1.392 . S
C2669 C2673 1.495 . S
C2670 C2669 1.392 . S
C2670 C2671 1.385 . S
C2670 C2672 1.478 . S
C2671 H2665 0.930 . S
C2671 C2667 1.400 . S
C2671 C2670 1.385 . S
C2672 C2670 1.478 . S
C2672 C2674 1.381 . S
C2672 C2678 1.383 . S
C2673 C2669 1.495 . S
C2673 H2679 0.959 . S
C2673 H2680 0.961 . S
C2673 H2681 0.960 . S
C2674 C2672 1.381 . S
C2674 C2675 1.394 . S
C2674 H2682 0.930 . S
C2675 C2674 1.394 . S
C2675 C2676 1.383 . S
C2675 H2683 0.929 . S
C2676 C2675 1.383 . S
C2676 C2677 1.377 . S
C2677 H2661 0.930 . S
C2677 C2676 1.377 . S
C2677 C2678 1.379 . S
C2678 H2662 0.931 . S
C2678 C2672 1.383 . S
C2678 C2677 1.379 . S
H2679 C2673 0.959 . S
H2680 C2673 0.961 . S
H2681 C2673 0.960 . S
H2682 C2674 0.930 . S
H2683 C2675 0.929 . S
H2684 C2692 0.929 . S
H2685 C2694 0.930 . S
H2686 C2696 0.930 . S
H2687 C2699 0.929 . S
H2688 C2702 0.930 . S
H2689 C2704 0.960 . S
H2690 C2704 0.960 . S
H2691 C2704 0.960 . S
C2692 H2684 0.929 . S
C2692 C2693 1.377 . S
C2692 C2694 1.384 . S
C2693 C2692 1.377 . S
C2693 C2699 1.390 . S
C2694 H2685 0.930 . S
C2694 C2692 1.384 . S
C2694 C2695 1.372 . S
C2695 C2694 1.372 . S
C2695 C2696 1.400 . S
C2695 C2700 1.490 . S
C2696 H2686 0.930 . S
C2696 C2695 1.400 . S
C2696 C2699 1.386 . S
H2697 C2713 0.930 . S
H2698 C2714 0.931 . S
C2699 H2687 0.929 . S
C2699 C2693 1.390 . S
C2699 C2696 1.386 . S
C2700 C2695 1.490 . S
C2700 C2702 1.395 . S
C2700 C2703 1.403 . S
H2701 C2707 0.930 . S
C2702 H2688 0.930 . S
C2702 C2700 1.395 . S
C2702 C2705 1.403 . S
C2703 C2700 1.403 . S
C2703 C2704 1.524 . S
C2703 C2707 1.400 . S
C2704 H2689 0.960 . S
C2704 H2690 0.960 . S
C2704 H2691 0.960 . S
C2704 C2703 1.524 . S
C2705 C2702 1.403 . S
C2705 C2706 1.392 . S
C2705 C2709 1.495 . S
C2706 C2705 1.392 . S
C2706 C2707 1.385 . S
C2706 C2708 1.478 . S
C2707 H2701 0.930 . S
C2707 C2703 1.400 . S
C2707 C2706 1.385 . S
C2708 C2706 1.478 . S
C2708 C2710 1.381 . S
C2708 C2714 1.383 . S
C2709 C2705 1.495 . S
C2709 H2715 0.959 . S
C2709 H2716 0.961 . S
C2709 H2717 0.960 . S
C2710 C2708 1.381 . S
C2710 C2711 1.394 . S
C2710 H2718 0.930 . S
C2711 C2710 1.394 . S
C2711 C2712 1.383 . S
C2711 H2719 0.929 . S
C2712 C2711 1.383 . S
C2712 C2713 1.377 . S
C2713 H2697 0.930 . S
C2713 C2712 1.377 . S
C2713 C2714 1.379 . S
C2714 H2698 0.931 . S
C2714 C2708 1.383 . S
C2714 C2713 1.379 . S
H2715 C2709 0.959 . S
H2716 C2709 0.961 . S
H2717 C2709 0.960 . S
H2718 C2710 0.930 . S
H2719 C2711 0.929 . S
H2720 C2728 0.929 . S
H2721 C2730 0.930 . S
H2722 C2732 0.930 . S
H2723 C2735 0.929 . S
H2724 C2738 0.930 . S
H2725 C2740 0.960 . S
H2726 C2740 0.960 . S
H2727 C2740 0.960 . S
C2728 H2720 0.929 . S
C2728 C2729 1.377 . S
C2728 C2730 1.384 . S
C2729 C2728 1.377 . S
C2729 C2735 1.390 . S
C2730 H2721 0.930 . S
C2730 C2728 1.384 . S
C2730 C2731 1.372 . S
C2731 C2730 1.372 . S
C2731 C2732 1.400 . S
C2731 C2736 1.490 . S
C2732 H2722 0.930 . S
C2732 C2731 1.400 . S
C2732 C2735 1.386 . S
H2733 C2749 0.930 . S
H2734 C2750 0.931 . S
C2735 H2723 0.929 . S
C2735 C2729 1.390 . S
C2735 C2732 1.386 . S
C2736 C2731 1.490 . S
C2736 C2738 1.395 . S
C2736 C2739 1.403 . S
H2737 C2743 0.930 . S
C2738 H2724 0.930 . S
C2738 C2736 1.395 . S
C2738 C2741 1.403 . S
C2739 C2736 1.403 . S
C2739 C2740 1.524 . S
C2739 C2743 1.400 . S
C2740 H2725 0.960 . S
C2740 H2726 0.960 . S
C2740 H2727 0.960 . S
C2740 C2739 1.524 . S
C2741 C2738 1.403 . S
C2741 C2742 1.392 . S
C2741 C2745 1.495 . S
C2742 C2741 1.392 . S
C2742 C2743 1.385 . S
C2742 C2744 1.478 . S
C2743 H2737 0.930 . S
C2743 C2739 1.400 . S
C2743 C2742 1.385 . S
C2744 C2742 1.478 . S
C2744 C2746 1.381 . S
C2744 C2750 1.383 . S
C2745 C2741 1.495 . S
C2745 H2751 0.959 . S
C2745 H2752 0.961 . S
C2745 H2753 0.960 . S
C2746 C2744 1.381 . S
C2746 C2747 1.394 . S
C2746 H2754 0.930 . S
C2747 C2746 1.394 . S
C2747 C2748 1.383 . S
C2747 H2755 0.929 . S
C2748 C2747 1.383 . S
C2748 C2749 1.377 . S
C2749 H2733 0.930 . S
C2749 C2748 1.377 . S
C2749 C2750 1.379 . S
C2750 H2734 0.931 . S
C2750 C2744 1.383 . S
C2750 C2749 1.379 . S
H2751 C2745 0.959 . S
H2752 C2745 0.961 . S
H2753 C2745 0.960 . S
H2754 C2746 0.930 . S
H2755 C2747 0.929 . S
H2756 C2764 0.929 . S
H2757 C2766 0.930 . S
H2758 C2768 0.930 . S
H2759 C2771 0.929 . S
H2760 C2774 0.930 . S
H2761 C2776 0.960 . S
H2762 C2776 0.960 . S
H2763 C2776 0.960 . S
C2764 H2756 0.929 . S
C2764 C2765 1.377 . S
C2764 C2766 1.384 . S
C2765 C2764 1.377 . S
C2765 C2771 1.390 . S
C2766 H2757 0.930 . S
C2766 C2764 1.384 . S
C2766 C2767 1.372 . S
C2767 C2766 1.372 . S
C2767 C2768 1.400 . S
C2767 C2772 1.490 . S
C2768 H2758 0.930 . S
C2768 C2767 1.400 . S
C2768 C2771 1.386 . S
H2769 C2785 0.930 . S
H2770 C2786 0.931 . S
C2771 H2759 0.929 . S
C2771 C2765 1.390 . S
C2771 C2768 1.386 . S
C2772 C2767 1.490 . S
C2772 C2774 1.395 . S
C2772 C2775 1.403 . S
H2773 C2779 0.930 . S
C2774 H2760 0.930 . S
C2774 C2772 1.395 . S
C2774 C2777 1.403 . S
C2775 C2772 1.403 . S
C2775 C2776 1.524 . S
C2775 C2779 1.400 . S
C2776 H2761 0.960 . S
C2776 H2762 0.960 . S
C2776 H2763 0.960 . S
C2776 C2775 1.524 . S
C2777 C2774 1.403 . S
C2777 C2778 1.392 . S
C2777 C2781 1.495 . S
C2778 C2777 1.392 . S
C2778 C2779 1.385 . S
C2778 C2780 1.478 . S
C2779 H2773 0.930 . S
C2779 C2775 1.400 . S
C2779 C2778 1.385 . S
C2780 C2778 1.478 . S
C2780 C2782 1.381 . S
C2780 C2786 1.383 . S
C2781 C2777 1.495 . S
C2781 H2787 0.959 . S
C2781 H2788 0.961 . S
C2781 H2789 0.960 . S
C2782 C2780 1.381 . S
C2782 C2783 1.394 . S
C2782 H2790 0.930 . S
C2783 C2782 1.394 . S
C2783 C2784 1.383 . S
C2783 H2791 0.929 . S
C2784 C2783 1.383 . S
C2784 C2785 1.377 . S
C2785 H2769 0.930 . S
C2785 C2784 1.377 . S
C2785 C2786 1.379 . S
C2786 H2770 0.931 . S
C2786 C2780 1.383 . S
C2786 C2785 1.379 . S
H2787 C2781 0.959 . S
H2788 C2781 0.961 . S
H2789 C2781 0.960 . S
H2790 C2782 0.930 . S
H2791 C2783 0.929 . S
H2792 C2800 0.929 . S
H2793 C2802 0.930 . S
H2794 C2804 0.930 . S
H2795 C2807 0.929 . S
H2796 C2810 0.930 . S
H2797 C2812 0.960 . S
H2798 C2812 0.960 . S
H2799 C2812 0.960 . S
C2800 H2792 0.929 . S
C2800 C2801 1.377 . S
C2800 C2802 1.384 . S
C2801 C2800 1.377 . S
C2801 C2807 1.390 . S
C2802 H2793 0.930 . S
C2802 C2800 1.384 . S
C2802 C2803 1.372 . S
C2803 C2802 1.372 . S
C2803 C2804 1.400 . S
C2803 C2808 1.490 . S
C2804 H2794 0.930 . S
C2804 C2803 1.400 . S
C2804 C2807 1.386 . S
H2805 C2821 0.930 . S
H2806 C2822 0.931 . S
C2807 H2795 0.929 . S
C2807 C2801 1.390 . S
C2807 C2804 1.386 . S
C2808 C2803 1.490 . S
C2808 C2810 1.395 . S
C2808 C2811 1.403 . S
H2809 C2815 0.930 . S
C2810 H2796 0.930 . S
C2810 C2808 1.395 . S
C2810 C2813 1.403 . S
C2811 C2808 1.403 . S
C2811 C2812 1.524 . S
C2811 C2815 1.400 . S
C2812 H2797 0.960 . S
C2812 H2798 0.960 . S
C2812 H2799 0.960 . S
C2812 C2811 1.524 . S
C2813 C2810 1.403 . S
C2813 C2814 1.392 . S
C2813 C2817 1.495 . S
C2814 C2813 1.392 . S
C2814 C2815 1.385 . S
C2814 C2816 1.478 . S
C2815 H2809 0.930 . S
C2815 C2811 1.400 . S
C2815 C2814 1.385 . S
C2816 C2814 1.478 . S
C2816 C2818 1.381 . S
C2816 C2822 1.383 . S
C2817 C2813 1.495 . S
C2817 H2823 0.959 . S
C2817 H2824 0.961 . S
C2817 H2825 0.960 . S
C2818 C2816 1.381 . S
C2818 C2819 1.394 . S
C2818 H2826 0.930 . S
C2819 C2818 1.394 . S
C2819 C2820 1.383 . S
C2819 H2827 0.929 . S
C2820 C2819 1.383 . S
C2820 C2821 1.377 . S
C2821 H2805 0.930 . S
C2821 C2820 1.377 . S
C2821 C2822 1.379 . S
C2822 H2806 0.931 . S
C2822 C2816 1.383 . S
C2822 C2821 1.379 . S
H2823 C2817 0.959 . S
H2824 C2817 0.961 . S
H2825 C2817 0.960 . S
H2826 C2818 0.930 . S
H2827 C2819 0.929 . S
H2828 C2836 0.929 . S
H2829 C2838 0.930 . S
H2830 C2840 0.930 . S
H2831 C2843 0.929 . S
H2832 C2846 0.930 . S
H2833 C2848 0.960 . S
H2834 C2848 0.960 . S
H2835 C2848 0.960 . S
C2836 H2828 0.929 . S
C2836 C2837 1.377 . S
C2836 C2838 1.384 . S
C2837 C2836 1.377 . S
C2837 C2843 1.390 . S
C2838 H2829 0.930 . S
C2838 C2836 1.384 . S
C2838 C2839 1.372 . S
C2839 C2838 1.372 . S
C2839 C2840 1.400 . S
C2839 C2844 1.490 . S
C2840 H2830 0.930 . S
C2840 C2839 1.400 . S
C2840 C2843 1.386 . S
H2841 C2857 0.930 . S
H2842 C2858 0.931 . S
C2843 H2831 0.929 . S
C2843 C2837 1.390 . S
C2843 C2840 1.386 . S
C2844 C2839 1.490 . S
C2844 C2846 1.395 . S
C2844 C2847 1.403 . S
H2845 C2851 0.930 . S
C2846 H2832 0.930 . S
C2846 C2844 1.395 . S
C2846 C2849 1.403 . S
C2847 C2844 1.403 . S
C2847 C2848 1.524 . S
C2847 C2851 1.400 . S
C2848 H2833 0.960 . S
C2848 H2834 0.960 . S
C2848 H2835 0.960 . S
C2848 C2847 1.524 . S
C2849 C2846 1.403 . S
C2849 C2850 1.392 . S
C2849 C2853 1.495 . S
C2850 C2849 1.392 . S
C2850 C2851 1.385 . S
C2850 C2852 1.478 . S
C2851 H2845 0.930 . S
C2851 C2847 1.400 . S
C2851 C2850 1.385 . S
C2852 C2850 1.478 . S
C2852 C2854 1.381 . S
C2852 C2858 1.383 . S
C2853 C2849 1.495 . S
C2853 H2859 0.959 . S
C2853 H2860 0.961 . S
C2853 H2861 0.960 . S
C2854 C2852 1.381 . S
C2854 C2855 1.394 . S
C2854 H2862 0.930 . S
C2855 C2854 1.394 . S
C2855 C2856 1.383 . S
C2855 H2863 0.929 . S
C2856 C2855 1.383 . S
C2856 C2857 1.377 . S
C2857 H2841 0.930 . S
C2857 C2856 1.377 . S
C2857 C2858 1.379 . S
C2858 H2842 0.931 . S
C2858 C2852 1.383 . S
C2858 C2857 1.379 . S
H2859 C2853 0.959 . S
H2860 C2853 0.961 . S
H2861 C2853 0.960 . S
H2862 C2854 0.930 . S
H2863 C2855 0.929 . S
H2864 C2872 0.929 . S
H2865 C2874 0.930 . S
H2866 C2876 0.930 . S
H2867 C2879 0.929 . S
H2868 C2882 0.930 . S
H2869 C2884 0.960 . S
H2870 C2884 0.960 . S
H2871 C2884 0.960 . S
C2872 H2864 0.929 . S
C2872 C2873 1.377 . S
C2872 C2874 1.384 . S
C2873 C2872 1.377 . S
C2873 C2879 1.390 . S
C2874 H2865 0.930 . S
C2874 C2872 1.384 . S
C2874 C2875 1.372 . S
C2875 C2874 1.372 . S
C2875 C2876 1.400 . S
C2875 C2880 1.490 . S
C2876 H2866 0.930 . S
C2876 C2875 1.400 . S
C2876 C2879 1.386 . S
H2877 C2893 0.930 . S
H2878 C2894 0.931 . S
C2879 H2867 0.929 . S
C2879 C2873 1.390 . S
C2879 C2876 1.386 . S
C2880 C2875 1.490 . S
C2880 C2882 1.395 . S
C2880 C2883 1.403 . S
H2881 C2887 0.930 . S
C2882 H2868 0.930 . S
C2882 C2880 1.395 . S
C2882 C2885 1.403 . S
C2883 C2880 1.403 . S
C2883 C2884 1.524 . S
C2883 C2887 1.400 . S
C2884 H2869 0.960 . S
C2884 H2870 0.960 . S
C2884 H2871 0.960 . S
C2884 C2883 1.524 . S
C2885 C2882 1.403 . S
C2885 C2886 1.392 . S
C2885 C2889 1.495 . S
C2886 C2885 1.392 . S
C2886 C2887 1.385 . S
C2886 C2888 1.478 . S
C2887 H2881 0.930 . S
C2887 C2883 1.400 . S
C2887 C2886 1.385 . S
C2888 C2886 1.478 . S
C2888 C2890 1.381 . S
C2888 C2894 1.383 . S
C2889 C2885 1.495 . S
C2889 H2895 0.959 . S
C2889 H2896 0.961 . S
C2889 H2897 0.960 . S
C2890 C2888 1.381 . S
C2890 C2891 1.394 . S
C2890 H2898 0.930 . S
C2891 C2890 1.394 . S
C2891 C2892 1.383 . S
C2891 H2899 0.929 . S
C2892 C2891 1.383 . S
C2892 C2893 1.377 . S
C2893 H2877 0.930 . S
C2893 C2892 1.377 . S
C2893 C2894 1.379 . S
C2894 H2878 0.931 . S
C2894 C2888 1.383 . S
C2894 C2893 1.379 . S
H2895 C2889 0.959 . S
H2896 C2889 0.961 . S
H2897 C2889 0.960 . S
H2898 C2890 0.930 . S
H2899 C2891 0.929 . S
H2900 C2908 0.929 . S
H2901 C2910 0.930 . S
H2902 C2912 0.930 . S
H2903 C2915 0.929 . S
H2904 C2918 0.930 . S
H2905 C2920 0.960 . S
H2906 C2920 0.960 . S
H2907 C2920 0.960 . S
C2908 H2900 0.929 . S
C2908 C2909 1.377 . S
C2908 C2910 1.384 . S
C2909 C2908 1.377 . S
C2909 C2915 1.390 . S
C2910 H2901 0.930 . S
C2910 C2908 1.384 . S
C2910 C2911 1.372 . S
C2911 C2910 1.372 . S
C2911 C2912 1.400 . S
C2911 C2916 1.490 . S
C2912 H2902 0.930 . S
C2912 C2911 1.400 . S
C2912 C2915 1.386 . S
H2913 C2929 0.930 . S
H2914 C2930 0.931 . S
C2915 H2903 0.929 . S
C2915 C2909 1.390 . S
C2915 C2912 1.386 . S
C2916 C2911 1.490 . S
C2916 C2918 1.395 . S
C2916 C2919 1.403 . S
H2917 C2923 0.930 . S
C2918 H2904 0.930 . S
C2918 C2916 1.395 . S
C2918 C2921 1.403 . S
C2919 C2916 1.403 . S
C2919 C2920 1.524 . S
C2919 C2923 1.400 . S
C2920 H2905 0.960 . S
C2920 H2906 0.960 . S
C2920 H2907 0.960 . S
C2920 C2919 1.524 . S
C2921 C2918 1.403 . S
C2921 C2922 1.392 . S
C2921 C2925 1.495 . S
C2922 C2921 1.392 . S
C2922 C2923 1.385 . S
C2922 C2924 1.478 . S
C2923 H2917 0.930 . S
C2923 C2919 1.400 . S
C2923 C2922 1.385 . S
C2924 C2922 1.478 . S
C2924 C2926 1.381 . S
C2924 C2930 1.383 . S
C2925 C2921 1.495 . S
C2925 H2931 0.959 . S
C2925 H2932 0.961 . S
C2925 H2933 0.960 . S
C2926 C2924 1.381 . S
C2926 C2927 1.394 . S
C2926 H2934 0.930 . S
C2927 C2926 1.394 . S
C2927 C2928 1.383 . S
C2927 H2935 0.929 . S
C2928 C2927 1.383 . S
C2928 C2929 1.377 . S
C2929 H2913 0.930 . S
C2929 C2928 1.377 . S
C2929 C2930 1.379 . S
C2930 H2914 0.931 . S
C2930 C2924 1.383 . S
C2930 C2929 1.379 . S
H2931 C2925 0.959 . S
H2932 C2925 0.961 . S
H2933 C2925 0.960 . S
H2934 C2926 0.930 . S
H2935 C2927 0.929 . S
H2936 C2944 0.929 . S
H2937 C2946 0.930 . S
H2938 C2948 0.930 . S
H2939 C2951 0.929 . S
H2940 C2954 0.930 . S
H2941 C2956 0.960 . S
H2942 C2956 0.960 . S
H2943 C2956 0.960 . S
C2944 H2936 0.929 . S
C2944 C2945 1.377 . S
C2944 C2946 1.384 . S
C2945 C2944 1.377 . S
C2945 C2951 1.390 . S
C2946 H2937 0.930 . S
C2946 C2944 1.384 . S
C2946 C2947 1.372 . S
C2947 C2946 1.372 . S
C2947 C2948 1.400 . S
C2947 C2952 1.490 . S
C2948 H2938 0.930 . S
C2948 C2947 1.400 . S
C2948 C2951 1.386 . S
H2949 C2965 0.930 . S
H2950 C2966 0.931 . S
C2951 H2939 0.929 . S
C2951 C2945 1.390 . S
C2951 C2948 1.386 . S
C2952 C2947 1.490 . S
C2952 C2954 1.395 . S
C2952 C2955 1.403 . S
H2953 C2959 0.930 . S
C2954 H2940 0.930 . S
C2954 C2952 1.395 . S
C2954 C2957 1.403 . S
C2955 C2952 1.403 . S
C2955 C2956 1.524 . S
C2955 C2959 1.400 . S
C2956 H2941 0.960 . S
C2956 H2942 0.960 . S
C2956 H2943 0.960 . S
C2956 C2955 1.524 . S
C2957 C2954 1.403 . S
C2957 C2958 1.392 . S
C2957 C2961 1.495 . S
C2958 C2957 1.392 . S
C2958 C2959 1.385 . S
C2958 C2960 1.478 . S
C2959 H2953 0.930 . S
C2959 C2955 1.400 . S
C2959 C2958 1.385 . S
C2960 C2958 1.478 . S
C2960 C2962 1.381 . S
C2960 C2966 1.383 . S
C2961 C2957 1.495 . S
C2961 H2967 0.959 . S
C2961 H2968 0.961 . S
C2961 H2969 0.960 . S
C2962 C2960 1.381 . S
C2962 C2963 1.394 . S
C2962 H2970 0.930 . S
C2963 C2962 1.394 . S
C2963 C2964 1.383 . S
C2963 H2971 0.929 . S
C2964 C2963 1.383 . S
C2964 C2965 1.377 . S
C2965 H2949 0.930 . S
C2965 C2964 1.377 . S
C2965 C2966 1.379 . S
C2966 H2950 0.931 . S
C2966 C2960 1.383 . S
C2966 C2965 1.379 . S
H2967 C2961 0.959 . S
H2968 C2961 0.961 . S
H2969 C2961 0.960 . S
H2970 C2962 0.930 . S
H2971 C2963 0.929 . S
H2972 C2980 0.929 . S
H2973 C2982 0.930 . S
H2974 C2984 0.930 . S
H2975 C2987 0.929 . S
H2976 C2990 0.930 . S
H2977 C2992 0.960 . S
H2978 C2992 0.960 . S
H2979 C2992 0.960 . S
C2980 H2972 0.929 . S
C2980 C2981 1.377 . S
C2980 C2982 1.384 . S
C2981 C2980 1.377 . S
C2981 C2987 1.390 . S
C2982 H2973 0.930 . S
C2982 C2980 1.384 . S
C2982 C2983 1.372 . S
C2983 C2982 1.372 . S
C2983 C2984 1.400 . S
C2983 C2988 1.490 . S
C2984 H2974 0.930 . S
C2984 C2983 1.400 . S
C2984 C2987 1.386 . S
H2985 C3001 0.930 . S
H2986 C3002 0.931 . S
C2987 H2975 0.929 . S
C2987 C2981 1.390 . S
C2987 C2984 1.386 . S
C2988 C2983 1.490 . S
C2988 C2990 1.395 . S
C2988 C2991 1.403 . S
H2989 C2995 0.930 . S
C2990 H2976 0.930 . S
C2990 C2988 1.395 . S
C2990 C2993 1.403 . S
C2991 C2988 1.403 . S
C2991 C2992 1.524 . S
C2991 C2995 1.400 . S
C2992 H2977 0.960 . S
C2992 H2978 0.960 . S
C2992 H2979 0.960 . S
C2992 C2991 1.524 . S
C2993 C2990 1.403 . S
C2993 C2994 1.392 . S
C2993 C2997 1.495 . S
C2994 C2993 1.392 . S
C2994 C2995 1.385 . S
C2994 C2996 1.478 . S
C2995 H2989 0.930 . S
C2995 C2991 1.400 . S
C2995 C2994 1.385 . S
C2996 C2994 1.478 . S
C2996 C2998 1.381 . S
C2996 C3002 1.383 . S
C2997 C2993 1.495 . S
C2997 H3003 0.959 . S
C2997 H3004 0.961 . S
C2997 H3005 0.960 . S
C2998 C2996 1.381 . S
C2998 C2999 1.394 . S
C2998 H3006 0.930 . S
C2999 C2998 1.394 . S
C2999 C3000 1.383 . S
C2999 H3007 0.929 . S
C3000 C2999 1.383 . S
C3000 C3001 1.377 . S
C3001 H2985 0.930 . S
C3001 C3000 1.377 . S
C3001 C3002 1.379 . S
C3002 H2986 0.931 . S
C3002 C2996 1.383 . S
C3002 C3001 1.379 . S
H3003 C2997 0.959 . S
H3004 C2997 0.961 . S
H3005 C2997 0.960 . S
H3006 C2998 0.930 . S
H3007 C2999 0.929 . S
H3008 C3016 0.929 . S
H3009 C3018 0.930 . S
H3010 C3020 0.930 . S
H3011 C3023 0.929 . S
H3012 C3026 0.930 . S
H3013 C3028 0.960 . S
H3014 C3028 0.960 . S
H3015 C3028 0.960 . S
C3016 H3008 0.929 . S
C3016 C3017 1.377 . S
C3016 C3018 1.384 . S
C3017 C3016 1.377 . S
C3017 C3023 1.390 . S
C3018 H3009 0.930 . S
C3018 C3016 1.384 . S
C3018 C3019 1.372 . S
C3019 C3018 1.372 . S
C3019 C3020 1.400 . S
C3019 C3024 1.490 . S
C3020 H3010 0.930 . S
C3020 C3019 1.400 . S
C3020 C3023 1.386 . S
H3021 C3037 0.930 . S
H3022 C3038 0.931 . S
C3023 H3011 0.929 . S
C3023 C3017 1.390 . S
C3023 C3020 1.386 . S
C3024 C3019 1.490 . S
C3024 C3026 1.395 . S
C3024 C3027 1.403 . S
H3025 C3031 0.930 . S
C3026 H3012 0.930 . S
C3026 C3024 1.395 . S
C3026 C3029 1.403 . S
C3027 C3024 1.403 . S
C3027 C3028 1.524 . S
C3027 C3031 1.400 . S
C3028 H3013 0.960 . S
C3028 H3014 0.960 . S
C3028 H3015 0.960 . S
C3028 C3027 1.524 . S
C3029 C3026 1.403 . S
C3029 C3030 1.392 . S
C3029 C3033 1.495 . S
C3030 C3029 1.392 . S
C3030 C3031 1.385 . S
C3030 C3032 1.478 . S
C3031 H3025 0.930 . S
C3031 C3027 1.400 . S
C3031 C3030 1.385 . S
C3032 C3030 1.478 . S
C3032 C3034 1.381 . S
C3032 C3038 1.383 . S
C3033 C3029 1.495 . S
C3033 H3039 0.959 . S
C3033 H3040 0.961 . S
C3033 H3041 0.960 . S
C3034 C3032 1.381 . S
C3034 C3035 1.394 . S
C3034 H3042 0.930 . S
C3035 C3034 1.394 . S
C3035 C3036 1.383 . S
C3035 H3043 0.929 . S
C3036 C3035 1.383 . S
C3036 C3037 1.377 . S
C3037 H3021 0.930 . S
C3037 C3036 1.377 . S
C3037 C3038 1.379 . S
C3038 H3022 0.931 . S
C3038 C3032 1.383 . S
C3038 C3037 1.379 . S
H3039 C3033 0.959 . S
H3040 C3033 0.961 . S
H3041 C3033 0.960 . S
H3042 C3034 0.930 . S
H3043 C3035 0.929 . S
H3044 C3052 0.929 . S
H3045 C3054 0.930 . S
H3046 C3056 0.930 . S
H3047 C3059 0.929 . S
H3048 C3062 0.930 . S
H3049 C3064 0.960 . S
H3050 C3064 0.960 . S
H3051 C3064 0.960 . S
C3052 H3044 0.929 . S
C3052 C3053 1.377 . S
C3052 C3054 1.384 . S
C3053 C3052 1.377 . S
C3053 C3059 1.390 . S
C3054 H3045 0.930 . S
C3054 C3052 1.384 . S
C3054 C3055 1.372 . S
C3055 C3054 1.372 . S
C3055 C3056 1.400 . S
C3055 C3060 1.490 . S
C3056 H3046 0.930 . S
C3056 C3055 1.400 . S
C3056 C3059 1.386 . S
H3057 C3073 0.930 . S
H3058 C3074 0.931 . S
C3059 H3047 0.929 . S
C3059 C3053 1.390 . S
C3059 C3056 1.386 . S
C3060 C3055 1.490 . S
C3060 C3062 1.395 . S
C3060 C3063 1.403 . S
H3061 C3067 0.930 . S
C3062 H3048 0.930 . S
C3062 C3060 1.395 . S
C3062 C3065 1.403 . S
C3063 C3060 1.403 . S
C3063 C3064 1.524 . S
C3063 C3067 1.400 . S
C3064 H3049 0.960 . S
C3064 H3050 0.960 . S
C3064 H3051 0.960 . S
C3064 C3063 1.524 . S
C3065 C3062 1.403 . S
C3065 C3066 1.392 . S
C3065 C3069 1.495 . S
C3066 C3065 1.392 . S
C3066 C3067 1.385 . S
C3066 C3068 1.478 . S
C3067 H3061 0.930 . S
C3067 C3063 1.400 . S
C3067 C3066 1.385 . S
C3068 C3066 1.478 . S
C3068 C3070 1.381 . S
C3068 C3074 1.383 . S
C3069 C3065 1.495 . S
C3069 H3075 0.959 . S
C3069 H3076 0.961 . S
C3069 H3077 0.960 . S
C3070 C3068 1.381 . S
C3070 C3071 1.394 . S
C3070 H3078 0.930 . S
C3071 C3070 1.394 . S
C3071 C3072 1.383 . S
C3071 H3079 0.929 . S
C3072 C3071 1.383 . S
C3072 C3073 1.377 . S
C3073 H3057 0.930 . S
C3073 C3072 1.377 . S
C3073 C3074 1.379 . S
C3074 H3058 0.931 . S
C3074 C3068 1.383 . S
C3074 C3073 1.379 . S
H3075 C3069 0.959 . S
H3076 C3069 0.961 . S
H3077 C3069 0.960 . S
H3078 C3070 0.930 . S
H3079 C3071 0.929 . S
H3080 C3088 0.929 . S
H3081 C3090 0.930 . S
H3082 C3092 0.930 . S
H3083 C3095 0.929 . S
H3084 C3098 0.930 . S
H3085 C3100 0.960 . S
H3086 C3100 0.960 . S
H3087 C3100 0.960 . S
C3088 H3080 0.929 . S
C3088 C3089 1.377 . S
C3088 C3090 1.384 . S
C3089 C3088 1.377 . S
C3089 C3095 1.390 . S
C3090 H3081 0.930 . S
C3090 C3088 1.384 . S
C3090 C3091 1.372 . S
C3091 C3090 1.372 . S
C3091 C3092 1.400 . S
C3091 C3096 1.490 . S
C3092 H3082 0.930 . S
C3092 C3091 1.400 . S
C3092 C3095 1.386 . S
H3093 C3109 0.930 . S
H3094 C3110 0.931 . S
C3095 H3083 0.929 . S
C3095 C3089 1.390 . S
C3095 C3092 1.386 . S
C3096 C3091 1.490 . S
C3096 C3098 1.395 . S
C3096 C3099 1.403 . S
H3097 C3103 0.930 . S
C3098 H3084 0.930 . S
C3098 C3096 1.395 . S
C3098 C3101 1.403 . S
C3099 C3096 1.403 . S
C3099 C3100 1.524 . S
C3099 C3103 1.400 . S
C3100 H3085 0.960 . S
C3100 H3086 0.960 . S
C3100 H3087 0.960 . S
C3100 C3099 1.524 . S
C3101 C3098 1.403 . S
C3101 C3102 1.392 . S
C3101 C3105 1.495 . S
C3102 C3101 1.392 . S
C3102 C3103 1.385 . S
C3102 C3104 1.478 . S
C3103 H3097 0.930 . S
C3103 C3099 1.400 . S
C3103 C3102 1.385 . S
C3104 C3102 1.478 . S
C3104 C3106 1.381 . S
C3104 C3110 1.383 . S
C3105 C3101 1.495 . S
C3105 H3111 0.959 . S
C3105 H3112 0.961 . S
C3105 H3113 0.960 . S
C3106 C3104 1.381 . S
C3106 C3107 1.394 . S
C3106 H3114 0.930 . S
C3107 C3106 1.394 . S
C3107 C3108 1.383 . S
C3107 H3115 0.929 . S
C3108 C3107 1.383 . S
C3108 C3109 1.377 . S
C3109 H3093 0.930 . S
C3109 C3108 1.377 . S
C3109 C3110 1.379 . S
C3110 H3094 0.931 . S
C3110 C3104 1.383 . S
C3110 C3109 1.379 . S
H3111 C3105 0.959 . S
H3112 C3105 0.961 . S
H3113 C3105 0.960 . S
H3114 C3106 0.930 . S
H3115 C3107 0.929 . S
H3116 C3124 0.929 . S
H3117 C3126 0.930 . S
H3118 C3128 0.930 . S
H3119 C3131 0.929 . S
H3120 C3134 0.930 . S
H3121 C3136 0.960 . S
H3122 C3136 0.960 . S
H3123 C3136 0.960 . S
C3124 H3116 0.929 . S
C3124 C3125 1.377 . S
C3124 C3126 1.384 . S
C3125 C3124 1.377 . S
C3125 C3131 1.390 . S
C3126 H3117 0.930 . S
C3126 C3124 1.384 . S
C3126 C3127 1.372 . S
C3127 C3126 1.372 . S
C3127 C3128 1.400 . S
C3127 C3132 1.490 . S
C3128 H3118 0.930 . S
C3128 C3127 1.400 . S
C3128 C3131 1.386 . S
H3129 C3145 0.930 . S
H3130 C3146 0.931 . S
C3131 H3119 0.929 . S
C3131 C3125 1.390 . S
C3131 C3128 1.386 . S
C3132 C3127 1.490 . S
C3132 C3134 1.395 . S
C3132 C3135 1.403 . S
H3133 C3139 0.930 . S
C3134 H3120 0.930 . S
C3134 C3132 1.395 . S
C3134 C3137 1.403 . S
C3135 C3132 1.403 . S
C3135 C3136 1.524 . S
C3135 C3139 1.400 . S
C3136 H3121 0.960 . S
C3136 H3122 0.960 . S
C3136 H3123 0.960 . S
C3136 C3135 1.524 . S
C3137 C3134 1.403 . S
C3137 C3138 1.392 . S
C3137 C3141 1.495 . S
C3138 C3137 1.392 . S
C3138 C3139 1.385 . S
C3138 C3140 1.478 . S
C3139 H3133 0.930 . S
C3139 C3135 1.400 . S
C3139 C3138 1.385 . S
C3140 C3138 1.478 . S
C3140 C3142 1.381 . S
C3140 C3146 1.383 . S
C3141 C3137 1.495 . S
C3141 H3147 0.959 . S
C3141 H3148 0.961 . S
C3141 H3149 0.960 . S
C3142 C3140 1.381 . S
C3142 C3143 1.394 . S
C3142 H3150 0.930 . S
C3143 C3142 1.394 . S
C3143 C3144 1.383 . S
C3143 H3151 0.929 . S
C3144 C3143 1.383 . S
C3144 C3145 1.377 . S
C3145 H3129 0.930 . S
C3145 C3144 1.377 . S
C3145 C3146 1.379 . S
C3146 H3130 0.931 . S
C3146 C3140 1.383 . S
C3146 C3145 1.379 . S
H3147 C3141 0.959 . S
H3148 C3141 0.961 . S
H3149 C3141 0.960 . S
H3150 C3142 0.930 . S
H3151 C3143 0.929 . S
H3152 C3160 0.929 . S
H3153 C3162 0.930 . S
H3154 C3164 0.930 . S
H3155 C3167 0.929 . S
H3156 C3170 0.930 . S
H3157 C3172 0.960 . S
H3158 C3172 0.960 . S
H3159 C3172 0.960 . S
C3160 H3152 0.929 . S
C3160 C3161 1.377 . S
C3160 C3162 1.384 . S
C3161 C3160 1.377 . S
C3161 C3167 1.390 . S
C3162 H3153 0.930 . S
C3162 C3160 1.384 . S
C3162 C3163 1.372 . S
C3163 C3162 1.372 . S
C3163 C3164 1.400 . S
C3163 C3168 1.490 . S
C3164 H3154 0.930 . S
C3164 C3163 1.400 . S
C3164 C3167 1.386 . S
H3165 C3181 0.930 . S
H3166 C3182 0.931 . S
C3167 H3155 0.929 . S
C3167 C3161 1.390 . S
C3167 C3164 1.386 . S
C3168 C3163 1.490 . S
C3168 C3170 1.395 . S
C3168 C3171 1.403 . S
H3169 C3175 0.930 . S
C3170 H3156 0.930 . S
C3170 C3168 1.395 . S
C3170 C3173 1.403 . S
C3171 C3168 1.403 . S
C3171 C3172 1.524 . S
C3171 C3175 1.400 . S
C3172 H3157 0.960 . S
C3172 H3158 0.960 . S
C3172 H3159 0.960 . S
C3172 C3171 1.524 . S
C3173 C3170 1.403 . S
C3173 C3174 1.392 . S
C3173 C3177 1.495 . S
C3174 C3173 1.392 . S
C3174 C3175 1.385 . S
C3174 C3176 1.478 . S
C3175 H3169 0.930 . S
C3175 C3171 1.400 . S
C3175 C3174 1.385 . S
C3176 C3174 1.478 . S
C3176 C3178 1.381 . S
C3176 C3182 1.383 . S
C3177 C3173 1.495 . S
C3177 H3183 0.959 . S
C3177 H3184 0.961 . S
C3177 H3185 0.960 . S
C3178 C3176 1.381 . S
C3178 C3179 1.394 . S
C3178 H3186 0.930 . S
C3179 C3178 1.394 . S
C3179 C3180 1.383 . S
C3179 H3187 0.929 . S
C3180 C3179 1.383 . S
C3180 C3181 1.377 . S
C3181 H3165 0.930 . S
C3181 C3180 1.377 . S
C3181 C3182 1.379 . S
C3182 H3166 0.931 . S
C3182 C3176 1.383 . S
C3182 C3181 1.379 . S
H3183 C3177 0.959 . S
H3184 C3177 0.961 . S
H3185 C3177 0.960 . S
H3186 C3178 0.930 . S
H3187 C3179 0.929 . S
H3188 C3196 0.929 . S
H3189 C3198 0.930 . S
H3190 C3200 0.930 . S
H3191 C3203 0.929 . S
H3192 C3206 0.930 . S
H3193 C3208 0.960 . S
H3194 C3208 0.960 . S
H3195 C3208 0.960 . S
C3196 H3188 0.929 . S
C3196 C3197 1.377 . S
C3196 C3198 1.384 . S
C3197 C3196 1.377 . S
C3197 C3203 1.390 . S
C3198 H3189 0.930 . S
C3198 C3196 1.384 . S
C3198 C3199 1.372 . S
C3199 C3198 1.372 . S
C3199 C3200 1.400 . S
C3199 C3204 1.490 . S
C3200 H3190 0.930 . S
C3200 C3199 1.400 . S
C3200 C3203 1.386 . S
H3201 C3217 0.930 . S
H3202 C3218 0.931 . S
C3203 H3191 0.929 . S
C3203 C3197 1.390 . S
C3203 C3200 1.386 . S
C3204 C3199 1.490 . S
C3204 C3206 1.395 . S
C3204 C3207 1.403 . S
H3205 C3211 0.930 . S
C3206 H3192 0.930 . S
C3206 C3204 1.395 . S
C3206 C3209 1.403 . S
C3207 C3204 1.403 . S
C3207 C3208 1.524 . S
C3207 C3211 1.400 . S
C3208 H3193 0.960 . S
C3208 H3194 0.960 . S
C3208 H3195 0.960 . S
C3208 C3207 1.524 . S
C3209 C3206 1.403 . S
C3209 C3210 1.392 . S
C3209 C3213 1.495 . S
C3210 C3209 1.392 . S
C3210 C3211 1.385 . S
C3210 C3212 1.478 . S
C3211 H3205 0.930 . S
C3211 C3207 1.400 . S
C3211 C3210 1.385 . S
C3212 C3210 1.478 . S
C3212 C3214 1.381 . S
C3212 C3218 1.383 . S
C3213 C3209 1.495 . S
C3213 H3219 0.959 . S
C3213 H3220 0.961 . S
C3213 H3221 0.960 . S
C3214 C3212 1.381 . S
C3214 C3215 1.394 . S
C3214 H3222 0.930 . S
C3215 C3214 1.394 . S
C3215 C3216 1.383 . S
C3215 H3223 0.929 . S
C3216 C3215 1.383 . S
C3216 C3217 1.377 . S
C3217 H3201 0.930 . S
C3217 C3216 1.377 . S
C3217 C3218 1.379 . S
C3218 H3202 0.931 . S
C3218 C3212 1.383 . S
C3218 C3217 1.379 . S
H3219 C3213 0.959 . S
H3220 C3213 0.961 . S
H3221 C3213 0.960 . S
H3222 C3214 0.930 . S
H3223 C3215 0.929 . S
H3224 C3232 0.929 . S
H3225 C3234 0.930 . S
H3226 C3236 0.930 . S
H3227 C3239 0.929 . S
H3228 C3242 0.930 . S
H3229 C3244 0.960 . S
H3230 C3244 0.960 . S
H3231 C3244 0.960 . S
C3232 H3224 0.929 . S
C3232 C3233 1.377 . S
C3232 C3234 1.384 . S
C3233 C3232 1.377 . S
C3233 C3239 1.390 . S
C3234 H3225 0.930 . S
C3234 C3232 1.384 . S
C3234 C3235 1.372 . S
C3235 C3234 1.372 . S
C3235 C3236 1.400 . S
C3235 C3240 1.490 . S
C3236 H3226 0.930 . S
C3236 C3235 1.400 . S
C3236 C3239 1.386 . S
H3237 C3253 0.930 . S
H3238 C3254 0.931 . S
C3239 H3227 0.929 . S
C3239 C3233 1.390 . S
C3239 C3236 1.386 . S
C3240 C3235 1.490 . S
C3240 C3242 1.395 . S
C3240 C3243 1.403 . S
H3241 C3247 0.930 . S
C3242 H3228 0.930 . S
C3242 C3240 1.395 . S
C3242 C3245 1.403 . S
C3243 C3240 1.403 . S
C3243 C3244 1.524 . S
C3243 C3247 1.400 . S
C3244 H3229 0.960 . S
C3244 H3230 0.960 . S
C3244 H3231 0.960 . S
C3244 C3243 1.524 . S
C3245 C3242 1.403 . S
C3245 C3246 1.392 . S
C3245 C3249 1.495 . S
C3246 C3245 1.392 . S
C3246 C3247 1.385 . S
C3246 C3248 1.478 . S
C3247 H3241 0.930 . S
C3247 C3243 1.400 . S
C3247 C3246 1.385 . S
C3248 C3246 1.478 . S
C3248 C3250 1.381 . S
C3248 C3254 1.383 . S
C3249 C3245 1.495 . S
C3249 H3255 0.959 . S
C3249 H3256 0.961 . S
C3249 H3257 0.960 . S
C3250 C3248 1.381 . S
C3250 C3251 1.394 . S
C3250 H3258 0.930 . S
C3251 C3250 1.394 . S
C3251 C3252 1.383 . S
C3251 H3259 0.929 . S
C3252 C3251 1.383 . S
C3252 C3253 1.377 . S
C3253 H3237 0.930 . S
C3253 C3252 1.377 . S
C3253 C3254 1.379 . S
C3254 H3238 0.931 . S
C3254 C3248 1.383 . S
C3254 C3253 1.379 . S
H3255 C3249 0.959 . S
H3256 C3249 0.961 . S
H3257 C3249 0.960 . S
H3258 C3250 0.930 . S
H3259 C3251 0.929 . S
H3260 C3268 0.929 . S
H3261 C3270 0.930 . S
H3262 C3272 0.930 . S
H3263 C3275 0.929 . S
H3264 C3278 0.930 . S
H3265 C3280 0.960 . S
H3266 C3280 0.960 . S
H3267 C3280 0.960 . S
C3268 H3260 0.929 . S
C3268 C3269 1.377 . S
C3268 C3270 1.384 . S
C3269 C3268 1.377 . S
C3269 C3275 1.390 . S
C3270 H3261 0.930 . S
C3270 C3268 1.384 . S
C3270 C3271 1.372 . S
C3271 C3270 1.372 . S
C3271 C3272 1.400 . S
C3271 C3276 1.490 . S
C3272 H3262 0.930 . S
C3272 C3271 1.400 . S
C3272 C3275 1.386 . S
H3273 C3289 0.930 . S
H3274 C3290 0.931 . S
C3275 H3263 0.929 . S
C3275 C3269 1.390 . S
C3275 C3272 1.386 . S
C3276 C3271 1.490 . S
C3276 C3278 1.395 . S
C3276 C3279 1.403 . S
H3277 C3283 0.930 . S
C3278 H3264 0.930 . S
C3278 C3276 1.395 . S
C3278 C3281 1.403 . S
C3279 C3276 1.403 . S
C3279 C3280 1.524 . S
C3279 C3283 1.400 . S
C3280 H3265 0.960 . S
C3280 H3266 0.960 . S
C3280 H3267 0.960 . S
C3280 C3279 1.524 . S
C3281 C3278 1.403 . S
C3281 C3282 1.392 . S
C3281 C3285 1.495 . S
C3282 C3281 1.392 . S
C3282 C3283 1.385 . S
C3282 C3284 1.478 . S
C3283 H3277 0.930 . S
C3283 C3279 1.400 . S
C3283 C3282 1.385 . S
C3284 C3282 1.478 . S
C3284 C3286 1.381 . S
C3284 C3290 1.383 . S
C3285 C3281 1.495 . S
C3285 H3291 0.959 . S
C3285 H3292 0.961 . S
C3285 H3293 0.960 . S
C3286 C3284 1.381 . S
C3286 C3287 1.394 . S
C3286 H3294 0.930 . S
C3287 C3286 1.394 . S
C3287 C3288 1.383 . S
C3287 H3295 0.929 . S
C3288 C3287 1.383 . S
C3288 C3289 1.377 . S
C3289 H3273 0.930 . S
C3289 C3288 1.377 . S
C3289 C3290 1.379 . S
C3290 H3274 0.931 . S
C3290 C3284 1.383 . S
C3290 C3289 1.379 . S
H3291 C3285 0.959 . S
H3292 C3285 0.961 . S
H3293 C3285 0.960 . S
H3294 C3286 0.930 . S
H3295 C3287 0.929 . S
H3296 C3304 0.929 . S
H3297 C3306 0.930 . S
H3298 C3308 0.930 . S
H3299 C3311 0.929 . S
H3300 C3314 0.930 . S
H3301 C3316 0.960 . S
H3302 C3316 0.960 . S
H3303 C3316 0.960 . S
C3304 H3296 0.929 . S
C3304 C3305 1.377 . S
C3304 C3306 1.384 . S
C3305 C3304 1.377 . S
C3305 C3311 1.390 . S
C3306 H3297 0.930 . S
C3306 C3304 1.384 . S
C3306 C3307 1.372 . S
C3307 C3306 1.372 . S
C3307 C3308 1.400 . S
C3307 C3312 1.490 . S
C3308 H3298 0.930 . S
C3308 C3307 1.400 . S
C3308 C3311 1.386 . S
H3309 C3325 0.930 . S
H3310 C3326 0.931 . S
C3311 H3299 0.929 . S
C3311 C3305 1.390 . S
C3311 C3308 1.386 . S
C3312 C3307 1.490 . S
C3312 C3314 1.395 . S
C3312 C3315 1.403 . S
H3313 C3319 0.930 . S
C3314 H3300 0.930 . S
C3314 C3312 1.395 . S
C3314 C3317 1.403 . S
C3315 C3312 1.403 . S
C3315 C3316 1.524 . S
C3315 C3319 1.400 . S
C3316 H3301 0.960 . S
C3316 H3302 0.960 . S
C3316 H3303 0.960 . S
C3316 C3315 1.524 . S
C3317 C3314 1.403 . S
C3317 C3318 1.392 . S
C3317 C3321 1.495 . S
C3318 C3317 1.392 . S
C3318 C3319 1.385 . S
C3318 C3320 1.478 . S
C3319 H3313 0.930 . S
C3319 C3315 1.400 . S
C3319 C3318 1.385 . S
C3320 C3318 1.478 . S
C3320 C3322 1.381 . S
C3320 C3326 1.383 . S
C3321 C3317 1.495 . S
C3321 H3327 0.959 . S
C3321 H3328 0.961 . S
C3321 H3329 0.960 . S
C3322 C3320 1.381 . S
C3322 C3323 1.394 . S
C3322 H3330 0.930 . S
C3323 C3322 1.394 . S
C3323 C3324 1.383 . S
C3323 H3331 0.929 . S
C3324 C3323 1.383 . S
C3324 C3325 1.377 . S
C3325 H3309 0.930 . S
C3325 C3324 1.377 . S
C3325 C3326 1.379 . S
C3326 H3310 0.931 . S
C3326 C3320 1.383 . S
C3326 C3325 1.379 . S
H3327 C3321 0.959 . S
H3328 C3321 0.961 . S
H3329 C3321 0.960 . S
H3330 C3322 0.930 . S
H3331 C3323 0.929 . S
H3332 C3340 0.929 . S
H3333 C3342 0.930 . S
H3334 C3344 0.930 . S
H3335 C3347 0.929 . S
H3336 C3350 0.930 . S
H3337 C3352 0.960 . S
H3338 C3352 0.960 . S
H3339 C3352 0.960 . S
C3340 H3332 0.929 . S
C3340 C3341 1.377 . S
C3340 C3342 1.384 . S
C3341 C3340 1.377 . S
C3341 C3347 1.390 . S
C3342 H3333 0.930 . S
C3342 C3340 1.384 . S
C3342 C3343 1.372 . S
C3343 C3342 1.372 . S
C3343 C3344 1.400 . S
C3343 C3348 1.490 . S
C3344 H3334 0.930 . S
C3344 C3343 1.400 . S
C3344 C3347 1.386 . S
H3345 C3361 0.930 . S
H3346 C3362 0.931 . S
C3347 H3335 0.929 . S
C3347 C3341 1.390 . S
C3347 C3344 1.386 . S
C3348 C3343 1.490 . S
C3348 C3350 1.395 . S
C3348 C3351 1.403 . S
H3349 C3355 0.930 . S
C3350 H3336 0.930 . S
C3350 C3348 1.395 . S
C3350 C3353 1.403 . S
C3351 C3348 1.403 . S
C3351 C3352 1.524 . S
C3351 C3355 1.400 . S
C3352 H3337 0.960 . S
C3352 H3338 0.960 . S
C3352 H3339 0.960 . S
C3352 C3351 1.524 . S
C3353 C3350 1.403 . S
C3353 C3354 1.392 . S
C3353 C3357 1.495 . S
C3354 C3353 1.392 . S
C3354 C3355 1.385 . S
C3354 C3356 1.478 . S
C3355 H3349 0.930 . S
C3355 C3351 1.400 . S
C3355 C3354 1.385 . S
C3356 C3354 1.478 . S
C3356 C3358 1.381 . S
C3356 C3362 1.383 . S
C3357 C3353 1.495 . S
C3357 H3363 0.959 . S
C3357 H3364 0.961 . S
C3357 H3365 0.960 . S
C3358 C3356 1.381 . S
C3358 C3359 1.394 . S
C3358 H3366 0.930 . S
C3359 C3358 1.394 . S
C3359 C3360 1.383 . S
C3359 H3367 0.929 . S
C3360 C3359 1.383 . S
C3360 C3361 1.377 . S
C3361 H3345 0.930 . S
C3361 C3360 1.377 . S
C3361 C3362 1.379 . S
C3362 H3346 0.931 . S
C3362 C3356 1.383 . S
C3362 C3361 1.379 . S
H3363 C3357 0.959 . S
H3364 C3357 0.961 . S
H3365 C3357 0.960 . S
H3366 C3358 0.930 . S
H3367 C3359 0.929 . S
H3368 C3376 0.929 . S
H3369 C3378 0.930 . S
H3370 C3380 0.930 . S
H3371 C3383 0.929 . S
H3372 C3386 0.930 . S
H3373 C3388 0.960 . S
H3374 C3388 0.960 . S
H3375 C3388 0.960 . S
C3376 H3368 0.929 . S
C3376 C3377 1.377 . S
C3376 C3378 1.384 . S
C3377 C3376 1.377 . S
C3377 C3383 1.390 . S
C3378 H3369 0.930 . S
C3378 C3376 1.384 . S
C3378 C3379 1.372 . S
C3379 C3378 1.372 . S
C3379 C3380 1.400 . S
C3379 C3384 1.490 . S
C3380 H3370 0.930 . S
C3380 C3379 1.400 . S
C3380 C3383 1.386 . S
H3381 C3397 0.930 . S
H3382 C3398 0.931 . S
C3383 H3371 0.929 . S
C3383 C3377 1.390 . S
C3383 C3380 1.386 . S
C3384 C3379 1.490 . S
C3384 C3386 1.395 . S
C3384 C3387 1.403 . S
H3385 C3391 0.930 . S
C3386 H3372 0.930 . S
C3386 C3384 1.395 . S
C3386 C3389 1.403 . S
C3387 C3384 1.403 . S
C3387 C3388 1.524 . S
C3387 C3391 1.400 . S
C3388 H3373 0.960 . S
C3388 H3374 0.960 . S
C3388 H3375 0.960 . S
C3388 C3387 1.524 . S
C3389 C3386 1.403 . S
C3389 C3390 1.392 . S
C3389 C3393 1.495 . S
C3390 C3389 1.392 . S
C3390 C3391 1.385 . S
C3390 C3392 1.478 . S
C3391 H3385 0.930 . S
C3391 C3387 1.400 . S
C3391 C3390 1.385 . S
C3392 C3390 1.478 . S
C3392 C3394 1.381 . S
C3392 C3398 1.383 . S
C3393 C3389 1.495 . S
C3393 H3399 0.959 . S
C3393 H3400 0.961 . S
C3393 H3401 0.960 . S
C3394 C3392 1.381 . S
C3394 C3395 1.394 . S
C3394 H3402 0.930 . S
C3395 C3394 1.394 . S
C3395 C3396 1.383 . S
C3395 H3403 0.929 . S
C3396 C3395 1.383 . S
C3396 C3397 1.377 . S
C3397 H3381 0.930 . S
C3397 C3396 1.377 . S
C3397 C3398 1.379 . S
C3398 H3382 0.931 . S
C3398 C3392 1.383 . S
C3398 C3397 1.379 . S
H3399 C3393 0.959 . S
H3400 C3393 0.961 . S
H3401 C3393 0.960 . S
H3402 C3394 0.930 . S
H3403 C3395 0.929 . S
H3404 C3412 0.929 . S
H3405 C3414 0.930 . S
H3406 C3416 0.930 . S
H3407 C3419 0.929 . S
H3408 C3422 0.930 . S
H3409 C3424 0.960 . S
H3410 C3424 0.960 . S
H3411 C3424 0.960 . S
C3412 H3404 0.929 . S
C3412 C3413 1.377 . S
C3412 C3414 1.384 . S
C3413 C3412 1.377 . S
C3413 C3419 1.390 . S
C3414 H3405 0.930 . S
C3414 C3412 1.384 . S
C3414 C3415 1.372 . S
C3415 C3414 1.372 . S
C3415 C3416 1.400 . S
C3415 C3420 1.490 . S
C3416 H3406 0.930 . S
C3416 C3415 1.400 . S
C3416 C3419 1.386 . S
H3417 C3433 0.930 . S
H3418 C3434 0.931 . S
C3419 H3407 0.929 . S
C3419 C3413 1.390 . S
C3419 C3416 1.386 . S
C3420 C3415 1.490 . S
C3420 C3422 1.395 . S
C3420 C3423 1.403 . S
H3421 C3427 0.930 . S
C3422 H3408 0.930 . S
C3422 C3420 1.395 . S
C3422 C3425 1.403 . S
C3423 C3420 1.403 . S
C3423 C3424 1.524 . S
C3423 C3427 1.400 . S
C3424 H3409 0.960 . S
C3424 H3410 0.960 . S
C3424 H3411 0.960 . S
C3424 C3423 1.524 . S
C3425 C3422 1.403 . S
C3425 C3426 1.392 . S
C3425 C3429 1.495 . S
C3426 C3425 1.392 . S
C3426 C3427 1.385 . S
C3426 C3428 1.478 . S
C3427 H3421 0.930 . S
C3427 C3423 1.400 . S
C3427 C3426 1.385 . S
C3428 C3426 1.478 . S
C3428 C3430 1.381 . S
C3428 C3434 1.383 . S
C3429 C3425 1.495 . S
C3429 H3435 0.959 . S
C3429 H3436 0.961 . S
C3429 H3437 0.960 . S
C3430 C3428 1.381 . S
C3430 C3431 1.394 . S
C3430 H3438 0.930 . S
C3431 C3430 1.394 . S
C3431 C3432 1.383 . S
C3431 H3439 0.929 . S
C3432 C3431 1.383 . S
C3432 C3433 1.377 . S
C3433 H3417 0.930 . S
C3433 C3432 1.377 . S
C3433 C3434 1.379 . S
C3434 H3418 0.931 . S
C3434 C3428 1.383 . S
C3434 C3433 1.379 . S
H3435 C3429 0.959 . S
H3436 C3429 0.961 . S
H3437 C3429 0.960 . S
H3438 C3430 0.930 . S
H3439 C3431 0.929 . S
H3440 C3448 0.929 . S
H3441 C3450 0.930 . S
H3442 C3452 0.930 . S
H3443 C3455 0.929 . S
H3444 C3458 0.930 . S
H3445 C3460 0.960 . S
H3446 C3460 0.960 . S
H3447 C3460 0.960 . S
C3448 H3440 0.929 . S
C3448 C3449 1.377 . S
C3448 C3450 1.384 . S
C3449 C3448 1.377 . S
C3449 C3455 1.390 . S
C3450 H3441 0.930 . S
C3450 C3448 1.384 . S
C3450 C3451 1.372 . S
C3451 C3450 1.372 . S
C3451 C3452 1.400 . S
C3451 C3456 1.490 . S
C3452 H3442 0.930 . S
C3452 C3451 1.400 . S
C3452 C3455 1.386 . S
H3453 C3469 0.930 . S
H3454 C3470 0.931 . S
C3455 H3443 0.929 . S
C3455 C3449 1.390 . S
C3455 C3452 1.386 . S
C3456 C3451 1.490 . S
C3456 C3458 1.395 . S
C3456 C3459 1.403 . S
H3457 C3463 0.930 . S
C3458 H3444 0.930 . S
C3458 C3456 1.395 . S
C3458 C3461 1.403 . S
C3459 C3456 1.403 . S
C3459 C3460 1.524 . S
C3459 C3463 1.400 . S
C3460 H3445 0.960 . S
C3460 H3446 0.960 . S
C3460 H3447 0.960 . S
C3460 C3459 1.524 . S
C3461 C3458 1.403 . S
C3461 C3462 1.392 . S
C3461 C3465 1.495 . S
C3462 C3461 1.392 . S
C3462 C3463 1.385 . S
C3462 C3464 1.478 . S
C3463 H3457 0.930 . S
C3463 C3459 1.400 . S
C3463 C3462 1.385 . S
C3464 C3462 1.478 . S
C3464 C3466 1.381 . S
C3464 C3470 1.383 . S
C3465 C3461 1.495 . S
C3465 H3471 0.959 . S
C3465 H3472 0.961 . S
C3465 H3473 0.960 . S
C3466 C3464 1.381 . S
C3466 C3467 1.394 . S
C3466 H3474 0.930 . S
C3467 C3466 1.394 . S
C3467 C3468 1.383 . S
C3467 H3475 0.929 . S
C3468 C3467 1.383 . S
C3468 C3469 1.377 . S
C3469 H3453 0.930 . S
C3469 C3468 1.377 . S
C3469 C3470 1.379 . S
C3470 H3454 0.931 . S
C3470 C3464 1.383 . S
C3470 C3469 1.379 . S
H3471 C3465 0.959 . S
H3472 C3465 0.961 . S
H3473 C3465 0.960 . S
H3474 C3466 0.930 . S
H3475 C3467 0.929 . S
H3476 C3484 0.929 . S
H3477 C3486 0.930 . S
H3478 C3488 0.930 . S
H3479 C3491 0.929 . S
H3480 C3494 0.930 . S
H3481 C3496 0.960 . S
H3482 C3496 0.960 . S
H3483 C3496 0.960 . S
C3484 H3476 0.929 . S
C3484 C3485 1.377 . S
C3484 C3486 1.384 . S
C3485 C3484 1.377 . S
C3485 C3491 1.390 . S
C3486 H3477 0.930 . S
C3486 C3484 1.384 . S
C3486 C3487 1.372 . S
C3487 C3486 1.372 . S
C3487 C3488 1.400 . S
C3487 C3492 1.490 . S
C3488 H3478 0.930 . S
C3488 C3487 1.400 . S
C3488 C3491 1.386 . S
H3489 C3505 0.930 . S
H3490 C3506 0.931 . S
C3491 H3479 0.929 . S
C3491 C3485 1.390 . S
C3491 C3488 1.386 . S
C3492 C3487 1.490 . S
C3492 C3494 1.395 . S
C3492 C3495 1.403 . S
H3493 C3499 0.930 . S
C3494 H3480 0.930 . S
C3494 C3492 1.395 . S
C3494 C3497 1.403 . S
C3495 C3492 1.403 . S
C3495 C3496 1.524 . S
C3495 C3499 1.400 . S
C3496 H3481 0.960 . S
C3496 H3482 0.960 . S
C3496 H3483 0.960 . S
C3496 C3495 1.524 . S
C3497 C3494 1.403 . S
C3497 C3498 1.392 . S
C3497 C3501 1.495 . S
C3498 C3497 1.392 . S
C3498 C3499 1.385 . S
C3498 C3500 1.478 . S
C3499 H3493 0.930 . S
C3499 C3495 1.400 . S
C3499 C3498 1.385 . S
C3500 C3498 1.478 . S
C3500 C3502 1.381 . S
C3500 C3506 1.383 . S
C3501 C3497 1.495 . S
C3501 H3507 0.959 . S
C3501 H3508 0.961 . S
C3501 H3509 0.960 . S
C3502 C3500 1.381 . S
C3502 C3503 1.394 . S
C3502 H3510 0.930 . S
C3503 C3502 1.394 . S
C3503 C3504 1.383 . S
C3503 H3511 0.929 . S
C3504 C3503 1.383 . S
C3504 C3505 1.377 . S
C3505 H3489 0.930 . S
C3505 C3504 1.377 . S
C3505 C3506 1.379 . S
C3506 H3490 0.931 . S
C3506 C3500 1.383 . S
C3506 C3505 1.379 . S
H3507 C3501 0.959 . S
H3508 C3501 0.961 . S
H3509 C3501 0.960 . S
H3510 C3502 0.930 . S
H3511 C3503 0.929 . S
H3512 C3520 0.929 . S
H3513 C3522 0.930 . S
H3514 C3524 0.930 . S
H3515 C3527 0.929 . S
H3516 C3530 0.930 . S
H3517 C3532 0.960 . S
H3518 C3532 0.960 . S
H3519 C3532 0.960 . S
C3520 H3512 0.929 . S
C3520 C3521 1.377 . S
C3520 C3522 1.384 . S
C3521 C3520 1.377 . S
C3521 C3527 1.390 . S
C3522 H3513 0.930 . S
C3522 C3520 1.384 . S
C3522 C3523 1.372 . S
C3523 C3522 1.372 . S
C3523 C3524 1.400 . S
C3523 C3528 1.490 . S
C3524 H3514 0.930 . S
C3524 C3523 1.400 . S
C3524 C3527 1.386 . S
H3525 C3541 0.930 . S
H3526 C3542 0.931 . S
C3527 H3515 0.929 . S
C3527 C3521 1.390 . S
C3527 C3524 1.386 . S
C3528 C3523 1.490 . S
C3528 C3530 1.395 . S
C3528 C3531 1.403 . S
H3529 C3535 0.930 . S
C3530 H3516 0.930 . S
C3530 C3528 1.395 . S
C3530 C3533 1.403 . S
C3531 C3528 1.403 . S
C3531 C3532 1.524 . S
C3531 C3535 1.400 . S
C3532 H3517 0.960 . S
C3532 H3518 0.960 . S
C3532 H3519 0.960 . S
C3532 C3531 1.524 . S
C3533 C3530 1.403 . S
C3533 C3534 1.392 . S
C3533 C3537 1.495 . S
C3534 C3533 1.392 . S
C3534 C3535 1.385 . S
C3534 C3536 1.478 . S
C3535 H3529 0.930 . S
C3535 C3531 1.400 . S
C3535 C3534 1.385 . S
C3536 C3534 1.478 . S
C3536 C3538 1.381 . S
C3536 C3542 1.383 . S
C3537 C3533 1.495 . S
C3537 H3543 0.959 . S
C3537 H3544 0.961 . S
C3537 H3545 0.960 . S
C3538 C3536 1.381 . S
C3538 C3539 1.394 . S
C3538 H3546 0.930 . S
C3539 C3538 1.394 . S
C3539 C3540 1.383 . S
C3539 H3547 0.929 . S
C3540 C3539 1.383 . S
C3540 C3541 1.377 . S
C3541 H3525 0.930 . S
C3541 C3540 1.377 . S
C3541 C3542 1.379 . S
C3542 H3526 0.931 . S
C3542 C3536 1.383 . S
C3542 C3541 1.379 . S
H3543 C3537 0.959 . S
H3544 C3537 0.961 . S
H3545 C3537 0.960 . S
H3546 C3538 0.930 . S
H3547 C3539 0.929 . S
H3548 C3556 0.929 . S
H3549 C3558 0.930 . S
H3550 C3560 0.930 . S
H3551 C3563 0.929 . S
H3552 C3566 0.930 . S
H3553 C3568 0.960 . S
H3554 C3568 0.960 . S
H3555 C3568 0.960 . S
C3556 H3548 0.929 . S
C3556 C3557 1.377 . S
C3556 C3558 1.384 . S
C3557 C3556 1.377 . S
C3557 C3563 1.390 . S
C3558 H3549 0.930 . S
C3558 C3556 1.384 . S
C3558 C3559 1.372 . S
C3559 C3558 1.372 . S
C3559 C3560 1.400 . S
C3559 C3564 1.490 . S
C3560 H3550 0.930 . S
C3560 C3559 1.400 . S
C3560 C3563 1.386 . S
H3561 C3577 0.930 . S
H3562 C3578 0.931 . S
C3563 H3551 0.929 . S
C3563 C3557 1.390 . S
C3563 C3560 1.386 . S
C3564 C3559 1.490 . S
C3564 C3566 1.395 . S
C3564 C3567 1.403 . S
H3565 C3571 0.930 . S
C3566 H3552 0.930 . S
C3566 C3564 1.395 . S
C3566 C3569 1.403 . S
C3567 C3564 1.403 . S
C3567 C3568 1.524 . S
C3567 C3571 1.400 . S
C3568 H3553 0.960 . S
C3568 H3554 0.960 . S
C3568 H3555 0.960 . S
C3568 C3567 1.524 . S
C3569 C3566 1.403 . S
C3569 C3570 1.392 . S
C3569 C3573 1.495 . S
C3570 C3569 1.392 . S
C3570 C3571 1.385 . S
C3570 C3572 1.478 . S
C3571 H3565 0.930 . S
C3571 C3567 1.400 . S
C3571 C3570 1.385 . S
C3572 C3570 1.478 . S
C3572 C3574 1.381 . S
C3572 C3578 1.383 . S
C3573 C3569 1.495 . S
C3573 H3579 0.959 . S
C3573 H3580 0.961 . S
C3573 H3581 0.960 . S
C3574 C3572 1.381 . S
C3574 C3575 1.394 . S
C3574 H3582 0.930 . S
C3575 C3574 1.394 . S
C3575 C3576 1.383 . S
C3575 H3583 0.929 . S
C3576 C3575 1.383 . S
C3576 C3577 1.377 . S
C3577 H3561 0.930 . S
C3577 C3576 1.377 . S
C3577 C3578 1.379 . S
C3578 H3562 0.931 . S
C3578 C3572 1.383 . S
C3578 C3577 1.379 . S
H3579 C3573 0.959 . S
H3580 C3573 0.961 . S
H3581 C3573 0.960 . S
H3582 C3574 0.930 . S
H3583 C3575 0.929 . S
H3584 C3592 0.929 . S
H3585 C3594 0.930 . S
H3586 C3596 0.930 . S
H3587 C3599 0.929 . S
H3588 C3602 0.930 . S
H3589 C3604 0.960 . S
H3590 C3604 0.960 . S
H3591 C3604 0.960 . S
C3592 H3584 0.929 . S
C3592 C3593 1.377 . S
C3592 C3594 1.384 . S
C3593 C3592 1.377 . S
C3593 C3599 1.390 . S
C3594 H3585 0.930 . S
C3594 C3592 1.384 . S
C3594 C3595 1.372 . S
C3595 C3594 1.372 . S
C3595 C3596 1.400 . S
C3595 C3600 1.490 . S
C3596 H3586 0.930 . S
C3596 C3595 1.400 . S
C3596 C3599 1.386 . S
H3597 C3613 0.930 . S
H3598 C3614 0.931 . S
C3599 H3587 0.929 . S
C3599 C3593 1.390 . S
C3599 C3596 1.386 . S
C3600 C3595 1.490 . S
C3600 C3602 1.395 . S
C3600 C3603 1.403 . S
H3601 C3607 0.930 . S
C3602 H3588 0.930 . S
C3602 C3600 1.395 . S
C3602 C3605 1.403 . S
C3603 C3600 1.403 . S
C3603 C3604 1.524 . S
C3603 C3607 1.400 . S
C3604 H3589 0.960 . S
C3604 H3590 0.960 . S
C3604 H3591 0.960 . S
C3604 C3603 1.524 . S
C3605 C3602 1.403 . S
C3605 C3606 1.392 . S
C3605 C3609 1.495 . S
C3606 C3605 1.392 . S
C3606 C3607 1.385 . S
C3606 C3608 1.478 . S
C3607 H3601 0.930 . S
C3607 C3603 1.400 . S
C3607 C3606 1.385 . S
C3608 C3606 1.478 . S
C3608 C3610 1.381 . S
C3608 C3614 1.383 . S
C3609 C3605 1.495 . S
C3609 H3615 0.959 . S
C3609 H3616 0.961 . S
C3609 H3617 0.960 . S
C3610 C3608 1.381 . S
C3610 C3611 1.394 . S
C3610 H3618 0.930 . S
C3611 C3610 1.394 . S
C3611 C3612 1.383 . S
C3611 H3619 0.929 . S
C3612 C3611 1.383 . S
C3612 C3613 1.377 . S
C3613 H3597 0.930 . S
C3613 C3612 1.377 . S
C3613 C3614 1.379 . S
C3614 H3598 0.931 . S
C3614 C3608 1.383 . S
C3614 C3613 1.379 . S
H3615 C3609 0.959 . S
H3616 C3609 0.961 . S
H3617 C3609 0.960 . S
H3618 C3610 0.930 . S
H3619 C3611 0.929 . S
H3620 C3628 0.929 . S
H3621 C3630 0.930 . S
H3622 C3632 0.930 . S
H3623 C3635 0.929 . S
H3624 C3638 0.930 . S
H3625 C3640 0.960 . S
H3626 C3640 0.960 . S
H3627 C3640 0.960 . S
C3628 H3620 0.929 . S
C3628 C3629 1.377 . S
C3628 C3630 1.384 . S
C3629 C3628 1.377 . S
C3629 C3635 1.390 . S
C3630 H3621 0.930 . S
C3630 C3628 1.384 . S
C3630 C3631 1.372 . S
C3631 C3630 1.372 . S
C3631 C3632 1.400 . S
C3631 C3636 1.490 . S
C3632 H3622 0.930 . S
C3632 C3631 1.400 . S
C3632 C3635 1.386 . S
H3633 C3649 0.930 . S
H3634 C3650 0.931 . S
C3635 H3623 0.929 . S
C3635 C3629 1.390 . S
C3635 C3632 1.386 . S
C3636 C3631 1.490 . S
C3636 C3638 1.395 . S
C3636 C3639 1.403 . S
H3637 C3643 0.930 . S
C3638 H3624 0.930 . S
C3638 C3636 1.395 . S
C3638 C3641 1.403 . S
C3639 C3636 1.403 . S
C3639 C3640 1.524 . S
C3639 C3643 1.400 . S
C3640 H3625 0.960 . S
C3640 H3626 0.960 . S
C3640 H3627 0.960 . S
C3640 C3639 1.524 . S
C3641 C3638 1.403 . S
C3641 C3642 1.392 . S
C3641 C3645 1.495 . S
C3642 C3641 1.392 . S
C3642 C3643 1.385 . S
C3642 C3644 1.478 . S
C3643 H3637 0.930 . S
C3643 C3639 1.400 . S
C3643 C3642 1.385 . S
C3644 C3642 1.478 . S
C3644 C3646 1.381 . S
C3644 C3650 1.383 . S
C3645 C3641 1.495 . S
C3645 H3651 0.959 . S
C3645 H3652 0.961 . S
C3645 H3653 0.960 . S
C3646 C3644 1.381 . S
C3646 C3647 1.394 . S
C3646 H3654 0.930 . S
C3647 C3646 1.394 . S
C3647 C3648 1.383 . S
C3647 H3655 0.929 . S
C3648 C3647 1.383 . S
C3648 C3649 1.377 . S
C3649 H3633 0.930 . S
C3649 C3648 1.377 . S
C3649 C3650 1.379 . S
C3650 H3634 0.931 . S
C3650 C3644 1.383 . S
C3650 C3649 1.379 . S
H3651 C3645 0.959 . S
H3652 C3645 0.961 . S
H3653 C3645 0.960 . S
H3654 C3646 0.930 . S
H3655 C3647 0.929 . S
H3656 C3664 0.929 . S
H3657 C3666 0.930 . S
H3658 C3668 0.930 . S
H3659 C3671 0.929 . S
H3660 C3674 0.930 . S
H3661 C3676 0.960 . S
H3662 C3676 0.960 . S
H3663 C3676 0.960 . S
C3664 H3656 0.929 . S
C3664 C3665 1.377 . S
C3664 C3666 1.384 . S
C3665 C3664 1.377 . S
C3665 C3671 1.390 . S
C3666 H3657 0.930 . S
C3666 C3664 1.384 . S
C3666 C3667 1.372 . S
C3667 C3666 1.372 . S
C3667 C3668 1.400 . S
C3667 C3672 1.490 . S
C3668 H3658 0.930 . S
C3668 C3667 1.400 . S
C3668 C3671 1.386 . S
H3669 C3685 0.930 . S
H3670 C3686 0.931 . S
C3671 H3659 0.929 . S
C3671 C3665 1.390 . S
C3671 C3668 1.386 . S
C3672 C3667 1.490 . S
C3672 C3674 1.395 . S
C3672 C3675 1.403 . S
H3673 C3679 0.930 . S
C3674 H3660 0.930 . S
C3674 C3672 1.395 . S
C3674 C3677 1.403 . S
C3675 C3672 1.403 . S
C3675 C3676 1.524 . S
C3675 C3679 1.400 . S
C3676 H3661 0.960 . S
C3676 H3662 0.960 . S
C3676 H3663 0.960 . S
C3676 C3675 1.524 . S
C3677 C3674 1.403 . S
C3677 C3678 1.392 . S
C3677 C3681 1.495 . S
C3678 C3677 1.392 . S
C3678 C3679 1.385 . S
C3678 C3680 1.478 . S
C3679 H3673 0.930 . S
C3679 C3675 1.400 . S
C3679 C3678 1.385 . S
C3680 C3678 1.478 . S
C3680 C3682 1.381 . S
C3680 C3686 1.383 . S
C3681 C3677 1.495 . S
C3681 H3687 0.959 . S
C3681 H3688 0.961 . S
C3681 H3689 0.960 . S
C3682 C3680 1.381 . S
C3682 C3683 1.394 . S
C3682 H3690 0.930 . S
C3683 C3682 1.394 . S
C3683 C3684 1.383 . S
C3683 H3691 0.929 . S
C3684 C3683 1.383 . S
C3684 C3685 1.377 . S
C3685 H3669 0.930 . S
C3685 C3684 1.377 . S
C3685 C3686 1.379 . S
C3686 H3670 0.931 . S
C3686 C3680 1.383 . S
C3686 C3685 1.379 . S
H3687 C3681 0.959 . S
H3688 C3681 0.961 . S
H3689 C3681 0.960 . S
H3690 C3682 0.930 . S
H3691 C3683 0.929 . S
H3692 C3700 0.929 . S
H3693 C3702 0.930 . S
H3694 C3704 0.930 . S
H3695 C3707 0.929 . S
H3696 C3710 0.930 . S
H3697 C3712 0.960 . S
H3698 C3712 0.960 . S
H3699 C3712 0.960 . S
C3700 H3692 0.929 . S
C3700 C3701 1.377 . S
C3700 C3702 1.384 . S
C3701 C3700 1.377 . S
C3701 C3707 1.390 . S
C3702 H3693 0.930 . S
C3702 C3700 1.384 . S
C3702 C3703 1.372 . S
C3703 C3702 1.372 . S
C3703 C3704 1.400 . S
C3703 C3708 1.490 . S
C3704 H3694 0.930 . S
C3704 C3703 1.400 . S
C3704 C3707 1.386 . S
H3705 C3721 0.930 . S
H3706 C3722 0.931 . S
C3707 H3695 0.929 . S
C3707 C3701 1.390 . S
C3707 C3704 1.386 . S
C3708 C3703 1.490 . S
C3708 C3710 1.395 . S
C3708 C3711 1.403 . S
H3709 C3715 0.930 . S
C3710 H3696 0.930 . S
C3710 C3708 1.395 . S
C3710 C3713 1.403 . S
C3711 C3708 1.403 . S
C3711 C3712 1.524 . S
C3711 C3715 1.400 . S
C3712 H3697 0.960 . S
C3712 H3698 0.960 . S
C3712 H3699 0.960 . S
C3712 C3711 1.524 . S
C3713 C3710 1.403 . S
C3713 C3714 1.392 . S
C3713 C3717 1.495 . S
C3714 C3713 1.392 . S
C3714 C3715 1.385 . S
C3714 C3716 1.478 . S
C3715 H3709 0.930 . S
C3715 C3711 1.400 . S
C3715 C3714 1.385 . S
C3716 C3714 1.478 . S
C3716 C3718 1.381 . S
C3716 C3722 1.383 . S
C3717 C3713 1.495 . S
C3717 H3723 0.959 . S
C3717 H3724 0.961 . S
C3717 H3725 0.960 . S
C3718 C3716 1.381 . S
C3718 C3719 1.394 . S
C3718 H3726 0.930 . S
C3719 C3718 1.394 . S
C3719 C3720 1.383 . S
C3719 H3727 0.929 . S
C3720 C3719 1.383 . S
C3720 C3721 1.377 . S
C3721 H3705 0.930 . S
C3721 C3720 1.377 . S
C3721 C3722 1.379 . S
C3722 H3706 0.931 . S
C3722 C3716 1.383 . S
C3722 C3721 1.379 . S
H3723 C3717 0.959 . S
H3724 C3717 0.961 . S
H3725 C3717 0.960 . S
H3726 C3718 0.930 . S
H3727 C3719 0.929 . S
H3728 C3736 0.929 . S
H3729 C3738 0.930 . S
H3730 C3740 0.930 . S
H3731 C3743 0.929 . S
H3732 C3746 0.930 . S
H3733 C3748 0.960 . S
H3734 C3748 0.960 . S
H3735 C3748 0.960 . S
C3736 H3728 0.929 . S
C3736 C3737 1.377 . S
C3736 C3738 1.384 . S
C3737 C3736 1.377 . S
C3737 C3743 1.390 . S
C3738 H3729 0.930 . S
C3738 C3736 1.384 . S
C3738 C3739 1.372 . S
C3739 C3738 1.372 . S
C3739 C3740 1.400 . S
C3739 C3744 1.490 . S
C3740 H3730 0.930 . S
C3740 C3739 1.400 . S
C3740 C3743 1.386 . S
H3741 C3757 0.930 . S
H3742 C3758 0.931 . S
C3743 H3731 0.929 . S
C3743 C3737 1.390 . S
C3743 C3740 1.386 . S
C3744 C3739 1.490 . S
C3744 C3746 1.395 . S
C3744 C3747 1.403 . S
H3745 C3751 0.930 . S
C3746 H3732 0.930 . S
C3746 C3744 1.395 . S
C3746 C3749 1.403 . S
C3747 C3744 1.403 . S
C3747 C3748 1.524 . S
C3747 C3751 1.400 . S
C3748 H3733 0.960 . S
C3748 H3734 0.960 . S
C3748 H3735 0.960 . S
C3748 C3747 1.524 . S
C3749 C3746 1.403 . S
C3749 C3750 1.392 . S
C3749 C3753 1.495 . S
C3750 C3749 1.392 . S
C3750 C3751 1.385 . S
C3750 C3752 1.478 . S
C3751 H3745 0.930 . S
C3751 C3747 1.400 . S
C3751 C3750 1.385 . S
C3752 C3750 1.478 . S
C3752 C3754 1.381 . S
C3752 C3758 1.383 . S
C3753 C3749 1.495 . S
C3753 H3759 0.959 . S
C3753 H3760 0.961 . S
C3753 H3761 0.960 . S
C3754 C3752 1.381 . S
C3754 C3755 1.394 . S
C3754 H3762 0.930 . S
C3755 C3754 1.394 . S
C3755 C3756 1.383 . S
C3755 H3763 0.929 . S
C3756 C3755 1.383 . S
C3756 C3757 1.377 . S
C3757 H3741 0.930 . S
C3757 C3756 1.377 . S
C3757 C3758 1.379 . S
C3758 H3742 0.931 . S
C3758 C3752 1.383 . S
C3758 C3757 1.379 . S
H3759 C3753 0.959 . S
H3760 C3753 0.961 . S
H3761 C3753 0.960 . S
H3762 C3754 0.930 . S
H3763 C3755 0.929 . S
H3764 C3772 0.929 . S
H3765 C3774 0.930 . S
H3766 C3776 0.930 . S
H3767 C3779 0.929 . S
H3768 C3782 0.930 . S
H3769 C3784 0.960 . S
H3770 C3784 0.960 . S
H3771 C3784 0.960 . S
C3772 H3764 0.929 . S
C3772 C3773 1.377 . S
C3772 C3774 1.384 . S
C3773 C3772 1.377 . S
C3773 C3779 1.390 . S
C3774 H3765 0.930 . S
C3774 C3772 1.384 . S
C3774 C3775 1.372 . S
C3775 C3774 1.372 . S
C3775 C3776 1.400 . S
C3775 C3780 1.490 . S
C3776 H3766 0.930 . S
C3776 C3775 1.400 . S
C3776 C3779 1.386 . S
H3777 C3793 0.930 . S
H3778 C3794 0.931 . S
C3779 H3767 0.929 . S
C3779 C3773 1.390 . S
C3779 C3776 1.386 . S
C3780 C3775 1.490 . S
C3780 C3782 1.395 . S
C3780 C3783 1.403 . S
H3781 C3787 0.930 . S
C3782 H3768 0.930 . S
C3782 C3780 1.395 . S
C3782 C3785 1.403 . S
C3783 C3780 1.403 . S
C3783 C3784 1.524 . S
C3783 C3787 1.400 . S
C3784 H3769 0.960 . S
C3784 H3770 0.960 . S
C3784 H3771 0.960 . S
C3784 C3783 1.524 . S
C3785 C3782 1.403 . S
C3785 C3786 1.392 . S
C3785 C3789 1.495 . S
C3786 C3785 1.392 . S
C3786 C3787 1.385 . S
C3786 C3788 1.478 . S
C3787 H3781 0.930 . S
C3787 C3783 1.400 . S
C3787 C3786 1.385 . S
C3788 C3786 1.478 . S
C3788 C3790 1.381 . S
C3788 C3794 1.383 . S
C3789 C3785 1.495 . S
C3789 H3795 0.959 . S
C3789 H3796 0.961 . S
C3789 H3797 0.960 . S
C3790 C3788 1.381 . S
C3790 C3791 1.394 . S
C3790 H3798 0.930 . S
C3791 C3790 1.394 . S
C3791 C3792 1.383 . S
C3791 H3799 0.929 . S
C3792 C3791 1.383 . S
C3792 C3793 1.377 . S
C3793 H3777 0.930 . S
C3793 C3792 1.377 . S
C3793 C3794 1.379 . S
C3794 H3778 0.931 . S
C3794 C3788 1.383 . S
C3794 C3793 1.379 . S
H3795 C3789 0.959 . S
H3796 C3789 0.961 . S
H3797 C3789 0.960 . S
H3798 C3790 0.930 . S
H3799 C3791 0.929 . S
H3800 C3808 0.929 . S
H3801 C3810 0.930 . S
H3802 C3812 0.930 . S
H3803 C3815 0.929 . S
H3804 C3818 0.930 . S
H3805 C3820 0.960 . S
H3806 C3820 0.960 . S
H3807 C3820 0.960 . S
C3808 H3800 0.929 . S
C3808 C3809 1.377 . S
C3808 C3810 1.384 . S
C3809 C3808 1.377 . S
C3809 C3815 1.390 . S
C3810 H3801 0.930 . S
C3810 C3808 1.384 . S
C3810 C3811 1.372 . S
C3811 C3810 1.372 . S
C3811 C3812 1.400 . S
C3811 C3816 1.490 . S
C3812 H3802 0.930 . S
C3812 C3811 1.400 . S
C3812 C3815 1.386 . S
H3813 C3829 0.930 . S
H3814 C3830 0.931 . S
C3815 H3803 0.929 . S
C3815 C3809 1.390 . S
C3815 C3812 1.386 . S
C3816 C3811 1.490 . S
C3816 C3818 1.395 . S
C3816 C3819 1.403 . S
H3817 C3823 0.930 . S
C3818 H3804 0.930 . S
C3818 C3816 1.395 . S
C3818 C3821 1.403 . S
C3819 C3816 1.403 . S
C3819 C3820 1.524 . S
C3819 C3823 1.400 . S
C3820 H3805 0.960 . S
C3820 H3806 0.960 . S
C3820 H3807 0.960 . S
C3820 C3819 1.524 . S
C3821 C3818 1.403 . S
C3821 C3822 1.392 . S
C3821 C3825 1.495 . S
C3822 C3821 1.392 . S
C3822 C3823 1.385 . S
C3822 C3824 1.478 . S
C3823 H3817 0.930 . S
C3823 C3819 1.400 . S
C3823 C3822 1.385 . S
C3824 C3822 1.478 . S
C3824 C3826 1.381 . S
C3824 C3830 1.383 . S
C3825 C3821 1.495 . S
C3825 H3831 0.959 . S
C3825 H3832 0.961 . S
C3825 H3833 0.960 . S
C3826 C3824 1.381 . S
C3826 C3827 1.394 . S
C3826 H3834 0.930 . S
C3827 C3826 1.394 . S
C3827 C3828 1.383 . S
C3827 H3835 0.929 . S
C3828 C3827 1.383 . S
C3828 C3829 1.377 . S
C3829 H3813 0.930 . S
C3829 C3828 1.377 . S
C3829 C3830 1.379 . S
C3830 H3814 0.931 . S
C3830 C3824 1.383 . S
C3830 C3829 1.379 . S
H3831 C3825 0.959 . S
H3832 C3825 0.961 . S
H3833 C3825 0.960 . S
H3834 C3826 0.930 . S
H3835 C3827 0.929 . S
H3836 C3844 0.929 . S
H3837 C3846 0.930 . S
H3838 C3848 0.930 . S
H3839 C3851 0.929 . S
H3840 C3854 0.930 . S
H3841 C3856 0.960 . S
H3842 C3856 0.960 . S
H3843 C3856 0.960 . S
C3844 H3836 0.929 . S
C3844 C3845 1.377 . S
C3844 C3846 1.384 . S
C3845 C3844 1.377 . S
C3845 C3851 1.390 . S
C3846 H3837 0.930 . S
C3846 C3844 1.384 . S
C3846 C3847 1.372 . S
C3847 C3846 1.372 . S
C3847 C3848 1.400 . S
C3847 C3852 1.490 . S
C3848 H3838 0.930 . S
C3848 C3847 1.400 . S
C3848 C3851 1.386 . S
H3849 C3865 0.930 . S
H3850 C3866 0.931 . S
C3851 H3839 0.929 . S
C3851 C3845 1.390 . S
C3851 C3848 1.386 . S
C3852 C3847 1.490 . S
C3852 C3854 1.395 . S
C3852 C3855 1.403 . S
H3853 C3859 0.930 . S
C3854 H3840 0.930 . S
C3854 C3852 1.395 . S
C3854 C3857 1.403 . S
C3855 C3852 1.403 . S
C3855 C3856 1.524 . S
C3855 C3859 1.400 . S
C3856 H3841 0.960 . S
C3856 H3842 0.960 . S
C3856 H3843 0.960 . S
C3856 C3855 1.524 . S
C3857 C3854 1.403 . S
C3857 C3858 1.392 . S
C3857 C3861 1.495 . S
C3858 C3857 1.392 . S
C3858 C3859 1.385 . S
C3858 C3860 1.478 . S
C3859 H3853 0.930 . S
C3859 C3855 1.400 . S
C3859 C3858 1.385 . S
C3860 C3858 1.478 . S
C3860 C3862 1.381 . S
C3860 C3866 1.383 . S
C3861 C3857 1.495 . S
C3861 H3867 0.959 . S
C3861 H3868 0.961 . S
C3861 H3869 0.960 . S
C3862 C3860 1.381 . S
C3862 C3863 1.394 . S
C3862 H3870 0.930 . S
C3863 C3862 1.394 . S
C3863 C3864 1.383 . S
C3863 H3871 0.929 . S
C3864 C3863 1.383 . S
C3864 C3865 1.377 . S
C3865 H3849 0.930 . S
C3865 C3864 1.377 . S
C3865 C3866 1.379 . S
C3866 H3850 0.931 . S
C3866 C3860 1.383 . S
C3866 C3865 1.379 . S
H3867 C3861 0.959 . S
H3868 C3861 0.961 . S
H3869 C3861 0.960 . S
H3870 C3862 0.930 . S
H3871 C3863 0.929 . S
H3872 C3880 0.929 . S
H3873 C3882 0.930 . S
H3874 C3884 0.930 . S
H3875 C3887 0.929 . S
H3876 C3890 0.930 . S
H3877 C3892 0.960 . S
H3878 C3892 0.960 . S
H3879 C3892 0.960 . S
C3880 H3872 0.929 . S
C3880 C3881 1.377 . S
C3880 C3882 1.384 . S
C3881 C3880 1.377 . S
C3881 C3887 1.390 . S
C3882 H3873 0.930 . S
C3882 C3880 1.384 . S
C3882 C3883 1.372 . S
C3883 C3882 1.372 . S
C3883 C3884 1.400 . S
C3883 C3888 1.490 . S
C3884 H3874 0.930 . S
C3884 C3883 1.400 . S
C3884 C3887 1.386 . S
H3885 C3901 0.930 . S
H3886 C3902 0.931 . S
C3887 H3875 0.929 . S
C3887 C3881 1.390 . S
C3887 C3884 1.386 . S
C3888 C3883 1.490 . S
C3888 C3890 1.395 . S
C3888 C3891 1.403 . S
H3889 C3895 0.930 . S
C3890 H3876 0.930 . S
C3890 C3888 1.395 . S
C3890 C3893 1.403 . S
C3891 C3888 1.403 . S
C3891 C3892 1.524 . S
C3891 C3895 1.400 . S
C3892 H3877 0.960 . S
C3892 H3878 0.960 . S
C3892 H3879 0.960 . S
C3892 C3891 1.524 . S
C3893 C3890 1.403 . S
C3893 C3894 1.392 . S
C3893 C3897 1.495 . S
C3894 C3893 1.392 . S
C3894 C3895 1.385 . S
C3894 C3896 1.478 . S
C3895 H3889 0.930 . S
C3895 C3891 1.400 . S
C3895 C3894 1.385 . S
C3896 C3894 1.478 . S
C3896 C3898 1.381 . S
C3896 C3902 1.383 . S
C3897 C3893 1.495 . S
C3897 H3903 0.959 . S
C3897 H3904 0.961 . S
C3897 H3905 0.960 . S
C3898 C3896 1.381 . S
C3898 C3899 1.394 . S
C3898 H3906 0.930 . S
C3899 C3898 1.394 . S
C3899 C3900 1.383 . S
C3899 H3907 0.929 . S
C3900 C3899 1.383 . S
C3900 C3901 1.377 . S
C3901 H3885 0.930 . S
C3901 C3900 1.377 . S
C3901 C3902 1.379 . S
C3902 H3886 0.931 . S
C3902 C3896 1.383 . S
C3902 C3901 1.379 . S
H3903 C3897 0.959 . S
H3904 C3897 0.961 . S
H3905 C3897 0.960 . S
H3906 C3898 0.930 . S
H3907 C3899 0.929 . S
H3908 C3916 0.929 . S
H3909 C3918 0.930 . S
H3910 C3920 0.930 . S
H3911 C3923 0.929 . S
H3912 C3926 0.930 . S
H3913 C3928 0.960 . S
H3914 C3928 0.960 . S
H3915 C3928 0.960 . S
C3916 H3908 0.929 . S
C3916 C3917 1.377 . S
C3916 C3918 1.384 . S
C3917 C3916 1.377 . S
C3917 C3923 1.390 . S
C3918 H3909 0.930 . S
C3918 C3916 1.384 . S
C3918 C3919 1.372 . S
C3919 C3918 1.372 . S
C3919 C3920 1.400 . S
C3919 C3924 1.490 . S
C3920 H3910 0.930 . S
C3920 C3919 1.400 . S
C3920 C3923 1.386 . S
H3921 C3937 0.930 . S
H3922 C3938 0.931 . S
C3923 H3911 0.929 . S
C3923 C3917 1.390 . S
C3923 C3920 1.386 . S
C3924 C3919 1.490 . S
C3924 C3926 1.395 . S
C3924 C3927 1.403 . S
H3925 C3931 0.930 . S
C3926 H3912 0.930 . S
C3926 C3924 1.395 . S
C3926 C3929 1.403 . S
C3927 C3924 1.403 . S
C3927 C3928 1.524 . S
C3927 C3931 1.400 . S
C3928 H3913 0.960 . S
C3928 H3914 0.960 . S
C3928 H3915 0.960 . S
C3928 C3927 1.524 . S
C3929 C3926 1.403 . S
C3929 C3930 1.392 . S
C3929 C3933 1.495 . S
C3930 C3929 1.392 . S
C3930 C3931 1.385 . S
C3930 C3932 1.478 . S
C3931 H3925 0.930 . S
C3931 C3927 1.400 . S
C3931 C3930 1.385 . S
C3932 C3930 1.478 . S
C3932 C3934 1.381 . S
C3932 C3938 1.383 . S
C3933 C3929 1.495 . S
C3933 H3939 0.959 . S
C3933 H3940 0.961 . S
C3933 H3941 0.960 . S
C3934 C3932 1.381 . S
C3934 C3935 1.394 . S
C3934 H3942 0.930 . S
C3935 C3934 1.394 . S
C3935 C3936 1.383 . S
C3935 H3943 0.929 . S
C3936 C3935 1.383 . S
C3936 C3937 1.377 . S
C3937 H3921 0.930 . S
C3937 C3936 1.377 . S
C3937 C3938 1.379 . S
C3938 H3922 0.931 . S
C3938 C3932 1.383 . S
C3938 C3937 1.379 . S
H3939 C3933 0.959 . S
H3940 C3933 0.961 . S
H3941 C3933 0.960 . S
H3942 C3934 0.930 . S
H3943 C3935 0.929 . S
H3944 C3952 0.929 . S
H3945 C3954 0.930 . S
H3946 C3956 0.930 . S
H3947 C3959 0.929 . S
H3948 C3962 0.930 . S
H3949 C3964 0.960 . S
H3950 C3964 0.960 . S
H3951 C3964 0.960 . S
C3952 H3944 0.929 . S
C3952 C3953 1.377 . S
C3952 C3954 1.384 . S
C3953 C3952 1.377 . S
C3953 C3959 1.390 . S
C3954 H3945 0.930 . S
C3954 C3952 1.384 . S
C3954 C3955 1.372 . S
C3955 C3954 1.372 . S
C3955 C3956 1.400 . S
C3955 C3960 1.490 . S
C3956 H3946 0.930 . S
C3956 C3955 1.400 . S
C3956 C3959 1.386 . S
H3957 C3973 0.930 . S
H3958 C3974 0.931 . S
C3959 H3947 0.929 . S
C3959 C3953 1.390 . S
C3959 C3956 1.386 . S
C3960 C3955 1.490 . S
C3960 C3962 1.395 . S
C3960 C3963 1.403 . S
H3961 C3967 0.930 . S
C3962 H3948 0.930 . S
C3962 C3960 1.395 . S
C3962 C3965 1.403 . S
C3963 C3960 1.403 . S
C3963 C3964 1.524 . S
C3963 C3967 1.400 . S
C3964 H3949 0.960 . S
C3964 H3950 0.960 . S
C3964 H3951 0.960 . S
C3964 C3963 1.524 . S
C3965 C3962 1.403 . S
C3965 C3966 1.392 . S
C3965 C3969 1.495 . S
C3966 C3965 1.392 . S
C3966 C3967 1.385 . S
C3966 C3968 1.478 . S
C3967 H3961 0.930 . S
C3967 C3963 1.400 . S
C3967 C3966 1.385 . S
C3968 C3966 1.478 . S
C3968 C3970 1.381 . S
C3968 C3974 1.383 . S
C3969 C3965 1.495 . S
C3969 H3975 0.959 . S
C3969 H3976 0.961 . S
C3969 H3977 0.960 . S
C3970 C3968 1.381 . S
C3970 C3971 1.394 . S
C3970 H3978 0.930 . S
C3971 C3970 1.394 . S
C3971 C3972 1.383 . S
C3971 H3979 0.929 . S
C3972 C3971 1.383 . S
C3972 C3973 1.377 . S
C3973 H3957 0.930 . S
C3973 C3972 1.377 . S
C3973 C3974 1.379 . S
C3974 H3958 0.931 . S
C3974 C3968 1.383 . S
C3974 C3973 1.379 . S
H3975 C3969 0.959 . S
H3976 C3969 0.961 . S
H3977 C3969 0.960 . S
H3978 C3970 0.930 . S
H3979 C3971 0.929 . S
H3980 C3988 0.929 . S
H3981 C3990 0.930 . S
H3982 C3992 0.930 . S
H3983 C3995 0.929 . S
H3984 C3998 0.930 . S
H3985 C4000 0.960 . S
H3986 C4000 0.960 . S
H3987 C4000 0.960 . S
C3988 H3980 0.929 . S
C3988 C3989 1.377 . S
C3988 C3990 1.384 . S
C3989 C3988 1.377 . S
C3989 C3995 1.390 . S
C3990 H3981 0.930 . S
C3990 C3988 1.384 . S
C3990 C3991 1.372 . S
C3991 C3990 1.372 . S
C3991 C3992 1.400 . S
C3991 C3996 1.490 . S
C3992 H3982 0.930 . S
C3992 C3991 1.400 . S
C3992 C3995 1.386 . S
H3993 C4009 0.930 . S
H3994 C4010 0.931 . S
C3995 H3983 0.929 . S
C3995 C3989 1.390 . S
C3995 C3992 1.386 . S
C3996 C3991 1.490 . S
C3996 C3998 1.395 . S
C3996 C3999 1.403 . S
H3997 C4003 0.930 . S
C3998 H3984 0.930 . S
C3998 C3996 1.395 . S
C3998 C4001 1.403 . S
C3999 C3996 1.403 . S
C3999 C4000 1.524 . S
C3999 C4003 1.400 . S
C4000 H3985 0.960 . S
C4000 H3986 0.960 . S
C4000 H3987 0.960 . S
C4000 C3999 1.524 . S
C4001 C3998 1.403 . S
C4001 C4002 1.392 . S
C4001 C4005 1.495 . S
C4002 C4001 1.392 . S
C4002 C4003 1.385 . S
C4002 C4004 1.478 . S
C4003 H3997 0.930 . S
C4003 C3999 1.400 . S
C4003 C4002 1.385 . S
C4004 C4002 1.478 . S
C4004 C4006 1.381 . S
C4004 C4010 1.383 . S
C4005 C4001 1.495 . S
C4005 H4011 0.959 . S
C4005 H4012 0.961 . S
C4005 H4013 0.960 . S
C4006 C4004 1.381 . S
C4006 C4007 1.394 . S
C4006 H4014 0.930 . S
C4007 C4006 1.394 . S
C4007 C4008 1.383 . S
C4007 H4015 0.929 . S
C4008 C4007 1.383 . S
C4008 C4009 1.377 . S
C4009 H3993 0.930 . S
C4009 C4008 1.377 . S
C4009 C4010 1.379 . S
C4010 H3994 0.931 . S
C4010 C4004 1.383 . S
C4010 C4009 1.379 . S
H4011 C4005 0.959 . S
H4012 C4005 0.961 . S
H4013 C4005 0.960 . S
H4014 C4006 0.930 . S
H4015 C4007 0.929 . S
H4016 C4024 0.929 . S
H4017 C4026 0.930 . S
H4018 C4028 0.930 . S
H4019 C4031 0.929 . S
H4020 C4034 0.930 . S
H4021 C4036 0.960 . S
H4022 C4036 0.960 . S
H4023 C4036 0.960 . S
C4024 H4016 0.929 . S
C4024 C4025 1.377 . S
C4024 C4026 1.384 . S
C4025 C4024 1.377 . S
C4025 C4031 1.390 . S
C4026 H4017 0.930 . S
C4026 C4024 1.384 . S
C4026 C4027 1.372 . S
C4027 C4026 1.372 . S
C4027 C4028 1.400 . S
C4027 C4032 1.490 . S
C4028 H4018 0.930 . S
C4028 C4027 1.400 . S
C4028 C4031 1.386 . S
H4029 C4045 0.930 . S
H4030 C4046 0.931 . S
C4031 H4019 0.929 . S
C4031 C4025 1.390 . S
C4031 C4028 1.386 . S
C4032 C4027 1.490 . S
C4032 C4034 1.395 . S
C4032 C4035 1.403 . S
H4033 C4039 0.930 . S
C4034 H4020 0.930 . S
C4034 C4032 1.395 . S
C4034 C4037 1.403 . S
C4035 C4032 1.403 . S
C4035 C4036 1.524 . S
C4035 C4039 1.400 . S
C4036 H4021 0.960 . S
C4036 H4022 0.960 . S
C4036 H4023 0.960 . S
C4036 C4035 1.524 . S
C4037 C4034 1.403 . S
C4037 C4038 1.392 . S
C4037 C4041 1.495 . S
C4038 C4037 1.392 . S
C4038 C4039 1.385 . S
C4038 C4040 1.478 . S
C4039 H4033 0.930 . S
C4039 C4035 1.400 . S
C4039 C4038 1.385 . S
C4040 C4038 1.478 . S
C4040 C4042 1.381 . S
C4040 C4046 1.383 . S
C4041 C4037 1.495 . S
C4041 H4047 0.959 . S
C4041 H4048 0.961 . S
C4041 H4049 0.960 . S
C4042 C4040 1.381 . S
C4042 C4043 1.394 . S
C4042 H4050 0.930 . S
C4043 C4042 1.394 . S
C4043 C4044 1.383 . S
C4043 H4051 0.929 . S
C4044 C4043 1.383 . S
C4044 C4045 1.377 . S
C4045 H4029 0.930 . S
C4045 C4044 1.377 . S
C4045 C4046 1.379 . S
C4046 H4030 0.931 . S
C4046 C4040 1.383 . S
C4046 C4045 1.379 . S
H4047 C4041 0.959 . S
H4048 C4041 0.961 . S
H4049 C4041 0.960 . S
H4050 C4042 0.930 . S
H4051 C4043 0.929 . S
H4052 C4060 0.929 . S
H4053 C4062 0.930 . S
H4054 C4064 0.930 . S
H4055 C4067 0.929 . S
H4056 C4070 0.930 . S
H4057 C4072 0.960 . S
H4058 C4072 0.960 . S
H4059 C4072 0.960 . S
C4060 H4052 0.929 . S
C4060 C4061 1.377 . S
C4060 C4062 1.384 . S
C4061 C4060 1.377 . S
C4061 C4067 1.390 . S
C4062 H4053 0.930 . S
C4062 C4060 1.384 . S
C4062 C4063 1.372 . S
C4063 C4062 1.372 . S
C4063 C4064 1.400 . S
C4063 C4068 1.490 . S
C4064 H4054 0.930 . S
C4064 C4063 1.400 . S
C4064 C4067 1.386 . S
H4065 C4081 0.930 . S
H4066 C4082 0.931 . S
C4067 H4055 0.929 . S
C4067 C4061 1.390 . S
C4067 C4064 1.386 . S
C4068 C4063 1.490 . S
C4068 C4070 1.395 . S
C4068 C4071 1.403 . S
H4069 C4075 0.930 . S
C4070 H4056 0.930 . S
C4070 C4068 1.395 . S
C4070 C4073 1.403 . S
C4071 C4068 1.403 . S
C4071 C4072 1.524 . S
C4071 C4075 1.400 . S
C4072 H4057 0.960 . S
C4072 H4058 0.960 . S
C4072 H4059 0.960 . S
C4072 C4071 1.524 . S
C4073 C4070 1.403 . S
C4073 C4074 1.392 . S
C4073 C4077 1.495 . S
C4074 C4073 1.392 . S
C4074 C4075 1.385 . S
C4074 C4076 1.478 . S
C4075 H4069 0.930 . S
C4075 C4071 1.400 . S
C4075 C4074 1.385 . S
C4076 C4074 1.478 . S
C4076 C4078 1.381 . S
C4076 C4082 1.383 . S
C4077 C4073 1.495 . S
C4077 H4083 0.959 . S
C4077 H4084 0.961 . S
C4077 H4085 0.960 . S
C4078 C4076 1.381 . S
C4078 C4079 1.394 . S
C4078 H4086 0.930 . S
C4079 C4078 1.394 . S
C4079 C4080 1.383 . S
C4079 H4087 0.929 . S
C4080 C4079 1.383 . S
C4080 C4081 1.377 . S
C4081 H4065 0.930 . S
C4081 C4080 1.377 . S
C4081 C4082 1.379 . S
C4082 H4066 0.931 . S
C4082 C4076 1.383 . S
C4082 C4081 1.379 . S
H4083 C4077 0.959 . S
H4084 C4077 0.961 . S
H4085 C4077 0.960 . S
H4086 C4078 0.930 . S
H4087 C4079 0.929 . S
H4088 C4096 0.929 . S
H4089 C4098 0.930 . S
H4090 C4100 0.930 . S
H4091 C4103 0.929 . S
H4092 C4106 0.930 . S
H4093 C4108 0.960 . S
H4094 C4108 0.960 . S
H4095 C4108 0.960 . S
C4096 H4088 0.929 . S
C4096 C4097 1.377 . S
C4096 C4098 1.384 . S
C4097 C4096 1.377 . S
C4097 C4103 1.390 . S
C4098 H4089 0.930 . S
C4098 C4096 1.384 . S
C4098 C4099 1.372 . S
C4099 C4098 1.372 . S
C4099 C4100 1.400 . S
C4099 C4104 1.490 . S
C4100 H4090 0.930 . S
C4100 C4099 1.400 . S
C4100 C4103 1.386 . S
H4101 C4117 0.930 . S
H4102 C4118 0.931 . S
C4103 H4091 0.929 . S
C4103 C4097 1.390 . S
C4103 C4100 1.386 . S
C4104 C4099 1.490 . S
C4104 C4106 1.395 . S
C4104 C4107 1.403 . S
H4105 C4111 0.930 . S
C4106 H4092 0.930 . S
C4106 C4104 1.395 . S
C4106 C4109 1.403 . S
C4107 C4104 1.403 . S
C4107 C4108 1.524 . S
C4107 C4111 1.400 . S
C4108 H4093 0.960 . S
C4108 H4094 0.960 . S
C4108 H4095 0.960 . S
C4108 C4107 1.524 . S
C4109 C4106 1.403 . S
C4109 C4110 1.392 . S
C4109 C4113 1.495 . S
C4110 C4109 1.392 . S
C4110 C4111 1.385 . S
C4110 C4112 1.478 . S
C4111 H4105 0.930 . S
C4111 C4107 1.400 . S
C4111 C4110 1.385 . S
C4112 C4110 1.478 . S
C4112 C4114 1.381 . S
C4112 C4118 1.383 . S
C4113 C4109 1.495 . S
C4113 H4119 0.959 . S
C4113 H4120 0.961 . S
C4113 H4121 0.960 . S
C4114 C4112 1.381 . S
C4114 C4115 1.394 . S
C4114 H4122 0.930 . S
C4115 C4114 1.394 . S
C4115 C4116 1.383 . S
C4115 H4123 0.929 . S
C4116 C4115 1.383 . S
C4116 C4117 1.377 . S
C4117 H4101 0.930 . S
C4117 C4116 1.377 . S
C4117 C4118 1.379 . S
C4118 H4102 0.931 . S
C4118 C4112 1.383 . S
C4118 C4117 1.379 . S
H4119 C4113 0.959 . S
H4120 C4113 0.961 . S
H4121 C4113 0.960 . S
H4122 C4114 0.930 . S
H4123 C4115 0.929 . S
H4124 C4132 0.929 . S
H4125 C4134 0.930 . S
H4126 C4136 0.930 . S
H4127 C4139 0.929 . S
H4128 C4142 0.930 . S
H4129 C4144 0.960 . S
H4130 C4144 0.960 . S
H4131 C4144 0.960 . S
C4132 H4124 0.929 . S
C4132 C4133 1.377 . S
C4132 C4134 1.384 . S
C4133 C4132 1.377 . S
C4133 C4139 1.390 . S
C4134 H4125 0.930 . S
C4134 C4132 1.384 . S
C4134 C4135 1.372 . S
C4135 C4134 1.372 . S
C4135 C4136 1.400 . S
C4135 C4140 1.490 . S
C4136 H4126 0.930 . S
C4136 C4135 1.400 . S
C4136 C4139 1.386 . S
H4137 C4153 0.930 . S
H4138 C4154 0.931 . S
C4139 H4127 0.929 . S
C4139 C4133 1.390 . S
C4139 C4136 1.386 . S
C4140 C4135 1.490 . S
C4140 C4142 1.395 . S
C4140 C4143 1.403 . S
H4141 C4147 0.930 . S
C4142 H4128 0.930 . S
C4142 C4140 1.395 . S
C4142 C4145 1.403 . S
C4143 C4140 1.403 . S
C4143 C4144 1.524 . S
C4143 C4147 1.400 . S
C4144 H4129 0.960 . S
C4144 H4130 0.960 . S
C4144 H4131 0.960 . S
C4144 C4143 1.524 . S
C4145 C4142 1.403 . S
C4145 C4146 1.392 . S
C4145 C4149 1.495 . S
C4146 C4145 1.392 . S
C4146 C4147 1.385 . S
C4146 C4148 1.478 . S
C4147 H4141 0.930 . S
C4147 C4143 1.400 . S
C4147 C4146 1.385 . S
C4148 C4146 1.478 . S
C4148 C4150 1.381 . S
C4148 C4154 1.383 . S
C4149 C4145 1.495 . S
C4149 H4155 0.959 . S
C4149 H4156 0.961 . S
C4149 H4157 0.960 . S
C4150 C4148 1.381 . S
C4150 C4151 1.394 . S
C4150 H4158 0.930 . S
C4151 C4150 1.394 . S
C4151 C4152 1.383 . S
C4151 H4159 0.929 . S
C4152 C4151 1.383 . S
C4152 C4153 1.377 . S
C4153 H4137 0.930 . S
C4153 C4152 1.377 . S
C4153 C4154 1.379 . S
C4154 H4138 0.931 . S
C4154 C4148 1.383 . S
C4154 C4153 1.379 . S
H4155 C4149 0.959 . S
H4156 C4149 0.961 . S
H4157 C4149 0.960 . S
H4158 C4150 0.930 . S
H4159 C4151 0.929 . S
H4160 C4168 0.929 . S
H4161 C4170 0.930 . S
H4162 C4172 0.930 . S
H4163 C4175 0.929 . S
H4164 C4178 0.930 . S
H4165 C4180 0.960 . S
H4166 C4180 0.960 . S
H4167 C4180 0.960 . S
C4168 H4160 0.929 . S
C4168 C4169 1.377 . S
C4168 C4170 1.384 . S
C4169 C4168 1.377 . S
C4169 C4175 1.390 . S
C4170 H4161 0.930 . S
C4170 C4168 1.384 . S
C4170 C4171 1.372 . S
C4171 C4170 1.372 . S
C4171 C4172 1.400 . S
C4171 C4176 1.490 . S
C4172 H4162 0.930 . S
C4172 C4171 1.400 . S
C4172 C4175 1.386 . S
H4173 C4189 0.930 . S
H4174 C4190 0.931 . S
C4175 H4163 0.929 . S
C4175 C4169 1.390 . S
C4175 C4172 1.386 . S
C4176 C4171 1.490 . S
C4176 C4178 1.395 . S
C4176 C4179 1.403 . S
H4177 C4183 0.930 . S
C4178 H4164 0.930 . S
C4178 C4176 1.395 . S
C4178 C4181 1.403 . S
C4179 C4176 1.403 . S
C4179 C4180 1.524 . S
C4179 C4183 1.400 . S
C4180 H4165 0.960 . S
C4180 H4166 0.960 . S
C4180 H4167 0.960 . S
C4180 C4179 1.524 . S
C4181 C4178 1.403 . S
C4181 C4182 1.392 . S
C4181 C4185 1.495 . S
C4182 C4181 1.392 . S
C4182 C4183 1.385 . S
C4182 C4184 1.478 . S
C4183 H4177 0.930 . S
C4183 C4179 1.400 . S
C4183 C4182 1.385 . S
C4184 C4182 1.478 . S
C4184 C4186 1.381 . S
C4184 C4190 1.383 . S
C4185 C4181 1.495 . S
C4185 H4191 0.959 . S
C4185 H4192 0.961 . S
C4185 H4193 0.960 . S
C4186 C4184 1.381 . S
C4186 C4187 1.394 . S
C4186 H4194 0.930 . S
C4187 C4186 1.394 . S
C4187 C4188 1.383 . S
C4187 H4195 0.929 . S
C4188 C4187 1.383 . S
C4188 C4189 1.377 . S
C4189 H4173 0.930 . S
C4189 C4188 1.377 . S
C4189 C4190 1.379 . S
C4190 H4174 0.931 . S
C4190 C4184 1.383 . S
C4190 C4189 1.379 . S
H4191 C4185 0.959 . S
H4192 C4185 0.961 . S
H4193 C4185 0.960 . S
H4194 C4186 0.930 . S
H4195 C4187 0.929 . S
H4196 C4204 0.929 . S
H4197 C4206 0.930 . S
H4198 C4208 0.930 . S
H4199 C4211 0.929 . S
H4200 C4214 0.930 . S
H4201 C4216 0.960 . S
H4202 C4216 0.960 . S
H4203 C4216 0.960 . S
C4204 H4196 0.929 . S
C4204 C4205 1.377 . S
C4204 C4206 1.384 . S
C4205 C4204 1.377 . S
C4205 C4211 1.390 . S
C4206 H4197 0.930 . S
C4206 C4204 1.384 . S
C4206 C4207 1.372 . S
C4207 C4206 1.372 . S
C4207 C4208 1.400 . S
C4207 C4212 1.490 . S
C4208 H4198 0.930 . S
C4208 C4207 1.400 . S
C4208 C4211 1.386 . S
H4209 C4225 0.930 . S
H4210 C4226 0.931 . S
C4211 H4199 0.929 . S
C4211 C4205 1.390 . S
C4211 C4208 1.386 . S
C4212 C4207 1.490 . S
C4212 C4214 1.395 . S
C4212 C4215 1.403 . S
H4213 C4219 0.930 . S
C4214 H4200 0.930 . S
C4214 C4212 1.395 . S
C4214 C4217 1.403 . S
C4215 C4212 1.403 . S
C4215 C4216 1.524 . S
C4215 C4219 1.400 . S
C4216 H4201 0.960 . S
C4216 H4202 0.960 . S
C4216 H4203 0.960 . S
C4216 C4215 1.524 . S
C4217 C4214 1.403 . S
C4217 C4218 1.392 . S
C4217 C4221 1.495 . S
C4218 C4217 1.392 . S
C4218 C4219 1.385 . S
C4218 C4220 1.478 . S
C4219 H4213 0.930 . S
C4219 C4215 1.400 . S
C4219 C4218 1.385 . S
C4220 C4218 1.478 . S
C4220 C4222 1.381 . S
C4220 C4226 1.383 . S
C4221 C4217 1.495 . S
C4221 H4227 0.959 . S
C4221 H4228 0.961 . S
C4221 H4229 0.960 . S
C4222 C4220 1.381 . S
C4222 C4223 1.394 . S
C4222 H4230 0.930 . S
C4223 C4222 1.394 . S
C4223 C4224 1.383 . S
C4223 H4231 0.929 . S
C4224 C4223 1.383 . S
C4224 C4225 1.377 . S
C4225 H4209 0.930 . S
C4225 C4224 1.377 . S
C4225 C4226 1.379 . S
C4226 H4210 0.931 . S
C4226 C4220 1.383 . S
C4226 C4225 1.379 . S
H4227 C4221 0.959 . S
H4228 C4221 0.961 . S
H4229 C4221 0.960 . S
H4230 C4222 0.930 . S
H4231 C4223 0.929 . S
H4232 C4240 0.929 . S
H4233 C4242 0.930 . S
H4234 C4244 0.930 . S
H4235 C4247 0.929 . S
H4236 C4250 0.930 . S
H4237 C4252 0.960 . S
H4238 C4252 0.960 . S
H4239 C4252 0.960 . S
C4240 H4232 0.929 . S
C4240 C4241 1.377 . S
C4240 C4242 1.384 . S
C4241 C4240 1.377 . S
C4241 C4247 1.390 . S
C4242 H4233 0.930 . S
C4242 C4240 1.384 . S
C4242 C4243 1.372 . S
C4243 C4242 1.372 . S
C4243 C4244 1.400 . S
C4243 C4248 1.490 . S
C4244 H4234 0.930 . S
C4244 C4243 1.400 . S
C4244 C4247 1.386 . S
H4245 C4261 0.930 . S
H4246 C4262 0.931 . S
C4247 H4235 0.929 . S
C4247 C4241 1.390 . S
C4247 C4244 1.386 . S
C4248 C4243 1.490 . S
C4248 C4250 1.395 . S
C4248 C4251 1.403 . S
H4249 C4255 0.930 . S
C4250 H4236 0.930 . S
C4250 C4248 1.395 . S
C4250 C4253 1.403 . S
C4251 C4248 1.403 . S
C4251 C4252 1.524 . S
C4251 C4255 1.400 . S
C4252 H4237 0.960 . S
C4252 H4238 0.960 . S
C4252 H4239 0.960 . S
C4252 C4251 1.524 . S
C4253 C4250 1.403 . S
C4253 C4254 1.392 . S
C4253 C4257 1.495 . S
C4254 C4253 1.392 . S
C4254 C4255 1.385 . S
C4254 C4256 1.478 . S
C4255 H4249 0.930 . S
C4255 C4251 1.400 . S
C4255 C4254 1.385 . S
C4256 C4254 1.478 . S
C4256 C4258 1.381 . S
C4256 C4262 1.383 . S
C4257 C4253 1.495 . S
C4257 H4263 0.959 . S
C4257 H4264 0.961 . S
C4257 H4265 0.960 . S
C4258 C4256 1.381 . S
C4258 C4259 1.394 . S
C4258 H4266 0.930 . S
C4259 C4258 1.394 . S
C4259 C4260 1.383 . S
C4259 H4267 0.929 . S
C4260 C4259 1.383 . S
C4260 C4261 1.377 . S
C4261 H4245 0.930 . S
C4261 C4260 1.377 . S
C4261 C4262 1.379 . S
C4262 H4246 0.931 . S
C4262 C4256 1.383 . S
C4262 C4261 1.379 . S
H4263 C4257 0.959 . S
H4264 C4257 0.961 . S
H4265 C4257 0.960 . S
H4266 C4258 0.930 . S
H4267 C4259 0.929 . S
H4268 C4276 0.929 . S
H4269 C4278 0.930 . S
H4270 C4280 0.930 . S
H4271 C4283 0.929 . S
H4272 C4286 0.930 . S
H4273 C4288 0.960 . S
H4274 C4288 0.960 . S
H4275 C4288 0.960 . S
C4276 H4268 0.929 . S
C4276 C4277 1.377 . S
C4276 C4278 1.384 . S
C4277 C4276 1.377 . S
C4277 C4283 1.390 . S
C4278 H4269 0.930 . S
C4278 C4276 1.384 . S
C4278 C4279 1.372 . S
C4279 C4278 1.372 . S
C4279 C4280 1.400 . S
C4279 C4284 1.490 . S
C4280 H4270 0.930 . S
C4280 C4279 1.400 . S
C4280 C4283 1.386 . S
H4281 C4297 0.930 . S
H4282 C4298 0.931 . S
C4283 H4271 0.929 . S
C4283 C4277 1.390 . S
C4283 C4280 1.386 . S
C4284 C4279 1.490 . S
C4284 C4286 1.395 . S
C4284 C4287 1.403 . S
H4285 C4291 0.930 . S
C4286 H4272 0.930 . S
C4286 C4284 1.395 . S
C4286 C4289 1.403 . S
C4287 C4284 1.403 . S
C4287 C4288 1.524 . S
C4287 C4291 1.400 . S
C4288 H4273 0.960 . S
C4288 H4274 0.960 . S
C4288 H4275 0.960 . S
C4288 C4287 1.524 . S
C4289 C4286 1.403 . S
C4289 C4290 1.392 . S
C4289 C4293 1.495 . S
C4290 C4289 1.392 . S
C4290 C4291 1.385 . S
C4290 C4292 1.478 . S
C4291 H4285 0.930 . S
C4291 C4287 1.400 . S
C4291 C4290 1.385 . S
C4292 C4290 1.478 . S
C4292 C4294 1.381 . S
C4292 C4298 1.383 . S
C4293 C4289 1.495 . S
C4293 H4299 0.959 . S
C4293 H4300 0.961 . S
C4293 H4301 0.960 . S
C4294 C4292 1.381 . S
C4294 C4295 1.394 . S
C4294 H4302 0.930 . S
C4295 C4294 1.394 . S
C4295 C4296 1.383 . S
C4295 H4303 0.929 . S
C4296 C4295 1.383 . S
C4296 C4297 1.377 . S
C4297 H4281 0.930 . S
C4297 C4296 1.377 . S
C4297 C4298 1.379 . S
C4298 H4282 0.931 . S
C4298 C4292 1.383 . S
C4298 C4297 1.379 . S
H4299 C4293 0.959 . S
H4300 C4293 0.961 . S
H4301 C4293 0.960 . S
H4302 C4294 0.930 . S
H4303 C4295 0.929 . S
H4304 C4312 0.929 . S
H4305 C4314 0.930 . S
H4306 C4316 0.930 . S
H4307 C4319 0.929 . S
H4308 C4322 0.930 . S
H4309 C4324 0.960 . S
H4310 C4324 0.960 . S
H4311 C4324 0.960 . S
C4312 H4304 0.929 . S
C4312 C4313 1.377 . S
C4312 C4314 1.384 . S
C4313 C4312 1.377 . S
C4313 C4319 1.390 . S
C4314 H4305 0.930 . S
C4314 C4312 1.384 . S
C4314 C4315 1.372 . S
C4315 C4314 1.372 . S
C4315 C4316 1.400 . S
C4315 C4320 1.490 . S
C4316 H4306 0.930 . S
C4316 C4315 1.400 . S
C4316 C4319 1.386 . S
H4317 C4333 0.930 . S
H4318 C4334 0.931 . S
C4319 H4307 0.929 . S
C4319 C4313 1.390 . S
C4319 C4316 1.386 . S
C4320 C4315 1.490 . S
C4320 C4322 1.395 . S
C4320 C4323 1.403 . S
H4321 C4327 0.930 . S
C4322 H4308 0.930 . S
C4322 C4320 1.395 . S
C4322 C4325 1.403 . S
C4323 C4320 1.403 . S
C4323 C4324 1.524 . S
C4323 C4327 1.400 . S
C4324 H4309 0.960 . S
C4324 H4310 0.960 . S
C4324 H4311 0.960 . S
C4324 C4323 1.524 . S
C4325 C4322 1.403 . S
C4325 C4326 1.392 . S
C4325 C4329 1.495 . S
C4326 C4325 1.392 . S
C4326 C4327 1.385 . S
C4326 C4328 1.478 . S
C4327 H4321 0.930 . S
C4327 C4323 1.400 . S
C4327 C4326 1.385 . S
C4328 C4326 1.478 . S
C4328 C4330 1.381 . S
C4328 C4334 1.383 . S
C4329 C4325 1.495 . S
C4329 H4335 0.959 . S
C4329 H4336 0.961 . S
C4329 H4337 0.960 . S
C4330 C4328 1.381 . S
C4330 C4331 1.394 . S
C4330 H4338 0.930 . S
C4331 C4330 1.394 . S
C4331 C4332 1.383 . S
C4331 H4339 0.929 . S
C4332 C4331 1.383 . S
C4332 C4333 1.377 . S
C4333 H4317 0.930 . S
C4333 C4332 1.377 . S
C4333 C4334 1.379 . S
C4334 H4318 0.931 . S
C4334 C4328 1.383 . S
C4334 C4333 1.379 . S
H4335 C4329 0.959 . S
H4336 C4329 0.961 . S
H4337 C4329 0.960 . S
H4338 C4330 0.930 . S
H4339 C4331 0.929 . S
H4340 C4348 0.929 . S
H4341 C4350 0.930 . S
H4342 C4352 0.930 . S
H4343 C4355 0.929 . S
H4344 C4358 0.930 . S
H4345 C4360 0.960 . S
H4346 C4360 0.960 . S
H4347 C4360 0.960 . S
C4348 H4340 0.929 . S
C4348 C4349 1.377 . S
C4348 C4350 1.384 . S
C4349 C4348 1.377 . S
C4349 C4355 1.390 . S
C4350 H4341 0.930 . S
C4350 C4348 1.384 . S
C4350 C4351 1.372 . S
C4351 C4350 1.372 . S
C4351 C4352 1.400 . S
C4351 C4356 1.490 . S
C4352 H4342 0.930 . S
C4352 C4351 1.400 . S
C4352 C4355 1.386 . S
H4353 C4369 0.930 . S
H4354 C4370 0.931 . S
C4355 H4343 0.929 . S
C4355 C4349 1.390 . S
C4355 C4352 1.386 . S
C4356 C4351 1.490 . S
C4356 C4358 1.395 . S
C4356 C4359 1.403 . S
H4357 C4363 0.930 . S
C4358 H4344 0.930 . S
C4358 C4356 1.395 . S
C4358 C4361 1.403 . S
C4359 C4356 1.403 . S
C4359 C4360 1.524 . S
C4359 C4363 1.400 . S
C4360 H4345 0.960 . S
C4360 H4346 0.960 . S
C4360 H4347 0.960 . S
C4360 C4359 1.524 . S
C4361 C4358 1.403 . S
C4361 C4362 1.392 . S
C4361 C4365 1.495 . S
C4362 C4361 1.392 . S
C4362 C4363 1.385 . S
C4362 C4364 1.478 . S
C4363 H4357 0.930 . S
C4363 C4359 1.400 . S
C4363 C4362 1.385 . S
C4364 C4362 1.478 . S
C4364 C4366 1.381 . S
C4364 C4370 1.383 . S
C4365 C4361 1.495 . S
C4365 H4371 0.959 . S
C4365 H4372 0.961 . S
C4365 H4373 0.960 . S
C4366 C4364 1.381 . S
C4366 C4367 1.394 . S
C4366 H4374 0.930 . S
C4367 C4366 1.394 . S
C4367 C4368 1.383 . S
C4367 H4375 0.929 . S
C4368 C4367 1.383 . S
C4368 C4369 1.377 . S
C4369 H4353 0.930 . S
C4369 C4368 1.377 . S
C4369 C4370 1.379 . S
C4370 H4354 0.931 . S
C4370 C4364 1.383 . S
C4370 C4369 1.379 . S
H4371 C4365 0.959 . S
H4372 C4365 0.961 . S
H4373 C4365 0.960 . S
H4374 C4366 0.930 . S
H4375 C4367 0.929 . S
H4376 C4384 0.929 . S
H4377 C4386 0.930 . S
H4378 C4388 0.930 . S
H4379 C4391 0.929 . S
H4380 C4394 0.930 . S
H4381 C4396 0.960 . S
H4382 C4396 0.960 . S
H4383 C4396 0.960 . S
C4384 H4376 0.929 . S
C4384 C4385 1.377 . S
C4384 C4386 1.384 . S
C4385 C4384 1.377 . S
C4385 C4391 1.390 . S
C4386 H4377 0.930 . S
C4386 C4384 1.384 . S
C4386 C4387 1.372 . S
C4387 C4386 1.372 . S
C4387 C4388 1.400 . S
C4387 C4392 1.490 . S
C4388 H4378 0.930 . S
C4388 C4387 1.400 . S
C4388 C4391 1.386 . S
H4389 C4405 0.930 . S
H4390 C4406 0.931 . S
C4391 H4379 0.929 . S
C4391 C4385 1.390 . S
C4391 C4388 1.386 . S
C4392 C4387 1.490 . S
C4392 C4394 1.395 . S
C4392 C4395 1.403 . S
H4393 C4399 0.930 . S
C4394 H4380 0.930 . S
C4394 C4392 1.395 . S
C4394 C4397 1.403 . S
C4395 C4392 1.403 . S
C4395 C4396 1.524 . S
C4395 C4399 1.400 . S
C4396 H4381 0.960 . S
C4396 H4382 0.960 . S
C4396 H4383 0.960 . S
C4396 C4395 1.524 . S
C4397 C4394 1.403 . S
C4397 C4398 1.392 . S
C4397 C4401 1.495 . S
C4398 C4397 1.392 . S
C4398 C4399 1.385 . S
C4398 C4400 1.478 . S
C4399 H4393 0.930 . S
C4399 C4395 1.400 . S
C4399 C4398 1.385 . S
C4400 C4398 1.478 . S
C4400 C4402 1.381 . S
C4400 C4406 1.383 . S
C4401 C4397 1.495 . S
C4401 H4407 0.959 . S
C4401 H4408 0.961 . S
C4401 H4409 0.960 . S
C4402 C4400 1.381 . S
C4402 C4403 1.394 . S
C4402 H4410 0.930 . S
C4403 C4402 1.394 . S
C4403 C4404 1.383 . S
C4403 H4411 0.929 . S
C4404 C4403 1.383 . S
C4404 C4405 1.377 . S
C4405 H4389 0.930 . S
C4405 C4404 1.377 . S
C4405 C4406 1.379 . S
C4406 H4390 0.931 . S
C4406 C4400 1.383 . S
C4406 C4405 1.379 . S
H4407 C4401 0.959 . S
H4408 C4401 0.961 . S
H4409 C4401 0.960 . S
H4410 C4402 0.930 . S
H4411 C4403 0.929 . S
H4412 C4420 0.929 . S
H4413 C4422 0.930 . S
H4414 C4424 0.930 . S
H4415 C4427 0.929 . S
H4416 C4430 0.930 . S
H4417 C4432 0.960 . S
H4418 C4432 0.960 . S
H4419 C4432 0.960 . S
C4420 H4412 0.929 . S
C4420 C4421 1.377 . S
C4420 C4422 1.384 . S
C4421 C4420 1.377 . S
C4421 C4427 1.390 . S
C4422 H4413 0.930 . S
C4422 C4420 1.384 . S
C4422 C4423 1.372 . S
C4423 C4422 1.372 . S
C4423 C4424 1.400 . S
C4423 C4428 1.490 . S
C4424 H4414 0.930 . S
C4424 C4423 1.400 . S
C4424 C4427 1.386 . S
H4425 C4441 0.930 . S
H4426 C4442 0.931 . S
C4427 H4415 0.929 . S
C4427 C4421 1.390 . S
C4427 C4424 1.386 . S
C4428 C4423 1.490 . S
C4428 C4430 1.395 . S
C4428 C4431 1.403 . S
H4429 C4435 0.930 . S
C4430 H4416 0.930 . S
C4430 C4428 1.395 . S
C4430 C4433 1.403 . S
C4431 C4428 1.403 . S
C4431 C4432 1.524 . S
C4431 C4435 1.400 . S
C4432 H4417 0.960 . S
C4432 H4418 0.960 . S
C4432 H4419 0.960 . S
C4432 C4431 1.524 . S
C4433 C4430 1.403 . S
C4433 C4434 1.392 . S
C4433 C4437 1.495 . S
C4434 C4433 1.392 . S
C4434 C4435 1.385 . S
C4434 C4436 1.478 . S
C4435 H4429 0.930 . S
C4435 C4431 1.400 . S
C4435 C4434 1.385 . S
C4436 C4434 1.478 . S
C4436 C4438 1.381 . S
C4436 C4442 1.383 . S
C4437 C4433 1.495 . S
C4437 H4443 0.959 . S
C4437 H4444 0.961 . S
C4437 H4445 0.960 . S
C4438 C4436 1.381 . S
C4438 C4439 1.394 . S
C4438 H4446 0.930 . S
C4439 C4438 1.394 . S
C4439 C4440 1.383 . S
C4439 H4447 0.929 . S
C4440 C4439 1.383 . S
C4440 C4441 1.377 . S
C4441 H4425 0.930 . S
C4441 C4440 1.377 . S
C4441 C4442 1.379 . S
C4442 H4426 0.931 . S
C4442 C4436 1.383 . S
C4442 C4441 1.379 . S
H4443 C4437 0.959 . S
H4444 C4437 0.961 . S
H4445 C4437 0.960 . S
H4446 C4438 0.930 . S
H4447 C4439 0.929 . S
H4448 C4456 0.929 . S
H4449 C4458 0.930 . S
H4450 C4460 0.930 . S
H4451 C4463 0.929 . S
H4452 C4466 0.930 . S
H4453 C4468 0.960 . S
H4454 C4468 0.960 . S
H4455 C4468 0.960 . S
C4456 H4448 0.929 . S
C4456 C4457 1.377 . S
C4456 C4458 1.384 . S
C4457 C4456 1.377 . S
C4457 C4463 1.390 . S
C4458 H4449 0.930 . S
C4458 C4456 1.384 . S
C4458 C4459 1.372 . S
C4459 C4458 1.372 . S
C4459 C4460 1.400 . S
C4459 C4464 1.490 . S
C4460 H4450 0.930 . S
C4460 C4459 1.400 . S
C4460 C4463 1.386 . S
H4461 C4477 0.930 . S
H4462 C4478 0.931 . S
C4463 H4451 0.929 . S
C4463 C4457 1.390 . S
C4463 C4460 1.386 . S
C4464 C4459 1.490 . S
C4464 C4466 1.395 . S
C4464 C4467 1.403 . S
H4465 C4471 0.930 . S
C4466 H4452 0.930 . S
C4466 C4464 1.395 . S
C4466 C4469 1.403 . S
C4467 C4464 1.403 . S
C4467 C4468 1.524 . S
C4467 C4471 1.400 . S
C4468 H4453 0.960 . S
C4468 H4454 0.960 . S
C4468 H4455 0.960 . S
C4468 C4467 1.524 . S
C4469 C4466 1.403 . S
C4469 C4470 1.392 . S
C4469 C4473 1.495 . S
C4470 C4469 1.392 . S
C4470 C4471 1.385 . S
C4470 C4472 1.478 . S
C4471 H4465 0.930 . S
C4471 C4467 1.400 . S
C4471 C4470 1.385 . S
C4472 C4470 1.478 . S
C4472 C4474 1.381 . S
C4472 C4478 1.383 . S
C4473 C4469 1.495 . S
C4473 H4479 0.959 . S
C4473 H4480 0.961 . S
C4473 H4481 0.960 . S
C4474 C4472 1.381 . S
C4474 C4475 1.394 . S
C4474 H4482 0.930 . S
C4475 C4474 1.394 . S
C4475 C4476 1.383 . S
C4475 H4483 0.929 . S
C4476 C4475 1.383 . S
C4476 C4477 1.377 . S
C4477 H4461 0.930 . S
C4477 C4476 1.377 . S
C4477 C4478 1.379 . S
C4478 H4462 0.931 . S
C4478 C4472 1.383 . S
C4478 C4477 1.379 . S
H4479 C4473 0.959 . S
H4480 C4473 0.961 . S
H4481 C4473 0.960 . S
H4482 C4474 0.930 . S
H4483 C4475 0.929 . S
H4484 C4492 0.929 . S
H4485 C4494 0.930 . S
H4486 C4496 0.930 . S
H4487 C4499 0.929 . S
H4488 C4502 0.930 . S
H4489 C4504 0.960 . S
H4490 C4504 0.960 . S
H4491 C4504 0.960 . S
C4492 H4484 0.929 . S
C4492 C4493 1.377 . S
C4492 C4494 1.384 . S
C4493 C4492 1.377 . S
C4493 C4499 1.390 . S
C4494 H4485 0.930 . S
C4494 C4492 1.384 . S
C4494 C4495 1.372 . S
C4495 C4494 1.372 . S
C4495 C4496 1.400 . S
C4495 C4500 1.490 . S
C4496 H4486 0.930 . S
C4496 C4495 1.400 . S
C4496 C4499 1.386 . S
H4497 C4513 0.930 . S
H4498 C4514 0.931 . S
C4499 H4487 0.929 . S
C4499 C4493 1.390 . S
C4499 C4496 1.386 . S
C4500 C4495 1.490 . S
C4500 C4502 1.395 . S
C4500 C4503 1.403 . S
H4501 C4507 0.930 . S
C4502 H4488 0.930 . S
C4502 C4500 1.395 . S
C4502 C4505 1.403 . S
C4503 C4500 1.403 . S
C4503 C4504 1.524 . S
C4503 C4507 1.400 . S
C4504 H4489 0.960 . S
C4504 H4490 0.960 . S
C4504 H4491 0.960 . S
C4504 C4503 1.524 . S
C4505 C4502 1.403 . S
C4505 C4506 1.392 . S
C4505 C4509 1.495 . S
C4506 C4505 1.392 . S
C4506 C4507 1.385 . S
C4506 C4508 1.478 . S
C4507 H4501 0.930 . S
C4507 C4503 1.400 . S
C4507 C4506 1.385 . S
C4508 C4506 1.478 . S
C4508 C4510 1.381 . S
C4508 C4514 1.383 . S
C4509 C4505 1.495 . S
C4509 H4515 0.959 . S
C4509 H4516 0.961 . S
C4509 H4517 0.960 . S
C4510 C4508 1.381 . S
C4510 C4511 1.394 . S
C4510 H4518 0.930 . S
C4511 C4510 1.394 . S
C4511 C4512 1.383 . S
C4511 H4519 0.929 . S
C4512 C4511 1.383 . S
C4512 C4513 1.377 . S
C4513 H4497 0.930 . S
C4513 C4512 1.377 . S
C4513 C4514 1.379 . S
C4514 H4498 0.931 . S
C4514 C4508 1.383 . S
C4514 C4513 1.379 . S
H4515 C4509 0.959 . S
H4516 C4509 0.961 . S
H4517 C4509 0.960 . S
H4518 C4510 0.930 . S
H4519 C4511 0.929 . S
H4520 C4528 0.929 . S
H4521 C4530 0.930 . S
H4522 C4532 0.930 . S
H4523 C4535 0.929 . S
H4524 C4538 0.930 . S
H4525 C4540 0.960 . S
H4526 C4540 0.960 . S
H4527 C4540 0.960 . S
C4528 H4520 0.929 . S
C4528 C4529 1.377 . S
C4528 C4530 1.384 . S
C4529 C4528 1.377 . S
C4529 C4535 1.390 . S
C4530 H4521 0.930 . S
C4530 C4528 1.384 . S
C4530 C4531 1.372 . S
C4531 C4530 1.372 . S
C4531 C4532 1.400 . S
C4531 C4536 1.490 . S
C4532 H4522 0.930 . S
C4532 C4531 1.400 . S
C4532 C4535 1.386 . S
H4533 C4549 0.930 . S
H4534 C4550 0.931 . S
C4535 H4523 0.929 . S
C4535 C4529 1.390 . S
C4535 C4532 1.386 . S
C4536 C4531 1.490 . S
C4536 C4538 1.395 . S
C4536 C4539 1.403 . S
H4537 C4543 0.930 . S
C4538 H4524 0.930 . S
C4538 C4536 1.395 . S
C4538 C4541 1.403 . S
C4539 C4536 1.403 . S
C4539 C4540 1.524 . S
C4539 C4543 1.400 . S
C4540 H4525 0.960 . S
C4540 H4526 0.960 . S
C4540 H4527 0.960 . S
C4540 C4539 1.524 . S
C4541 C4538 1.403 . S
C4541 C4542 1.392 . S
C4541 C4545 1.495 . S
C4542 C4541 1.392 . S
C4542 C4543 1.385 . S
C4542 C4544 1.478 . S
C4543 H4537 0.930 . S
C4543 C4539 1.400 . S
C4543 C4542 1.385 . S
C4544 C4542 1.478 . S
C4544 C4546 1.381 . S
C4544 C4550 1.383 . S
C4545 C4541 1.495 . S
C4545 H4551 0.959 . S
C4545 H4552 0.961 . S
C4545 H4553 0.960 . S
C4546 C4544 1.381 . S
C4546 C4547 1.394 . S
C4546 H4554 0.930 . S
C4547 C4546 1.394 . S
C4547 C4548 1.383 . S
C4547 H4555 0.929 . S
C4548 C4547 1.383 . S
C4548 C4549 1.377 . S
C4549 H4533 0.930 . S
C4549 C4548 1.377 . S
C4549 C4550 1.379 . S
C4550 H4534 0.931 . S
C4550 C4544 1.383 . S
C4550 C4549 1.379 . S
H4551 C4545 0.959 . S
H4552 C4545 0.961 . S
H4553 C4545 0.960 . S
H4554 C4546 0.930 . S
H4555 C4547 0.929 . S
H4556 C4564 0.929 . S
H4557 C4566 0.930 . S
H4558 C4568 0.930 . S
H4559 C4571 0.929 . S
H4560 C4574 0.930 . S
H4561 C4576 0.960 . S
H4562 C4576 0.960 . S
H4563 C4576 0.960 . S
C4564 H4556 0.929 . S
C4564 C4565 1.377 . S
C4564 C4566 1.384 . S
C4565 C4564 1.377 . S
C4565 C4571 1.390 . S
C4566 H4557 0.930 . S
C4566 C4564 1.384 . S
C4566 C4567 1.372 . S
C4567 C4566 1.372 . S
C4567 C4568 1.400 . S
C4567 C4572 1.490 . S
C4568 H4558 0.930 . S
C4568 C4567 1.400 . S
C4568 C4571 1.386 . S
H4569 C4585 0.930 . S
H4570 C4586 0.931 . S
C4571 H4559 0.929 . S
C4571 C4565 1.390 . S
C4571 C4568 1.386 . S
C4572 C4567 1.490 . S
C4572 C4574 1.395 . S
C4572 C4575 1.403 . S
H4573 C4579 0.930 . S
C4574 H4560 0.930 . S
C4574 C4572 1.395 . S
C4574 C4577 1.403 . S
C4575 C4572 1.403 . S
C4575 C4576 1.524 . S
C4575 C4579 1.400 . S
C4576 H4561 0.960 . S
C4576 H4562 0.960 . S
C4576 H4563 0.960 . S
C4576 C4575 1.524 . S
C4577 C4574 1.403 . S
C4577 C4578 1.392 . S
C4577 C4581 1.495 . S
C4578 C4577 1.392 . S
C4578 C4579 1.385 . S
C4578 C4580 1.478 . S
C4579 H4573 0.930 . S
C4579 C4575 1.400 . S
C4579 C4578 1.385 . S
C4580 C4578 1.478 . S
C4580 C4582 1.381 . S
C4580 C4586 1.383 . S
C4581 C4577 1.495 . S
C4581 H4587 0.959 . S
C4581 H4588 0.961 . S
C4581 H4589 0.960 . S
C4582 C4580 1.381 . S
C4582 C4583 1.394 . S
C4582 H4590 0.930 . S
C4583 C4582 1.394 . S
C4583 C4584 1.383 . S
C4583 H4591 0.929 . S
C4584 C4583 1.383 . S
C4584 C4585 1.377 . S
C4585 H4569 0.930 . S
C4585 C4584 1.377 . S
C4585 C4586 1.379 . S
C4586 H4570 0.931 . S
C4586 C4580 1.383 . S
C4586 C4585 1.379 . S
H4587 C4581 0.959 . S
H4588 C4581 0.961 . S
H4589 C4581 0.960 . S
H4590 C4582 0.930 . S
H4591 C4583 0.929 . S
H4592 C4600 0.929 . S
H4593 C4602 0.930 . S
H4594 C4604 0.930 . S
H4595 C4607 0.929 . S
H4596 C4610 0.930 . S
H4597 C4612 0.960 . S
H4598 C4612 0.960 . S
H4599 C4612 0.960 . S
C4600 H4592 0.929 . S
C4600 C4601 1.377 . S
C4600 C4602 1.384 . S
C4601 C4600 1.377 . S
C4601 C4607 1.390 . S
C4602 H4593 0.930 . S
C4602 C4600 1.384 . S
C4602 C4603 1.372 . S
C4603 C4602 1.372 . S
C4603 C4604 1.400 . S
C4603 C4608 1.490 . S
C4604 H4594 0.930 . S
C4604 C4603 1.400 . S
C4604 C4607 1.386 . S
H4605 C4621 0.930 . S
H4606 C4622 0.931 . S
C4607 H4595 0.929 . S
C4607 C4601 1.390 . S
C4607 C4604 1.386 . S
C4608 C4603 1.490 . S
C4608 C4610 1.395 . S
C4608 C4611 1.403 . S
H4609 C4615 0.930 . S
C4610 H4596 0.930 . S
C4610 C4608 1.395 . S
C4610 C4613 1.403 . S
C4611 C4608 1.403 . S
C4611 C4612 1.524 . S
C4611 C4615 1.400 . S
C4612 H4597 0.960 . S
C4612 H4598 0.960 . S
C4612 H4599 0.960 . S
C4612 C4611 1.524 . S
C4613 C4610 1.403 . S
C4613 C4614 1.392 . S
C4613 C4617 1.495 . S
C4614 C4613 1.392 . S
C4614 C4615 1.385 . S
C4614 C4616 1.478 . S
C4615 H4609 0.930 . S
C4615 C4611 1.400 . S
C4615 C4614 1.385 . S
C4616 C4614 1.478 . S
C4616 C4618 1.381 . S
C4616 C4622 1.383 . S
C4617 C4613 1.495 . S
C4617 H4623 0.959 . S
C4617 H4624 0.961 . S
C4617 H4625 0.960 . S
C4618 C4616 1.381 . S
C4618 C4619 1.394 . S
C4618 H4626 0.930 . S
C4619 C4618 1.394 . S
C4619 C4620 1.383 . S
C4619 H4627 0.929 . S
C4620 C4619 1.383 . S
C4620 C4621 1.377 . S
C4621 H4605 0.930 . S
C4621 C4620 1.377 . S
C4621 C4622 1.379 . S
C4622 H4606 0.931 . S
C4622 C4616 1.383 . S
C4622 C4621 1.379 . S
H4623 C4617 0.959 . S
H4624 C4617 0.961 . S
H4625 C4617 0.960 . S
H4626 C4618 0.930 . S
H4627 C4619 0.929 . S
H4628 C4636 0.929 . S
H4629 C4638 0.930 . S
H4630 C4640 0.930 . S
H4631 C4643 0.929 . S
H4632 C4646 0.930 . S
H4633 C4648 0.960 . S
H4634 C4648 0.960 . S
H4635 C4648 0.960 . S
C4636 H4628 0.929 . S
C4636 C4637 1.377 . S
C4636 C4638 1.384 . S
C4637 C4636 1.377 . S
C4637 C4643 1.390 . S
C4638 H4629 0.930 . S
C4638 C4636 1.384 . S
C4638 C4639 1.372 . S
C4639 C4638 1.372 . S
C4639 C4640 1.400 . S
C4639 C4644 1.490 . S
C4640 H4630 0.930 . S
C4640 C4639 1.400 . S
C4640 C4643 1.386 . S
H4641 C4657 0.930 . S
H4642 C4658 0.931 . S
C4643 H4631 0.929 . S
C4643 C4637 1.390 . S
C4643 C4640 1.386 . S
C4644 C4639 1.490 . S
C4644 C4646 1.395 . S
C4644 C4647 1.403 . S
H4645 C4651 0.930 . S
C4646 H4632 0.930 . S
C4646 C4644 1.395 . S
C4646 C4649 1.403 . S
C4647 C4644 1.403 . S
C4647 C4648 1.524 . S
C4647 C4651 1.400 . S
C4648 H4633 0.960 . S
C4648 H4634 0.960 . S
C4648 H4635 0.960 . S
C4648 C4647 1.524 . S
C4649 C4646 1.403 . S
C4649 C4650 1.392 . S
C4649 C4653 1.495 . S
C4650 C4649 1.392 . S
C4650 C4651 1.385 . S
C4650 C4652 1.478 . S
C4651 H4645 0.930 . S
C4651 C4647 1.400 . S
C4651 C4650 1.385 . S
C4652 C4650 1.478 . S
C4652 C4654 1.381 . S
C4652 C4658 1.383 . S
C4653 C4649 1.495 . S
C4653 H4659 0.959 . S
C4653 H4660 0.961 . S
C4653 H4661 0.960 . S
C4654 C4652 1.381 . S
C4654 C4655 1.394 . S
C4654 H4662 0.930 . S
C4655 C4654 1.394 . S
C4655 C4656 1.383 . S
C4655 H4663 0.929 . S
C4656 C4655 1.383 . S
C4656 C4657 1.377 . S
C4657 H4641 0.930 . S
C4657 C4656 1.377 . S
C4657 C4658 1.379 . S
C4658 H4642 0.931 . S
C4658 C4652 1.383 . S
C4658 C4657 1.379 . S
H4659 C4653 0.959 . S
H4660 C4653 0.961 . S
H4661 C4653 0.960 . S
H4662 C4654 0.930 . S
H4663 C4655 0.929 . S
H4664 C4672 0.929 . S
H4665 C4674 0.930 . S
H4666 C4676 0.930 . S
H4667 C4679 0.929 . S
H4668 C4682 0.930 . S
H4669 C4684 0.960 . S
H4670 C4684 0.960 . S
H4671 C4684 0.960 . S
C4672 H4664 0.929 . S
C4672 C4673 1.377 . S
C4672 C4674 1.384 . S
C4673 C4672 1.377 . S
C4673 C4679 1.390 . S
C4674 H4665 0.930 . S
C4674 C4672 1.384 . S
C4674 C4675 1.372 . S
C4675 C4674 1.372 . S
C4675 C4676 1.400 . S
C4675 C4680 1.490 . S
C4676 H4666 0.930 . S
C4676 C4675 1.400 . S
C4676 C4679 1.386 . S
H4677 C4693 0.930 . S
H4678 C4694 0.931 . S
C4679 H4667 0.929 . S
C4679 C4673 1.390 . S
C4679 C4676 1.386 . S
C4680 C4675 1.490 . S
C4680 C4682 1.395 . S
C4680 C4683 1.403 . S
H4681 C4687 0.930 . S
C4682 H4668 0.930 . S
C4682 C4680 1.395 . S
C4682 C4685 1.403 . S
C4683 C4680 1.403 . S
C4683 C4684 1.524 . S
C4683 C4687 1.400 . S
C4684 H4669 0.960 . S
C4684 H4670 0.960 . S
C4684 H4671 0.960 . S
C4684 C4683 1.524 . S
C4685 C4682 1.403 . S
C4685 C4686 1.392 . S
C4685 C4689 1.495 . S
C4686 C4685 1.392 . S
C4686 C4687 1.385 . S
C4686 C4688 1.478 . S
C4687 H4681 0.930 . S
C4687 C4683 1.400 . S
C4687 C4686 1.385 . S
C4688 C4686 1.478 . S
C4688 C4690 1.381 . S
C4688 C4694 1.383 . S
C4689 C4685 1.495 . S
C4689 H4695 0.959 . S
C4689 H4696 0.961 . S
C4689 H4697 0.960 . S
C4690 C4688 1.381 . S
C4690 C4691 1.394 . S
C4690 H4698 0.930 . S
C4691 C4690 1.394 . S
C4691 C4692 1.383 . S
C4691 H4699 0.929 . S
C4692 C4691 1.383 . S
C4692 C4693 1.377 . S
C4693 H4677 0.930 . S
C4693 C4692 1.377 . S
C4693 C4694 1.379 . S
C4694 H4678 0.931 . S
C4694 C4688 1.383 . S
C4694 C4693 1.379 . S
H4695 C4689 0.959 . S
H4696 C4689 0.961 . S
H4697 C4689 0.960 . S
H4698 C4690 0.930 . S
H4699 C4691 0.929 . S
H4700 C4708 0.929 . S
H4701 C4710 0.930 . S
H4702 C4712 0.930 . S
H4703 C4715 0.929 . S
H4704 C4718 0.930 . S
H4705 C4720 0.960 . S
H4706 C4720 0.960 . S
H4707 C4720 0.960 . S
C4708 H4700 0.929 . S
C4708 C4709 1.377 . S
C4708 C4710 1.384 . S
C4709 C4708 1.377 . S
C4709 C4715 1.390 . S
C4710 H4701 0.930 . S
C4710 C4708 1.384 . S
C4710 C4711 1.372 . S
C4711 C4710 1.372 . S
C4711 C4712 1.400 . S
C4711 C4716 1.490 . S
C4712 H4702 0.930 . S
C4712 C4711 1.400 . S
C4712 C4715 1.386 . S
H4713 C4729 0.930 . S
H4714 C4730 0.931 . S
C4715 H4703 0.929 . S
C4715 C4709 1.390 . S
C4715 C4712 1.386 . S
C4716 C4711 1.490 . S
C4716 C4718 1.395 . S
C4716 C4719 1.403 . S
H4717 C4723 0.930 . S
C4718 H4704 0.930 . S
C4718 C4716 1.395 . S
C4718 C4721 1.403 . S
C4719 C4716 1.403 . S
C4719 C4720 1.524 . S
C4719 C4723 1.400 . S
C4720 H4705 0.960 . S
C4720 H4706 0.960 . S
C4720 H4707 0.960 . S
C4720 C4719 1.524 . S
C4721 C4718 1.403 . S
C4721 C4722 1.392 . S
C4721 C4725 1.495 . S
C4722 C4721 1.392 . S
C4722 C4723 1.385 . S
C4722 C4724 1.478 . S
C4723 H4717 0.930 . S
C4723 C4719 1.400 . S
C4723 C4722 1.385 . S
C4724 C4722 1.478 . S
C4724 C4726 1.381 . S
C4724 C4730 1.383 . S
C4725 C4721 1.495 . S
C4725 H4731 0.959 . S
C4725 H4732 0.961 . S
C4725 H4733 0.960 . S
C4726 C4724 1.381 . S
C4726 C4727 1.394 . S
C4726 H4734 0.930 . S
C4727 C4726 1.394 . S
C4727 C4728 1.383 . S
C4727 H4735 0.929 . S
C4728 C4727 1.383 . S
C4728 C4729 1.377 . S
C4729 H4713 0.930 . S
C4729 C4728 1.377 . S
C4729 C4730 1.379 . S
C4730 H4714 0.931 . S
C4730 C4724 1.383 . S
C4730 C4729 1.379 . S
H4731 C4725 0.959 . S
H4732 C4725 0.961 . S
H4733 C4725 0.960 . S
H4734 C4726 0.930 . S
H4735 C4727 0.929 . S
H4736 C4744 0.929 . S
H4737 C4746 0.930 . S
H4738 C4748 0.930 . S
H4739 C4751 0.929 . S
H4740 C4754 0.930 . S
H4741 C4756 0.960 . S
H4742 C4756 0.960 . S
H4743 C4756 0.960 . S
C4744 H4736 0.929 . S
C4744 C4745 1.377 . S
C4744 C4746 1.384 . S
C4745 C4744 1.377 . S
C4745 C4751 1.390 . S
C4746 H4737 0.930 . S
C4746 C4744 1.384 . S
C4746 C4747 1.372 . S
C4747 C4746 1.372 . S
C4747 C4748 1.400 . S
C4747 C4752 1.490 . S
C4748 H4738 0.930 . S
C4748 C4747 1.400 . S
C4748 C4751 1.386 . S
H4749 C4765 0.930 . S
H4750 C4766 0.931 . S
C4751 H4739 0.929 . S
C4751 C4745 1.390 . S
C4751 C4748 1.386 . S
C4752 C4747 1.490 . S
C4752 C4754 1.395 . S
C4752 C4755 1.403 . S
H4753 C4759 0.930 . S
C4754 H4740 0.930 . S
C4754 C4752 1.395 . S
C4754 C4757 1.403 . S
C4755 C4752 1.403 . S
C4755 C4756 1.524 . S
C4755 C4759 1.400 . S
C4756 H4741 0.960 . S
C4756 H4742 0.960 . S
C4756 H4743 0.960 . S
C4756 C4755 1.524 . S
C4757 C4754 1.403 . S
C4757 C4758 1.392 . S
C4757 C4761 1.495 . S
C4758 C4757 1.392 . S
C4758 C4759 1.385 . S
C4758 C4760 1.478 . S
C4759 H4753 0.930 . S
C4759 C4755 1.400 . S
C4759 C4758 1.385 . S
C4760 C4758 1.478 . S
C4760 C4762 1.381 . S
C4760 C4766 1.383 . S
C4761 C4757 1.495 . S
C4761 H4767 0.959 . S
C4761 H4768 0.961 . S
C4761 H4769 0.960 . S
C4762 C4760 1.381 . S
C4762 C4763 1.394 . S
C4762 H4770 0.930 . S
C4763 C4762 1.394 . S
C4763 C4764 1.383 . S
C4763 H4771 0.929 . S
C4764 C4763 1.383 . S
C4764 C4765 1.377 . S
C4765 H4749 0.930 . S
C4765 C4764 1.377 . S
C4765 C4766 1.379 . S
C4766 H4750 0.931 . S
C4766 C4760 1.383 . S
C4766 C4765 1.379 . S
H4767 C4761 0.959 . S
H4768 C4761 0.961 . S
H4769 C4761 0.960 . S
H4770 C4762 0.930 . S
H4771 C4763 0.929 . S
H4772 C4780 0.929 . S
H4773 C4782 0.930 . S
H4774 C4784 0.930 . S
H4775 C4787 0.929 . S
H4776 C4790 0.930 . S
H4777 C4792 0.960 . S
H4778 C4792 0.960 . S
H4779 C4792 0.960 . S
C4780 H4772 0.929 . S
C4780 C4781 1.377 . S
C4780 C4782 1.384 . S
C4781 C4780 1.377 . S
C4781 C4787 1.390 . S
C4782 H4773 0.930 . S
C4782 C4780 1.384 . S
C4782 C4783 1.372 . S
C4783 C4782 1.372 . S
C4783 C4784 1.400 . S
C4783 C4788 1.490 . S
C4784 H4774 0.930 . S
C4784 C4783 1.400 . S
C4784 C4787 1.386 . S
H4785 C4801 0.930 . S
H4786 C4802 0.931 . S
C4787 H4775 0.929 . S
C4787 C4781 1.390 . S
C4787 C4784 1.386 . S
C4788 C4783 1.490 . S
C4788 C4790 1.395 . S
C4788 C4791 1.403 . S
H4789 C4795 0.930 . S
C4790 H4776 0.930 . S
C4790 C4788 1.395 . S
C4790 C4793 1.403 . S
C4791 C4788 1.403 . S
C4791 C4792 1.524 . S
C4791 C4795 1.400 . S
C4792 H4777 0.960 . S
C4792 H4778 0.960 . S
C4792 H4779 0.960 . S
C4792 C4791 1.524 . S
C4793 C4790 1.403 . S
C4793 C4794 1.392 . S
C4793 C4797 1.495 . S
C4794 C4793 1.392 . S
C4794 C4795 1.385 . S
C4794 C4796 1.478 . S
C4795 H4789 0.930 . S
C4795 C4791 1.400 . S
C4795 C4794 1.385 . S
C4796 C4794 1.478 . S
C4796 C4798 1.381 . S
C4796 C4802 1.383 . S
C4797 C4793 1.495 . S
C4797 H4803 0.959 . S
C4797 H4804 0.961 . S
C4797 H4805 0.960 . S
C4798 C4796 1.381 . S
C4798 C4799 1.394 . S
C4798 H4806 0.930 . S
C4799 C4798 1.394 . S
C4799 C4800 1.383 . S
C4799 H4807 0.929 . S
C4800 C4799 1.383 . S
C4800 C4801 1.377 . S
C4801 H4785 0.930 . S
C4801 C4800 1.377 . S
C4801 C4802 1.379 . S
C4802 H4786 0.931 . S
C4802 C4796 1.383 . S
C4802 C4801 1.379 . S
H4803 C4797 0.959 . S
H4804 C4797 0.961 . S
H4805 C4797 0.960 . S
H4806 C4798 0.930 . S
H4807 C4799 0.929 . S
H4808 C4816 0.929 . S
H4809 C4818 0.930 . S
H4810 C4820 0.930 . S
H4811 C4823 0.929 . S
H4812 C4826 0.930 . S
H4813 C4828 0.960 . S
H4814 C4828 0.960 . S
H4815 C4828 0.960 . S
C4816 H4808 0.929 . S
C4816 C4817 1.377 . S
C4816 C4818 1.384 . S
C4817 C4816 1.377 . S
C4817 C4823 1.390 . S
C4818 H4809 0.930 . S
C4818 C4816 1.384 . S
C4818 C4819 1.372 . S
C4819 C4818 1.372 . S
C4819 C4820 1.400 . S
C4819 C4824 1.490 . S
C4820 H4810 0.930 . S
C4820 C4819 1.400 . S
C4820 C4823 1.386 . S
H4821 C4837 0.930 . S
H4822 C4838 0.931 . S
C4823 H4811 0.929 . S
C4823 C4817 1.390 . S
C4823 C4820 1.386 . S
C4824 C4819 1.490 . S
C4824 C4826 1.395 . S
C4824 C4827 1.403 . S
H4825 C4831 0.930 . S
C4826 H4812 0.930 . S
C4826 C4824 1.395 . S
C4826 C4829 1.403 . S
C4827 C4824 1.403 . S
C4827 C4828 1.524 . S
C4827 C4831 1.400 . S
C4828 H4813 0.960 . S
C4828 H4814 0.960 . S
C4828 H4815 0.960 . S
C4828 C4827 1.524 . S
C4829 C4826 1.403 . S
C4829 C4830 1.392 . S
C4829 C4833 1.495 . S
C4830 C4829 1.392 . S
C4830 C4831 1.385 . S
C4830 C4832 1.478 . S
C4831 H4825 0.930 . S
C4831 C4827 1.400 . S
C4831 C4830 1.385 . S
C4832 C4830 1.478 . S
C4832 C4834 1.381 . S
C4832 C4838 1.383 . S
C4833 C4829 1.495 . S
C4833 H4839 0.959 . S
C4833 H4840 0.961 . S
C4833 H4841 0.960 . S
C4834 C4832 1.381 . S
C4834 C4835 1.394 . S
C4834 H4842 0.930 . S
C4835 C4834 1.394 . S
C4835 C4836 1.383 . S
C4835 H4843 0.929 . S
C4836 C4835 1.383 . S
C4836 C4837 1.377 . S
C4837 H4821 0.930 . S
C4837 C4836 1.377 . S
C4837 C4838 1.379 . S
C4838 H4822 0.931 . S
C4838 C4832 1.383 . S
C4838 C4837 1.379 . S
H4839 C4833 0.959 . S
H4840 C4833 0.961 . S
H4841 C4833 0.960 . S
H4842 C4834 0.930 . S
H4843 C4835 0.929 . S
H4844 C4852 0.929 . S
H4845 C4854 0.930 . S
H4846 C4856 0.930 . S
H4847 C4859 0.929 . S
H4848 C4862 0.930 . S
H4849 C4864 0.960 . S
H4850 C4864 0.960 . S
H4851 C4864 0.960 . S
C4852 H4844 0.929 . S
C4852 C4853 1.377 . S
C4852 C4854 1.384 . S
C4853 C4852 1.377 . S
C4853 C4859 1.390 . S
C4854 H4845 0.930 . S
C4854 C4852 1.384 . S
C4854 C4855 1.372 . S
C4855 C4854 1.372 . S
C4855 C4856 1.400 . S
C4855 C4860 1.490 . S
C4856 H4846 0.930 . S
C4856 C4855 1.400 . S
C4856 C4859 1.386 . S
H4857 C4873 0.930 . S
H4858 C4874 0.931 . S
C4859 H4847 0.929 . S
C4859 C4853 1.390 . S
C4859 C4856 1.386 . S
C4860 C4855 1.490 . S
C4860 C4862 1.395 . S
C4860 C4863 1.403 . S
H4861 C4867 0.930 . S
C4862 H4848 0.930 . S
C4862 C4860 1.395 . S
C4862 C4865 1.403 . S
C4863 C4860 1.403 . S
C4863 C4864 1.524 . S
C4863 C4867 1.400 . S
C4864 H4849 0.960 . S
C4864 H4850 0.960 . S
C4864 H4851 0.960 . S
C4864 C4863 1.524 . S
C4865 C4862 1.403 . S
C4865 C4866 1.392 . S
C4865 C4869 1.495 . S
C4866 C4865 1.392 . S
C4866 C4867 1.385 . S
C4866 C4868 1.478 . S
C4867 H4861 0.930 . S
C4867 C4863 1.400 . S
C4867 C4866 1.385 . S
C4868 C4866 1.478 . S
C4868 C4870 1.381 . S
C4868 C4874 1.383 . S
C4869 C4865 1.495 . S
C4869 H4875 0.959 . S
C4869 H4876 0.961 . S
C4869 H4877 0.960 . S
C4870 C4868 1.381 . S
C4870 C4871 1.394 . S
C4870 H4878 0.930 . S
C4871 C4870 1.394 . S
C4871 C4872 1.383 . S
C4871 H4879 0.929 . S
C4872 C4871 1.383 . S
C4872 C4873 1.377 . S
C4873 H4857 0.930 . S
C4873 C4872 1.377 . S
C4873 C4874 1.379 . S
C4874 H4858 0.931 . S
C4874 C4868 1.383 . S
C4874 C4873 1.379 . S
H4875 C4869 0.959 . S
H4876 C4869 0.961 . S
H4877 C4869 0.960 . S
H4878 C4870 0.930 . S
H4879 C4871 0.929 . S
H4880 C4888 0.929 . S
H4881 C4890 0.930 . S
H4882 C4892 0.930 . S
H4883 C4895 0.929 . S
H4884 C4898 0.930 . S
H4885 C4900 0.960 . S
H4886 C4900 0.960 . S
H4887 C4900 0.960 . S
C4888 H4880 0.929 . S
C4888 C4889 1.377 . S
C4888 C4890 1.384 . S
C4889 C4888 1.377 . S
C4889 C4895 1.390 . S
C4890 H4881 0.930 . S
C4890 C4888 1.384 . S
C4890 C4891 1.372 . S
C4891 C4890 1.372 . S
C4891 C4892 1.400 . S
C4891 C4896 1.490 . S
C4892 H4882 0.930 . S
C4892 C4891 1.400 . S
C4892 C4895 1.386 . S
H4893 C4909 0.930 . S
H4894 C4910 0.931 . S
C4895 H4883 0.929 . S
C4895 C4889 1.390 . S
C4895 C4892 1.386 . S
C4896 C4891 1.490 . S
C4896 C4898 1.395 . S
C4896 C4899 1.403 . S
H4897 C4903 0.930 . S
C4898 H4884 0.930 . S
C4898 C4896 1.395 . S
C4898 C4901 1.403 . S
C4899 C4896 1.403 . S
C4899 C4900 1.524 . S
C4899 C4903 1.400 . S
C4900 H4885 0.960 . S
C4900 H4886 0.960 . S
C4900 H4887 0.960 . S
C4900 C4899 1.524 . S
C4901 C4898 1.403 . S
C4901 C4902 1.392 . S
C4901 C4905 1.495 . S
C4902 C4901 1.392 . S
C4902 C4903 1.385 . S
C4902 C4904 1.478 . S
C4903 H4897 0.930 . S
C4903 C4899 1.400 . S
C4903 C4902 1.385 . S
C4904 C4902 1.478 . S
C4904 C4906 1.381 . S
C4904 C4910 1.383 . S
C4905 C4901 1.495 . S
C4905 H4911 0.959 . S
C4905 H4912 0.961 . S
C4905 H4913 0.960 . S
C4906 C4904 1.381 . S
C4906 C4907 1.394 . S
C4906 H4914 0.930 . S
C4907 C4906 1.394 . S
C4907 C4908 1.383 . S
C4907 H4915 0.929 . S
C4908 C4907 1.383 . S
C4908 C4909 1.377 . S
C4909 H4893 0.930 . S
C4909 C4908 1.377 . S
C4909 C4910 1.379 . S
C4910 H4894 0.931 . S
C4910 C4904 1.383 . S
C4910 C4909 1.379 . S
H4911 C4905 0.959 . S
H4912 C4905 0.961 . S
H4913 C4905 0.960 . S
H4914 C4906 0.930 . S
H4915 C4907 0.929 . S
H4916 C4924 0.929 . S
H4917 C4926 0.930 . S
H4918 C4928 0.930 . S
H4919 C4931 0.929 . S
H4920 C4934 0.930 . S
H4921 C4936 0.960 . S
H4922 C4936 0.960 . S
H4923 C4936 0.960 . S
C4924 H4916 0.929 . S
C4924 C4925 1.377 . S
C4924 C4926 1.384 . S
C4925 C4924 1.377 . S
C4925 C4931 1.390 . S
C4926 H4917 0.930 . S
C4926 C4924 1.384 . S
C4926 C4927 1.372 . S
C4927 C4926 1.372 . S
C4927 C4928 1.400 . S
C4927 C4932 1.490 . S
C4928 H4918 0.930 . S
C4928 C4927 1.400 . S
C4928 C4931 1.386 . S
H4929 C4945 0.930 . S
H4930 C4946 0.931 . S
C4931 H4919 0.929 . S
C4931 C4925 1.390 . S
C4931 C4928 1.386 . S
C4932 C4927 1.490 . S
C4932 C4934 1.395 . S
C4932 C4935 1.403 . S
H4933 C4939 0.930 . S
C4934 H4920 0.930 . S
C4934 C4932 1.395 . S
C4934 C4937 1.403 . S
C4935 C4932 1.403 . S
C4935 C4936 1.524 . S
C4935 C4939 1.400 . S
C4936 H4921 0.960 . S
C4936 H4922 0.960 . S
C4936 H4923 0.960 . S
C4936 C4935 1.524 . S
C4937 C4934 1.403 . S
C4937 C4938 1.392 . S
C4937 C4941 1.495 . S
C4938 C4937 1.392 . S
C4938 C4939 1.385 . S
C4938 C4940 1.478 . S
C4939 H4933 0.930 . S
C4939 C4935 1.400 . S
C4939 C4938 1.385 . S
C4940 C4938 1.478 . S
C4940 C4942 1.381 . S
C4940 C4946 1.383 . S
C4941 C4937 1.495 . S
C4941 H4947 0.959 . S
C4941 H4948 0.961 . S
C4941 H4949 0.960 . S
C4942 C4940 1.381 . S
C4942 C4943 1.394 . S
C4942 H4950 0.930 . S
C4943 C4942 1.394 . S
C4943 C4944 1.383 . S
C4943 H4951 0.929 . S
C4944 C4943 1.383 . S
C4944 C4945 1.377 . S
C4945 H4929 0.930 . S
C4945 C4944 1.377 . S
C4945 C4946 1.379 . S
C4946 H4930 0.931 . S
C4946 C4940 1.383 . S
C4946 C4945 1.379 . S
H4947 C4941 0.959 . S
H4948 C4941 0.961 . S
H4949 C4941 0.960 . S
H4950 C4942 0.930 . S
H4951 C4943 0.929 . S
H4952 C4960 0.929 . S
H4953 C4962 0.930 . S
H4954 C4964 0.930 . S
H4955 C4967 0.929 . S
H4956 C4970 0.930 . S
H4957 C4972 0.960 . S
H4958 C4972 0.960 . S
H4959 C4972 0.960 . S
C4960 H4952 0.929 . S
C4960 C4961 1.377 . S
C4960 C4962 1.384 . S
C4961 C4960 1.377 . S
C4961 C4967 1.390 . S
C4962 H4953 0.930 . S
C4962 C4960 1.384 . S
C4962 C4963 1.372 . S
C4963 C4962 1.372 . S
C4963 C4964 1.400 . S
C4963 C4968 1.490 . S
C4964 H4954 0.930 . S
C4964 C4963 1.400 . S
C4964 C4967 1.386 . S
H4965 C4981 0.930 . S
H4966 C4982 0.931 . S
C4967 H4955 0.929 . S
C4967 C4961 1.390 . S
C4967 C4964 1.386 . S
C4968 C4963 1.490 . S
C4968 C4970 1.395 . S
C4968 C4971 1.403 . S
H4969 C4975 0.930 . S
C4970 H4956 0.930 . S
C4970 C4968 1.395 . S
C4970 C4973 1.403 . S
C4971 C4968 1.403 . S
C4971 C4972 1.524 . S
C4971 C4975 1.400 . S
C4972 H4957 0.960 . S
C4972 H4958 0.960 . S
C4972 H4959 0.960 . S
C4972 C4971 1.524 . S
C4973 C4970 1.403 . S
C4973 C4974 1.392 . S
C4973 C4977 1.495 . S
C4974 C4973 1.392 . S
C4974 C4975 1.385 . S
C4974 C4976 1.478 . S
C4975 H4969 0.930 . S
C4975 C4971 1.400 . S
C4975 C4974 1.385 . S
C4976 C4974 1.478 . S
C4976 C4978 1.381 . S
C4976 C4982 1.383 . S
C4977 C4973 1.495 . S
C4977 H4983 0.959 . S
C4977 H4984 0.961 . S
C4977 H4985 0.960 . S
C4978 C4976 1.381 . S
C4978 C4979 1.394 . S
C4978 H4986 0.930 . S
C4979 C4978 1.394 . S
C4979 C4980 1.383 . S
C4979 H4987 0.929 . S
C4980 C4979 1.383 . S
C4980 C4981 1.377 . S
C4981 H4965 0.930 . S
C4981 C4980 1.377 . S
C4981 C4982 1.379 . S
C4982 H4966 0.931 . S
C4982 C4976 1.383 . S
C4982 C4981 1.379 . S
H4983 C4977 0.959 . S
H4984 C4977 0.961 . S
H4985 C4977 0.960 . S
H4986 C4978 0.930 . S
H4987 C4979 0.929 . S
H4988 C4996 0.929 . S
H4989 C4998 0.930 . S
H4990 C5000 0.930 . S
H4991 C5003 0.929 . S
H4992 C5006 0.930 . S
H4993 C5008 0.960 . S
H4994 C5008 0.960 . S
H4995 C5008 0.960 . S
C4996 H4988 0.929 . S
C4996 C4997 1.377 . S
C4996 C4998 1.384 . S
C4997 C4996 1.377 . S
C4997 C5003 1.390 . S
C4998 H4989 0.930 . S
C4998 C4996 1.384 . S
C4998 C4999 1.372 . S
C4999 C4998 1.372 . S
C4999 C5000 1.400 . S
C4999 C5004 1.490 . S
C5000 H4990 0.930 . S
C5000 C4999 1.400 . S
C5000 C5003 1.386 . S
H5001 C5017 0.930 . S
H5002 C5018 0.931 . S
C5003 H4991 0.929 . S
C5003 C4997 1.390 . S
C5003 C5000 1.386 . S
C5004 C4999 1.490 . S
C5004 C5006 1.395 . S
C5004 C5007 1.403 . S
H5005 C5011 0.930 . S
C5006 H4992 0.930 . S
C5006 C5004 1.395 . S
C5006 C5009 1.403 . S
C5007 C5004 1.403 . S
C5007 C5008 1.524 . S
C5007 C5011 1.400 . S
C5008 H4993 0.960 . S
C5008 H4994 0.960 . S
C5008 H4995 0.960 . S
C5008 C5007 1.524 . S
C5009 C5006 1.403 . S
C5009 C5010 1.392 . S
C5009 C5013 1.495 . S
C5010 C5009 1.392 . S
C5010 C5011 1.385 . S
C5010 C5012 1.478 . S
C5011 H5005 0.930 . S
C5011 C5007 1.400 . S
C5011 C5010 1.385 . S
C5012 C5010 1.478 . S
C5012 C5014 1.381 . S
C5012 C5018 1.383 . S
C5013 C5009 1.495 . S
C5013 H5019 0.959 . S
C5013 H5020 0.961 . S
C5013 H5021 0.960 . S
C5014 C5012 1.381 . S
C5014 C5015 1.394 . S
C5014 H5022 0.930 . S
C5015 C5014 1.394 . S
C5015 C5016 1.383 . S
C5015 H5023 0.929 . S
C5016 C5015 1.383 . S
C5016 C5017 1.377 . S
C5017 H5001 0.930 . S
C5017 C5016 1.377 . S
C5017 C5018 1.379 . S
C5018 H5002 0.931 . S
C5018 C5012 1.383 . S
C5018 C5017 1.379 . S
H5019 C5013 0.959 . S
H5020 C5013 0.961 . S
H5021 C5013 0.960 . S
H5022 C5014 0.930 . S
H5023 C5015 0.929 . S
H5024 C5032 0.929 . S
H5025 C5034 0.930 . S
H5026 C5036 0.930 . S
H5027 C5039 0.929 . S
H5028 C5042 0.930 . S
H5029 C5044 0.960 . S
H5030 C5044 0.960 . S
H5031 C5044 0.960 . S
C5032 H5024 0.929 . S
C5032 C5033 1.377 . S
C5032 C5034 1.384 . S
C5033 C5032 1.377 . S
C5033 C5039 1.390 . S
C5034 H5025 0.930 . S
C5034 C5032 1.384 . S
C5034 C5035 1.372 . S
C5035 C5034 1.372 . S
C5035 C5036 1.400 . S
C5035 C5040 1.490 . S
C5036 H5026 0.930 . S
C5036 C5035 1.400 . S
C5036 C5039 1.386 . S
H5037 C5053 0.930 . S
H5038 C5054 0.931 . S
C5039 H5027 0.929 . S
C5039 C5033 1.390 . S
C5039 C5036 1.386 . S
C5040 C5035 1.490 . S
C5040 C5042 1.395 . S
C5040 C5043 1.403 . S
H5041 C5047 0.930 . S
C5042 H5028 0.930 . S
C5042 C5040 1.395 . S
C5042 C5045 1.403 . S
C5043 C5040 1.403 . S
C5043 C5044 1.524 . S
C5043 C5047 1.400 . S
C5044 H5029 0.960 . S
C5044 H5030 0.960 . S
C5044 H5031 0.960 . S
C5044 C5043 1.524 . S
C5045 C5042 1.403 . S
C5045 C5046 1.392 . S
C5045 C5049 1.495 . S
C5046 C5045 1.392 . S
C5046 C5047 1.385 . S
C5046 C5048 1.478 . S
C5047 H5041 0.930 . S
C5047 C5043 1.400 . S
C5047 C5046 1.385 . S
C5048 C5046 1.478 . S
C5048 C5050 1.381 . S
C5048 C5054 1.383 . S
C5049 C5045 1.495 . S
C5049 H5055 0.959 . S
C5049 H5056 0.961 . S
C5049 H5057 0.960 . S
C5050 C5048 1.381 . S
C5050 C5051 1.394 . S
C5050 H5058 0.930 . S
C5051 C5050 1.394 . S
C5051 C5052 1.383 . S
C5051 H5059 0.929 . S
C5052 C5051 1.383 . S
C5052 C5053 1.377 . S
C5053 H5037 0.930 . S
C5053 C5052 1.377 . S
C5053 C5054 1.379 . S
C5054 H5038 0.931 . S
C5054 C5048 1.383 . S
C5054 C5053 1.379 . S
H5055 C5049 0.959 . S
H5056 C5049 0.961 . S
H5057 C5049 0.960 . S
H5058 C5050 0.930 . S
H5059 C5051 0.929 . S
H5060 C5068 0.929 . S
H5061 C5070 0.930 . S
H5062 C5072 0.930 . S
H5063 C5075 0.929 . S
H5064 C5078 0.930 . S
H5065 C5080 0.960 . S
H5066 C5080 0.960 . S
H5067 C5080 0.960 . S
C5068 H5060 0.929 . S
C5068 C5069 1.377 . S
C5068 C5070 1.384 . S
C5069 C5068 1.377 . S
C5069 C5075 1.390 . S
C5070 H5061 0.930 . S
C5070 C5068 1.384 . S
C5070 C5071 1.372 . S
C5071 C5070 1.372 . S
C5071 C5072 1.400 . S
C5071 C5076 1.490 . S
C5072 H5062 0.930 . S
C5072 C5071 1.400 . S
C5072 C5075 1.386 . S
H5073 C5089 0.930 . S
H5074 C5090 0.931 . S
C5075 H5063 0.929 . S
C5075 C5069 1.390 . S
C5075 C5072 1.386 . S
C5076 C5071 1.490 . S
C5076 C5078 1.395 . S
C5076 C5079 1.403 . S
H5077 C5083 0.930 . S
C5078 H5064 0.930 . S
C5078 C5076 1.395 . S
C5078 C5081 1.403 . S
C5079 C5076 1.403 . S
C5079 C5080 1.524 . S
C5079 C5083 1.400 . S
C5080 H5065 0.960 . S
C5080 H5066 0.960 . S
C5080 H5067 0.960 . S
C5080 C5079 1.524 . S
C5081 C5078 1.403 . S
C5081 C5082 1.392 . S
C5081 C5085 1.495 . S
C5082 C5081 1.392 . S
C5082 C5083 1.385 . S
C5082 C5084 1.478 . S
C5083 H5077 0.930 . S
C5083 C5079 1.400 . S
C5083 C5082 1.385 . S
C5084 C5082 1.478 . S
C5084 C5086 1.381 . S
C5084 C5090 1.383 . S
C5085 C5081 1.495 . S
C5085 H5091 0.959 . S
C5085 H5092 0.961 . S
C5085 H5093 0.960 . S
C5086 C5084 1.381 . S
C5086 C5087 1.394 . S
C5086 H5094 0.930 . S
C5087 C5086 1.394 . S
C5087 C5088 1.383 . S
C5087 H5095 0.929 . S
C5088 C5087 1.383 . S
C5088 C5089 1.377 . S
C5089 H5073 0.930 . S
C5089 C5088 1.377 . S
C5089 C5090 1.379 . S
C5090 H5074 0.931 . S
C5090 C5084 1.383 . S
C5090 C5089 1.379 . S
H5091 C5085 0.959 . S
H5092 C5085 0.961 . S
H5093 C5085 0.960 . S
H5094 C5086 0.930 . S
H5095 C5087 0.929 . S
H5096 C5104 0.929 . S
H5097 C5106 0.930 . S
H5098 C5108 0.930 . S
H5099 C5111 0.929 . S
H5100 C5114 0.930 . S
H5101 C5116 0.960 . S
H5102 C5116 0.960 . S
H5103 C5116 0.960 . S
C5104 H5096 0.929 . S
C5104 C5105 1.377 . S
C5104 C5106 1.384 . S
C5105 C5104 1.377 . S
C5105 C5111 1.390 . S
C5106 H5097 0.930 . S
C5106 C5104 1.384 . S
C5106 C5107 1.372 . S
C5107 C5106 1.372 . S
C5107 C5108 1.400 . S
C5107 C5112 1.490 . S
C5108 H5098 0.930 . S
C5108 C5107 1.400 . S
C5108 C5111 1.386 . S
H5109 C5125 0.930 . S
H5110 C5126 0.931 . S
C5111 H5099 0.929 . S
C5111 C5105 1.390 . S
C5111 C5108 1.386 . S
C5112 C5107 1.490 . S
C5112 C5114 1.395 . S
C5112 C5115 1.403 . S
H5113 C5119 0.930 . S
C5114 H5100 0.930 . S
C5114 C5112 1.395 . S
C5114 C5117 1.403 . S
C5115 C5112 1.403 . S
C5115 C5116 1.524 . S
C5115 C5119 1.400 . S
C5116 H5101 0.960 . S
C5116 H5102 0.960 . S
C5116 H5103 0.960 . S
C5116 C5115 1.524 . S
C5117 C5114 1.403 . S
C5117 C5118 1.392 . S
C5117 C5121 1.495 . S
C5118 C5117 1.392 . S
C5118 C5119 1.385 . S
C5118 C5120 1.478 . S
C5119 H5113 0.930 . S
C5119 C5115 1.400 . S
C5119 C5118 1.385 . S
C5120 C5118 1.478 . S
C5120 C5122 1.381 . S
C5120 C5126 1.383 . S
C5121 C5117 1.495 . S
C5121 H5127 0.959 . S
C5121 H5128 0.961 . S
C5121 H5129 0.960 . S
C5122 C5120 1.381 . S
C5122 C5123 1.394 . S
C5122 H5130 0.930 . S
C5123 C5122 1.394 . S
C5123 C5124 1.383 . S
C5123 H5131 0.929 . S
C5124 C5123 1.383 . S
C5124 C5125 1.377 . S
C5125 H5109 0.930 . S
C5125 C5124 1.377 . S
C5125 C5126 1.379 . S
C5126 H5110 0.931 . S
C5126 C5120 1.383 . S
C5126 C5125 1.379 . S
H5127 C5121 0.959 . S
H5128 C5121 0.961 . S
H5129 C5121 0.960 . S
H5130 C5122 0.930 . S
H5131 C5123 0.929 . S
H5132 C5140 0.929 . S
H5133 C5142 0.930 . S
H5134 C5144 0.930 . S
H5135 C5147 0.929 . S
H5136 C5150 0.930 . S
H5137 C5152 0.960 . S
H5138 C5152 0.960 . S
H5139 C5152 0.960 . S
C5140 H5132 0.929 . S
C5140 C5141 1.377 . S
C5140 C5142 1.384 . S
C5141 C5140 1.377 . S
C5141 C5147 1.390 . S
C5142 H5133 0.930 . S
C5142 C5140 1.384 . S
C5142 C5143 1.372 . S
C5143 C5142 1.372 . S
C5143 C5144 1.400 . S
C5143 C5148 1.490 . S
C5144 H5134 0.930 . S
C5144 C5143 1.400 . S
C5144 C5147 1.386 . S
H5145 C5161 0.930 . S
H5146 C5162 0.931 . S
C5147 H5135 0.929 . S
C5147 C5141 1.390 . S
C5147 C5144 1.386 . S
C5148 C5143 1.490 . S
C5148 C5150 1.395 . S
C5148 C5151 1.403 . S
H5149 C5155 0.930 . S
C5150 H5136 0.930 . S
C5150 C5148 1.395 . S
C5150 C5153 1.403 . S
C5151 C5148 1.403 . S
C5151 C5152 1.524 . S
C5151 C5155 1.400 . S
C5152 H5137 0.960 . S
C5152 H5138 0.960 . S
C5152 H5139 0.960 . S
C5152 C5151 1.524 . S
C5153 C5150 1.403 . S
C5153 C5154 1.392 . S
C5153 C5157 1.495 . S
C5154 C5153 1.392 . S
C5154 C5155 1.385 . S
C5154 C5156 1.478 . S
C5155 H5149 0.930 . S
C5155 C5151 1.400 . S
C5155 C5154 1.385 . S
C5156 C5154 1.478 . S
C5156 C5158 1.381 . S
C5156 C5162 1.383 . S
C5157 C5153 1.495 . S
C5157 H5163 0.959 . S
C5157 H5164 0.961 . S
C5157 H5165 0.960 . S
C5158 C5156 1.381 . S
C5158 C5159 1.394 . S
C5158 H5166 0.930 . S
C5159 C5158 1.394 . S
C5159 C5160 1.383 . S
C5159 H5167 0.929 . S
C5160 C5159 1.383 . S
C5160 C5161 1.377 . S
C5161 H5145 0.930 . S
C5161 C5160 1.377 . S
C5161 C5162 1.379 . S
C5162 H5146 0.931 . S
C5162 C5156 1.383 . S
C5162 C5161 1.379 . S
H5163 C5157 0.959 . S
H5164 C5157 0.961 . S
H5165 C5157 0.960 . S
H5166 C5158 0.930 . S
H5167 C5159 0.929 . S
H5168 C5176 0.929 . S
H5169 C5178 0.930 . S
H5170 C5180 0.930 . S
H5171 C5183 0.929 . S
H5172 C5186 0.930 . S
H5173 C5188 0.960 . S
H5174 C5188 0.960 . S
H5175 C5188 0.960 . S
C5176 H5168 0.929 . S
C5176 C5177 1.377 . S
C5176 C5178 1.384 . S
C5177 C5176 1.377 . S
C5177 C5183 1.390 . S
C5178 H5169 0.930 . S
C5178 C5176 1.384 . S
C5178 C5179 1.372 . S
C5179 C5178 1.372 . S
C5179 C5180 1.400 . S
C5179 C5184 1.490 . S
C5180 H5170 0.930 . S
C5180 C5179 1.400 . S
C5180 C5183 1.386 . S
H5181 C5197 0.930 . S
H5182 C5198 0.931 . S
C5183 H5171 0.929 . S
C5183 C5177 1.390 . S
C5183 C5180 1.386 . S
C5184 C5179 1.490 . S
C5184 C5186 1.395 . S
C5184 C5187 1.403 . S
H5185 C5191 0.930 . S
C5186 H5172 0.930 . S
C5186 C5184 1.395 . S
C5186 C5189 1.403 . S
C5187 C5184 1.403 . S
C5187 C5188 1.524 . S
C5187 C5191 1.400 . S
C5188 H5173 0.960 . S
C5188 H5174 0.960 . S
C5188 H5175 0.960 . S
C5188 C5187 1.524 . S
C5189 C5186 1.403 . S
C5189 C5190 1.392 . S
C5189 C5193 1.495 . S
C5190 C5189 1.392 . S
C5190 C5191 1.385 . S
C5190 C5192 1.478 . S
C5191 H5185 0.930 . S
C5191 C5187 1.400 . S
C5191 C5190 1.385 . S
C5192 C5190 1.478 . S
C5192 C5194 1.381 . S
C5192 C5198 1.383 . S
C5193 C5189 1.495 . S
C5193 H5199 0.959 . S
C5193 H5200 0.961 . S
C5193 H5201 0.960 . S
C5194 C5192 1.381 . S
C5194 C5195 1.394 . S
C5194 H5202 0.930 . S
C5195 C5194 1.394 . S
C5195 C5196 1.383 . S
C5195 H5203 0.929 . S
C5196 C5195 1.383 . S
C5196 C5197 1.377 . S
C5197 H5181 0.930 . S
C5197 C5196 1.377 . S
C5197 C5198 1.379 . S
C5198 H5182 0.931 . S
C5198 C5192 1.383 . S
C5198 C5197 1.379 . S
H5199 C5193 0.959 . S
H5200 C5193 0.961 . S
H5201 C5193 0.960 . S
H5202 C5194 0.930 . S
H5203 C5195 0.929 . S
H5204 C5212 0.929 . S
H5205 C5214 0.930 . S
H5206 C5216 0.930 . S
H5207 C5219 0.929 . S
H5208 C5222 0.930 . S
H5209 C5224 0.960 . S
H5210 C5224 0.960 . S
H5211 C5224 0.960 . S
C5212 H5204 0.929 . S
C5212 C5213 1.377 . S
C5212 C5214 1.384 . S
C5213 C5212 1.377 . S
C5213 C5219 1.390 . S
C5214 H5205 0.930 . S
C5214 C5212 1.384 . S
C5214 C5215 1.372 . S
C5215 C5214 1.372 . S
C5215 C5216 1.400 . S
C5215 C5220 1.490 . S
C5216 H5206 0.930 . S
C5216 C5215 1.400 . S
C5216 C5219 1.386 . S
H5217 C5233 0.930 . S
H5218 C5234 0.931 . S
C5219 H5207 0.929 . S
C5219 C5213 1.390 . S
C5219 C5216 1.386 . S
C5220 C5215 1.490 . S
C5220 C5222 1.395 . S
C5220 C5223 1.403 . S
H5221 C5227 0.930 . S
C5222 H5208 0.930 . S
C5222 C5220 1.395 . S
C5222 C5225 1.403 . S
C5223 C5220 1.403 . S
C5223 C5224 1.524 . S
C5223 C5227 1.400 . S
C5224 H5209 0.960 . S
C5224 H5210 0.960 . S
C5224 H5211 0.960 . S
C5224 C5223 1.524 . S
C5225 C5222 1.403 . S
C5225 C5226 1.392 . S
C5225 C5229 1.495 . S
C5226 C5225 1.392 . S
C5226 C5227 1.385 . S
C5226 C5228 1.478 . S
C5227 H5221 0.930 . S
C5227 C5223 1.400 . S
C5227 C5226 1.385 . S
C5228 C5226 1.478 . S
C5228 C5230 1.381 . S
C5228 C5234 1.383 . S
C5229 C5225 1.495 . S
C5229 H5235 0.959 . S
C5229 H5236 0.961 . S
C5229 H5237 0.960 . S
C5230 C5228 1.381 . S
C5230 C5231 1.394 . S
C5230 H5238 0.930 . S
C5231 C5230 1.394 . S
C5231 C5232 1.383 . S
C5231 H5239 0.929 . S
C5232 C5231 1.383 . S
C5232 C5233 1.377 . S
C5233 H5217 0.930 . S
C5233 C5232 1.377 . S
C5233 C5234 1.379 . S
C5234 H5218 0.931 . S
C5234 C5228 1.383 . S
C5234 C5233 1.379 . S
H5235 C5229 0.959 . S
H5236 C5229 0.961 . S
H5237 C5229 0.960 . S
H5238 C5230 0.930 . S
H5239 C5231 0.929 . S
H5240 C5248 0.929 . S
H5241 C5250 0.930 . S
H5242 C5252 0.930 . S
H5243 C5255 0.929 . S
H5244 C5258 0.930 . S
H5245 C5260 0.960 . S
H5246 C5260 0.960 . S
H5247 C5260 0.960 . S
C5248 H5240 0.929 . S
C5248 C5249 1.377 . S
C5248 C5250 1.384 . S
C5249 C5248 1.377 . S
C5249 C5255 1.390 . S
C5250 H5241 0.930 . S
C5250 C5248 1.384 . S
C5250 C5251 1.372 . S
C5251 C5250 1.372 . S
C5251 C5252 1.400 . S
C5251 C5256 1.490 . S
C5252 H5242 0.930 . S
C5252 C5251 1.400 . S
C5252 C5255 1.386 . S
H5253 C5269 0.930 . S
H5254 C5270 0.931 . S
C5255 H5243 0.929 . S
C5255 C5249 1.390 . S
C5255 C5252 1.386 . S
C5256 C5251 1.490 . S
C5256 C5258 1.395 . S
C5256 C5259 1.403 . S
H5257 C5263 0.930 . S
C5258 H5244 0.930 . S
C5258 C5256 1.395 . S
C5258 C5261 1.403 . S
C5259 C5256 1.403 . S
C5259 C5260 1.524 . S
C5259 C5263 1.400 . S
C5260 H5245 0.960 . S
C5260 H5246 0.960 . S
C5260 H5247 0.960 . S
C5260 C5259 1.524 . S
C5261 C5258 1.403 . S
C5261 C5262 1.392 . S
C5261 C5265 1.495 . S
C5262 C5261 1.392 . S
C5262 C5263 1.385 . S
C5262 C5264 1.478 . S
C5263 H5257 0.930 . S
C5263 C5259 1.400 . S
C5263 C5262 1.385 . S
C5264 C5262 1.478 . S
C5264 C5266 1.381 . S
C5264 C5270 1.383 . S
C5265 C5261 1.495 . S
C5265 H5271 0.959 . S
C5265 H5272 0.961 . S
C5265 H5273 0.960 . S
C5266 C5264 1.381 . S
C5266 C5267 1.394 . S
C5266 H5274 0.930 . S
C5267 C5266 1.394 . S
C5267 C5268 1.383 . S
C5267 H5275 0.929 . S
C5268 C5267 1.383 . S
C5268 C5269 1.377 . S
C5269 H5253 0.930 . S
C5269 C5268 1.377 . S
C5269 C5270 1.379 . S
C5270 H5254 0.931 . S
C5270 C5264 1.383 . S
C5270 C5269 1.379 . S
H5271 C5265 0.959 . S
H5272 C5265 0.961 . S
H5273 C5265 0.960 . S
H5274 C5266 0.930 . S
H5275 C5267 0.929 . S
H5276 C5284 0.929 . S
H5277 C5286 0.930 . S
H5278 C5288 0.930 . S
H5279 C5291 0.929 . S
H5280 C5294 0.930 . S
H5281 C5296 0.960 . S
H5282 C5296 0.960 . S
H5283 C5296 0.960 . S
C5284 H5276 0.929 . S
C5284 C5285 1.377 . S
C5284 C5286 1.384 . S
C5285 C5284 1.377 . S
C5285 C5291 1.390 . S
C5286 H5277 0.930 . S
C5286 C5284 1.384 . S
C5286 C5287 1.372 . S
C5287 C5286 1.372 . S
C5287 C5288 1.400 . S
C5287 C5292 1.490 . S
C5288 H5278 0.930 . S
C5288 C5287 1.400 . S
C5288 C5291 1.386 . S
H5289 C5305 0.930 . S
H5290 C5306 0.931 . S
C5291 H5279 0.929 . S
C5291 C5285 1.390 . S
C5291 C5288 1.386 . S
C5292 C5287 1.490 . S
C5292 C5294 1.395 . S
C5292 C5295 1.403 . S
H5293 C5299 0.930 . S
C5294 H5280 0.930 . S
C5294 C5292 1.395 . S
C5294 C5297 1.403 . S
C5295 C5292 1.403 . S
C5295 C5296 1.524 . S
C5295 C5299 1.400 . S
C5296 H5281 0.960 . S
C5296 H5282 0.960 . S
C5296 H5283 0.960 . S
C5296 C5295 1.524 . S
C5297 C5294 1.403 . S
C5297 C5298 1.392 . S
C5297 C5301 1.495 . S
C5298 C5297 1.392 . S
C5298 C5299 1.385 . S
C5298 C5300 1.478 . S
C5299 H5293 0.930 . S
C5299 C5295 1.400 . S
C5299 C5298 1.385 . S
C5300 C5298 1.478 . S
C5300 C5302 1.381 . S
C5300 C5306 1.383 . S
C5301 C5297 1.495 . S
C5301 H5307 0.959 . S
C5301 H5308 0.961 . S
C5301 H5309 0.960 . S
C5302 C5300 1.381 . S
C5302 C5303 1.394 . S
C5302 H5310 0.930 . S
C5303 C5302 1.394 . S
C5303 C5304 1.383 . S
C5303 H5311 0.929 . S
C5304 C5303 1.383 . S
C5304 C5305 1.377 . S
C5305 H5289 0.930 . S
C5305 C5304 1.377 . S
C5305 C5306 1.379 . S
C5306 H5290 0.931 . S
C5306 C5300 1.383 . S
C5306 C5305 1.379 . S
H5307 C5301 0.959 . S
H5308 C5301 0.961 . S
H5309 C5301 0.960 . S
H5310 C5302 0.930 . S
H5311 C5303 0.929 . S
H5312 C5320 0.929 . S
H5313 C5322 0.930 . S
H5314 C5324 0.930 . S
H5315 C5327 0.929 . S
H5316 C5330 0.930 . S
H5317 C5332 0.960 . S
H5318 C5332 0.960 . S
H5319 C5332 0.960 . S
C5320 H5312 0.929 . S
C5320 C5321 1.377 . S
C5320 C5322 1.384 . S
C5321 C5320 1.377 . S
C5321 C5327 1.390 . S
C5322 H5313 0.930 . S
C5322 C5320 1.384 . S
C5322 C5323 1.372 . S
C5323 C5322 1.372 . S
C5323 C5324 1.400 . S
C5323 C5328 1.490 . S
C5324 H5314 0.930 . S
C5324 C5323 1.400 . S
C5324 C5327 1.386 . S
H5325 C5341 0.930 . S
H5326 C5342 0.931 . S
C5327 H5315 0.929 . S
C5327 C5321 1.390 . S
C5327 C5324 1.386 . S
C5328 C5323 1.490 . S
C5328 C5330 1.395 . S
C5328 C5331 1.403 . S
H5329 C5335 0.930 . S
C5330 H5316 0.930 . S
C5330 C5328 1.395 . S
C5330 C5333 1.403 . S
C5331 C5328 1.403 . S
C5331 C5332 1.524 . S
C5331 C5335 1.400 . S
C5332 H5317 0.960 . S
C5332 H5318 0.960 . S
C5332 H5319 0.960 . S
C5332 C5331 1.524 . S
C5333 C5330 1.403 . S
C5333 C5334 1.392 . S
C5333 C5337 1.495 . S
C5334 C5333 1.392 . S
C5334 C5335 1.385 . S
C5334 C5336 1.478 . S
C5335 H5329 0.930 . S
C5335 C5331 1.400 . S
C5335 C5334 1.385 . S
C5336 C5334 1.478 . S
C5336 C5338 1.381 . S
C5336 C5342 1.383 . S
C5337 C5333 1.495 . S
C5337 H5343 0.959 . S
C5337 H5344 0.961 . S
C5337 H5345 0.960 . S
C5338 C5336 1.381 . S
C5338 C5339 1.394 . S
C5338 H5346 0.930 . S
C5339 C5338 1.394 . S
C5339 C5340 1.383 . S
C5339 H5347 0.929 . S
C5340 C5339 1.383 . S
C5340 C5341 1.377 . S
C5341 H5325 0.930 . S
C5341 C5340 1.377 . S
C5341 C5342 1.379 . S
C5342 H5326 0.931 . S
C5342 C5336 1.383 . S
C5342 C5341 1.379 . S
H5343 C5337 0.959 . S
H5344 C5337 0.961 . S
H5345 C5337 0.960 . S
H5346 C5338 0.930 . S
H5347 C5339 0.929 . S
H5348 C5356 0.929 . S
H5349 C5358 0.930 . S
H5350 C5360 0.930 . S
H5351 C5363 0.929 . S
H5352 C5366 0.930 . S
H5353 C5368 0.960 . S
H5354 C5368 0.960 . S
H5355 C5368 0.960 . S
C5356 H5348 0.929 . S
C5356 C5357 1.377 . S
C5356 C5358 1.384 . S
C5357 C5356 1.377 . S
C5357 C5363 1.390 . S
C5358 H5349 0.930 . S
C5358 C5356 1.384 . S
C5358 C5359 1.372 . S
C5359 C5358 1.372 . S
C5359 C5360 1.400 . S
C5359 C5364 1.490 . S
C5360 H5350 0.930 . S
C5360 C5359 1.400 . S
C5360 C5363 1.386 . S
H5361 C5377 0.930 . S
H5362 C5378 0.931 . S
C5363 H5351 0.929 . S
C5363 C5357 1.390 . S
C5363 C5360 1.386 . S
C5364 C5359 1.490 . S
C5364 C5366 1.395 . S
C5364 C5367 1.403 . S
H5365 C5371 0.930 . S
C5366 H5352 0.930 . S
C5366 C5364 1.395 . S
C5366 C5369 1.403 . S
C5367 C5364 1.403 . S
C5367 C5368 1.524 . S
C5367 C5371 1.400 . S
C5368 H5353 0.960 . S
C5368 H5354 0.960 . S
C5368 H5355 0.960 . S
C5368 C5367 1.524 . S
C5369 C5366 1.403 . S
C5369 C5370 1.392 . S
C5369 C5373 1.495 . S
C5370 C5369 1.392 . S
C5370 C5371 1.385 . S
C5370 C5372 1.478 . S
C5371 H5365 0.930 . S
C5371 C5367 1.400 . S
C5371 C5370 1.385 . S
C5372 C5370 1.478 . S
C5372 C5374 1.381 . S
C5372 C5378 1.383 . S
C5373 C5369 1.495 . S
C5373 H5379 0.959 . S
C5373 H5380 0.961 . S
C5373 H5381 0.960 . S
C5374 C5372 1.381 . S
C5374 C5375 1.394 . S
C5374 H5382 0.930 . S
C5375 C5374 1.394 . S
C5375 C5376 1.383 . S
C5375 H5383 0.929 . S
C5376 C5375 1.383 . S
C5376 C5377 1.377 . S
C5377 H5361 0.930 . S
C5377 C5376 1.377 . S
C5377 C5378 1.379 . S
C5378 H5362 0.931 . S
C5378 C5372 1.383 . S
C5378 C5377 1.379 . S
H5379 C5373 0.959 . S
H5380 C5373 0.961 . S
H5381 C5373 0.960 . S
H5382 C5374 0.930 . S
H5383 C5375 0.929 . S
H5384 C5392 0.929 . S
H5385 C5394 0.930 . S
H5386 C5396 0.930 . S
H5387 C5399 0.929 . S
H5388 C5402 0.930 . S
H5389 C5404 0.960 . S
H5390 C5404 0.960 . S
H5391 C5404 0.960 . S
C5392 H5384 0.929 . S
C5392 C5393 1.377 . S
C5392 C5394 1.384 . S
C5393 C5392 1.377 . S
C5393 C5399 1.390 . S
C5394 H5385 0.930 . S
C5394 C5392 1.384 . S
C5394 C5395 1.372 . S
C5395 C5394 1.372 . S
C5395 C5396 1.400 . S
C5395 C5400 1.490 . S
C5396 H5386 0.930 . S
C5396 C5395 1.400 . S
C5396 C5399 1.386 . S
H5397 C5413 0.930 . S
H5398 C5414 0.931 . S
C5399 H5387 0.929 . S
C5399 C5393 1.390 . S
C5399 C5396 1.386 . S
C5400 C5395 1.490 . S
C5400 C5402 1.395 . S
C5400 C5403 1.403 . S
H5401 C5407 0.930 . S
C5402 H5388 0.930 . S
C5402 C5400 1.395 . S
C5402 C5405 1.403 . S
C5403 C5400 1.403 . S
C5403 C5404 1.524 . S
C5403 C5407 1.400 . S
C5404 H5389 0.960 . S
C5404 H5390 0.960 . S
C5404 H5391 0.960 . S
C5404 C5403 1.524 . S
C5405 C5402 1.403 . S
C5405 C5406 1.392 . S
C5405 C5409 1.495 . S
C5406 C5405 1.392 . S
C5406 C5407 1.385 . S
C5406 C5408 1.478 . S
C5407 H5401 0.930 . S
C5407 C5403 1.400 . S
C5407 C5406 1.385 . S
C5408 C5406 1.478 . S
C5408 C5410 1.381 . S
C5408 C5414 1.383 . S
C5409 C5405 1.495 . S
C5409 H5415 0.959 . S
C5409 H5416 0.961 . S
C5409 H5417 0.960 . S
C5410 C5408 1.381 . S
C5410 C5411 1.394 . S
C5410 H5418 0.930 . S
C5411 C5410 1.394 . S
C5411 C5412 1.383 . S
C5411 H5419 0.929 . S
C5412 C5411 1.383 . S
C5412 C5413 1.377 . S
C5413 H5397 0.930 . S
C5413 C5412 1.377 . S
C5413 C5414 1.379 . S
C5414 H5398 0.931 . S
C5414 C5408 1.383 . S
C5414 C5413 1.379 . S
H5415 C5409 0.959 . S
H5416 C5409 0.961 . S
H5417 C5409 0.960 . S
H5418 C5410 0.930 . S
H5419 C5411 0.929 . S
H5420 C5428 0.929 . S
H5421 C5430 0.930 . S
H5422 C5432 0.930 . S
H5423 C5435 0.929 . S
H5424 C5438 0.930 . S
H5425 C5440 0.960 . S
H5426 C5440 0.960 . S
H5427 C5440 0.960 . S
C5428 H5420 0.929 . S
C5428 C5429 1.377 . S
C5428 C5430 1.384 . S
C5429 C5428 1.377 . S
C5429 C5435 1.390 . S
C5430 H5421 0.930 . S
C5430 C5428 1.384 . S
C5430 C5431 1.372 . S
C5431 C5430 1.372 . S
C5431 C5432 1.400 . S
C5431 C5436 1.490 . S
C5432 H5422 0.930 . S
C5432 C5431 1.400 . S
C5432 C5435 1.386 . S
H5433 C5449 0.930 . S
H5434 C5450 0.931 . S
C5435 H5423 0.929 . S
C5435 C5429 1.390 . S
C5435 C5432 1.386 . S
C5436 C5431 1.490 . S
C5436 C5438 1.395 . S
C5436 C5439 1.403 . S
H5437 C5443 0.930 . S
C5438 H5424 0.930 . S
C5438 C5436 1.395 . S
C5438 C5441 1.403 . S
C5439 C5436 1.403 . S
C5439 C5440 1.524 . S
C5439 C5443 1.400 . S
C5440 H5425 0.960 . S
C5440 H5426 0.960 . S
C5440 H5427 0.960 . S
C5440 C5439 1.524 . S
C5441 C5438 1.403 . S
C5441 C5442 1.392 . S
C5441 C5445 1.495 . S
C5442 C5441 1.392 . S
C5442 C5443 1.385 . S
C5442 C5444 1.478 . S
C5443 H5437 0.930 . S
C5443 C5439 1.400 . S
C5443 C5442 1.385 . S
C5444 C5442 1.478 . S
C5444 C5446 1.381 . S
C5444 C5450 1.383 . S
C5445 C5441 1.495 . S
C5445 H5451 0.959 . S
C5445 H5452 0.961 . S
C5445 H5453 0.960 . S
C5446 C5444 1.381 . S
C5446 C5447 1.394 . S
C5446 H5454 0.930 . S
C5447 C5446 1.394 . S
C5447 C5448 1.383 . S
C5447 H5455 0.929 . S
C5448 C5447 1.383 . S
C5448 C5449 1.377 . S
C5449 H5433 0.930 . S
C5449 C5448 1.377 . S
C5449 C5450 1.379 . S
C5450 H5434 0.931 . S
C5450 C5444 1.383 . S
C5450 C5449 1.379 . S
H5451 C5445 0.959 . S
H5452 C5445 0.961 . S
H5453 C5445 0.960 . S
H5454 C5446 0.930 . S
H5455 C5447 0.929 . S
H5456 C5464 0.929 . S
H5457 C5466 0.930 . S
H5458 C5468 0.930 . S
H5459 C5471 0.929 . S
H5460 C5474 0.930 . S
H5461 C5476 0.960 . S
H5462 C5476 0.960 . S
H5463 C5476 0.960 . S
C5464 H5456 0.929 . S
C5464 C5465 1.377 . S
C5464 C5466 1.384 . S
C5465 C5464 1.377 . S
C5465 C5471 1.390 . S
C5466 H5457 0.930 . S
C5466 C5464 1.384 . S
C5466 C5467 1.372 . S
C5467 C5466 1.372 . S
C5467 C5468 1.400 . S
C5467 C5472 1.490 . S
C5468 H5458 0.930 . S
C5468 C5467 1.400 . S
C5468 C5471 1.386 . S
H5469 C5485 0.930 . S
H5470 C5486 0.931 . S
C5471 H5459 0.929 . S
C5471 C5465 1.390 . S
C5471 C5468 1.386 . S
C5472 C5467 1.490 . S
C5472 C5474 1.395 . S
C5472 C5475 1.403 . S
H5473 C5479 0.930 . S
C5474 H5460 0.930 . S
C5474 C5472 1.395 . S
C5474 C5477 1.403 . S
C5475 C5472 1.403 . S
C5475 C5476 1.524 . S
C5475 C5479 1.400 . S
C5476 H5461 0.960 . S
C5476 H5462 0.960 . S
C5476 H5463 0.960 . S
C5476 C5475 1.524 . S
C5477 C5474 1.403 . S
C5477 C5478 1.392 . S
C5477 C5481 1.495 . S
C5478 C5477 1.392 . S
C5478 C5479 1.385 . S
C5478 C5480 1.478 . S
C5479 H5473 0.930 . S
C5479 C5475 1.400 . S
C5479 C5478 1.385 . S
C5480 C5478 1.478 . S
C5480 C5482 1.381 . S
C5480 C5486 1.383 . S
C5481 C5477 1.495 . S
C5481 H5487 0.959 . S
C5481 H5488 0.961 . S
C5481 H5489 0.960 . S
C5482 C5480 1.381 . S
C5482 C5483 1.394 . S
C5482 H5490 0.930 . S
C5483 C5482 1.394 . S
C5483 C5484 1.383 . S
C5483 H5491 0.929 . S
C5484 C5483 1.383 . S
C5484 C5485 1.377 . S
C5485 H5469 0.930 . S
C5485 C5484 1.377 . S
C5485 C5486 1.379 . S
C5486 H5470 0.931 . S
C5486 C5480 1.383 . S
C5486 C5485 1.379 . S
H5487 C5481 0.959 . S
H5488 C5481 0.961 . S
H5489 C5481 0.960 . S
H5490 C5482 0.930 . S
H5491 C5483 0.929 . S
H5492 C5500 0.929 . S
H5493 C5502 0.930 . S
H5494 C5504 0.930 . S
H5495 C5507 0.929 . S
H5496 C5510 0.930 . S
H5497 C5512 0.960 . S
H5498 C5512 0.960 . S
H5499 C5512 0.960 . S
C5500 H5492 0.929 . S
C5500 C5501 1.377 . S
C5500 C5502 1.384 . S
C5501 C5500 1.377 . S
C5501 C5507 1.390 . S
C5502 H5493 0.930 . S
C5502 C5500 1.384 . S
C5502 C5503 1.372 . S
C5503 C5502 1.372 . S
C5503 C5504 1.400 . S
C5503 C5508 1.490 . S
C5504 H5494 0.930 . S
C5504 C5503 1.400 . S
C5504 C5507 1.386 . S
H5505 C5521 0.930 . S
H5506 C5522 0.931 . S
C5507 H5495 0.929 . S
C5507 C5501 1.390 . S
C5507 C5504 1.386 . S
C5508 C5503 1.490 . S
C5508 C5510 1.395 . S
C5508 C5511 1.403 . S
H5509 C5515 0.930 . S
C5510 H5496 0.930 . S
C5510 C5508 1.395 . S
C5510 C5513 1.403 . S
C5511 C5508 1.403 . S
C5511 C5512 1.524 . S
C5511 C5515 1.400 . S
C5512 H5497 0.960 . S
C5512 H5498 0.960 . S
C5512 H5499 0.960 . S
C5512 C5511 1.524 . S
C5513 C5510 1.403 . S
C5513 C5514 1.392 . S
C5513 C5517 1.495 . S
C5514 C5513 1.392 . S
C5514 C5515 1.385 . S
C5514 C5516 1.478 . S
C5515 H5509 0.930 . S
C5515 C5511 1.400 . S
C5515 C5514 1.385 . S
C5516 C5514 1.478 . S
C5516 C5518 1.381 . S
C5516 C5522 1.383 . S
C5517 C5513 1.495 . S
C5517 H5523 0.959 . S
C5517 H5524 0.961 . S
C5517 H5525 0.960 . S
C5518 C5516 1.381 . S
C5518 C5519 1.394 . S
C5518 H5526 0.930 . S
C5519 C5518 1.394 . S
C5519 C5520 1.383 . S
C5519 H5527 0.929 . S
C5520 C5519 1.383 . S
C5520 C5521 1.377 . S
C5521 H5505 0.930 . S
C5521 C5520 1.377 . S
C5521 C5522 1.379 . S
C5522 H5506 0.931 . S
C5522 C5516 1.383 . S
C5522 C5521 1.379 . S
H5523 C5517 0.959 . S
H5524 C5517 0.961 . S
H5525 C5517 0.960 . S
H5526 C5518 0.930 . S
H5527 C5519 0.929 . S
H5528 C5536 0.929 . S
H5529 C5538 0.930 . S
H5530 C5540 0.930 . S
H5531 C5543 0.929 . S
H5532 C5546 0.930 . S
H5533 C5548 0.960 . S
H5534 C5548 0.960 . S
H5535 C5548 0.960 . S
C5536 H5528 0.929 . S
C5536 C5537 1.377 . S
C5536 C5538 1.384 . S
C5537 C5536 1.377 . S
C5537 C5543 1.390 . S
C5538 H5529 0.930 . S
C5538 C5536 1.384 . S
C5538 C5539 1.372 . S
C5539 C5538 1.372 . S
C5539 C5540 1.400 . S
C5539 C5544 1.490 . S
C5540 H5530 0.930 . S
C5540 C5539 1.400 . S
C5540 C5543 1.386 . S
H5541 C5557 0.930 . S
H5542 C5558 0.931 . S
C5543 H5531 0.929 . S
C5543 C5537 1.390 . S
C5543 C5540 1.386 . S
C5544 C5539 1.490 . S
C5544 C5546 1.395 . S
C5544 C5547 1.403 . S
H5545 C5551 0.930 . S
C5546 H5532 0.930 . S
C5546 C5544 1.395 . S
C5546 C5549 1.403 . S
C5547 C5544 1.403 . S
C5547 C5548 1.524 . S
C5547 C5551 1.400 . S
C5548 H5533 0.960 . S
C5548 H5534 0.960 . S
C5548 H5535 0.960 . S
C5548 C5547 1.524 . S
C5549 C5546 1.403 . S
C5549 C5550 1.392 . S
C5549 C5553 1.495 . S
C5550 C5549 1.392 . S
C5550 C5551 1.385 . S
C5550 C5552 1.478 . S
C5551 H5545 0.930 . S
C5551 C5547 1.400 . S
C5551 C5550 1.385 . S
C5552 C5550 1.478 . S
C5552 C5554 1.381 . S
C5552 C5558 1.383 . S
C5553 C5549 1.495 . S
C5553 H5559 0.959 . S
C5553 H5560 0.961 . S
C5553 H5561 0.960 . S
C5554 C5552 1.381 . S
C5554 C5555 1.394 . S
C5554 H5562 0.930 . S
C5555 C5554 1.394 . S
C5555 C5556 1.383 . S
C5555 H5563 0.929 . S
C5556 C5555 1.383 . S
C5556 C5557 1.377 . S
C5557 H5541 0.930 . S
C5557 C5556 1.377 . S
C5557 C5558 1.379 . S
C5558 H5542 0.931 . S
C5558 C5552 1.383 . S
C5558 C5557 1.379 . S
H5559 C5553 0.959 . S
H5560 C5553 0.961 . S
H5561 C5553 0.960 . S
H5562 C5554 0.930 . S
H5563 C5555 0.929 . S
H5564 C5572 0.929 . S
H5565 C5574 0.930 . S
H5566 C5576 0.930 . S
H5567 C5579 0.929 . S
H5568 C5582 0.930 . S
H5569 C5584 0.960 . S
H5570 C5584 0.960 . S
H5571 C5584 0.960 . S
C5572 H5564 0.929 . S
C5572 C5573 1.377 . S
C5572 C5574 1.384 . S
C5573 C5572 1.377 . S
C5573 C5579 1.390 . S
C5574 H5565 0.930 . S
C5574 C5572 1.384 . S
C5574 C5575 1.372 . S
C5575 C5574 1.372 . S
C5575 C5576 1.400 . S
C5575 C5580 1.490 . S
C5576 H5566 0.930 . S
C5576 C5575 1.400 . S
C5576 C5579 1.386 . S
H5577 C5593 0.930 . S
H5578 C5594 0.931 . S
C5579 H5567 0.929 . S
C5579 C5573 1.390 . S
C5579 C5576 1.386 . S
C5580 C5575 1.490 . S
C5580 C5582 1.395 . S
C5580 C5583 1.403 . S
H5581 C5587 0.930 . S
C5582 H5568 0.930 . S
C5582 C5580 1.395 . S
C5582 C5585 1.403 . S
C5583 C5580 1.403 . S
C5583 C5584 1.524 . S
C5583 C5587 1.400 . S
C5584 H5569 0.960 . S
C5584 H5570 0.960 . S
C5584 H5571 0.960 . S
C5584 C5583 1.524 . S
C5585 C5582 1.403 . S
C5585 C5586 1.392 . S
C5585 C5589 1.495 . S
C5586 C5585 1.392 . S
C5586 C5587 1.385 . S
C5586 C5588 1.478 . S
C5587 H5581 0.930 . S
C5587 C5583 1.400 . S
C5587 C5586 1.385 . S
C5588 C5586 1.478 . S
C5588 C5590 1.381 . S
C5588 C5594 1.383 . S
C5589 C5585 1.495 . S
C5589 H5595 0.959 . S
C5589 H5596 0.961 . S
C5589 H5597 0.960 . S
C5590 C5588 1.381 . S
C5590 C5591 1.394 . S
C5590 H5598 0.930 . S
C5591 C5590 1.394 . S
C5591 C5592 1.383 . S
C5591 H5599 0.929 . S
C5592 C5591 1.383 . S
C5592 C5593 1.377 . S
C5593 H5577 0.930 . S
C5593 C5592 1.377 . S
C5593 C5594 1.379 . S
C5594 H5578 0.931 . S
C5594 C5588 1.383 . S
C5594 C5593 1.379 . S
H5595 C5589 0.959 . S
H5596 C5589 0.961 . S
H5597 C5589 0.960 . S
H5598 C5590 0.930 . S
H5599 C5591 0.929 . S
H5600 C5608 0.929 . S
H5601 C5610 0.930 . S
H5602 C5612 0.930 . S
H5603 C5615 0.929 . S
H5604 C5618 0.930 . S
H5605 C5620 0.960 . S
H5606 C5620 0.960 . S
H5607 C5620 0.960 . S
C5608 H5600 0.929 . S
C5608 C5609 1.377 . S
C5608 C5610 1.384 . S
C5609 C5608 1.377 . S
C5609 C5615 1.390 . S
C5610 H5601 0.930 . S
C5610 C5608 1.384 . S
C5610 C5611 1.372 . S
C5611 C5610 1.372 . S
C5611 C5612 1.400 . S
C5611 C5616 1.490 . S
C5612 H5602 0.930 . S
C5612 C5611 1.400 . S
C5612 C5615 1.386 . S
H5613 C5629 0.930 . S
H5614 C5630 0.931 . S
C5615 H5603 0.929 . S
C5615 C5609 1.390 . S
C5615 C5612 1.386 . S
C5616 C5611 1.490 . S
C5616 C5618 1.395 . S
C5616 C5619 1.403 . S
H5617 C5623 0.930 . S
C5618 H5604 0.930 . S
C5618 C5616 1.395 . S
C5618 C5621 1.403 . S
C5619 C5616 1.403 . S
C5619 C5620 1.524 . S
C5619 C5623 1.400 . S
C5620 H5605 0.960 . S
C5620 H5606 0.960 . S
C5620 H5607 0.960 . S
C5620 C5619 1.524 . S
C5621 C5618 1.403 . S
C5621 C5622 1.392 . S
C5621 C5625 1.495 . S
C5622 C5621 1.392 . S
C5622 C5623 1.385 . S
C5622 C5624 1.478 . S
C5623 H5617 0.930 . S
C5623 C5619 1.400 . S
C5623 C5622 1.385 . S
C5624 C5622 1.478 . S
C5624 C5626 1.381 . S
C5624 C5630 1.383 . S
C5625 C5621 1.495 . S
C5625 H5631 0.959 . S
C5625 H5632 0.961 . S
C5625 H5633 0.960 . S
C5626 C5624 1.381 . S
C5626 C5627 1.394 . S
C5626 H5634 0.930 . S
C5627 C5626 1.394 . S
C5627 C5628 1.383 . S
C5627 H5635 0.929 . S
C5628 C5627 1.383 . S
C5628 C5629 1.377 . S
C5629 H5613 0.930 . S
C5629 C5628 1.377 . S
C5629 C5630 1.379 . S
C5630 H5614 0.931 . S
C5630 C5624 1.383 . S
C5630 C5629 1.379 . S
H5631 C5625 0.959 . S
H5632 C5625 0.961 . S
H5633 C5625 0.960 . S
H5634 C5626 0.930 . S
H5635 C5627 0.929 . S
H5636 C5644 0.929 . S
H5637 C5646 0.930 . S
H5638 C5648 0.930 . S
H5639 C5651 0.929 . S
H5640 C5654 0.930 . S
H5641 C5656 0.960 . S
H5642 C5656 0.960 . S
H5643 C5656 0.960 . S
C5644 H5636 0.929 . S
C5644 C5645 1.377 . S
C5644 C5646 1.384 . S
C5645 C5644 1.377 . S
C5645 C5651 1.390 . S
C5646 H5637 0.930 . S
C5646 C5644 1.384 . S
C5646 C5647 1.372 . S
C5647 C5646 1.372 . S
C5647 C5648 1.400 . S
C5647 C5652 1.490 . S
C5648 H5638 0.930 . S
C5648 C5647 1.400 . S
C5648 C5651 1.386 . S
H5649 C5665 0.930 . S
H5650 C5666 0.931 . S
C5651 H5639 0.929 . S
C5651 C5645 1.390 . S
C5651 C5648 1.386 . S
C5652 C5647 1.490 . S
C5652 C5654 1.395 . S
C5652 C5655 1.403 . S
H5653 C5659 0.930 . S
C5654 H5640 0.930 . S
C5654 C5652 1.395 . S
C5654 C5657 1.403 . S
C5655 C5652 1.403 . S
C5655 C5656 1.524 . S
C5655 C5659 1.400 . S
C5656 H5641 0.960 . S
C5656 H5642 0.960 . S
C5656 H5643 0.960 . S
C5656 C5655 1.524 . S
C5657 C5654 1.403 . S
C5657 C5658 1.392 . S
C5657 C5661 1.495 . S
C5658 C5657 1.392 . S
C5658 C5659 1.385 . S
C5658 C5660 1.478 . S
C5659 H5653 0.930 . S
C5659 C5655 1.400 . S
C5659 C5658 1.385 . S
C5660 C5658 1.478 . S
C5660 C5662 1.381 . S
C5660 C5666 1.383 . S
C5661 C5657 1.495 . S
C5661 H5667 0.959 . S
C5661 H5668 0.961 . S
C5661 H5669 0.960 . S
C5662 C5660 1.381 . S
C5662 C5663 1.394 . S
C5662 H5670 0.930 . S
C5663 C5662 1.394 . S
C5663 C5664 1.383 . S
C5663 H5671 0.929 . S
C5664 C5663 1.383 . S
C5664 C5665 1.377 . S
C5665 H5649 0.930 . S
C5665 C5664 1.377 . S
C5665 C5666 1.379 . S
C5666 H5650 0.931 . S
C5666 C5660 1.383 . S
C5666 C5665 1.379 . S
H5667 C5661 0.959 . S
H5668 C5661 0.961 . S
H5669 C5661 0.960 . S
H5670 C5662 0.930 . S
H5671 C5663 0.929 . S
H5672 C5680 0.929 . S
H5673 C5682 0.930 . S
H5674 C5684 0.930 . S
H5675 C5687 0.929 . S
H5676 C5690 0.930 . S
H5677 C5692 0.960 . S
H5678 C5692 0.960 . S
H5679 C5692 0.960 . S
C5680 H5672 0.929 . S
C5680 C5681 1.377 . S
C5680 C5682 1.384 . S
C5681 C5680 1.377 . S
C5681 C5687 1.390 . S
C5682 H5673 0.930 . S
C5682 C5680 1.384 . S
C5682 C5683 1.372 . S
C5683 C5682 1.372 . S
C5683 C5684 1.400 . S
C5683 C5688 1.490 . S
C5684 H5674 0.930 . S
C5684 C5683 1.400 . S
C5684 C5687 1.386 . S
H5685 C5701 0.930 . S
H5686 C5702 0.931 . S
C5687 H5675 0.929 . S
C5687 C5681 1.390 . S
C5687 C5684 1.386 . S
C5688 C5683 1.490 . S
C5688 C5690 1.395 . S
C5688 C5691 1.403 . S
H5689 C5695 0.930 . S
C5690 H5676 0.930 . S
C5690 C5688 1.395 . S
C5690 C5693 1.403 . S
C5691 C5688 1.403 . S
C5691 C5692 1.524 . S
C5691 C5695 1.400 . S
C5692 H5677 0.960 . S
C5692 H5678 0.960 . S
C5692 H5679 0.960 . S
C5692 C5691 1.524 . S
C5693 C5690 1.403 . S
C5693 C5694 1.392 . S
C5693 C5697 1.495 . S
C5694 C5693 1.392 . S
C5694 C5695 1.385 . S
C5694 C5696 1.478 . S
C5695 H5689 0.930 . S
C5695 C5691 1.400 . S
C5695 C5694 1.385 . S
C5696 C5694 1.478 . S
C5696 C5698 1.381 . S
C5696 C5702 1.383 . S
C5697 C5693 1.495 . S
C5697 H5703 0.959 . S
C5697 H5704 0.961 . S
C5697 H5705 0.960 . S
C5698 C5696 1.381 . S
C5698 C5699 1.394 . S
C5698 H5706 0.930 . S
C5699 C5698 1.394 . S
C5699 C5700 1.383 . S
C5699 H5707 0.929 . S
C5700 C5699 1.383 . S
C5700 C5701 1.377 . S
C5701 H5685 0.930 . S
C5701 C5700 1.377 . S
C5701 C5702 1.379 . S
C5702 H5686 0.931 . S
C5702 C5696 1.383 . S
C5702 C5701 1.379 . S
H5703 C5697 0.959 . S
H5704 C5697 0.961 . S
H5705 C5697 0.960 . S
H5706 C5698 0.930 . S
H5707 C5699 0.929 . S
H5708 C5716 0.929 . S
H5709 C5718 0.930 . S
H5710 C5720 0.930 . S
H5711 C5723 0.929 . S
H5712 C5726 0.930 . S
H5713 C5728 0.960 . S
H5714 C5728 0.960 . S
H5715 C5728 0.960 . S
C5716 H5708 0.929 . S
C5716 C5717 1.377 . S
C5716 C5718 1.384 . S
C5717 C5716 1.377 . S
C5717 C5723 1.390 . S
C5718 H5709 0.930 . S
C5718 C5716 1.384 . S
C5718 C5719 1.372 . S
C5719 C5718 1.372 . S
C5719 C5720 1.400 . S
C5719 C5724 1.490 . S
C5720 H5710 0.930 . S
C5720 C5719 1.400 . S
C5720 C5723 1.386 . S
H5721 C5737 0.930 . S
H5722 C5738 0.931 . S
C5723 H5711 0.929 . S
C5723 C5717 1.390 . S
C5723 C5720 1.386 . S
C5724 C5719 1.490 . S
C5724 C5726 1.395 . S
C5724 C5727 1.403 . S
H5725 C5731 0.930 . S
C5726 H5712 0.930 . S
C5726 C5724 1.395 . S
C5726 C5729 1.403 . S
C5727 C5724 1.403 . S
C5727 C5728 1.524 . S
C5727 C5731 1.400 . S
C5728 H5713 0.960 . S
C5728 H5714 0.960 . S
C5728 H5715 0.960 . S
C5728 C5727 1.524 . S
C5729 C5726 1.403 . S
C5729 C5730 1.392 . S
C5729 C5733 1.495 . S
C5730 C5729 1.392 . S
C5730 C5731 1.385 . S
C5730 C5732 1.478 . S
C5731 H5725 0.930 . S
C5731 C5727 1.400 . S
C5731 C5730 1.385 . S
C5732 C5730 1.478 . S
C5732 C5734 1.381 . S
C5732 C5738 1.383 . S
C5733 C5729 1.495 . S
C5733 H5739 0.959 . S
C5733 H5740 0.961 . S
C5733 H5741 0.960 . S
C5734 C5732 1.381 . S
C5734 C5735 1.394 . S
C5734 H5742 0.930 . S
C5735 C5734 1.394 . S
C5735 C5736 1.383 . S
C5735 H5743 0.929 . S
C5736 C5735 1.383 . S
C5736 C5737 1.377 . S
C5737 H5721 0.930 . S
C5737 C5736 1.377 . S
C5737 C5738 1.379 . S
C5738 H5722 0.931 . S
C5738 C5732 1.383 . S
C5738 C5737 1.379 . S
H5739 C5733 0.959 . S
H5740 C5733 0.961 . S
H5741 C5733 0.960 . S
H5742 C5734 0.930 . S
H5743 C5735 0.929 . S
H5744 C5752 0.929 . S
H5745 C5754 0.930 . S
H5746 C5756 0.930 . S
H5747 C5759 0.929 . S
H5748 C5762 0.930 . S
H5749 C5764 0.960 . S
H5750 C5764 0.960 . S
H5751 C5764 0.960 . S
C5752 H5744 0.929 . S
C5752 C5753 1.377 . S
C5752 C5754 1.384 . S
C5753 C5752 1.377 . S
C5753 C5759 1.390 . S
C5754 H5745 0.930 . S
C5754 C5752 1.384 . S
C5754 C5755 1.372 . S
C5755 C5754 1.372 . S
C5755 C5756 1.400 . S
C5755 C5760 1.490 . S
C5756 H5746 0.930 . S
C5756 C5755 1.400 . S
C5756 C5759 1.386 . S
H5757 C5773 0.930 . S
H5758 C5774 0.931 . S
C5759 H5747 0.929 . S
C5759 C5753 1.390 . S
C5759 C5756 1.386 . S
C5760 C5755 1.490 . S
C5760 C5762 1.395 . S
C5760 C5763 1.403 . S
H5761 C5767 0.930 . S
C5762 H5748 0.930 . S
C5762 C5760 1.395 . S
C5762 C5765 1.403 . S
C5763 C5760 1.403 . S
C5763 C5764 1.524 . S
C5763 C5767 1.400 . S
C5764 H5749 0.960 . S
C5764 H5750 0.960 . S
C5764 H5751 0.960 . S
C5764 C5763 1.524 . S
C5765 C5762 1.403 . S
C5765 C5766 1.392 . S
C5765 C5769 1.495 . S
C5766 C5765 1.392 . S
C5766 C5767 1.385 . S
C5766 C5768 1.478 . S
C5767 H5761 0.930 . S
C5767 C5763 1.400 . S
C5767 C5766 1.385 . S
C5768 C5766 1.478 . S
C5768 C5770 1.381 . S
C5768 C5774 1.383 . S
C5769 C5765 1.495 . S
C5769 H5775 0.959 . S
C5769 H5776 0.961 . S
C5769 H5777 0.960 . S
C5770 C5768 1.381 . S
C5770 C5771 1.394 . S
C5770 H5778 0.930 . S
C5771 C5770 1.394 . S
C5771 C5772 1.383 . S
C5771 H5779 0.929 . S
C5772 C5771 1.383 . S
C5772 C5773 1.377 . S
C5773 H5757 0.930 . S
C5773 C5772 1.377 . S
C5773 C5774 1.379 . S
C5774 H5758 0.931 . S
C5774 C5768 1.383 . S
C5774 C5773 1.379 . S
H5775 C5769 0.959 . S
H5776 C5769 0.961 . S
H5777 C5769 0.960 . S
H5778 C5770 0.930 . S
H5779 C5771 0.929 . S
H5780 C5788 0.929 . S
H5781 C5790 0.930 . S
H5782 C5792 0.930 . S
H5783 C5795 0.929 . S
H5784 C5798 0.930 . S
H5785 C5800 0.960 . S
H5786 C5800 0.960 . S
H5787 C5800 0.960 . S
C5788 H5780 0.929 . S
C5788 C5789 1.377 . S
C5788 C5790 1.384 . S
C5789 C5788 1.377 . S
C5789 C5795 1.390 . S
C5790 H5781 0.930 . S
C5790 C5788 1.384 . S
C5790 C5791 1.372 . S
C5791 C5790 1.372 . S
C5791 C5792 1.400 . S
C5791 C5796 1.490 . S
C5792 H5782 0.930 . S
C5792 C5791 1.400 . S
C5792 C5795 1.386 . S
H5793 C5809 0.930 . S
H5794 C5810 0.931 . S
C5795 H5783 0.929 . S
C5795 C5789 1.390 . S
C5795 C5792 1.386 . S
C5796 C5791 1.490 . S
C5796 C5798 1.395 . S
C5796 C5799 1.403 . S
H5797 C5803 0.930 . S
C5798 H5784 0.930 . S
C5798 C5796 1.395 . S
C5798 C5801 1.403 . S
C5799 C5796 1.403 . S
C5799 C5800 1.524 . S
C5799 C5803 1.400 . S
C5800 H5785 0.960 . S
C5800 H5786 0.960 . S
C5800 H5787 0.960 . S
C5800 C5799 1.524 . S
C5801 C5798 1.403 . S
C5801 C5802 1.392 . S
C5801 C5805 1.495 . S
C5802 C5801 1.392 . S
C5802 C5803 1.385 . S
C5802 C5804 1.478 . S
C5803 H5797 0.930 . S
C5803 C5799 1.400 . S
C5803 C5802 1.385 . S
C5804 C5802 1.478 . S
C5804 C5806 1.381 . S
C5804 C5810 1.383 . S
C5805 C5801 1.495 . S
C5805 H5811 0.959 . S
C5805 H5812 0.961 . S
C5805 H5813 0.960 . S
C5806 C5804 1.381 . S
C5806 C5807 1.394 . S
C5806 H5814 0.930 . S
C5807 C5806 1.394 . S
C5807 C5808 1.383 . S
C5807 H5815 0.929 . S
C5808 C5807 1.383 . S
C5808 C5809 1.377 . S
C5809 H5793 0.930 . S
C5809 C5808 1.377 . S
C5809 C5810 1.379 . S
C5810 H5794 0.931 . S
C5810 C5804 1.383 . S
C5810 C5809 1.379 . S
H5811 C5805 0.959 . S
H5812 C5805 0.961 . S
H5813 C5805 0.960 . S
H5814 C5806 0.930 . S
H5815 C5807 0.929 . S
H5816 C5824 0.929 . S
H5817 C5826 0.930 . S
H5818 C5828 0.930 . S
H5819 C5831 0.929 . S
H5820 C5834 0.930 . S
H5821 C5836 0.960 . S
H5822 C5836 0.960 . S
H5823 C5836 0.960 . S
C5824 H5816 0.929 . S
C5824 C5825 1.377 . S
C5824 C5826 1.384 . S
C5825 C5824 1.377 . S
C5825 C5831 1.390 . S
C5826 H5817 0.930 . S
C5826 C5824 1.384 . S
C5826 C5827 1.372 . S
C5827 C5826 1.372 . S
C5827 C5828 1.400 . S
C5827 C5832 1.490 . S
C5828 H5818 0.930 . S
C5828 C5827 1.400 . S
C5828 C5831 1.386 . S
H5829 C5845 0.930 . S
H5830 C5846 0.931 . S
C5831 H5819 0.929 . S
C5831 C5825 1.390 . S
C5831 C5828 1.386 . S
C5832 C5827 1.490 . S
C5832 C5834 1.395 . S
C5832 C5835 1.403 . S
H5833 C5839 0.930 . S
C5834 H5820 0.930 . S
C5834 C5832 1.395 . S
C5834 C5837 1.403 . S
C5835 C5832 1.403 . S
C5835 C5836 1.524 . S
C5835 C5839 1.400 . S
C5836 H5821 0.960 . S
C5836 H5822 0.960 . S
C5836 H5823 0.960 . S
C5836 C5835 1.524 . S
C5837 C5834 1.403 . S
C5837 C5838 1.392 . S
C5837 C5841 1.495 . S
C5838 C5837 1.392 . S
C5838 C5839 1.385 . S
C5838 C5840 1.478 . S
C5839 H5833 0.930 . S
C5839 C5835 1.400 . S
C5839 C5838 1.385 . S
C5840 C5838 1.478 . S
C5840 C5842 1.381 . S
C5840 C5846 1.383 . S
C5841 C5837 1.495 . S
C5841 H5847 0.959 . S
C5841 H5848 0.961 . S
C5841 H5849 0.960 . S
C5842 C5840 1.381 . S
C5842 C5843 1.394 . S
C5842 H5850 0.930 . S
C5843 C5842 1.394 . S
C5843 C5844 1.383 . S
C5843 H5851 0.929 . S
C5844 C5843 1.383 . S
C5844 C5845 1.377 . S
C5845 H5829 0.930 . S
C5845 C5844 1.377 . S
C5845 C5846 1.379 . S
C5846 H5830 0.931 . S
C5846 C5840 1.383 . S
C5846 C5845 1.379 . S
H5847 C5841 0.959 . S
H5848 C5841 0.961 . S
H5849 C5841 0.960 . S
H5850 C5842 0.930 . S
H5851 C5843 0.929 . S
H5852 C5860 0.929 . S
H5853 C5862 0.930 . S
H5854 C5864 0.930 . S
H5855 C5867 0.929 . S
H5856 C5870 0.930 . S
H5857 C5872 0.960 . S
H5858 C5872 0.960 . S
H5859 C5872 0.960 . S
C5860 H5852 0.929 . S
C5860 C5861 1.377 . S
C5860 C5862 1.384 . S
C5861 C5860 1.377 . S
C5861 C5867 1.390 . S
C5862 H5853 0.930 . S
C5862 C5860 1.384 . S
C5862 C5863 1.372 . S
C5863 C5862 1.372 . S
C5863 C5864 1.400 . S
C5863 C5868 1.490 . S
C5864 H5854 0.930 . S
C5864 C5863 1.400 . S
C5864 C5867 1.386 . S
H5865 C5881 0.930 . S
H5866 C5882 0.931 . S
C5867 H5855 0.929 . S
C5867 C5861 1.390 . S
C5867 C5864 1.386 . S
C5868 C5863 1.490 . S
C5868 C5870 1.395 . S
C5868 C5871 1.403 . S
H5869 C5875 0.930 . S
C5870 H5856 0.930 . S
C5870 C5868 1.395 . S
C5870 C5873 1.403 . S
C5871 C5868 1.403 . S
C5871 C5872 1.524 . S
C5871 C5875 1.400 . S
C5872 H5857 0.960 . S
C5872 H5858 0.960 . S
C5872 H5859 0.960 . S
C5872 C5871 1.524 . S
C5873 C5870 1.403 . S
C5873 C5874 1.392 . S
C5873 C5877 1.495 . S
C5874 C5873 1.392 . S
C5874 C5875 1.385 . S
C5874 C5876 1.478 . S
C5875 H5869 0.930 . S
C5875 C5871 1.400 . S
C5875 C5874 1.385 . S
C5876 C5874 1.478 . S
C5876 C5878 1.381 . S
C5876 C5882 1.383 . S
C5877 C5873 1.495 . S
C5877 H5883 0.959 . S
C5877 H5884 0.961 . S
C5877 H5885 0.960 . S
C5878 C5876 1.381 . S
C5878 C5879 1.394 . S
C5878 H5886 0.930 . S
C5879 C5878 1.394 . S
C5879 C5880 1.383 . S
C5879 H5887 0.929 . S
C5880 C5879 1.383 . S
C5880 C5881 1.377 . S
C5881 H5865 0.930 . S
C5881 C5880 1.377 . S
C5881 C5882 1.379 . S
C5882 H5866 0.931 . S
C5882 C5876 1.383 . S
C5882 C5881 1.379 . S
H5883 C5877 0.959 . S
H5884 C5877 0.961 . S
H5885 C5877 0.960 . S
H5886 C5878 0.930 . S
H5887 C5879 0.929 . S
C2460 C1325 1.543 . S
C2441 C21 1.542 . S
C2496 C1373 1.419 . S
C2477 C42 1.423 . S
C2513 C82 1.517 . S
C2532 C1397 1.535 . S
C2568 C1460 1.494 . S
C2549 C135 1.495 . S
C2585 C175 1.416 . S
C2604 C1454 1.418 . S
C2621 C221 1.535 . S
C2640 C1301 1.541 . S
C2657 C255 1.482 . S
C2676 C1349 1.468 . S
C2712 C1421 1.556 . S
C2693 C301 1.562 . S
C2748 C1493 1.512 . S
C2729 C15 1.521 . S
C2765 C55 1.431 . S
C2784 C1541 1.421 . S
C2801 C101 1.549 . S
C2820 C1604 1.559 . S
C2856 C1661 1.491 . S
C2837 C141 1.499 . S
C2873 C162 1.440 . S
C2892 C1685 1.444 . S
C2928 C1742 1.507 . S
C2909 C215 1.519 . S
C2945 C261 1.499 . S
C2964 C1790 1.496 . S
C3000 C1844 1.517 . S
C2981 C282 1.518 . S
C3017 C2 1.518 . S
C3036 C1637 1.529 . S
C3053 C181 1.416 . S
C3072 C1748 1.424 . S
C3108 C1796 1.546 . S
C3089 C202 1.539 . S
C3125 C242 1.501 . S
C3144 C1838 1.498 . S
C3180 C1709 1.497 . S
C3161 C295 1.513 . S
C3216 C1565 1.507 . S
C3197 C95 1.524 . S
C3233 C122 1.492 . S
C3252 C1598 1.498 . S
C3288 C1517 1.444 . S
C3269 C61 1.439 . S
C3324 C1892 1.555 . S
C3305 C341 1.542 . S
C3341 C362 1.423 . S
C3360 C1949 1.418 . S
C3377 C402 1.517 . S
C3396 C1973 1.536 . S
C3432 C2036 1.486 . S
C3413 C455 1.495 . S
C3449 C495 1.417 . S
C3468 C2030 1.404 . S
C3485 C541 1.536 . S
C3504 C1886 1.538 . S
C3521 C575 1.482 . S
C3540 C1925 1.481 . S
C3557 C621 1.561 . S
C3576 C1997 1.566 . S
C3612 C1694 1.520 . S
C3593 C335 1.519 . S
C3629 C375 1.430 . S
C3648 C2078 1.431 . S
C3684 C1781 1.561 . S
C3665 C421 1.547 . S
C3701 C461 1.497 . S
C3720 C2132 1.499 . S
C3737 C482 1.437 . S
C3756 C1502 1.446 . S
C3792 C2174 1.504 . S
C3773 C535 1.518 . S
C3809 C581 1.499 . S
C3828 C1613 1.503 . S
C3864 C2228 1.524 . S
C3845 C602 1.520 . S
C3881 C322 1.516 . S
C3900 C2126 1.533 . S
C3936 C2180 1.436 . S
C3917 C501 1.422 . S
C3953 C522 1.534 . S
C3972 C1589 1.552 . S
C4008 C2222 1.511 . S
C3989 C562 1.503 . S
C4025 C615 1.515 . S
C4044 C1508 1.515 . S
C4061 C415 1.525 . S
C4080 C2084 1.514 . S
C4097 C442 1.491 . S
C4116 C1805 1.498 . S
C4133 C381 1.443 . S
C4152 C1700 1.437 . S
C4169 C661 1.540 . S
C4188 C1982 1.556 . S
C4224 C2045 1.428 . S
C4205 C682 1.422 . S
C4241 C722 1.517 . S
C4260 C1901 1.527 . S
C4277 C775 1.495 . S
C4296 C1940 1.494 . S
C4313 C815 1.416 . S
C4332 C1934 1.415 . S
C4349 C861 1.539 . S
C4368 C1988 1.550 . S
C4404 C2021 1.471 . S
C4385 C895 1.482 . S
C4421 C941 1.561 . S
C4440 C1877 1.570 . S
C4476 C2261 1.520 . S
C4457 C655 1.520 . S
C4493 C695 1.431 . S
C4512 C1733 1.425 . S
C4548 C2324 1.560 . S
C4529 C741 1.548 . S
C4565 C781 1.496 . S
C4584 C1853 1.505 . S
C4601 C802 1.436 . S
C4620 C2366 1.453 . S
C4637 C855 1.519 . S
C4656 C1550 1.511 . S
C4692 C2429 1.500 . S
C4673 C901 1.501 . S
C4709 C922 1.516 . S
C4728 C1652 1.523 . S
C4764 C1829 1.526 . S
C4745 C642 1.520 . S
C4800 C1556 1.431 . S
C4781 C821 1.421 . S
C4817 C842 1.537 . S
C4836 C2405 1.551 . S
C4853 C882 1.503 . S
C4872 C1646 1.509 . S
C4908 C2372 1.510 . S
C4889 C935 1.515 . S
C4944 C1757 1.524 . S
C4925 C735 1.524 . S
C4980 C2318 1.501 . S
C4961 C762 1.493 . S
C5016 C2285 1.448 . S
C4997 C701 1.439 . S
C5033 C981 1.545 . S
C5052 C1406 1.543 . S
C5069 C1002 1.422 . S
C5088 C1469 1.429 . S
C5124 C1316 1.531 . S
C5105 C1042 1.516 . S
C5160 C1364 1.494 . S
C5141 C1095 1.495 . S
C5196 C1358 1.408 . S
C5177 C1135 1.415 . S
C5232 C1412 1.546 . S
C5213 C1181 1.538 . S
C5268 C1445 1.470 . S
C5249 C1215 1.482 . S
C5285 C1261 1.564 . S
C5304 C1310 1.570 . S
C5321 C975 1.521 . S
C5340 C2357 1.511 . S
C5376 C2165 1.430 . S
C5357 C1015 1.430 . S
C5412 C2420 1.560 . S
C5393 C1061 1.549 . S
C5448 C2237 1.489 . S
C5429 C1101 1.499 . S
C5465 C1122 1.435 . S
C5484 C2270 1.454 . S
C5520 C2069 1.510 . S
C5501 C1175 1.520 . S
C5556 C2333 1.504 . S
C5537 C1221 1.499 . S
C5573 C1242 1.515 . S
C5592 C2141 1.523 . S
C5628 C2213 1.533 . S
C5609 C962 1.516 . S
C5664 C2093 1.419 . S
C5645 C1141 1.415 . S
C5700 C2309 1.552 . S
C5681 C1162 1.538 . S
C5717 C1202 1.500 . S
C5736 C2117 1.504 . S
C5753 C1255 1.513 . S
C5772 C2276 1.509 . S
C5789 C1055 1.523 . S
C5808 C2189 1.507 . S
C5825 C1082 1.491 . S
C5844 C2414 1.495 . S
C5880 C2381 1.437 . S
C5861 C1021 1.443 . S
