# Generated by pormake.
# Topology eea, (3,6)-cn, num edge types: 1
# Building blocks:
#     Node 0, Type 0, BuildingBlock: QEWDON_clean_linker_0, # of connection points: 3
#     Node 1, Type 0, BuildingBlock: QEWDON_clean_linker_0, # of connection points: 3
#     Node 2, Type 0, BuildingBlock: QEWDON_clean_linker_0, # of connection points: 3
#     Node 3, Type 0, BuildingBlock: QEWDON_clean_linker_0, # of connection points: 3
#     Node 4, Type 0, BuildingBlock: QEWDON_clean_linker_0, # of connection points: 3
#     Node 5, Type 0, BuildingBlock: QEWDON_clean_linker_0, # of connection points: 3
#     Node 6, Type 0, BuildingBlock: QEWDON_clean_linker_0, # of connection points: 3
#     Node 7, Type 0, BuildingBlock: QEWDON_clean_linker_0, # of connection points: 3
#     Node 8, Type 0, BuildingBlock: QEWDON_clean_linker_0, # of connection points: 3
#     Node 9, Type 0, BuildingBlock: QEWDON_clean_linker_0, # of connection points: 3
#     Node 10, Type 0, BuildingBlock: QEWDON_clean_linker_0, # of connection points: 3
#     Node 11, Type 0, BuildingBlock: QEWDON_clean_linker_0, # of connection points: 3
#     Node 12, Type 0, BuildingBlock: QEWDON_clean_linker_0, # of connection points: 3
#     Node 13, Type 0, BuildingBlock: QEWDON_clean_linker_0, # of connection points: 3
#     Node 14, Type 0, BuildingBlock: QEWDON_clean_linker_0, # of connection points: 3
#     Node 15, Type 0, BuildingBlock: QEWDON_clean_linker_0, # of connection points: 3
#     Node 16, Type 0, BuildingBlock: QEWDON_clean_linker_0, # of connection points: 3
#     Node 17, Type 0, BuildingBlock: QEWDON_clean_linker_0, # of connection points: 3
#     Node 18, Type 1, BuildingBlock: KUMBUR_clean_sbu_0, # of connection points: 6
#     Node 19, Type 1, BuildingBlock: KUMBUR_clean_sbu_0, # of connection points: 6
#     Node 20, Type 1, BuildingBlock: KUMBUR_clean_sbu_0, # of connection points: 6
#     Node 21, Type 1, BuildingBlock: KUMBUR_clean_sbu_0, # of connection points: 6
#     Node 22, Type 1, BuildingBlock: KUMBUR_clean_sbu_0, # of connection points: 6
#     Node 23, Type 1, BuildingBlock: KUMBUR_clean_sbu_0, # of connection points: 6
#     Node 24, Type 1, BuildingBlock: KUMBUR_clean_sbu_0, # of connection points: 6
#     Node 25, Type 1, BuildingBlock: KUMBUR_clean_sbu_0, # of connection points: 6
#     Node 26, Type 1, BuildingBlock: KUMBUR_clean_sbu_0, # of connection points: 6
#     Edge 27, Type (0, 1), BuildingBlock: ZUJKAS_clean_linker_0, # of connection points: 2
#     Edge 28, Type (0, 1), BuildingBlock: ZUJKAS_clean_linker_0, # of connection points: 2
#     Edge 29, Type (0, 1), BuildingBlock: ZUJKAS_clean_linker_0, # of connection points: 2
#     Edge 30, Type (0, 1), BuildingBlock: ZUJKAS_clean_linker_0, # of connection points: 2
#     Edge 31, Type (0, 1), BuildingBlock: ZUJKAS_clean_linker_0, # of connection points: 2
#     Edge 32, Type (0, 1), BuildingBlock: ZUJKAS_clean_linker_0, # of connection points: 2
#     Edge 33, Type (0, 1), BuildingBlock: ZUJKAS_clean_linker_0, # of connection points: 2
#     Edge 34, Type (0, 1), BuildingBlock: ZUJKAS_clean_linker_0, # of connection points: 2
#     Edge 35, Type (0, 1), BuildingBlock: ZUJKAS_clean_linker_0, # of connection points: 2
#     Edge 36, Type (0, 1), BuildingBlock: ZUJKAS_clean_linker_0, # of connection points: 2
#     Edge 37, Type (0, 1), BuildingBlock: ZUJKAS_clean_linker_0, # of connection points: 2
#     Edge 38, Type (0, 1), BuildingBlock: ZUJKAS_clean_linker_0, # of connection points: 2
#     Edge 39, Type (0, 1), BuildingBlock: ZUJKAS_clean_linker_0, # of connection points: 2
#     Edge 40, Type (0, 1), BuildingBlock: ZUJKAS_clean_linker_0, # of connection points: 2
#     Edge 41, Type (0, 1), BuildingBlock: ZUJKAS_clean_linker_0, # of connection points: 2
#     Edge 42, Type (0, 1), BuildingBlock: ZUJKAS_clean_linker_0, # of connection points: 2
#     Edge 43, Type (0, 1), BuildingBlock: ZUJKAS_clean_linker_0, # of connection points: 2
#     Edge 44, Type (0, 1), BuildingBlock: ZUJKAS_clean_linker_0, # of connection points: 2
#     Edge 45, Type (0, 1), BuildingBlock: ZUJKAS_clean_linker_0, # of connection points: 2
#     Edge 46, Type (0, 1), BuildingBlock: ZUJKAS_clean_linker_0, # of connection points: 2
#     Edge 47, Type (0, 1), BuildingBlock: ZUJKAS_clean_linker_0, # of connection points: 2
#     Edge 48, Type (0, 1), BuildingBlock: ZUJKAS_clean_linker_0, # of connection points: 2
#     Edge 49, Type (0, 1), BuildingBlock: ZUJKAS_clean_linker_0, # of connection points: 2
#     Edge 50, Type (0, 1), BuildingBlock: ZUJKAS_clean_linker_0, # of connection points: 2
#     Edge 51, Type (0, 1), BuildingBlock: ZUJKAS_clean_linker_0, # of connection points: 2
#     Edge 52, Type (0, 1), BuildingBlock: ZUJKAS_clean_linker_0, # of connection points: 2
#     Edge 53, Type (0, 1), BuildingBlock: ZUJKAS_clean_linker_0, # of connection points: 2
#     Edge 54, Type (0, 1), BuildingBlock: ZUJKAS_clean_linker_0, # of connection points: 2
#     Edge 55, Type (0, 1), BuildingBlock: ZUJKAS_clean_linker_0, # of connection points: 2
#     Edge 56, Type (0, 1), BuildingBlock: ZUJKAS_clean_linker_0, # of connection points: 2
#     Edge 57, Type (0, 1), BuildingBlock: ZUJKAS_clean_linker_0, # of connection points: 2
#     Edge 58, Type (0, 1), BuildingBlock: ZUJKAS_clean_linker_0, # of connection points: 2
#     Edge 59, Type (0, 1), BuildingBlock: ZUJKAS_clean_linker_0, # of connection points: 2
#     Edge 60, Type (0, 1), BuildingBlock: ZUJKAS_clean_linker_0, # of connection points: 2
#     Edge 61, Type (0, 1), BuildingBlock: ZUJKAS_clean_linker_0, # of connection points: 2
#     Edge 62, Type (0, 1), BuildingBlock: ZUJKAS_clean_linker_0, # of connection points: 2
#     Edge 63, Type (0, 1), BuildingBlock: ZUJKAS_clean_linker_0, # of connection points: 2
#     Edge 64, Type (0, 1), BuildingBlock: ZUJKAS_clean_linker_0, # of connection points: 2
#     Edge 65, Type (0, 1), BuildingBlock: ZUJKAS_clean_linker_0, # of connection points: 2
#     Edge 66, Type (0, 1), BuildingBlock: ZUJKAS_clean_linker_0, # of connection points: 2
#     Edge 67, Type (0, 1), BuildingBlock: ZUJKAS_clean_linker_0, # of connection points: 2
#     Edge 68, Type (0, 1), BuildingBlock: ZUJKAS_clean_linker_0, # of connection points: 2
#     Edge 69, Type (0, 1), BuildingBlock: ZUJKAS_clean_linker_0, # of connection points: 2
#     Edge 70, Type (0, 1), BuildingBlock: ZUJKAS_clean_linker_0, # of connection points: 2
#     Edge 71, Type (0, 1), BuildingBlock: ZUJKAS_clean_linker_0, # of connection points: 2
#     Edge 72, Type (0, 1), BuildingBlock: ZUJKAS_clean_linker_0, # of connection points: 2
#     Edge 73, Type (0, 1), BuildingBlock: ZUJKAS_clean_linker_0, # of connection points: 2
#     Edge 74, Type (0, 1), BuildingBlock: ZUJKAS_clean_linker_0, # of connection points: 2
#     Edge 75, Type (0, 1), BuildingBlock: ZUJKAS_clean_linker_0, # of connection points: 2
#     Edge 76, Type (0, 1), BuildingBlock: ZUJKAS_clean_linker_0, # of connection points: 2
#     Edge 77, Type (0, 1), BuildingBlock: ZUJKAS_clean_linker_0, # of connection points: 2
#     Edge 78, Type (0, 1), BuildingBlock: ZUJKAS_clean_linker_0, # of connection points: 2
#     Edge 79, Type (0, 1), BuildingBlock: ZUJKAS_clean_linker_0, # of connection points: 2
#     Edge 80, Type (0, 1), BuildingBlock: ZUJKAS_clean_linker_0, # of connection points: 2
# Relax obj value: 0.043
# Max RMSD: 0.201
# Mean RMSD: 0.144
data_MOF--net-eea--node1-KUMBUR_clean_sbu_0--node2-QEWDON_clean_linker_0--edge1-ZUJKAS_clean_linker_0
_symmetry_space_group_name_H-M    P1
_symmetry_Int_Tables_number       1
_symmetry_cell_setting            triclinic
loop_
_symmetry_equiv_pos_as_xyz
'x, y, z'
_cell_length_a     74.787829
_cell_length_b     76.403733
_cell_length_c     78.457553
_cell_angle_alpha  90.194582
_cell_angle_beta   90.171868
_cell_angle_gamma 119.97331
loop_
_atom_site_label
_atom_site_type_symbol
_atom_site_fract_x
_atom_site_fract_y
_atom_site_fract_z
_atom_type_partial_charge
H0 H 0.20733 0.1131 0.43056 0.0
C1 C 0.20836 0.10098 0.42428 0.0
C2 C 0.22133 0.09428 0.43105 0.0
C3 C 0.19556 0.09106 0.41017 0.0
H4 H 0.23212 0.07301 0.42815 0.0
C5 C 0.22189 0.07801 0.42317 0.0
C6 C 0.20931 0.06801 0.40905 0.0
C7 C 0.19631 0.07475 0.40255 0.0
C8 C 0.17994 0.09632 0.40432 0.0
H9 H 0.18619 0.06684 0.39187 0.0
C10 C 0.18526 0.11648 0.40104 0.0
C11 C 0.17023 0.12102 0.39506 0.0
C12 C 0.15938 0.08085 0.40197 0.0
H13 H 0.15481 0.06527 0.40465 0.0
C14 C 0.14442 0.0853 0.39637 0.0
H15 H 0.20113 0.12846 0.40262 0.0
C16 C 0.14976 0.10519 0.39292 0.0
H17 H 0.13775 0.10821 0.38871 0.0
H18 H 0.12861 0.07328 0.39472 0.0
H19 H 0.90473 0.10004 0.41991 0.0
C20 C 0.91731 0.11367 0.41454 0.0
C21 C 0.92458 0.13224 0.42315 0.0
C22 C 0.92648 0.11256 0.39925 0.0
H23 H 0.94751 0.16394 0.42324 0.0
C24 C 0.94127 0.14979 0.41629 0.0
C25 C 0.95068 0.14907 0.40102 0.0
C26 C 0.94293 0.13043 0.3925 0.0
C27 C 0.91981 0.09274 0.39067 0.0
H28 H 0.94975 0.12985 0.38051 0.0
C29 C 0.89878 0.0776 0.38942 0.0
C30 C 0.89295 0.0593 0.38073 0.0
C31 C 0.93481 0.08892 0.38357 0.0
H32 H 0.9511 0.09989 0.38469 0.0
C33 C 0.92907 0.07081 0.3751 0.0
H34 H 0.88696 0.08023 0.39472 0.0
C35 C 0.90833 0.05614 0.3736 0.0
H36 H 0.9043 0.04213 0.36704 0.0
H37 H 0.94079 0.0681 0.36971 0.0
H38 H 0.92164 0.80528 0.42381 0.0
C39 C 0.90834 0.80499 0.41797 0.0
C40 C 0.88918 0.79506 0.42633 0.0
C41 C 0.91073 0.81585 0.40285 0.0
H42 H 0.85748 0.78809 0.42574 0.0
C43 C 0.87215 0.79552 0.41918 0.0
C44 C 0.87398 0.80594 0.40399 0.0
C45 C 0.8933 0.81593 0.39587 0.0
C46 C 0.93169 0.82896 0.39538 0.0
H47 H 0.8948 0.82396 0.38413 0.0
C48 C 0.94677 0.82288 0.39448 0.0
C49 C 0.96677 0.83627 0.38819 0.0
C50 C 0.937 0.84844 0.38973 0.0
H51 H 0.92614 0.85386 0.39058 0.0
C52 C 0.95657 0.86148 0.38333 0.0
H53 H 0.9431 0.80801 0.3988 0.0
C54 C 0.97134 0.85551 0.3826 0.0
H55 H 0.98645 0.86599 0.37755 0.0
H56 H 0.96038 0.8764 0.37906 0.0
H57 H 0.12501 0.20748 0.60604 0.0
C58 C 0.11213 0.20808 0.6117 0.0
C59 C 0.10417 0.21919 0.60361 0.0
C60 C 0.10309 0.19712 0.62666 0.0
H61 H 0.0803 0.22719 0.60422 0.0
C62 C 0.08705 0.21941 0.61079 0.0
C63 C 0.07773 0.20867 0.62575 0.0
C64 C 0.08602 0.19776 0.63366 0.0
C65 C 0.11007 0.18344 0.63404 0.0
H66 H 0.07906 0.18962 0.64529 0.0
C67 C 0.13118 0.18882 0.6347 0.0
C68 C 0.137 0.17494 0.64074 0.0
C69 C 0.09514 0.16417 0.63978 0.0
H70 H 0.07884 0.15927 0.63913 0.0
C71 C 0.1009 0.15063 0.64598 0.0
H72 H 0.14297 0.20355 0.63034 0.0
C73 C 0.1216 0.1559 0.64641 0.0
H74 H 0.12562 0.14504 0.65127 0.0
H75 H 0.08921 0.13586 0.6503 0.0
H76 H 0.82029 0.92103 0.59578 0.0
C77 C 0.81941 0.90801 0.60208 0.0
C78 C 0.80569 0.88851 0.59585 0.0
C79 C 0.83233 0.91081 0.6161 0.0
H80 H 0.79483 0.8567 0.59871 0.0
C81 C 0.80487 0.8717 0.60385 0.0
C82 C 0.81786 0.87421 0.61774 0.0
C83 C 0.83136 0.8938 0.62387 0.0
C84 C 0.84755 0.93147 0.62217 0.0
H85 H 0.84114 0.8958 0.63478 0.0
C86 C 0.84208 0.94657 0.6239 0.0
C87 C 0.85666 0.96613 0.62963 0.0
C88 C 0.86783 0.9362 0.62618 0.0
H89 H 0.8726 0.92503 0.62474 0.0
C90 C 0.88228 0.9555 0.63188 0.0
H91 H 0.82651 0.9431 0.62081 0.0
C92 C 0.87679 0.97036 0.63363 0.0
H93 H 0.88826 0.98511 0.63835 0.0
H94 H 0.89783 0.95895 0.63497 0.0
H95 H 0.09612 0.8899 0.6018 0.0
C96 C 0.10951 0.90247 0.60772 0.0
C97 C 0.12874 0.91126 0.59943 0.0
C98 C 0.10725 0.91077 0.62305 0.0
H99 H 0.16054 0.9351 0.60042 0.0
C100 C 0.14581 0.92817 0.60688 0.0
C101 C 0.14397 0.93653 0.62229 0.0
C102 C 0.12466 0.92752 0.63035 0.0
C103 C 0.08655 0.90339 0.63083 0.0
H104 H 0.12307 0.93366 0.64235 0.0
C105 C 0.07235 0.88259 0.63307 0.0
C106 C 0.05332 0.87633 0.6413 0.0
C107 C 0.08106 0.91763 0.63632 0.0
H108 H 0.09138 0.93365 0.63444 0.0
C109 C 0.06217 0.91145 0.64415 0.0
H110 H 0.07635 0.87142 0.62897 0.0
C111 C 0.04845 0.891 0.64673 0.0
H112 H 0.03384 0.88661 0.65283 0.0
H113 H 0.05816 0.92258 0.64829 0.0
H114 H 0.8744 0.44963 0.7591 0.0
C115 C 0.8755 0.43709 0.75381 0.0
C116 C 0.88914 0.43161 0.76119 0.0
C117 C 0.86286 0.42607 0.73995 0.0
H118 H 0.90034 0.4105 0.76037 0.0
C119 C 0.89011 0.41501 0.75453 0.0
C120 C 0.87754 0.40377 0.74075 0.0
C121 C 0.86413 0.40955 0.73342 0.0
C122 C 0.84741 0.43097 0.73293 0.0
H123 H 0.85423 0.40082 0.72289 0.0
C124 C 0.85268 0.45109 0.72956 0.0
C125 C 0.83791 0.45555 0.72283 0.0
C126 C 0.82713 0.41536 0.72968 0.0
H127 H 0.82253 0.39979 0.7324 0.0
C128 C 0.81242 0.4197 0.72318 0.0
H129 H 0.86837 0.46318 0.73176 0.0
C130 C 0.81771 0.4396 0.71977 0.0
H131 H 0.80588 0.44252 0.71493 0.0
H132 H 0.7968 0.40758 0.72085 0.0
H133 H 0.57037 0.43192 0.75771 0.0
C134 C 0.5832 0.44523 0.75218 0.0
C135 C 0.58962 0.46437 0.75943 0.0
C136 C 0.59355 0.44315 0.73806 0.0
H137 H 0.61206 0.49617 0.75828 0.0
C138 C 0.60656 0.48152 0.75234 0.0
C139 C 0.61713 0.47979 0.73824 0.0
C140 C 0.61033 0.46058 0.7311 0.0
C141 C 0.58767 0.42283 0.73097 0.0
H142 H 0.61812 0.45919 0.71999 0.0
C143 C 0.5668 0.40768 0.72875 0.0
C144 C 0.56172 0.38887 0.72137 0.0
C145 C 0.60325 0.41857 0.72623 0.0
H146 H 0.61939 0.42963 0.72815 0.0
C147 C 0.59825 0.39993 0.71911 0.0
H148 H 0.55457 0.41068 0.73222 0.0
C149 C 0.57767 0.38522 0.71659 0.0
H150 H 0.57418 0.37083 0.71109 0.0
H151 H 0.61039 0.39687 0.71553 0.0
H152 H 0.58796 0.13547 0.75633 0.0
C153 C 0.57469 0.13508 0.75035 0.0
C154 C 0.55505 0.12366 0.75778 0.0
C155 C 0.57738 0.14664 0.73563 0.0
H156 H 0.52313 0.11581 0.75646 0.0
C157 C 0.53802 0.12383 0.75028 0.0
C158 C 0.54023 0.13525 0.7356 0.0
C159 C 0.55996 0.14636 0.72827 0.0
C160 C 0.59853 0.16072 0.72896 0.0
H161 H 0.56183 0.15504 0.71685 0.0
C162 C 0.61395 0.15515 0.72749 0.0
C163 C 0.63403 0.16933 0.72182 0.0
C164 C 0.60356 0.1805 0.72456 0.0
H165 H 0.59235 0.18545 0.72584 0.0
C166 C 0.62323 0.19437 0.71884 0.0
H167 H 0.61045 0.14002 0.73084 0.0
C168 C 0.63834 0.18889 0.7175 0.0
H169 H 0.65348 0.19999 0.71295 0.0
H170 H 0.62683 0.20952 0.71552 0.0
H171 H 0.78653 0.53611 0.93634 0.0
C172 C 0.77424 0.53764 0.94211 0.0
C173 C 0.76577 0.5478 0.93314 0.0
C174 C 0.76612 0.52851 0.95796 0.0
H175 H 0.74215 0.55617 0.9332 0.0
C176 C 0.74896 0.54872 0.94019 0.0
C177 C 0.74059 0.53983 0.95597 0.0
C178 C 0.74964 0.53027 0.9649 0.0
C179 C 0.77349 0.51582 0.9668 0.0
H180 H 0.74365 0.52406 0.97734 0.0
C181 C 0.79431 0.52015 0.96613 0.0
C182 C 0.80049 0.50764 0.97463 0.0
C183 C 0.75913 0.49864 0.97588 0.0
H184 H 0.74292 0.49413 0.97616 0.0
C185 C 0.76526 0.48673 0.98466 0.0
H186 H 0.80558 0.53305 0.959 0.0
C187 C 0.78569 0.49126 0.98421 0.0
H188 H 0.78986 0.48179 0.99147 0.0
H189 H 0.75404 0.47382 0.99181 0.0
H190 H 0.48354 0.25413 0.93178 0.0
C191 C 0.48241 0.24066 0.93735 0.0
C192 C 0.47038 0.22184 0.92923 0.0
C193 C 0.49383 0.24229 0.95215 0.0
H194 H 0.46015 0.18997 0.9302 0.0
C195 C 0.46966 0.20458 0.93621 0.0
C196 C 0.48085 0.20591 0.95101 0.0
C197 C 0.49274 0.22478 0.95896 0.0
C198 C 0.50767 0.2623 0.96016 0.0
H199 H 0.50153 0.22591 0.97033 0.0
C200 C 0.50128 0.27668 0.96235 0.0
C201 C 0.51428 0.29524 0.97057 0.0
C202 C 0.52744 0.267 0.96589 0.0
H203 H 0.53299 0.25648 0.96407 0.0
C204 C 0.54038 0.28543 0.9739 0.0
H205 H 0.48603 0.27321 0.95816 0.0
C206 C 0.53385 0.29943 0.97631 0.0
H207 H 0.54425 0.3137 0.98247 0.0
H208 H 0.55556 0.28888 0.97823 0.0
H209 H 0.76142 0.22459 0.93458 0.0
C210 C 0.77468 0.23731 0.94049 0.0
C211 C 0.79424 0.24543 0.93283 0.0
C212 C 0.77194 0.24639 0.95514 0.0
H213 H 0.82633 0.26871 0.93461 0.0
C214 C 0.81121 0.26236 0.94036 0.0
C215 C 0.80877 0.27164 0.95492 0.0
C216 C 0.78913 0.26352 0.96225 0.0
C217 C 0.75103 0.2391 0.96245 0.0
H218 H 0.78726 0.27061 0.97357 0.0
C219 C 0.73697 0.21832 0.96495 0.0
C220 C 0.7177 0.21202 0.97274 0.0
C221 C 0.74518 0.25329 0.96726 0.0
H222 H 0.75539 0.26929 0.96517 0.0
C223 C 0.72606 0.24707 0.97469 0.0
H224 H 0.74125 0.20718 0.96141 0.0
C225 C 0.71246 0.22663 0.97752 0.0
H226 H 0.69767 0.22221 0.98329 0.0
H227 H 0.72177 0.25815 0.97831 0.0
H228 H 0.53554 0.7784 0.09574 0.0
C229 C 0.53712 0.76678 0.08912 0.0
C230 C 0.54988 0.75992 0.09603 0.0
C231 C 0.52541 0.7578 0.0743 0.0
H232 H 0.56078 0.73875 0.09315 0.0
C233 C 0.55116 0.74423 0.08774 0.0
C234 C 0.53973 0.73521 0.07285 0.0
C235 C 0.52706 0.74224 0.06616 0.0
C236 C 0.51036 0.76356 0.06788 0.0
H237 H 0.51836 0.73555 0.05455 0.0
C238 C 0.51561 0.78398 0.0666 0.0
C239 C 0.50113 0.78916 0.06043 0.0
C240 C 0.49041 0.74839 0.06306 0.0
H241 H 0.48581 0.73256 0.06416 0.0
C242 C 0.47607 0.75343 0.05696 0.0
H243 H 0.53092 0.79578 0.07035 0.0
C244 C 0.48135 0.77362 0.05559 0.0
H245 H 0.46999 0.77707 0.05049 0.0
H246 H 0.46079 0.74162 0.05322 0.0
H247 H 0.23959 0.76565 0.09175 0.0
C248 C 0.25158 0.77916 0.08574 0.0
C249 C 0.25896 0.79807 0.09382 0.0
C250 C 0.26045 0.7774 0.07048 0.0
H251 H 0.28143 0.82998 0.09232 0.0
C252 C 0.27551 0.81527 0.08639 0.0
C253 C 0.28456 0.81381 0.07122 0.0
C254 C 0.2767 0.79497 0.06315 0.0
C255 C 0.25414 0.75712 0.06301 0.0
H256 H 0.28378 0.79393 0.05145 0.0
C257 C 0.23325 0.74155 0.06245 0.0
C258 C 0.2278 0.72224 0.05597 0.0
C259 C 0.26938 0.75306 0.05688 0.0
H260 H 0.28557 0.76444 0.05746 0.0
C261 C 0.26401 0.7341 0.05029 0.0
H262 H 0.22131 0.74438 0.06715 0.0
C263 C 0.24343 0.7188 0.04983 0.0
H264 H 0.23972 0.70426 0.04452 0.0
H265 H 0.2759 0.73121 0.0456 0.0
H266 H 0.25482 0.47217 0.091 0.0
C267 C 0.24159 0.47195 0.0851 0.0
C268 C 0.22225 0.46169 0.09317 0.0
C269 C 0.24421 0.48322 0.0702 0.0
H270 H 0.1905 0.45456 0.09226 0.0
C271 C 0.20532 0.46224 0.08592 0.0
C272 C 0.20741 0.47306 0.07091 0.0
C273 C 0.22689 0.48337 0.0631 0.0
C274 C 0.26529 0.4967 0.0631 0.0
H275 H 0.22862 0.49173 0.05151 0.0
C276 C 0.28038 0.49068 0.06183 0.0
C277 C 0.30044 0.50436 0.05583 0.0
C278 C 0.27064 0.51642 0.05815 0.0
H279 H 0.25973 0.52175 0.05929 0.0
C280 C 0.29029 0.52977 0.05207 0.0
H281 H 0.27664 0.47561 0.06561 0.0
C282 C 0.30508 0.52385 0.05095 0.0
H283 H 0.32023 0.53456 0.04615 0.0
H284 H 0.29414 0.54488 0.04834 0.0
H285 H 0.45553 0.8738 0.26938 0.0
C286 C 0.44291 0.8745 0.27546 0.0
C287 C 0.43424 0.88506 0.26747 0.0
C288 C 0.43441 0.86363 0.29056 0.0
H289 H 0.41023 0.89283 0.26878 0.0
C290 C 0.41711 0.88496 0.275 0.0
C291 C 0.40841 0.87439 0.29018 0.0
C292 C 0.41737 0.86398 0.29793 0.0
C293 C 0.44167 0.85007 0.29766 0.0
H294 H 0.41092 0.85594 0.3097 0.0
C295 C 0.46286 0.85581 0.29851 0.0
C296 C 0.46892 0.84206 0.30448 0.0
C297 C 0.42688 0.83056 0.30303 0.0
H298 H 0.41053 0.82543 0.30222 0.0
C299 C 0.43285 0.81713 0.30908 0.0
H300 H 0.47452 0.87072 0.29441 0.0
C301 C 0.45364 0.82277 0.30977 0.0
H302 H 0.45783 0.81201 0.31457 0.0
H303 H 0.42127 0.80218 0.31314 0.0
H304 H 0.15442 0.58733 0.26394 0.0
C305 C 0.15287 0.57392 0.27001 0.0
C306 C 0.13961 0.55472 0.26291 0.0
C307 C 0.16519 0.57603 0.2843 0.0
H308 H 0.12801 0.52268 0.26554 0.0
C309 C 0.1385 0.5376 0.2706 0.0
C310 C 0.15082 0.53946 0.28478 0.0
C311 C 0.16397 0.55871 0.29165 0.0
C312 C 0.18051 0.59638 0.29083 0.0
H313 H 0.17374 0.5603 0.30247 0.0
C314 C 0.17499 0.61125 0.29393 0.0
C315 C 0.18966 0.63042 0.30037 0.0
C316 C 0.20092 0.60098 0.29397 0.0
H317 H 0.20565 0.58994 0.29147 0.0
C318 C 0.21554 0.61999 0.3001 0.0
H319 H 0.1592 0.6077 0.29178 0.0
C320 C 0.21001 0.6346 0.30328 0.0
H321 H 0.22178 0.64931 0.30786 0.0
H322 H 0.23126 0.62342 0.30234 0.0
H323 H 0.42948 0.55724 0.2648 0.0
C324 C 0.44251 0.57013 0.27077 0.0
C325 C 0.46197 0.57894 0.26293 0.0
C326 C 0.43952 0.57892 0.28551 0.0
H327 H 0.49366 0.60288 0.2643 0.0
C328 C 0.47861 0.59625 0.27025 0.0
C329 C 0.47608 0.60516 0.28503 0.0
C330 C 0.45652 0.59623 0.29269 0.0
C331 C 0.41833 0.5717 0.2922 0.0
H332 H 0.45431 0.60326 0.3039 0.0
C333 C 0.40386 0.55091 0.29415 0.0
C334 C 0.3836 0.54464 0.29976 0.0
C335 C 0.41223 0.58596 0.29605 0.0
H336 H 0.42278 0.60197 0.29439 0.0
C337 C 0.39232 0.57979 0.30168 0.0
H338 H 0.40826 0.53971 0.29122 0.0
C339 C 0.37809 0.55932 0.30349 0.0
H340 H 0.36274 0.55494 0.30799 0.0
H341 H 0.38785 0.59094 0.30457 0.0
Tb342 Tb 0.49705 0.99688 0.9919 0.0
C343 C 0.53869 0.06046 0.04868 0.0
C344 C 0.57474 0.07012 0.04772 0.0
C345 C 0.5648 0.09424 0.05757 0.0
C346 C 0.55378 0.05584 0.0448 0.0
C347 C 0.54391 0.07955 0.05543 0.0
C348 C 0.58021 0.08951 0.05375 0.0
C349 C 0.50751 0.06751 0.05886 0.0
N350 N 0.51875 0.04573 0.04668 0.0
C351 C 0.50314 0.04874 0.05225 0.0
C352 C 0.52799 0.08308 0.06027 0.0
Tb353 Tb 0.513 0.01565 0.03525 0.0
N354 N 0.54779 0.03688 0.0392 0.0
C355 C 0.56208 0.03083 0.03732 0.0
C356 C 0.58947 0.06425 0.04506 0.0
C357 C 0.58309 0.04446 0.03998 0.0
H358 H 0.48725 0.03687 0.05116 0.0
H359 H 0.59434 0.03967 0.03813 0.0
H360 H 0.59625 0.10076 0.0559 0.0
H361 H 0.49508 0.06995 0.06285 0.0
H362 H 0.55751 0.01562 0.0334 0.0
H363 H 0.41607 0.9746 0.98903 0.0
H364 H 0.60571 0.07472 0.04732 0.0
H365 H 0.52151 0.97435 0.97614 0.0
H366 H 0.45314 0.99837 0.99254 0.0
H367 H 0.51269 0.94045 0.96565 0.0
H368 H 0.56917 0.10908 0.06261 0.0
H369 H 0.40364 0.93867 0.9823 0.0
H370 H 0.41219 0.91161 0.97481 0.0
H371 H 0.53134 0.09756 0.06549 0.0
H372 H 0.43858 0.90232 0.96821 0.0
N373 N 0.46208 0.97623 0.98818 0.0
C374 C 0.44817 0.98285 0.98948 0.0
C375 C 0.42004 0.94908 0.98378 0.0
C376 C 0.43439 0.94267 0.98138 0.0
C377 C 0.427 0.96936 0.98752 0.0
C378 C 0.45554 0.95684 0.98353 0.0
H379 H 0.47617 0.91311 0.9644 0.0
N380 N 0.49032 0.96621 0.98113 0.0
C381 C 0.50058 0.94338 0.96965 0.0
C382 C 0.47023 0.95165 0.97978 0.0
C383 C 0.50552 0.96259 0.97553 0.0
C384 C 0.47996 0.92797 0.96901 0.0
C385 C 0.46444 0.93208 0.97386 0.0
O386 O 0.51286 0.00524 0.96847 0.0
O387 O 0.52088 0.01844 0.00861 0.0
O388 O 0.51126 0.03922 0.02098 0.0
O389 O 0.48893 0.02013 0.99884 0.0
O390 O 0.53024 0.00798 0.98877 0.0
O391 O 0.48797 0.01095 0.97354 0.0
O392 O 0.49679 0.00591 0.05842 0.0
O393 O 0.48924 0.9943 0.01845 0.0
O394 O 0.4984 0.97334 0.00656 0.0
O395 O 0.5215 0.9927 0.02811 0.0
O396 O 0.47978 0.00438 0.03844 0.0
O397 O 0.52285 1.00203 0.05343 0.0
C398 C 0.53679 0.02035 1.00143 0.0
C399 C 0.49311 0.00511 0.94486 0.0
C400 C 0.49394 0.01229 0.91437 0.0
C401 C 0.50203 0.01834 0.931 0.0
C402 C 0.47703 0.99274 0.91185 0.0
C403 C 0.47628 0.98571 0.94197 0.0
C404 C 0.46834 0.97957 0.92555 0.0
C405 C 0.49851 0.03684 0.00828 0.0
C406 C 0.50117 0.01184 0.96227 0.0
C407 C 0.44339 0.91752 0.97255 0.0
C408 C 0.42837 0.92281 0.97632 0.0
C409 C 0.4733 0.99236 0.02556 0.0
C410 C 0.51654 0.00646 0.08218 0.0
C411 C 0.50779 0.99272 0.09573 0.0
C412 C 0.51509 0.99863 0.11259 0.0
C413 C 0.53105 0.01857 0.1156 0.0
C414 C 0.53247 0.02619 0.08557 0.0
C415 C 0.53963 0.0322 0.10219 0.0
C416 C 0.5114 0.97576 0.01905 0.0
C417 C 0.50908 1.00001 0.06458 0.0
H418 H 0.51494 0.03341 0.93321 0.0
H419 H 0.47062 0.98754 0.89922 0.0
H420 H 0.46919 0.97535 0.95238 0.0
H421 H 0.45536 0.96455 0.92344 0.0
H422 H 0.4956 0.9774 0.0931 0.0
H423 H 0.53678 0.02375 0.1284 0.0
H424 H 0.53945 0.03694 0.07541 0.0
H425 H 0.55189 0.0475 0.10469 0.0
Tb426 Tb 0.0215 0.5041 0.9917 0.0
C427 C 0.95498 0.47728 0.04666 0.0
C428 C 0.9433 0.50151 0.04493 0.0
C429 C 0.91983 0.46742 0.05469 0.0
C430 C 0.95867 0.49623 0.04241 0.0
C431 C 0.93574 0.46279 0.05333 0.0
C432 C 0.92363 0.4868 0.05053 0.0
C433 C 0.95041 0.44155 0.05916 0.0
N434 N 0.97099 0.47376 0.04572 0.0
C435 C 0.96928 0.45657 0.05266 0.0
C436 C 0.93344 0.44452 0.05922 0.0
Tb437 Tb 1.00123 0.49889 0.03443 0.0
N438 N 0.978 0.51005 0.03744 0.0
C439 C 0.98338 0.52994 0.03601 0.0
C440 C 0.94847 0.52161 0.04263 0.0
C441 C 0.96867 0.53594 0.03831 0.0
H442 H 0.98227 0.45409 0.05269 0.0
H443 H 0.97295 0.55163 0.03682 0.0
H444 H 0.91153 0.4905 0.05231 0.0
H445 H 0.949 0.42773 0.06415 0.0
H446 H 0.99891 0.54126 0.03274 0.0
H447 H 0.04257 0.446 0.98766 0.0
H448 H 0.93721 0.52633 0.04478 0.0
H449 H 0.04551 0.5512 0.97776 0.0
H450 H 0.01925 0.45931 0.99268 0.0
H451 H 0.08028 0.57617 0.96759 0.0
H452 H 0.90485 0.45642 0.0596 0.0
H453 H 0.07885 0.46901 0.97964 0.0
H454 H 0.10697 0.5043 0.97276 0.0
H455 H 0.91891 0.43296 0.06443 0.0
H456 H 0.11741 0.53991 0.96764 0.0
N457 N 0.04215 0.49005 0.98821 0.0
C458 C 0.03503 0.46974 0.98933 0.0
C459 C 0.06876 0.4751 0.98209 0.0
C460 C 0.07582 0.49575 0.98038 0.0
C461 C 0.04825 0.46204 0.9865 0.0
C462 C 0.06192 0.50279 0.98345 0.0
H463 H 0.10747 0.56683 0.96547 0.0
N464 N 0.05321 0.52824 0.98204 0.0
C465 C 0.07697 0.56119 0.97119 0.0
C466 C 0.06769 0.52266 0.98033 0.0
C467 C 0.05728 0.54699 0.97691 0.0
C468 C 0.0923 0.55589 0.97007 0.0
C469 C 0.08764 0.53628 0.97433 0.0
O470 O 0.01439 0.51286 0.96837 0.0
O471 O 0.99811 0.50409 0.00779 0.0
O472 O 0.9783 0.47207 0.0206 0.0
O473 O 0.99692 0.47263 0.99637 0.0
O474 O 0.01004 0.52541 0.98924 0.0
O475 O 0.00844 0.48246 0.97211 0.0
O476 O 0.01232 0.49383 0.05755 0.0
O477 O 0.02416 0.49851 0.0181 0.0
O478 O 0.04493 0.52868 0.00722 0.0
O479 O 0.02418 0.53068 0.02831 0.0
O480 O 0.01395 0.47857 0.03753 0.0
O481 O 0.01267 0.52173 0.05318 0.0
C482 C 0.99638 0.51814 1.00103 0.0
C483 C 0.01599 0.49529 0.94414 0.0
C484 C 0.00998 0.49094 0.91342 0.0
C485 C 1.00315 0.49181 0.92994 0.0
C486 C 0.02998 0.49392 0.9113 0.0
C487 C 0.03585 0.49816 0.94173 0.0
C488 C 0.04282 0.49757 0.92539 0.0
C489 C 0.98079 0.46364 0.00669 0.0
C490 C 1.00817 0.49527 0.96132 0.0
C491 C 0.10195 0.52966 0.97214 0.0
C492 C 0.09601 0.50939 0.97507 0.0
C493 C 0.02662 0.485 0.02501 0.0
C494 C 1.00813 0.51006 0.0815 0.0
C495 C 0.02161 0.51518 0.0955 0.0
C496 C 0.01424 0.51384 0.11221 0.0
C497 C 0.99324 0.50737 0.11472 0.0
C498 C 0.98731 0.50394 0.08427 0.0
C499 C 0.97991 0.50255 0.1008 0.0
C500 C 0.04178 0.53848 0.01973 0.0
C501 C 0.01598 0.51094 0.06416 0.0
H502 H 0.98767 0.48928 0.93179 0.0
H503 H 0.03572 0.49353 0.89873 0.0
H504 H 0.04589 0.50066 0.95242 0.0
H505 H 0.05819 0.49982 0.92366 0.0
H506 H 0.03772 0.5199 0.09341 0.0
H507 H 0.98721 0.50633 0.12744 0.0
H508 H 0.97678 0.50028 0.07373 0.0
H509 H 0.9638 0.49777 0.10281 0.0
Tb510 Tb 0.52512 0.51062 0.03172 0.0
C511 C 0.48023 0.53285 0.97821 0.0
C512 C 0.44432 0.50726 0.98092 0.0
C513 C 0.45348 0.54107 0.97174 0.0
C514 C 0.46547 0.51347 0.9824 0.0
C515 C 0.47449 0.54681 0.97246 0.0
C516 C 0.43841 0.52131 0.97598 0.0
C517 C 0.51054 0.57036 0.96728 0.0
N518 N 0.50028 0.53768 0.979 0.0
C519 C 0.51542 0.55591 0.97298 0.0
C520 C 0.49001 0.56589 0.96721 0.0
Tb521 Tb 0.50692 0.51344 0.98937 0.0
N522 N 0.47188 0.5004 0.98701 0.0
C523 C 0.45777 0.48035 0.98905 0.0
C524 C 0.42982 0.48701 0.98399 0.0
C525 C 0.43659 0.47344 0.98781 0.0
H526 H 0.53135 0.55957 0.97311 0.0
H527 H 0.42552 0.45766 0.98989 0.0
H528 H 0.42224 0.5169 0.97498 0.0
H529 H 0.52263 0.58495 0.96296 0.0
H530 H 0.46262 0.46962 0.99214 0.0
H531 H 0.60654 0.5665 0.0317 0.0
H532 H 0.41342 0.48162 0.98305 0.0
H533 H 0.5006 0.46432 0.04763 0.0
H534 H 0.56947 0.55453 0.02925 0.0
H535 H 0.5093 0.43894 0.05779 0.0
H536 H 0.44873 0.55163 0.96753 0.0
H537 H 0.61861 0.54252 0.03855 0.0
H538 H 0.60976 0.50722 0.04652 0.0
H539 H 0.48626 0.57709 0.96274 0.0
H540 H 0.58324 0.47242 0.05374 0.0
N541 N 0.56016 0.52372 0.03429 0.0
C542 C 0.57429 0.54378 0.03235 0.0
C543 C 0.60222 0.53712 0.03752 0.0
C544 C 0.5877 0.51685 0.04048 0.0
C545 C 0.59545 0.5507 0.03371 0.0
C546 C 0.56656 0.51063 0.03888 0.0
H547 H 0.54569 0.44688 0.05825 0.0
N548 N 0.53171 0.48631 0.04198 0.0
C549 C 0.52141 0.45356 0.05356 0.0
C550 C 0.55178 0.49119 0.04292 0.0
C551 C 0.51654 0.46802 0.04785 0.0
C552 C 0.54196 0.45808 0.05377 0.0
C553 C 0.5575 0.47722 0.04866 0.0
O554 O 0.50943 0.50434 0.05511 0.0
O555 O 0.50051 0.50911 0.01622 0.0
O556 O 0.50969 0.53894 0.00412 0.0
O557 O 0.53338 0.54188 0.02499 0.0
O558 O 0.49207 0.48946 0.0359 0.0
O559 O 0.5364 0.5333 0.05065 0.0
O560 O 0.52198 0.51957 0.96567 0.0
O561 O 0.53156 0.51517 0.0049 0.0
O562 O 0.5228 0.48545 0.01682 0.0
O563 O 0.49883 0.48221 0.99613 0.0
O564 O 0.53998 0.53442 0.98495 0.0
O565 O 0.49574 0.49033 0.97087 0.0
C566 C 0.48493 0.49554 0.0238 0.0
C567 C 0.52989 0.52129 0.07902 0.0
C568 C 0.52653 0.52335 0.10985 0.0
C569 C 0.52026 0.52444 0.09312 0.0
C570 C 0.54262 0.51909 0.11222 0.0
C571 C 0.54599 0.51721 0.08169 0.0
C572 C 0.55228 0.51609 0.09821 0.0
C573 C 0.52339 0.54923 0.01623 0.0
C574 C 0.52254 0.52178 0.0617 0.0
C575 C 0.5785 0.48299 0.04952 0.0
C576 C 0.5936 0.50279 0.04542 0.0
C577 C 0.54713 0.52861 0.99723 0.0
C578 C 0.50093 0.50149 0.94229 0.0
C579 C 0.51025 0.49819 0.92804 0.0
C580 C 0.50299 0.4982 0.91144 0.0
C581 C 0.48623 0.50152 0.90937 0.0
C582 C 0.4842 0.50469 0.93991 0.0
C583 C 0.47692 0.50471 0.92352 0.0
C584 C 0.50916 0.47508 0.0047 0.0
C585 C 0.50906 0.50182 0.95947 0.0
H586 H 0.5077 0.52744 0.09105 0.0
H587 H 0.54799 0.51841 0.1249 0.0
H588 H 0.55368 0.51487 0.07105 0.0
H589 H 0.56473 0.51295 0.10017 0.0
H590 H 0.52331 0.4959 0.92989 0.0
H591 H 0.4801 0.50136 0.89681 0.0
H592 H 0.47674 0.50713 0.95066 0.0
H593 H 0.46397 0.50716 0.92179 0.0
Tb594 Tb 0.16779 0.32973 0.32509 0.0
C595 C 0.2072 0.39065 0.38276 0.0
C596 C 0.24274 0.39807 0.3828 0.0
C597 C 0.23466 0.42368 0.3921 0.0
C598 C 0.22162 0.38471 0.37932 0.0
C599 C 0.21356 0.41001 0.3896 0.0
C600 C 0.2492 0.4177 0.38876 0.0
C601 C 0.17766 0.40018 0.39295 0.0
N602 N 0.18685 0.37699 0.3805 0.0
C603 C 0.17206 0.38113 0.38629 0.0
C604 C 0.19849 0.4148 0.39435 0.0
Tb605 Tb 0.17986 0.34675 0.36877 0.0
N606 N 0.21487 0.36551 0.37366 0.0
C607 C 0.22845 0.35842 0.37262 0.0
C608 C 0.25669 0.3911 0.38081 0.0
C609 C 0.24947 0.37116 0.37588 0.0
H610 H 0.1559 0.37007 0.38518 0.0
H611 H 0.26011 0.36551 0.37465 0.0
H612 H 0.26537 0.42819 0.39131 0.0
H613 H 0.1659 0.40358 0.397 0.0
H614 H 0.22366 0.34314 0.36895 0.0
H615 H 0.08728 0.30814 0.31865 0.0
H616 H 0.27297 0.40081 0.38355 0.0
H617 H 0.19295 0.30704 0.31126 0.0
H618 H 0.12423 0.3317 0.32352 0.0
H619 H 0.1845 0.27324 0.30074 0.0
H620 H 0.23983 0.43868 0.39716 0.0
H621 H 0.07501 0.27228 0.31172 0.0
H622 H 0.08375 0.24518 0.30491 0.0
H623 H 0.20277 0.42952 0.39962 0.0
H624 H 0.1103 0.23567 0.29985 0.0
N625 N 0.13309 0.3094 0.31991 0.0
C626 C 0.11927 0.31616 0.32044 0.0
C627 C 0.09133 0.28257 0.31385 0.0
C628 C 0.10569 0.27605 0.31221 0.0
C629 C 0.0982 0.30281 0.31771 0.0
C630 C 0.12671 0.29005 0.31525 0.0
H631 H 0.14801 0.24618 0.29792 0.0
N632 N 0.16155 0.29906 0.31475 0.0
C633 C 0.17225 0.27623 0.30408 0.0
C634 C 0.1415 0.28467 0.31251 0.0
C635 C 0.17698 0.29538 0.31 0.0
C636 C 0.15163 0.26097 0.30255 0.0
C637 C 0.13593 0.26519 0.30653 0.0
O638 O 0.18581 0.33864 0.30282 0.0
O639 O 0.19043 0.35105 0.34282 0.0
O640 O 0.17723 0.37032 0.35519 0.0
O641 O 0.16057 0.35404 0.32981 0.0
O642 O 0.2011 0.34047 0.32409 0.0
O643 O 0.15932 0.34249 0.30507 0.0
O644 O 0.16264 0.32044 0.38351 0.0
O645 O 0.15683 0.32671 0.35092 0.0
O646 O 0.16747 0.3057 0.34032 0.0
O647 O 0.18949 0.32455 0.36253 0.0
O648 O 0.14766 0.33987 0.36879 0.0
O649 O 0.18494 0.3479 0.39537 0.0
C650 C 0.20681 0.3529 0.3367 0.0
C651 C 0.16824 0.33722 0.27737 0.0
C652 C 0.17202 0.34439 0.24678 0.0
C653 C 0.17685 0.35104 0.26385 0.0
C654 C 0.15834 0.32378 0.24349 0.0
C655 C 0.1545 0.31681 0.27372 0.0
C656 C 0.14961 0.31015 0.25688 0.0
C657 C 0.16758 0.36941 0.34074 0.0
C658 C 0.17404 0.34422 0.29513 0.0
C659 C 0.11495 0.25082 0.30425 0.0
C660 C 0.09984 0.25623 0.30712 0.0
C661 C 0.14111 0.32687 0.3565 0.0
C662 C 0.15597 0.32599 0.41186 0.0
C663 C 0.15745 0.31744 0.42733 0.0
C664 C 0.14383 0.31447 0.44087 0.0
C665 C 0.12854 0.31985 0.43856 0.0
C666 C 0.14063 0.33132 0.41001 0.0
C667 C 0.12698 0.32818 0.42324 0.0
C668 C 0.17961 0.30769 0.35338 0.0
C669 C 0.17056 0.3294 0.39789 0.0
H670 H 0.18751 0.36684 0.26661 0.0
H671 H 0.15413 0.31824 0.23053 0.0
H672 H 0.14755 0.30601 0.28383 0.0
H673 H 0.13898 0.29435 0.2542 0.0
H674 H 0.16936 0.31343 0.4289 0.0
H675 H 0.11761 0.31743 0.44857 0.0
H676 H 0.13907 0.33793 0.39843 0.0
H677 H 0.11513 0.33224 0.42162 0.0
Tb678 Tb 0.68793 0.83569 0.32472 0.0
C679 C 0.62124 0.81244 0.3787 0.0
C680 C 0.61096 0.83772 0.37633 0.0
C681 C 0.58613 0.80379 0.38563 0.0
C682 C 0.62593 0.83176 0.37459 0.0
C683 C 0.60146 0.79832 0.38468 0.0
C684 C 0.59087 0.82348 0.38144 0.0
C685 C 0.6141 0.77521 0.38973 0.0
N686 N 0.63655 0.80787 0.37773 0.0
C687 C 0.63351 0.7898 0.38379 0.0
C688 C 0.59792 0.77938 0.38997 0.0
Tb689 Tb 0.6676 0.83243 0.36718 0.0
N690 N 0.64556 0.84505 0.36988 0.0
C691 C 0.65162 0.86505 0.36796 0.0
C692 C 0.61681 0.85792 0.37339 0.0
C693 C 0.63732 0.8717 0.36945 0.0
H694 H 0.64587 0.78638 0.38355 0.0
H695 H 0.64212 0.88745 0.36746 0.0
H696 H 0.57908 0.82769 0.38264 0.0
H697 H 0.61163 0.76075 0.39411 0.0
H698 H 0.66733 0.87594 0.36479 0.0
H699 H 0.7098 0.77808 0.32256 0.0
H700 H 0.60578 0.86311 0.37454 0.0
H701 H 0.71136 0.88227 0.30954 0.0
H702 H 0.68636 0.79129 0.32728 0.0
H703 H 0.74584 0.90704 0.29875 0.0
H704 H 0.57075 0.7931 0.39001 0.0
H705 H 0.74576 0.80095 0.31368 0.0
H706 H 0.77352 0.83605 0.30585 0.0
H707 H 0.58293 0.76808 0.39464 0.0
H708 H 0.78354 0.87136 0.29977 0.0
N709 N 0.70888 0.82188 0.3218 0.0
C710 C 0.70201 0.80168 0.32359 0.0
C711 C 0.73562 0.80701 0.31601 0.0
C712 C 0.74247 0.82755 0.31374 0.0
C713 C 0.7153 0.79403 0.32092 0.0
C714 C 0.7285 0.83454 0.31666 0.0
H715 H 0.77323 0.89795 0.29689 0.0
N716 N 0.71941 0.85966 0.31449 0.0
C717 C 0.74275 0.89225 0.30277 0.0
C718 C 0.73401 0.85421 0.31295 0.0
C719 C 0.72322 0.87816 0.30885 0.0
C720 C 0.75819 0.88709 0.3018 0.0
C721 C 0.75379 0.86772 0.30657 0.0
O722 O 0.67967 0.84283 0.30115 0.0
O723 O 0.66504 0.83698 0.34043 0.0
O724 O 0.64392 0.80689 0.35262 0.0
O725 O 0.66388 0.80435 0.331 0.0
O726 O 0.67642 0.85688 0.32091 0.0
O727 O 0.67491 0.81304 0.30587 0.0
O728 O 0.67709 0.82649 0.39069 0.0
O729 O 0.69046 0.83116 0.35139 0.0
O730 O 0.71154 0.86091 0.33962 0.0
O731 O 0.69114 0.86386 0.36058 0.0
O732 O 0.67967 0.81163 0.37108 0.0
O733 O 0.67968 0.8554 0.38583 0.0
C734 C 0.66319 0.85061 0.33304 0.0
C735 C 0.68149 0.82475 0.27749 0.0
C736 C 0.67539 0.82053 0.24674 0.0
C737 C 0.66848 0.82099 0.26334 0.0
C738 C 0.69562 0.82413 0.24455 0.0
C739 C 0.70151 0.82811 0.27499 0.0
C740 C 0.70855 0.82788 0.2586 0.0
C741 C 0.64662 0.79684 0.34006 0.0
C742 C 0.67386 0.82506 0.29468 0.0
C743 C 0.7682 0.86119 0.30455 0.0
C744 C 0.7625 0.84109 0.30803 0.0
C745 C 0.69264 0.81773 0.35876 0.0
C746 C 0.67407 0.84392 0.41429 0.0
C747 C 0.68756 0.84927 0.4283 0.0
C748 C 0.6804 0.84873 0.44502 0.0
C749 C 0.65944 0.84268 0.44738 0.0
C750 C 0.65336 0.83823 0.41697 0.0
C751 C 0.6461 0.83758 0.43343 0.0
C752 C 0.70861 0.87122 0.35184 0.0
C753 C 0.68183 0.84405 0.39706 0.0
H754 H 0.65289 0.81807 0.26532 0.0
H755 H 0.70153 0.82419 0.23195 0.0
H756 H 0.71168 0.83084 0.28564 0.0
H757 H 0.72407 0.83058 0.25679 0.0
H758 H 0.70365 0.85402 0.42611 0.0
H759 H 0.65323 0.84162 0.46003 0.0
H760 H 0.64279 0.83426 0.4064 0.0
H761 H 0.63003 0.83299 0.4354 0.0
Tb762 Tb 0.19168 0.84243 0.36777 0.0
C763 C 0.14636 0.86226 0.313 0.0
C764 C 0.11064 0.83624 0.31591 0.0
C765 C 0.11914 0.86958 0.30588 0.0
C766 C 0.13187 0.84289 0.3175 0.0
C767 C 0.14024 0.87573 0.30672 0.0
C768 C 0.10434 0.84985 0.3105 0.0
C769 C 0.17613 0.89954 0.30117 0.0
N770 N 0.16653 0.86749 0.3139 0.0
C771 C 0.1814 0.88557 0.30743 0.0
C772 C 0.15548 0.89471 0.30102 0.0
Tb773 Tb 0.17377 0.84398 0.32502 0.0
N774 N 0.13865 0.83023 0.32253 0.0
C775 C 0.12484 0.81017 0.32491 0.0
C776 C 0.09644 0.816 0.31933 0.0
C777 C 0.10359 0.80284 0.32358 0.0
H778 H 0.19741 0.8895 0.3076 0.0
H779 H 0.09275 0.78706 0.32594 0.0
H780 H 0.0881 0.84511 0.3094 0.0
H781 H 0.18801 0.91402 0.29647 0.0
H782 H 0.13 0.79975 0.32834 0.0
H783 H 0.27276 0.89933 0.36731 0.0
H784 H 0.07998 0.81029 0.31832 0.0
H785 H 0.16789 0.7968 0.38491 0.0
H786 H 0.23557 0.88671 0.36477 0.0
H787 H 0.17719 0.77227 0.39621 0.0
H788 H 0.11409 0.87977 0.30127 0.0
H789 H 0.28545 0.87602 0.37488 0.0
H790 H 0.27723 0.84119 0.38385 0.0
H791 H 0.15144 0.90552 0.2961 0.0
H792 H 0.25115 0.80655 0.39194 0.0
N793 N 0.2268 0.85616 0.37045 0.0
C794 C 0.24065 0.87624 0.36819 0.0
C795 C 0.269 0.87033 0.37382 0.0
C796 C 0.25475 0.85009 0.37718 0.0
C797 C 0.26189 0.88354 0.36959 0.0
C798 C 0.23353 0.84347 0.37549 0.0
H799 H 0.21376 0.78081 0.39693 0.0
N800 N 0.19885 0.8189 0.37895 0.0
C801 C 0.18911 0.78679 0.39161 0.0
C802 C 0.21901 0.82413 0.38 0.0
C803 C 0.1839 0.80076 0.38525 0.0
C804 C 0.20976 0.79164 0.39196 0.0
C805 C 0.22506 0.81064 0.38634 0.0
O806 O 0.17629 0.83644 0.39132 0.0
O807 O 0.16705 0.84011 0.35184 0.0
O808 O 0.17606 0.86977 0.33901 0.0
O809 O 0.19941 0.87337 0.36046 0.0
O810 O 0.15867 0.82101 0.37188 0.0
O811 O 0.20217 0.86583 0.38598 0.0
O812 O 0.18951 0.84975 0.30168 0.0
O813 O 0.19841 0.84636 0.34096 0.0
O814 O 0.18991 0.81702 0.3536 0.0
O815 O 0.16641 0.81305 0.33218 0.0
O816 O 0.20675 0.86541 0.32085 0.0
O817 O 0.16267 0.82084 0.30651 0.0
C818 C 0.15148 0.82662 0.35948 0.0
C819 C 0.1969 0.85517 0.41469 0.0
C820 C 0.19495 0.85956 0.44542 0.0
C821 C 0.18739 0.85861 0.42874 0.0
C822 C 0.21201 0.85673 0.44775 0.0
C823 C 0.21395 0.85255 0.41736 0.0
C824 C 0.2214 0.85326 0.43381 0.0
C825 C 0.18936 0.88034 0.35128 0.0
C826 C 0.18885 0.85437 0.39738 0.0
C827 C 0.24615 0.81676 0.38728 0.0
C828 C 0.26099 0.83647 0.38267 0.0
C829 C 0.21395 0.8599 0.33331 0.0
C830 C 0.16902 0.83215 0.27795 0.0
C831 C 0.17849 0.82855 0.26397 0.0
C832 C 0.17234 0.8296 0.2472 0.0
C833 C 0.1565 0.83415 0.24462 0.0
C834 C 0.15306 0.83639 0.27509 0.0
C835 C 0.14686 0.8374 0.2585 0.0
C836 C 0.17685 0.80638 0.34121 0.0
C837 C 0.17647 0.83213 0.29534 0.0
H838 H 0.17436 0.86088 0.42665 0.0
H839 H 0.21802 0.85703 0.4604 0.0
H840 H 0.22155 0.85001 0.40678 0.0
H841 H 0.23452 0.85113 0.43577 0.0
H842 H 0.1909 0.82534 0.26613 0.0
H843 H 0.15141 0.83495 0.23185 0.0
H844 H 0.14543 0.83898 0.28562 0.0
H845 H 0.13457 0.84075 0.2564 0.0
Tb846 Tb 0.8308 0.66286 0.65822 0.0
C847 C 0.87047 0.72554 0.71574 0.0
C848 C 0.90654 0.73517 0.71545 0.0
C849 C 0.89638 0.75919 0.72511 0.0
C850 C 0.88566 0.72095 0.71215 0.0
C851 C 0.87554 0.74455 0.72261 0.0
C852 C 0.91187 0.7545 0.72154 0.0
C853 C 0.83906 0.73243 0.72552 0.0
N854 N 0.85058 0.71085 0.71341 0.0
C855 C 0.83484 0.71376 0.71878 0.0
C856 C 0.8595 0.74799 0.72726 0.0
Tb857 Tb 0.84511 0.68092 0.70184 0.0
N858 N 0.87979 0.70203 0.7065 0.0
C859 C 0.89409 0.69595 0.70498 0.0
C860 C 0.92132 0.72931 0.71308 0.0
C861 C 0.91504 0.70954 0.708 0.0
H862 H 0.81898 0.70189 0.71743 0.0
H863 H 0.92631 0.70473 0.7064 0.0
H864 H 0.92786 0.76572 0.72398 0.0
H865 H 0.82654 0.7348 0.72936 0.0
H866 H 0.88959 0.68076 0.70106 0.0
H867 H 0.75025 0.64165 0.65328 0.0
H868 H 0.93751 0.73974 0.7156 0.0
H869 H 0.85556 0.6405 0.64284 0.0
H870 H 0.78705 0.66466 0.65877 0.0
H871 H 0.84688 0.60707 0.63127 0.0
H872 H 0.90063 0.77397 0.73024 0.0
H873 H 0.73792 0.60636 0.64441 0.0
H874 H 0.74635 0.57931 0.63666 0.0
H875 H 0.86273 0.76239 0.73257 0.0
H876 H 0.77271 0.56977 0.6308 0.0
N877 N 0.79594 0.64259 0.65369 0.0
C878 C 0.78213 0.64933 0.655 0.0
C879 C 0.75418 0.61634 0.64701 0.0
C880 C 0.76843 0.60972 0.64498 0.0
C881 C 0.7611 0.63628 0.65191 0.0
C882 C 0.78945 0.62344 0.64831 0.0
H883 H 0.81033 0.58017 0.62845 0.0
N884 N 0.82425 0.63242 0.6471 0.0
C885 C 0.8347 0.60995 0.63514 0.0
C886 C 0.80416 0.61813 0.64493 0.0
C887 C 0.83956 0.62889 0.64166 0.0
C888 C 0.81405 0.59478 0.63362 0.0
C889 C 0.79846 0.59889 0.63823 0.0
O890 O 0.84831 0.67259 0.63569 0.0
O891 O 0.85403 0.68428 0.67543 0.0
O892 O 0.8439 0.70484 0.68759 0.0
O893 O 0.8227 0.68621 0.66476 0.0
O894 O 0.86399 0.67362 0.65611 0.0
O895 O 0.82181 0.6762 0.63906 0.0
O896 O 0.82823 0.67097 0.72469 0.0
O897 O 0.82195 0.65971 0.68455 0.0
O898 O 0.83175 0.63902 0.67269 0.0
O899 O 0.85365 0.65788 0.69508 0.0
O900 O 0.81181 0.66969 0.70413 0.0
O901 O 0.8544 0.66709 0.72027 0.0
C902 C 0.87014 0.68602 0.66877 0.0
C903 C 0.82993 0.67152 0.6109 0.0
C904 C 0.83391 0.67872 0.58032 0.0
C905 C 0.83934 0.68516 0.59739 0.0
C906 C 0.81884 0.65849 0.57705 0.0
C907 C 0.81483 0.65151 0.60727 0.0
C908 C 0.80936 0.64505 0.59044 0.0
C909 C 0.8318 0.70273 0.67445 0.0
C910 C 0.83626 0.67824 0.62864 0.0
C911 C 0.77746 0.58472 0.63578 0.0
C912 C 0.76245 0.59015 0.63912 0.0
C913 C 0.80576 0.65768 0.69123 0.0
C914 C 0.8473 0.67122 0.74885 0.0
C915 C 0.83878 0.6571 0.76217 0.0
C916 C 0.8456 0.66283 0.77915 0.0
C917 C 0.86088 0.68297 0.78253 0.0
C918 C 0.86257 0.69112 0.7526 0.0
C919 C 0.86927 0.69695 0.76934 0.0
C920 C 0.84412 0.64118 0.68564 0.0
C921 C 0.84032 0.66498 0.73113 0.0
H922 H 0.85106 0.70064 0.60014 0.0
H923 H 0.81413 0.65314 0.56411 0.0
H924 H 0.80726 0.64087 0.61739 0.0
H925 H 0.79768 0.62956 0.58778 0.0
H926 H 0.82712 0.64164 0.75925 0.0
H927 H 0.86621 0.68802 0.79542 0.0
H928 H 0.86938 0.70215 0.74263 0.0
H929 H 0.88101 0.71239 0.77211 0.0
Tb930 Tb 0.35655 0.16736 0.65936 0.0
C931 C 0.28816 0.14627 0.71158 0.0
C932 C 0.2787 0.17205 0.7083 0.0
C933 C 0.25308 0.13842 0.7176 0.0
C934 C 0.29337 0.16563 0.70712 0.0
C935 C 0.2681 0.13251 0.71723 0.0
C936 C 0.25838 0.15819 0.71314 0.0
C937 C 0.27981 0.10884 0.72314 0.0
N938 N 0.30319 0.1413 0.71121 0.0
C939 C 0.29953 0.12312 0.71754 0.0
C940 C 0.26394 0.11346 0.72279 0.0
Tb941 Tb 0.33478 0.16528 0.70111 0.0
N942 N 0.31319 0.17853 0.70261 0.0
C943 C 0.3197 0.19858 0.70031 0.0
C944 C 0.28507 0.19231 0.70506 0.0
C945 C 0.30573 0.20568 0.70128 0.0
H946 H 0.31166 0.11937 0.71775 0.0
H947 H 0.31092 0.22147 0.69904 0.0
H948 H 0.24681 0.16275 0.7139 0.0
H949 H 0.27687 0.0943 0.72771 0.0
H950 H 0.33554 0.20919 0.69727 0.0
H951 H 0.38121 0.11173 0.66134 0.0
H952 H 0.27431 0.19787 0.70583 0.0
H953 H 0.37931 0.21335 0.64285 0.0
H954 H 0.35624 0.12362 0.66296 0.0
H955 H 0.41398 0.23862 0.63282 0.0
H956 H 0.23749 0.12801 0.72174 0.0
H957 H 0.41781 0.13569 0.65481 0.0
H958 H 0.44501 0.17089 0.64665 0.0
H959 H 0.24871 0.10241 0.72721 0.0
H960 H 0.45394 0.2055 0.63873 0.0
N961 N 0.37838 0.15438 0.65776 0.0
C962 C 0.37207 0.13436 0.66 0.0
C963 C 0.40688 0.14106 0.65547 0.0
C964 C 0.41303 0.16126 0.6522 0.0
C965 C 0.38623 0.12749 0.65911 0.0
C966 C 0.39818 0.16745 0.65332 0.0
H967 H 0.44236 0.23081 0.63324 0.0
N968 N 0.38805 0.19158 0.6493 0.0
C969 C 0.41118 0.22411 0.63738 0.0
C970 C 0.40319 0.18676 0.64886 0.0
C971 C 0.39153 0.20972 0.64302 0.0
C972 C 0.42718 0.21967 0.63767 0.0
C973 C 0.42321 0.20068 0.64321 0.0
O974 O 0.34802 0.17319 0.63538 0.0
O975 O 0.33321 0.16905 0.67413 0.0
O976 O 0.31175 0.13942 0.68638 0.0
O977 O 0.33281 0.13614 0.66622 0.0
O978 O 0.34475 0.18812 0.6541 0.0
O979 O 0.3448 0.14415 0.64095 0.0
O980 O 0.34254 0.15949 0.72545 0.0
O981 O 0.35793 0.16331 0.68633 0.0
O982 O 0.37975 0.19288 0.67421 0.0
O983 O 0.35874 0.19644 0.69419 0.0
O984 O 0.34656 0.14455 0.70657 0.0
O985 O 0.34758 0.18902 0.719 0.0
C986 C 0.33135 0.18228 0.66608 0.0
C987 C 0.35155 0.15534 0.61239 0.0
C988 C 0.34694 0.15261 0.58146 0.0
C989 C 0.33941 0.15271 0.59788 0.0
C990 C 0.36692 0.15537 0.57983 0.0
C991 C 0.37137 0.15795 0.61048 0.0
C992 C 0.37901 0.15801 0.59426 0.0
C993 C 0.31511 0.12891 0.67462 0.0
C994 C 0.34328 0.1555 0.62933 0.0
C995 C 0.43839 0.19497 0.64286 0.0
C996 C 0.43331 0.17528 0.64737 0.0
C997 C 0.35978 0.15012 0.69447 0.0
C998 C 0.34055 0.17916 0.74778 0.0
C999 C 0.35345 0.18391 0.76212 0.0
C1000 C 0.34646 0.18556 0.77838 0.0
C1001 C 0.3263 0.18233 0.78002 0.0
C1002 C 0.32054 0.17604 0.74969 0.0
C1003 C 0.31347 0.17761 0.76575 0.0
C1004 C 0.37653 0.20345 0.68598 0.0
C1005 C 0.34836 0.17765 0.73099 0.0
H1006 H 0.32398 0.15041 0.59942 0.0
H1007 H 0.37329 0.15565 0.56739 0.0
H1008 H 0.38091 0.15988 0.62145 0.0
H1009 H 0.39435 0.16011 0.59288 0.0
H1010 H 0.36901 0.18657 0.76055 0.0
H1011 H 0.32033 0.18318 0.79237 0.0
H1012 H 0.31042 0.17247 0.73884 0.0
H1013 H 0.29797 0.17511 0.76714 0.0
Tb1014 Tb 0.85799 0.17455 0.70216 0.0
C1015 C 0.81982 0.19987 0.64636 0.0
C1016 C 0.78382 0.17361 0.64703 0.0
C1017 C 0.79301 0.20771 0.63881 0.0
C1018 C 0.80491 0.17998 0.6496 0.0
C1019 C 0.81402 0.21376 0.64044 0.0
C1020 C 0.77795 0.18769 0.64214 0.0
C1021 C 0.85014 0.23809 0.63662 0.0
N1022 N 0.84004 0.20532 0.64808 0.0
C1023 C 0.85518 0.22385 0.64254 0.0
C1024 C 0.8295 0.23315 0.63583 0.0
Tb1025 Tb 0.84603 0.1809 0.65892 0.0
N1026 N 0.81109 0.16666 0.65432 0.0
C1027 C 0.79696 0.14641 0.65484 0.0
C1028 C 0.76927 0.15316 0.64895 0.0
C1029 C 0.77592 0.13947 0.6525 0.0
H1030 H 0.87122 0.22808 0.64341 0.0
H1031 H 0.76481 0.12351 0.65351 0.0
H1032 H 0.76181 0.1831 0.64038 0.0
H1033 H 0.8622 0.25292 0.63276 0.0
H1034 H 0.80136 0.1353 0.65754 0.0
H1035 H 0.93799 0.2322 0.71069 0.0
H1036 H 0.75294 0.1477 0.64717 0.0
H1037 H 0.83306 0.12664 0.71414 0.0
H1038 H 0.9014 0.21928 0.70424 0.0
H1039 H 0.8417 0.10096 0.72371 0.0
H1040 H 0.78827 0.21824 0.63452 0.0
H1041 H 0.95029 0.20861 0.71823 0.0
H1042 H 0.94205 0.17284 0.72333 0.0
H1043 H 0.82565 0.24423 0.63123 0.0
H1044 H 0.91581 0.13695 0.72665 0.0
N1045 N 0.89268 0.18829 0.70741 0.0
C1046 C 0.90634 0.20863 0.70735 0.0
C1047 C 0.93416 0.20273 0.71511 0.0
C1048 C 0.92005 0.182 0.71569 0.0
C1049 C 0.92724 0.2161 0.71099 0.0
C1050 C 0.89915 0.17522 0.7119 0.0
H1051 H 0.87825 0.11002 0.72708 0.0
N1052 N 0.86443 0.14981 0.7115 0.0
C1053 C 0.85389 0.11616 0.72096 0.0
C1054 C 0.88448 0.1552 0.71395 0.0
C1055 C 0.84906 0.13075 0.71559 0.0
C1056 C 0.87455 0.1213 0.72277 0.0
C1057 C 0.89015 0.14115 0.71959 0.0
O1058 O 0.84059 0.16468 0.72473 0.0
O1059 O 0.83536 0.1745 0.6849 0.0
O1060 O 0.84938 0.20705 0.67307 0.0
O1061 O 0.86561 0.20613 0.69831 0.0
O1062 O 0.82463 0.15297 0.70315 0.0
O1063 O 0.8657 0.19525 0.72241 0.0
O1064 O 0.8624 0.17098 0.64347 0.0
O1065 O 0.86893 0.18239 0.6764 0.0
O1066 O 0.85799 0.15119 0.68608 0.0
O1067 O 0.83547 0.14897 0.66458 0.0
O1068 O 0.87873 0.20471 0.65887 0.0
O1069 O 0.84032 0.17742 0.63238 0.0
C1070 C 0.81894 0.16027 0.69094 0.0
C1071 C 0.85842 0.18111 0.74998 0.0
C1072 C 0.85604 0.18534 0.78066 0.0
C1073 C 0.84952 0.18567 0.76384 0.0
C1074 C 0.87139 0.18011 0.78337 0.0
C1075 C 0.87376 0.17606 0.75303 0.0
C1076 C 0.88014 0.1755 0.76963 0.0
C1077 C 0.85901 0.21515 0.68762 0.0
C1078 C 0.85172 0.18194 0.73247 0.0
C1079 C 0.91109 0.14754 0.72245 0.0
C1080 C 0.92602 0.16797 0.72056 0.0
C1081 C 0.88499 0.19764 0.67094 0.0
C1082 C 0.86882 0.1835 0.61536 0.0
C1083 C 0.86738 0.17352 0.59984 0.0
C1084 C 0.88098 0.18392 0.58633 0.0
C1085 C 0.89615 0.20431 0.5887 0.0
C1086 C 0.88408 0.20386 0.61728 0.0
C1087 C 0.89765 0.21415 0.60406 0.0
C1088 C 0.84532 0.14144 0.67324 0.0
C1089 C 0.85435 0.17261 0.62935 0.0
H1090 H 0.83784 0.18984 0.76148 0.0
H1091 H 0.87652 0.17941 0.79614 0.0
H1092 H 0.88086 0.17262 0.74264 0.0
H1093 H 0.89195 0.17151 0.77185 0.0
H1094 H 0.85556 0.15782 0.59823 0.0
H1095 H 0.90708 0.21262 0.57871 0.0
H1096 H 0.88566 0.21193 0.62895 0.0
H1097 H 0.90942 0.22983 0.60573 0.0
H1098 H 0.29038 0.83112 0.03969 0.0
H1099 H 0.32129 0.86136 0.0293 0.0
H1100 H 0.35201 0.86624 0.07724 0.0
H1101 H 0.3208 0.83683 0.08786 0.0
H1102 H 0.35903 0.90115 0.06895 0.0
H1103 H 0.37377 0.86834 0.01133 0.0
H1104 H 0.3488 0.86623 0.01085 0.0
H1105 H 0.35467 0.85298 0.02687 0.0
C1106 C 0.30381 0.8387 0.04792 0.0
C1107 C 0.30326 0.83175 0.06457 0.0
C1108 C 0.32155 0.85586 0.04194 0.0
C1109 C 0.33926 0.86598 0.05232 0.0
C1110 C 0.33864 0.8588 0.06892 0.0
H1111 H 0.46443 0.95301 0.02303 0.0
H1112 H 0.43119 0.92265 0.02818 0.0
C1113 C 0.32081 0.842 0.07501 0.0
C1114 C 0.35817 0.88456 0.04642 0.0
H1115 H 0.39399 0.90404 0.01457 0.0
C1116 C 0.36667 0.90169 0.05708 0.0
C1117 C 0.36839 0.88534 0.031 0.0
C1118 C 0.36107 0.86718 0.01944 0.0
C1119 C 0.38508 0.91935 0.05296 0.0
C1120 C 0.39489 0.92042 0.03725 0.0
C1121 C 0.38636 0.90337 0.02649 0.0
C1122 C 0.41453 0.93873 0.03224 0.0
C1123 C 0.3942 0.93634 0.0659 0.0
C1124 C 0.41621 0.9579 0.03221 0.0
C1125 C 0.43531 0.97528 0.02955 0.0
C1126 C 0.45289 0.9738 0.02605 0.0
C1127 C 0.45106 0.9546 0.02526 0.0
C1128 C 0.43204 0.93722 0.02828 0.0
H1129 H 0.38845 0.93083 0.07895 0.0
H1130 H 0.41131 0.94393 0.06614 0.0
H1131 H 0.38963 0.94767 0.06259 0.0
H1132 H 0.40286 0.95948 0.0347 0.0
H1133 H 0.43639 0.98995 0.03032 0.0
H1134 H 0.20694 0.50652 0.05873 0.0
H1135 H 0.17704 0.50913 0.04947 0.0
H1136 H 0.13734 0.44541 0.05826 0.0
H1137 H 0.1671 0.44272 0.06764 0.0
H1138 H 0.14886 0.49121 0.0238 0.0
H1139 H 0.10885 0.46898 0.08592 0.0
H1140 H 0.13536 0.47522 0.08339 0.0
H1141 H 0.11465 0.45054 0.0775 0.0
C1142 C 0.19187 0.49301 0.05854 0.0
C1143 C 0.18944 0.47443 0.06407 0.0
C1144 C 0.17475 0.49455 0.05331 0.0
C1145 C 0.1548 0.47758 0.05352 0.0
C1146 C 0.15244 0.45887 0.05846 0.0
H1147 H 0.03029 0.45232 0.03188 0.0
H1148 H 0.06187 0.45099 0.03732 0.0
C1149 C 0.16951 0.45734 0.06376 0.0
C1150 C 0.13649 0.47939 0.04854 0.0
H1151 H 0.08942 0.47051 0.06253 0.0
C1152 C 0.13592 0.48681 0.03231 0.0
C1153 C 0.11959 0.47376 0.05965 0.0
C1154 C 0.11967 0.46687 0.07764 0.0
C1155 C 0.11872 0.48815 0.0267 0.0
C1156 C 0.10161 0.48209 0.03767 0.0
C1157 C 0.10236 0.47496 0.054 0.0
C1158 C 0.08265 0.48275 0.03256 0.0
C1159 C 0.11872 0.49531 0.00884 0.0
C1160 C 0.08364 0.50099 0.02791 0.0
C1161 C 0.06554 0.5017 0.02464 0.0
C1162 C 0.04605 0.48418 0.02593 0.0
C1163 C 0.0451 0.46597 0.03049 0.0
C1164 C 0.06315 0.46523 0.03365 0.0
H1165 H 0.1306 0.49477 1.00075 0.0
H1166 H 0.10341 0.48588 1.00281 0.0
H1167 H 0.12201 0.51116 0.00925 0.0
H1168 H 0.09836 0.51487 0.02746 0.0
H1169 H 0.06684 0.51612 0.02179 0.0
H1170 H 0.50726 0.70074 0.05952 0.0
H1171 H 0.50757 0.67111 0.04803 0.0
H1172 H 0.57306 0.69976 0.05731 0.0
H1173 H 0.57311 0.72983 0.06837 0.0
H1174 H 0.54011 0.67184 0.01967 0.0
H1175 H 0.53807 0.64124 0.08453 0.0
H1176 H 0.52718 0.65726 0.08041 0.0
H1177 H 0.55462 0.66785 0.08055 0.0
C1178 C 0.52183 0.70098 0.0588 0.0
C1179 C 0.54017 0.7177 0.0649 0.0
C1180 C 0.52194 0.68397 0.05232 0.0
C1181 C 0.54031 0.68331 0.05191 0.0
C1182 C 0.55872 0.70004 0.05761 0.0
H1183 H 0.5553 0.57853 0.03504 0.0
H1184 H 0.56115 0.61209 0.04255 0.0
C1185 C 0.55868 0.71712 0.06402 0.0
C1186 C 0.53998 0.66472 0.04619 0.0
H1187 H 0.53706 0.62151 0.06113 0.0
C1188 C 0.53955 0.66084 0.02868 0.0
C1189 C 0.53942 0.65059 0.05803 0.0
C1190 C 0.53979 0.65425 0.07697 0.0
C1191 C 0.53841 0.64297 0.02266 0.0
C1192 C 0.53714 0.62845 0.03452 0.0
C1193 C 0.538 0.63261 0.05205 0.0
C1194 C 0.53422 0.60855 0.0291 0.0
C1195 C 0.53883 0.63995 0.00368 0.0
C1196 C 0.51706 0.59534 0.01914 0.0
C1197 C 0.51375 0.57622 0.01474 0.0
C1198 C 0.52739 0.56979 0.0204 0.0
C1199 C 0.54452 0.583 0.03044 0.0
C1200 C 0.5479 0.6022 0.03474 0.0
H1201 H 0.54639 0.65461 0.99685 0.0
H1202 H 0.5471 0.63166 1.00057 0.0
H1203 H 0.52277 0.63102 0.99882 0.0
H1204 H 0.50595 0.59964 0.01507 0.0
H1205 H 0.50019 0.5663 0.00726 0.0
H1206 H 0.84781 0.27903 0.96204 0.0
H1207 H 0.87737 0.31063 0.97234 0.0
H1208 H 0.83962 0.3387 0.97262 0.0
H1209 H 0.80995 0.30698 0.96293 0.0
H1210 H 0.89753 0.34617 0.95832 0.0
H1211 H 0.86506 0.35523 0.01869 0.0
H1212 H 0.85257 0.33216 0.00637 0.0
H1213 H 0.84906 0.35314 1.00087 0.0
C1214 C 0.84581 0.29192 0.96448 0.0
C1215 C 0.82653 0.29049 0.96185 0.0
C1216 C 0.8627 0.30997 0.97036 0.0
C1217 C 0.86071 0.32703 0.97359 0.0
C1218 C 0.84147 0.32564 0.97079 0.0
H1219 H 0.96282 0.4512 0.97555 0.0
H1220 H 0.93408 0.41791 0.96755 0.0
C1221 C 0.82451 0.30752 0.96517 0.0
C1222 C 0.87895 0.34649 0.97913 0.0
H1223 H 0.89533 0.38456 0.00857 0.0
C1224 C 0.89709 0.35447 0.96941 0.0
C1225 C 0.87861 0.35723 0.99376 0.0
C1226 C 0.86035 0.34888 0.00562 0.0
C1227 C 0.91464 0.37301 0.97366 0.0
C1228 C 0.91387 0.38431 0.98771 0.0
C1229 C 0.8959 0.37611 0.99766 0.0
C1230 C 0.93148 0.40458 0.99241 0.0
C1231 C 0.93393 0.38001 0.96322 0.0
C1232 C 0.93928 0.40852 0.00917 0.0
C1233 C 0.95539 0.42767 0.01381 0.0
C1234 C 0.96409 0.44326 1.0018 0.0
C1235 C 0.95648 0.43935 0.98501 0.0
C1236 C 0.94014 0.42028 0.98042 0.0
H1237 H 0.93425 0.36708 0.95699 0.0
H1238 H 0.9343 0.39018 0.953 0.0
H1239 H 0.94806 0.38835 0.97118 0.0
H1240 H 0.93295 0.39671 0.01868 0.0
H1241 H 0.96132 0.43012 0.02669 0.0
H1242 H 0.73113 0.57036 0.95545 0.0
H1243 H 0.69918 0.56893 0.96466 0.0
H1244 H 0.6751 0.50725 0.98056 0.0
H1245 H 0.70691 0.50851 0.97134 0.0
H1246 H 0.66014 0.54403 0.9526 0.0
H1247 H 0.66245 0.5312 0.02187 0.0
H1248 H 0.68471 0.53941 0.00836 0.0
H1249 H 0.66492 0.51323 0.00876 0.0
C1250 C 0.71908 0.5565 0.96096 0.0
C1251 C 0.72171 0.53957 0.96267 0.0
C1252 C 0.70082 0.55573 0.9663 0.0
C1253 C 0.68477 0.53808 0.97357 0.0
C1254 C 0.6874 0.52123 0.97543 0.0
H1255 H 0.55725 0.49877 1.00132 0.0
H1256 H 0.59085 0.50141 0.99637 0.0
C1257 C 0.70566 0.52198 0.97012 0.0
C1258 C 0.66483 0.53693 0.97816 0.0
H1259 H 0.63084 0.52702 0.01083 0.0
C1260 C 0.65384 0.54047 0.96537 0.0
C1261 C 0.65645 0.53213 0.9948 0.0
C1262 C 0.66781 0.52895 0.00929 0.0
C1263 C 0.63467 0.53904 0.96865 0.0
C1264 C 0.62632 0.53428 0.98528 0.0
C1265 C 0.63723 0.53068 0.99809 0.0
C1266 C 0.60629 0.53303 0.98952 0.0
C1267 C 0.62328 0.54215 0.95414 0.0
C1268 C 0.60383 0.55 0.98771 0.0
C1269 C 0.58467 0.54853 0.99065 0.0
C1270 C 0.56766 0.53019 0.99584 0.0
C1271 C 0.57017 0.51325 0.99785 0.0
C1272 C 0.58936 0.51472 0.9949 0.0
H1273 H 0.62901 0.54047 0.94154 0.0
H1274 H 0.60645 0.53126 0.95482 0.0
H1275 H 0.6256 0.55766 0.95495 0.0
H1276 H 0.6167 0.56436 0.9838 0.0
H1277 H 0.5831 0.56174 0.98881 0.0
H1278 H 0.47771 0.19387 0.98427 0.0
H1279 H 0.47988 0.16502 0.99536 0.0
H1280 H 0.48593 0.14805 0.94415 0.0
H1281 H 0.48422 0.17703 0.93299 0.0
H1282 H 0.45471 0.12258 0.98753 0.0
H1283 H 0.53698 0.15356 0.97008 0.0
H1284 H 0.52492 0.16895 0.97096 0.0
H1285 H 0.52058 0.15271 0.95293 0.0
C1286 C 0.47957 0.18402 0.97539 0.0
C1287 C 0.4809 0.18778 0.95776 0.0
C1288 C 0.48069 0.16751 0.98173 0.0
C1289 C 0.48333 0.1546 0.97058 0.0
C1290 C 0.48417 0.15802 0.95297 0.0
H1291 H 0.46968 0.03669 0.98656 0.0
H1292 H 0.46543 0.06529 0.97861 0.0
C1293 C 0.48298 0.17446 0.94661 0.0
C1294 C 0.48549 0.13768 0.97734 0.0
H1295 H 0.51894 0.1196 0.97958 0.0
C1296 C 0.46876 0.12192 0.98588 0.0
C1297 C 0.50395 0.13706 0.97535 0.0
C1298 C 0.52273 0.15404 0.96697 0.0
C1299 C 0.46983 0.10526 0.99211 0.0
C1300 C 0.48805 0.10431 0.98957 0.0
C1301 C 0.50494 0.12031 0.9814 0.0
C1302 C 0.48989 0.08675 0.99509 0.0
C1303 C 0.45156 0.08891 1.00149 0.0
C1304 C 0.50527 0.0894 0.0068 0.0
C1305 C 0.50785 0.07312 0.0113 0.0
C1306 C 0.49513 0.05387 0.00411 0.0
C1307 C 0.47968 0.05126 0.99242 0.0
C1308 C 0.47711 0.06757 0.98794 0.0
H1309 H 0.44116 0.09431 0.00621 0.0
H1310 H 0.44255 0.076 0.99269 0.0
H1311 H 0.45667 0.08332 0.01247 0.0
H1312 H 0.51541 0.10414 0.01235 0.0
H1313 H 0.5201 0.07577 0.02014 0.0
H1314 H 0.70323 0.18001 0.95043 0.0
H1315 H 0.67469 0.14538 0.95516 0.0
H1316 H 0.66969 0.16088 0.00712 0.0
H1317 H 0.69806 0.19532 1.0025 0.0
H1318 H 0.6665 0.12077 1.00139 0.0
H1319 H 0.61404 0.13562 0.96121 0.0
H1320 H 0.63836 0.14111 0.95214 0.0
H1321 H 0.63793 0.15577 0.96987 0.0
C1322 C 0.69629 0.17586 0.96294 0.0
C1323 C 0.70274 0.19037 0.97606 0.0
C1324 C 0.67993 0.15616 0.96559 0.0
C1325 C 0.66994 0.15066 0.98144 0.0
C1326 C 0.67713 0.16482 0.99479 0.0
H1327 H 0.54612 0.05949 0.00745 0.0
H1328 H 0.57926 0.09024 1.00347 0.0
C1329 C 0.69329 0.18449 0.99211 0.0
C1330 C 0.65115 0.13067 0.98396 0.0
H1331 H 0.5998 0.10374 0.97406 0.0
C1332 C 0.65192 0.11693 0.99535 0.0
C1333 C 0.63214 0.12585 0.9762 0.0
C1334 C 0.63036 0.14034 0.96424 0.0
C1335 C 0.63411 0.0985 0.99926 0.0
C1336 C 0.61502 0.09369 0.99153 0.0
C1337 C 0.61437 0.10742 0.98003 0.0
C1338 C 0.5954 0.07475 0.99536 0.0
C1339 C 0.63593 0.08464 0.0119 0.0
C1340 C 0.59334 0.0557 0.99227 0.0
C1341 C 0.57441 0.03804 0.99488 0.0
C1342 C 0.55717 0.03905 1.00064 0.0
C1343 C 0.55921 0.05811 0.00361 0.0
C1344 C 0.57816 0.07575 1.00114 0.0
H1345 H 0.64945 0.09302 0.0205 0.0
H1346 H 0.62185 0.0766 0.01976 0.0
H1347 H 0.63804 0.07318 0.00486 0.0
H1348 H 0.60621 0.05449 0.9874 0.0
H1349 H 0.57312 0.02355 0.99211 0.0
H1350 H 0.83773 0.54382 0.97449 0.0
H1351 H 0.87263 0.54846 0.97603 0.0
H1352 H 0.84672 0.48378 0.97614 0.0
H1353 H 0.81242 0.47912 0.97304 0.0
H1354 H 0.89072 0.54006 0.99941 0.0
H1355 H 0.8909 0.49619 0.94387 0.0
H1356 H 0.87073 0.50223 0.947 0.0
H1357 H 0.8692 0.48016 0.9568 0.0
C1358 C 0.83952 0.53061 0.97431 0.0
C1359 C 0.82207 0.51108 0.97382 0.0
C1360 C 0.85952 0.53326 0.97537 0.0
C1361 C 0.86255 0.51648 0.97596 0.0
C1362 C 0.84513 0.49706 0.97518 0.0
H1363 H 0.95628 0.48716 0.00418 0.0
H1364 H 0.92466 0.48841 0.9984 0.0
C1365 C 0.82531 0.49442 0.97378 0.0
C1366 C 0.88356 0.51896 0.97869 0.0
H1367 H 0.91448 0.49987 0.96674 0.0
C1368 C 0.89599 0.53147 0.99207 0.0
C1369 C 0.89085 0.50806 0.96903 0.0
C1370 C 0.87978 0.49613 0.95326 0.0
C1371 C 0.91479 0.53259 0.99655 0.0
C1372 C 0.92128 0.5206 0.98764 0.0
C1373 C 0.90926 0.50864 0.97391 0.0
C1374 C 0.9405 0.52024 0.9922 0.0
C1375 C 0.92735 0.54645 0.01095 0.0
C1376 C 0.95996 0.53768 0.9907 0.0
C1377 C 0.978 0.53698 0.99407 0.0
C1378 C 0.97701 0.5189 0.99918 0.0
C1379 C 0.95754 0.50143 1.0007 0.0
C1380 C 0.93947 0.50211 0.99726 0.0
H1381 H 0.91761 0.54942 0.01982 0.0
H1382 H 0.93547 0.54014 0.01825 0.0
H1383 H 0.93917 0.56112 0.00557 0.0
H1384 H 0.96122 0.55176 0.98654 0.0
H1385 H 0.99282 0.55058 0.99251 0.0
H1386 H 0.51679 0.31563 0.99982 0.0
H1387 H 0.50963 0.34333 0.00352 0.0
H1388 H 0.49013 0.33716 0.951 0.0
H1389 H 0.49738 0.30936 0.94718 0.0
H1390 H 0.52131 0.37702 0.96139 0.0
H1391 H 0.45481 0.34452 0.0056 0.0
H1392 H 0.47557 0.34053 0.01204 0.0
H1393 H 0.46158 0.32905 0.9927 0.0
C1394 C 0.51074 0.32002 0.98912 0.0
C1395 C 0.50771 0.31042 0.9732 0.0
C1396 C 0.50649 0.33571 0.99129 0.0
C1397 C 0.49915 0.34213 0.97759 0.0
C1398 C 0.49562 0.33228 0.96176 0.0
H1399 H 0.47781 0.44543 0.98554 0.0
H1400 H 0.47332 0.41236 0.97758 0.0
C1401 C 0.49969 0.3164 0.95962 0.0
C1402 C 0.49714 0.36036 0.97951 0.0
H1403 H 0.47412 0.38072 0.00373 0.0
C1404 C 0.51074 0.37774 0.97041 0.0
C1405 C 0.4833 0.36123 0.99126 0.0
C1406 C 0.46784 0.34279 1.00086 0.0
C1407 C 0.51158 0.39625 0.97341 0.0
C1408 C 0.49851 0.39734 0.9858 0.0
C1409 C 0.48419 0.37978 0.9943 0.0
C1410 C 0.50066 0.41692 0.99093 0.0
C1411 C 0.52686 0.41471 0.96372 0.0
C1412 C 0.51739 0.4302 1.00119 0.0
C1413 C 0.51996 0.44897 0.00581 0.0
C1414 C 0.50584 0.45483 1.00023 0.0
C1415 C 0.48896 0.44138 0.99003 0.0
C1416 C 0.48634 0.42249 0.9855 0.0
H1417 H 0.53331 0.41074 0.95259 0.0
H1418 H 0.51946 0.42336 0.95921 0.0
H1419 H 0.5398 0.42474 0.97234 0.0
H1420 H 0.52856 0.42608 0.00552 0.0
H1421 H 0.53325 0.459 0.01351 0.0
H1422 H 0.19344 0.72332 0.04496 0.0
H1423 H 0.15834 0.69453 0.04111 0.0
H1424 H 0.17818 0.65451 0.06123 0.0
H1425 H 0.21294 0.68308 0.06541 0.0
H1426 H 0.14774 0.6616 0.02031 0.0
H1427 H 0.1244 0.63593 0.0865 0.0
H1428 H 0.14586 0.66059 0.08155 0.0
H1429 H 0.14912 0.63878 0.08155 0.0
C1430 C 0.19015 0.70844 0.04893 0.0
C1431 C 0.20598 0.70546 0.05543 0.0
C1432 C 0.17014 0.69199 0.04664 0.0
C1433 C 0.16554 0.67236 0.05106 0.0
C1434 C 0.1812 0.66952 0.05803 0.0
H1435 H 0.08206 0.55639 0.00977 0.0
H1436 H 0.11023 0.5899 0.01722 0.0
C1437 C 0.20114 0.68586 0.06025 0.0
C1438 C 0.14503 0.65454 0.04707 0.0
H1439 H 0.10606 0.61131 0.06437 0.0
C1440 C 0.13845 0.65077 0.02999 0.0
C1441 C 0.13274 0.64049 0.0597 0.0
C1442 C 0.13827 0.64425 0.07837 0.0
C1443 C 0.12055 0.63286 0.0251 0.0
C1444 C 0.10908 0.61817 0.03758 0.0
C1445 C 0.115 0.62243 0.05477 0.0
C1446 C 0.09161 0.5979 0.03291 0.0
C1447 C 0.11424 0.62973 0.00656 0.0
C1448 C 0.07181 0.59094 0.03962 0.0
C1449 C 0.05554 0.57166 0.03535 0.0
C1450 C 0.05883 0.55896 0.02435 0.0
C1451 C 0.07879 0.5659 0.01792 0.0
C1452 C 0.09497 0.58512 0.02216 0.0
H1453 H 0.12049 0.64436 0.99977 0.0
H1454 H 0.12047 0.62087 1.00029 0.0
H1455 H 0.09717 0.62129 0.00512 0.0
H1456 H 0.06891 0.60047 0.04808 0.0
H1457 H 0.0404 0.56676 0.04061 0.0
H1458 H 0.33931 0.5251 0.06895 0.0
H1459 H 0.36845 0.51992 0.06312 0.0
H1460 H 0.32864 0.46678 0.03345 0.0
H1461 H 0.29925 0.47198 0.03927 0.0
H1462 H 0.37449 0.48624 0.06905 0.0
H1463 H 0.376 0.50404 1.00016 0.0
H1464 H 0.36206 0.51011 0.01564 0.0
H1465 H 0.3518 0.48452 0.00845 0.0
C1466 C 0.33669 0.51214 0.06137 0.0
C1467 C 0.31701 0.49898 0.05452 0.0
C1468 C 0.35337 0.50921 0.05803 0.0
C1469 C 0.35086 0.49316 0.04761 0.0
C1470 C 0.33102 0.47944 0.04132 0.0
H1471 H 0.44886 0.4629 0.03308 0.0
H1472 H 0.41554 0.46092 0.03826 0.0
C1473 C 0.3142 0.48228 0.0448 0.0
C1474 C 0.36926 0.49143 0.04305 0.0
H1475 H 0.40142 0.49685 0.01 0.0
C1476 C 0.38025 0.48834 0.05611 0.0
C1477 C 0.37699 0.49451 0.0262 0.0
C1478 C 0.36626 0.49863 0.01176 0.0
C1479 C 0.39874 0.48833 0.05282 0.0
C1480 C 0.40643 0.49134 0.03597 0.0
C1481 C 0.39543 0.49438 0.02288 0.0
C1482 C 0.42627 0.49213 0.03187 0.0
C1483 C 0.41027 0.48572 0.0675 0.0
C1484 C 0.44329 0.51021 0.02624 0.0
C1485 C 0.46232 0.51134 0.02328 0.0
C1486 C 0.46457 0.49429 0.0255 0.0
C1487 C 0.44748 0.47619 0.03103 0.0
C1488 C 0.42848 0.47507 0.03406 0.0
H1489 H 0.40463 0.48775 0.08003 0.0
H1490 H 0.40811 0.47026 0.06703 0.0
H1491 H 0.42706 0.49667 0.06661 0.0
H1492 H 0.44199 0.52359 0.02453 0.0
H1493 H 0.47531 0.52566 0.01956 0.0
H1494 H 0.47719 0.80578 0.0682 0.0
H1495 H 0.48415 0.83991 0.06213 0.0
H1496 H 0.54439 0.85563 0.04315 0.0
H1497 H 0.53718 0.82113 0.04855 0.0
H1498 H 0.51409 0.87751 0.07287 0.0
H1499 H 0.51862 0.8687 1.00288 0.0
H1500 H 0.50928 0.84764 0.01732 0.0
H1501 H 0.53651 0.86496 0.01549 0.0
C1502 C 0.49191 0.81645 0.06267 0.0
C1503 C 0.50649 0.81061 0.05859 0.0
C1504 C 0.49593 0.83602 0.05934 0.0
C1505 C 0.51463 0.85021 0.05189 0.0
C1506 C 0.52968 0.84479 0.04858 0.0
H1507 H 0.54111 0.97564 0.03959 0.0
H1508 H 0.54453 0.9465 0.04764 0.0
C1509 C 0.52563 0.82513 0.05186 0.0
C1510 C 0.51776 0.87031 0.04704 0.0
H1511 H 0.52291 0.89971 0.01264 0.0
C1512 C 0.51623 0.88249 0.05973 0.0
C1513 C 0.5203 0.87662 0.02985 0.0
C1514 C 0.52111 0.86377 0.01555 0.0
C1515 C 0.51667 0.90059 0.05565 0.0
C1516 C 0.51913 0.90686 0.03845 0.0
C1517 C 0.52117 0.89492 0.02582 0.0
C1518 C 0.51793 0.92484 0.03309 0.0
C1519 C 0.51353 0.91234 0.06969 0.0
C1520 C 0.50223 0.92244 0.02183 0.0
C1521 C 0.50034 0.93903 0.01711 0.0
C1522 C 0.51417 0.95844 0.02348 0.0
C1523 C 0.53013 0.96089 0.03452 0.0
C1524 C 0.53206 0.94424 0.0392 0.0
H1525 H 0.50734 0.90323 0.08145 0.0
H1526 H 0.52855 0.92586 0.07292 0.0
H1527 H 0.50275 0.91754 0.06553 0.0
H1528 H 0.49114 0.90761 0.01696 0.0
H1529 H 0.48772 0.93651 0.00875 0.0
H1530 H 0.95782 0.18805 0.40023 0.0
H1531 H 0.98882 0.21841 0.3904 0.0
H1532 H 0.01645 0.18243 0.37715 0.0
H1533 H 0.98569 0.15209 0.38706 0.0
H1534 H 0.02886 0.23434 0.40262 0.0
H1535 H 0.02543 0.2154 0.33395 0.0
H1536 H 1.00364 0.20212 0.34796 0.0
H1537 H 0.02406 0.19617 0.34787 0.0
C1538 C 0.97048 0.18657 0.39522 0.0
C1539 C 0.96916 0.16755 0.39438 0.0
C1540 C 0.98816 0.20395 0.38952 0.0
C1541 C 1.00485 0.20268 0.38276 0.0
C1542 C 1.00358 0.18374 0.38189 0.0
H1543 H 0.13042 0.28703 0.35324 0.0
H1544 H 0.09666 0.25734 0.35855 0.0
C1545 C 0.98594 0.16637 0.38758 0.0
C1546 C 0.02403 0.22129 0.3775 0.0
H1547 H 0.05686 0.24344 0.34402 0.0
C1548 C 0.03487 0.23642 0.38976 0.0
C1549 C 0.03193 0.22395 0.36073 0.0
C1550 C 0.02059 0.20864 0.34681 0.0
C1551 C 0.05364 0.25387 0.38587 0.0
C1552 C 0.06161 0.25647 0.36915 0.0
C1553 C 0.05071 0.24143 0.35683 0.0
C1554 C 0.08154 0.27448 0.3644 0.0
C1555 C 0.06512 0.26906 0.39986 0.0
C1556 C 0.08415 0.29398 0.36545 0.0
C1557 C 0.10342 0.31097 0.36229 0.0
C1558 C 0.12034 0.30877 0.35774 0.0
C1559 C 0.11758 0.28923 0.3563 0.0
C1560 C 0.09831 0.27223 0.35944 0.0
H1561 H 0.05955 0.2626 0.41271 0.0
H1562 H 0.08195 0.27464 0.3992 0.0
H1563 H 0.06275 0.28219 0.39834 0.0
H1564 H 0.07136 0.29607 0.36902 0.0
H1565 H 0.10521 0.32588 0.36365 0.0
H1566 H 0.87335 0.83924 0.39163 0.0
H1567 H 0.84328 0.8418 0.38281 0.0
H1568 H 0.8037 0.7782 0.39228 0.0
H1569 H 0.83363 0.7756 0.40127 0.0
H1570 H 0.81485 0.824 0.3577 0.0
H1571 H 0.77539 0.80168 0.42001 0.0
H1572 H 0.80182 0.80778 0.41727 0.0
H1573 H 0.78096 0.78314 0.41146 0.0
C1574 C 0.85826 0.82575 0.39169 0.0
C1575 C 0.85592 0.80723 0.3973 0.0
C1576 C 0.84104 0.82726 0.38672 0.0
C1577 C 0.82107 0.81031 0.38725 0.0
C1578 C 0.8188 0.79166 0.39225 0.0
H1579 H 0.69614 0.78516 0.36689 0.0
H1580 H 0.72769 0.78379 0.37244 0.0
C1581 C 0.83597 0.79016 0.39731 0.0
C1582 C 0.80267 0.81208 0.38246 0.0
H1583 H 0.75565 0.80304 0.39676 0.0
C1584 C 0.80196 0.81954 0.36629 0.0
C1585 C 0.78584 0.80638 0.39366 0.0
C1586 C 0.78608 0.7995 0.41163 0.0
C1587 C 0.78469 0.82083 0.36081 0.0
C1588 C 0.76762 0.81468 0.37185 0.0
C1589 C 0.76852 0.80753 0.38814 0.0
C1590 C 0.74858 0.81533 0.36689 0.0
C1591 C 0.78466 0.82808 0.343 0.0
C1592 C 0.74961 0.83346 0.36179 0.0
C1593 C 0.73153 0.83417 0.35842 0.0
C1594 C 0.71199 0.81679 0.36011 0.0
C1595 C 0.71098 0.79871 0.36521 0.0
C1596 C 0.72902 0.79795 0.36844 0.0
H1597 H 0.79607 0.82695 0.33472 0.0
H1598 H 0.76918 0.81912 0.33716 0.0
H1599 H 0.78866 0.84415 0.34343 0.0
H1600 H 0.76434 0.84727 0.36101 0.0
H1601 H 0.7329 0.8485 0.35514 0.0
H1602 H 0.20837 0.03673 0.42653 0.0
H1603 H 0.20638 0.00608 0.41495 0.0
H1604 H 0.20599 0.02657 0.36388 0.0
H1605 H 0.20843 0.0576 0.37539 0.0
H1606 H 0.17452 0.9772 0.39365 0.0
H1607 H 0.25158 0.01066 0.363 0.0
H1608 H 0.24548 0.02398 0.37893 0.0
H1609 H 0.23624 0.02194 0.35746 0.0
C1610 C 0.20822 0.03491 0.41282 0.0
C1611 C 0.20872 0.04968 0.40187 0.0
C1612 C 0.20694 0.01731 0.40623 0.0
C1613 C 0.20625 0.01416 0.38857 0.0
C1614 C 0.2068 0.02886 0.37756 0.0
H1615 H 0.16669 0.89733 0.34033 0.0
H1616 H 0.17113 0.93023 0.34822 0.0
C1617 C 0.20801 0.04648 0.38414 0.0
C1618 C 0.20414 0.99507 0.38182 0.0
H1619 H 0.22894 0.97562 0.35878 0.0
C1620 C 0.18638 0.97684 0.38598 0.0
C1621 C 0.21974 0.99469 0.37196 0.0
C1622 C 0.23944 0.01381 0.36764 0.0
C1623 C 0.18376 0.95819 0.38053 0.0
C1624 C 0.19923 0.9578 0.37049 0.0
C1625 C 0.21704 0.97602 0.36636 0.0
C1626 C 0.19744 0.93851 0.36471 0.0
C1627 C 0.16468 0.93901 0.38588 0.0
C1628 C 0.21113 0.93251 0.37098 0.0
C1629 C 0.20873 0.91375 0.36641 0.0
C1630 C 0.19268 0.90071 0.35536 0.0
C1631 C 0.17932 0.90703 0.34875 0.0
C1632 C 0.18172 0.92578 0.35335 0.0
H1633 H 0.1565 0.9417 0.39647 0.0
H1634 H 0.1539 0.93274 0.37489 0.0
H1635 H 0.16868 0.92748 0.38998 0.0
H1636 H 0.22339 0.94217 0.37975 0.0
H1637 H 0.21933 0.90941 0.37171 0.0
H1638 H 0.50349 0.6381 0.26678 0.0
H1639 H 0.53241 0.66969 0.27742 0.0
H1640 H 0.51691 0.64821 0.329 0.0
H1641 H 0.48811 0.61619 0.31839 0.0
H1642 H 0.53143 0.69781 0.2996 0.0
H1643 H 0.57894 0.66693 0.32613 0.0
H1644 H 0.55773 0.65279 0.31155 0.0
H1645 H 0.55278 0.65505 0.3336 0.0
C1646 C 0.50637 0.63992 0.28039 0.0
C1647 C 0.49359 0.62447 0.29172 0.0
C1648 C 0.52284 0.65808 0.28645 0.0
C1649 C 0.52702 0.66124 0.30399 0.0
C1650 C 0.5142 0.64598 0.31539 0.0
H1651 H 0.60659 0.77905 0.35099 0.0
H1652 H 0.57777 0.746 0.34304 0.0
C1653 C 0.49763 0.62777 0.30932 0.0
C1654 C 0.54454 0.68073 0.3102 0.0
H1655 H 0.59104 0.70171 0.33095 0.0
C1656 C 0.54444 0.69866 0.3065 0.0
C1657 C 0.56162 0.68184 0.319 0.0
C1658 C 0.56297 0.66318 0.32271 0.0
C1659 C 0.56089 0.71763 0.31142 0.0
C1660 C 0.57781 0.71872 0.3205 0.0
C1661 C 0.57799 0.70082 0.32411 0.0
C1662 C 0.59561 0.73838 0.32604 0.0
C1663 C 0.56023 0.73639 0.30653 0.0
C1664 C 0.61541 0.7449 0.31951 0.0
C1665 C 0.63205 0.76378 0.32416 0.0
C1666 C 0.62924 0.77646 0.33557 0.0
C1667 C 0.60943 0.76967 0.34232 0.0
C1668 C 0.59284 0.75082 0.33766 0.0
H1669 H 0.54879 0.7333 0.29622 0.0
H1670 H 0.55575 0.74212 0.3178 0.0
H1671 H 0.57562 0.74847 0.30224 0.0
H1672 H 0.61791 0.73552 0.31055 0.0
H1673 H 0.64706 0.76847 0.31872 0.0
H1674 H 0.3986 0.90461 0.29207 0.0
H1675 H 0.36631 0.90209 0.30168 0.0
H1676 H 0.34249 0.8394 0.31403 0.0
H1677 H 0.37459 0.84167 0.30422 0.0
H1678 H 0.3271 0.87659 0.28821 0.0
H1679 H 0.32909 0.86115 0.35707 0.0
H1680 H 0.35169 0.87098 0.34374 0.0
H1681 H 0.33266 0.84457 0.34298 0.0
C1682 C 0.38654 0.89026 0.29685 0.0
C1683 C 0.38932 0.87334 0.29733 0.0
C1684 C 0.36809 0.88889 0.30244 0.0
C1685 C 0.35199 0.87063 0.30879 0.0
C1686 C 0.3548 0.85378 0.30955 0.0
H1687 H 0.22443 0.83036 0.33796 0.0
H1688 H 0.25805 0.83311 0.33282 0.0
C1689 C 0.37324 0.85513 0.30393 0.0
C1690 C 0.33186 0.86892 0.31354 0.0
H1691 H 0.29787 0.85805 0.34638 0.0
C1692 C 0.32079 0.87265 0.30096 0.0
C1693 C 0.32347 0.86359 0.33014 0.0
C1694 C 0.33488 0.86 0.34433 0.0
C1695 C 0.30155 0.87097 0.30442 0.0
C1696 C 0.29325 0.86587 0.32106 0.0
C1697 C 0.30423 0.86201 0.33364 0.0
C1698 C 0.27324 0.86459 0.32554 0.0
C1699 C 0.29005 0.87419 0.29005 0.0
C1700 C 0.27064 0.88146 0.32362 0.0
C1701 C 0.25145 0.87991 0.32661 0.0
C1702 C 0.23456 0.86161 0.33201 0.0
C1703 C 0.23725 0.84481 0.33427 0.0
C1704 C 0.25646 0.84634 0.33123 0.0
H1705 H 0.29553 0.87235 0.27739 0.0
H1706 H 0.27319 0.86347 0.29088 0.0
H1707 H 0.29263 0.88979 0.29085 0.0
H1708 H 0.2834 0.8958 0.31955 0.0
H1709 H 0.24976 0.89303 0.32461 0.0
H1710 H 0.15209 0.50947 0.26683 0.0
H1711 H 0.15351 0.48034 0.27797 0.0
H1712 H 0.15194 0.49972 0.32934 0.0
H1713 H 0.15024 0.52888 0.31827 0.0
H1714 H 0.18521 0.48279 0.30117 0.0
H1715 H 0.10556 0.4385 0.32691 0.0
H1716 H 0.11255 0.45793 0.31105 0.0
H1717 H 0.12012 0.46478 0.33287 0.0
C1718 C 0.15172 0.50739 0.2805 0.0
C1719 C 0.15092 0.52141 0.29167 0.0
C1720 C 0.15266 0.49081 0.28683 0.0
C1721 C 0.15265 0.48782 0.30445 0.0
C1722 C 0.15173 0.50167 0.31569 0.0
H1723 H 0.1875 0.40747 0.35451 0.0
H1724 H 0.18348 0.43626 0.34668 0.0
C1725 C 0.15091 0.51837 0.30935 0.0
C1726 C 0.15442 0.47058 0.31095 0.0
H1727 H 0.12786 0.42537 0.33148 0.0
C1728 C 0.17272 0.47027 0.30786 0.0
C1729 C 0.13801 0.45424 0.31954 0.0
C1730 C 0.11785 0.45367 0.32274 0.0
C1731 C 0.17508 0.45401 0.31315 0.0
C1732 C 0.15874 0.43772 0.32184 0.0
C1733 C 0.14039 0.43798 0.32491 0.0
C1734 C 0.16026 0.42 0.32733 0.0
C1735 C 0.19486 0.45413 0.30912 0.0
C1736 C 0.14822 0.40124 0.31927 0.0
C1737 C 0.15043 0.38471 0.32373 0.0
C1738 C 0.16457 0.38663 0.33649 0.0
C1739 C 0.17629 0.40538 0.34478 0.0
C1740 C 0.17414 0.42191 0.34024 0.0
H1741 H 0.20439 0.46597 0.2997 0.0
H1742 H 0.20408 0.45711 0.32098 0.0
H1743 H 0.19151 0.43921 0.30403 0.0
H1744 H 0.13742 0.3995 0.30927 0.0
H1745 H 0.14113 0.37049 0.31712 0.0
H1746 H 0.38716 0.51584 0.31782 0.0
H1747 H 0.35938 0.48148 0.32469 0.0
H1748 H 0.31682 0.49063 0.29404 0.0
H1749 H 0.34437 0.52479 0.28721 0.0
H1750 H 0.3207 0.47309 0.3412 0.0
H1751 H 0.30779 0.43438 0.2786 0.0
H1752 H 0.33157 0.45715 0.28399 0.0
H1753 H 0.30912 0.45852 0.27793 0.0
C1754 C 0.37198 0.51031 0.31227 0.0
C1755 C 0.36791 0.52296 0.30198 0.0
C1756 C 0.35611 0.49077 0.31628 0.0
C1757 C 0.33606 0.48347 0.3098 0.0
C1758 C 0.33221 0.49585 0.29903 0.0
H1759 H 0.21482 0.39168 0.34242 0.0
H1760 H 0.2473 0.42304 0.33755 0.0
C1761 C 0.34794 0.51538 0.29518 0.0
C1762 C 0.31874 0.46351 0.3151 0.0
H1763 H 0.28186 0.41762 0.29959 0.0
C1764 C 0.31231 0.46087 0.33216 0.0
C1765 C 0.30787 0.44758 0.3033 0.0
C1766 C 0.31448 0.44939 0.28495 0.0
C1767 C 0.29493 0.44292 0.33761 0.0
C1768 C 0.28361 0.42722 0.32569 0.0
C1769 C 0.29044 0.42967 0.30873 0.0
C1770 C 0.26445 0.40825 0.33038 0.0
C1771 C 0.2889 0.44084 0.35611 0.0
C1772 C 0.26316 0.38943 0.32795 0.0
C1773 C 0.24459 0.37148 0.33078 0.0
C1774 C 0.22694 0.37195 0.33615 0.0
C1775 C 0.22828 0.39079 0.33878 0.0
C1776 C 0.24688 0.40876 0.33598 0.0
H1777 H 0.30166 0.45211 0.36428 0.0
H1778 H 0.27548 0.44317 0.35758 0.0
H1779 H 0.28437 0.42549 0.3607 0.0
H1780 H 0.27644 0.38863 0.32351 0.0
H1781 H 0.24388 0.35716 0.32841 0.0
H1782 H 0.48565 0.82057 0.29123 0.0
H1783 H 0.52018 0.82553 0.29629 0.0
H1784 H 0.53641 0.87954 0.32525 0.0
H1785 H 0.50164 0.8746 0.32017 0.0
H1786 H 0.56073 0.8593 0.28932 0.0
H1787 H 0.54635 0.84222 0.35848 0.0
H1788 H 0.5257 0.83588 0.34337 0.0
H1789 H 0.54173 0.86157 0.35024 0.0
C1790 C 0.49667 0.83367 0.29848 0.0
C1791 C 0.49092 0.84717 0.30535 0.0
C1792 C 0.5164 0.83647 0.30138 0.0
C1793 C 0.53081 0.85271 0.31138 0.0
C1794 C 0.52545 0.86674 0.31769 0.0
H1795 H 0.66004 0.88314 0.32398 0.0
H1796 H 0.62853 0.88492 0.31919 0.0
C1797 C 0.50568 0.86404 0.31464 0.0
C1798 C 0.55107 0.85435 0.31551 0.0
H1799 H 0.57868 0.84908 0.34798 0.0
C1800 C 0.56476 0.85729 0.30217 0.0
C1801 C 0.55617 0.85137 0.33224 0.0
C1802 C 0.54173 0.84743 0.34695 0.0
C1803 C 0.58335 0.8573 0.30509 0.0
C1804 C 0.58848 0.85439 0.32183 0.0
C1805 C 0.57482 0.85147 0.33518 0.0
C1806 C 0.60765 0.85366 0.32556 0.0
C1807 C 0.59708 0.8598 0.29016 0.0
C1808 C 0.60644 0.8356 0.33101 0.0
C1809 C 0.62442 0.83456 0.33373 0.0
C1810 C 0.64399 0.85171 0.33146 0.0
C1811 C 0.64516 0.86978 0.32606 0.0
C1812 C 0.62719 0.87079 0.32327 0.0
H1813 H 0.58904 0.8578 0.27777 0.0
H1814 H 0.61078 0.87522 0.29051 0.0
H1815 H 0.60262 0.84878 0.29085 0.0
H1816 H 0.59155 0.82216 0.33279 0.0
H1817 H 0.62294 0.82027 0.33734 0.0
H1818 H 0.20151 0.65594 0.32782 0.0
H1819 H 0.19526 0.68399 0.3328 0.0
H1820 H 0.15856 0.6686 0.28691 0.0
H1821 H 0.16514 0.64062 0.28153 0.0
H1822 H 0.20575 0.71624 0.30497 0.0
H1823 H 0.12455 0.67663 0.32816 0.0
H1824 H 0.14113 0.66593 0.33094 0.0
H1825 H 0.13149 0.66654 0.31016 0.0
C1826 C 0.19211 0.65848 0.31875 0.0
C1827 C 0.18403 0.64617 0.30416 0.0
C1828 C 0.18845 0.67443 0.32169 0.0
C1829 C 0.17644 0.67829 0.31024 0.0
C1830 C 0.16773 0.6657 0.29596 0.0
H1831 H 0.14996 0.77804 0.31827 0.0
H1832 H 0.14876 0.74665 0.30942 0.0
C1833 C 0.17146 0.64971 0.29294 0.0
C1834 C 0.17442 0.69642 0.31279 0.0
H1835 H 0.14212 0.71224 0.32806 0.0
C1836 C 0.19179 0.7154 0.30987 0.0
C1837 C 0.15613 0.69518 0.31901 0.0
C1838 C 0.13718 0.67503 0.32234 0.0
C1839 C 0.19153 0.73327 0.3134 0.0
C1840 C 0.17356 0.7321 0.32045 0.0
C1841 C 0.1559 0.71309 0.32276 0.0
C1842 C 0.17336 0.75047 0.32634 0.0
C1843 C 0.21054 0.75325 0.30959 0.0
C1844 C 0.18723 0.76273 0.33906 0.0
C1845 C 0.18806 0.78065 0.34405 0.0
C1846 C 0.1748 0.78661 0.33662 0.0
C1847 C 0.16042 0.77395 0.32425 0.0
C1848 C 0.15968 0.75599 0.31919 0.0
H1849 H 0.22019 0.75161 0.29967 0.0
H1850 H 0.20639 0.76458 0.30523 0.0
H1851 H 0.22005 0.7591 0.32135 0.0
H1852 H 0.19767 0.75857 0.34498 0.0
H1853 H 0.19948 0.79003 0.35346 0.0
H1854 H 0.87262 0.0398 0.35173 0.0
H1855 H 0.83827 0.00993 0.34922 0.0
H1856 H 0.82952 0.01182 0.40335 0.0
H1857 H 0.86407 0.04189 0.40592 0.0
H1858 H 0.82299 0.97375 0.39013 0.0
H1859 H 0.77932 1.002 0.35319 0.0
H1860 H 0.80419 0.00894 0.34452 0.0
H1861 H 0.80254 0.01856 0.36504 0.0
C1862 C 0.86322 0.03406 0.36305 0.0
C1863 C 0.871 0.04314 0.37903 0.0
C1864 C 0.84355 0.01706 0.36159 0.0
C1865 C 0.83126 0.00874 0.37607 0.0
C1866 C 0.83871 0.0181 0.392 0.0
H1867 H 0.70733 0.90082 0.37087 0.0
H1868 H 0.7362 0.93444 0.37811 0.0
C1869 C 0.85837 0.03531 0.39344 0.0
C1870 C 0.81154 0.98925 0.37462 0.0
H1871 H 0.76498 0.96609 0.35389 0.0
C1872 C 0.81018 0.97212 0.38242 0.0
C1873 C 0.7948 0.98715 0.36461 0.0
C1874 C 0.79513 0.00516 0.35647 0.0
C1875 C 0.79293 0.95282 0.37984 0.0
C1876 C 0.77666 0.9506 0.36915 0.0
C1877 C 0.77757 0.96783 0.36197 0.0
C1878 C 0.75908 0.93038 0.36466 0.0
C1879 C 0.79234 0.93487 0.38836 0.0
C1880 C 0.76235 0.91708 0.35453 0.0
C1881 C 0.74594 0.89797 0.3503 0.0
C1882 C 0.72585 0.89171 0.35611 0.0
C1883 C 0.72259 0.90513 0.3662 0.0
C1884 C 0.73905 0.92435 0.37033 0.0
H1885 H 0.80356 0.93952 0.39908 0.0
H1886 H 0.77664 0.92435 0.39324 0.0
H1887 H 0.79631 0.92654 0.37888 0.0
H1888 H 0.77766 0.92152 0.34988 0.0
H1889 H 0.74909 0.88801 0.34263 0.0
H1890 H 1.00568 0.85759 0.40114 0.0
H1891 H 0.03484 0.85222 0.39601 0.0
H1892 H 0.99502 0.79789 0.36769 0.0
H1893 H 0.96561 0.80327 0.37282 0.0
H1894 H 0.0409 0.81875 0.40331 0.0
H1895 H 0.04237 0.83391 0.33385 0.0
H1896 H 0.02849 0.84061 0.34886 0.0
H1897 H 0.01818 0.81475 0.34244 0.0
C1898 C 1.00306 0.84433 0.39401 0.0
C1899 C 0.98336 0.83088 0.38734 0.0
C1900 C 0.01975 0.8413 0.39107 0.0
C1901 C 0.01725 0.82485 0.38123 0.0
C1902 C 0.9974 0.81086 0.37512 0.0
H1903 H 0.11541 0.79424 0.36922 0.0
H1904 H 0.08205 0.79236 0.37397 0.0
C1905 C 0.98056 0.81381 0.37821 0.0
C1906 C 0.03566 0.82296 0.37705 0.0
H1907 H 0.06785 0.82718 0.34439 0.0
C1908 C 0.04666 0.82037 0.39041 0.0
C1909 C 0.0434 0.82542 0.36024 0.0
C1910 C 0.03266 0.82898 0.34548 0.0
C1911 C 0.06516 0.82024 0.38743 0.0
C1912 C 0.07286 0.82265 0.37062 0.0
C1913 C 0.06185 0.82518 0.35724 0.0
C1914 C 0.09274 0.82335 0.36685 0.0
C1915 C 0.07669 0.81818 0.40239 0.0
C1916 C 0.10976 0.84127 0.36097 0.0
C1917 C 0.12881 0.84235 0.35827 0.0
C1918 C 0.13109 0.82538 0.36098 0.0
C1919 C 0.11401 0.80745 0.36679 0.0
C1920 C 0.09498 0.80639 0.36956 0.0
H1921 H 0.07098 0.82055 0.41475 0.0
H1922 H 0.07465 0.80276 0.40236 0.0
H1923 H 0.09347 0.82918 0.40145 0.0
H1924 H 0.10844 0.85459 0.35886 0.0
H1925 H 0.14177 0.85657 0.35434 0.0
H1926 H 0.19494 0.15591 0.41315 0.0
H1927 H 0.20041 0.18988 0.40747 0.0
H1928 H 0.1627 0.16742 0.36221 0.0
H1929 H 0.15748 0.13371 0.36754 0.0
H1930 H 0.21471 0.21517 0.37396 0.0
H1931 H 0.13523 0.19166 0.39583 0.0
H1932 H 0.14875 0.17862 0.40212 0.0
H1933 H 0.13754 0.17472 0.3812 0.0
C1934 C 0.18814 0.15831 0.40183 0.0
C1935 C 0.17552 0.14205 0.39093 0.0
C1936 C 0.19122 0.17768 0.39865 0.0
C1937 C 0.18172 0.18101 0.38456 0.0
C1938 C 0.16994 0.16505 0.37327 0.0
H1939 H 0.1572 0.26902 0.34134 0.0
H1940 H 0.15987 0.23971 0.34954 0.0
C1941 C 0.16689 0.14579 0.37639 0.0
C1942 C 0.18302 0.20078 0.38193 0.0
H1943 H 0.15325 0.22305 0.38162 0.0
C1944 C 0.20141 0.21707 0.37582 0.0
C1945 C 0.1656 0.20309 0.38438 0.0
C1946 C 0.14567 0.18618 0.39136 0.0
C1947 C 0.20253 0.23542 0.37137 0.0
C1948 C 0.18488 0.23753 0.37339 0.0
C1949 C 0.16673 0.22139 0.38001 0.0
C1950 C 0.18442 0.25587 0.36791 0.0
C1951 C 0.22225 0.25206 0.36386 0.0
C1952 C 0.19735 0.27477 0.37552 0.0
C1953 C 0.19603 0.29172 0.37069 0.0
C1954 C 0.1817 0.29004 0.35819 0.0
C1955 C 0.16874 0.27104 0.3507 0.0
C1956 C 0.17012 0.25418 0.35548 0.0
H1957 H 0.23274 0.24651 0.35973 0.0
H1958 H 0.21892 0.25898 0.35276 0.0
H1959 H 0.23046 0.26404 0.37361 0.0
H1960 H 0.20818 0.27633 0.38542 0.0
H1961 H 0.20609 0.30606 0.37687 0.0
H1962 H 0.65351 0.48273 0.72788 0.0
H1963 H 0.68455 0.51268 0.71767 0.0
H1964 H 0.6543 0.54783 0.7231 0.0
H1965 H 0.62311 0.51791 0.73324 0.0
H1966 H 0.69066 0.53792 0.68978 0.0
H1967 H 0.70744 0.58017 0.75091 0.0
H1968 H 0.68915 0.55348 0.74926 0.0
H1969 H 0.68199 0.57163 0.74257 0.0
C1970 C 0.65335 0.49677 0.72673 0.0
C1971 C 0.6358 0.4979 0.73146 0.0
C1972 C 0.67116 0.51391 0.72096 0.0
C1973 C 0.67188 0.53257 0.71986 0.0
C1974 C 0.65426 0.53369 0.72419 0.0
H1975 H 0.7689 0.65477 0.69746 0.0
H1976 H 0.73573 0.62406 0.70234 0.0
C1977 C 0.63644 0.51656 0.72999 0.0
C1978 C 0.69111 0.55087 0.71429 0.0
H1979 H 0.72817 0.59791 0.72738 0.0
C1980 C 0.69891 0.55105 0.69799 0.0
C1981 C 0.70188 0.56796 0.72504 0.0
C1982 C 0.69484 0.56832 0.74298 0.0
C1983 C 0.71695 0.568 0.69202 0.0
C1984 C 0.7277 0.58516 0.70274 0.0
C1985 C 0.71989 0.58489 0.71907 0.0
C1986 C 0.7472 0.60351 0.69754 0.0
C1987 C 0.72399 0.56756 0.67412 0.0
C1988 C 0.7647 0.60227 0.69297 0.0
C1989 C 0.78361 0.61984 0.68998 0.0
C1990 C 0.78538 0.63897 0.69154 0.0
C1991 C 0.76785 0.64019 0.6959 0.0
C1992 C 0.74892 0.62266 0.69873 0.0
H1993 H 0.71125 0.55605 0.66608 0.0
H1994 H 0.73011 0.58251 0.66803 0.0
H1995 H 0.73647 0.56372 0.6745 0.0
H1996 H 0.76402 0.58779 0.69246 0.0
H1997 H 0.79696 0.61839 0.68724 0.0
H1998 H 0.4997 0.1049 0.73285 0.0
H1999 H 0.46983 0.10764 0.72391 0.0
H2000 H 0.50963 0.17101 0.71381 0.0
H2001 H 0.53956 0.16852 0.72298 0.0
H2002 H 0.45642 0.13229 0.73887 0.0
H2003 H 0.47395 0.15121 0.67047 0.0
H2004 H 0.48663 0.1408 0.68307 0.0
H2005 H 0.49444 0.16712 0.68491 0.0
C2006 C 0.50217 0.11944 0.7287 0.0
C2007 C 0.52217 0.13648 0.72868 0.0
C2008 C 0.48504 0.12095 0.7235 0.0
C2009 C 0.48743 0.13947 0.71798 0.0
C2010 C 0.50738 0.15644 0.71764 0.0
H2011 H 0.40039 0.18001 0.69091 0.0
H2012 H 0.43127 0.17736 0.69613 0.0
C2013 C 0.52453 0.15497 0.72289 0.0
C2014 C 0.46893 0.14125 0.71368 0.0
H2015 H 0.44578 0.15348 0.68181 0.0
C2016 C 0.45406 0.13681 0.72636 0.0
C2017 C 0.46588 0.14734 0.69741 0.0
C2018 C 0.48095 0.15174 0.68311 0.0
C2019 C 0.43644 0.13851 0.72332 0.0
C2020 C 0.43323 0.14435 0.70698 0.0
C2021 C 0.44816 0.14893 0.69431 0.0
C2022 C 0.41444 0.14571 0.70287 0.0
C2023 C 0.42168 0.13452 0.73782 0.0
C2024 C 0.39463 0.12875 0.70458 0.0
C2025 C 0.37698 0.13025 0.70155 0.0
C2026 C 0.3787 0.14858 0.69629 0.0
C2027 C 0.39851 0.16553 0.69443 0.0
C2028 C 0.4162 0.16405 0.69753 0.0
H2029 H 0.42918 0.13599 0.7504 0.0
H2030 H 0.41553 0.14507 0.7375 0.0
H2031 H 0.4085 0.11886 0.7367 0.0
H2032 H 0.3928 0.11433 0.70837 0.0
H2033 H 0.3619 0.11702 0.70326 0.0
H2034 H 0.87657 0.37371 0.76012 0.0
H2035 H 0.87523 0.34264 0.75033 0.0
H2036 H 0.87637 0.36054 0.69811 0.0
H2037 H 0.87797 0.39187 0.70781 0.0
H2038 H 0.84347 0.31272 0.72803 0.0
H2039 H 0.92272 0.34491 0.70178 0.0
H2040 H 0.91585 0.3584 0.71694 0.0
H2041 H 0.90817 0.35662 0.69502 0.0
C2042 C 0.87687 0.3712 0.74655 0.0
C2043 C 0.87749 0.38529 0.73473 0.0
C2044 C 0.87598 0.35339 0.74099 0.0
C2045 C 0.8759 0.34941 0.72353 0.0
C2046 C 0.87667 0.36348 0.71166 0.0
H2047 H 0.83925 0.23417 0.67474 0.0
H2048 H 0.8439 0.26704 0.68301 0.0
C2049 C 0.87743 0.38126 0.71721 0.0
C2050 C 0.87409 0.33011 0.7178 0.0
H2051 H 0.90003 0.30986 0.69758 0.0
C2052 C 0.85581 0.31207 0.72136 0.0
C2053 C 0.89031 0.32937 0.70924 0.0
C2054 C 0.91047 0.34831 0.70558 0.0
C2055 C 0.85323 0.29327 0.71643 0.0
C2056 C 0.86932 0.29254 0.70764 0.0
C2057 C 0.8877 0.31054 0.70424 0.0
C2058 C 0.8673 0.27311 0.70205 0.0
C2059 C 0.83343 0.27428 0.72084 0.0
C2060 C 0.87921 0.26583 0.70981 0.0
C2061 C 0.87665 0.24704 0.70507 0.0
C2062 C 0.86229 0.23533 0.69233 0.0
C2063 C 0.85065 0.24289 0.68441 0.0
C2064 C 0.85315 0.26161 0.68921 0.0
H2065 H 0.82429 0.27716 0.73044 0.0
H2066 H 0.82385 0.26813 0.70915 0.0
H2067 H 0.8367 0.26259 0.72584 0.0
H2068 H 0.89022 0.27453 0.71975 0.0
H2069 H 0.88587 0.24168 0.71143 0.0
H2070 H 0.185 0.94712 0.62282 0.0
H2071 H 0.21447 0.97894 0.63273 0.0
H2072 H 0.1733 1.00017 0.64808 0.0
H2073 H 0.14379 0.9688 0.63769 0.0
H2074 H 0.22376 0.01994 0.62073 0.0
H2075 H 0.21196 0.00878 0.69069 0.0
H2076 H 0.20146 0.98794 0.67571 0.0
H2077 H 0.18965 0.00327 0.67798 0.0
C2078 C 0.18216 0.95856 0.62823 0.0
C2079 C 0.16191 0.95529 0.62942 0.0
C2080 C 0.19904 0.97669 0.63399 0.0
C2081 C 0.19604 0.99181 0.64127 0.0
C2082 C 0.17592 0.98855 0.64273 0.0
H2083 H 0.2742 0.11199 0.68265 0.0
H2084 H 0.24593 0.07864 0.67453 0.0
C2085 C 0.15904 0.97052 0.63685 0.0
C2086 C 0.21399 0.0114 0.64661 0.0
H2087 H 0.23792 0.04096 0.68145 0.0
C2088 C 0.22698 0.02453 0.63401 0.0
C2089 C 0.21798 0.01736 0.66392 0.0
C2090 C 0.20466 0.00361 0.67793 0.0
C2091 C 0.24364 0.0437 0.6382 0.0
C2092 C 0.24779 0.04966 0.65556 0.0
C2093 C 0.23481 0.03641 0.66817 0.0
C2094 C 0.26524 0.06972 0.66087 0.0
C2095 C 0.25614 0.05762 0.62394 0.0
C2096 C 0.28563 0.07575 0.65621 0.0
C2097 C 0.30186 0.09491 0.66074 0.0
C2098 C 0.29808 0.10832 0.67031 0.0
C2099 C 0.27772 0.10203 0.67537 0.0
C2100 C 0.2615 0.08295 0.6707 0.0
H2101 H 0.24747 0.05327 0.61168 0.0
H2102 H 0.2607 0.07354 0.6269 0.0
H2103 H 0.27037 0.05672 0.62214 0.0
H2104 H 0.28903 0.06564 0.64903 0.0
H2105 H 0.31735 0.09917 0.65676 0.0
H2106 H 0.04253 0.17593 0.63799 0.0
H2107 H 0.01049 0.17444 0.64705 0.0
H2108 H 0.0375 0.23825 0.63768 0.0
H2109 H 0.06952 0.23983 0.62853 0.0
H2110 H 1.00162 0.19323 0.6725 0.0
H2111 H 0.98479 0.21582 0.61013 0.0
H2112 H 1.00444 0.20891 0.61276 0.0
H2113 H 0.00963 0.23382 0.61861 0.0
C2114 C 0.04175 0.18971 0.63802 0.0
C2115 C 0.05863 0.20799 0.6324 0.0
C2116 C 0.02334 0.18881 0.64312 0.0
C2117 C 0.02132 0.20613 0.64271 0.0
C2118 C 0.03838 0.22453 0.63765 0.0
H2119 H 0.92169 0.23112 0.66398 0.0
H2120 H 0.95504 0.2333 0.65847 0.0
C2121 C 0.05675 0.22543 0.63247 0.0
C2122 C 1.00145 0.20496 0.64764 0.0
H2123 H 0.96376 0.2143 0.63331 0.0
C2124 C 0.99329 0.19775 0.66389 0.0
C2125 C 0.99048 0.21081 0.63644 0.0
C2126 C 0.99764 0.21758 0.61845 0.0
C2127 C 0.97483 0.19665 0.66936 0.0
C2128 C 0.96398 0.20271 0.65823 0.0
C2129 C 0.97209 0.20982 0.64195 0.0
C2130 C 0.94408 0.20162 0.66304 0.0
C2131 C 0.96749 0.18962 0.68723 0.0
C2132 C 0.92672 0.18313 0.6675 0.0
C2133 C 0.9077 0.18192 0.67074 0.0
C2134 C 0.90558 0.19917 0.66964 0.0
C2135 C 0.92294 0.21766 0.66523 0.0
C2136 C 0.94198 0.21888 0.66202 0.0
H2137 H 0.98002 0.19057 0.6955 0.0
H2138 H 0.96144 0.19884 0.69302 0.0
H2139 H 0.95487 0.17364 0.68688 0.0
H2140 H 0.92764 0.16944 0.66789 0.0
H2141 H 0.89452 0.16732 0.67353 0.0
H2142 H 0.78499 0.83706 0.62563 0.0
H2143 H 0.78604 0.80753 0.63657 0.0
H2144 H 0.85255 0.84186 0.63743 0.0
H2145 H 0.85167 0.87127 0.62629 0.0
H2146 H 0.83456 0.80297 0.62067 0.0
H2147 H 0.80284 0.79902 0.6855 0.0
H2148 H 0.78834 0.80097 0.668 0.0
H2149 H 0.81364 0.82165 0.67274 0.0
C2150 C 0.79983 0.83831 0.62819 0.0
C2151 C 0.81825 0.85652 0.62516 0.0
C2152 C 0.80039 0.8215 0.63457 0.0
C2153 C 0.81937 0.82261 0.63797 0.0
C2154 C 0.83775 0.84076 0.635 0.0
H2155 H 0.85139 0.74107 0.68793 0.0
H2156 H 0.84732 0.76965 0.67948 0.0
C2157 C 0.83721 0.85758 0.62873 0.0
C2158 C 0.8202 0.80464 0.64388 0.0
H2159 H 0.80889 0.77252 0.67749 0.0
C2160 C 0.82893 0.79628 0.63308 0.0
C2161 C 0.81298 0.79609 0.66012 0.0
C2162 C 0.80404 0.80492 0.67238 0.0
C2163 C 0.83049 0.77946 0.63804 0.0
C2164 C 0.82303 0.77075 0.65418 0.0
C2165 C 0.81446 0.77919 0.66507 0.0
C2166 C 0.82439 0.75305 0.66003 0.0
C2167 C 0.8404 0.7713 0.6261 0.0
C2168 C 0.81256 0.73418 0.65208 0.0
C2169 C 0.81468 0.71774 0.65699 0.0
C2170 C 0.82869 0.71987 0.66995 0.0
C2171 C 0.84026 0.73876 0.67808 0.0
C2172 C 0.83802 0.75516 0.67323 0.0
H2173 H 0.84877 0.78195 0.61557 0.0
H2174 H 0.85138 0.76814 0.63313 0.0
H2175 H 0.82827 0.75688 0.62041 0.0
H2176 H 0.80182 0.73224 0.64196 0.0
H2177 H 0.80548 0.70344 0.65046 0.0
H2178 H 0.0377 0.84471 0.6185 0.0
H2179 H 0.00865 0.81032 0.62307 0.0
H2180 H 1.0055 0.8251 0.67566 0.0
H2181 H 0.03444 0.85925 0.67119 0.0
H2182 H 1.00029 0.78531 0.67 0.0
H2183 H 0.94916 0.80146 0.62938 0.0
H2184 H 0.97284 0.80566 0.6199 0.0
H2185 H 0.97367 0.8212 0.63744 0.0
C2186 C 0.03106 0.84043 0.63109 0.0
C2187 C 0.03819 0.85468 0.64445 0.0
C2188 C 0.01439 0.82088 0.63367 0.0
C2189 C 1.00472 0.81527 0.64965 0.0
C2190 C 0.01264 0.82912 0.66321 0.0
H2191 H 0.87962 0.72524 0.67466 0.0
H2192 H 0.91301 0.75588 0.67099 0.0
C2193 C 0.02914 0.84863 0.66063 0.0
C2194 C 0.98559 0.79551 0.65217 0.0
H2195 H 0.93431 0.76931 0.64187 0.0
C2196 C 0.98587 0.78171 0.66378 0.0
C2197 C 0.96675 0.79101 0.64423 0.0
C2198 C 0.96539 0.80561 0.63212 0.0
C2199 C 0.96779 0.76352 0.6677 0.0
C2200 C 0.94892 0.75897 0.65971 0.0
C2201 C 0.94873 0.77278 0.64803 0.0
C2202 C 0.92909 0.74016 0.66336 0.0
C2203 C 0.96908 0.74964 0.68065 0.0
C2204 C 0.92693 0.72105 0.66042 0.0
C2205 C 0.90787 0.70348 0.66284 0.0
C2206 C 0.8906 0.70464 0.66824 0.0
C2207 C 0.89273 0.72376 0.67107 0.0
C2208 C 0.91182 0.74132 0.66878 0.0
H2209 H 0.98252 0.75794 0.68934 0.0
H2210 H 0.95486 0.74196 0.6884 0.0
H2211 H 0.97099 0.7379 0.67389 0.0
H2212 H 0.93982 0.7197 0.65581 0.0
H2213 H 0.90652 0.68894 0.66018 0.0
H2214 H 0.15266 0.15245 0.62755 0.0
H2215 H 0.18725 0.15715 0.63165 0.0
H2216 H 0.20542 0.21229 0.65952 0.0
H2217 H 0.17063 0.20765 0.65537 0.0
H2218 H 0.22813 0.19148 0.62331 0.0
H2219 H 0.21578 0.17455 0.69265 0.0
H2220 H 0.19463 0.16775 0.67796 0.0
H2221 H 0.21056 0.19357 0.68451 0.0
C2222 C 0.1641 0.16572 0.63437 0.0
C2223 C 0.15891 0.17965 0.64119 0.0
C2224 C 0.18387 0.16839 0.6367 0.0
C2225 C 0.19886 0.18491 0.64608 0.0
C2226 C 0.19402 0.19931 0.65239 0.0
H2227 H 0.3283 0.2147 0.65627 0.0
H2228 H 0.29682 0.21661 0.65156 0.0
C2229 C 0.17422 0.19675 0.64989 0.0
C2230 C 0.21919 0.18646 0.64966 0.0
H2231 H 0.24752 0.18087 0.68129 0.0
C2232 C 0.2325 0.18941 0.63601 0.0
C2233 C 0.22472 0.18339 0.6662 0.0
C2234 C 0.21069 0.1795 0.68122 0.0
C2235 C 0.25114 0.18935 0.63845 0.0
C2236 C 0.25669 0.18633 0.655 0.0
C2237 C 0.24338 0.18338 0.66865 0.0
C2238 C 0.27588 0.18546 0.65826 0.0
C2239 C 0.26446 0.19189 0.62321 0.0
C2240 C 0.27464 0.16741 0.66378 0.0
C2241 C 0.29259 0.16632 0.66646 0.0
C2242 C 0.31219 0.1834 0.6641 0.0
C2243 C 0.3134 0.2014 0.65845 0.0
C2244 C 0.29544 0.20248 0.6557 0.0
H2245 H 0.25607 0.18991 0.611 0.0
H2246 H 0.27816 0.2073 0.62343 0.0
H2247 H 0.27002 0.18086 0.62359 0.0
H2248 H 0.25974 0.15405 0.66575 0.0
H2249 H 0.29106 0.15205 0.67022 0.0
H2250 H 0.82117 0.96256 0.64314 0.0
H2251 H 0.81329 0.98962 0.64844 0.0
H2252 H 0.87194 0.03296 0.62702 0.0
H2253 H 0.87957 0.00601 0.62112 0.0
H2254 H 0.83449 0.02199 0.66918 0.0
H2255 H 0.83369 0.04862 0.60394 0.0
H2256 H 0.83241 0.02479 0.60805 0.0
H2257 H 0.85691 0.04792 0.60811 0.0
C2258 C 0.83217 0.97778 0.6392 0.0
C2259 C 0.85102 0.98213 0.63173 0.0
C2260 C 0.82769 0.99324 0.64232 0.0
C2261 C 0.84189 0.01328 0.63792 0.0
C2262 C 0.86054 0.01757 0.63019 0.0
H2263 H 0.86892 0.12514 0.68289 0.0
H2264 H 0.86504 0.09273 0.67452 0.0
C2265 C 0.865 1.00217 0.62704 0.0
C2266 C 0.83814 0.03002 0.6426 0.0
H2267 H 0.8394 0.07219 0.62675 0.0
C2268 C 0.83523 0.03279 0.65986 0.0
C2269 C 0.83875 0.04394 0.63043 0.0
C2270 C 0.84039 0.04105 0.61158 0.0
C2271 C 0.83406 0.04968 0.66537 0.0
C2272 C 0.83628 0.06439 0.65336 0.0
C2273 C 0.83801 0.06106 0.63599 0.0
C2274 C 0.83809 0.08388 0.65867 0.0
C2275 C 0.83068 0.05169 0.68407 0.0
C2276 C 0.82459 0.09001 0.65214 0.0
C2277 C 0.82681 0.10869 0.65688 0.0
C2278 C 0.84261 0.12155 0.6682 0.0
C2279 C 0.85625 0.11543 0.67449 0.0
C2280 C 0.85405 0.09685 0.66974 0.0
H2281 H 0.82268 0.03671 0.69037 0.0
H2282 H 0.84585 0.06088 0.69047 0.0
H2283 H 0.82144 0.05926 0.68598 0.0
H2284 H 0.81231 0.08032 0.64342 0.0
H2285 H 0.81615 0.113 0.65168 0.0
H2286 H 0.54455 0.36808 0.69201 0.0
H2287 H 0.51009 0.33864 0.68803 0.0
H2288 H 0.49552 0.34326 0.74037 0.0
H2289 H 0.53007 0.37302 0.7444 0.0
H2290 H 0.49126 0.30303 0.72646 0.0
H2291 H 0.45004 0.33418 0.68938 0.0
H2292 H 0.47641 0.34259 0.68363 0.0
H2293 H 0.47088 0.3494 0.70403 0.0
C2294 C 0.53388 0.36302 0.70259 0.0
C2295 C 0.53996 0.37279 0.71852 0.0
C2296 C 0.5142 0.34626 0.70029 0.0
C2297 C 0.50027 0.33885 0.71388 0.0
C2298 C 0.50605 0.34887 0.7297 0.0
H2299 H 0.37544 0.23309 0.70515 0.0
H2300 H 0.4046 0.26621 0.71317 0.0
C2301 C 0.5257 0.36587 0.73197 0.0
C2302 C 0.48046 0.31968 0.71177 0.0
H2303 H 0.43429 0.29842 0.69055 0.0
C2304 C 0.47867 0.30203 0.71881 0.0
C2305 C 0.46411 0.31847 0.7018 0.0
C2306 C 0.46525 0.33715 0.69431 0.0
C2307 C 0.46122 0.28305 0.71561 0.0
C2308 C 0.44522 0.28171 0.70503 0.0
C2309 C 0.44663 0.29948 0.69857 0.0
C2310 C 0.42743 0.2619 0.69991 0.0
C2311 C 0.46015 0.26451 0.72336 0.0
C2312 C 0.43059 0.24867 0.68959 0.0
C2313 C 0.41402 0.22982 0.68495 0.0
C2314 C 0.39388 0.2238 0.69049 0.0
C2315 C 0.39073 0.23722 0.70067 0.0
C2316 C 0.40735 0.25616 0.70525 0.0
H2317 H 0.47096 0.26842 0.73432 0.0
H2318 H 0.44425 0.25376 0.72772 0.0
H2319 H 0.46443 0.25673 0.71359 0.0
H2320 H 0.44593 0.2529 0.68517 0.0
H2321 H 0.41712 0.21987 0.67724 0.0
H2322 H 0.67288 0.19037 0.73501 0.0
H2323 H 0.70242 0.18591 0.72891 0.0
H2324 H 0.6634 0.1332 0.69849 0.0
H2325 H 0.63361 0.13768 0.70457 0.0
H2326 H 0.709 0.15264 0.73443 0.0
H2327 H 0.71091 0.17113 0.6657 0.0
H2328 H 0.69662 0.17674 0.68118 0.0
H2329 H 0.68671 0.1513 0.6737 0.0
C2330 C 0.67052 0.17767 0.72718 0.0
C2331 C 0.65092 0.16441 0.72022 0.0
C2332 C 0.68744 0.17515 0.72369 0.0
C2333 C 0.68527 0.15944 0.713 0.0
C2334 C 0.66553 0.14563 0.70656 0.0
H2335 H 0.78189 0.1278 0.69836 0.0
H2336 H 0.74887 0.12665 0.70288 0.0
C2337 C 0.64848 0.14805 0.71019 0.0
C2338 C 0.70387 0.158 0.70845 0.0
H2339 H 0.73618 0.16359 0.67545 0.0
C2340 C 0.71483 0.15486 0.72151 0.0
C2341 C 0.71171 0.16124 0.69163 0.0
C2342 C 0.70104 0.16545 0.6772 0.0
C2343 C 0.73331 0.15482 0.71823 0.0
C2344 C 0.74106 0.1579 0.7014 0.0
C2345 C 0.73016 0.1611 0.68832 0.0
C2346 C 0.76069 0.15825 0.69731 0.0
C2347 C 0.74472 0.15201 0.73289 0.0
C2348 C 0.77824 0.17628 0.69228 0.0
C2349 C 0.79715 0.17696 0.68972 0.0
C2350 C 0.79872 0.15949 0.69177 0.0
C2351 C 0.78105 0.14141 0.6965 0.0
C2352 C 0.76221 0.14076 0.69914 0.0
H2353 H 0.73902 0.1539 0.74543 0.0
H2354 H 0.74255 0.13655 0.73227 0.0
H2355 H 0.76153 0.16295 0.73208 0.0
H2356 H 0.77747 0.18998 0.69084 0.0
H2357 H 0.81059 0.19123 0.68652 0.0
H2358 H 0.82621 0.46904 0.69509 0.0
H2359 H 0.83254 0.50307 0.68974 0.0
H2360 H 0.86861 0.52422 0.73599 0.0
H2361 H 0.86163 0.48986 0.74182 0.0
H2362 H 0.84042 0.5367 0.73349 0.0
H2363 H 0.88339 0.5528 0.673 0.0
H2364 H 0.85941 0.5294 0.67192 0.0
H2365 H 0.87919 0.53209 0.68662 0.0
C2366 C 0.83551 0.4809 0.70415 0.0
C2367 C 0.84332 0.47668 0.71894 0.0
C2368 C 0.83936 0.50044 0.70094 0.0
C2369 C 0.85136 0.51629 0.7123 0.0
C2370 C 0.85947 0.51224 0.72697 0.0
H2371 H 0.87145 0.64026 0.7086 0.0
H2372 H 0.8755 0.61127 0.71597 0.0
C2373 C 0.85557 0.49263 0.73022 0.0
C2374 C 0.85408 0.53667 0.70937 0.0
H2375 H 0.8676 0.57302 0.67899 0.0
C2376 C 0.84674 0.54485 0.72172 0.0
C2377 C 0.86237 0.54732 0.69401 0.0
C2378 C 0.87174 0.54004 0.68072 0.0
C2379 C 0.84646 0.56283 0.71873 0.0
C2380 C 0.8538 0.57289 0.70305 0.0
C2381 C 0.86187 0.56516 0.69096 0.0
C2382 C 0.85188 0.59065 0.69847 0.0
C2383 C 0.83745 0.5705 0.73201 0.0
C2384 C 0.8374 0.58862 0.68611 0.0
C2385 C 0.83493 0.60504 0.68196 0.0
C2386 C 0.84714 0.62394 0.68991 0.0
C2387 C 0.86181 0.62596 0.70221 0.0
C2388 C 0.86415 0.60943 0.70646 0.0
H2389 H 0.83025 0.5597 0.74267 0.0
H2390 H 0.84984 0.58504 0.73731 0.0
H2391 H 0.82564 0.57339 0.72613 0.0
H2392 H 0.82773 0.5742 0.67988 0.0
H2393 H 0.82321 0.60277 0.67269 0.0
H2394 H 0.47466 0.90855 0.25762 0.0
H2395 H 0.48764 0.92609 0.23043 0.0
H2396 H 0.42516 0.9022 0.21241 0.0
H2397 H 0.4121 0.88463 0.23942 0.0
H2398 H 0.48159 0.9112 0.19698 0.0
H2399 H 0.44993 0.96273 0.20494 0.0
H2400 H 0.45153 0.94816 0.22232 0.0
H2401 H 0.43105 0.93643 0.20685 0.0
C2402 C 0.46369 0.90696 0.24783 0.0
C2403 C 0.44233 0.89539 0.25082 0.0
C2404 C 0.47113 0.91704 0.23232 0.0
C2405 C 0.45738 0.9158 0.21949 0.0
C2406 C 0.43608 0.90384 0.22227 0.0
H2407 H 0.47429 0.97156 0.11915 0.0
H2408 H 0.45989 0.94993 0.14424 0.0
C2409 C 0.42864 0.89381 0.23775 0.0
C2410 C 0.46528 0.92693 0.20318 0.0
H2411 H 0.46446 0.96302 0.17808 0.0
C2412 C 0.4779 0.92258 0.19287 0.0
C2413 C 0.46039 0.94172 0.19777 0.0
C2414 C 0.44764 0.94771 0.20859 0.0
C2415 C 0.48557 0.93244 0.17723 0.0
C2416 C 0.48077 0.94731 0.17188 0.0
C2417 C 0.46803 0.95155 0.18213 0.0
C2418 C 0.48952 0.95929 0.15607 0.0
C2419 C 0.49848 0.92662 0.16646 0.0
C2420 C 0.51094 0.97172 0.15434 0.0
C2421 C 0.51919 0.98401 0.14003 0.0
C2422 C 0.5062 0.9843 0.12713 0.0
C2423 C 0.48474 0.97156 0.12874 0.0
C2424 C 0.47648 0.95928 0.14312 0.0
H2425 H 0.49576 0.91135 0.16976 0.0
H2426 H 0.49515 0.92683 0.15268 0.0
H2427 H 0.51505 0.93761 0.16872 0.0
H2428 H 0.52131 0.97228 0.16427 0.0
H2429 H 0.53579 0.99347 0.13914 0.0
H2430 H 0.12039 0.57592 0.25323 0.0
H2431 H 0.10077 0.5718 0.22705 0.0
H2432 H 0.11145 0.52382 0.21079 0.0
H2433 H 0.13216 0.52872 0.23623 0.0
H2434 H 0.11623 0.54785 0.18502 0.0
H2435 H 0.04276 0.52763 0.21773 0.0
H2436 H 0.06373 0.55198 0.22375 0.0
H2437 H 0.06481 0.52958 0.22888 0.0
C2438 C 0.11875 0.56464 0.244 0.0
C2439 C 0.12765 0.55246 0.24701 0.0
C2440 C 0.10729 0.56211 0.22913 0.0
C2441 C 0.10422 0.54717 0.21712 0.0
C2442 C 0.11343 0.53532 0.21993 0.0
H2443 H 0.00828 0.49184 0.14103 0.0
H2444 H 0.03101 0.50086 0.16594 0.0
C2445 C 0.12508 0.53799 0.23464 0.0
C2446 C 0.0915 0.54373 0.20155 0.0
H2447 H 0.04316 0.53116 0.18779 0.0
C2448 C 0.10025 0.54422 0.18561 0.0
C2449 C 0.07057 0.53874 0.20235 0.0
C2450 C 0.05982 0.53674 0.21909 0.0
C2451 C 0.08862 0.53962 0.1705 0.0
C2452 C 0.06782 0.53504 0.17127 0.0
C2453 C 0.05914 0.5348 0.18719 0.0
C2454 C 0.05445 0.52959 0.15586 0.0
C2455 C 0.09857 0.53898 0.15397 0.0
C2456 C 0.06002 0.54272 0.14189 0.0
C2457 C 0.04717 0.53744 0.12754 0.0
C2458 C 0.02832 0.51913 0.12707 0.0
C2459 C 0.02268 0.5061 0.14111 0.0
C2460 C 0.03565 0.51124 0.15533 0.0
H2461 H 0.11218 0.53708 0.15619 0.0
H2462 H 0.08746 0.52644 0.14563 0.0
H2463 H 0.10395 0.55342 0.14711 0.0
H2464 H 0.07415 0.55719 0.14217 0.0
H2465 H 0.05172 0.54787 0.11698 0.0
H2466 H 0.47993 0.60052 0.23434 0.0
H2467 H 0.48736 0.58867 0.2078 0.0
H2468 H 0.4588 0.52812 0.22776 0.0
H2469 H 0.45089 0.53993 0.25434 0.0
H2470 H 0.51191 0.57288 0.20414 0.0
H2471 H 0.43339 0.51759 0.1807 0.0
H2472 H 0.43775 0.53533 0.19765 0.0
H2473 H 0.43873 0.51272 0.20193 0.0
C2474 C 0.47508 0.58464 0.23302 0.0
C2475 C 0.46494 0.57115 0.24643 0.0
C2476 C 0.4793 0.57787 0.21783 0.0
C2477 C 0.47352 0.55747 0.21568 0.0
C2478 C 0.46303 0.54384 0.22895 0.0
H2479 H 0.51428 0.50191 0.13958 0.0
H2480 H 0.50031 0.50937 0.16506 0.0
C2481 C 0.45859 0.5506 0.24415 0.0
C2482 C 0.47981 0.551 0.19998 0.0
H2483 H 0.46164 0.51871 0.16579 0.0
C2484 C 0.50087 0.56109 0.19575 0.0
C2485 C 0.46543 0.53558 0.189 0.0
C2486 C 0.44254 0.52479 0.19243 0.0
C2487 C 0.50791 0.55619 0.18092 0.0
C2488 C 0.49357 0.54079 0.17003 0.0
C2489 C 0.47256 0.53052 0.17424 0.0
C2490 C 0.50038 0.53535 0.15418 0.0
C2491 C 0.53066 0.56744 0.17693 0.0
C2492 C 0.50478 0.54739 0.13961 0.0
C2493 C 0.51276 0.54319 0.12504 0.0
C2494 C 0.51663 0.52696 0.12486 0.0
C2495 C 0.51172 0.51466 0.13939 0.0
C2496 C 0.50361 0.5188 0.1539 0.0
H2497 H 0.54003 0.5778 0.18744 0.0
H2498 H 0.53613 0.55657 0.17447 0.0
H2499 H 0.53332 0.57645 0.16518 0.0
H2500 H 0.50243 0.56028 0.13965 0.0
H2501 H 0.51654 0.55304 0.11412 0.0
H2502 H 0.87591 0.4415 0.79015 0.0
H2503 H 0.89536 0.45556 0.81671 0.0
H2504 H 0.94929 0.45903 0.79363 0.0
H2505 H 0.93001 0.44514 0.76704 0.0
H2506 H 0.91397 0.43625 0.83519 0.0
H2507 H 0.9712 0.51495 0.81733 0.0
H2508 H 0.94752 0.49982 0.80552 0.0
H2509 H 0.96914 0.49599 0.80255 0.0
C2510 C 0.89205 0.44571 0.79063 0.0
C2511 C 0.90147 0.44224 0.77655 0.0
C2512 C 0.90309 0.45363 0.80581 0.0
C2513 C 0.92379 0.45849 0.80706 0.0
C2514 C 0.93341 0.45565 0.79284 0.0
H2515 H 1.00286 0.46418 0.88766 0.0
H2516 H 0.98059 0.45705 0.86264 0.0
C2517 C 0.92235 0.44759 0.77772 0.0
C2518 C 0.93485 0.46478 0.8236 0.0
H2519 H 0.97797 0.50242 0.84301 0.0
C2520 C 0.9278 0.45082 0.83699 0.0
C2521 C 0.95282 0.48383 0.82591 0.0
C2522 C 0.96057 0.49962 0.81213 0.0
C2523 C 0.93878 0.45509 0.85241 0.0
C2524 C 0.95724 0.47375 0.85443 0.0
C2525 C 0.96384 0.48807 0.84133 0.0
C2526 C 0.97048 0.47811 0.86967 0.0
C2527 C 0.93083 0.43949 0.86636 0.0
C2528 C 0.97221 0.4924 0.8818 0.0
C2529 C 0.98486 0.49645 0.89616 0.0
C2530 C 0.9962 0.48647 0.89843 0.0
C2531 C 0.99447 0.47223 0.88617 0.0
C2532 C 0.98168 0.46806 0.87194 0.0
H2533 H 0.91448 0.42766 0.86416 0.0
H2534 H 0.94032 0.43206 0.86685 0.0
H2535 H 0.93212 0.44675 0.87894 0.0
H2536 H 0.9637 0.50034 0.88018 0.0
H2537 H 0.98605 0.50761 0.90534 0.0
H2538 H 0.57779 0.44096 0.78814 0.0
H2539 H 0.56223 0.44552 0.814 0.0
H2540 H 0.56329 0.49754 0.79174 0.0
H2541 H 0.57847 0.49287 0.76574 0.0
H2542 H 0.57947 0.48066 0.83539 0.0
H2543 H 0.50336 0.4629 0.80865 0.0
H2544 H 0.52024 0.45584 0.79804 0.0
H2545 H 0.52524 0.48138 0.79691 0.0
C2546 C 0.57439 0.45316 0.78864 0.0
C2547 C 0.57929 0.46651 0.77485 0.0
C2548 C 0.56564 0.45583 0.80347 0.0
C2549 C 0.56141 0.47174 0.80472 0.0
C2550 C 0.56615 0.48499 0.79095 0.0
H2551 H 0.51265 0.5183 0.88107 0.0
H2552 H 0.52732 0.51166 0.85571 0.0
C2553 C 0.57498 0.4824 0.77616 0.0
C2554 C 0.55275 0.47496 0.82065 0.0
H2555 H 0.51139 0.47706 0.8365 0.0
C2556 C 0.56452 0.47974 0.83569 0.0
C2557 C 0.53329 0.47381 0.82097 0.0
C2558 C 0.51968 0.46803 0.80533 0.0
C2559 C 0.55758 0.48394 0.85097 0.0
C2560 C 0.53814 0.48289 0.85128 0.0
C2561 C 0.52631 0.47791 0.83625 0.0
C2562 C 0.52987 0.48718 0.86697 0.0
C2563 C 0.57143 0.49007 0.86649 0.0
C2564 C 0.52635 0.47559 0.88175 0.0
C2565 C 0.51799 0.47938 0.8963 0.0
C2566 C 0.51273 0.49468 0.89627 0.0
C2567 C 0.51631 0.50627 0.88145 0.0
C2568 C 0.52475 0.50253 0.86696 0.0
H2569 H 0.58774 0.49539 0.86302 0.0
H2570 H 0.57078 0.50224 0.87375 0.0
H2571 H 0.56621 0.47683 0.87498 0.0
H2572 H 0.52972 0.46336 0.88195 0.0
H2573 H 0.51513 0.46999 0.90741 0.0
H2574 H 0.52493 0.08524 0.76558 0.0
H2575 H 0.51826 0.06821 0.79318 0.0
H2576 H 0.5719 0.11993 0.81447 0.0
H2577 H 0.57864 0.13713 0.78689 0.0
H2578 H 0.54649 0.06016 0.81494 0.0
H2579 H 0.5207 0.11003 0.84477 0.0
H2580 H 0.52139 0.10731 0.82194 0.0
H2581 H 0.54495 0.122 0.83366 0.0
C2582 C 0.53538 0.09294 0.77611 0.0
C2583 C 0.55227 0.11257 0.77405 0.0
C2584 C 0.53159 0.08317 0.79185 0.0
C2585 C 0.54447 0.09288 0.8059 0.0
C2586 C 0.56169 0.11223 0.80381 0.0
H2587 H 0.53476 0.03604 0.90576 0.0
H2588 H 0.54884 0.05685 0.8801 0.0
C2589 C 0.56561 0.12197 0.78801 0.0
C2590 C 0.53934 0.08295 0.82285 0.0
H2591 H 0.51978 0.08431 0.86185 0.0
C2592 C 0.54086 0.06554 0.82527 0.0
C2593 C 0.53182 0.08991 0.83624 0.0
C2594 C 0.52944 0.10826 0.83412 0.0
C2595 C 0.53489 0.05482 0.8407 0.0
C2596 C 0.5272 0.06169 0.85403 0.0
C2597 C 0.52584 0.07919 0.85166 0.0
C2598 C 0.51907 0.05004 0.87003 0.0
C2599 C 0.53619 0.03584 0.84251 0.0
C2600 C 0.49775 0.03969 0.87304 0.0
C2601 C 0.48971 0.0278 0.88759 0.0
C2602 C 0.50283 0.02615 0.89956 0.0
C2603 C 0.52427 0.03707 0.89681 0.0
C2604 C 0.53231 0.04885 0.88212 0.0
H2605 H 0.54006 0.03116 0.83028 0.0
H2606 H 0.54828 0.03843 0.85203 0.0
H2607 H 0.52131 0.02326 0.8472 0.0
H2608 H 0.48728 0.04049 0.86392 0.0
H2609 H 0.47315 0.01978 0.88943 0.0
H2610 H 0.11126 0.25643 0.59353 0.0
H2611 H 0.12223 0.27204 0.5655 0.0
H2612 H 0.12801 0.22145 0.54829 0.0
H2613 H 0.11637 0.20539 0.57612 0.0
H2614 H 0.15817 0.28351 0.54663 0.0
H2615 H 0.08878 0.22361 0.51303 0.0
H2616 H 0.09032 0.22598 0.53595 0.0
H2617 H 0.10332 0.21489 0.52498 0.0
C2618 C 0.1148 0.24858 0.58377 0.0
C2619 C 0.11274 0.22956 0.58707 0.0
C2620 C 0.1212 0.25759 0.56778 0.0
C2621 C 0.12562 0.24777 0.5547 0.0
C2622 C 0.12433 0.22915 0.5581 0.0
H2623 H 0.14836 0.2814 0.44642 0.0
H2624 H 0.14694 0.26531 0.47385 0.0
C2625 C 0.1179 0.2201 0.5741 0.0
C2626 C 0.13102 0.25689 0.53742 0.0
H2627 H 0.11367 0.24993 0.49623 0.0
C2628 C 0.14851 0.27612 0.53558 0.0
C2629 C 0.11845 0.2472 0.52299 0.0
C2630 C 0.09907 0.22686 0.52427 0.0
C2631 C 0.15362 0.28602 0.51977 0.0
C2632 C 0.14072 0.27659 0.50547 0.0
C2633 C 0.12359 0.25711 0.50719 0.0
C2634 C 0.14366 0.28726 0.489 0.0
C2635 C 0.17278 0.30652 0.51855 0.0
C2636 C 0.14241 0.30497 0.4884 0.0
C2637 C 0.14324 0.31414 0.47283 0.0
C2638 C 0.14521 0.30576 0.45744 0.0
C2639 C 0.14703 0.28832 0.45806 0.0
C2640 C 0.14611 0.27907 0.4737 0.0
H2641 H 0.18416 0.30871 0.52866 0.0
H2642 H 0.18026 0.30865 0.50593 0.0
H2643 H 0.16851 0.31839 0.52023 0.0
H2644 H 0.14013 0.31138 0.49996 0.0
H2645 H 0.14195 0.32765 0.4728 0.0
H2646 H 0.76449 0.86229 0.59126 0.0
H2647 H 0.74403 0.85661 0.56527 0.0
H2648 H 0.79814 0.90214 0.53942 0.0
H2649 H 0.81848 0.90826 0.56554 0.0
H2650 H 0.76564 0.90579 0.53178 0.0
H2651 H 0.74424 0.8256 0.52405 0.0
H2652 H 0.73625 0.8304 0.54421 0.0
H2653 H 0.76333 0.84215 0.53934 0.0
C2654 C 0.77197 0.87107 0.58001 0.0
C2655 C 0.79306 0.88566 0.58038 0.0
C2656 C 0.76032 0.86773 0.56514 0.0
C2657 C 0.76965 0.87861 0.55025 0.0
C2658 C 0.79063 0.89349 0.55072 0.0
H2659 H 0.71207 0.84078 0.45 0.0
H2660 H 0.73496 0.84952 0.4747 0.0
C2661 C 0.80222 0.89702 0.56565 0.0
C2662 C 0.75754 0.87461 0.53423 0.0
H2663 H 0.7262 0.83713 0.50647 0.0
C2664 C 0.75711 0.8908 0.52619 0.0
C2665 C 0.74675 0.85513 0.52672 0.0
C2666 C 0.74782 0.83738 0.53392 0.0
C2667 C 0.74584 0.88796 0.51108 0.0
C2668 C 0.73416 0.86827 0.50408 0.0
C2669 C 0.73495 0.85218 0.51192 0.0
C2670 C 0.72089 0.86395 0.48871 0.0
C2671 C 0.74694 0.90618 0.50262 0.0
C2672 C 0.70532 0.86909 0.48834 0.0
C2673 C 0.69248 0.8645 0.47407 0.0
C2674 C 0.69462 0.85425 0.45997 0.0
C2675 C 0.71017 0.84899 0.46045 0.0
C2676 C 0.72317 0.85381 0.47465 0.0
H2677 H 0.76133 0.92028 0.5062 0.0
H2678 H 0.74626 0.90465 0.48852 0.0
H2679 H 0.7337 0.90781 0.50687 0.0
H2680 H 0.7029 0.87646 0.49917 0.0
H2681 H 0.68087 0.86902 0.47413 0.0
H2682 H 0.11373 0.87183 0.58932 0.0
H2683 H 0.12017 0.85971 0.56225 0.0
H2684 H 0.15583 0.92116 0.54475 0.0
H2685 H 0.14897 0.93327 0.57139 0.0
H2686 H 0.13006 0.89482 0.51961 0.0
H2687 H 0.17633 0.86532 0.55112 0.0
H2688 H 0.15044 0.85534 0.55882 0.0
H2689 H 0.16899 0.88161 0.56199 0.0
C2690 C 0.12271 0.88271 0.5796 0.0
C2691 C 0.13112 0.90353 0.58262 0.0
C2692 C 0.12653 0.87579 0.56421 0.0
C2693 C 0.13882 0.88957 0.55161 0.0
C2694 C 0.14645 0.91026 0.55433 0.0
H2695 H 0.21447 0.88436 0.47263 0.0
H2696 H 0.19895 0.89012 0.4978 0.0
C2697 C 0.14266 0.91717 0.56964 0.0
C2698 C 0.14454 0.88277 0.53581 0.0
H2699 H 0.17282 0.86192 0.52131 0.0
C2700 C 0.13924 0.88745 0.51995 0.0
C2701 C 0.15673 0.87337 0.5363 0.0
C2702 C 0.16364 0.86873 0.55294 0.0
C2703 C 0.1461 0.88331 0.5046 0.0
C2704 C 0.15837 0.874 0.50511 0.0
C2705 C 0.16333 0.86897 0.52095 0.0
C2706 C 0.16743 0.87056 0.48949 0.0
C2707 C 0.14088 0.88969 0.488 0.0
C2708 C 0.15487 0.85762 0.4764 0.0
C2709 C 0.16374 0.85426 0.46194 0.0
C2710 C 0.18533 0.86363 0.46039 0.0
C2711 C 0.19781 0.87666 0.47351 0.0
C2712 C 0.18895 0.88003 0.48789 0.0
H2713 H 0.13515 0.90044 0.49003 0.0
H2714 H 0.15457 0.89687 0.47956 0.0
H2715 H 0.12861 0.87616 0.48132 0.0
H2716 H 0.13822 0.84986 0.47749 0.0
H2717 H 0.15369 0.84394 0.45218 0.0
H2718 H 0.57232 0.79971 0.10587 0.0
H2719 H 0.59246 0.81336 0.13224 0.0
H2720 H 0.57334 0.75287 0.14904 0.0
H2721 H 0.55287 0.73915 0.12306 0.0
H2722 H 0.5718 0.77808 0.17472 0.0
H2723 H 0.64724 0.81393 0.14109 0.0
H2724 H 0.62885 0.82097 0.13392 0.0
H2725 H 0.6235 0.79548 0.13094 0.0
C2726 C 0.57226 0.78935 0.11529 0.0
C2727 C 0.56125 0.76838 0.11229 0.0
C2728 C 0.58387 0.79716 0.13026 0.0
C2729 C 0.58462 0.78412 0.14245 0.0
C2730 C 0.57307 0.76319 0.13974 0.0
H2731 H 0.67075 0.79632 0.21942 0.0
H2732 H 0.64845 0.78924 0.19452 0.0
C2733 C 0.56152 0.75539 0.12483 0.0
C2734 C 0.59785 0.79205 0.15786 0.0
H2735 H 0.64819 0.81698 0.17096 0.0
C2736 C 0.5885 0.78678 0.17394 0.0
C2737 C 0.61963 0.80319 0.15674 0.0
C2738 C 0.6305 0.80865 0.13977 0.0
C2739 C 0.60038 0.79202 0.18896 0.0
C2740 C 0.62215 0.80301 0.18783 0.0
C2741 C 0.63148 0.80864 0.17176 0.0
C2742 C 0.63558 0.80757 0.20304 0.0
C2743 C 0.58957 0.78505 0.20587 0.0
C2744 C 0.63581 0.82032 0.21606 0.0
C2745 C 0.64862 0.82447 0.23033 0.0
C2746 C 0.66153 0.81603 0.23175 0.0
C2747 C 0.66124 0.8033 0.21863 0.0
C2748 C 0.64845 0.79917 0.20441 0.0
H2749 H 0.57302 0.77345 0.20429 0.0
H2750 H 0.59718 0.77867 0.21389 0.0
H2751 H 0.59046 0.79815 0.21278 0.0
H2752 H 0.62623 0.82722 0.21511 0.0
H2753 H 0.6487 0.83456 0.2401 0.0
H2754 H 0.21836 0.77706 0.10402 0.0
H2755 H 0.20371 0.78056 0.13072 0.0
H2756 H 0.26399 0.82732 0.14718 0.0
H2757 H 0.27901 0.82288 0.12118 0.0
H2758 H 0.24461 0.80362 0.1728 0.0
H2759 H 0.19133 0.82439 0.14156 0.0
H2760 H 0.18686 0.80004 0.13495 0.0
H2761 H 0.21094 0.82234 0.12993 0.0
C2762 C 0.22859 0.78791 0.11339 0.0
C2763 C 0.24989 0.79987 0.11023 0.0
C2764 C 0.2201 0.79011 0.12858 0.0
C2765 C 0.23263 0.8046 0.14081 0.0
C2766 C 0.25394 0.81619 0.13789 0.0
H2767 H 0.18846 0.85347 0.2193 0.0
H2768 H 0.20383 0.84722 0.19419 0.0
C2769 C 0.26248 0.81379 0.12285 0.0
C2770 C 0.22368 0.80778 0.15667 0.0
H2771 H 0.1874 0.81872 0.17135 0.0
C2772 C 0.23213 0.80698 0.17247 0.0
C2773 C 0.20761 0.81249 0.15628 0.0
C2774 C 0.1988 0.81508 0.13977 0.0
C2775 C 0.22499 0.81073 0.18785 0.0
C2776 C 0.20842 0.81472 0.1875 0.0
C2777 C 0.19997 0.8155 0.17168 0.0
C2778 C 0.19997 0.81879 0.20324 0.0
C2779 C 0.23578 0.81102 0.20423 0.0
C2780 C 0.1927 0.80496 0.21678 0.0
C2781 C 0.18424 0.80872 0.23129 0.0
C2782 C 0.18242 0.82612 0.23234 0.0
C2783 C 0.18959 0.83989 0.21878 0.0
C2784 C 0.19836 0.83631 0.20443 0.0
H2785 H 0.25168 0.81395 0.20185 0.0
H2786 H 0.23669 0.82272 0.21318 0.0
H2787 H 0.22706 0.79606 0.21046 0.0
H2788 H 0.19318 0.79105 0.21601 0.0
H2789 H 0.17856 0.79773 0.24147 0.0
H2790 H 0.2347 0.43461 0.10185 0.0
H2791 H 0.22822 0.41597 0.12872 0.0
H2792 H 0.19845 0.44746 0.1489 0.0
H2793 H 0.2044 0.46563 0.12206 0.0
H2794 H 0.2393 0.42716 0.16164 0.0
H2795 H 0.15419 0.38985 0.15597 0.0
H2796 H 0.17112 0.4036 0.13861 0.0
H2797 H 0.16632 0.41686 0.15539 0.0
C2798 C 0.22683 0.43755 0.11207 0.0
C2799 C 0.21974 0.45131 0.10976 0.0
C2800 C 0.22311 0.4269 0.1274 0.0
C2801 C 0.21235 0.4299 0.14071 0.0
C2802 C 0.20615 0.44435 0.13866 0.0
H2803 H 0.17428 0.38108 0.24299 0.0
H2804 H 0.18573 0.40296 0.21778 0.0
C2805 C 0.20963 0.45479 0.12332 0.0
C2806 C 0.20742 0.41788 0.15668 0.0
H2807 H 0.16749 0.38683 0.1827 0.0
C2808 C 0.22359 0.41827 0.16618 0.0
C2809 C 0.18688 0.40615 0.16262 0.0
C2810 C 0.16862 0.40389 0.15253 0.0
C2811 C 0.21979 0.40758 0.18157 0.0
C2812 C 0.19934 0.39623 0.1876 0.0
C2813 C 0.18319 0.39577 0.17813 0.0
C2814 C 0.19419 0.38401 0.20339 0.0
C2815 C 0.23765 0.40863 0.19142 0.0
C2816 C 0.19526 0.36621 0.20365 0.0
C2817 C 0.18861 0.35366 0.21794 0.0
C2818 C 0.18084 0.35871 0.23229 0.0
C2819 C 0.18036 0.37689 0.2322 0.0
C2820 C 0.18681 0.38933 0.2178 0.0
H2821 H 0.25277 0.42071 0.18662 0.0
H2822 H 0.2364 0.41138 0.20516 0.0
H2823 H 0.23724 0.39395 0.19026 0.0
H2824 H 0.20072 0.36174 0.19261 0.0
H2825 H 0.18929 0.33983 0.21767 0.0
H2826 H 0.7438 0.54583 0.90448 0.0
H2827 H 0.75705 0.5628 0.87726 0.0
H2828 H 0.81939 0.58771 0.89599 0.0
H2829 H 0.80621 0.57074 0.92333 0.0
H2830 H 0.78033 0.60356 0.87189 0.0
H2831 H 0.82272 0.56553 0.8496 0.0
H2832 H 0.80435 0.55579 0.8668 0.0
H2833 H 0.8301 0.57633 0.87057 0.0
C2834 C 0.76035 0.5549 0.90282 0.0
C2835 C 0.77395 0.55701 0.91615 0.0
C2836 C 0.7679 0.56452 0.88721 0.0
C2837 C 0.78922 0.57638 0.88447 0.0
C2838 C 0.80288 0.57829 0.89764 0.0
H2839 H 0.86634 0.6584 0.80609 0.0
H2840 H 0.85188 0.6366 0.83092 0.0
C2841 C 0.79533 0.56861 0.91329 0.0
C2842 C 0.79701 0.58764 0.8682 0.0
H2843 H 0.82831 0.59463 0.83417 0.0
C2844 C 0.79069 0.60148 0.86358 0.0
C2845 C 0.81056 0.58497 0.85735 0.0
C2846 C 0.8172 0.56972 0.86121 0.0
C2847 C 0.79791 0.61305 0.84866 0.0
C2848 C 0.81157 0.61049 0.83787 0.0
C2849 C 0.8178 0.59655 0.84242 0.0
C2850 C 0.82022 0.62275 0.82219 0.0
C2851 C 0.79136 0.6284 0.84489 0.0
C2852 C 0.80729 0.62188 0.80877 0.0
C2853 C 0.81552 0.63446 0.79456 0.0
C2854 C 0.83686 0.64814 0.79347 0.0
C2855 C 0.8498 0.64836 0.80665 0.0
C2856 C 0.84158 0.63579 0.82081 0.0
H2857 H 0.78491 0.63186 0.85632 0.0
H2858 H 0.80456 0.64269 0.84015 0.0
H2859 H 0.77923 0.62231 0.83485 0.0
H2860 H 0.79079 0.61166 0.80939 0.0
H2861 H 0.8051 0.63391 0.78468 0.0
H2862 H 0.46755 0.20011 0.90061 0.0
H2863 H 0.44731 0.19576 0.87483 0.0
H2864 H 0.4271 0.23524 0.89567 0.0
H2865 H 0.44728 0.23962 0.92163 0.0
H2866 H 0.4046 0.17986 0.87319 0.0
H2867 H 0.44669 0.25795 0.84764 0.0
H2868 H 0.45753 0.24916 0.8638 0.0
H2869 H 0.43854 0.256 0.86941 0.0
C2870 C 0.45878 0.20787 0.89974 0.0
C2871 C 0.45893 0.22013 0.91321 0.0
C2872 C 0.44732 0.20544 0.88495 0.0
C2873 C 0.43587 0.21532 0.88327 0.0
C2874 C 0.43615 0.22779 0.89658 0.0
H2875 H 0.3513 0.21109 0.80485 0.0
H2876 H 0.37276 0.21818 0.8304 0.0
C2877 C 0.44766 0.23025 0.9114 0.0
C2878 C 0.42285 0.21166 0.86791 0.0
H2879 H 0.41571 0.23473 0.83345 0.0
C2880 C 0.40706 0.19184 0.86447 0.0
C2881 C 0.42605 0.22735 0.85662 0.0
C2882 C 0.44322 0.2488 0.85941 0.0
C2883 C 0.39424 0.18727 0.8501 0.0
C2884 C 0.39757 0.20291 0.8387 0.0
C2885 C 0.41324 0.22278 0.84221 0.0
C2886 C 0.38494 0.19888 0.82304 0.0
C2887 C 0.37702 0.16581 0.84742 0.0
C2888 C 0.38493 0.18592 0.81032 0.0
C2889 C 0.37257 0.1817 0.79578 0.0
C2890 C 0.36006 0.19048 0.79362 0.0
C2891 C 0.36047 0.20381 0.80624 0.0
C2892 C 0.37283 0.208 0.82079 0.0
H2893 H 0.37316 0.15694 0.85939 0.0
H2894 H 0.36288 0.16542 0.84253 0.0
H2895 H 0.38191 0.15829 0.83789 0.0
H2896 H 0.39444 0.17899 0.81167 0.0
H2897 H 0.37253 0.17127 0.78637 0.0
H2898 H 0.77781 0.20559 0.92327 0.0
H2899 H 0.78383 0.19241 0.89663 0.0
H2900 H 0.82313 0.2533 0.87902 0.0
H2901 H 0.81664 0.2665 0.90517 0.0
H2902 H 0.79691 0.22823 0.85387 0.0
H2903 H 0.83777 0.19336 0.88602 0.0
H2904 H 0.81204 0.18502 0.8934 0.0
H2905 H 0.83193 0.21079 0.89679 0.0
C2906 C 0.78756 0.21614 0.91364 0.0
C2907 C 0.797 0.23711 0.91648 0.0
C2908 C 0.79113 0.2086 0.89849 0.0
C2909 C 0.80424 0.22188 0.88596 0.0
C2910 C 0.81309 0.24276 0.88855 0.0
H2911 H 0.87661 0.20905 0.80811 0.0
H2912 H 0.86213 0.21658 0.83305 0.0
C2913 C 0.80952 0.25029 0.90361 0.0
C2914 C 0.80931 0.21432 0.87028 0.0
H2915 H 0.83431 0.18993 0.85619 0.0
C2916 C 0.80494 0.2197 0.85435 0.0
C2917 C 0.81998 0.20339 0.87096 0.0
C2918 C 0.8259 0.1979 0.88768 0.0
C2919 C 0.81128 0.2148 0.83909 0.0
C2920 C 0.822 0.20392 0.83978 0.0
C2921 C 0.826 0.19819 0.85569 0.0
C2922 C 0.83046 0.19949 0.82428 0.0
C2923 C 0.8072 0.22202 0.82243 0.0
C2924 C 0.81748 0.18739 0.811 0.0
C2925 C 0.82575 0.18307 0.79665 0.0
C2926 C 0.84714 0.19059 0.79544 0.0
C2927 C 0.86006 0.20279 0.80874 0.0
C2928 C 0.8518 0.20715 0.82299 0.0
H2929 H 0.80299 0.23392 0.82437 0.0
H2930 H 0.82094 0.2281 0.81405 0.0
H2931 H 0.79419 0.20912 0.81572 0.0
H2932 H 0.80092 0.18101 0.81185 0.0
H2933 H 0.81537 0.17342 0.78673 0.0
H2934 H 0.2446 0.13441 0.43999 0.0
H2935 H 0.26545 0.1486 0.46599 0.0
H2936 H 0.24596 0.08841 0.48385 0.0
H2937 H 0.22486 0.0742 0.45828 0.0
H2938 H 0.24492 0.11431 0.50901 0.0
H2939 H 0.32011 0.1488 0.47501 0.0
H2940 H 0.30173 0.15581 0.46776 0.0
H2941 H 0.29623 0.13025 0.46509 0.0
C2942 C 0.24466 0.12425 0.44955 0.0
C2943 C 0.23334 0.10321 0.44698 0.0
C2944 C 0.25667 0.13236 0.46431 0.0
C2945 C 0.25747 0.11954 0.47671 0.0
C2946 C 0.24566 0.09857 0.47439 0.0
H2947 H 0.34249 0.12926 0.55351 0.0
H2948 H 0.3209 0.12353 0.52835 0.0
C2949 C 0.23375 0.09048 0.4597 0.0
C2950 C 0.27087 0.12767 0.49202 0.0
H2951 H 0.3213 0.15167 0.50489 0.0
C2952 C 0.26163 0.12271 0.50815 0.0
C2953 C 0.29264 0.13842 0.49079 0.0
C2954 C 0.30337 0.14356 0.47377 0.0
C2955 C 0.27358 0.12777 0.52312 0.0
C2956 C 0.29535 0.13828 0.52188 0.0
C2957 C 0.3046 0.14369 0.50577 0.0
C2958 C 0.30878 0.14244 0.53706 0.0
C2959 C 0.26282 0.12102 0.54006 0.0
C2960 C 0.3093 0.15516 0.55023 0.0
C2961 C 0.32169 0.15851 0.56465 0.0
C2962 C 0.3339 0.14931 0.56609 0.0
C2963 C 0.3335 0.13678 0.55274 0.0
C2964 C 0.32111 0.13344 0.53836 0.0
H2965 H 0.24617 0.10972 0.53855 0.0
H2966 H 0.27018 0.11437 0.54805 0.0
H2967 H 0.26409 0.13429 0.54698 0.0
H2968 H 0.30017 0.16253 0.54934 0.0
H2969 H 0.3219 0.16849 0.57458 0.0
H2970 H 0.91363 0.10626 0.45023 0.0
H2971 H 0.90065 0.10941 0.47805 0.0
H2972 H 0.90284 0.16424 0.4616 0.0
H2973 H 0.91525 0.16092 0.43367 0.0
H2974 H 0.92093 0.14102 0.50087 0.0
H2975 H 0.84571 0.13328 0.4828 0.0
H2976 H 0.85989 0.12584 0.46878 0.0
H2977 H 0.86671 0.15195 0.47045 0.0
C2978 C 0.91092 0.11875 0.45241 0.0
C2979 C 0.91544 0.13333 0.4397 0.0
C2980 C 0.90362 0.12059 0.46836 0.0
C2981 C 0.90049 0.13689 0.47185 0.0
C2982 C 0.90472 0.1513 0.45911 0.0
H2983 H 0.88324 0.19886 0.55439 0.0
H2984 H 0.88581 0.18446 0.5273 0.0
C2985 C 0.91205 0.14951 0.4432 0.0
C2986 C 0.89425 0.13976 0.48914 0.0
H2987 H 0.8593 0.14816 0.51021 0.0
C2988 C 0.90727 0.14224 0.50299 0.0
C2989 C 0.87641 0.14132 0.49188 0.0
C2990 C 0.86126 0.13776 0.47772 0.0
C2991 C 0.90353 0.14732 0.51931 0.0
C2992 C 0.88609 0.14962 0.52192 0.0
C2993 C 0.87267 0.14641 0.5082 0.0
C2994 C 0.8826 0.15714 0.53836 0.0
C2995 C 0.91887 0.1512 0.53342 0.0
C2996 C 0.87931 0.14629 0.55356 0.0
C2997 C 0.87793 0.15457 0.56915 0.0
C2998 C 0.87983 0.17383 0.56977 0.0
C2999 C 0.8821 0.18415 0.55439 0.0
C3000 C 0.88344 0.17589 0.53888 0.0
H3001 H 0.93344 0.15259 0.52851 0.0
H3002 H 0.92261 0.16524 0.54052 0.0
H3003 H 0.91204 0.13845 0.54253 0.0
H3004 H 0.87824 0.13163 0.55342 0.0
H3005 H 0.8762 0.14626 0.58077 0.0
H3006 H 0.87205 0.80003 0.45522 0.0
H3007 H 0.86633 0.78247 0.48236 0.0
H3008 H 0.89485 0.74967 0.46241 0.0
H3009 H 0.90111 0.7677 0.43529 0.0
H3010 H 0.84291 0.74349 0.48825 0.0
H3011 H 0.92293 0.76655 0.508 0.0
H3012 H 0.9173 0.7787 0.4908 0.0
H3013 H 0.91644 0.755 0.48727 0.0
C3014 C 0.87725 0.78918 0.45666 0.0
C3015 C 0.88696 0.78517 0.44311 0.0
C3016 C 0.87401 0.77917 0.4722 0.0
C3017 C 0.88034 0.76486 0.47457 0.0
C3018 C 0.89028 0.76099 0.4611 0.0
H3019 H 0.84891 0.67224 0.55068 0.0
H3020 H 0.86142 0.69416 0.52565 0.0
C3021 C 0.89375 0.77121 0.44556 0.0
C3022 C 0.87526 0.75319 0.49076 0.0
H3023 H 0.89587 0.73976 0.52378 0.0
C3024 C 0.85456 0.74286 0.49606 0.0
C3025 C 0.89042 0.7523 0.50101 0.0
C3026 C 0.91304 0.76389 0.49659 0.0
C3027 C 0.84859 0.73149 0.51111 0.0
C3028 C 0.86368 0.7304 0.5212 0.0
C3029 C 0.88436 0.74067 0.51598 0.0
C3030 C 0.85796 0.71813 0.53695 0.0
C3031 C 0.82612 0.72039 0.51605 0.0
C3032 C 0.85229 0.72457 0.55172 0.0
C3033 C 0.8452 0.71211 0.56609 0.0
C3034 C 0.84349 0.69292 0.56584 0.0
C3035 C 0.84982 0.68684 0.55119 0.0
C3036 C 0.85707 0.69937 0.53691 0.0
H3037 H 0.816 0.7207 0.50579 0.0
H3038 H 0.82108 0.70441 0.51911 0.0
H3039 H 0.82399 0.72748 0.52765 0.0
H3040 H 0.85292 0.73904 0.55199 0.0
H3041 H 0.84032 0.71716 0.57713 0.0
loop_
_geom_bond_atom_site_label_1
_geom_bond_atom_site_label_2
_geom_bond_distance
_geom_bond_site_symmetry_2
_ccdc_geom_bond_type
H0 C1 0.949 . S
C1 H0 0.949 . S
C1 C2 1.395 . S
C1 C3 1.391 . S
C2 C1 1.395 . S
C2 C5 1.390 . S
C3 C1 1.391 . S
C3 C7 1.387 . S
C3 C8 1.491 . S
H4 C5 0.950 . S
C5 C2 1.390 . S
C5 H4 0.950 . S
C5 C6 1.378 . S
C6 C5 1.378 . S
C6 C7 1.409 . S
C7 C3 1.387 . S
C7 C6 1.409 . S
C7 H9 0.951 . S
C8 C3 1.491 . S
C8 C10 1.382 . S
C8 C12 1.404 . S
H9 C7 0.951 . S
C10 C8 1.382 . S
C10 C11 1.390 . S
C10 H15 0.949 . S
C11 C10 1.390 . S
C11 C16 1.399 . S
C12 C8 1.404 . S
C12 H13 0.950 . S
C12 C14 1.375 . S
H13 C12 0.950 . S
C14 C12 1.375 . S
C14 C16 1.382 . S
C14 H18 0.950 . S
H15 C10 0.949 . S
C16 C11 1.399 . S
C16 C14 1.382 . S
C16 H17 0.952 . S
H17 C16 0.952 . S
H18 C14 0.950 . S
H19 C20 0.949 . S
C20 H19 0.949 . S
C20 C21 1.395 . S
C20 C22 1.391 . S
C21 C20 1.395 . S
C21 C24 1.390 . S
C22 C20 1.391 . S
C22 C26 1.387 . S
C22 C27 1.491 . S
H23 C24 0.950 . S
C24 C21 1.390 . S
C24 H23 0.950 . S
C24 C25 1.378 . S
C25 C24 1.378 . S
C25 C26 1.409 . S
C26 C22 1.387 . S
C26 C25 1.409 . S
C26 H28 0.951 . S
C27 C22 1.491 . S
C27 C29 1.382 . S
C27 C31 1.404 . S
H28 C26 0.951 . S
C29 C27 1.382 . S
C29 C30 1.390 . S
C29 H34 0.949 . S
C30 C29 1.390 . S
C30 C35 1.399 . S
C31 C27 1.404 . S
C31 H32 0.950 . S
C31 C33 1.375 . S
H32 C31 0.950 . S
C33 C31 1.375 . S
C33 C35 1.382 . S
C33 H37 0.950 . S
H34 C29 0.949 . S
C35 C30 1.399 . S
C35 C33 1.382 . S
C35 H36 0.952 . S
H36 C35 0.952 . S
H37 C33 0.950 . S
H38 C39 0.949 . S
C39 H38 0.949 . S
C39 C40 1.395 . S
C39 C41 1.391 . S
C40 C39 1.395 . S
C40 C43 1.390 . S
C41 C39 1.391 . S
C41 C45 1.387 . S
C41 C46 1.491 . S
H42 C43 0.950 . S
C43 C40 1.390 . S
C43 H42 0.950 . S
C43 C44 1.378 . S
C44 C43 1.378 . S
C44 C45 1.409 . S
C45 C41 1.387 . S
C45 C44 1.409 . S
C45 H47 0.951 . S
C46 C41 1.491 . S
C46 C48 1.382 . S
C46 C50 1.404 . S
H47 C45 0.951 . S
C48 C46 1.382 . S
C48 C49 1.390 . S
C48 H53 0.949 . S
C49 C48 1.390 . S
C49 C54 1.399 . S
C50 C46 1.404 . S
C50 H51 0.950 . S
C50 C52 1.375 . S
H51 C50 0.950 . S
C52 C50 1.375 . S
C52 C54 1.382 . S
C52 H56 0.950 . S
H53 C48 0.949 . S
C54 C49 1.399 . S
C54 C52 1.382 . S
C54 H55 0.952 . S
H55 C54 0.952 . S
H56 C52 0.950 . S
H57 C58 0.949 . S
C58 H57 0.949 . S
C58 C59 1.395 . S
C58 C60 1.391 . S
C59 C58 1.395 . S
C59 C62 1.390 . S
C60 C58 1.391 . S
C60 C64 1.387 . S
C60 C65 1.491 . S
H61 C62 0.950 . S
C62 C59 1.390 . S
C62 H61 0.950 . S
C62 C63 1.378 . S
C63 C62 1.378 . S
C63 C64 1.409 . S
C64 C60 1.387 . S
C64 C63 1.409 . S
C64 H66 0.951 . S
C65 C60 1.491 . S
C65 C67 1.382 . S
C65 C69 1.404 . S
H66 C64 0.951 . S
C67 C65 1.382 . S
C67 C68 1.390 . S
C67 H72 0.949 . S
C68 C67 1.390 . S
C68 C73 1.399 . S
C69 C65 1.404 . S
C69 H70 0.950 . S
C69 C71 1.375 . S
H70 C69 0.950 . S
C71 C69 1.375 . S
C71 C73 1.382 . S
C71 H75 0.950 . S
H72 C67 0.949 . S
C73 C68 1.399 . S
C73 C71 1.382 . S
C73 H74 0.952 . S
H74 C73 0.952 . S
H75 C71 0.950 . S
H76 C77 0.949 . S
C77 H76 0.949 . S
C77 C78 1.395 . S
C77 C79 1.391 . S
C78 C77 1.395 . S
C78 C81 1.390 . S
C79 C77 1.391 . S
C79 C83 1.387 . S
C79 C84 1.491 . S
H80 C81 0.950 . S
C81 C78 1.390 . S
C81 H80 0.950 . S
C81 C82 1.378 . S
C82 C81 1.378 . S
C82 C83 1.409 . S
C83 C79 1.387 . S
C83 C82 1.409 . S
C83 H85 0.951 . S
C84 C79 1.491 . S
C84 C86 1.382 . S
C84 C88 1.404 . S
H85 C83 0.951 . S
C86 C84 1.382 . S
C86 C87 1.390 . S
C86 H91 0.949 . S
C87 C86 1.390 . S
C87 C92 1.399 . S
C88 C84 1.404 . S
C88 H89 0.950 . S
C88 C90 1.375 . S
H89 C88 0.950 . S
C90 C88 1.375 . S
C90 C92 1.382 . S
C90 H94 0.950 . S
H91 C86 0.949 . S
C92 C87 1.399 . S
C92 C90 1.382 . S
C92 H93 0.952 . S
H93 C92 0.952 . S
H94 C90 0.950 . S
H95 C96 0.949 . S
C96 H95 0.949 . S
C96 C97 1.395 . S
C96 C98 1.391 . S
C97 C96 1.395 . S
C97 C100 1.390 . S
C98 C96 1.391 . S
C98 C102 1.387 . S
C98 C103 1.491 . S
H99 C100 0.950 . S
C100 C97 1.390 . S
C100 H99 0.950 . S
C100 C101 1.378 . S
C101 C100 1.378 . S
C101 C102 1.409 . S
C102 C98 1.387 . S
C102 C101 1.409 . S
C102 H104 0.951 . S
C103 C98 1.491 . S
C103 C105 1.382 . S
C103 C107 1.404 . S
H104 C102 0.951 . S
C105 C103 1.382 . S
C105 C106 1.390 . S
C105 H110 0.949 . S
C106 C105 1.390 . S
C106 C111 1.399 . S
C107 C103 1.404 . S
C107 H108 0.950 . S
C107 C109 1.375 . S
H108 C107 0.950 . S
C109 C107 1.375 . S
C109 C111 1.382 . S
C109 H113 0.950 . S
H110 C105 0.949 . S
C111 C106 1.399 . S
C111 C109 1.382 . S
C111 H112 0.952 . S
H112 C111 0.952 . S
H113 C109 0.950 . S
H114 C115 0.949 . S
C115 H114 0.949 . S
C115 C116 1.395 . S
C115 C117 1.391 . S
C116 C115 1.395 . S
C116 C119 1.390 . S
C117 C115 1.391 . S
C117 C121 1.387 . S
C117 C122 1.491 . S
H118 C119 0.950 . S
C119 C116 1.390 . S
C119 H118 0.950 . S
C119 C120 1.378 . S
C120 C119 1.378 . S
C120 C121 1.409 . S
C121 C117 1.387 . S
C121 C120 1.409 . S
C121 H123 0.951 . S
C122 C117 1.491 . S
C122 C124 1.382 . S
C122 C126 1.404 . S
H123 C121 0.951 . S
C124 C122 1.382 . S
C124 C125 1.390 . S
C124 H129 0.949 . S
C125 C124 1.390 . S
C125 C130 1.399 . S
C126 C122 1.404 . S
C126 H127 0.950 . S
C126 C128 1.375 . S
H127 C126 0.950 . S
C128 C126 1.375 . S
C128 C130 1.382 . S
C128 H132 0.950 . S
H129 C124 0.949 . S
C130 C125 1.399 . S
C130 C128 1.382 . S
C130 H131 0.952 . S
H131 C130 0.952 . S
H132 C128 0.950 . S
H133 C134 0.949 . S
C134 H133 0.949 . S
C134 C135 1.395 . S
C134 C136 1.391 . S
C135 C134 1.395 . S
C135 C138 1.390 . S
C136 C134 1.391 . S
C136 C140 1.387 . S
C136 C141 1.491 . S
H137 C138 0.950 . S
C138 C135 1.390 . S
C138 H137 0.950 . S
C138 C139 1.378 . S
C139 C138 1.378 . S
C139 C140 1.409 . S
C140 C136 1.387 . S
C140 C139 1.409 . S
C140 H142 0.951 . S
C141 C136 1.491 . S
C141 C143 1.382 . S
C141 C145 1.404 . S
H142 C140 0.951 . S
C143 C141 1.382 . S
C143 C144 1.390 . S
C143 H148 0.949 . S
C144 C143 1.390 . S
C144 C149 1.399 . S
C145 C141 1.404 . S
C145 H146 0.950 . S
C145 C147 1.375 . S
H146 C145 0.950 . S
C147 C145 1.375 . S
C147 C149 1.382 . S
C147 H151 0.950 . S
H148 C143 0.949 . S
C149 C144 1.399 . S
C149 C147 1.382 . S
C149 H150 0.952 . S
H150 C149 0.952 . S
H151 C147 0.950 . S
H152 C153 0.949 . S
C153 H152 0.949 . S
C153 C154 1.395 . S
C153 C155 1.391 . S
C154 C153 1.395 . S
C154 C157 1.390 . S
C155 C153 1.391 . S
C155 C159 1.387 . S
C155 C160 1.491 . S
H156 C157 0.950 . S
C157 C154 1.390 . S
C157 H156 0.950 . S
C157 C158 1.378 . S
C158 C157 1.378 . S
C158 C159 1.409 . S
C159 C155 1.387 . S
C159 C158 1.409 . S
C159 H161 0.951 . S
C160 C155 1.491 . S
C160 C162 1.382 . S
C160 C164 1.404 . S
H161 C159 0.951 . S
C162 C160 1.382 . S
C162 C163 1.390 . S
C162 H167 0.949 . S
C163 C162 1.390 . S
C163 C168 1.399 . S
C164 C160 1.404 . S
C164 H165 0.950 . S
C164 C166 1.375 . S
H165 C164 0.950 . S
C166 C164 1.375 . S
C166 C168 1.382 . S
C166 H170 0.950 . S
H167 C162 0.949 . S
C168 C163 1.399 . S
C168 C166 1.382 . S
C168 H169 0.952 . S
H169 C168 0.952 . S
H170 C166 0.950 . S
H171 C172 0.949 . S
C172 H171 0.949 . S
C172 C173 1.395 . S
C172 C174 1.391 . S
C173 C172 1.395 . S
C173 C176 1.390 . S
C174 C172 1.391 . S
C174 C178 1.387 . S
C174 C179 1.491 . S
H175 C176 0.950 . S
C176 C173 1.390 . S
C176 H175 0.950 . S
C176 C177 1.378 . S
C177 C176 1.378 . S
C177 C178 1.409 . S
C178 C174 1.387 . S
C178 C177 1.409 . S
C178 H180 0.951 . S
C179 C174 1.491 . S
C179 C181 1.382 . S
C179 C183 1.404 . S
H180 C178 0.951 . S
C181 C179 1.382 . S
C181 C182 1.390 . S
C181 H186 0.949 . S
C182 C181 1.390 . S
C182 C187 1.399 . S
C183 C179 1.404 . S
C183 H184 0.950 . S
C183 C185 1.375 . S
H184 C183 0.950 . S
C185 C183 1.375 . S
C185 C187 1.382 . S
C185 H189 0.950 . S
H186 C181 0.949 . S
C187 C182 1.399 . S
C187 C185 1.382 . S
C187 H188 0.952 . S
H188 C187 0.952 . S
H189 C185 0.950 . S
H190 C191 0.949 . S
C191 H190 0.949 . S
C191 C192 1.395 . S
C191 C193 1.391 . S
C192 C191 1.395 . S
C192 C195 1.390 . S
C193 C191 1.391 . S
C193 C197 1.387 . S
C193 C198 1.491 . S
H194 C195 0.950 . S
C195 C192 1.390 . S
C195 H194 0.950 . S
C195 C196 1.378 . S
C196 C195 1.378 . S
C196 C197 1.409 . S
C197 C193 1.387 . S
C197 C196 1.409 . S
C197 H199 0.951 . S
C198 C193 1.491 . S
C198 C200 1.382 . S
C198 C202 1.404 . S
H199 C197 0.951 . S
C200 C198 1.382 . S
C200 C201 1.390 . S
C200 H205 0.949 . S
C201 C200 1.390 . S
C201 C206 1.399 . S
C202 C198 1.404 . S
C202 H203 0.950 . S
C202 C204 1.375 . S
H203 C202 0.950 . S
C204 C202 1.375 . S
C204 C206 1.382 . S
C204 H208 0.950 . S
H205 C200 0.949 . S
C206 C201 1.399 . S
C206 C204 1.382 . S
C206 H207 0.952 . S
H207 C206 0.952 . S
H208 C204 0.950 . S
H209 C210 0.949 . S
C210 H209 0.949 . S
C210 C211 1.395 . S
C210 C212 1.391 . S
C211 C210 1.395 . S
C211 C214 1.390 . S
C212 C210 1.391 . S
C212 C216 1.387 . S
C212 C217 1.491 . S
H213 C214 0.950 . S
C214 C211 1.390 . S
C214 H213 0.950 . S
C214 C215 1.378 . S
C215 C214 1.378 . S
C215 C216 1.409 . S
C216 C212 1.387 . S
C216 C215 1.409 . S
C216 H218 0.951 . S
C217 C212 1.491 . S
C217 C219 1.382 . S
C217 C221 1.404 . S
H218 C216 0.951 . S
C219 C217 1.382 . S
C219 C220 1.390 . S
C219 H224 0.949 . S
C220 C219 1.390 . S
C220 C225 1.399 . S
C221 C217 1.404 . S
C221 H222 0.950 . S
C221 C223 1.375 . S
H222 C221 0.950 . S
C223 C221 1.375 . S
C223 C225 1.382 . S
C223 H227 0.950 . S
H224 C219 0.949 . S
C225 C220 1.399 . S
C225 C223 1.382 . S
C225 H226 0.952 . S
H226 C225 0.952 . S
H227 C223 0.950 . S
H228 C229 0.949 . S
C229 H228 0.949 . S
C229 C230 1.395 . S
C229 C231 1.391 . S
C230 C229 1.395 . S
C230 C233 1.390 . S
C231 C229 1.391 . S
C231 C235 1.387 . S
C231 C236 1.491 . S
H232 C233 0.950 . S
C233 C230 1.390 . S
C233 H232 0.950 . S
C233 C234 1.378 . S
C234 C233 1.378 . S
C234 C235 1.409 . S
C235 C231 1.387 . S
C235 C234 1.409 . S
C235 H237 0.951 . S
C236 C231 1.491 . S
C236 C238 1.382 . S
C236 C240 1.404 . S
H237 C235 0.951 . S
C238 C236 1.382 . S
C238 C239 1.390 . S
C238 H243 0.949 . S
C239 C238 1.390 . S
C239 C244 1.399 . S
C240 C236 1.404 . S
C240 H241 0.950 . S
C240 C242 1.375 . S
H241 C240 0.950 . S
C242 C240 1.375 . S
C242 C244 1.382 . S
C242 H246 0.950 . S
H243 C238 0.949 . S
C244 C239 1.399 . S
C244 C242 1.382 . S
C244 H245 0.952 . S
H245 C244 0.952 . S
H246 C242 0.950 . S
H247 C248 0.949 . S
C248 H247 0.949 . S
C248 C249 1.395 . S
C248 C250 1.391 . S
C249 C248 1.395 . S
C249 C252 1.390 . S
C250 C248 1.391 . S
C250 C254 1.387 . S
C250 C255 1.491 . S
H251 C252 0.950 . S
C252 C249 1.390 . S
C252 H251 0.950 . S
C252 C253 1.378 . S
C253 C252 1.378 . S
C253 C254 1.409 . S
C254 C250 1.387 . S
C254 C253 1.409 . S
C254 H256 0.951 . S
C255 C250 1.491 . S
C255 C257 1.382 . S
C255 C259 1.404 . S
H256 C254 0.951 . S
C257 C255 1.382 . S
C257 C258 1.390 . S
C257 H262 0.949 . S
C258 C257 1.390 . S
C258 C263 1.399 . S
C259 C255 1.404 . S
C259 H260 0.950 . S
C259 C261 1.375 . S
H260 C259 0.950 . S
C261 C259 1.375 . S
C261 C263 1.382 . S
C261 H265 0.950 . S
H262 C257 0.949 . S
C263 C258 1.399 . S
C263 C261 1.382 . S
C263 H264 0.952 . S
H264 C263 0.952 . S
H265 C261 0.950 . S
H266 C267 0.949 . S
C267 H266 0.949 . S
C267 C268 1.395 . S
C267 C269 1.391 . S
C268 C267 1.395 . S
C268 C271 1.390 . S
C269 C267 1.391 . S
C269 C273 1.387 . S
C269 C274 1.491 . S
H270 C271 0.950 . S
C271 C268 1.390 . S
C271 H270 0.950 . S
C271 C272 1.378 . S
C272 C271 1.378 . S
C272 C273 1.409 . S
C273 C269 1.387 . S
C273 C272 1.409 . S
C273 H275 0.951 . S
C274 C269 1.491 . S
C274 C276 1.382 . S
C274 C278 1.404 . S
H275 C273 0.951 . S
C276 C274 1.382 . S
C276 C277 1.390 . S
C276 H281 0.949 . S
C277 C276 1.390 . S
C277 C282 1.399 . S
C278 C274 1.404 . S
C278 H279 0.950 . S
C278 C280 1.375 . S
H279 C278 0.950 . S
C280 C278 1.375 . S
C280 C282 1.382 . S
C280 H284 0.950 . S
H281 C276 0.949 . S
C282 C277 1.399 . S
C282 C280 1.382 . S
C282 H283 0.952 . S
H283 C282 0.952 . S
H284 C280 0.950 . S
H285 C286 0.949 . S
C286 H285 0.949 . S
C286 C287 1.395 . S
C286 C288 1.391 . S
C287 C286 1.395 . S
C287 C290 1.390 . S
C288 C286 1.391 . S
C288 C292 1.387 . S
C288 C293 1.491 . S
H289 C290 0.950 . S
C290 C287 1.390 . S
C290 H289 0.950 . S
C290 C291 1.378 . S
C291 C290 1.378 . S
C291 C292 1.409 . S
C292 C288 1.387 . S
C292 C291 1.409 . S
C292 H294 0.951 . S
C293 C288 1.491 . S
C293 C295 1.382 . S
C293 C297 1.404 . S
H294 C292 0.951 . S
C295 C293 1.382 . S
C295 C296 1.390 . S
C295 H300 0.949 . S
C296 C295 1.390 . S
C296 C301 1.399 . S
C297 C293 1.404 . S
C297 H298 0.950 . S
C297 C299 1.375 . S
H298 C297 0.950 . S
C299 C297 1.375 . S
C299 C301 1.382 . S
C299 H303 0.950 . S
H300 C295 0.949 . S
C301 C296 1.399 . S
C301 C299 1.382 . S
C301 H302 0.952 . S
H302 C301 0.952 . S
H303 C299 0.950 . S
H304 C305 0.949 . S
C305 H304 0.949 . S
C305 C306 1.395 . S
C305 C307 1.391 . S
C306 C305 1.395 . S
C306 C309 1.390 . S
C307 C305 1.391 . S
C307 C311 1.387 . S
C307 C312 1.491 . S
H308 C309 0.950 . S
C309 C306 1.390 . S
C309 H308 0.950 . S
C309 C310 1.378 . S
C310 C309 1.378 . S
C310 C311 1.409 . S
C311 C307 1.387 . S
C311 C310 1.409 . S
C311 H313 0.951 . S
C312 C307 1.491 . S
C312 C314 1.382 . S
C312 C316 1.404 . S
H313 C311 0.951 . S
C314 C312 1.382 . S
C314 C315 1.390 . S
C314 H319 0.949 . S
C315 C314 1.390 . S
C315 C320 1.399 . S
C316 C312 1.404 . S
C316 H317 0.950 . S
C316 C318 1.375 . S
H317 C316 0.950 . S
C318 C316 1.375 . S
C318 C320 1.382 . S
C318 H322 0.950 . S
H319 C314 0.949 . S
C320 C315 1.399 . S
C320 C318 1.382 . S
C320 H321 0.952 . S
H321 C320 0.952 . S
H322 C318 0.950 . S
H323 C324 0.949 . S
C324 H323 0.949 . S
C324 C325 1.395 . S
C324 C326 1.391 . S
C325 C324 1.395 . S
C325 C328 1.390 . S
C326 C324 1.391 . S
C326 C330 1.387 . S
C326 C331 1.491 . S
H327 C328 0.950 . S
C328 C325 1.390 . S
C328 H327 0.950 . S
C328 C329 1.378 . S
C329 C328 1.378 . S
C329 C330 1.409 . S
C330 C326 1.387 . S
C330 C329 1.409 . S
C330 H332 0.951 . S
C331 C326 1.491 . S
C331 C333 1.382 . S
C331 C335 1.404 . S
H332 C330 0.951 . S
C333 C331 1.382 . S
C333 C334 1.390 . S
C333 H338 0.949 . S
C334 C333 1.390 . S
C334 C339 1.399 . S
C335 C331 1.404 . S
C335 H336 0.950 . S
C335 C337 1.375 . S
H336 C335 0.950 . S
C337 C335 1.375 . S
C337 C339 1.382 . S
C337 H341 0.950 . S
H338 C333 0.949 . S
C339 C334 1.399 . S
C339 C337 1.382 . S
C339 H340 0.952 . S
H340 C339 0.952 . S
H341 C337 0.950 . S
Tb342 N373 2.660 . S
Tb342 N380 2.600 . S
Tb342 O386 2.546 . S
Tb342 O387 2.610 1_566 S
Tb342 O389 2.320 1_565 S
Tb342 O390 2.552 1_565 S
Tb342 O391 2.413 1_565 S
Tb342 O393 2.362 1_556 S
Tb342 O394 2.421 . S
Tb342 C406 2.833 1_565 S
C343 C346 1.432 . S
C343 C347 1.414 . S
C343 N350 1.359 . S
C344 C346 1.417 . S
C344 C348 1.432 . S
C344 C356 1.410 . S
C345 C347 1.444 . S
C345 C348 1.317 . S
C345 H368 0.929 . S
C346 C343 1.432 . S
C346 C344 1.417 . S
C346 N354 1.360 . S
C347 C343 1.414 . S
C347 C345 1.444 . S
C347 C352 1.385 . S
C348 C344 1.432 . S
C348 C345 1.317 . S
C348 H360 0.930 . S
C349 C351 1.392 . S
C349 C352 1.370 . S
C349 H361 0.931 . S
N350 C343 1.359 . S
N350 C351 1.327 . S
N350 Tb353 2.600 . S
C351 C349 1.392 . S
C351 N350 1.327 . S
C351 H358 0.930 . S
C352 C347 1.385 . S
C352 C349 1.370 . S
C352 H371 0.930 . S
Tb353 N350 2.600 . S
Tb353 N354 2.660 . S
Tb353 O387 2.362 . S
Tb353 O388 2.421 . S
Tb353 O392 2.546 . S
Tb353 O393 2.610 1_545 S
Tb353 O395 2.320 1_545 S
Tb353 O396 2.552 1_545 S
Tb353 O397 2.413 1_545 S
Tb353 C417 2.835 . S
N354 C346 1.360 . S
N354 Tb353 2.660 . S
N354 C355 1.305 . S
C355 N354 1.305 . S
C355 C357 1.407 . S
C355 H362 0.930 . S
C356 C344 1.410 . S
C356 C357 1.345 . S
C356 H364 0.930 . S
C357 C355 1.407 . S
C357 C356 1.345 . S
C357 H359 0.930 . S
H358 C351 0.930 . S
H359 C357 0.930 . S
H360 C348 0.930 . S
H361 C349 0.931 . S
H362 C355 0.930 . S
H363 C377 0.930 . S
H364 C356 0.930 . S
H365 C383 0.930 . S
H366 C374 0.930 1_545 S
H367 C381 0.931 . S
H368 C345 0.929 . S
H369 C375 0.930 . S
H370 C408 0.930 . S
H371 C352 0.930 . S
H372 C407 0.929 . S
N373 Tb342 2.660 . S
N373 C374 1.305 . S
N373 C378 1.360 . S
C374 H366 0.930 1_565 S
C374 N373 1.305 . S
C374 C377 1.407 . S
C375 H369 0.930 . S
C375 C376 1.410 . S
C375 C377 1.345 . S
C376 C375 1.410 . S
C376 C378 1.417 . S
C376 C408 1.432 . S
C377 H363 0.930 . S
C377 C374 1.407 . S
C377 C375 1.345 . S
C378 N373 1.360 . S
C378 C376 1.417 . S
C378 C382 1.432 . S
H379 C384 0.930 . S
N380 Tb342 2.600 . S
N380 C382 1.359 . S
N380 C383 1.327 . S
C381 H367 0.931 . S
C381 C383 1.392 . S
C381 C384 1.370 . S
C382 C378 1.432 . S
C382 N380 1.359 . S
C382 C385 1.414 . S
C383 H365 0.930 . S
C383 N380 1.327 . S
C383 C381 1.392 . S
C384 H379 0.930 . S
C384 C381 1.370 . S
C384 C385 1.385 . S
C385 C382 1.414 . S
C385 C384 1.385 . S
C385 C407 1.444 . S
O386 Tb342 2.546 . S
O386 C406 1.251 1_565 S
O387 Tb342 2.610 1_544 S
O387 Tb353 2.362 . S
O387 C398 1.283 1_554 S
O388 Tb353 2.421 . S
O388 C405 1.262 . S
O389 Tb342 2.320 1_545 S
O389 C405 1.260 1_556 S
O390 Tb342 2.552 1_545 S
O390 C398 1.243 . S
O391 Tb342 2.413 1_545 S
O391 C406 1.256 . S
O392 Tb353 2.546 . S
O392 C417 1.263 . S
O393 Tb342 2.362 1_554 S
O393 Tb353 2.610 1_565 S
O393 C409 1.283 . S
O394 Tb342 2.421 . S
O394 C416 1.262 1_556 S
O395 Tb353 2.320 1_565 S
O395 C416 1.260 . S
O396 Tb353 2.552 1_565 S
O396 C409 1.243 . S
O397 Tb353 2.413 1_565 S
O397 C417 1.246 1_565 S
C398 O387 1.283 1_556 S
C398 O390 1.243 . S
C399 C401 1.382 . S
C399 C403 1.434 . S
C399 C406 1.500 . S
C400 C401 1.400 . S
C400 C402 1.384 . S
C401 C399 1.382 . S
C401 C400 1.400 . S
C401 H418 0.930 . S
C402 C400 1.384 . S
C402 C404 1.392 . S
C402 H419 0.931 . S
C403 C399 1.434 . S
C403 C404 1.415 . S
C403 H420 0.878 1_545 S
C404 C402 1.392 . S
C404 C403 1.415 . S
C404 H421 0.916 1_545 S
C405 O388 1.262 . S
C405 O389 1.260 1_554 S
C406 Tb342 2.833 1_545 S
C406 O386 1.251 1_545 S
C406 O391 1.256 . S
C406 C399 1.500 . S
C407 H372 0.929 . S
C407 C385 1.444 . S
C407 C408 1.317 . S
C408 H370 0.930 . S
C408 C376 1.432 . S
C408 C407 1.317 . S
C409 O393 1.283 . S
C409 O396 1.243 . S
C410 C411 1.382 . S
C410 C414 1.393 1_565 S
C410 C417 1.497 1_565 S
C411 C410 1.382 . S
C411 C412 1.400 . S
C411 H422 0.930 . S
C412 C411 1.400 . S
C412 C413 1.384 . S
C413 C412 1.384 . S
C413 C415 1.392 . S
C413 H423 0.931 . S
C414 C410 1.393 1_545 S
C414 C415 1.401 1_545 S
C414 H424 0.930 . S
C415 C413 1.392 . S
C415 C414 1.401 1_565 S
C415 H425 0.930 1_565 S
C416 O394 1.262 1_554 S
C416 O395 1.260 . S
C417 Tb353 2.835 . S
C417 O392 1.263 . S
C417 O397 1.246 1_545 S
C417 C410 1.497 1_545 S
H418 C401 0.930 . S
H419 C402 0.931 . S
H420 C403 0.878 1_565 S
H421 C404 0.916 1_565 S
H422 C411 0.930 . S
H423 C413 0.931 . S
H424 C414 0.930 . S
H425 C415 0.930 1_545 S
Tb426 N457 2.660 . S
Tb426 N464 2.600 . S
Tb426 O470 2.546 . S
Tb426 O471 2.610 1_456 S
Tb426 O473 2.320 1_455 S
Tb426 O474 2.552 1_455 S
Tb426 O475 2.413 1_455 S
Tb426 O477 2.362 1_556 S
Tb426 O478 2.421 . S
Tb426 C490 2.833 . S
C427 C430 1.432 . S
C427 C431 1.414 . S
C427 N434 1.359 . S
C428 C430 1.417 . S
C428 C432 1.432 . S
C428 C440 1.410 . S
C429 C431 1.444 . S
C429 C432 1.317 . S
C429 H452 0.929 . S
C430 C427 1.432 . S
C430 C428 1.417 . S
C430 N438 1.360 . S
C431 C427 1.414 . S
C431 C429 1.444 . S
C431 C436 1.385 . S
C432 C428 1.432 . S
C432 C429 1.317 . S
C432 H444 0.930 . S
C433 C435 1.392 . S
C433 C436 1.370 . S
C433 H445 0.931 . S
N434 C427 1.359 . S
N434 C435 1.327 . S
N434 Tb437 2.600 . S
C435 C433 1.392 . S
C435 N434 1.327 . S
C435 H442 0.930 . S
C436 C431 1.385 . S
C436 C433 1.370 . S
C436 H455 0.930 . S
Tb437 N434 2.600 . S
Tb437 N438 2.660 . S
Tb437 O471 2.362 . S
Tb437 O472 2.421 . S
Tb437 O476 2.546 . S
Tb437 O477 2.610 1_655 S
Tb437 O479 2.320 1_655 S
Tb437 O480 2.552 1_655 S
Tb437 O481 2.413 1_655 S
Tb437 C501 2.833 1_655 S
N438 C430 1.360 . S
N438 Tb437 2.660 . S
N438 C439 1.305 . S
C439 N438 1.305 . S
C439 C441 1.407 . S
C439 H446 0.930 1_655 S
C440 C428 1.410 . S
C440 C441 1.345 . S
C440 H448 0.930 . S
C441 C439 1.407 . S
C441 C440 1.345 . S
C441 H443 0.930 . S
H442 C435 0.930 . S
H443 C441 0.930 . S
H444 C432 0.930 . S
H445 C433 0.931 . S
H446 C439 0.930 1_455 S
H447 C461 0.930 . S
H448 C440 0.930 . S
H449 C467 0.930 . S
H450 C458 0.930 . S
H451 C465 0.931 . S
H452 C429 0.929 . S
H453 C459 0.930 . S
H454 C492 0.930 . S
H455 C436 0.930 . S
H456 C491 0.929 . S
N457 Tb426 2.660 . S
N457 C458 1.305 . S
N457 C462 1.360 . S
C458 H450 0.930 . S
C458 N457 1.305 . S
C458 C461 1.407 . S
C459 H453 0.930 . S
C459 C460 1.410 . S
C459 C461 1.345 . S
C460 C459 1.410 . S
C460 C462 1.417 . S
C460 C492 1.432 . S
C461 H447 0.930 . S
C461 C458 1.407 . S
C461 C459 1.345 . S
C462 N457 1.360 . S
C462 C460 1.417 . S
C462 C466 1.432 . S
H463 C468 0.930 . S
N464 Tb426 2.600 . S
N464 C466 1.359 . S
N464 C467 1.327 . S
C465 H451 0.931 . S
C465 C467 1.392 . S
C465 C468 1.370 . S
C466 C462 1.432 . S
C466 N464 1.359 . S
C466 C469 1.414 . S
C467 H449 0.930 . S
C467 N464 1.327 . S
C467 C465 1.392 . S
C468 H463 0.930 . S
C468 C465 1.370 . S
C468 C469 1.385 . S
C469 C466 1.414 . S
C469 C468 1.385 . S
C469 C491 1.444 . S
O470 Tb426 2.546 . S
O470 C490 1.251 . S
O471 Tb426 2.610 1_654 S
O471 Tb437 2.362 . S
O471 C482 1.283 1_554 S
O472 Tb437 2.421 . S
O472 C489 1.262 . S
O473 Tb426 2.320 1_655 S
O473 C489 1.260 1_556 S
O474 Tb426 2.552 1_655 S
O474 C482 1.243 . S
O475 Tb426 2.413 1_655 S
O475 C490 1.256 1_655 S
O476 Tb437 2.546 . S
O476 C501 1.251 1_655 S
O477 Tb426 2.362 1_554 S
O477 Tb437 2.610 1_455 S
O477 C493 1.283 . S
O478 Tb426 2.421 . S
O478 C500 1.262 1_556 S
O479 Tb437 2.320 1_455 S
O479 C500 1.260 . S
O480 Tb437 2.552 1_455 S
O480 C493 1.243 . S
O481 Tb437 2.413 1_455 S
O481 C501 1.256 . S
C482 O471 1.283 1_556 S
C482 O474 1.243 . S
C483 C485 1.382 . S
C483 C487 1.393 1_655 S
C483 C490 1.500 1_655 S
C484 C485 1.400 . S
C484 C486 1.384 . S
C485 C483 1.382 . S
C485 C484 1.400 . S
C485 H502 0.930 . S
C486 C484 1.384 . S
C486 C488 1.392 1_655 S
C486 H503 0.931 . S
C487 C483 1.393 1_455 S
C487 C488 1.401 . S
C487 H504 0.930 . S
C488 C486 1.392 1_455 S
C488 C487 1.401 . S
C488 H505 0.930 . S
C489 O472 1.262 . S
C489 O473 1.260 1_554 S
C490 Tb426 2.833 . S
C490 O470 1.251 . S
C490 O475 1.256 1_455 S
C490 C483 1.500 1_455 S
C491 H456 0.929 . S
C491 C469 1.444 . S
C491 C492 1.317 . S
C492 H454 0.930 . S
C492 C460 1.432 . S
C492 C491 1.317 . S
C493 O477 1.283 . S
C493 O480 1.243 . S
C494 C495 1.382 . S
C494 C498 1.385 1_455 S
C494 C501 1.500 . S
C495 C494 1.382 . S
C495 C496 1.400 . S
C495 H506 0.930 . S
C496 C495 1.400 . S
C496 C497 1.384 . S
C497 C496 1.384 . S
C497 C499 1.392 . S
C497 H507 0.931 . S
C498 C494 1.385 1_655 S
C498 C499 1.392 1_655 S
C498 H508 0.949 . S
C499 C497 1.392 . S
C499 C498 1.392 1_455 S
C499 H509 0.930 1_455 S
C500 O478 1.262 1_554 S
C500 O479 1.260 . S
C501 Tb437 2.833 1_455 S
C501 O476 1.251 1_455 S
C501 O481 1.256 . S
C501 C494 1.500 . S
H502 C485 0.930 . S
H503 C486 0.931 . S
H504 C487 0.930 . S
H505 C488 0.930 . S
H506 C495 0.930 . S
H507 C497 0.931 . S
H508 C498 0.949 . S
H509 C499 0.930 1_655 S
Tb510 N541 2.660 . S
Tb510 N548 2.600 . S
Tb510 O554 2.546 . S
Tb510 O555 2.610 . S
Tb510 O557 2.320 . S
Tb510 O558 2.552 . S
Tb510 O559 2.413 . S
Tb510 O561 2.362 . S
Tb510 O562 2.421 . S
Tb510 C574 2.833 . S
C511 C514 1.432 . S
C511 C515 1.414 . S
C511 N518 1.359 . S
C512 C514 1.417 . S
C512 C516 1.432 . S
C512 C524 1.410 . S
C513 C515 1.444 . S
C513 C516 1.317 . S
C513 H536 0.929 . S
C514 C511 1.432 . S
C514 C512 1.417 . S
C514 N522 1.360 . S
C515 C511 1.414 . S
C515 C513 1.444 . S
C515 C520 1.385 . S
C516 C512 1.432 . S
C516 C513 1.317 . S
C516 H528 0.930 . S
C517 C519 1.392 . S
C517 C520 1.370 . S
C517 H529 0.931 . S
N518 C511 1.359 . S
N518 C519 1.327 . S
N518 Tb521 2.600 . S
C519 C517 1.392 . S
C519 N518 1.327 . S
C519 H526 0.930 . S
C520 C515 1.385 . S
C520 C517 1.370 . S
C520 H539 0.930 . S
Tb521 N518 2.600 . S
Tb521 N522 2.660 . S
Tb521 O555 2.362 1_556 S
Tb521 O556 2.418 1_556 S
Tb521 O560 2.546 . S
Tb521 O561 2.610 1_556 S
Tb521 O563 2.320 . S
Tb521 O564 2.552 . S
Tb521 O565 2.413 . S
Tb521 C585 2.833 . S
N522 C514 1.360 . S
N522 Tb521 2.660 . S
N522 C523 1.305 . S
C523 N522 1.305 . S
C523 C525 1.407 . S
C523 H530 0.930 . S
C524 C512 1.410 . S
C524 C525 1.345 . S
C524 H532 0.930 . S
C525 C523 1.407 . S
C525 C524 1.345 . S
C525 H527 0.930 . S
H526 C519 0.930 . S
H527 C525 0.930 . S
H528 C516 0.930 . S
H529 C517 0.931 . S
H530 C523 0.930 . S
H531 C545 0.930 . S
H532 C524 0.930 . S
H533 C551 0.930 . S
H534 C542 0.930 . S
H535 C549 0.931 . S
H536 C513 0.929 . S
H537 C543 0.930 . S
H538 C576 0.930 . S
H539 C520 0.930 . S
H540 C575 0.929 . S
N541 Tb510 2.660 . S
N541 C542 1.305 . S
N541 C546 1.360 . S
C542 H534 0.930 . S
C542 N541 1.305 . S
C542 C545 1.407 . S
C543 H537 0.930 . S
C543 C544 1.410 . S
C543 C545 1.345 . S
C544 C543 1.410 . S
C544 C546 1.417 . S
C544 C576 1.432 . S
C545 H531 0.930 . S
C545 C542 1.407 . S
C545 C543 1.345 . S
C546 N541 1.360 . S
C546 C544 1.417 . S
C546 C550 1.432 . S
H547 C552 0.930 . S
N548 Tb510 2.600 . S
N548 C550 1.359 . S
N548 C551 1.327 . S
C549 H535 0.931 . S
C549 C551 1.392 . S
C549 C552 1.370 . S
C550 C546 1.432 . S
C550 N548 1.359 . S
C550 C553 1.414 . S
C551 H533 0.930 . S
C551 N548 1.327 . S
C551 C549 1.392 . S
C552 H547 0.930 . S
C552 C549 1.370 . S
C552 C553 1.385 . S
C553 C550 1.414 . S
C553 C552 1.385 . S
C553 C575 1.444 . S
O554 Tb510 2.546 . S
O554 C574 1.251 . S
O555 Tb510 2.610 . S
O555 Tb521 2.362 1_554 S
O555 C566 1.283 . S
O556 Tb521 2.418 1_554 S
O556 C573 1.269 . S
O557 Tb510 2.320 . S
O557 C573 1.260 . S
O558 Tb510 2.552 . S
O558 C566 1.243 . S
O559 Tb510 2.413 . S
O559 C574 1.256 . S
O560 Tb521 2.546 . S
O560 C585 1.251 . S
O561 Tb510 2.362 . S
O561 Tb521 2.610 1_554 S
O561 C577 1.283 1_554 S
O562 Tb510 2.421 . S
O562 C584 1.262 . S
O563 Tb521 2.320 . S
O563 C584 1.260 1_556 S
O564 Tb521 2.552 . S
O564 C577 1.243 . S
O565 Tb521 2.413 . S
O565 C585 1.256 . S
C566 O555 1.283 . S
C566 O558 1.243 . S
C567 C569 1.382 . S
C567 C571 1.393 . S
C567 C574 1.500 . S
C568 C569 1.400 . S
C568 C570 1.384 . S
C569 C567 1.382 . S
C569 C568 1.400 . S
C569 H586 0.930 . S
C570 C568 1.384 . S
C570 C572 1.392 . S
C570 H587 0.931 . S
C571 C567 1.393 . S
C571 C572 1.401 . S
C571 H588 0.930 . S
C572 C570 1.392 . S
C572 C571 1.401 . S
C572 H589 0.930 . S
C573 O556 1.269 . S
C573 O557 1.260 . S
C574 Tb510 2.833 . S
C574 O554 1.251 . S
C574 O559 1.256 . S
C574 C567 1.500 . S
C575 H540 0.929 . S
C575 C553 1.444 . S
C575 C576 1.317 . S
C576 H538 0.930 . S
C576 C544 1.432 . S
C576 C575 1.317 . S
C577 O561 1.283 1_556 S
C577 O564 1.243 . S
C578 C579 1.382 . S
C578 C582 1.393 . S
C578 C585 1.500 . S
C579 C578 1.382 . S
C579 C580 1.400 . S
C579 H590 0.930 . S
C580 C579 1.400 . S
C580 C581 1.384 . S
C581 C580 1.384 . S
C581 C583 1.392 . S
C581 H591 0.931 . S
C582 C578 1.393 . S
C582 C583 1.401 . S
C582 H592 0.930 . S
C583 C581 1.392 . S
C583 C582 1.401 . S
C583 H593 0.930 . S
C584 O562 1.262 . S
C584 O563 1.260 1_554 S
C585 Tb521 2.833 . S
C585 O560 1.251 . S
C585 O565 1.256 . S
C585 C578 1.500 . S
H586 C569 0.930 . S
H587 C570 0.931 . S
H588 C571 0.930 . S
H589 C572 0.930 . S
H590 C579 0.930 . S
H591 C581 0.931 . S
H592 C582 0.930 . S
H593 C583 0.930 . S
Tb594 N625 2.660 . S
Tb594 N632 2.600 . S
Tb594 O638 2.546 . S
Tb594 O639 2.610 . S
Tb594 O641 2.320 . S
Tb594 O642 2.552 . S
Tb594 O643 2.413 . S
Tb594 O645 2.362 . S
Tb594 O646 2.421 . S
Tb594 C658 2.833 . S
C595 C598 1.432 . S
C595 C599 1.414 . S
C595 N602 1.359 . S
C596 C598 1.417 . S
C596 C600 1.432 . S
C596 C608 1.410 . S
C597 C599 1.444 . S
C597 C600 1.317 . S
C597 H620 0.929 . S
C598 C595 1.432 . S
C598 C596 1.417 . S
C598 N606 1.360 . S
C599 C595 1.414 . S
C599 C597 1.444 . S
C599 C604 1.385 . S
C600 C596 1.432 . S
C600 C597 1.317 . S
C600 H612 0.930 . S
C601 C603 1.392 . S
C601 C604 1.370 . S
C601 H613 0.931 . S
N602 C595 1.359 . S
N602 C603 1.327 . S
N602 Tb605 2.600 . S
C603 C601 1.392 . S
C603 N602 1.327 . S
C603 H610 0.930 . S
C604 C599 1.385 . S
C604 C601 1.370 . S
C604 H623 0.930 . S
Tb605 N602 2.600 . S
Tb605 N606 2.660 . S
Tb605 O639 2.362 . S
Tb605 O640 2.421 . S
Tb605 O644 2.546 . S
Tb605 O645 2.610 . S
Tb605 O647 2.320 . S
Tb605 O648 2.552 . S
Tb605 O649 2.413 . S
Tb605 C669 2.833 . S
N606 C598 1.360 . S
N606 Tb605 2.660 . S
N606 C607 1.305 . S
C607 N606 1.305 . S
C607 C609 1.407 . S
C607 H614 0.930 . S
C608 C596 1.410 . S
C608 C609 1.345 . S
C608 H616 0.930 . S
C609 C607 1.407 . S
C609 C608 1.345 . S
C609 H611 0.930 . S
H610 C603 0.930 . S
H611 C609 0.930 . S
H612 C600 0.930 . S
H613 C601 0.931 . S
H614 C607 0.930 . S
H615 C629 0.930 . S
H616 C608 0.930 . S
H617 C635 0.930 . S
H618 C626 0.930 . S
H619 C633 0.931 . S
H620 C597 0.929 . S
H621 C627 0.930 . S
H622 C660 0.930 . S
H623 C604 0.930 . S
H624 C659 0.929 . S
N625 Tb594 2.660 . S
N625 C626 1.305 . S
N625 C630 1.360 . S
C626 H618 0.930 . S
C626 N625 1.305 . S
C626 C629 1.407 . S
C627 H621 0.930 . S
C627 C628 1.410 . S
C627 C629 1.345 . S
C628 C627 1.410 . S
C628 C630 1.417 . S
C628 C660 1.432 . S
C629 H615 0.930 . S
C629 C626 1.407 . S
C629 C627 1.345 . S
C630 N625 1.360 . S
C630 C628 1.417 . S
C630 C634 1.432 . S
H631 C636 0.930 . S
N632 Tb594 2.600 . S
N632 C634 1.359 . S
N632 C635 1.327 . S
C633 H619 0.931 . S
C633 C635 1.392 . S
C633 C636 1.370 . S
C634 C630 1.432 . S
C634 N632 1.359 . S
C634 C637 1.414 . S
C635 H617 0.930 . S
C635 N632 1.327 . S
C635 C633 1.392 . S
C636 H631 0.930 . S
C636 C633 1.370 . S
C636 C637 1.385 . S
C637 C634 1.414 . S
C637 C636 1.385 . S
C637 C659 1.444 . S
O638 Tb594 2.546 . S
O638 C658 1.251 . S
O639 Tb594 2.610 . S
O639 Tb605 2.362 . S
O639 C650 1.283 . S
O640 Tb605 2.421 . S
O640 C657 1.262 . S
O641 Tb594 2.320 . S
O641 C657 1.260 . S
O642 Tb594 2.552 . S
O642 C650 1.243 . S
O643 Tb594 2.413 . S
O643 C658 1.256 . S
O644 Tb605 2.546 . S
O644 C669 1.251 . S
O645 Tb594 2.362 . S
O645 Tb605 2.610 . S
O645 C661 1.283 . S
O646 Tb594 2.421 . S
O646 C668 1.262 . S
O647 Tb605 2.320 . S
O647 C668 1.260 . S
O648 Tb605 2.552 . S
O648 C661 1.243 . S
O649 Tb605 2.413 . S
O649 C669 1.256 . S
C650 O639 1.283 . S
C650 O642 1.243 . S
C651 C653 1.382 . S
C651 C655 1.393 . S
C651 C658 1.500 . S
C652 C653 1.400 . S
C652 C654 1.384 . S
C653 C651 1.382 . S
C653 C652 1.400 . S
C653 H670 0.930 . S
C654 C652 1.384 . S
C654 C656 1.392 . S
C654 H671 0.931 . S
C655 C651 1.393 . S
C655 C656 1.401 . S
C655 H672 0.930 . S
C656 C654 1.392 . S
C656 C655 1.401 . S
C656 H673 0.930 . S
C657 O640 1.262 . S
C657 O641 1.260 . S
C658 Tb594 2.833 . S
C658 O638 1.251 . S
C658 O643 1.256 . S
C658 C651 1.500 . S
C659 H624 0.929 . S
C659 C637 1.444 . S
C659 C660 1.317 . S
C660 H622 0.930 . S
C660 C628 1.432 . S
C660 C659 1.317 . S
C661 O645 1.283 . S
C661 O648 1.243 . S
C662 C663 1.382 . S
C662 C666 1.393 . S
C662 C669 1.500 . S
C663 C662 1.382 . S
C663 C664 1.400 . S
C663 H674 0.930 . S
C664 C663 1.400 . S
C664 C665 1.384 . S
C665 C664 1.384 . S
C665 C667 1.392 . S
C665 H675 0.931 . S
C666 C662 1.393 . S
C666 C667 1.401 . S
C666 H676 0.930 . S
C667 C665 1.392 . S
C667 C666 1.401 . S
C667 H677 0.930 . S
C668 O646 1.262 . S
C668 O647 1.260 . S
C669 Tb605 2.833 . S
C669 O644 1.251 . S
C669 O649 1.256 . S
C669 C662 1.500 . S
H670 C653 0.930 . S
H671 C654 0.931 . S
H672 C655 0.930 . S
H673 C656 0.930 . S
H674 C663 0.930 . S
H675 C665 0.931 . S
H676 C666 0.930 . S
H677 C667 0.930 . S
Tb678 N709 2.660 . S
Tb678 N716 2.600 . S
Tb678 O722 2.546 . S
Tb678 O723 2.610 . S
Tb678 O725 2.320 . S
Tb678 O726 2.552 . S
Tb678 O727 2.413 . S
Tb678 O729 2.362 . S
Tb678 O730 2.421 . S
Tb678 C742 2.833 . S
C679 C682 1.432 . S
C679 C683 1.414 . S
C679 N686 1.359 . S
C680 C682 1.417 . S
C680 C684 1.432 . S
C680 C692 1.410 . S
C681 C683 1.444 . S
C681 C684 1.317 . S
C681 H704 0.929 . S
C682 C679 1.432 . S
C682 C680 1.417 . S
C682 N690 1.360 . S
C683 C679 1.414 . S
C683 C681 1.444 . S
C683 C688 1.385 . S
C684 C680 1.432 . S
C684 C681 1.317 . S
C684 H696 0.930 . S
C685 C687 1.392 . S
C685 C688 1.370 . S
C685 H697 0.931 . S
N686 C679 1.359 . S
N686 C687 1.327 . S
N686 Tb689 2.600 . S
C687 C685 1.392 . S
C687 N686 1.327 . S
C687 H694 0.930 . S
C688 C683 1.385 . S
C688 C685 1.370 . S
C688 H707 0.930 . S
Tb689 N686 2.600 . S
Tb689 N690 2.660 . S
Tb689 O723 2.362 . S
Tb689 O724 2.421 . S
Tb689 O728 2.546 . S
Tb689 O729 2.610 . S
Tb689 O731 2.320 . S
Tb689 O732 2.552 . S
Tb689 O733 2.413 . S
Tb689 C753 2.833 . S
N690 C682 1.360 . S
N690 Tb689 2.660 . S
N690 C691 1.305 . S
C691 N690 1.305 . S
C691 C693 1.407 . S
C691 H698 0.930 . S
C692 C680 1.410 . S
C692 C693 1.345 . S
C692 H700 0.930 . S
C693 C691 1.407 . S
C693 C692 1.345 . S
C693 H695 0.930 . S
H694 C687 0.930 . S
H695 C693 0.930 . S
H696 C684 0.930 . S
H697 C685 0.931 . S
H698 C691 0.930 . S
H699 C713 0.930 . S
H700 C692 0.930 . S
H701 C719 0.930 . S
H702 C710 0.930 . S
H703 C717 0.931 . S
H704 C681 0.929 . S
H705 C711 0.930 . S
H706 C744 0.930 . S
H707 C688 0.930 . S
H708 C743 0.929 . S
N709 Tb678 2.660 . S
N709 C710 1.305 . S
N709 C714 1.360 . S
C710 H702 0.930 . S
C710 N709 1.305 . S
C710 C713 1.407 . S
C711 H705 0.930 . S
C711 C712 1.410 . S
C711 C713 1.345 . S
C712 C711 1.410 . S
C712 C714 1.417 . S
C712 C744 1.432 . S
C713 H699 0.930 . S
C713 C710 1.407 . S
C713 C711 1.345 . S
C714 N709 1.360 . S
C714 C712 1.417 . S
C714 C718 1.432 . S
H715 C720 0.930 . S
N716 Tb678 2.600 . S
N716 C718 1.359 . S
N716 C719 1.327 . S
C717 H703 0.931 . S
C717 C719 1.392 . S
C717 C720 1.370 . S
C718 C714 1.432 . S
C718 N716 1.359 . S
C718 C721 1.414 . S
C719 H701 0.930 . S
C719 N716 1.327 . S
C719 C717 1.392 . S
C720 H715 0.930 . S
C720 C717 1.370 . S
C720 C721 1.385 . S
C721 C718 1.414 . S
C721 C720 1.385 . S
C721 C743 1.444 . S
O722 Tb678 2.546 . S
O722 C742 1.251 . S
O723 Tb678 2.610 . S
O723 Tb689 2.362 . S
O723 C734 1.283 . S
O724 Tb689 2.421 . S
O724 C741 1.262 . S
O725 Tb678 2.320 . S
O725 C741 1.260 . S
O726 Tb678 2.552 . S
O726 C734 1.243 . S
O727 Tb678 2.413 . S
O727 C742 1.256 . S
O728 Tb689 2.546 . S
O728 C753 1.251 . S
O729 Tb678 2.362 . S
O729 Tb689 2.610 . S
O729 C745 1.283 . S
O730 Tb678 2.421 . S
O730 C752 1.262 . S
O731 Tb689 2.320 . S
O731 C752 1.260 . S
O732 Tb689 2.552 . S
O732 C745 1.243 . S
O733 Tb689 2.413 . S
O733 C753 1.256 . S
C734 O723 1.283 . S
C734 O726 1.243 . S
C735 C737 1.382 . S
C735 C739 1.393 . S
C735 C742 1.500 . S
C736 C737 1.400 . S
C736 C738 1.384 . S
C737 C735 1.382 . S
C737 C736 1.400 . S
C737 H754 0.930 . S
C738 C736 1.384 . S
C738 C740 1.392 . S
C738 H755 0.931 . S
C739 C735 1.393 . S
C739 C740 1.401 . S
C739 H756 0.930 . S
C740 C738 1.392 . S
C740 C739 1.401 . S
C740 H757 0.930 . S
C741 O724 1.262 . S
C741 O725 1.260 . S
C742 Tb678 2.833 . S
C742 O722 1.251 . S
C742 O727 1.256 . S
C742 C735 1.500 . S
C743 H708 0.929 . S
C743 C721 1.444 . S
C743 C744 1.317 . S
C744 H706 0.930 . S
C744 C712 1.432 . S
C744 C743 1.317 . S
C745 O729 1.283 . S
C745 O732 1.243 . S
C746 C747 1.382 . S
C746 C750 1.393 . S
C746 C753 1.500 . S
C747 C746 1.382 . S
C747 C748 1.400 . S
C747 H758 0.930 . S
C748 C747 1.400 . S
C748 C749 1.384 . S
C749 C748 1.384 . S
C749 C751 1.392 . S
C749 H759 0.931 . S
C750 C746 1.393 . S
C750 C751 1.401 . S
C750 H760 0.930 . S
C751 C749 1.392 . S
C751 C750 1.401 . S
C751 H761 0.930 . S
C752 O730 1.262 . S
C752 O731 1.260 . S
C753 Tb689 2.833 . S
C753 O728 1.251 . S
C753 O733 1.256 . S
C753 C746 1.500 . S
H754 C737 0.930 . S
H755 C738 0.931 . S
H756 C739 0.930 . S
H757 C740 0.930 . S
H758 C747 0.930 . S
H759 C749 0.931 . S
H760 C750 0.930 . S
H761 C751 0.930 . S
Tb762 N793 2.660 . S
Tb762 N800 2.600 . S
Tb762 O806 2.546 . S
Tb762 O807 2.610 . S
Tb762 O809 2.320 . S
Tb762 O810 2.552 . S
Tb762 O811 2.413 . S
Tb762 O813 2.362 . S
Tb762 O814 2.421 . S
Tb762 C826 2.833 . S
C763 C766 1.432 . S
C763 C767 1.414 . S
C763 N770 1.359 . S
C764 C766 1.417 . S
C764 C768 1.432 . S
C764 C776 1.410 . S
C765 C767 1.444 . S
C765 C768 1.317 . S
C765 H788 0.929 . S
C766 C763 1.432 . S
C766 C764 1.417 . S
C766 N774 1.360 . S
C767 C763 1.414 . S
C767 C765 1.444 . S
C767 C772 1.385 . S
C768 C764 1.432 . S
C768 C765 1.317 . S
C768 H780 0.930 . S
C769 C771 1.392 . S
C769 C772 1.370 . S
C769 H781 0.931 . S
N770 C763 1.359 . S
N770 C771 1.327 . S
N770 Tb773 2.600 . S
C771 C769 1.392 . S
C771 N770 1.327 . S
C771 H778 0.930 . S
C772 C767 1.385 . S
C772 C769 1.370 . S
C772 H791 0.930 . S
Tb773 N770 2.600 . S
Tb773 N774 2.660 . S
Tb773 O807 2.362 . S
Tb773 O808 2.421 . S
Tb773 O812 2.546 . S
Tb773 O813 2.610 . S
Tb773 O815 2.320 . S
Tb773 O816 2.552 . S
Tb773 O817 2.413 . S
Tb773 C837 2.833 . S
N774 C766 1.360 . S
N774 Tb773 2.660 . S
N774 C775 1.305 . S
C775 N774 1.305 . S
C775 C777 1.407 . S
C775 H782 0.930 . S
C776 C764 1.410 . S
C776 C777 1.345 . S
C776 H784 0.930 . S
C777 C775 1.407 . S
C777 C776 1.345 . S
C777 H779 0.930 . S
H778 C771 0.930 . S
H779 C777 0.930 . S
H780 C768 0.930 . S
H781 C769 0.931 . S
H782 C775 0.930 . S
H783 C797 0.930 . S
H784 C776 0.930 . S
H785 C803 0.930 . S
H786 C794 0.930 . S
H787 C801 0.931 . S
H788 C765 0.929 . S
H789 C795 0.930 . S
H790 C828 0.930 . S
H791 C772 0.930 . S
H792 C827 0.929 . S
N793 Tb762 2.660 . S
N793 C794 1.305 . S
N793 C798 1.360 . S
C794 H786 0.930 . S
C794 N793 1.305 . S
C794 C797 1.407 . S
C795 H789 0.930 . S
C795 C796 1.410 . S
C795 C797 1.345 . S
C796 C795 1.410 . S
C796 C798 1.417 . S
C796 C828 1.432 . S
C797 H783 0.930 . S
C797 C794 1.407 . S
C797 C795 1.345 . S
C798 N793 1.360 . S
C798 C796 1.417 . S
C798 C802 1.432 . S
H799 C804 0.930 . S
N800 Tb762 2.600 . S
N800 C802 1.359 . S
N800 C803 1.327 . S
C801 H787 0.931 . S
C801 C803 1.392 . S
C801 C804 1.370 . S
C802 C798 1.432 . S
C802 N800 1.359 . S
C802 C805 1.414 . S
C803 H785 0.930 . S
C803 N800 1.327 . S
C803 C801 1.392 . S
C804 H799 0.930 . S
C804 C801 1.370 . S
C804 C805 1.385 . S
C805 C802 1.414 . S
C805 C804 1.385 . S
C805 C827 1.444 . S
O806 Tb762 2.546 . S
O806 C826 1.251 . S
O807 Tb762 2.610 . S
O807 Tb773 2.362 . S
O807 C818 1.283 . S
O808 Tb773 2.421 . S
O808 C825 1.262 . S
O809 Tb762 2.320 . S
O809 C825 1.260 . S
O810 Tb762 2.552 . S
O810 C818 1.243 . S
O811 Tb762 2.413 . S
O811 C826 1.256 . S
O812 Tb773 2.546 . S
O812 C837 1.251 . S
O813 Tb762 2.362 . S
O813 Tb773 2.610 . S
O813 C829 1.283 . S
O814 Tb762 2.421 . S
O814 C836 1.262 . S
O815 Tb773 2.320 . S
O815 C836 1.260 . S
O816 Tb773 2.552 . S
O816 C829 1.243 . S
O817 Tb773 2.413 . S
O817 C837 1.256 . S
C818 O807 1.283 . S
C818 O810 1.243 . S
C819 C821 1.382 . S
C819 C823 1.393 . S
C819 C826 1.500 . S
C820 C821 1.400 . S
C820 C822 1.384 . S
C821 C819 1.382 . S
C821 C820 1.400 . S
C821 H838 0.930 . S
C822 C820 1.384 . S
C822 C824 1.392 . S
C822 H839 0.931 . S
C823 C819 1.393 . S
C823 C824 1.401 . S
C823 H840 0.930 . S
C824 C822 1.392 . S
C824 C823 1.401 . S
C824 H841 0.930 . S
C825 O808 1.262 . S
C825 O809 1.260 . S
C826 Tb762 2.833 . S
C826 O806 1.251 . S
C826 O811 1.256 . S
C826 C819 1.500 . S
C827 H792 0.929 . S
C827 C805 1.444 . S
C827 C828 1.317 . S
C828 H790 0.930 . S
C828 C796 1.432 . S
C828 C827 1.317 . S
C829 O813 1.283 . S
C829 O816 1.243 . S
C830 C831 1.382 . S
C830 C834 1.393 . S
C830 C837 1.500 . S
C831 C830 1.382 . S
C831 C832 1.400 . S
C831 H842 0.930 . S
C832 C831 1.400 . S
C832 C833 1.384 . S
C833 C832 1.384 . S
C833 C835 1.392 . S
C833 H843 0.931 . S
C834 C830 1.393 . S
C834 C835 1.401 . S
C834 H844 0.930 . S
C835 C833 1.392 . S
C835 C834 1.401 . S
C835 H845 0.930 . S
C836 O814 1.262 . S
C836 O815 1.260 . S
C837 Tb773 2.833 . S
C837 O812 1.251 . S
C837 O817 1.256 . S
C837 C830 1.500 . S
H838 C821 0.930 . S
H839 C822 0.931 . S
H840 C823 0.930 . S
H841 C824 0.930 . S
H842 C831 0.930 . S
H843 C833 0.931 . S
H844 C834 0.930 . S
H845 C835 0.930 . S
Tb846 N877 2.660 . S
Tb846 N884 2.600 . S
Tb846 O890 2.546 . S
Tb846 O891 2.610 . S
Tb846 O893 2.320 . S
Tb846 O894 2.552 . S
Tb846 O895 2.413 . S
Tb846 O897 2.362 . S
Tb846 O898 2.421 . S
Tb846 C910 2.833 . S
C847 C850 1.432 . S
C847 C851 1.414 . S
C847 N854 1.359 . S
C848 C850 1.417 . S
C848 C852 1.432 . S
C848 C860 1.410 . S
C849 C851 1.444 . S
C849 C852 1.317 . S
C849 H872 0.929 . S
C850 C847 1.432 . S
C850 C848 1.417 . S
C850 N858 1.360 . S
C851 C847 1.414 . S
C851 C849 1.444 . S
C851 C856 1.385 . S
C852 C848 1.432 . S
C852 C849 1.317 . S
C852 H864 0.930 . S
C853 C855 1.392 . S
C853 C856 1.370 . S
C853 H865 0.931 . S
N854 C847 1.359 . S
N854 C855 1.327 . S
N854 Tb857 2.600 . S
C855 C853 1.392 . S
C855 N854 1.327 . S
C855 H862 0.930 . S
C856 C851 1.385 . S
C856 C853 1.370 . S
C856 H875 0.930 . S
Tb857 N854 2.600 . S
Tb857 N858 2.660 . S
Tb857 O891 2.362 . S
Tb857 O892 2.421 . S
Tb857 O896 2.546 . S
Tb857 O897 2.610 . S
Tb857 O899 2.320 . S
Tb857 O900 2.552 . S
Tb857 O901 2.413 . S
Tb857 C921 2.833 . S
N858 C850 1.360 . S
N858 Tb857 2.660 . S
N858 C859 1.305 . S
C859 N858 1.305 . S
C859 C861 1.407 . S
C859 H866 0.930 . S
C860 C848 1.410 . S
C860 C861 1.345 . S
C860 H868 0.930 . S
C861 C859 1.407 . S
C861 C860 1.345 . S
C861 H863 0.930 . S
H862 C855 0.930 . S
H863 C861 0.930 . S
H864 C852 0.930 . S
H865 C853 0.931 . S
H866 C859 0.930 . S
H867 C881 0.930 . S
H868 C860 0.930 . S
H869 C887 0.930 . S
H870 C878 0.930 . S
H871 C885 0.931 . S
H872 C849 0.929 . S
H873 C879 0.930 . S
H874 C912 0.930 . S
H875 C856 0.930 . S
H876 C911 0.929 . S
N877 Tb846 2.660 . S
N877 C878 1.305 . S
N877 C882 1.360 . S
C878 H870 0.930 . S
C878 N877 1.305 . S
C878 C881 1.407 . S
C879 H873 0.930 . S
C879 C880 1.410 . S
C879 C881 1.345 . S
C880 C879 1.410 . S
C880 C882 1.417 . S
C880 C912 1.432 . S
C881 H867 0.930 . S
C881 C878 1.407 . S
C881 C879 1.345 . S
C882 N877 1.360 . S
C882 C880 1.417 . S
C882 C886 1.432 . S
H883 C888 0.930 . S
N884 Tb846 2.600 . S
N884 C886 1.359 . S
N884 C887 1.327 . S
C885 H871 0.931 . S
C885 C887 1.392 . S
C885 C888 1.370 . S
C886 C882 1.432 . S
C886 N884 1.359 . S
C886 C889 1.414 . S
C887 H869 0.930 . S
C887 N884 1.327 . S
C887 C885 1.392 . S
C888 H883 0.930 . S
C888 C885 1.370 . S
C888 C889 1.385 . S
C889 C886 1.414 . S
C889 C888 1.385 . S
C889 C911 1.444 . S
O890 Tb846 2.546 . S
O890 C910 1.251 . S
O891 Tb846 2.610 . S
O891 Tb857 2.362 . S
O891 C902 1.283 . S
O892 Tb857 2.421 . S
O892 C909 1.262 . S
O893 Tb846 2.320 . S
O893 C909 1.260 . S
O894 Tb846 2.552 . S
O894 C902 1.243 . S
O895 Tb846 2.413 . S
O895 C910 1.256 . S
O896 Tb857 2.546 . S
O896 C921 1.251 . S
O897 Tb846 2.362 . S
O897 Tb857 2.610 . S
O897 C913 1.283 . S
O898 Tb846 2.421 . S
O898 C920 1.262 . S
O899 Tb857 2.320 . S
O899 C920 1.260 . S
O900 Tb857 2.552 . S
O900 C913 1.243 . S
O901 Tb857 2.413 . S
O901 C921 1.256 . S
C902 O891 1.283 . S
C902 O894 1.243 . S
C903 C905 1.382 . S
C903 C907 1.393 . S
C903 C910 1.500 . S
C904 C905 1.400 . S
C904 C906 1.384 . S
C905 C903 1.382 . S
C905 C904 1.400 . S
C905 H922 0.930 . S
C906 C904 1.384 . S
C906 C908 1.392 . S
C906 H923 0.931 . S
C907 C903 1.393 . S
C907 C908 1.401 . S
C907 H924 0.930 . S
C908 C906 1.392 . S
C908 C907 1.401 . S
C908 H925 0.930 . S
C909 O892 1.262 . S
C909 O893 1.260 . S
C910 Tb846 2.833 . S
C910 O890 1.251 . S
C910 O895 1.256 . S
C910 C903 1.500 . S
C911 H876 0.929 . S
C911 C889 1.444 . S
C911 C912 1.317 . S
C912 H874 0.930 . S
C912 C880 1.432 . S
C912 C911 1.317 . S
C913 O897 1.283 . S
C913 O900 1.243 . S
C914 C915 1.382 . S
C914 C918 1.393 . S
C914 C921 1.500 . S
C915 C914 1.382 . S
C915 C916 1.400 . S
C915 H926 0.930 . S
C916 C915 1.400 . S
C916 C917 1.384 . S
C917 C916 1.384 . S
C917 C919 1.392 . S
C917 H927 0.931 . S
C918 C914 1.393 . S
C918 C919 1.401 . S
C918 H928 0.930 . S
C919 C917 1.392 . S
C919 C918 1.401 . S
C919 H929 0.930 . S
C920 O898 1.262 . S
C920 O899 1.260 . S
C921 Tb857 2.833 . S
C921 O896 1.251 . S
C921 O901 1.256 . S
C921 C914 1.500 . S
H922 C905 0.930 . S
H923 C906 0.931 . S
H924 C907 0.930 . S
H925 C908 0.930 . S
H926 C915 0.930 . S
H927 C917 0.931 . S
H928 C918 0.930 . S
H929 C919 0.930 . S
Tb930 N961 2.660 . S
Tb930 N968 2.600 . S
Tb930 O974 2.546 . S
Tb930 O975 2.610 . S
Tb930 O977 2.320 . S
Tb930 O978 2.552 . S
Tb930 O979 2.413 . S
Tb930 O981 2.362 . S
Tb930 O982 2.421 . S
Tb930 C994 2.833 . S
C931 C934 1.432 . S
C931 C935 1.414 . S
C931 N938 1.359 . S
C932 C934 1.417 . S
C932 C936 1.432 . S
C932 C944 1.410 . S
C933 C935 1.444 . S
C933 C936 1.317 . S
C933 H956 0.929 . S
C934 C931 1.432 . S
C934 C932 1.417 . S
C934 N942 1.360 . S
C935 C931 1.414 . S
C935 C933 1.444 . S
C935 C940 1.385 . S
C936 C932 1.432 . S
C936 C933 1.317 . S
C936 H948 0.930 . S
C937 C939 1.392 . S
C937 C940 1.370 . S
C937 H949 0.931 . S
N938 C931 1.359 . S
N938 C939 1.327 . S
N938 Tb941 2.600 . S
C939 C937 1.392 . S
C939 N938 1.327 . S
C939 H946 0.930 . S
C940 C935 1.385 . S
C940 C937 1.370 . S
C940 H959 0.930 . S
Tb941 N938 2.600 . S
Tb941 N942 2.660 . S
Tb941 O975 2.362 . S
Tb941 O976 2.421 . S
Tb941 O980 2.546 . S
Tb941 O981 2.610 . S
Tb941 O983 2.320 . S
Tb941 O984 2.552 . S
Tb941 O985 2.413 . S
Tb941 C1005 2.833 . S
N942 C934 1.360 . S
N942 Tb941 2.660 . S
N942 C943 1.305 . S
C943 N942 1.305 . S
C943 C945 1.407 . S
C943 H950 0.930 . S
C944 C932 1.410 . S
C944 C945 1.345 . S
C944 H952 0.930 . S
C945 C943 1.407 . S
C945 C944 1.345 . S
C945 H947 0.930 . S
H946 C939 0.930 . S
H947 C945 0.930 . S
H948 C936 0.930 . S
H949 C937 0.931 . S
H950 C943 0.930 . S
H951 C965 0.930 . S
H952 C944 0.930 . S
H953 C971 0.930 . S
H954 C962 0.930 . S
H955 C969 0.931 . S
H956 C933 0.929 . S
H957 C963 0.930 . S
H958 C996 0.930 . S
H959 C940 0.930 . S
H960 C995 0.929 . S
N961 Tb930 2.660 . S
N961 C962 1.305 . S
N961 C966 1.360 . S
C962 H954 0.930 . S
C962 N961 1.305 . S
C962 C965 1.407 . S
C963 H957 0.930 . S
C963 C964 1.410 . S
C963 C965 1.345 . S
C964 C963 1.410 . S
C964 C966 1.417 . S
C964 C996 1.432 . S
C965 H951 0.930 . S
C965 C962 1.407 . S
C965 C963 1.345 . S
C966 N961 1.360 . S
C966 C964 1.417 . S
C966 C970 1.432 . S
H967 C972 0.930 . S
N968 Tb930 2.600 . S
N968 C970 1.359 . S
N968 C971 1.327 . S
C969 H955 0.931 . S
C969 C971 1.392 . S
C969 C972 1.370 . S
C970 C966 1.432 . S
C970 N968 1.359 . S
C970 C973 1.414 . S
C971 H953 0.930 . S
C971 N968 1.327 . S
C971 C969 1.392 . S
C972 H967 0.930 . S
C972 C969 1.370 . S
C972 C973 1.385 . S
C973 C970 1.414 . S
C973 C972 1.385 . S
C973 C995 1.444 . S
O974 Tb930 2.546 . S
O974 C994 1.251 . S
O975 Tb930 2.610 . S
O975 Tb941 2.362 . S
O975 C986 1.283 . S
O976 Tb941 2.421 . S
O976 C993 1.262 . S
O977 Tb930 2.320 . S
O977 C993 1.260 . S
O978 Tb930 2.552 . S
O978 C986 1.243 . S
O979 Tb930 2.413 . S
O979 C994 1.256 . S
O980 Tb941 2.546 . S
O980 C1005 1.251 . S
O981 Tb930 2.362 . S
O981 Tb941 2.610 . S
O981 C997 1.283 . S
O982 Tb930 2.421 . S
O982 C1004 1.262 . S
O983 Tb941 2.320 . S
O983 C1004 1.260 . S
O984 Tb941 2.552 . S
O984 C997 1.243 . S
O985 Tb941 2.413 . S
O985 C1005 1.256 . S
C986 O975 1.283 . S
C986 O978 1.243 . S
C987 C989 1.382 . S
C987 C991 1.393 . S
C987 C994 1.500 . S
C988 C989 1.400 . S
C988 C990 1.384 . S
C989 C987 1.382 . S
C989 C988 1.400 . S
C989 H1006 0.930 . S
C990 C988 1.384 . S
C990 C992 1.392 . S
C990 H1007 0.931 . S
C991 C987 1.393 . S
C991 C992 1.401 . S
C991 H1008 0.930 . S
C992 C990 1.392 . S
C992 C991 1.401 . S
C992 H1009 0.930 . S
C993 O976 1.262 . S
C993 O977 1.260 . S
C994 Tb930 2.833 . S
C994 O974 1.251 . S
C994 O979 1.256 . S
C994 C987 1.500 . S
C995 H960 0.929 . S
C995 C973 1.444 . S
C995 C996 1.317 . S
C996 H958 0.930 . S
C996 C964 1.432 . S
C996 C995 1.317 . S
C997 O981 1.283 . S
C997 O984 1.243 . S
C998 C999 1.382 . S
C998 C1002 1.393 . S
C998 C1005 1.500 . S
C999 C998 1.382 . S
C999 C1000 1.400 . S
C999 H1010 0.930 . S
C1000 C999 1.400 . S
C1000 C1001 1.384 . S
C1001 C1000 1.384 . S
C1001 C1003 1.392 . S
C1001 H1011 0.931 . S
C1002 C998 1.393 . S
C1002 C1003 1.401 . S
C1002 H1012 0.930 . S
C1003 C1001 1.392 . S
C1003 C1002 1.401 . S
C1003 H1013 0.930 . S
C1004 O982 1.262 . S
C1004 O983 1.260 . S
C1005 Tb941 2.833 . S
C1005 O980 1.251 . S
C1005 O985 1.256 . S
C1005 C998 1.500 . S
H1006 C989 0.930 . S
H1007 C990 0.931 . S
H1008 C991 0.930 . S
H1009 C992 0.930 . S
H1010 C999 0.930 . S
H1011 C1001 0.931 . S
H1012 C1002 0.930 . S
H1013 C1003 0.930 . S
Tb1014 N1045 2.660 . S
Tb1014 N1052 2.600 . S
Tb1014 O1058 2.546 . S
Tb1014 O1059 2.610 . S
Tb1014 O1061 2.320 . S
Tb1014 O1062 2.552 . S
Tb1014 O1063 2.413 . S
Tb1014 O1065 2.362 . S
Tb1014 O1066 2.421 . S
Tb1014 C1078 2.833 . S
C1015 C1018 1.432 . S
C1015 C1019 1.414 . S
C1015 N1022 1.359 . S
C1016 C1018 1.417 . S
C1016 C1020 1.432 . S
C1016 C1028 1.410 . S
C1017 C1019 1.444 . S
C1017 C1020 1.317 . S
C1017 H1040 0.929 . S
C1018 C1015 1.432 . S
C1018 C1016 1.417 . S
C1018 N1026 1.360 . S
C1019 C1015 1.414 . S
C1019 C1017 1.444 . S
C1019 C1024 1.385 . S
C1020 C1016 1.432 . S
C1020 C1017 1.317 . S
C1020 H1032 0.930 . S
C1021 C1023 1.392 . S
C1021 C1024 1.370 . S
C1021 H1033 0.931 . S
N1022 C1015 1.359 . S
N1022 C1023 1.327 . S
N1022 Tb1025 2.600 . S
C1023 C1021 1.392 . S
C1023 N1022 1.327 . S
C1023 H1030 0.930 . S
C1024 C1019 1.385 . S
C1024 C1021 1.370 . S
C1024 H1043 0.930 . S
Tb1025 N1022 2.600 . S
Tb1025 N1026 2.660 . S
Tb1025 O1059 2.362 . S
Tb1025 O1060 2.421 . S
Tb1025 O1064 2.546 . S
Tb1025 O1065 2.610 . S
Tb1025 O1067 2.320 . S
Tb1025 O1068 2.552 . S
Tb1025 O1069 2.413 . S
Tb1025 C1089 2.833 . S
N1026 C1018 1.360 . S
N1026 Tb1025 2.660 . S
N1026 C1027 1.305 . S
C1027 N1026 1.305 . S
C1027 C1029 1.407 . S
C1027 H1034 0.930 . S
C1028 C1016 1.410 . S
C1028 C1029 1.345 . S
C1028 H1036 0.930 . S
C1029 C1027 1.407 . S
C1029 C1028 1.345 . S
C1029 H1031 0.930 . S
H1030 C1023 0.930 . S
H1031 C1029 0.930 . S
H1032 C1020 0.930 . S
H1033 C1021 0.931 . S
H1034 C1027 0.930 . S
H1035 C1049 0.930 . S
H1036 C1028 0.930 . S
H1037 C1055 0.930 . S
H1038 C1046 0.930 . S
H1039 C1053 0.931 . S
H1040 C1017 0.929 . S
H1041 C1047 0.930 . S
H1042 C1080 0.930 . S
H1043 C1024 0.930 . S
H1044 C1079 0.929 . S
N1045 Tb1014 2.660 . S
N1045 C1046 1.305 . S
N1045 C1050 1.360 . S
C1046 H1038 0.930 . S
C1046 N1045 1.305 . S
C1046 C1049 1.407 . S
C1047 H1041 0.930 . S
C1047 C1048 1.410 . S
C1047 C1049 1.345 . S
C1048 C1047 1.410 . S
C1048 C1050 1.417 . S
C1048 C1080 1.432 . S
C1049 H1035 0.930 . S
C1049 C1046 1.407 . S
C1049 C1047 1.345 . S
C1050 N1045 1.360 . S
C1050 C1048 1.417 . S
C1050 C1054 1.432 . S
H1051 C1056 0.930 . S
N1052 Tb1014 2.600 . S
N1052 C1054 1.359 . S
N1052 C1055 1.327 . S
C1053 H1039 0.931 . S
C1053 C1055 1.392 . S
C1053 C1056 1.370 . S
C1054 C1050 1.432 . S
C1054 N1052 1.359 . S
C1054 C1057 1.414 . S
C1055 H1037 0.930 . S
C1055 N1052 1.327 . S
C1055 C1053 1.392 . S
C1056 H1051 0.930 . S
C1056 C1053 1.370 . S
C1056 C1057 1.385 . S
C1057 C1054 1.414 . S
C1057 C1056 1.385 . S
C1057 C1079 1.444 . S
O1058 Tb1014 2.546 . S
O1058 C1078 1.251 . S
O1059 Tb1014 2.610 . S
O1059 Tb1025 2.362 . S
O1059 C1070 1.283 . S
O1060 Tb1025 2.421 . S
O1060 C1077 1.262 . S
O1061 Tb1014 2.320 . S
O1061 C1077 1.260 . S
O1062 Tb1014 2.552 . S
O1062 C1070 1.243 . S
O1063 Tb1014 2.413 . S
O1063 C1078 1.256 . S
O1064 Tb1025 2.546 . S
O1064 C1089 1.251 . S
O1065 Tb1014 2.362 . S
O1065 Tb1025 2.610 . S
O1065 C1081 1.283 . S
O1066 Tb1014 2.421 . S
O1066 C1088 1.262 . S
O1067 Tb1025 2.320 . S
O1067 C1088 1.260 . S
O1068 Tb1025 2.552 . S
O1068 C1081 1.243 . S
O1069 Tb1025 2.413 . S
O1069 C1089 1.256 . S
C1070 O1059 1.283 . S
C1070 O1062 1.243 . S
C1071 C1073 1.382 . S
C1071 C1075 1.393 . S
C1071 C1078 1.500 . S
C1072 C1073 1.400 . S
C1072 C1074 1.384 . S
C1073 C1071 1.382 . S
C1073 C1072 1.400 . S
C1073 H1090 0.930 . S
C1074 C1072 1.384 . S
C1074 C1076 1.392 . S
C1074 H1091 0.931 . S
C1075 C1071 1.393 . S
C1075 C1076 1.401 . S
C1075 H1092 0.930 . S
C1076 C1074 1.392 . S
C1076 C1075 1.401 . S
C1076 H1093 0.930 . S
C1077 O1060 1.262 . S
C1077 O1061 1.260 . S
C1078 Tb1014 2.833 . S
C1078 O1058 1.251 . S
C1078 O1063 1.256 . S
C1078 C1071 1.500 . S
C1079 H1044 0.929 . S
C1079 C1057 1.444 . S
C1079 C1080 1.317 . S
C1080 H1042 0.930 . S
C1080 C1048 1.432 . S
C1080 C1079 1.317 . S
C1081 O1065 1.283 . S
C1081 O1068 1.243 . S
C1082 C1083 1.382 . S
C1082 C1086 1.393 . S
C1082 C1089 1.500 . S
C1083 C1082 1.382 . S
C1083 C1084 1.400 . S
C1083 H1094 0.930 . S
C1084 C1083 1.400 . S
C1084 C1085 1.384 . S
C1085 C1084 1.384 . S
C1085 C1087 1.392 . S
C1085 H1095 0.931 . S
C1086 C1082 1.393 . S
C1086 C1087 1.401 . S
C1086 H1096 0.930 . S
C1087 C1085 1.392 . S
C1087 C1086 1.401 . S
C1087 H1097 0.930 . S
C1088 O1066 1.262 . S
C1088 O1067 1.260 . S
C1089 Tb1025 2.833 . S
C1089 O1064 1.251 . S
C1089 O1069 1.256 . S
C1089 C1082 1.500 . S
H1090 C1073 0.930 . S
H1091 C1074 0.931 . S
H1092 C1075 0.930 . S
H1093 C1076 0.930 . S
H1094 C1083 0.930 . S
H1095 C1085 0.931 . S
H1096 C1086 0.930 . S
H1097 C1087 0.930 . S
H1098 C1106 0.929 . S
H1099 C1108 0.930 . S
H1100 C1110 0.930 . S
H1101 C1113 0.929 . S
H1102 C1116 0.930 . S
H1103 C1118 0.960 . S
H1104 C1118 0.960 . S
H1105 C1118 0.960 . S
C1106 H1098 0.929 . S
C1106 C1107 1.377 . S
C1106 C1108 1.384 . S
C1107 C1106 1.377 . S
C1107 C1113 1.390 . S
C1108 H1099 0.930 . S
C1108 C1106 1.384 . S
C1108 C1109 1.372 . S
C1109 C1108 1.372 . S
C1109 C1110 1.400 . S
C1109 C1114 1.490 . S
C1110 H1100 0.930 . S
C1110 C1109 1.400 . S
C1110 C1113 1.386 . S
H1111 C1127 0.930 . S
H1112 C1128 0.931 . S
C1113 H1101 0.929 . S
C1113 C1107 1.390 . S
C1113 C1110 1.386 . S
C1114 C1109 1.490 . S
C1114 C1116 1.395 . S
C1114 C1117 1.403 . S
H1115 C1121 0.930 . S
C1116 H1102 0.930 . S
C1116 C1114 1.395 . S
C1116 C1119 1.403 . S
C1117 C1114 1.403 . S
C1117 C1118 1.524 . S
C1117 C1121 1.400 . S
C1118 H1103 0.960 . S
C1118 H1104 0.960 . S
C1118 H1105 0.960 . S
C1118 C1117 1.524 . S
C1119 C1116 1.403 . S
C1119 C1120 1.392 . S
C1119 C1123 1.495 . S
C1120 C1119 1.392 . S
C1120 C1121 1.385 . S
C1120 C1122 1.478 . S
C1121 H1115 0.930 . S
C1121 C1117 1.400 . S
C1121 C1120 1.385 . S
C1122 C1120 1.478 . S
C1122 C1124 1.381 . S
C1122 C1128 1.383 . S
C1123 C1119 1.495 . S
C1123 H1129 0.959 . S
C1123 H1130 0.961 . S
C1123 H1131 0.960 . S
C1124 C1122 1.381 . S
C1124 C1125 1.394 . S
C1124 H1132 0.930 . S
C1125 C1124 1.394 . S
C1125 C1126 1.383 . S
C1125 H1133 0.929 1_554 S
C1126 C1125 1.383 . S
C1126 C1127 1.377 . S
C1127 H1111 0.930 . S
C1127 C1126 1.377 . S
C1127 C1128 1.379 . S
C1128 H1112 0.931 . S
C1128 C1122 1.383 . S
C1128 C1127 1.379 . S
H1129 C1123 0.959 . S
H1130 C1123 0.961 . S
H1131 C1123 0.960 . S
H1132 C1124 0.930 . S
H1133 C1125 0.929 1_556 S
H1134 C1142 0.929 . S
H1135 C1144 0.930 . S
H1136 C1146 0.930 . S
H1137 C1149 0.929 . S
H1138 C1152 0.930 . S
H1139 C1154 0.960 . S
H1140 C1154 0.960 . S
H1141 C1154 0.960 . S
C1142 H1134 0.929 . S
C1142 C1143 1.377 . S
C1142 C1144 1.384 . S
C1143 C1142 1.377 . S
C1143 C1149 1.390 . S
C1144 H1135 0.930 . S
C1144 C1142 1.384 . S
C1144 C1145 1.372 . S
C1145 C1144 1.372 . S
C1145 C1146 1.400 . S
C1145 C1150 1.490 . S
C1146 H1136 0.930 . S
C1146 C1145 1.400 . S
C1146 C1149 1.386 . S
H1147 C1163 0.930 . S
H1148 C1164 0.931 . S
C1149 H1137 0.929 . S
C1149 C1143 1.390 . S
C1149 C1146 1.386 . S
C1150 C1145 1.490 . S
C1150 C1152 1.395 . S
C1150 C1153 1.403 . S
H1151 C1157 0.930 . S
C1152 H1138 0.930 . S
C1152 C1150 1.395 . S
C1152 C1155 1.403 . S
C1153 C1150 1.403 . S
C1153 C1154 1.524 . S
C1153 C1157 1.400 . S
C1154 H1139 0.960 . S
C1154 H1140 0.960 . S
C1154 H1141 0.960 . S
C1154 C1153 1.524 . S
C1155 C1152 1.403 . S
C1155 C1156 1.392 . S
C1155 C1159 1.495 . S
C1156 C1155 1.392 . S
C1156 C1157 1.385 . S
C1156 C1158 1.478 . S
C1157 H1151 0.930 . S
C1157 C1153 1.400 . S
C1157 C1156 1.385 . S
C1158 C1156 1.478 . S
C1158 C1160 1.381 . S
C1158 C1164 1.383 . S
C1159 C1155 1.495 . S
C1159 H1165 0.959 1_554 S
C1159 H1166 0.961 . S
C1159 H1167 0.960 1_554 S
C1160 C1158 1.381 . S
C1160 C1161 1.394 . S
C1160 H1168 0.930 . S
C1161 C1160 1.394 . S
C1161 C1162 1.383 . S
C1161 H1169 0.929 . S
C1162 C1161 1.383 . S
C1162 C1163 1.377 . S
C1163 H1147 0.930 . S
C1163 C1162 1.377 . S
C1163 C1164 1.379 . S
C1164 H1148 0.931 . S
C1164 C1158 1.383 . S
C1164 C1163 1.379 . S
H1165 C1159 0.959 1_556 S
H1166 C1159 0.961 . S
H1167 C1159 0.960 1_556 S
H1168 C1160 0.930 . S
H1169 C1161 0.929 . S
H1170 C1178 0.929 . S
H1171 C1180 0.930 . S
H1172 C1182 0.930 . S
H1173 C1185 0.929 . S
H1174 C1188 0.930 . S
H1175 C1190 0.960 . S
H1176 C1190 0.960 . S
H1177 C1190 0.960 . S
C1178 H1170 0.929 . S
C1178 C1179 1.377 . S
C1178 C1180 1.384 . S
C1179 C1178 1.377 . S
C1179 C1185 1.390 . S
C1180 H1171 0.930 . S
C1180 C1178 1.384 . S
C1180 C1181 1.372 . S
C1181 C1180 1.372 . S
C1181 C1182 1.400 . S
C1181 C1186 1.490 . S
C1182 H1172 0.930 . S
C1182 C1181 1.400 . S
C1182 C1185 1.386 . S
H1183 C1199 0.930 . S
H1184 C1200 0.931 . S
C1185 H1173 0.929 . S
C1185 C1179 1.390 . S
C1185 C1182 1.386 . S
C1186 C1181 1.490 . S
C1186 C1188 1.395 . S
C1186 C1189 1.403 . S
H1187 C1193 0.930 . S
C1188 H1174 0.930 . S
C1188 C1186 1.395 . S
C1188 C1191 1.403 . S
C1189 C1186 1.403 . S
C1189 C1190 1.524 . S
C1189 C1193 1.400 . S
C1190 H1175 0.960 . S
C1190 H1176 0.960 . S
C1190 H1177 0.960 . S
C1190 C1189 1.524 . S
C1191 C1188 1.403 . S
C1191 C1192 1.392 . S
C1191 C1195 1.495 . S
C1192 C1191 1.392 . S
C1192 C1193 1.385 . S
C1192 C1194 1.478 . S
C1193 H1187 0.930 . S
C1193 C1189 1.400 . S
C1193 C1192 1.385 . S
C1194 C1192 1.478 . S
C1194 C1196 1.381 . S
C1194 C1200 1.383 . S
C1195 C1191 1.495 . S
C1195 H1201 0.959 . S
C1195 H1202 0.961 1_554 S
C1195 H1203 0.960 . S
C1196 C1194 1.381 . S
C1196 C1197 1.394 . S
C1196 H1204 0.930 . S
C1197 C1196 1.394 . S
C1197 C1198 1.383 . S
C1197 H1205 0.929 . S
C1198 C1197 1.383 . S
C1198 C1199 1.377 . S
C1199 H1183 0.930 . S
C1199 C1198 1.377 . S
C1199 C1200 1.379 . S
C1200 H1184 0.931 . S
C1200 C1194 1.383 . S
C1200 C1199 1.379 . S
H1201 C1195 0.959 . S
H1202 C1195 0.961 1_556 S
H1203 C1195 0.960 . S
H1204 C1196 0.930 . S
H1205 C1197 0.929 . S
H1206 C1214 0.929 . S
H1207 C1216 0.930 . S
H1208 C1218 0.930 . S
H1209 C1221 0.929 . S
H1210 C1224 0.930 . S
H1211 C1226 0.924 1_554 S
H1212 C1226 0.924 1_554 S
H1213 C1226 1.003 . S
C1214 H1206 0.929 . S
C1214 C1215 1.377 . S
C1214 C1216 1.384 . S
C1215 C1214 1.377 . S
C1215 C1221 1.390 . S
C1216 H1207 0.930 . S
C1216 C1214 1.384 . S
C1216 C1217 1.372 . S
C1217 C1216 1.372 . S
C1217 C1218 1.400 . S
C1217 C1222 1.490 . S
C1218 H1208 0.930 . S
C1218 C1217 1.400 . S
C1218 C1221 1.386 . S
H1219 C1235 0.930 . S
H1220 C1236 0.931 . S
C1221 H1209 0.929 . S
C1221 C1215 1.390 . S
C1221 C1218 1.386 . S
C1222 C1217 1.490 . S
C1222 C1224 1.395 . S
C1222 C1225 1.403 . S
H1223 C1229 0.958 . S
C1224 H1210 0.930 . S
C1224 C1222 1.395 . S
C1224 C1227 1.403 . S
C1225 C1222 1.403 . S
C1225 C1226 1.558 . S
C1225 C1229 1.400 . S
C1226 H1211 0.924 1_556 S
C1226 H1212 0.924 1_556 S
C1226 H1213 1.003 . S
C1226 C1225 1.558 . S
C1227 C1224 1.403 . S
C1227 C1228 1.392 . S
C1227 C1231 1.495 . S
C1228 C1227 1.392 . S
C1228 C1229 1.385 . S
C1228 C1230 1.478 . S
C1229 H1223 0.958 . S
C1229 C1225 1.400 . S
C1229 C1228 1.385 . S
C1230 C1228 1.478 . S
C1230 C1232 1.381 . S
C1230 C1236 1.383 . S
C1231 C1227 1.495 . S
C1231 H1237 0.959 . S
C1231 H1238 0.961 . S
C1231 H1239 0.960 . S
C1232 C1230 1.381 . S
C1232 C1233 1.394 1_556 S
C1232 H1240 0.932 1_556 S
C1233 C1232 1.394 1_554 S
C1233 C1234 1.383 1_554 S
C1233 H1241 0.929 . S
C1234 C1233 1.383 1_556 S
C1234 C1235 1.377 . S
C1235 H1219 0.930 . S
C1235 C1234 1.377 . S
C1235 C1236 1.379 . S
C1236 H1220 0.931 . S
C1236 C1230 1.383 . S
C1236 C1235 1.379 . S
H1237 C1231 0.959 . S
H1238 C1231 0.961 . S
H1239 C1231 0.960 . S
H1240 C1232 0.932 1_554 S
H1241 C1233 0.929 . S
H1242 C1250 0.929 . S
H1243 C1252 0.930 . S
H1244 C1254 0.930 . S
H1245 C1257 0.929 . S
H1246 C1260 0.930 . S
H1247 C1262 0.960 . S
H1248 C1262 0.969 . S
H1249 C1262 0.960 . S
C1250 H1242 0.929 . S
C1250 C1251 1.377 . S
C1250 C1252 1.384 . S
C1251 C1250 1.377 . S
C1251 C1257 1.390 . S
C1252 H1243 0.930 . S
C1252 C1250 1.384 . S
C1252 C1253 1.372 . S
C1253 C1252 1.372 . S
C1253 C1254 1.400 . S
C1253 C1258 1.490 . S
C1254 H1244 0.930 . S
C1254 C1253 1.400 . S
C1254 C1257 1.386 . S
H1255 C1271 0.930 . S
H1256 C1272 0.931 1_554 S
C1257 H1245 0.929 . S
C1257 C1251 1.390 . S
C1257 C1254 1.386 . S
C1258 C1253 1.490 . S
C1258 C1260 1.395 . S
C1258 C1261 1.403 . S
H1259 C1265 0.930 1_554 S
C1260 H1246 0.930 . S
C1260 C1258 1.395 . S
C1260 C1263 1.403 . S
C1261 C1258 1.403 . S
C1261 C1262 1.524 1_556 S
C1261 C1265 1.400 . S
C1262 H1247 0.960 . S
C1262 H1248 0.969 . S
C1262 H1249 0.960 . S
C1262 C1261 1.524 1_554 S
C1263 C1260 1.403 . S
C1263 C1264 1.392 . S
C1263 C1267 1.495 . S
C1264 C1263 1.392 . S
C1264 C1265 1.385 . S
C1264 C1266 1.478 . S
C1265 H1259 0.930 1_556 S
C1265 C1261 1.400 . S
C1265 C1264 1.385 . S
C1266 C1264 1.478 . S
C1266 C1268 1.381 . S
C1266 C1272 1.383 . S
C1267 C1263 1.495 . S
C1267 H1273 0.959 . S
C1267 H1274 0.961 . S
C1267 H1275 0.960 . S
C1268 C1266 1.381 . S
C1268 C1269 1.394 . S
C1268 H1276 0.930 . S
C1269 C1268 1.394 . S
C1269 C1270 1.383 . S
C1269 H1277 0.929 . S
C1270 C1269 1.383 . S
C1270 C1271 1.377 1_556 S
C1271 H1255 0.930 . S
C1271 C1270 1.377 1_554 S
C1271 C1272 1.379 1_554 S
C1272 H1256 0.931 1_556 S
C1272 C1266 1.383 . S
C1272 C1271 1.379 1_556 S
H1273 C1267 0.959 . S
H1274 C1267 0.961 . S
H1275 C1267 0.960 . S
H1276 C1268 0.930 . S
H1277 C1269 0.929 . S
H1278 C1286 0.929 . S
H1279 C1288 0.930 . S
H1280 C1290 0.930 . S
H1281 C1293 0.929 . S
H1282 C1296 0.930 . S
H1283 C1298 0.960 . S
H1284 C1298 0.960 . S
H1285 C1298 0.960 . S
C1286 H1278 0.929 . S
C1286 C1287 1.377 . S
C1286 C1288 1.384 . S
C1287 C1286 1.377 . S
C1287 C1293 1.390 . S
C1288 H1279 0.930 . S
C1288 C1286 1.384 . S
C1288 C1289 1.372 . S
C1289 C1288 1.372 . S
C1289 C1290 1.400 . S
C1289 C1294 1.490 . S
C1290 H1280 0.930 . S
C1290 C1289 1.400 . S
C1290 C1293 1.386 . S
H1291 C1307 0.930 . S
H1292 C1308 0.931 . S
C1293 H1281 0.929 . S
C1293 C1287 1.390 . S
C1293 C1290 1.386 . S
C1294 C1289 1.490 . S
C1294 C1296 1.395 . S
C1294 C1297 1.403 . S
H1295 C1301 0.930 . S
C1296 H1282 0.930 . S
C1296 C1294 1.395 . S
C1296 C1299 1.403 . S
C1297 C1294 1.403 . S
C1297 C1298 1.524 . S
C1297 C1301 1.400 . S
C1298 H1283 0.960 . S
C1298 H1284 0.960 . S
C1298 H1285 0.960 . S
C1298 C1297 1.524 . S
C1299 C1296 1.403 . S
C1299 C1300 1.392 . S
C1299 C1303 1.495 . S
C1300 C1299 1.392 . S
C1300 C1301 1.385 . S
C1300 C1302 1.478 . S
C1301 H1295 0.930 . S
C1301 C1297 1.400 . S
C1301 C1300 1.385 . S
C1302 C1300 1.478 . S
C1302 C1304 1.381 1_556 S
C1302 C1308 1.383 . S
C1303 C1299 1.495 . S
C1303 H1309 0.959 . S
C1303 H1310 0.961 . S
C1303 H1311 0.960 . S
C1304 C1302 1.381 1_554 S
C1304 C1305 1.394 . S
C1304 H1312 0.930 . S
C1305 C1304 1.394 . S
C1305 C1306 1.366 1_554 S
C1305 H1313 0.929 . S
C1306 C1305 1.366 1_556 S
C1306 C1307 1.400 . S
C1307 H1291 0.930 . S
C1307 C1306 1.400 . S
C1307 C1308 1.379 . S
C1308 H1292 0.931 . S
C1308 C1302 1.383 . S
C1308 C1307 1.379 . S
H1309 C1303 0.959 . S
H1310 C1303 0.961 . S
H1311 C1303 0.960 . S
H1312 C1304 0.930 . S
H1313 C1305 0.929 . S
H1314 C1322 0.929 . S
H1315 C1324 0.930 . S
H1316 C1326 0.891 1_554 S
H1317 C1329 0.929 . S
H1318 C1332 0.930 . S
H1319 C1334 0.960 . S
H1320 C1334 0.960 . S
H1321 C1334 0.960 . S
C1322 H1314 0.929 . S
C1322 C1323 1.377 . S
C1322 C1324 1.384 . S
C1323 C1322 1.377 . S
C1323 C1329 1.390 . S
C1324 H1315 0.930 . S
C1324 C1322 1.384 . S
C1324 C1325 1.372 . S
C1325 C1324 1.372 . S
C1325 C1326 1.400 . S
C1325 C1330 1.490 . S
C1326 H1316 0.891 1_556 S
C1326 C1325 1.400 . S
C1326 C1329 1.386 . S
H1327 C1343 0.930 . S
H1328 C1344 0.931 . S
C1329 H1317 0.929 . S
C1329 C1323 1.390 . S
C1329 C1326 1.386 . S
C1330 C1325 1.490 . S
C1330 C1332 1.395 . S
C1330 C1333 1.403 . S
H1331 C1337 0.930 . S
C1332 H1318 0.930 . S
C1332 C1330 1.395 . S
C1332 C1335 1.403 . S
C1333 C1330 1.403 . S
C1333 C1334 1.524 . S
C1333 C1337 1.400 . S
C1334 H1319 0.960 . S
C1334 H1320 0.960 . S
C1334 H1321 0.960 . S
C1334 C1333 1.524 . S
C1335 C1332 1.403 . S
C1335 C1336 1.392 . S
C1335 C1339 1.495 . S
C1336 C1335 1.392 . S
C1336 C1337 1.385 . S
C1336 C1338 1.478 . S
C1337 H1331 0.930 . S
C1337 C1333 1.400 . S
C1337 C1336 1.385 . S
C1338 C1336 1.478 . S
C1338 C1340 1.381 . S
C1338 C1344 1.383 1_556 S
C1339 C1335 1.495 . S
C1339 H1345 0.959 . S
C1339 H1346 0.961 . S
C1339 H1347 0.960 . S
C1340 C1338 1.381 . S
C1340 C1341 1.394 . S
C1340 H1348 0.930 . S
C1341 C1340 1.394 . S
C1341 C1342 1.383 . S
C1341 H1349 0.929 . S
C1342 C1341 1.383 . S
C1342 C1343 1.377 1_556 S
C1343 H1327 0.930 . S
C1343 C1342 1.377 1_554 S
C1343 C1344 1.379 . S
C1344 H1328 0.931 . S
C1344 C1338 1.383 1_554 S
C1344 C1343 1.379 . S
H1345 C1339 0.959 . S
H1346 C1339 0.961 . S
H1347 C1339 0.960 . S
H1348 C1340 0.930 . S
H1349 C1341 0.929 . S
H1350 C1358 0.929 . S
H1351 C1360 0.930 . S
H1352 C1362 0.930 . S
H1353 C1365 0.929 . S
H1354 C1368 0.930 . S
H1355 C1370 0.960 . S
H1356 C1370 0.960 . S
H1357 C1370 0.960 . S
C1358 H1350 0.929 . S
C1358 C1359 1.377 . S
C1358 C1360 1.384 . S
C1359 C1358 1.377 . S
C1359 C1365 1.390 . S
C1360 H1351 0.930 . S
C1360 C1358 1.384 . S
C1360 C1361 1.372 . S
C1361 C1360 1.372 . S
C1361 C1362 1.400 . S
C1361 C1366 1.490 . S
C1362 H1352 0.930 . S
C1362 C1361 1.400 . S
C1362 C1365 1.386 . S
H1363 C1379 0.930 . S
H1364 C1380 0.931 . S
C1365 H1353 0.929 . S
C1365 C1359 1.390 . S
C1365 C1362 1.386 . S
C1366 C1361 1.490 . S
C1366 C1368 1.395 . S
C1366 C1369 1.403 . S
H1367 C1373 0.930 . S
C1368 H1354 0.930 . S
C1368 C1366 1.395 . S
C1368 C1371 1.403 . S
C1369 C1366 1.403 . S
C1369 C1370 1.524 . S
C1369 C1373 1.400 . S
C1370 H1355 0.960 . S
C1370 H1356 0.960 . S
C1370 H1357 0.960 . S
C1370 C1369 1.524 . S
C1371 C1368 1.403 . S
C1371 C1372 1.392 . S
C1371 C1375 1.495 1_556 S
C1372 C1371 1.392 . S
C1372 C1373 1.385 . S
C1372 C1374 1.478 . S
C1373 H1367 0.930 . S
C1373 C1369 1.400 . S
C1373 C1372 1.385 . S
C1374 C1372 1.478 . S
C1374 C1376 1.381 . S
C1374 C1380 1.383 1_556 S
C1375 C1371 1.495 1_554 S
C1375 H1381 0.959 . S
C1375 H1382 0.961 . S
C1375 H1383 0.969 . S
C1376 C1374 1.381 . S
C1376 C1377 1.394 . S
C1376 H1384 0.930 . S
C1377 C1376 1.394 . S
C1377 C1378 1.383 . S
C1377 H1385 0.929 . S
C1378 C1377 1.383 . S
C1378 C1379 1.377 1_556 S
C1379 H1363 0.930 . S
C1379 C1378 1.377 1_554 S
C1379 C1380 1.379 . S
C1380 H1364 0.931 . S
C1380 C1374 1.383 1_554 S
C1380 C1379 1.379 . S
H1381 C1375 0.959 . S
H1382 C1375 0.961 . S
H1383 C1375 0.969 . S
H1384 C1376 0.930 . S
H1385 C1377 0.929 . S
H1386 C1394 0.929 . S
H1387 C1396 0.930 1_554 S
H1388 C1398 0.930 . S
H1389 C1401 0.929 . S
H1390 C1404 0.930 . S
H1391 C1406 0.962 . S
H1392 C1406 0.965 . S
H1393 C1406 0.955 1_556 S
C1394 H1386 0.929 . S
C1394 C1395 1.377 . S
C1394 C1396 1.384 . S
C1395 C1394 1.377 . S
C1395 C1401 1.390 . S
C1396 H1387 0.930 1_556 S
C1396 C1394 1.384 . S
C1396 C1397 1.372 . S
C1397 C1396 1.372 . S
C1397 C1398 1.400 . S
C1397 C1402 1.490 . S
C1398 H1388 0.930 . S
C1398 C1397 1.400 . S
C1398 C1401 1.386 . S
H1399 C1415 0.930 . S
H1400 C1416 0.931 . S
C1401 H1389 0.929 . S
C1401 C1395 1.390 . S
C1401 C1398 1.386 . S
C1402 C1397 1.490 . S
C1402 C1404 1.395 . S
C1402 C1405 1.403 . S
H1403 C1409 0.921 1_554 S
C1404 H1390 0.930 . S
C1404 C1402 1.395 . S
C1404 C1407 1.403 . S
C1405 C1402 1.403 . S
C1405 C1406 1.522 1_556 S
C1405 C1409 1.400 . S
C1406 H1391 0.962 . S
C1406 H1392 0.965 . S
C1406 H1393 0.955 1_554 S
C1406 C1405 1.522 1_554 S
C1407 C1404 1.403 . S
C1407 C1408 1.392 . S
C1407 C1411 1.495 . S
C1408 C1407 1.392 . S
C1408 C1409 1.385 . S
C1408 C1410 1.478 . S
C1409 H1403 0.921 1_556 S
C1409 C1405 1.400 . S
C1409 C1408 1.385 . S
C1410 C1408 1.478 . S
C1410 C1412 1.381 1_556 S
C1410 C1416 1.383 . S
C1411 C1407 1.495 . S
C1411 H1417 0.959 . S
C1411 H1418 0.961 . S
C1411 H1419 0.960 . S
C1412 C1410 1.381 1_554 S
C1412 C1413 1.394 . S
C1412 H1420 0.930 . S
C1413 C1412 1.394 . S
C1413 C1414 1.410 . S
C1413 H1421 0.929 . S
C1414 C1413 1.410 . S
C1414 C1415 1.343 1_554 S
C1415 H1399 0.930 . S
C1415 C1414 1.343 1_556 S
C1415 C1416 1.379 . S
C1416 H1400 0.931 . S
C1416 C1410 1.383 . S
C1416 C1415 1.379 . S
H1417 C1411 0.959 . S
H1418 C1411 0.961 . S
H1419 C1411 0.960 . S
H1420 C1412 0.930 . S
H1421 C1413 0.929 . S
H1422 C1430 0.929 . S
H1423 C1432 0.930 . S
H1424 C1434 0.930 . S
H1425 C1437 0.929 . S
H1426 C1440 0.930 . S
H1427 C1442 0.960 . S
H1428 C1442 0.960 . S
H1429 C1442 0.960 . S
C1430 H1422 0.929 . S
C1430 C1431 1.377 . S
C1430 C1432 1.384 . S
C1431 C1430 1.377 . S
C1431 C1437 1.390 . S
C1432 H1423 0.930 . S
C1432 C1430 1.384 . S
C1432 C1433 1.372 . S
C1433 C1432 1.372 . S
C1433 C1434 1.400 . S
C1433 C1438 1.490 . S
C1434 H1424 0.930 . S
C1434 C1433 1.400 . S
C1434 C1437 1.386 . S
H1435 C1451 0.930 . S
H1436 C1452 0.931 . S
C1437 H1425 0.929 . S
C1437 C1431 1.390 . S
C1437 C1434 1.386 . S
C1438 C1433 1.490 . S
C1438 C1440 1.395 . S
C1438 C1441 1.403 . S
H1439 C1445 0.930 . S
C1440 H1426 0.930 . S
C1440 C1438 1.395 . S
C1440 C1443 1.403 . S
C1441 C1438 1.403 . S
C1441 C1442 1.524 . S
C1441 C1445 1.400 . S
C1442 H1427 0.960 . S
C1442 H1428 0.960 . S
C1442 H1429 0.960 . S
C1442 C1441 1.524 . S
C1443 C1440 1.403 . S
C1443 C1444 1.392 . S
C1443 C1447 1.495 1_554 S
C1444 C1443 1.392 . S
C1444 C1445 1.385 . S
C1444 C1446 1.478 . S
C1445 H1439 0.930 . S
C1445 C1441 1.400 . S
C1445 C1444 1.385 . S
C1446 C1444 1.478 . S
C1446 C1448 1.381 . S
C1446 C1452 1.383 . S
C1447 C1443 1.495 1_556 S
C1447 H1453 0.959 . S
C1447 H1454 0.961 . S
C1447 H1455 0.960 . S
C1448 C1446 1.381 . S
C1448 C1449 1.394 . S
C1448 H1456 0.930 . S
C1449 C1448 1.394 . S
C1449 C1450 1.383 . S
C1449 H1457 0.929 . S
C1450 C1449 1.383 . S
C1450 C1451 1.377 . S
C1451 H1435 0.930 . S
C1451 C1450 1.377 . S
C1451 C1452 1.379 . S
C1452 H1436 0.931 . S
C1452 C1446 1.383 . S
C1452 C1451 1.379 . S
H1453 C1447 0.959 . S
H1454 C1447 0.961 . S
H1455 C1447 0.960 . S
H1456 C1448 0.930 . S
H1457 C1449 0.929 . S
H1458 C1466 0.929 . S
H1459 C1468 0.930 . S
H1460 C1470 0.930 . S
H1461 C1473 0.929 . S
H1462 C1476 0.930 . S
H1463 C1478 0.960 . S
H1464 C1478 0.960 . S
H1465 C1478 0.960 . S
C1466 H1458 0.929 . S
C1466 C1467 1.377 . S
C1466 C1468 1.384 . S
C1467 C1466 1.377 . S
C1467 C1473 1.390 . S
C1468 H1459 0.930 . S
C1468 C1466 1.384 . S
C1468 C1469 1.372 . S
C1469 C1468 1.372 . S
C1469 C1470 1.400 . S
C1469 C1474 1.490 . S
C1470 H1460 0.930 . S
C1470 C1469 1.400 . S
C1470 C1473 1.386 . S
H1471 C1487 0.930 . S
H1472 C1488 0.931 . S
C1473 H1461 0.929 . S
C1473 C1467 1.390 . S
C1473 C1470 1.386 . S
C1474 C1469 1.490 . S
C1474 C1476 1.395 . S
C1474 C1477 1.403 . S
H1475 C1481 0.930 . S
C1476 H1462 0.930 . S
C1476 C1474 1.395 . S
C1476 C1479 1.403 . S
C1477 C1474 1.403 . S
C1477 C1478 1.524 . S
C1477 C1481 1.400 . S
C1478 H1463 0.960 . S
C1478 H1464 0.960 . S
C1478 H1465 0.960 . S
C1478 C1477 1.524 . S
C1479 C1476 1.403 . S
C1479 C1480 1.392 . S
C1479 C1483 1.495 . S
C1480 C1479 1.392 . S
C1480 C1481 1.385 . S
C1480 C1482 1.478 . S
C1481 H1475 0.930 . S
C1481 C1477 1.400 . S
C1481 C1480 1.385 . S
C1482 C1480 1.478 . S
C1482 C1484 1.381 . S
C1482 C1488 1.383 . S
C1483 C1479 1.495 . S
C1483 H1489 0.959 . S
C1483 H1490 0.961 . S
C1483 H1491 0.960 . S
C1484 C1482 1.381 . S
C1484 C1485 1.394 . S
C1484 H1492 0.930 . S
C1485 C1484 1.394 . S
C1485 C1486 1.383 . S
C1485 H1493 0.929 . S
C1486 C1485 1.383 . S
C1486 C1487 1.377 . S
C1487 H1471 0.930 . S
C1487 C1486 1.377 . S
C1487 C1488 1.379 . S
C1488 H1472 0.931 . S
C1488 C1482 1.383 . S
C1488 C1487 1.379 . S
H1489 C1483 0.959 . S
H1490 C1483 0.961 . S
H1491 C1483 0.960 . S
H1492 C1484 0.930 . S
H1493 C1485 0.929 . S
H1494 C1502 0.929 . S
H1495 C1504 0.930 . S
H1496 C1506 0.930 . S
H1497 C1509 0.929 . S
H1498 C1512 0.930 . S
H1499 C1514 1.002 . S
H1500 C1514 0.960 . S
H1501 C1514 0.960 . S
C1502 H1494 0.929 . S
C1502 C1503 1.377 . S
C1502 C1504 1.384 . S
C1503 C1502 1.377 . S
C1503 C1509 1.390 . S
C1504 H1495 0.930 . S
C1504 C1502 1.384 . S
C1504 C1505 1.372 . S
C1505 C1504 1.372 . S
C1505 C1506 1.400 . S
C1505 C1510 1.490 . S
C1506 H1496 0.930 . S
C1506 C1505 1.400 . S
C1506 C1509 1.386 . S
H1507 C1523 0.930 . S
H1508 C1524 0.931 . S
C1509 H1497 0.929 . S
C1509 C1503 1.390 . S
C1509 C1506 1.386 . S
C1510 C1505 1.490 . S
C1510 C1512 1.395 . S
C1510 C1513 1.403 . S
H1511 C1517 0.930 . S
C1512 H1498 0.930 . S
C1512 C1510 1.395 . S
C1512 C1515 1.403 . S
C1513 C1510 1.403 . S
C1513 C1514 1.524 . S
C1513 C1517 1.400 . S
C1514 H1499 1.002 . S
C1514 H1500 0.960 . S
C1514 H1501 0.960 . S
C1514 C1513 1.524 . S
C1515 C1512 1.403 . S
C1515 C1516 1.392 . S
C1515 C1519 1.495 . S
C1516 C1515 1.392 . S
C1516 C1517 1.385 . S
C1516 C1518 1.478 . S
C1517 H1511 0.930 . S
C1517 C1513 1.400 . S
C1517 C1516 1.385 . S
C1518 C1516 1.478 . S
C1518 C1520 1.381 . S
C1518 C1524 1.383 . S
C1519 C1515 1.495 . S
C1519 H1525 0.959 . S
C1519 H1526 0.961 . S
C1519 H1527 0.960 . S
C1520 C1518 1.381 . S
C1520 C1521 1.394 . S
C1520 H1528 0.930 . S
C1521 C1520 1.394 . S
C1521 C1522 1.383 . S
C1521 H1529 0.929 . S
C1522 C1521 1.383 . S
C1522 C1523 1.377 . S
C1523 H1507 0.930 . S
C1523 C1522 1.377 . S
C1523 C1524 1.379 . S
C1524 H1508 0.931 . S
C1524 C1518 1.383 . S
C1524 C1523 1.379 . S
H1525 C1519 0.959 . S
H1526 C1519 0.961 . S
H1527 C1519 0.960 . S
H1528 C1520 0.930 . S
H1529 C1521 0.929 . S
H1530 C1538 0.929 . S
H1531 C1540 0.930 . S
H1532 C1542 0.930 . S
H1533 C1545 0.929 . S
H1534 C1548 0.930 . S
H1535 C1550 0.960 1_455 S
H1536 C1550 0.960 . S
H1537 C1550 0.960 . S
C1538 H1530 0.929 . S
C1538 C1539 1.377 . S
C1538 C1540 1.384 . S
C1539 C1538 1.377 . S
C1539 C1545 1.390 . S
C1540 H1531 0.930 . S
C1540 C1538 1.384 . S
C1540 C1541 1.372 . S
C1541 C1540 1.372 . S
C1541 C1542 1.400 . S
C1541 C1546 1.490 . S
C1542 H1532 0.930 . S
C1542 C1541 1.400 . S
C1542 C1545 1.386 . S
H1543 C1559 0.930 . S
H1544 C1560 0.931 . S
C1545 H1533 0.929 . S
C1545 C1539 1.390 . S
C1545 C1542 1.386 . S
C1546 C1541 1.490 . S
C1546 C1548 1.395 . S
C1546 C1549 1.374 1_655 S
H1547 C1553 0.930 . S
C1548 H1534 0.930 . S
C1548 C1546 1.395 . S
C1548 C1551 1.403 1_655 S
C1549 C1546 1.374 1_455 S
C1549 C1550 1.537 1_455 S
C1549 C1553 1.417 . S
C1550 H1535 0.960 1_655 S
C1550 H1536 0.960 . S
C1550 H1537 0.960 . S
C1550 C1549 1.537 1_655 S
C1551 C1548 1.403 1_455 S
C1551 C1552 1.392 . S
C1551 C1555 1.495 . S
C1552 C1551 1.392 . S
C1552 C1553 1.385 . S
C1552 C1554 1.478 . S
C1553 H1547 0.930 . S
C1553 C1549 1.417 . S
C1553 C1552 1.385 . S
C1554 C1552 1.478 . S
C1554 C1556 1.381 . S
C1554 C1560 1.383 . S
C1555 C1551 1.495 . S
C1555 H1561 0.914 1_455 S
C1555 H1562 0.961 . S
C1555 H1563 0.960 . S
C1556 C1554 1.381 . S
C1556 C1557 1.394 . S
C1556 H1564 0.930 . S
C1557 C1556 1.394 . S
C1557 C1558 1.383 . S
C1557 H1565 0.929 . S
C1558 C1557 1.383 . S
C1558 C1559 1.377 . S
C1559 H1543 0.930 . S
C1559 C1558 1.377 . S
C1559 C1560 1.379 . S
C1560 H1544 0.931 . S
C1560 C1554 1.383 . S
C1560 C1559 1.379 . S
H1561 C1555 0.914 1_655 S
H1562 C1555 0.961 . S
H1563 C1555 0.960 . S
H1564 C1556 0.930 . S
H1565 C1557 0.929 . S
H1566 C1574 0.929 . S
H1567 C1576 0.930 . S
H1568 C1578 0.930 . S
H1569 C1581 0.929 . S
H1570 C1584 0.930 . S
H1571 C1586 0.960 . S
H1572 C1586 0.960 . S
H1573 C1586 0.960 . S
C1574 H1566 0.929 . S
C1574 C1575 1.377 . S
C1574 C1576 1.384 . S
C1575 C1574 1.377 . S
C1575 C1581 1.390 . S
C1576 H1567 0.930 . S
C1576 C1574 1.384 . S
C1576 C1577 1.372 . S
C1577 C1576 1.372 . S
C1577 C1578 1.400 . S
C1577 C1582 1.490 . S
C1578 H1568 0.930 . S
C1578 C1577 1.400 . S
C1578 C1581 1.386 . S
H1579 C1595 0.930 . S
H1580 C1596 0.931 . S
C1581 H1569 0.929 . S
C1581 C1575 1.390 . S
C1581 C1578 1.386 . S
C1582 C1577 1.490 . S
C1582 C1584 1.395 . S
C1582 C1585 1.403 . S
H1583 C1589 0.930 . S
C1584 H1570 0.930 . S
C1584 C1582 1.395 . S
C1584 C1587 1.403 . S
C1585 C1582 1.403 . S
C1585 C1586 1.524 . S
C1585 C1589 1.400 . S
C1586 H1571 0.960 . S
C1586 H1572 0.960 . S
C1586 H1573 0.960 . S
C1586 C1585 1.524 . S
C1587 C1584 1.403 . S
C1587 C1588 1.392 . S
C1587 C1591 1.495 . S
C1588 C1587 1.392 . S
C1588 C1589 1.385 . S
C1588 C1590 1.478 . S
C1589 H1583 0.930 . S
C1589 C1585 1.400 . S
C1589 C1588 1.385 . S
C1590 C1588 1.478 . S
C1590 C1592 1.381 . S
C1590 C1596 1.383 . S
C1591 C1587 1.495 . S
C1591 H1597 0.959 . S
C1591 H1598 0.961 . S
C1591 H1599 0.960 . S
C1592 C1590 1.381 . S
C1592 C1593 1.394 . S
C1592 H1600 0.930 . S
C1593 C1592 1.394 . S
C1593 C1594 1.383 . S
C1593 H1601 0.929 . S
C1594 C1593 1.383 . S
C1594 C1595 1.377 . S
C1595 H1579 0.930 . S
C1595 C1594 1.377 . S
C1595 C1596 1.379 . S
C1596 H1580 0.931 . S
C1596 C1590 1.383 . S
C1596 C1595 1.379 . S
H1597 C1591 0.959 . S
H1598 C1591 0.961 . S
H1599 C1591 0.960 . S
H1600 C1592 0.930 . S
H1601 C1593 0.929 . S
H1602 C1610 0.929 . S
H1603 C1612 0.930 . S
H1604 C1614 0.930 . S
H1605 C1617 0.929 . S
H1606 C1620 0.930 . S
H1607 C1622 0.960 . S
H1608 C1622 0.960 . S
H1609 C1622 0.960 . S
C1610 H1602 0.929 . S
C1610 C1611 1.377 . S
C1610 C1612 1.384 . S
C1611 C1610 1.377 . S
C1611 C1617 1.390 . S
C1612 H1603 0.930 . S
C1612 C1610 1.384 . S
C1612 C1613 1.372 . S
C1613 C1612 1.372 . S
C1613 C1614 1.400 . S
C1613 C1618 1.490 . S
C1614 H1604 0.930 . S
C1614 C1613 1.400 . S
C1614 C1617 1.386 . S
H1615 C1631 0.930 . S
H1616 C1632 0.931 . S
C1617 H1605 0.929 . S
C1617 C1611 1.390 . S
C1617 C1614 1.386 . S
C1618 C1613 1.490 . S
C1618 C1620 1.395 . S
C1618 C1621 1.403 . S
H1619 C1625 0.930 . S
C1620 H1606 0.930 . S
C1620 C1618 1.395 . S
C1620 C1623 1.403 1_545 S
C1621 C1618 1.403 . S
C1621 C1622 1.524 . S
C1621 C1625 1.400 . S
C1622 H1607 0.960 . S
C1622 H1608 0.960 . S
C1622 H1609 0.960 . S
C1622 C1621 1.524 . S
C1623 C1620 1.403 1_565 S
C1623 C1624 1.392 . S
C1623 C1627 1.495 . S
C1624 C1623 1.392 . S
C1624 C1625 1.385 1_565 S
C1624 C1626 1.478 . S
C1625 H1619 0.930 . S
C1625 C1621 1.400 . S
C1625 C1624 1.385 1_545 S
C1626 C1624 1.478 . S
C1626 C1628 1.381 . S
C1626 C1632 1.383 . S
C1627 C1623 1.495 . S
C1627 H1633 0.959 . S
C1627 H1634 0.961 . S
C1627 H1635 0.960 . S
C1628 C1626 1.381 . S
C1628 C1629 1.394 . S
C1628 H1636 0.930 . S
C1629 C1628 1.394 . S
C1629 C1630 1.383 . S
C1629 H1637 0.929 . S
C1630 C1629 1.383 . S
C1630 C1631 1.377 . S
C1631 H1615 0.930 . S
C1631 C1630 1.377 . S
C1631 C1632 1.379 . S
C1632 H1616 0.931 . S
C1632 C1626 1.383 . S
C1632 C1631 1.379 . S
H1633 C1627 0.959 . S
H1634 C1627 0.961 . S
H1635 C1627 0.960 . S
H1636 C1628 0.930 . S
H1637 C1629 0.929 . S
H1638 C1646 0.929 . S
H1639 C1648 0.930 . S
H1640 C1650 0.930 . S
H1641 C1653 0.929 . S
H1642 C1656 0.930 . S
H1643 C1658 0.960 . S
H1644 C1658 0.960 . S
H1645 C1658 0.960 . S
C1646 H1638 0.929 . S
C1646 C1647 1.377 . S
C1646 C1648 1.384 . S
C1647 C1646 1.377 . S
C1647 C1653 1.390 . S
C1648 H1639 0.930 . S
C1648 C1646 1.384 . S
C1648 C1649 1.372 . S
C1649 C1648 1.372 . S
C1649 C1650 1.400 . S
C1649 C1654 1.490 . S
C1650 H1640 0.930 . S
C1650 C1649 1.400 . S
C1650 C1653 1.386 . S
H1651 C1667 0.930 . S
H1652 C1668 0.931 . S
C1653 H1641 0.929 . S
C1653 C1647 1.390 . S
C1653 C1650 1.386 . S
C1654 C1649 1.490 . S
C1654 C1656 1.395 . S
C1654 C1657 1.403 . S
H1655 C1661 0.930 . S
C1656 H1642 0.930 . S
C1656 C1654 1.395 . S
C1656 C1659 1.403 . S
C1657 C1654 1.403 . S
C1657 C1658 1.524 . S
C1657 C1661 1.400 . S
C1658 H1643 0.960 . S
C1658 H1644 0.960 . S
C1658 H1645 0.960 . S
C1658 C1657 1.524 . S
C1659 C1656 1.403 . S
C1659 C1660 1.392 . S
C1659 C1663 1.495 . S
C1660 C1659 1.392 . S
C1660 C1661 1.385 . S
C1660 C1662 1.478 . S
C1661 H1655 0.930 . S
C1661 C1657 1.400 . S
C1661 C1660 1.385 . S
C1662 C1660 1.478 . S
C1662 C1664 1.381 . S
C1662 C1668 1.383 . S
C1663 C1659 1.495 . S
C1663 H1669 0.959 . S
C1663 H1670 0.961 . S
C1663 H1671 0.960 . S
C1664 C1662 1.381 . S
C1664 C1665 1.394 . S
C1664 H1672 0.930 . S
C1665 C1664 1.394 . S
C1665 C1666 1.383 . S
C1665 H1673 0.929 . S
C1666 C1665 1.383 . S
C1666 C1667 1.377 . S
C1667 H1651 0.930 . S
C1667 C1666 1.377 . S
C1667 C1668 1.379 . S
C1668 H1652 0.931 . S
C1668 C1662 1.383 . S
C1668 C1667 1.379 . S
H1669 C1663 0.959 . S
H1670 C1663 0.961 . S
H1671 C1663 0.960 . S
H1672 C1664 0.930 . S
H1673 C1665 0.929 . S
H1674 C1682 0.929 . S
H1675 C1684 0.930 . S
H1676 C1686 0.930 . S
H1677 C1689 0.929 . S
H1678 C1692 0.930 . S
H1679 C1694 0.960 . S
H1680 C1694 0.960 . S
H1681 C1694 0.960 . S
C1682 H1674 0.929 . S
C1682 C1683 1.377 . S
C1682 C1684 1.384 . S
C1683 C1682 1.377 . S
C1683 C1689 1.390 . S
C1684 H1675 0.930 . S
C1684 C1682 1.384 . S
C1684 C1685 1.372 . S
C1685 C1684 1.372 . S
C1685 C1686 1.400 . S
C1685 C1690 1.490 . S
C1686 H1676 0.930 . S
C1686 C1685 1.400 . S
C1686 C1689 1.386 . S
H1687 C1703 0.930 . S
H1688 C1704 0.931 . S
C1689 H1677 0.929 . S
C1689 C1683 1.390 . S
C1689 C1686 1.386 . S
C1690 C1685 1.490 . S
C1690 C1692 1.395 . S
C1690 C1693 1.403 . S
H1691 C1697 0.930 . S
C1692 H1678 0.930 . S
C1692 C1690 1.395 . S
C1692 C1695 1.403 . S
C1693 C1690 1.403 . S
C1693 C1694 1.524 . S
C1693 C1697 1.400 . S
C1694 H1679 0.960 . S
C1694 H1680 0.960 . S
C1694 H1681 0.960 . S
C1694 C1693 1.524 . S
C1695 C1692 1.403 . S
C1695 C1696 1.392 . S
C1695 C1699 1.495 . S
C1696 C1695 1.392 . S
C1696 C1697 1.385 . S
C1696 C1698 1.478 . S
C1697 H1691 0.930 . S
C1697 C1693 1.400 . S
C1697 C1696 1.385 . S
C1698 C1696 1.478 . S
C1698 C1700 1.381 . S
C1698 C1704 1.383 . S
C1699 C1695 1.495 . S
C1699 H1705 0.959 . S
C1699 H1706 0.961 . S
C1699 H1707 0.960 . S
C1700 C1698 1.381 . S
C1700 C1701 1.394 . S
C1700 H1708 0.930 . S
C1701 C1700 1.394 . S
C1701 C1702 1.383 . S
C1701 H1709 0.929 . S
C1702 C1701 1.383 . S
C1702 C1703 1.377 . S
C1703 H1687 0.930 . S
C1703 C1702 1.377 . S
C1703 C1704 1.379 . S
C1704 H1688 0.931 . S
C1704 C1698 1.383 . S
C1704 C1703 1.379 . S
H1705 C1699 0.959 . S
H1706 C1699 0.961 . S
H1707 C1699 0.960 . S
H1708 C1700 0.930 . S
H1709 C1701 0.929 . S
H1710 C1718 0.929 . S
H1711 C1720 0.930 . S
H1712 C1722 0.930 . S
H1713 C1725 0.929 . S
H1714 C1728 0.930 . S
H1715 C1730 0.960 . S
H1716 C1730 0.960 . S
H1717 C1730 0.960 . S
C1718 H1710 0.929 . S
C1718 C1719 1.377 . S
C1718 C1720 1.384 . S
C1719 C1718 1.377 . S
C1719 C1725 1.390 . S
C1720 H1711 0.930 . S
C1720 C1718 1.384 . S
C1720 C1721 1.372 . S
C1721 C1720 1.372 . S
C1721 C1722 1.400 . S
C1721 C1726 1.490 . S
C1722 H1712 0.930 . S
C1722 C1721 1.400 . S
C1722 C1725 1.386 . S
H1723 C1739 0.930 . S
H1724 C1740 0.931 . S
C1725 H1713 0.929 . S
C1725 C1719 1.390 . S
C1725 C1722 1.386 . S
C1726 C1721 1.490 . S
C1726 C1728 1.395 . S
C1726 C1729 1.403 . S
H1727 C1733 0.930 . S
C1728 H1714 0.930 . S
C1728 C1726 1.395 . S
C1728 C1731 1.403 . S
C1729 C1726 1.403 . S
C1729 C1730 1.524 . S
C1729 C1733 1.400 . S
C1730 H1715 0.960 . S
C1730 H1716 0.960 . S
C1730 H1717 0.960 . S
C1730 C1729 1.524 . S
C1731 C1728 1.403 . S
C1731 C1732 1.392 . S
C1731 C1735 1.495 . S
C1732 C1731 1.392 . S
C1732 C1733 1.385 . S
C1732 C1734 1.478 . S
C1733 H1727 0.930 . S
C1733 C1729 1.400 . S
C1733 C1732 1.385 . S
C1734 C1732 1.478 . S
C1734 C1736 1.381 . S
C1734 C1740 1.383 . S
C1735 C1731 1.495 . S
C1735 H1741 0.959 . S
C1735 H1742 0.961 . S
C1735 H1743 0.960 . S
C1736 C1734 1.381 . S
C1736 C1737 1.394 . S
C1736 H1744 0.930 . S
C1737 C1736 1.394 . S
C1737 C1738 1.383 . S
C1737 H1745 0.929 . S
C1738 C1737 1.383 . S
C1738 C1739 1.377 . S
C1739 H1723 0.930 . S
C1739 C1738 1.377 . S
C1739 C1740 1.379 . S
C1740 H1724 0.931 . S
C1740 C1734 1.383 . S
C1740 C1739 1.379 . S
H1741 C1735 0.959 . S
H1742 C1735 0.961 . S
H1743 C1735 0.960 . S
H1744 C1736 0.930 . S
H1745 C1737 0.929 . S
H1746 C1754 0.929 . S
H1747 C1756 0.930 . S
H1748 C1758 0.930 . S
H1749 C1761 0.929 . S
H1750 C1764 0.930 . S
H1751 C1766 0.960 . S
H1752 C1766 0.960 . S
H1753 C1766 0.960 . S
C1754 H1746 0.929 . S
C1754 C1755 1.377 . S
C1754 C1756 1.384 . S
C1755 C1754 1.377 . S
C1755 C1761 1.390 . S
C1756 H1747 0.930 . S
C1756 C1754 1.384 . S
C1756 C1757 1.372 . S
C1757 C1756 1.372 . S
C1757 C1758 1.400 . S
C1757 C1762 1.490 . S
C1758 H1748 0.930 . S
C1758 C1757 1.400 . S
C1758 C1761 1.386 . S
H1759 C1775 0.930 . S
H1760 C1776 0.931 . S
C1761 H1749 0.929 . S
C1761 C1755 1.390 . S
C1761 C1758 1.386 . S
C1762 C1757 1.490 . S
C1762 C1764 1.395 . S
C1762 C1765 1.403 . S
H1763 C1769 0.930 . S
C1764 H1750 0.930 . S
C1764 C1762 1.395 . S
C1764 C1767 1.403 . S
C1765 C1762 1.403 . S
C1765 C1766 1.524 . S
C1765 C1769 1.400 . S
C1766 H1751 0.960 . S
C1766 H1752 0.960 . S
C1766 H1753 0.960 . S
C1766 C1765 1.524 . S
C1767 C1764 1.403 . S
C1767 C1768 1.392 . S
C1767 C1771 1.495 . S
C1768 C1767 1.392 . S
C1768 C1769 1.385 . S
C1768 C1770 1.478 . S
C1769 H1763 0.930 . S
C1769 C1765 1.400 . S
C1769 C1768 1.385 . S
C1770 C1768 1.478 . S
C1770 C1772 1.381 . S
C1770 C1776 1.383 . S
C1771 C1767 1.495 . S
C1771 H1777 0.959 . S
C1771 H1778 0.961 . S
C1771 H1779 0.960 . S
C1772 C1770 1.381 . S
C1772 C1773 1.394 . S
C1772 H1780 0.930 . S
C1773 C1772 1.394 . S
C1773 C1774 1.383 . S
C1773 H1781 0.929 . S
C1774 C1773 1.383 . S
C1774 C1775 1.377 . S
C1775 H1759 0.930 . S
C1775 C1774 1.377 . S
C1775 C1776 1.379 . S
C1776 H1760 0.931 . S
C1776 C1770 1.383 . S
C1776 C1775 1.379 . S
H1777 C1771 0.959 . S
H1778 C1771 0.961 . S
H1779 C1771 0.960 . S
H1780 C1772 0.930 . S
H1781 C1773 0.929 . S
H1782 C1790 0.929 . S
H1783 C1792 0.930 . S
H1784 C1794 0.930 . S
H1785 C1797 0.929 . S
H1786 C1800 0.930 . S
H1787 C1802 0.960 . S
H1788 C1802 0.960 . S
H1789 C1802 0.960 . S
C1790 H1782 0.929 . S
C1790 C1791 1.377 . S
C1790 C1792 1.384 . S
C1791 C1790 1.377 . S
C1791 C1797 1.390 . S
C1792 H1783 0.930 . S
C1792 C1790 1.384 . S
C1792 C1793 1.372 . S
C1793 C1792 1.372 . S
C1793 C1794 1.400 . S
C1793 C1798 1.490 . S
C1794 H1784 0.930 . S
C1794 C1793 1.400 . S
C1794 C1797 1.386 . S
H1795 C1811 0.930 . S
H1796 C1812 0.931 . S
C1797 H1785 0.929 . S
C1797 C1791 1.390 . S
C1797 C1794 1.386 . S
C1798 C1793 1.490 . S
C1798 C1800 1.395 . S
C1798 C1801 1.403 . S
H1799 C1805 0.930 . S
C1800 H1786 0.930 . S
C1800 C1798 1.395 . S
C1800 C1803 1.403 . S
C1801 C1798 1.403 . S
C1801 C1802 1.524 . S
C1801 C1805 1.400 . S
C1802 H1787 0.960 . S
C1802 H1788 0.960 . S
C1802 H1789 0.960 . S
C1802 C1801 1.524 . S
C1803 C1800 1.403 . S
C1803 C1804 1.392 . S
C1803 C1807 1.495 . S
C1804 C1803 1.392 . S
C1804 C1805 1.385 . S
C1804 C1806 1.478 . S
C1805 H1799 0.930 . S
C1805 C1801 1.400 . S
C1805 C1804 1.385 . S
C1806 C1804 1.478 . S
C1806 C1808 1.381 . S
C1806 C1812 1.383 . S
C1807 C1803 1.495 . S
C1807 H1813 0.959 . S
C1807 H1814 0.961 . S
C1807 H1815 0.960 . S
C1808 C1806 1.381 . S
C1808 C1809 1.394 . S
C1808 H1816 0.930 . S
C1809 C1808 1.394 . S
C1809 C1810 1.383 . S
C1809 H1817 0.929 . S
C1810 C1809 1.383 . S
C1810 C1811 1.377 . S
C1811 H1795 0.930 . S
C1811 C1810 1.377 . S
C1811 C1812 1.379 . S
C1812 H1796 0.931 . S
C1812 C1806 1.383 . S
C1812 C1811 1.379 . S
H1813 C1807 0.959 . S
H1814 C1807 0.961 . S
H1815 C1807 0.960 . S
H1816 C1808 0.930 . S
H1817 C1809 0.929 . S
H1818 C1826 0.929 . S
H1819 C1828 0.930 . S
H1820 C1830 0.930 . S
H1821 C1833 0.929 . S
H1822 C1836 0.930 . S
H1823 C1838 0.960 . S
H1824 C1838 0.960 . S
H1825 C1838 0.960 . S
C1826 H1818 0.929 . S
C1826 C1827 1.377 . S
C1826 C1828 1.384 . S
C1827 C1826 1.377 . S
C1827 C1833 1.390 . S
C1828 H1819 0.930 . S
C1828 C1826 1.384 . S
C1828 C1829 1.372 . S
C1829 C1828 1.372 . S
C1829 C1830 1.400 . S
C1829 C1834 1.490 . S
C1830 H1820 0.930 . S
C1830 C1829 1.400 . S
C1830 C1833 1.386 . S
H1831 C1847 0.930 . S
H1832 C1848 0.931 . S
C1833 H1821 0.929 . S
C1833 C1827 1.390 . S
C1833 C1830 1.386 . S
C1834 C1829 1.490 . S
C1834 C1836 1.395 . S
C1834 C1837 1.403 . S
H1835 C1841 0.930 . S
C1836 H1822 0.930 . S
C1836 C1834 1.395 . S
C1836 C1839 1.403 . S
C1837 C1834 1.403 . S
C1837 C1838 1.524 . S
C1837 C1841 1.400 . S
C1838 H1823 0.960 . S
C1838 H1824 0.960 . S
C1838 H1825 0.960 . S
C1838 C1837 1.524 . S
C1839 C1836 1.403 . S
C1839 C1840 1.392 . S
C1839 C1843 1.495 . S
C1840 C1839 1.392 . S
C1840 C1841 1.385 . S
C1840 C1842 1.478 . S
C1841 H1835 0.930 . S
C1841 C1837 1.400 . S
C1841 C1840 1.385 . S
C1842 C1840 1.478 . S
C1842 C1844 1.381 . S
C1842 C1848 1.383 . S
C1843 C1839 1.495 . S
C1843 H1849 0.959 . S
C1843 H1850 0.961 . S
C1843 H1851 0.960 . S
C1844 C1842 1.381 . S
C1844 C1845 1.394 . S
C1844 H1852 0.930 . S
C1845 C1844 1.394 . S
C1845 C1846 1.383 . S
C1845 H1853 0.929 . S
C1846 C1845 1.383 . S
C1846 C1847 1.377 . S
C1847 H1831 0.930 . S
C1847 C1846 1.377 . S
C1847 C1848 1.379 . S
C1848 H1832 0.931 . S
C1848 C1842 1.383 . S
C1848 C1847 1.379 . S
H1849 C1843 0.959 . S
H1850 C1843 0.961 . S
H1851 C1843 0.960 . S
H1852 C1844 0.930 . S
H1853 C1845 0.929 . S
H1854 C1862 0.929 . S
H1855 C1864 0.930 . S
H1856 C1866 0.930 . S
H1857 C1869 0.924 . S
H1858 C1872 0.930 . S
H1859 C1874 0.960 . S
H1860 C1874 0.960 . S
H1861 C1874 0.960 . S
C1862 H1854 0.929 . S
C1862 C1863 1.377 . S
C1862 C1864 1.384 1_545 S
C1863 C1862 1.377 . S
C1863 C1869 1.418 . S
C1864 H1855 0.930 . S
C1864 C1862 1.384 1_565 S
C1864 C1865 1.372 . S
C1865 C1864 1.372 . S
C1865 C1866 1.400 . S
C1865 C1870 1.490 . S
C1866 H1856 0.930 . S
C1866 C1865 1.400 . S
C1866 C1869 1.363 1_565 S
H1867 C1883 0.930 . S
H1868 C1884 0.931 . S
C1869 H1857 0.924 . S
C1869 C1863 1.418 . S
C1869 C1866 1.363 1_545 S
C1870 C1865 1.490 . S
C1870 C1872 1.395 . S
C1870 C1873 1.403 . S
H1871 C1877 0.930 . S
C1872 H1858 0.930 . S
C1872 C1870 1.395 . S
C1872 C1875 1.403 . S
C1873 C1870 1.403 . S
C1873 C1874 1.524 . S
C1873 C1877 1.400 . S
C1874 H1859 0.960 . S
C1874 H1860 0.960 . S
C1874 H1861 0.960 . S
C1874 C1873 1.524 . S
C1875 C1872 1.403 . S
C1875 C1876 1.392 . S
C1875 C1879 1.495 . S
C1876 C1875 1.392 . S
C1876 C1877 1.385 . S
C1876 C1878 1.478 . S
C1877 H1871 0.930 . S
C1877 C1873 1.400 . S
C1877 C1876 1.385 . S
C1878 C1876 1.478 . S
C1878 C1880 1.381 . S
C1878 C1884 1.383 . S
C1879 C1875 1.495 . S
C1879 H1885 0.959 . S
C1879 H1886 0.961 . S
C1879 H1887 0.960 . S
C1880 C1878 1.381 . S
C1880 C1881 1.394 . S
C1880 H1888 0.930 . S
C1881 C1880 1.394 . S
C1881 C1882 1.383 . S
C1881 H1889 0.929 . S
C1882 C1881 1.383 . S
C1882 C1883 1.377 . S
C1883 H1867 0.930 . S
C1883 C1882 1.377 . S
C1883 C1884 1.379 . S
C1884 H1868 0.931 . S
C1884 C1878 1.383 . S
C1884 C1883 1.379 . S
H1885 C1879 0.959 . S
H1886 C1879 0.961 . S
H1887 C1879 0.960 . S
H1888 C1880 0.930 . S
H1889 C1881 0.929 . S
H1890 C1898 0.929 . S
H1891 C1900 0.930 . S
H1892 C1902 0.930 . S
H1893 C1905 0.929 1_655 S
H1894 C1908 0.930 . S
H1895 C1910 0.960 . S
H1896 C1910 0.960 . S
H1897 C1910 0.960 . S
C1898 H1890 0.929 . S
C1898 C1899 1.377 1_455 S
C1898 C1900 1.384 . S
C1899 C1898 1.377 1_655 S
C1899 C1905 1.390 1_655 S
C1900 H1891 0.930 . S
C1900 C1898 1.384 . S
C1900 C1901 1.372 . S
C1901 C1900 1.372 . S
C1901 C1902 1.400 . S
C1901 C1906 1.490 . S
C1902 H1892 0.930 . S
C1902 C1901 1.400 . S
C1902 C1905 1.386 . S
H1903 C1919 0.930 . S
H1904 C1920 0.931 . S
C1905 H1893 0.929 1_455 S
C1905 C1899 1.390 1_455 S
C1905 C1902 1.386 . S
C1906 C1901 1.490 . S
C1906 C1908 1.395 . S
C1906 C1909 1.403 . S
H1907 C1913 0.930 . S
C1908 H1894 0.930 . S
C1908 C1906 1.395 . S
C1908 C1911 1.403 . S
C1909 C1906 1.403 . S
C1909 C1910 1.524 . S
C1909 C1913 1.400 . S
C1910 H1895 0.960 . S
C1910 H1896 0.960 . S
C1910 H1897 0.960 . S
C1910 C1909 1.524 . S
C1911 C1908 1.403 . S
C1911 C1912 1.392 . S
C1911 C1915 1.495 . S
C1912 C1911 1.392 . S
C1912 C1913 1.385 . S
C1912 C1914 1.478 . S
C1913 H1907 0.930 . S
C1913 C1909 1.400 . S
C1913 C1912 1.385 . S
C1914 C1912 1.478 . S
C1914 C1916 1.381 . S
C1914 C1920 1.383 . S
C1915 C1911 1.495 . S
C1915 H1921 0.959 . S
C1915 H1922 0.961 . S
C1915 H1923 0.960 . S
C1916 C1914 1.381 . S
C1916 C1917 1.394 . S
C1916 H1924 0.930 . S
C1917 C1916 1.394 . S
C1917 C1918 1.383 . S
C1917 H1925 0.929 . S
C1918 C1917 1.383 . S
C1918 C1919 1.377 . S
C1919 H1903 0.930 . S
C1919 C1918 1.377 . S
C1919 C1920 1.379 . S
C1920 H1904 0.931 . S
C1920 C1914 1.383 . S
C1920 C1919 1.379 . S
H1921 C1915 0.959 . S
H1922 C1915 0.961 . S
H1923 C1915 0.960 . S
H1924 C1916 0.930 . S
H1925 C1917 0.929 . S
H1926 C1934 0.929 . S
H1927 C1936 0.930 . S
H1928 C1938 0.930 . S
H1929 C1941 0.929 . S
H1930 C1944 0.930 . S
H1931 C1946 0.960 . S
H1932 C1946 0.960 . S
H1933 C1946 0.960 . S
C1934 H1926 0.929 . S
C1934 C1935 1.377 . S
C1934 C1936 1.384 . S
C1935 C1934 1.377 . S
C1935 C1941 1.390 . S
C1936 H1927 0.930 . S
C1936 C1934 1.384 . S
C1936 C1937 1.372 . S
C1937 C1936 1.372 . S
C1937 C1938 1.400 . S
C1937 C1942 1.490 . S
C1938 H1928 0.930 . S
C1938 C1937 1.400 . S
C1938 C1941 1.386 . S
H1939 C1955 0.930 . S
H1940 C1956 0.931 . S
C1941 H1929 0.929 . S
C1941 C1935 1.390 . S
C1941 C1938 1.386 . S
C1942 C1937 1.490 . S
C1942 C1944 1.395 . S
C1942 C1945 1.403 . S
H1943 C1949 0.930 . S
C1944 H1930 0.930 . S
C1944 C1942 1.395 . S
C1944 C1947 1.403 . S
C1945 C1942 1.403 . S
C1945 C1946 1.524 . S
C1945 C1949 1.400 . S
C1946 H1931 0.960 . S
C1946 H1932 0.960 . S
C1946 H1933 0.960 . S
C1946 C1945 1.524 . S
C1947 C1944 1.403 . S
C1947 C1948 1.392 . S
C1947 C1951 1.495 . S
C1948 C1947 1.392 . S
C1948 C1949 1.385 . S
C1948 C1950 1.478 . S
C1949 H1943 0.930 . S
C1949 C1945 1.400 . S
C1949 C1948 1.385 . S
C1950 C1948 1.478 . S
C1950 C1952 1.381 . S
C1950 C1956 1.383 . S
C1951 C1947 1.495 . S
C1951 H1957 0.959 . S
C1951 H1958 0.961 . S
C1951 H1959 0.960 . S
C1952 C1950 1.381 . S
C1952 C1953 1.394 . S
C1952 H1960 0.930 . S
C1953 C1952 1.394 . S
C1953 C1954 1.383 . S
C1953 H1961 0.929 . S
C1954 C1953 1.383 . S
C1954 C1955 1.377 . S
C1955 H1939 0.930 . S
C1955 C1954 1.377 . S
C1955 C1956 1.379 . S
C1956 H1940 0.931 . S
C1956 C1950 1.383 . S
C1956 C1955 1.379 . S
H1957 C1951 0.959 . S
H1958 C1951 0.961 . S
H1959 C1951 0.960 . S
H1960 C1952 0.930 . S
H1961 C1953 0.929 . S
H1962 C1970 0.929 . S
H1963 C1972 0.930 . S
H1964 C1974 0.930 . S
H1965 C1977 0.929 . S
H1966 C1980 0.930 . S
H1967 C1982 0.960 . S
H1968 C1982 0.960 . S
H1969 C1982 0.960 . S
C1970 H1962 0.929 . S
C1970 C1971 1.377 . S
C1970 C1972 1.384 . S
C1971 C1970 1.377 . S
C1971 C1977 1.390 . S
C1972 H1963 0.930 . S
C1972 C1970 1.384 . S
C1972 C1973 1.372 . S
C1973 C1972 1.372 . S
C1973 C1974 1.400 . S
C1973 C1978 1.490 . S
C1974 H1964 0.930 . S
C1974 C1973 1.400 . S
C1974 C1977 1.386 . S
H1975 C1991 0.930 . S
H1976 C1992 0.931 . S
C1977 H1965 0.929 . S
C1977 C1971 1.390 . S
C1977 C1974 1.386 . S
C1978 C1973 1.490 . S
C1978 C1980 1.395 . S
C1978 C1981 1.403 . S
H1979 C1985 0.930 . S
C1980 H1966 0.930 . S
C1980 C1978 1.395 . S
C1980 C1983 1.403 . S
C1981 C1978 1.403 . S
C1981 C1982 1.524 . S
C1981 C1985 1.400 . S
C1982 H1967 0.960 . S
C1982 H1968 0.960 . S
C1982 H1969 0.960 . S
C1982 C1981 1.524 . S
C1983 C1980 1.403 . S
C1983 C1984 1.392 . S
C1983 C1987 1.495 . S
C1984 C1983 1.392 . S
C1984 C1985 1.385 . S
C1984 C1986 1.478 . S
C1985 H1979 0.930 . S
C1985 C1981 1.400 . S
C1985 C1984 1.385 . S
C1986 C1984 1.478 . S
C1986 C1988 1.381 . S
C1986 C1992 1.383 . S
C1987 C1983 1.495 . S
C1987 H1993 0.959 . S
C1987 H1994 0.961 . S
C1987 H1995 0.960 . S
C1988 C1986 1.381 . S
C1988 C1989 1.394 . S
C1988 H1996 0.930 . S
C1989 C1988 1.394 . S
C1989 C1990 1.383 . S
C1989 H1997 0.929 . S
C1990 C1989 1.383 . S
C1990 C1991 1.377 . S
C1991 H1975 0.930 . S
C1991 C1990 1.377 . S
C1991 C1992 1.379 . S
C1992 H1976 0.931 . S
C1992 C1986 1.383 . S
C1992 C1991 1.379 . S
H1993 C1987 0.959 . S
H1994 C1987 0.961 . S
H1995 C1987 0.960 . S
H1996 C1988 0.930 . S
H1997 C1989 0.929 . S
H1998 C2006 0.929 . S
H1999 C2008 0.930 . S
H2000 C2010 0.930 . S
H2001 C2013 0.929 . S
H2002 C2016 0.930 . S
H2003 C2018 0.960 . S
H2004 C2018 0.960 . S
H2005 C2018 0.960 . S
C2006 H1998 0.929 . S
C2006 C2007 1.377 . S
C2006 C2008 1.384 . S
C2007 C2006 1.377 . S
C2007 C2013 1.390 . S
C2008 H1999 0.930 . S
C2008 C2006 1.384 . S
C2008 C2009 1.372 . S
C2009 C2008 1.372 . S
C2009 C2010 1.400 . S
C2009 C2014 1.490 . S
C2010 H2000 0.930 . S
C2010 C2009 1.400 . S
C2010 C2013 1.386 . S
H2011 C2027 0.930 . S
H2012 C2028 0.931 . S
C2013 H2001 0.929 . S
C2013 C2007 1.390 . S
C2013 C2010 1.386 . S
C2014 C2009 1.490 . S
C2014 C2016 1.395 . S
C2014 C2017 1.403 . S
H2015 C2021 0.930 . S
C2016 H2002 0.930 . S
C2016 C2014 1.395 . S
C2016 C2019 1.403 . S
C2017 C2014 1.403 . S
C2017 C2018 1.524 . S
C2017 C2021 1.400 . S
C2018 H2003 0.960 . S
C2018 H2004 0.960 . S
C2018 H2005 0.960 . S
C2018 C2017 1.524 . S
C2019 C2016 1.403 . S
C2019 C2020 1.392 . S
C2019 C2023 1.495 . S
C2020 C2019 1.392 . S
C2020 C2021 1.385 . S
C2020 C2022 1.478 . S
C2021 H2015 0.930 . S
C2021 C2017 1.400 . S
C2021 C2020 1.385 . S
C2022 C2020 1.478 . S
C2022 C2024 1.381 . S
C2022 C2028 1.383 . S
C2023 C2019 1.495 . S
C2023 H2029 0.959 . S
C2023 H2030 0.961 . S
C2023 H2031 0.960 . S
C2024 C2022 1.381 . S
C2024 C2025 1.394 . S
C2024 H2032 0.930 . S
C2025 C2024 1.394 . S
C2025 C2026 1.383 . S
C2025 H2033 0.929 . S
C2026 C2025 1.383 . S
C2026 C2027 1.377 . S
C2027 H2011 0.930 . S
C2027 C2026 1.377 . S
C2027 C2028 1.379 . S
C2028 H2012 0.931 . S
C2028 C2022 1.383 . S
C2028 C2027 1.379 . S
H2029 C2023 0.959 . S
H2030 C2023 0.961 . S
H2031 C2023 0.960 . S
H2032 C2024 0.930 . S
H2033 C2025 0.929 . S
H2034 C2042 0.929 . S
H2035 C2044 0.930 . S
H2036 C2046 0.930 . S
H2037 C2049 0.929 . S
H2038 C2052 0.930 . S
H2039 C2054 0.960 . S
H2040 C2054 0.960 . S
H2041 C2054 0.960 . S
C2042 H2034 0.929 . S
C2042 C2043 1.377 . S
C2042 C2044 1.384 . S
C2043 C2042 1.377 . S
C2043 C2049 1.390 . S
C2044 H2035 0.930 . S
C2044 C2042 1.384 . S
C2044 C2045 1.372 . S
C2045 C2044 1.372 . S
C2045 C2046 1.400 . S
C2045 C2050 1.490 . S
C2046 H2036 0.930 . S
C2046 C2045 1.400 . S
C2046 C2049 1.386 . S
H2047 C2063 0.930 . S
H2048 C2064 0.931 . S
C2049 H2037 0.929 . S
C2049 C2043 1.390 . S
C2049 C2046 1.386 . S
C2050 C2045 1.490 . S
C2050 C2052 1.395 . S
C2050 C2053 1.403 . S
H2051 C2057 0.930 . S
C2052 H2038 0.930 . S
C2052 C2050 1.395 . S
C2052 C2055 1.403 . S
C2053 C2050 1.403 . S
C2053 C2054 1.524 . S
C2053 C2057 1.400 . S
C2054 H2039 0.960 . S
C2054 H2040 0.960 . S
C2054 H2041 0.960 . S
C2054 C2053 1.524 . S
C2055 C2052 1.403 . S
C2055 C2056 1.392 . S
C2055 C2059 1.495 . S
C2056 C2055 1.392 . S
C2056 C2057 1.385 . S
C2056 C2058 1.478 . S
C2057 H2051 0.930 . S
C2057 C2053 1.400 . S
C2057 C2056 1.385 . S
C2058 C2056 1.478 . S
C2058 C2060 1.381 . S
C2058 C2064 1.383 . S
C2059 C2055 1.495 . S
C2059 H2065 0.959 . S
C2059 H2066 0.961 . S
C2059 H2067 0.960 . S
C2060 C2058 1.381 . S
C2060 C2061 1.394 . S
C2060 H2068 0.930 . S
C2061 C2060 1.394 . S
C2061 C2062 1.383 . S
C2061 H2069 0.929 . S
C2062 C2061 1.383 . S
C2062 C2063 1.377 . S
C2063 H2047 0.930 . S
C2063 C2062 1.377 . S
C2063 C2064 1.379 . S
C2064 H2048 0.931 . S
C2064 C2058 1.383 . S
C2064 C2063 1.379 . S
H2065 C2059 0.959 . S
H2066 C2059 0.961 . S
H2067 C2059 0.960 . S
H2068 C2060 0.930 . S
H2069 C2061 0.929 . S
H2070 C2078 0.929 . S
H2071 C2080 0.930 . S
H2072 C2082 0.930 . S
H2073 C2085 0.929 . S
H2074 C2088 0.930 . S
H2075 C2090 0.960 . S
H2076 C2090 0.960 . S
H2077 C2090 0.960 . S
C2078 H2070 0.929 . S
C2078 C2079 1.377 . S
C2078 C2080 1.384 . S
C2079 C2078 1.377 . S
C2079 C2085 1.390 . S
C2080 H2071 0.930 . S
C2080 C2078 1.384 . S
C2080 C2081 1.372 . S
C2081 C2080 1.372 . S
C2081 C2082 1.400 . S
C2081 C2086 1.490 . S
C2082 H2072 0.930 . S
C2082 C2081 1.400 . S
C2082 C2085 1.386 . S
H2083 C2099 0.930 . S
H2084 C2100 0.931 . S
C2085 H2073 0.929 . S
C2085 C2079 1.390 . S
C2085 C2082 1.386 . S
C2086 C2081 1.490 . S
C2086 C2088 1.395 . S
C2086 C2089 1.403 . S
H2087 C2093 0.930 . S
C2088 H2074 0.930 . S
C2088 C2086 1.395 . S
C2088 C2091 1.403 1_565 S
C2089 C2086 1.403 . S
C2089 C2090 1.524 . S
C2089 C2093 1.400 1_565 S
C2090 H2075 0.960 . S
C2090 H2076 0.960 . S
C2090 H2077 0.960 . S
C2090 C2089 1.524 . S
C2091 C2088 1.403 1_545 S
C2091 C2092 1.392 . S
C2091 C2095 1.495 . S
C2092 C2091 1.392 . S
C2092 C2093 1.385 . S
C2092 C2094 1.478 . S
C2093 H2087 0.930 . S
C2093 C2089 1.400 1_545 S
C2093 C2092 1.385 . S
C2094 C2092 1.478 . S
C2094 C2096 1.381 . S
C2094 C2100 1.383 . S
C2095 C2091 1.495 . S
C2095 H2101 0.959 . S
C2095 H2102 0.961 . S
C2095 H2103 0.960 . S
C2096 C2094 1.381 . S
C2096 C2097 1.394 . S
C2096 H2104 0.930 . S
C2097 C2096 1.394 . S
C2097 C2098 1.383 . S
C2097 H2105 0.929 . S
C2098 C2097 1.383 . S
C2098 C2099 1.377 . S
C2099 H2083 0.930 . S
C2099 C2098 1.377 . S
C2099 C2100 1.379 . S
C2100 H2084 0.931 . S
C2100 C2094 1.383 . S
C2100 C2099 1.379 . S
H2101 C2095 0.959 . S
H2102 C2095 0.961 . S
H2103 C2095 0.960 . S
H2104 C2096 0.930 . S
H2105 C2097 0.929 . S
H2106 C2114 0.929 . S
H2107 C2116 0.930 . S
H2108 C2118 0.930 . S
H2109 C2121 0.929 . S
H2110 C2124 0.930 . S
H2111 C2126 0.960 . S
H2112 C2126 0.960 . S
H2113 C2126 0.960 . S
C2114 H2106 0.929 . S
C2114 C2115 1.377 . S
C2114 C2116 1.384 . S
C2115 C2114 1.377 . S
C2115 C2121 1.390 . S
C2116 H2107 0.930 . S
C2116 C2114 1.384 . S
C2116 C2117 1.372 . S
C2117 C2116 1.372 . S
C2117 C2118 1.400 . S
C2117 C2122 1.490 . S
C2118 H2108 0.930 . S
C2118 C2117 1.400 . S
C2118 C2121 1.386 . S
H2119 C2135 0.930 . S
H2120 C2136 0.931 . S
C2121 H2109 0.929 . S
C2121 C2115 1.390 . S
C2121 C2118 1.386 . S
C2122 C2117 1.490 . S
C2122 C2124 1.395 . S
C2122 C2125 1.403 . S
H2123 C2129 0.930 . S
C2124 H2110 0.930 . S
C2124 C2122 1.395 . S
C2124 C2127 1.403 1_455 S
C2125 C2122 1.403 . S
C2125 C2126 1.524 . S
C2125 C2129 1.400 1_455 S
C2126 H2111 0.960 . S
C2126 H2112 0.960 . S
C2126 H2113 0.960 . S
C2126 C2125 1.524 . S
C2127 C2124 1.403 1_655 S
C2127 C2128 1.392 . S
C2127 C2131 1.495 . S
C2128 C2127 1.392 . S
C2128 C2129 1.385 . S
C2128 C2130 1.478 . S
C2129 H2123 0.930 . S
C2129 C2125 1.400 1_655 S
C2129 C2128 1.385 . S
C2130 C2128 1.478 . S
C2130 C2132 1.381 . S
C2130 C2136 1.383 . S
C2131 C2127 1.495 . S
C2131 H2137 0.959 . S
C2131 H2138 0.961 . S
C2131 H2139 0.960 . S
C2132 C2130 1.381 . S
C2132 C2133 1.394 . S
C2132 H2140 0.930 . S
C2133 C2132 1.394 . S
C2133 C2134 1.383 . S
C2133 H2141 0.929 . S
C2134 C2133 1.383 . S
C2134 C2135 1.377 . S
C2135 H2119 0.930 . S
C2135 C2134 1.377 . S
C2135 C2136 1.379 . S
C2136 H2120 0.931 . S
C2136 C2130 1.383 . S
C2136 C2135 1.379 . S
H2137 C2131 0.959 . S
H2138 C2131 0.961 . S
H2139 C2131 0.960 . S
H2140 C2132 0.930 . S
H2141 C2133 0.929 . S
H2142 C2150 0.929 . S
H2143 C2152 0.930 . S
H2144 C2154 0.930 . S
H2145 C2157 0.929 . S
H2146 C2160 0.930 . S
H2147 C2162 0.960 . S
H2148 C2162 0.960 . S
H2149 C2162 0.960 . S
C2150 H2142 0.929 . S
C2150 C2151 1.377 . S
C2150 C2152 1.384 . S
C2151 C2150 1.377 . S
C2151 C2157 1.390 . S
C2152 H2143 0.930 . S
C2152 C2150 1.384 . S
C2152 C2153 1.372 . S
C2153 C2152 1.372 . S
C2153 C2154 1.400 . S
C2153 C2158 1.490 . S
C2154 H2144 0.930 . S
C2154 C2153 1.400 . S
C2154 C2157 1.386 . S
H2155 C2171 0.930 . S
H2156 C2172 0.931 . S
C2157 H2145 0.929 . S
C2157 C2151 1.390 . S
C2157 C2154 1.386 . S
C2158 C2153 1.490 . S
C2158 C2160 1.395 . S
C2158 C2161 1.403 . S
H2159 C2165 0.930 . S
C2160 H2146 0.930 . S
C2160 C2158 1.395 . S
C2160 C2163 1.403 . S
C2161 C2158 1.403 . S
C2161 C2162 1.524 . S
C2161 C2165 1.400 . S
C2162 H2147 0.960 . S
C2162 H2148 0.960 . S
C2162 H2149 0.960 . S
C2162 C2161 1.524 . S
C2163 C2160 1.403 . S
C2163 C2164 1.392 . S
C2163 C2167 1.495 . S
C2164 C2163 1.392 . S
C2164 C2165 1.385 . S
C2164 C2166 1.478 . S
C2165 H2159 0.930 . S
C2165 C2161 1.400 . S
C2165 C2164 1.385 . S
C2166 C2164 1.478 . S
C2166 C2168 1.381 . S
C2166 C2172 1.383 . S
C2167 C2163 1.495 . S
C2167 H2173 0.959 . S
C2167 H2174 0.961 . S
C2167 H2175 0.960 . S
C2168 C2166 1.381 . S
C2168 C2169 1.394 . S
C2168 H2176 0.930 . S
C2169 C2168 1.394 . S
C2169 C2170 1.383 . S
C2169 H2177 0.929 . S
C2170 C2169 1.383 . S
C2170 C2171 1.377 . S
C2171 H2155 0.930 . S
C2171 C2170 1.377 . S
C2171 C2172 1.379 . S
C2172 H2156 0.931 . S
C2172 C2166 1.383 . S
C2172 C2171 1.379 . S
H2173 C2167 0.959 . S
H2174 C2167 0.961 . S
H2175 C2167 0.960 . S
H2176 C2168 0.930 . S
H2177 C2169 0.929 . S
H2178 C2186 0.967 . S
H2179 C2188 0.930 . S
H2180 C2190 0.930 . S
H2181 C2193 0.929 . S
H2182 C2196 0.930 . S
H2183 C2198 0.960 . S
H2184 C2198 0.960 . S
H2185 C2198 0.960 . S
C2186 H2178 0.967 . S
C2186 C2187 1.391 . S
C2186 C2188 1.338 1_455 S
C2187 C2186 1.391 . S
C2187 C2193 1.390 . S
C2188 H2179 0.930 . S
C2188 C2186 1.338 1_655 S
C2188 C2189 1.372 . S
C2189 C2188 1.372 . S
C2189 C2190 1.400 . S
C2189 C2194 1.490 . S
C2190 H2180 0.930 . S
C2190 C2189 1.400 . S
C2190 C2193 1.386 1_655 S
H2191 C2207 0.930 . S
H2192 C2208 0.931 . S
C2193 H2181 0.929 . S
C2193 C2187 1.390 . S
C2193 C2190 1.386 1_455 S
C2194 C2189 1.490 . S
C2194 C2196 1.395 . S
C2194 C2197 1.403 . S
H2195 C2201 0.930 . S
C2196 H2182 0.930 . S
C2196 C2194 1.395 . S
C2196 C2199 1.403 . S
C2197 C2194 1.403 . S
C2197 C2198 1.524 . S
C2197 C2201 1.400 . S
C2198 H2183 0.960 . S
C2198 H2184 0.960 . S
C2198 H2185 0.960 . S
C2198 C2197 1.524 . S
C2199 C2196 1.403 . S
C2199 C2200 1.392 . S
C2199 C2203 1.495 . S
C2200 C2199 1.392 . S
C2200 C2201 1.385 . S
C2200 C2202 1.478 . S
C2201 H2195 0.930 . S
C2201 C2197 1.400 . S
C2201 C2200 1.385 . S
C2202 C2200 1.478 . S
C2202 C2204 1.381 . S
C2202 C2208 1.383 . S
C2203 C2199 1.495 . S
C2203 H2209 0.959 . S
C2203 H2210 0.961 . S
C2203 H2211 0.960 . S
C2204 C2202 1.381 . S
C2204 C2205 1.394 . S
C2204 H2212 0.930 . S
C2205 C2204 1.394 . S
C2205 C2206 1.383 . S
C2205 H2213 0.929 . S
C2206 C2205 1.383 . S
C2206 C2207 1.377 . S
C2207 H2191 0.930 . S
C2207 C2206 1.377 . S
C2207 C2208 1.379 . S
C2208 H2192 0.931 . S
C2208 C2202 1.383 . S
C2208 C2207 1.379 . S
H2209 C2203 0.959 . S
H2210 C2203 0.961 . S
H2211 C2203 0.960 . S
H2212 C2204 0.930 . S
H2213 C2205 0.929 . S
H2214 C2222 0.929 . S
H2215 C2224 0.930 . S
H2216 C2226 0.930 . S
H2217 C2229 0.929 . S
H2218 C2232 0.930 . S
H2219 C2234 0.960 . S
H2220 C2234 0.960 . S
H2221 C2234 0.960 . S
C2222 H2214 0.929 . S
C2222 C2223 1.377 . S
C2222 C2224 1.384 . S
C2223 C2222 1.377 . S
C2223 C2229 1.390 . S
C2224 H2215 0.930 . S
C2224 C2222 1.384 . S
C2224 C2225 1.372 . S
C2225 C2224 1.372 . S
C2225 C2226 1.400 . S
C2225 C2230 1.490 . S
C2226 H2216 0.930 . S
C2226 C2225 1.400 . S
C2226 C2229 1.386 . S
H2227 C2243 0.930 . S
H2228 C2244 0.931 . S
C2229 H2217 0.929 . S
C2229 C2223 1.390 . S
C2229 C2226 1.386 . S
C2230 C2225 1.490 . S
C2230 C2232 1.395 . S
C2230 C2233 1.403 . S
H2231 C2237 0.930 . S
C2232 H2218 0.930 . S
C2232 C2230 1.395 . S
C2232 C2235 1.403 . S
C2233 C2230 1.403 . S
C2233 C2234 1.524 . S
C2233 C2237 1.400 . S
C2234 H2219 0.960 . S
C2234 H2220 0.960 . S
C2234 H2221 0.960 . S
C2234 C2233 1.524 . S
C2235 C2232 1.403 . S
C2235 C2236 1.392 . S
C2235 C2239 1.495 . S
C2236 C2235 1.392 . S
C2236 C2237 1.385 . S
C2236 C2238 1.478 . S
C2237 H2231 0.930 . S
C2237 C2233 1.400 . S
C2237 C2236 1.385 . S
C2238 C2236 1.478 . S
C2238 C2240 1.381 . S
C2238 C2244 1.383 . S
C2239 C2235 1.495 . S
C2239 H2245 0.959 . S
C2239 H2246 0.961 . S
C2239 H2247 0.960 . S
C2240 C2238 1.381 . S
C2240 C2241 1.394 . S
C2240 H2248 0.930 . S
C2241 C2240 1.394 . S
C2241 C2242 1.383 . S
C2241 H2249 0.929 . S
C2242 C2241 1.383 . S
C2242 C2243 1.377 . S
C2243 H2227 0.930 . S
C2243 C2242 1.377 . S
C2243 C2244 1.379 . S
C2244 H2228 0.931 . S
C2244 C2238 1.383 . S
C2244 C2243 1.379 . S
H2245 C2239 0.959 . S
H2246 C2239 0.961 . S
H2247 C2239 0.960 . S
H2248 C2240 0.930 . S
H2249 C2241 0.929 . S
H2250 C2258 0.929 . S
H2251 C2260 0.930 . S
H2252 C2262 0.930 . S
H2253 C2265 0.929 . S
H2254 C2268 0.930 . S
H2255 C2270 0.960 . S
H2256 C2270 0.960 . S
H2257 C2270 0.960 . S
C2258 H2250 0.929 . S
C2258 C2259 1.377 . S
C2258 C2260 1.384 1_565 S
C2259 C2258 1.377 . S
C2259 C2265 1.390 1_565 S
C2260 H2251 0.930 . S
C2260 C2258 1.384 1_545 S
C2260 C2261 1.372 . S
C2261 C2260 1.372 . S
C2261 C2262 1.400 . S
C2261 C2266 1.490 . S
C2262 H2252 0.930 . S
C2262 C2261 1.400 . S
C2262 C2265 1.386 . S
H2263 C2279 0.930 . S
H2264 C2280 0.931 . S
C2265 H2253 0.929 . S
C2265 C2259 1.390 1_545 S
C2265 C2262 1.386 . S
C2266 C2261 1.490 . S
C2266 C2268 1.395 . S
C2266 C2269 1.403 . S
H2267 C2273 0.930 . S
C2268 H2254 0.930 . S
C2268 C2266 1.395 . S
C2268 C2271 1.403 . S
C2269 C2266 1.403 . S
C2269 C2270 1.524 . S
C2269 C2273 1.400 . S
C2270 H2255 0.960 . S
C2270 H2256 0.960 . S
C2270 H2257 0.960 . S
C2270 C2269 1.524 . S
C2271 C2268 1.403 . S
C2271 C2272 1.392 . S
C2271 C2275 1.495 . S
C2272 C2271 1.392 . S
C2272 C2273 1.385 . S
C2272 C2274 1.478 . S
C2273 H2267 0.930 . S
C2273 C2269 1.400 . S
C2273 C2272 1.385 . S
C2274 C2272 1.478 . S
C2274 C2276 1.381 . S
C2274 C2280 1.383 . S
C2275 C2271 1.495 . S
C2275 H2281 0.959 . S
C2275 H2282 0.961 . S
C2275 H2283 0.960 . S
C2276 C2274 1.381 . S
C2276 C2277 1.394 . S
C2276 H2284 0.930 . S
C2277 C2276 1.394 . S
C2277 C2278 1.383 . S
C2277 H2285 0.929 . S
C2278 C2277 1.383 . S
C2278 C2279 1.377 . S
C2279 H2263 0.930 . S
C2279 C2278 1.377 . S
C2279 C2280 1.379 . S
C2280 H2264 0.931 . S
C2280 C2274 1.383 . S
C2280 C2279 1.379 . S
H2281 C2275 0.959 . S
H2282 C2275 0.961 . S
H2283 C2275 0.960 . S
H2284 C2276 0.930 . S
H2285 C2277 0.929 . S
H2286 C2294 0.929 . S
H2287 C2296 0.930 . S
H2288 C2298 0.930 . S
H2289 C2301 0.929 . S
H2290 C2304 0.930 . S
H2291 C2306 0.960 . S
H2292 C2306 0.960 . S
H2293 C2306 0.960 . S
C2294 H2286 0.929 . S
C2294 C2295 1.377 . S
C2294 C2296 1.384 . S
C2295 C2294 1.377 . S
C2295 C2301 1.390 . S
C2296 H2287 0.930 . S
C2296 C2294 1.384 . S
C2296 C2297 1.372 . S
C2297 C2296 1.372 . S
C2297 C2298 1.400 . S
C2297 C2302 1.490 . S
C2298 H2288 0.930 . S
C2298 C2297 1.400 . S
C2298 C2301 1.386 . S
H2299 C2315 0.930 . S
H2300 C2316 0.931 . S
C2301 H2289 0.929 . S
C2301 C2295 1.390 . S
C2301 C2298 1.386 . S
C2302 C2297 1.490 . S
C2302 C2304 1.395 . S
C2302 C2305 1.403 . S
H2303 C2309 0.930 . S
C2304 H2290 0.930 . S
C2304 C2302 1.395 . S
C2304 C2307 1.403 . S
C2305 C2302 1.403 . S
C2305 C2306 1.524 . S
C2305 C2309 1.400 . S
C2306 H2291 0.960 . S
C2306 H2292 0.960 . S
C2306 H2293 0.960 . S
C2306 C2305 1.524 . S
C2307 C2304 1.403 . S
C2307 C2308 1.392 . S
C2307 C2311 1.495 . S
C2308 C2307 1.392 . S
C2308 C2309 1.385 . S
C2308 C2310 1.478 . S
C2309 H2303 0.930 . S
C2309 C2305 1.400 . S
C2309 C2308 1.385 . S
C2310 C2308 1.478 . S
C2310 C2312 1.381 . S
C2310 C2316 1.383 . S
C2311 C2307 1.495 . S
C2311 H2317 0.959 . S
C2311 H2318 0.961 . S
C2311 H2319 0.960 . S
C2312 C2310 1.381 . S
C2312 C2313 1.394 . S
C2312 H2320 0.930 . S
C2313 C2312 1.394 . S
C2313 C2314 1.383 . S
C2313 H2321 0.929 . S
C2314 C2313 1.383 . S
C2314 C2315 1.377 . S
C2315 H2299 0.930 . S
C2315 C2314 1.377 . S
C2315 C2316 1.379 . S
C2316 H2300 0.931 . S
C2316 C2310 1.383 . S
C2316 C2315 1.379 . S
H2317 C2311 0.959 . S
H2318 C2311 0.961 . S
H2319 C2311 0.960 . S
H2320 C2312 0.930 . S
H2321 C2313 0.929 . S
H2322 C2330 0.929 . S
H2323 C2332 0.930 . S
H2324 C2334 0.930 . S
H2325 C2337 0.929 . S
H2326 C2340 0.930 . S
H2327 C2342 0.960 . S
H2328 C2342 0.960 . S
H2329 C2342 0.960 . S
C2330 H2322 0.929 . S
C2330 C2331 1.377 . S
C2330 C2332 1.384 . S
C2331 C2330 1.377 . S
C2331 C2337 1.390 . S
C2332 H2323 0.930 . S
C2332 C2330 1.384 . S
C2332 C2333 1.372 . S
C2333 C2332 1.372 . S
C2333 C2334 1.400 . S
C2333 C2338 1.490 . S
C2334 H2324 0.930 . S
C2334 C2333 1.400 . S
C2334 C2337 1.386 . S
H2335 C2351 0.930 . S
H2336 C2352 0.931 . S
C2337 H2325 0.929 . S
C2337 C2331 1.390 . S
C2337 C2334 1.386 . S
C2338 C2333 1.490 . S
C2338 C2340 1.395 . S
C2338 C2341 1.403 . S
H2339 C2345 0.930 . S
C2340 H2326 0.930 . S
C2340 C2338 1.395 . S
C2340 C2343 1.403 . S
C2341 C2338 1.403 . S
C2341 C2342 1.524 . S
C2341 C2345 1.400 . S
C2342 H2327 0.960 . S
C2342 H2328 0.960 . S
C2342 H2329 0.960 . S
C2342 C2341 1.524 . S
C2343 C2340 1.403 . S
C2343 C2344 1.392 . S
C2343 C2347 1.495 . S
C2344 C2343 1.392 . S
C2344 C2345 1.385 . S
C2344 C2346 1.478 . S
C2345 H2339 0.930 . S
C2345 C2341 1.400 . S
C2345 C2344 1.385 . S
C2346 C2344 1.478 . S
C2346 C2348 1.381 . S
C2346 C2352 1.383 . S
C2347 C2343 1.495 . S
C2347 H2353 0.959 . S
C2347 H2354 0.961 . S
C2347 H2355 0.960 . S
C2348 C2346 1.381 . S
C2348 C2349 1.394 . S
C2348 H2356 0.930 . S
C2349 C2348 1.394 . S
C2349 C2350 1.383 . S
C2349 H2357 0.929 . S
C2350 C2349 1.383 . S
C2350 C2351 1.377 . S
C2351 H2335 0.930 . S
C2351 C2350 1.377 . S
C2351 C2352 1.379 . S
C2352 H2336 0.931 . S
C2352 C2346 1.383 . S
C2352 C2351 1.379 . S
H2353 C2347 0.959 . S
H2354 C2347 0.961 . S
H2355 C2347 0.960 . S
H2356 C2348 0.930 . S
H2357 C2349 0.929 . S
H2358 C2366 0.929 . S
H2359 C2368 0.930 . S
H2360 C2370 0.930 . S
H2361 C2373 0.929 . S
H2362 C2376 0.930 . S
H2363 C2378 0.960 . S
H2364 C2378 0.960 . S
H2365 C2378 0.960 . S
C2366 H2358 0.929 . S
C2366 C2367 1.377 . S
C2366 C2368 1.384 . S
C2367 C2366 1.377 . S
C2367 C2373 1.390 . S
C2368 H2359 0.930 . S
C2368 C2366 1.384 . S
C2368 C2369 1.372 . S
C2369 C2368 1.372 . S
C2369 C2370 1.400 . S
C2369 C2374 1.490 . S
C2370 H2360 0.930 . S
C2370 C2369 1.400 . S
C2370 C2373 1.386 . S
H2371 C2387 0.930 . S
H2372 C2388 0.931 . S
C2373 H2361 0.929 . S
C2373 C2367 1.390 . S
C2373 C2370 1.386 . S
C2374 C2369 1.490 . S
C2374 C2376 1.395 . S
C2374 C2377 1.403 . S
H2375 C2381 0.930 . S
C2376 H2362 0.930 . S
C2376 C2374 1.395 . S
C2376 C2379 1.403 . S
C2377 C2374 1.403 . S
C2377 C2378 1.524 . S
C2377 C2381 1.400 . S
C2378 H2363 0.960 . S
C2378 H2364 0.960 . S
C2378 H2365 0.960 . S
C2378 C2377 1.524 . S
C2379 C2376 1.403 . S
C2379 C2380 1.392 . S
C2379 C2383 1.495 . S
C2380 C2379 1.392 . S
C2380 C2381 1.385 . S
C2380 C2382 1.478 . S
C2381 H2375 0.930 . S
C2381 C2377 1.400 . S
C2381 C2380 1.385 . S
C2382 C2380 1.478 . S
C2382 C2384 1.381 . S
C2382 C2388 1.383 . S
C2383 C2379 1.495 . S
C2383 H2389 0.959 . S
C2383 H2390 0.961 . S
C2383 H2391 0.960 . S
C2384 C2382 1.381 . S
C2384 C2385 1.394 . S
C2384 H2392 0.930 . S
C2385 C2384 1.394 . S
C2385 C2386 1.383 . S
C2385 H2393 0.929 . S
C2386 C2385 1.383 . S
C2386 C2387 1.377 . S
C2387 H2371 0.930 . S
C2387 C2386 1.377 . S
C2387 C2388 1.379 . S
C2388 H2372 0.931 . S
C2388 C2382 1.383 . S
C2388 C2387 1.379 . S
H2389 C2383 0.959 . S
H2390 C2383 0.961 . S
H2391 C2383 0.960 . S
H2392 C2384 0.930 . S
H2393 C2385 0.929 . S
H2394 C2402 0.929 . S
H2395 C2404 0.930 . S
H2396 C2406 0.930 . S
H2397 C2409 0.929 . S
H2398 C2412 0.930 . S
H2399 C2414 0.960 . S
H2400 C2414 0.960 . S
H2401 C2414 0.960 . S
C2402 H2394 0.929 . S
C2402 C2403 1.377 . S
C2402 C2404 1.384 . S
C2403 C2402 1.377 . S
C2403 C2409 1.390 . S
C2404 H2395 0.930 . S
C2404 C2402 1.384 . S
C2404 C2405 1.372 . S
C2405 C2404 1.372 . S
C2405 C2406 1.400 . S
C2405 C2410 1.490 . S
C2406 H2396 0.930 . S
C2406 C2405 1.400 . S
C2406 C2409 1.386 . S
H2407 C2423 0.930 . S
H2408 C2424 0.931 . S
C2409 H2397 0.929 . S
C2409 C2403 1.390 . S
C2409 C2406 1.386 . S
C2410 C2405 1.490 . S
C2410 C2412 1.395 . S
C2410 C2413 1.403 . S
H2411 C2417 0.930 . S
C2412 H2398 0.930 . S
C2412 C2410 1.395 . S
C2412 C2415 1.403 . S
C2413 C2410 1.403 . S
C2413 C2414 1.524 . S
C2413 C2417 1.400 . S
C2414 H2399 0.960 . S
C2414 H2400 0.960 . S
C2414 H2401 0.960 . S
C2414 C2413 1.524 . S
C2415 C2412 1.403 . S
C2415 C2416 1.392 . S
C2415 C2419 1.495 . S
C2416 C2415 1.392 . S
C2416 C2417 1.385 . S
C2416 C2418 1.478 . S
C2417 H2411 0.930 . S
C2417 C2413 1.400 . S
C2417 C2416 1.385 . S
C2418 C2416 1.478 . S
C2418 C2420 1.381 . S
C2418 C2424 1.383 . S
C2419 C2415 1.495 . S
C2419 H2425 0.959 . S
C2419 H2426 0.961 . S
C2419 H2427 0.960 . S
C2420 C2418 1.381 . S
C2420 C2421 1.394 . S
C2420 H2428 0.930 . S
C2421 C2420 1.394 . S
C2421 C2422 1.383 . S
C2421 H2429 0.929 . S
C2422 C2421 1.383 . S
C2422 C2423 1.377 . S
C2423 H2407 0.930 . S
C2423 C2422 1.377 . S
C2423 C2424 1.379 . S
C2424 H2408 0.931 . S
C2424 C2418 1.383 . S
C2424 C2423 1.379 . S
H2425 C2419 0.959 . S
H2426 C2419 0.961 . S
H2427 C2419 0.960 . S
H2428 C2420 0.930 . S
H2429 C2421 0.929 . S
H2430 C2438 0.929 . S
H2431 C2440 0.930 . S
H2432 C2442 0.930 . S
H2433 C2445 0.929 . S
H2434 C2448 0.930 . S
H2435 C2450 0.960 . S
H2436 C2450 0.960 . S
H2437 C2450 0.960 . S
C2438 H2430 0.929 . S
C2438 C2439 1.377 . S
C2438 C2440 1.384 . S
C2439 C2438 1.377 . S
C2439 C2445 1.390 . S
C2440 H2431 0.930 . S
C2440 C2438 1.384 . S
C2440 C2441 1.372 . S
C2441 C2440 1.372 . S
C2441 C2442 1.400 . S
C2441 C2446 1.490 . S
C2442 H2432 0.930 . S
C2442 C2441 1.400 . S
C2442 C2445 1.386 . S
H2443 C2459 0.930 . S
H2444 C2460 0.931 . S
C2445 H2433 0.929 . S
C2445 C2439 1.390 . S
C2445 C2442 1.386 . S
C2446 C2441 1.490 . S
C2446 C2448 1.395 . S
C2446 C2449 1.403 . S
H2447 C2453 0.930 . S
C2448 H2434 0.930 . S
C2448 C2446 1.395 . S
C2448 C2451 1.403 . S
C2449 C2446 1.403 . S
C2449 C2450 1.524 . S
C2449 C2453 1.400 . S
C2450 H2435 0.960 . S
C2450 H2436 0.960 . S
C2450 H2437 0.960 . S
C2450 C2449 1.524 . S
C2451 C2448 1.403 . S
C2451 C2452 1.392 . S
C2451 C2455 1.495 . S
C2452 C2451 1.392 . S
C2452 C2453 1.385 . S
C2452 C2454 1.478 . S
C2453 H2447 0.930 . S
C2453 C2449 1.400 . S
C2453 C2452 1.385 . S
C2454 C2452 1.478 . S
C2454 C2456 1.381 . S
C2454 C2460 1.383 . S
C2455 C2451 1.495 . S
C2455 H2461 0.959 . S
C2455 H2462 0.961 . S
C2455 H2463 0.960 . S
C2456 C2454 1.381 . S
C2456 C2457 1.394 . S
C2456 H2464 0.930 . S
C2457 C2456 1.394 . S
C2457 C2458 1.383 . S
C2457 H2465 0.929 . S
C2458 C2457 1.383 . S
C2458 C2459 1.377 . S
C2459 H2443 0.930 . S
C2459 C2458 1.377 . S
C2459 C2460 1.379 . S
C2460 H2444 0.931 . S
C2460 C2454 1.383 . S
C2460 C2459 1.379 . S
H2461 C2455 0.959 . S
H2462 C2455 0.961 . S
H2463 C2455 0.960 . S
H2464 C2456 0.930 . S
H2465 C2457 0.929 . S
H2466 C2474 0.929 . S
H2467 C2476 0.930 . S
H2468 C2478 0.930 . S
H2469 C2481 0.929 . S
H2470 C2484 0.930 . S
H2471 C2486 0.960 . S
H2472 C2486 0.960 . S
H2473 C2486 0.960 . S
C2474 H2466 0.929 . S
C2474 C2475 1.377 . S
C2474 C2476 1.384 . S
C2475 C2474 1.377 . S
C2475 C2481 1.390 . S
C2476 H2467 0.930 . S
C2476 C2474 1.384 . S
C2476 C2477 1.372 . S
C2477 C2476 1.372 . S
C2477 C2478 1.400 . S
C2477 C2482 1.490 . S
C2478 H2468 0.930 . S
C2478 C2477 1.400 . S
C2478 C2481 1.386 . S
H2479 C2495 0.930 . S
H2480 C2496 0.931 . S
C2481 H2469 0.929 . S
C2481 C2475 1.390 . S
C2481 C2478 1.386 . S
C2482 C2477 1.490 . S
C2482 C2484 1.395 . S
C2482 C2485 1.403 . S
H2483 C2489 0.930 . S
C2484 H2470 0.930 . S
C2484 C2482 1.395 . S
C2484 C2487 1.403 . S
C2485 C2482 1.403 . S
C2485 C2486 1.524 . S
C2485 C2489 1.400 . S
C2486 H2471 0.960 . S
C2486 H2472 0.960 . S
C2486 H2473 0.960 . S
C2486 C2485 1.524 . S
C2487 C2484 1.403 . S
C2487 C2488 1.392 . S
C2487 C2491 1.495 . S
C2488 C2487 1.392 . S
C2488 C2489 1.385 . S
C2488 C2490 1.478 . S
C2489 H2483 0.930 . S
C2489 C2485 1.400 . S
C2489 C2488 1.385 . S
C2490 C2488 1.478 . S
C2490 C2492 1.381 . S
C2490 C2496 1.383 . S
C2491 C2487 1.495 . S
C2491 H2497 0.959 . S
C2491 H2498 0.961 . S
C2491 H2499 0.960 . S
C2492 C2490 1.381 . S
C2492 C2493 1.394 . S
C2492 H2500 0.930 . S
C2493 C2492 1.394 . S
C2493 C2494 1.383 . S
C2493 H2501 0.929 . S
C2494 C2493 1.383 . S
C2494 C2495 1.377 . S
C2495 H2479 0.930 . S
C2495 C2494 1.377 . S
C2495 C2496 1.379 . S
C2496 H2480 0.931 . S
C2496 C2490 1.383 . S
C2496 C2495 1.379 . S
H2497 C2491 0.959 . S
H2498 C2491 0.961 . S
H2499 C2491 0.960 . S
H2500 C2492 0.930 . S
H2501 C2493 0.929 . S
H2502 C2510 0.929 . S
H2503 C2512 0.930 . S
H2504 C2514 0.930 . S
H2505 C2517 0.929 . S
H2506 C2520 0.930 . S
H2507 C2522 0.960 . S
H2508 C2522 0.960 . S
H2509 C2522 0.960 . S
C2510 H2502 0.929 . S
C2510 C2511 1.377 . S
C2510 C2512 1.384 . S
C2511 C2510 1.377 . S
C2511 C2517 1.390 . S
C2512 H2503 0.930 . S
C2512 C2510 1.384 . S
C2512 C2513 1.372 . S
C2513 C2512 1.372 . S
C2513 C2514 1.400 . S
C2513 C2518 1.490 . S
C2514 H2504 0.930 . S
C2514 C2513 1.400 . S
C2514 C2517 1.386 . S
H2515 C2531 0.930 . S
H2516 C2532 0.931 . S
C2517 H2505 0.929 . S
C2517 C2511 1.390 . S
C2517 C2514 1.386 . S
C2518 C2513 1.490 . S
C2518 C2520 1.395 . S
C2518 C2521 1.403 . S
H2519 C2525 0.930 . S
C2520 H2506 0.930 . S
C2520 C2518 1.395 . S
C2520 C2523 1.403 . S
C2521 C2518 1.403 . S
C2521 C2522 1.524 . S
C2521 C2525 1.400 . S
C2522 H2507 0.960 . S
C2522 H2508 0.960 . S
C2522 H2509 0.960 . S
C2522 C2521 1.524 . S
C2523 C2520 1.403 . S
C2523 C2524 1.392 . S
C2523 C2527 1.495 . S
C2524 C2523 1.392 . S
C2524 C2525 1.385 . S
C2524 C2526 1.478 . S
C2525 H2519 0.930 . S
C2525 C2521 1.400 . S
C2525 C2524 1.385 . S
C2526 C2524 1.478 . S
C2526 C2528 1.381 . S
C2526 C2532 1.383 . S
C2527 C2523 1.495 . S
C2527 H2533 0.959 . S
C2527 H2534 0.961 . S
C2527 H2535 0.960 . S
C2528 C2526 1.381 . S
C2528 C2529 1.394 . S
C2528 H2536 0.930 . S
C2529 C2528 1.394 . S
C2529 C2530 1.383 . S
C2529 H2537 0.929 . S
C2530 C2529 1.383 . S
C2530 C2531 1.377 . S
C2531 H2515 0.930 . S
C2531 C2530 1.377 . S
C2531 C2532 1.379 . S
C2532 H2516 0.931 . S
C2532 C2526 1.383 . S
C2532 C2531 1.379 . S
H2533 C2527 0.959 . S
H2534 C2527 0.961 . S
H2535 C2527 0.960 . S
H2536 C2528 0.930 . S
H2537 C2529 0.929 . S
H2538 C2546 0.929 . S
H2539 C2548 0.930 . S
H2540 C2550 0.930 . S
H2541 C2553 0.929 . S
H2542 C2556 0.930 . S
H2543 C2558 0.960 . S
H2544 C2558 0.960 . S
H2545 C2558 0.960 . S
C2546 H2538 0.929 . S
C2546 C2547 1.377 . S
C2546 C2548 1.384 . S
C2547 C2546 1.377 . S
C2547 C2553 1.390 . S
C2548 H2539 0.930 . S
C2548 C2546 1.384 . S
C2548 C2549 1.372 . S
C2549 C2548 1.372 . S
C2549 C2550 1.400 . S
C2549 C2554 1.490 . S
C2550 H2540 0.930 . S
C2550 C2549 1.400 . S
C2550 C2553 1.386 . S
H2551 C2567 0.930 . S
H2552 C2568 0.931 . S
C2553 H2541 0.929 . S
C2553 C2547 1.390 . S
C2553 C2550 1.386 . S
C2554 C2549 1.490 . S
C2554 C2556 1.395 . S
C2554 C2557 1.403 . S
H2555 C2561 0.930 . S
C2556 H2542 0.930 . S
C2556 C2554 1.395 . S
C2556 C2559 1.403 . S
C2557 C2554 1.403 . S
C2557 C2558 1.524 . S
C2557 C2561 1.400 . S
C2558 H2543 0.960 . S
C2558 H2544 0.960 . S
C2558 H2545 0.960 . S
C2558 C2557 1.524 . S
C2559 C2556 1.403 . S
C2559 C2560 1.392 . S
C2559 C2563 1.495 . S
C2560 C2559 1.392 . S
C2560 C2561 1.385 . S
C2560 C2562 1.478 . S
C2561 H2555 0.930 . S
C2561 C2557 1.400 . S
C2561 C2560 1.385 . S
C2562 C2560 1.478 . S
C2562 C2564 1.381 . S
C2562 C2568 1.383 . S
C2563 C2559 1.495 . S
C2563 H2569 0.959 . S
C2563 H2570 0.961 . S
C2563 H2571 0.960 . S
C2564 C2562 1.381 . S
C2564 C2565 1.394 . S
C2564 H2572 0.930 . S
C2565 C2564 1.394 . S
C2565 C2566 1.383 . S
C2565 H2573 0.929 . S
C2566 C2565 1.383 . S
C2566 C2567 1.377 . S
C2567 H2551 0.930 . S
C2567 C2566 1.377 . S
C2567 C2568 1.379 . S
C2568 H2552 0.931 . S
C2568 C2562 1.383 . S
C2568 C2567 1.379 . S
H2569 C2563 0.959 . S
H2570 C2563 0.961 . S
H2571 C2563 0.960 . S
H2572 C2564 0.930 . S
H2573 C2565 0.929 . S
H2574 C2582 0.929 . S
H2575 C2584 0.930 . S
H2576 C2586 0.930 . S
H2577 C2589 0.929 . S
H2578 C2592 0.930 . S
H2579 C2594 0.960 . S
H2580 C2594 0.960 . S
H2581 C2594 0.960 . S
C2582 H2574 0.929 . S
C2582 C2583 1.377 . S
C2582 C2584 1.384 . S
C2583 C2582 1.377 . S
C2583 C2589 1.390 . S
C2584 H2575 0.930 . S
C2584 C2582 1.384 . S
C2584 C2585 1.372 . S
C2585 C2584 1.372 . S
C2585 C2586 1.400 . S
C2585 C2590 1.490 . S
C2586 H2576 0.930 . S
C2586 C2585 1.400 . S
C2586 C2589 1.386 . S
H2587 C2603 0.930 . S
H2588 C2604 0.931 . S
C2589 H2577 0.929 . S
C2589 C2583 1.390 . S
C2589 C2586 1.386 . S
C2590 C2585 1.490 . S
C2590 C2592 1.395 . S
C2590 C2593 1.403 . S
H2591 C2597 0.930 . S
C2592 H2578 0.930 . S
C2592 C2590 1.395 . S
C2592 C2595 1.403 . S
C2593 C2590 1.403 . S
C2593 C2594 1.524 . S
C2593 C2597 1.400 . S
C2594 H2579 0.960 . S
C2594 H2580 0.960 . S
C2594 H2581 0.960 . S
C2594 C2593 1.524 . S
C2595 C2592 1.403 . S
C2595 C2596 1.392 . S
C2595 C2599 1.495 . S
C2596 C2595 1.392 . S
C2596 C2597 1.385 . S
C2596 C2598 1.478 . S
C2597 H2591 0.930 . S
C2597 C2593 1.400 . S
C2597 C2596 1.385 . S
C2598 C2596 1.478 . S
C2598 C2600 1.381 . S
C2598 C2604 1.383 . S
C2599 C2595 1.495 . S
C2599 H2605 0.959 . S
C2599 H2606 0.961 . S
C2599 H2607 0.960 . S
C2600 C2598 1.381 . S
C2600 C2601 1.394 . S
C2600 H2608 0.930 . S
C2601 C2600 1.394 . S
C2601 C2602 1.383 . S
C2601 H2609 0.929 . S
C2602 C2601 1.383 . S
C2602 C2603 1.377 . S
C2603 H2587 0.930 . S
C2603 C2602 1.377 . S
C2603 C2604 1.379 . S
C2604 H2588 0.931 . S
C2604 C2598 1.383 . S
C2604 C2603 1.379 . S
H2605 C2599 0.959 . S
H2606 C2599 0.961 . S
H2607 C2599 0.960 . S
H2608 C2600 0.930 . S
H2609 C2601 0.929 . S
H2610 C2618 0.929 . S
H2611 C2620 0.930 . S
H2612 C2622 0.930 . S
H2613 C2625 0.929 . S
H2614 C2628 0.930 . S
H2615 C2630 0.960 . S
H2616 C2630 0.960 . S
H2617 C2630 0.960 . S
C2618 H2610 0.929 . S
C2618 C2619 1.377 . S
C2618 C2620 1.384 . S
C2619 C2618 1.377 . S
C2619 C2625 1.390 . S
C2620 H2611 0.930 . S
C2620 C2618 1.384 . S
C2620 C2621 1.372 . S
C2621 C2620 1.372 . S
C2621 C2622 1.400 . S
C2621 C2626 1.490 . S
C2622 H2612 0.930 . S
C2622 C2621 1.400 . S
C2622 C2625 1.386 . S
H2623 C2639 0.930 . S
H2624 C2640 0.931 . S
C2625 H2613 0.929 . S
C2625 C2619 1.390 . S
C2625 C2622 1.386 . S
C2626 C2621 1.490 . S
C2626 C2628 1.395 . S
C2626 C2629 1.403 . S
H2627 C2633 0.930 . S
C2628 H2614 0.930 . S
C2628 C2626 1.395 . S
C2628 C2631 1.403 . S
C2629 C2626 1.403 . S
C2629 C2630 1.524 . S
C2629 C2633 1.400 . S
C2630 H2615 0.960 . S
C2630 H2616 0.960 . S
C2630 H2617 0.960 . S
C2630 C2629 1.524 . S
C2631 C2628 1.403 . S
C2631 C2632 1.392 . S
C2631 C2635 1.495 . S
C2632 C2631 1.392 . S
C2632 C2633 1.385 . S
C2632 C2634 1.478 . S
C2633 H2627 0.930 . S
C2633 C2629 1.400 . S
C2633 C2632 1.385 . S
C2634 C2632 1.478 . S
C2634 C2636 1.381 . S
C2634 C2640 1.383 . S
C2635 C2631 1.495 . S
C2635 H2641 0.959 . S
C2635 H2642 0.961 . S
C2635 H2643 0.960 . S
C2636 C2634 1.381 . S
C2636 C2637 1.394 . S
C2636 H2644 0.930 . S
C2637 C2636 1.394 . S
C2637 C2638 1.383 . S
C2637 H2645 0.929 . S
C2638 C2637 1.383 . S
C2638 C2639 1.377 . S
C2639 H2623 0.930 . S
C2639 C2638 1.377 . S
C2639 C2640 1.379 . S
C2640 H2624 0.931 . S
C2640 C2634 1.383 . S
C2640 C2639 1.379 . S
H2641 C2635 0.959 . S
H2642 C2635 0.961 . S
H2643 C2635 0.960 . S
H2644 C2636 0.930 . S
H2645 C2637 0.929 . S
H2646 C2654 0.929 . S
H2647 C2656 0.930 . S
H2648 C2658 0.930 . S
H2649 C2661 0.929 . S
H2650 C2664 0.930 . S
H2651 C2666 0.960 . S
H2652 C2666 0.960 . S
H2653 C2666 0.960 . S
C2654 H2646 0.929 . S
C2654 C2655 1.377 . S
C2654 C2656 1.384 . S
C2655 C2654 1.377 . S
C2655 C2661 1.390 . S
C2656 H2647 0.930 . S
C2656 C2654 1.384 . S
C2656 C2657 1.372 . S
C2657 C2656 1.372 . S
C2657 C2658 1.400 . S
C2657 C2662 1.490 . S
C2658 H2648 0.930 . S
C2658 C2657 1.400 . S
C2658 C2661 1.386 . S
H2659 C2675 0.930 . S
H2660 C2676 0.931 . S
C2661 H2649 0.929 . S
C2661 C2655 1.390 . S
C2661 C2658 1.386 . S
C2662 C2657 1.490 . S
C2662 C2664 1.395 . S
C2662 C2665 1.403 . S
H2663 C2669 0.930 . S
C2664 H2650 0.930 . S
C2664 C2662 1.395 . S
C2664 C2667 1.403 . S
C2665 C2662 1.403 . S
C2665 C2666 1.524 . S
C2665 C2669 1.400 . S
C2666 H2651 0.960 . S
C2666 H2652 0.960 . S
C2666 H2653 0.960 . S
C2666 C2665 1.524 . S
C2667 C2664 1.403 . S
C2667 C2668 1.392 . S
C2667 C2671 1.495 . S
C2668 C2667 1.392 . S
C2668 C2669 1.385 . S
C2668 C2670 1.478 . S
C2669 H2663 0.930 . S
C2669 C2665 1.400 . S
C2669 C2668 1.385 . S
C2670 C2668 1.478 . S
C2670 C2672 1.381 . S
C2670 C2676 1.383 . S
C2671 C2667 1.495 . S
C2671 H2677 0.959 . S
C2671 H2678 0.961 . S
C2671 H2679 0.960 . S
C2672 C2670 1.381 . S
C2672 C2673 1.394 . S
C2672 H2680 0.930 . S
C2673 C2672 1.394 . S
C2673 C2674 1.383 . S
C2673 H2681 0.929 . S
C2674 C2673 1.383 . S
C2674 C2675 1.377 . S
C2675 H2659 0.930 . S
C2675 C2674 1.377 . S
C2675 C2676 1.379 . S
C2676 H2660 0.931 . S
C2676 C2670 1.383 . S
C2676 C2675 1.379 . S
H2677 C2671 0.959 . S
H2678 C2671 0.961 . S
H2679 C2671 0.960 . S
H2680 C2672 0.930 . S
H2681 C2673 0.929 . S
H2682 C2690 0.929 . S
H2683 C2692 0.930 . S
H2684 C2694 0.930 . S
H2685 C2697 0.929 . S
H2686 C2700 0.930 . S
H2687 C2702 0.960 . S
H2688 C2702 0.960 . S
H2689 C2702 0.960 . S
C2690 H2682 0.929 . S
C2690 C2691 1.377 . S
C2690 C2692 1.384 . S
C2691 C2690 1.377 . S
C2691 C2697 1.390 . S
C2692 H2683 0.930 . S
C2692 C2690 1.384 . S
C2692 C2693 1.372 . S
C2693 C2692 1.372 . S
C2693 C2694 1.400 . S
C2693 C2698 1.490 . S
C2694 H2684 0.930 . S
C2694 C2693 1.400 . S
C2694 C2697 1.386 . S
H2695 C2711 0.930 . S
H2696 C2712 0.931 . S
C2697 H2685 0.929 . S
C2697 C2691 1.390 . S
C2697 C2694 1.386 . S
C2698 C2693 1.490 . S
C2698 C2700 1.395 . S
C2698 C2701 1.403 . S
H2699 C2705 0.930 . S
C2700 H2686 0.930 . S
C2700 C2698 1.395 . S
C2700 C2703 1.403 . S
C2701 C2698 1.403 . S
C2701 C2702 1.524 . S
C2701 C2705 1.400 . S
C2702 H2687 0.960 . S
C2702 H2688 0.960 . S
C2702 H2689 0.960 . S
C2702 C2701 1.524 . S
C2703 C2700 1.403 . S
C2703 C2704 1.392 . S
C2703 C2707 1.495 . S
C2704 C2703 1.392 . S
C2704 C2705 1.385 . S
C2704 C2706 1.478 . S
C2705 H2699 0.930 . S
C2705 C2701 1.400 . S
C2705 C2704 1.385 . S
C2706 C2704 1.478 . S
C2706 C2708 1.381 . S
C2706 C2712 1.383 . S
C2707 C2703 1.495 . S
C2707 H2713 0.959 . S
C2707 H2714 0.961 . S
C2707 H2715 0.960 . S
C2708 C2706 1.381 . S
C2708 C2709 1.394 . S
C2708 H2716 0.930 . S
C2709 C2708 1.394 . S
C2709 C2710 1.383 . S
C2709 H2717 0.929 . S
C2710 C2709 1.383 . S
C2710 C2711 1.377 . S
C2711 H2695 0.930 . S
C2711 C2710 1.377 . S
C2711 C2712 1.379 . S
C2712 H2696 0.931 . S
C2712 C2706 1.383 . S
C2712 C2711 1.379 . S
H2713 C2707 0.959 . S
H2714 C2707 0.961 . S
H2715 C2707 0.960 . S
H2716 C2708 0.930 . S
H2717 C2709 0.929 . S
H2718 C2726 0.929 . S
H2719 C2728 0.930 . S
H2720 C2730 0.930 . S
H2721 C2733 0.929 . S
H2722 C2736 0.930 . S
H2723 C2738 0.960 . S
H2724 C2738 0.960 . S
H2725 C2738 0.960 . S
C2726 H2718 0.929 . S
C2726 C2727 1.377 . S
C2726 C2728 1.384 . S
C2727 C2726 1.377 . S
C2727 C2733 1.390 . S
C2728 H2719 0.930 . S
C2728 C2726 1.384 . S
C2728 C2729 1.372 . S
C2729 C2728 1.372 . S
C2729 C2730 1.400 . S
C2729 C2734 1.490 . S
C2730 H2720 0.930 . S
C2730 C2729 1.400 . S
C2730 C2733 1.386 . S
H2731 C2747 0.930 . S
H2732 C2748 0.931 . S
C2733 H2721 0.929 . S
C2733 C2727 1.390 . S
C2733 C2730 1.386 . S
C2734 C2729 1.490 . S
C2734 C2736 1.395 . S
C2734 C2737 1.403 . S
H2735 C2741 0.930 . S
C2736 H2722 0.930 . S
C2736 C2734 1.395 . S
C2736 C2739 1.403 . S
C2737 C2734 1.403 . S
C2737 C2738 1.524 . S
C2737 C2741 1.400 . S
C2738 H2723 0.960 . S
C2738 H2724 0.960 . S
C2738 H2725 0.960 . S
C2738 C2737 1.524 . S
C2739 C2736 1.403 . S
C2739 C2740 1.392 . S
C2739 C2743 1.495 . S
C2740 C2739 1.392 . S
C2740 C2741 1.385 . S
C2740 C2742 1.478 . S
C2741 H2735 0.930 . S
C2741 C2737 1.400 . S
C2741 C2740 1.385 . S
C2742 C2740 1.478 . S
C2742 C2744 1.381 . S
C2742 C2748 1.383 . S
C2743 C2739 1.495 . S
C2743 H2749 0.959 . S
C2743 H2750 0.961 . S
C2743 H2751 0.960 . S
C2744 C2742 1.381 . S
C2744 C2745 1.394 . S
C2744 H2752 0.930 . S
C2745 C2744 1.394 . S
C2745 C2746 1.383 . S
C2745 H2753 0.929 . S
C2746 C2745 1.383 . S
C2746 C2747 1.377 . S
C2747 H2731 0.930 . S
C2747 C2746 1.377 . S
C2747 C2748 1.379 . S
C2748 H2732 0.931 . S
C2748 C2742 1.383 . S
C2748 C2747 1.379 . S
H2749 C2743 0.959 . S
H2750 C2743 0.961 . S
H2751 C2743 0.960 . S
H2752 C2744 0.930 . S
H2753 C2745 0.929 . S
H2754 C2762 0.929 . S
H2755 C2764 0.930 . S
H2756 C2766 0.930 . S
H2757 C2769 0.929 . S
H2758 C2772 0.930 . S
H2759 C2774 0.960 . S
H2760 C2774 0.960 . S
H2761 C2774 0.960 . S
C2762 H2754 0.929 . S
C2762 C2763 1.377 . S
C2762 C2764 1.384 . S
C2763 C2762 1.377 . S
C2763 C2769 1.390 . S
C2764 H2755 0.930 . S
C2764 C2762 1.384 . S
C2764 C2765 1.372 . S
C2765 C2764 1.372 . S
C2765 C2766 1.400 . S
C2765 C2770 1.490 . S
C2766 H2756 0.930 . S
C2766 C2765 1.400 . S
C2766 C2769 1.386 . S
H2767 C2783 0.930 . S
H2768 C2784 0.931 . S
C2769 H2757 0.929 . S
C2769 C2763 1.390 . S
C2769 C2766 1.386 . S
C2770 C2765 1.490 . S
C2770 C2772 1.395 . S
C2770 C2773 1.403 . S
H2771 C2777 0.930 . S
C2772 H2758 0.930 . S
C2772 C2770 1.395 . S
C2772 C2775 1.403 . S
C2773 C2770 1.403 . S
C2773 C2774 1.524 . S
C2773 C2777 1.400 . S
C2774 H2759 0.960 . S
C2774 H2760 0.960 . S
C2774 H2761 0.960 . S
C2774 C2773 1.524 . S
C2775 C2772 1.403 . S
C2775 C2776 1.392 . S
C2775 C2779 1.495 . S
C2776 C2775 1.392 . S
C2776 C2777 1.385 . S
C2776 C2778 1.478 . S
C2777 H2771 0.930 . S
C2777 C2773 1.400 . S
C2777 C2776 1.385 . S
C2778 C2776 1.478 . S
C2778 C2780 1.381 . S
C2778 C2784 1.383 . S
C2779 C2775 1.495 . S
C2779 H2785 0.959 . S
C2779 H2786 0.961 . S
C2779 H2787 0.960 . S
C2780 C2778 1.381 . S
C2780 C2781 1.394 . S
C2780 H2788 0.930 . S
C2781 C2780 1.394 . S
C2781 C2782 1.383 . S
C2781 H2789 0.929 . S
C2782 C2781 1.383 . S
C2782 C2783 1.377 . S
C2783 H2767 0.930 . S
C2783 C2782 1.377 . S
C2783 C2784 1.379 . S
C2784 H2768 0.931 . S
C2784 C2778 1.383 . S
C2784 C2783 1.379 . S
H2785 C2779 0.959 . S
H2786 C2779 0.961 . S
H2787 C2779 0.960 . S
H2788 C2780 0.930 . S
H2789 C2781 0.929 . S
H2790 C2798 0.929 . S
H2791 C2800 0.930 . S
H2792 C2802 0.930 . S
H2793 C2805 0.929 . S
H2794 C2808 0.930 . S
H2795 C2810 0.960 . S
H2796 C2810 0.960 . S
H2797 C2810 0.960 . S
C2798 H2790 0.929 . S
C2798 C2799 1.377 . S
C2798 C2800 1.384 . S
C2799 C2798 1.377 . S
C2799 C2805 1.390 . S
C2800 H2791 0.930 . S
C2800 C2798 1.384 . S
C2800 C2801 1.372 . S
C2801 C2800 1.372 . S
C2801 C2802 1.400 . S
C2801 C2806 1.490 . S
C2802 H2792 0.930 . S
C2802 C2801 1.400 . S
C2802 C2805 1.386 . S
H2803 C2819 0.930 . S
H2804 C2820 0.931 . S
C2805 H2793 0.929 . S
C2805 C2799 1.390 . S
C2805 C2802 1.386 . S
C2806 C2801 1.490 . S
C2806 C2808 1.395 . S
C2806 C2809 1.403 . S
H2807 C2813 0.930 . S
C2808 H2794 0.930 . S
C2808 C2806 1.395 . S
C2808 C2811 1.403 . S
C2809 C2806 1.403 . S
C2809 C2810 1.524 . S
C2809 C2813 1.400 . S
C2810 H2795 0.960 . S
C2810 H2796 0.960 . S
C2810 H2797 0.960 . S
C2810 C2809 1.524 . S
C2811 C2808 1.403 . S
C2811 C2812 1.392 . S
C2811 C2815 1.495 . S
C2812 C2811 1.392 . S
C2812 C2813 1.385 . S
C2812 C2814 1.478 . S
C2813 H2807 0.930 . S
C2813 C2809 1.400 . S
C2813 C2812 1.385 . S
C2814 C2812 1.478 . S
C2814 C2816 1.381 . S
C2814 C2820 1.383 . S
C2815 C2811 1.495 . S
C2815 H2821 0.959 . S
C2815 H2822 0.961 . S
C2815 H2823 0.960 . S
C2816 C2814 1.381 . S
C2816 C2817 1.394 . S
C2816 H2824 0.930 . S
C2817 C2816 1.394 . S
C2817 C2818 1.383 . S
C2817 H2825 0.929 . S
C2818 C2817 1.383 . S
C2818 C2819 1.377 . S
C2819 H2803 0.930 . S
C2819 C2818 1.377 . S
C2819 C2820 1.379 . S
C2820 H2804 0.931 . S
C2820 C2814 1.383 . S
C2820 C2819 1.379 . S
H2821 C2815 0.959 . S
H2822 C2815 0.961 . S
H2823 C2815 0.960 . S
H2824 C2816 0.930 . S
H2825 C2817 0.929 . S
H2826 C2834 0.929 . S
H2827 C2836 0.930 . S
H2828 C2838 0.930 . S
H2829 C2841 0.929 . S
H2830 C2844 0.930 . S
H2831 C2846 0.960 . S
H2832 C2846 0.960 . S
H2833 C2846 0.960 . S
C2834 H2826 0.929 . S
C2834 C2835 1.377 . S
C2834 C2836 1.384 . S
C2835 C2834 1.377 . S
C2835 C2841 1.390 . S
C2836 H2827 0.930 . S
C2836 C2834 1.384 . S
C2836 C2837 1.372 . S
C2837 C2836 1.372 . S
C2837 C2838 1.400 . S
C2837 C2842 1.490 . S
C2838 H2828 0.930 . S
C2838 C2837 1.400 . S
C2838 C2841 1.386 . S
H2839 C2855 0.930 . S
H2840 C2856 0.931 . S
C2841 H2829 0.929 . S
C2841 C2835 1.390 . S
C2841 C2838 1.386 . S
C2842 C2837 1.490 . S
C2842 C2844 1.395 . S
C2842 C2845 1.403 . S
H2843 C2849 0.930 . S
C2844 H2830 0.930 . S
C2844 C2842 1.395 . S
C2844 C2847 1.403 . S
C2845 C2842 1.403 . S
C2845 C2846 1.524 . S
C2845 C2849 1.400 . S
C2846 H2831 0.960 . S
C2846 H2832 0.960 . S
C2846 H2833 0.960 . S
C2846 C2845 1.524 . S
C2847 C2844 1.403 . S
C2847 C2848 1.392 . S
C2847 C2851 1.495 . S
C2848 C2847 1.392 . S
C2848 C2849 1.385 . S
C2848 C2850 1.478 . S
C2849 H2843 0.930 . S
C2849 C2845 1.400 . S
C2849 C2848 1.385 . S
C2850 C2848 1.478 . S
C2850 C2852 1.381 . S
C2850 C2856 1.383 . S
C2851 C2847 1.495 . S
C2851 H2857 0.959 . S
C2851 H2858 0.961 . S
C2851 H2859 0.960 . S
C2852 C2850 1.381 . S
C2852 C2853 1.394 . S
C2852 H2860 0.930 . S
C2853 C2852 1.394 . S
C2853 C2854 1.383 . S
C2853 H2861 0.929 . S
C2854 C2853 1.383 . S
C2854 C2855 1.377 . S
C2855 H2839 0.930 . S
C2855 C2854 1.377 . S
C2855 C2856 1.379 . S
C2856 H2840 0.931 . S
C2856 C2850 1.383 . S
C2856 C2855 1.379 . S
H2857 C2851 0.959 . S
H2858 C2851 0.961 . S
H2859 C2851 0.960 . S
H2860 C2852 0.930 . S
H2861 C2853 0.929 . S
H2862 C2870 0.929 . S
H2863 C2872 0.930 . S
H2864 C2874 0.930 . S
H2865 C2877 0.929 . S
H2866 C2880 0.930 . S
H2867 C2882 0.960 . S
H2868 C2882 0.960 . S
H2869 C2882 0.960 . S
C2870 H2862 0.929 . S
C2870 C2871 1.377 . S
C2870 C2872 1.384 . S
C2871 C2870 1.377 . S
C2871 C2877 1.390 . S
C2872 H2863 0.930 . S
C2872 C2870 1.384 . S
C2872 C2873 1.372 . S
C2873 C2872 1.372 . S
C2873 C2874 1.400 . S
C2873 C2878 1.490 . S
C2874 H2864 0.930 . S
C2874 C2873 1.400 . S
C2874 C2877 1.386 . S
H2875 C2891 0.930 . S
H2876 C2892 0.931 . S
C2877 H2865 0.929 . S
C2877 C2871 1.390 . S
C2877 C2874 1.386 . S
C2878 C2873 1.490 . S
C2878 C2880 1.395 . S
C2878 C2881 1.403 . S
H2879 C2885 0.930 . S
C2880 H2866 0.930 . S
C2880 C2878 1.395 . S
C2880 C2883 1.403 . S
C2881 C2878 1.403 . S
C2881 C2882 1.524 . S
C2881 C2885 1.400 . S
C2882 H2867 0.960 . S
C2882 H2868 0.960 . S
C2882 H2869 0.960 . S
C2882 C2881 1.524 . S
C2883 C2880 1.403 . S
C2883 C2884 1.392 . S
C2883 C2887 1.495 . S
C2884 C2883 1.392 . S
C2884 C2885 1.385 . S
C2884 C2886 1.478 . S
C2885 H2879 0.930 . S
C2885 C2881 1.400 . S
C2885 C2884 1.385 . S
C2886 C2884 1.478 . S
C2886 C2888 1.381 . S
C2886 C2892 1.383 . S
C2887 C2883 1.495 . S
C2887 H2893 0.959 . S
C2887 H2894 0.961 . S
C2887 H2895 0.960 . S
C2888 C2886 1.381 . S
C2888 C2889 1.394 . S
C2888 H2896 0.930 . S
C2889 C2888 1.394 . S
C2889 C2890 1.383 . S
C2889 H2897 0.929 . S
C2890 C2889 1.383 . S
C2890 C2891 1.377 . S
C2891 H2875 0.930 . S
C2891 C2890 1.377 . S
C2891 C2892 1.379 . S
C2892 H2876 0.931 . S
C2892 C2886 1.383 . S
C2892 C2891 1.379 . S
H2893 C2887 0.959 . S
H2894 C2887 0.961 . S
H2895 C2887 0.960 . S
H2896 C2888 0.930 . S
H2897 C2889 0.929 . S
H2898 C2906 0.929 . S
H2899 C2908 0.930 . S
H2900 C2910 0.930 . S
H2901 C2913 0.929 . S
H2902 C2916 0.930 . S
H2903 C2918 0.960 . S
H2904 C2918 0.960 . S
H2905 C2918 0.960 . S
C2906 H2898 0.929 . S
C2906 C2907 1.377 . S
C2906 C2908 1.384 . S
C2907 C2906 1.377 . S
C2907 C2913 1.390 . S
C2908 H2899 0.930 . S
C2908 C2906 1.384 . S
C2908 C2909 1.372 . S
C2909 C2908 1.372 . S
C2909 C2910 1.400 . S
C2909 C2914 1.490 . S
C2910 H2900 0.930 . S
C2910 C2909 1.400 . S
C2910 C2913 1.386 . S
H2911 C2927 0.930 . S
H2912 C2928 0.931 . S
C2913 H2901 0.929 . S
C2913 C2907 1.390 . S
C2913 C2910 1.386 . S
C2914 C2909 1.490 . S
C2914 C2916 1.395 . S
C2914 C2917 1.403 . S
H2915 C2921 0.930 . S
C2916 H2902 0.930 . S
C2916 C2914 1.395 . S
C2916 C2919 1.403 . S
C2917 C2914 1.403 . S
C2917 C2918 1.524 . S
C2917 C2921 1.400 . S
C2918 H2903 0.960 . S
C2918 H2904 0.960 . S
C2918 H2905 0.960 . S
C2918 C2917 1.524 . S
C2919 C2916 1.403 . S
C2919 C2920 1.392 . S
C2919 C2923 1.495 . S
C2920 C2919 1.392 . S
C2920 C2921 1.385 . S
C2920 C2922 1.478 . S
C2921 H2915 0.930 . S
C2921 C2917 1.400 . S
C2921 C2920 1.385 . S
C2922 C2920 1.478 . S
C2922 C2924 1.381 . S
C2922 C2928 1.383 . S
C2923 C2919 1.495 . S
C2923 H2929 0.959 . S
C2923 H2930 0.961 . S
C2923 H2931 0.960 . S
C2924 C2922 1.381 . S
C2924 C2925 1.394 . S
C2924 H2932 0.930 . S
C2925 C2924 1.394 . S
C2925 C2926 1.383 . S
C2925 H2933 0.929 . S
C2926 C2925 1.383 . S
C2926 C2927 1.377 . S
C2927 H2911 0.930 . S
C2927 C2926 1.377 . S
C2927 C2928 1.379 . S
C2928 H2912 0.931 . S
C2928 C2922 1.383 . S
C2928 C2927 1.379 . S
H2929 C2923 0.959 . S
H2930 C2923 0.961 . S
H2931 C2923 0.960 . S
H2932 C2924 0.930 . S
H2933 C2925 0.929 . S
H2934 C2942 0.929 . S
H2935 C2944 0.930 . S
H2936 C2946 0.930 . S
H2937 C2949 0.929 . S
H2938 C2952 0.930 . S
H2939 C2954 0.960 . S
H2940 C2954 0.960 . S
H2941 C2954 0.960 . S
C2942 H2934 0.929 . S
C2942 C2943 1.377 . S
C2942 C2944 1.384 . S
C2943 C2942 1.377 . S
C2943 C2949 1.390 . S
C2944 H2935 0.930 . S
C2944 C2942 1.384 . S
C2944 C2945 1.372 . S
C2945 C2944 1.372 . S
C2945 C2946 1.400 . S
C2945 C2950 1.490 . S
C2946 H2936 0.930 . S
C2946 C2945 1.400 . S
C2946 C2949 1.386 . S
H2947 C2963 0.930 . S
H2948 C2964 0.931 . S
C2949 H2937 0.929 . S
C2949 C2943 1.390 . S
C2949 C2946 1.386 . S
C2950 C2945 1.490 . S
C2950 C2952 1.395 . S
C2950 C2953 1.403 . S
H2951 C2957 0.930 . S
C2952 H2938 0.930 . S
C2952 C2950 1.395 . S
C2952 C2955 1.403 . S
C2953 C2950 1.403 . S
C2953 C2954 1.524 . S
C2953 C2957 1.400 . S
C2954 H2939 0.960 . S
C2954 H2940 0.960 . S
C2954 H2941 0.960 . S
C2954 C2953 1.524 . S
C2955 C2952 1.403 . S
C2955 C2956 1.392 . S
C2955 C2959 1.495 . S
C2956 C2955 1.392 . S
C2956 C2957 1.385 . S
C2956 C2958 1.478 . S
C2957 H2951 0.930 . S
C2957 C2953 1.400 . S
C2957 C2956 1.385 . S
C2958 C2956 1.478 . S
C2958 C2960 1.381 . S
C2958 C2964 1.383 . S
C2959 C2955 1.495 . S
C2959 H2965 0.959 . S
C2959 H2966 0.961 . S
C2959 H2967 0.960 . S
C2960 C2958 1.381 . S
C2960 C2961 1.394 . S
C2960 H2968 0.930 . S
C2961 C2960 1.394 . S
C2961 C2962 1.383 . S
C2961 H2969 0.929 . S
C2962 C2961 1.383 . S
C2962 C2963 1.377 . S
C2963 H2947 0.930 . S
C2963 C2962 1.377 . S
C2963 C2964 1.379 . S
C2964 H2948 0.931 . S
C2964 C2958 1.383 . S
C2964 C2963 1.379 . S
H2965 C2959 0.959 . S
H2966 C2959 0.961 . S
H2967 C2959 0.960 . S
H2968 C2960 0.930 . S
H2969 C2961 0.929 . S
H2970 C2978 0.929 . S
H2971 C2980 0.930 . S
H2972 C2982 0.930 . S
H2973 C2985 0.929 . S
H2974 C2988 0.930 . S
H2975 C2990 0.960 . S
H2976 C2990 0.960 . S
H2977 C2990 0.960 . S
C2978 H2970 0.929 . S
C2978 C2979 1.377 . S
C2978 C2980 1.384 . S
C2979 C2978 1.377 . S
C2979 C2985 1.390 . S
C2980 H2971 0.930 . S
C2980 C2978 1.384 . S
C2980 C2981 1.372 . S
C2981 C2980 1.372 . S
C2981 C2982 1.400 . S
C2981 C2986 1.490 . S
C2982 H2972 0.930 . S
C2982 C2981 1.400 . S
C2982 C2985 1.386 . S
H2983 C2999 0.930 . S
H2984 C3000 0.931 . S
C2985 H2973 0.929 . S
C2985 C2979 1.390 . S
C2985 C2982 1.386 . S
C2986 C2981 1.490 . S
C2986 C2988 1.395 . S
C2986 C2989 1.403 . S
H2987 C2993 0.930 . S
C2988 H2974 0.930 . S
C2988 C2986 1.395 . S
C2988 C2991 1.403 . S
C2989 C2986 1.403 . S
C2989 C2990 1.524 . S
C2989 C2993 1.400 . S
C2990 H2975 0.960 . S
C2990 H2976 0.960 . S
C2990 H2977 0.960 . S
C2990 C2989 1.524 . S
C2991 C2988 1.403 . S
C2991 C2992 1.392 . S
C2991 C2995 1.495 . S
C2992 C2991 1.392 . S
C2992 C2993 1.385 . S
C2992 C2994 1.478 . S
C2993 H2987 0.930 . S
C2993 C2989 1.400 . S
C2993 C2992 1.385 . S
C2994 C2992 1.478 . S
C2994 C2996 1.381 . S
C2994 C3000 1.383 . S
C2995 C2991 1.495 . S
C2995 H3001 0.959 . S
C2995 H3002 0.961 . S
C2995 H3003 0.960 . S
C2996 C2994 1.381 . S
C2996 C2997 1.394 . S
C2996 H3004 0.930 . S
C2997 C2996 1.394 . S
C2997 C2998 1.383 . S
C2997 H3005 0.929 . S
C2998 C2997 1.383 . S
C2998 C2999 1.377 . S
C2999 H2983 0.930 . S
C2999 C2998 1.377 . S
C2999 C3000 1.379 . S
C3000 H2984 0.931 . S
C3000 C2994 1.383 . S
C3000 C2999 1.379 . S
H3001 C2995 0.959 . S
H3002 C2995 0.961 . S
H3003 C2995 0.960 . S
H3004 C2996 0.930 . S
H3005 C2997 0.929 . S
H3006 C3014 0.929 . S
H3007 C3016 0.930 . S
H3008 C3018 0.930 . S
H3009 C3021 0.929 . S
H3010 C3024 0.930 . S
H3011 C3026 0.960 . S
H3012 C3026 0.960 . S
H3013 C3026 0.960 . S
C3014 H3006 0.929 . S
C3014 C3015 1.377 . S
C3014 C3016 1.384 . S
C3015 C3014 1.377 . S
C3015 C3021 1.390 . S
C3016 H3007 0.930 . S
C3016 C3014 1.384 . S
C3016 C3017 1.372 . S
C3017 C3016 1.372 . S
C3017 C3018 1.400 . S
C3017 C3022 1.490 . S
C3018 H3008 0.930 . S
C3018 C3017 1.400 . S
C3018 C3021 1.386 . S
H3019 C3035 0.930 . S
H3020 C3036 0.931 . S
C3021 H3009 0.929 . S
C3021 C3015 1.390 . S
C3021 C3018 1.386 . S
C3022 C3017 1.490 . S
C3022 C3024 1.395 . S
C3022 C3025 1.403 . S
H3023 C3029 0.930 . S
C3024 H3010 0.930 . S
C3024 C3022 1.395 . S
C3024 C3027 1.403 . S
C3025 C3022 1.403 . S
C3025 C3026 1.524 . S
C3025 C3029 1.400 . S
C3026 H3011 0.960 . S
C3026 H3012 0.960 . S
C3026 H3013 0.960 . S
C3026 C3025 1.524 . S
C3027 C3024 1.403 . S
C3027 C3028 1.392 . S
C3027 C3031 1.495 . S
C3028 C3027 1.392 . S
C3028 C3029 1.385 . S
C3028 C3030 1.478 . S
C3029 H3023 0.930 . S
C3029 C3025 1.400 . S
C3029 C3028 1.385 . S
C3030 C3028 1.478 . S
C3030 C3032 1.381 . S
C3030 C3036 1.383 . S
C3031 C3027 1.495 . S
C3031 H3037 0.959 . S
C3031 H3038 0.961 . S
C3031 H3039 0.960 . S
C3032 C3030 1.381 . S
C3032 C3033 1.394 . S
C3032 H3040 0.930 . S
C3033 C3032 1.394 . S
C3033 C3034 1.383 . S
C3033 H3041 0.929 . S
C3034 C3033 1.383 . S
C3034 C3035 1.377 . S
C3035 H3019 0.930 . S
C3035 C3034 1.377 . S
C3035 C3036 1.379 . S
C3036 H3020 0.931 . S
C3036 C3030 1.383 . S
C3036 C3035 1.379 . S
H3037 C3031 0.959 . S
H3038 C3031 0.961 . S
H3039 C3031 0.960 . S
H3040 C3032 0.930 . S
H3041 C3033 0.929 . S
C1107 C253 1.442 . S
C1126 C409 1.387 . S
C1143 C272 1.474 . S
C1162 C493 1.446 . S
C1179 C234 1.423 . S
C1198 C573 1.428 . S
C1215 C215 1.409 . S
C1234 C489 1.406 1_556 S
C1270 C577 1.338 . S
C1251 C177 1.426 . S
C1287 C196 1.382 . S
C1306 C405 1.364 1_556 S
C1342 C398 1.467 . S
C1323 C220 1.462 . S
C1378 C482 1.509 . S
C1359 C182 1.491 . S
C1395 C201 1.478 . S
C1414 C584 1.557 . S
C1431 C258 1.450 . S
C1450 C500 1.468 . S
C1467 C277 1.427 . S
C1486 C566 1.417 . S
C1522 C416 1.485 . S
C1503 C239 1.419 . S
C1558 C661 1.359 . S
C1539 C25 1.442 . S
C1575 C44 1.474 . S
C1594 C745 1.445 . S
C1611 C6 1.423 . S
C1630 C825 1.437 . S
C1647 C329 1.404 . S
C1666 C741 1.414 . S
C1683 C291 1.427 . S
C1702 C829 1.336 . S
C1719 C310 1.377 . S
C1738 C657 1.389 . S
C1755 C334 1.466 . S
C1774 C650 1.485 . S
C1791 C296 1.482 . S
C1810 C734 1.486 . S
C1846 C836 1.544 . S
C1827 C315 1.479 . S
C1863 C30 1.450 . S
C1882 C752 1.481 . S
C1918 C818 1.424 . S
C1899 C49 1.426 . S
C1935 C11 1.423 . S
C1954 C668 1.437 . S
C1990 C913 1.402 . S
C1971 C139 1.438 . S
C2007 C158 1.473 . S
C2026 C997 1.389 . S
C2062 C1077 1.432 . S
C2043 C120 1.423 . S
C2098 C993 1.412 . S
C2079 C101 1.407 . S
C2134 C1081 1.386 . S
C2115 C63 1.425 . S
C2151 C82 1.382 . S
C2170 C909 1.377 . S
C2187 C106 1.462 . S
C2206 C902 1.466 . S
C2223 C68 1.484 . S
C2242 C986 1.501 . S
C2278 C1088 1.511 . S
C2259 C87 1.486 . S
C2295 C144 1.445 . S
C2314 C1004 1.506 . S
C2331 C163 1.426 . S
C2350 C1070 1.420 . S
C2367 C125 1.421 . S
C2386 C920 1.488 . S
C2403 C287 1.650 . S
C2422 C412 1.539 . S
C2458 C496 1.629 . S
C2439 C306 1.745 . S
C2475 C325 1.664 . S
C2494 C568 1.451 . S
C2511 C116 1.704 . S
C2530 C484 1.530 . S
C2547 C135 1.690 . S
C2566 C580 1.582 . S
C2602 C400 1.395 . S
C2583 C154 1.607 . S
C2619 C59 1.648 . S
C2638 C664 1.497 . S
C2655 C78 1.740 . S
C2674 C748 1.580 . S
C2691 C97 1.665 . S
C2710 C820 1.469 . S
C2727 C230 1.703 . S
C2746 C736 1.512 . S
C2782 C832 1.582 . S
C2763 C249 1.690 . S
C2799 C268 1.610 . S
C2818 C652 1.426 . S
C2835 C173 1.654 . S
C2854 C916 1.529 . S
C2871 C192 1.744 . S
C2890 C1000 1.587 . S
C2926 C1072 1.467 . S
C2907 C211 1.664 . S
C2943 C2 1.703 . S
C2962 C988 1.514 . S
C2979 C21 1.690 . S
C2998 C1084 1.567 . S
C3015 C40 1.610 . S
C3034 C904 1.411 . S
